
     RDKit          3D

 24 27  0  0  0  0  0  0  0  0999 V2000
    7.8210   43.7020   49.3990 C   0  0  0  0  0  0  0  0  0  0  0  0
   10.7390   46.1550   51.6470 C   0  0  0  0  0  0  0  0  0  0  0  0
    5.1160   45.2740   51.6170 C   0  0  0  0  0  0  0  0  0  0  0  0
    4.1070   45.7240   52.7030 C   0  0  0  0  0  0  0  0  0  0  0  0
    2.7660   45.9860   51.9860 C   0  0  0  0  0  0  0  0  0  0  0  0
    1.5620   46.0860   52.9390 C   0  0  0  0  0  0  0  0  0  0  0  0
    1.4480   44.9690   53.9870 C   0  0  0  0  0  0  0  0  0  0  0  0
    2.7870   44.7400   54.7250 C   0  0  0  0  0  0  0  0  0  0  0  0
    4.0090   44.6090   53.7920 C   0  0  0  0  0  0  0  0  0  0  0  0
    4.6670   40.9170   47.4030 C   0  0  0  0  0  0  0  0  0  0  0  0
    4.0590   40.6480   48.6330 C   0  0  0  0  0  0  0  0  0  0  0  0
    4.6450   41.0930   49.8150 C   0  0  0  0  0  0  0  0  0  0  0  0
    5.8520   41.7890   49.8080 C   0  0  0  0  0  0  0  0  0  0  0  0
    6.8700   44.4890   50.1810 N   0  0  0  0  0  0  0  0  0  0  0  0
    7.2370   45.3850   51.0370 C   0  0  0  0  0  0  0  0  0  0  0  0
    6.3200   46.0740   51.7360 O   0  0  0  0  0  0  0  0  0  0  0  0
    8.6590   45.6250   51.1990 C   0  0  0  0  0  0  0  0  0  0  0  0
    9.5490   46.4520   51.9630 N   0  0  0  0  0  0  0  0  0  0  0  0
   10.7730   45.2130   50.7360 N   0  0  0  0  0  0  0  0  0  0  0  0
    9.5340   44.9120   50.4780 C   0  0  0  0  0  0  0  0  0  0  0  0
    9.0610   43.9200   49.5710 N   0  0  0  0  0  0  0  0  0  0  0  0
    7.6000   42.7620   48.5320 N   0  0  0  0  0  0  0  0  0  0  0  0
    6.4450   42.0610   48.5810 C   0  0  0  0  0  0  0  0  0  0  0  0
    5.8550   41.6320   47.3960 C   0  0  0  0  0  0  0  0  0  0  0  0
  1 14  2  0
  1 21  1  0
  1 22  1  0
  2 18  1  0
  2 19  2  0
  3  4  1  0
  3 16  1  0
  4  5  1  0
  4  9  1  0
  5  6  1  0
  6  7  1  0
  7  8  1  0
  8  9  1  0
 10 11  2  0
 10 24  1  0
 11 12  1  0
 12 13  2  0
 13 23  1  0
 14 15  1  0
 15 16  1  0
 15 17  2  0
 17 18  1  0
 17 20  1  0
 19 20  1  0
 20 21  2  0
 22 23  1  0
 23 24  2  0
M  END
$$$$
