ligand_49_conformer_1_docked
     RDKit          3D

 44 47  0  0  0  0  0  0  0  0999 V2000
    0.0950   45.1200   51.8230 O   0  0  0  0  0  0  0  0  0  0  0  0
    1.3140   44.8730   51.6150 C   0  0  0  0  0  0  0  0  0  0  0  0
    1.7000   43.5040   51.1310 C   0  0  0  0  0  0  0  0  0  0  0  0
    2.9830   42.7830   52.2120 S   0  0  0  0  0  0  0  0  0  0  0  0
    4.0300   42.2270   50.8630 C   0  0  0  0  0  0  0  0  0  0  0  0
    3.6210   41.1660   50.0450 C   0  0  0  0  0  0  0  0  0  0  0  0
    4.4370   40.7350   48.9950 C   0  0  0  0  0  0  0  0  0  0  0  0
    5.6610   41.3660   48.7550 C   0  0  0  0  0  0  0  0  0  0  0  0
    6.0660   42.4370   49.5580 C   0  0  0  0  0  0  0  0  0  0  0  0
    7.7310   43.3100   49.2210 Br  0  0  0  0  0  0  0  0  0  0  0  0
    5.2510   42.8680   50.6110 C   0  0  0  0  0  0  0  0  0  0  0  0
    2.3000   45.8790   51.9110 N   0  0  0  0  0  0  0  0  0  0  0  0
    3.2540   46.3640   50.8950 C   0  0  0  0  0  0  0  0  0  0  0  0
    4.6930   46.0500   51.3380 C   0  0  0  0  0  0  0  0  0  0  0  0
    4.8660   46.4050   52.7900 C   0  0  0  0  0  0  0  0  0  0  0  0
    3.8200   46.5630   53.6630 C   0  0  0  0  0  0  0  0  0  0  0  0
    4.2760   46.9030   54.8830 N   0  0  0  0  0  0  0  0  0  0  0  0
    5.6210   46.9250   54.7240 C   0  0  0  0  0  0  0  0  0  0  0  0
    6.0130   46.6180   53.4650 N   0  0  0  0  0  0  0  0  0  0  0  0
    7.3670   46.5790   52.9800 C   0  0  0  0  0  0  0  0  0  0  0  0
    7.6510   46.1870   51.6600 C   0  0  0  0  0  0  0  0  0  0  0  0
    8.9710   46.1350   51.2040 C   0  0  0  0  0  0  0  0  0  0  0  0
   10.0220   46.4690   52.0620 C   0  0  0  0  0  0  0  0  0  0  0  0
   11.3020   46.4190   51.6180 F   0  0  0  0  0  0  0  0  0  0  0  0
    9.7530   46.8510   53.3790 C   0  0  0  0  0  0  0  0  0  0  0  0
    8.4340   46.9010   53.8380 C   0  0  0  0  0  0  0  0  0  0  0  0
    2.3810   46.4540   53.2630 C   0  0  0  0  0  0  0  0  0  0  0  0
    0.8128   42.8537   51.1385 H   0  0  0  0  0  0  0  0  0  0  0  0
    2.1002   43.5870   50.1097 H   0  0  0  0  0  0  0  0  0  0  0  0
    2.6560   40.6711   50.2292 H   0  0  0  0  0  0  0  0  0  0  0  0
    4.1156   39.8985   48.3570 H   0  0  0  0  0  0  0  0  0  0  0  0
    6.3061   41.0199   47.9340 H   0  0  0  0  0  0  0  0  0  0  0  0
    5.5690   43.7111   51.2419 H   0  0  0  0  0  0  0  0  0  0  0  0
    3.0504   45.8655   49.9358 H   0  0  0  0  0  0  0  0  0  0  0  0
    3.1392   47.4519   50.7797 H   0  0  0  0  0  0  0  0  0  0  0  0
    4.8929   44.9775   51.1976 H   0  0  0  0  0  0  0  0  0  0  0  0
    5.3972   46.6396   50.7326 H   0  0  0  0  0  0  0  0  0  0  0  0
    6.3232   47.1676   55.5352 H   0  0  0  0  0  0  0  0  0  0  0  0
    6.8280   45.9192   50.9811 H   0  0  0  0  0  0  0  0  0  0  0  0
    9.1828   45.8308   50.1684 H   0  0  0  0  0  0  0  0  0  0  0  0
   10.5803   47.1126   54.0551 H   0  0  0  0  0  0  0  0  0  0  0  0
    8.2287   47.1944   54.8781 H   0  0  0  0  0  0  0  0  0  0  0  0
    1.8496   45.8030   53.9727 H   0  0  0  0  0  0  0  0  0  0  0  0
    1.9175   47.4516   53.2701 H   0  0  0  0  0  0  0  0  0  0  0  0
  1  2  2  0
  2  3  1  0
  3  4  1  0
  4  5  1  0
  5  6  2  0
  6  7  1  0
  7  8  2  0
  8  9  1  0
  9 10  1  0
  9 11  2  0
  2 12  1  0
 12 13  1  0
 13 14  1  0
 14 15  1  0
 15 16  2  0
 16 17  1  0
 17 18  2  0
 18 19  1  0
 19 20  1  0
 20 21  2  0
 21 22  1  0
 22 23  2  0
 23 24  1  0
 23 25  1  0
 25 26  2  0
 16 27  1  0
 11  5  1  0
 27 12  1  0
 19 15  1  0
 26 20  1  0
  3 28  1  0
  3 29  1  0
  6 30  1  0
  7 31  1  0
  8 32  1  0
 11 33  1  0
 13 34  1  0
 13 35  1  0
 14 36  1  0
 14 37  1  0
 18 38  1  0
 21 39  1  0
 22 40  1  0
 25 41  1  0
 26 42  1  0
 27 43  1  0
 27 44  1  0
M  END
>  <meeko>  (1) 
{"is_sidechain": [false], "free_energy": -10.185, "intermolecular_energy": -13.162, "internal_energy": -0.621}

$$$$
ligand_49_conformer_1_docked
     RDKit          3D

 44 47  0  0  0  0  0  0  0  0999 V2000
    1.6930   43.7220   50.8270 O   0  0  0  0  0  0  0  0  0  0  0  0
    1.3940   44.7100   51.5510 C   0  0  0  0  0  0  0  0  0  0  0  0
    0.0050   44.7950   52.1170 C   0  0  0  0  0  0  0  0  0  0  0  0
   -0.3240   43.3750   53.2170 S   0  0  0  0  0  0  0  0  0  0  0  0
   -0.1760   44.3190   54.7380 C   0  0  0  0  0  0  0  0  0  0  0  0
    1.0820   44.5260   55.3180 C   0  0  0  0  0  0  0  0  0  0  0  0
    1.1970   45.2600   56.5020 C   0  0  0  0  0  0  0  0  0  0  0  0
    0.0560   45.7950   57.1070 C   0  0  0  0  0  0  0  0  0  0  0  0
   -1.2010   45.6060   56.5220 C   0  0  0  0  0  0  0  0  0  0  0  0
   -2.7590   46.3490   57.3400 Br  0  0  0  0  0  0  0  0  0  0  0  0
   -1.3170   44.8690   55.3380 C   0  0  0  0  0  0  0  0  0  0  0  0
    2.3630   45.7550   51.7580 N   0  0  0  0  0  0  0  0  0  0  0  0
    3.3580   46.1150   50.7310 C   0  0  0  0  0  0  0  0  0  0  0  0
    4.7770   45.8730   51.2720 C   0  0  0  0  0  0  0  0  0  0  0  0
    4.8850   46.4120   52.6740 C   0  0  0  0  0  0  0  0  0  0  0  0
    3.8000   46.6710   53.4720 C   0  0  0  0  0  0  0  0  0  0  0  0
    4.2010   47.1690   54.6580 N   0  0  0  0  0  0  0  0  0  0  0  0
    5.5510   47.1820   54.5560 C   0  0  0  0  0  0  0  0  0  0  0  0
    6.0000   46.7200   53.3650 N   0  0  0  0  0  0  0  0  0  0  0  0
    7.3750   46.6320   52.9490 C   0  0  0  0  0  0  0  0  0  0  0  0
    7.7110   46.1880   51.6580 C   0  0  0  0  0  0  0  0  0  0  0  0
    9.0500   46.0890   51.2690 C   0  0  0  0  0  0  0  0  0  0  0  0
   10.0670   46.4280   52.1660 C   0  0  0  0  0  0  0  0  0  0  0  0
   11.3650   46.3310   51.7870 F   0  0  0  0  0  0  0  0  0  0  0  0
    9.7440   46.8610   53.4540 C   0  0  0  0  0  0  0  0  0  0  0  0
    8.4070   46.9590   53.8470 C   0  0  0  0  0  0  0  0  0  0  0  0
    2.3810   46.4990   53.0270 C   0  0  0  0  0  0  0  0  0  0  0  0
   -0.0960   45.7283   52.6904 H   0  0  0  0  0  0  0  0  0  0  0  0
   -0.7187   44.7792   51.2888 H   0  0  0  0  0  0  0  0  0  0  0  0
    1.9815   44.1100   54.8407 H   0  0  0  0  0  0  0  0  0  0  0  0
    2.1858   45.4167   56.9579 H   0  0  0  0  0  0  0  0  0  0  0  0
    0.1464   46.3649   58.0435 H   0  0  0  0  0  0  0  0  0  0  0  0
   -2.3050   44.7212   54.8776 H   0  0  0  0  0  0  0  0  0  0  0  0
    3.1984   45.4966   49.8354 H   0  0  0  0  0  0  0  0  0  0  0  0
    3.2445   47.1782   50.4727 H   0  0  0  0  0  0  0  0  0  0  0  0
    4.9866   44.7932   51.2783 H   0  0  0  0  0  0  0  0  0  0  0  0
    5.5050   46.3871   50.6272 H   0  0  0  0  0  0  0  0  0  0  0  0
    6.2158   47.5324   55.3593 H   0  0  0  0  0  0  0  0  0  0  0  0
    6.9148   45.9167   50.9492 H   0  0  0  0  0  0  0  0  0  0  0  0
    9.3036   45.7439   50.2558 H   0  0  0  0  0  0  0  0  0  0  0  0
   10.5444   47.1255   54.1607 H   0  0  0  0  0  0  0  0  0  0  0  0
    8.1598   47.2940   54.8652 H   0  0  0  0  0  0  0  0  0  0  0  0
    1.8205   45.9394   53.7904 H   0  0  0  0  0  0  0  0  0  0  0  0
    1.9140   47.4849   52.8860 H   0  0  0  0  0  0  0  0  0  0  0  0
  1  2  2  0
  2  3  1  0
  3  4  1  0
  4  5  1  0
  5  6  2  0
  6  7  1  0
  7  8  2  0
  8  9  1  0
  9 10  1  0
  9 11  2  0
  2 12  1  0
 12 13  1  0
 13 14  1  0
 14 15  1  0
 15 16  2  0
 16 17  1  0
 17 18  2  0
 18 19  1  0
 19 20  1  0
 20 21  2  0
 21 22  1  0
 22 23  2  0
 23 24  1  0
 23 25  1  0
 25 26  2  0
 16 27  1  0
 11  5  1  0
 27 12  1  0
 19 15  1  0
 26 20  1  0
  3 28  1  0
  3 29  1  0
  6 30  1  0
  7 31  1  0
  8 32  1  0
 11 33  1  0
 13 34  1  0
 13 35  1  0
 14 36  1  0
 14 37  1  0
 18 38  1  0
 21 39  1  0
 22 40  1  0
 25 41  1  0
 26 42  1  0
 27 43  1  0
 27 44  1  0
M  END
>  <meeko>  (2) 
{"is_sidechain": [false], "free_energy": -8.605, "intermolecular_energy": -11.518, "internal_energy": -0.223}

$$$$
ligand_49_conformer_1_docked
     RDKit          3D

 44 47  0  0  0  0  0  0  0  0999 V2000
    7.3710   47.4470   54.0960 O   0  0  0  0  0  0  0  0  0  0  0  0
    6.2840   47.0530   53.5910 C   0  0  0  0  0  0  0  0  0  0  0  0
    5.0660   46.9800   54.4680 C   0  0  0  0  0  0  0  0  0  0  0  0
    4.9820   45.3630   55.3110 S   0  0  0  0  0  0  0  0  0  0  0  0
    3.2790   45.0330   54.8460 C   0  0  0  0  0  0  0  0  0  0  0  0
    2.2280   45.4990   55.6470 C   0  0  0  0  0  0  0  0  0  0  0  0
    0.9030   45.2410   55.2840 C   0  0  0  0  0  0  0  0  0  0  0  0
    0.6230   44.5230   54.1180 C   0  0  0  0  0  0  0  0  0  0  0  0
    1.6690   44.0700   53.3060 C   0  0  0  0  0  0  0  0  0  0  0  0
    1.2870   43.1020   51.7050 Br  0  0  0  0  0  0  0  0  0  0  0  0
    2.9960   44.3260   53.6700 C   0  0  0  0  0  0  0  0  0  0  0  0
    6.2570   46.6230   52.2170 N   0  0  0  0  0  0  0  0  0  0  0  0
    4.9960   46.3130   51.5190 C   0  0  0  0  0  0  0  0  0  0  0  0
    4.9900   44.8390   51.0820 C   0  0  0  0  0  0  0  0  0  0  0  0
    6.3190   44.4850   50.4690 C   0  0  0  0  0  0  0  0  0  0  0  0
    7.4630   45.2150   50.6650 C   0  0  0  0  0  0  0  0  0  0  0  0
    8.4860   44.6760   49.9750 N   0  0  0  0  0  0  0  0  0  0  0  0
    7.9290   43.5960   49.3770 C   0  0  0  0  0  0  0  0  0  0  0  0
    6.6150   43.4450   49.6640 N   0  0  0  0  0  0  0  0  0  0  0  0
    5.7460   42.4120   49.1650 C   0  0  0  0  0  0  0  0  0  0  0  0
    5.7740   42.0380   47.8100 C   0  0  0  0  0  0  0  0  0  0  0  0
    4.9130   41.0460   47.3320 C   0  0  0  0  0  0  0  0  0  0  0  0
    4.0130   40.4210   48.1990 C   0  0  0  0  0  0  0  0  0  0  0  0
    3.1790   39.4590   47.7330 F   0  0  0  0  0  0  0  0  0  0  0  0
    3.9710   40.7920   49.5460 C   0  0  0  0  0  0  0  0  0  0  0  0
    4.8280   41.7850   50.0260 C   0  0  0  0  0  0  0  0  0  0  0  0
    7.5150   46.4780   51.4680 C   0  0  0  0  0  0  0  0  0  0  0  0
    5.1143   47.7794   55.2221 H   0  0  0  0  0  0  0  0  0  0  0  0
    4.1693   47.1025   53.8428 H   0  0  0  0  0  0  0  0  0  0  0  0
    2.4459   46.0685   56.5625 H   0  0  0  0  0  0  0  0  0  0  0  0
    0.0796   45.6035   55.9169 H   0  0  0  0  0  0  0  0  0  0  0  0
   -0.4201   44.3138   53.8384 H   0  0  0  0  0  0  0  0  0  0  0  0
    3.8185   43.9714   53.0314 H   0  0  0  0  0  0  0  0  0  0  0  0
    4.1492   46.4962   52.1967 H   0  0  0  0  0  0  0  0  0  0  0  0
    4.9060   46.9551   50.6304 H   0  0  0  0  0  0  0  0  0  0  0  0
    4.8095   44.1988   51.9581 H   0  0  0  0  0  0  0  0  0  0  0  0
    4.1936   44.6829   50.3394 H   0  0  0  0  0  0  0  0  0  0  0  0
    8.4884   42.9103   48.7236 H   0  0  0  0  0  0  0  0  0  0  0  0
    6.4778   42.5290   47.1218 H   0  0  0  0  0  0  0  0  0  0  0  0
    4.9440   40.7568   46.2712 H   0  0  0  0  0  0  0  0  0  0  0  0
    3.2620   40.3012   50.2290 H   0  0  0  0  0  0  0  0  0  0  0  0
    4.7845   42.0786   51.0852 H   0  0  0  0  0  0  0  0  0  0  0  0
    8.3596   46.4331   52.1713 H   0  0  0  0  0  0  0  0  0  0  0  0
    7.6487   47.3392   50.7969 H   0  0  0  0  0  0  0  0  0  0  0  0
  1  2  2  0
  2  3  1  0
  3  4  1  0
  4  5  1  0
  5  6  2  0
  6  7  1  0
  7  8  2  0
  8  9  1  0
  9 10  1  0
  9 11  2  0
  2 12  1  0
 12 13  1  0
 13 14  1  0
 14 15  1  0
 15 16  2  0
 16 17  1  0
 17 18  2  0
 18 19  1  0
 19 20  1  0
 20 21  2  0
 21 22  1  0
 22 23  2  0
 23 24  1  0
 23 25  1  0
 25 26  2  0
 16 27  1  0
 11  5  1  0
 27 12  1  0
 19 15  1  0
 26 20  1  0
  3 28  1  0
  3 29  1  0
  6 30  1  0
  7 31  1  0
  8 32  1  0
 11 33  1  0
 13 34  1  0
 13 35  1  0
 14 36  1  0
 14 37  1  0
 18 38  1  0
 21 39  1  0
 22 40  1  0
 25 41  1  0
 26 42  1  0
 27 43  1  0
 27 44  1  0
M  END
>  <meeko>  (3) 
{"is_sidechain": [false], "free_energy": -8.4, "intermolecular_energy": -10.69, "internal_energy": -0.786}

$$$$
ligand_49_conformer_1_docked
     RDKit          3D

 44 47  0  0  0  0  0  0  0  0999 V2000
    2.2720   42.0850   50.5450 O   0  0  0  0  0  0  0  0  0  0  0  0
    2.5190   42.8700   51.5010 C   0  0  0  0  0  0  0  0  0  0  0  0
    3.9040   42.8850   52.0830 C   0  0  0  0  0  0  0  0  0  0  0  0
    5.0710   43.6880   50.9310 S   0  0  0  0  0  0  0  0  0  0  0  0
    5.6830   44.8760   52.1320 C   0  0  0  0  0  0  0  0  0  0  0  0
    5.2690   44.8030   53.4680 C   0  0  0  0  0  0  0  0  0  0  0  0
    5.7460   45.7280   54.4010 C   0  0  0  0  0  0  0  0  0  0  0  0
    6.6430   46.7240   54.0050 C   0  0  0  0  0  0  0  0  0  0  0  0
    7.0730   46.7890   52.6750 C   0  0  0  0  0  0  0  0  0  0  0  0
    8.3100   48.1410   52.1360 Br  0  0  0  0  0  0  0  0  0  0  0  0
    6.5940   45.8650   51.7390 C   0  0  0  0  0  0  0  0  0  0  0  0
    1.4570   43.6740   52.0480 N   0  0  0  0  0  0  0  0  0  0  0  0
    1.6530   45.0900   52.4090 C   0  0  0  0  0  0  0  0  0  0  0  0
    1.4140   45.2830   53.9160 C   0  0  0  0  0  0  0  0  0  0  0  0
    0.1680   44.5460   54.3310 C   0  0  0  0  0  0  0  0  0  0  0  0
   -0.3970   43.5360   53.5950 C   0  0  0  0  0  0  0  0  0  0  0  0
   -1.5130   43.0850   54.1990 N   0  0  0  0  0  0  0  0  0  0  0  0
   -1.5900   43.8360   55.3230 C   0  0  0  0  0  0  0  0  0  0  0  0
   -0.5780   44.7280   55.4380 N   0  0  0  0  0  0  0  0  0  0  0  0
   -0.3960   45.6770   56.5050 C   0  0  0  0  0  0  0  0  0  0  0  0
    0.8160   45.7410   57.2150 C   0  0  0  0  0  0  0  0  0  0  0  0
    0.9760   46.6540   58.2620 C   0  0  0  0  0  0  0  0  0  0  0  0
   -0.0730   47.5090   58.6120 C   0  0  0  0  0  0  0  0  0  0  0  0
    0.0840   48.3940   59.6270 F   0  0  0  0  0  0  0  0  0  0  0  0
   -1.2840   47.4470   57.9190 C   0  0  0  0  0  0  0  0  0  0  0  0
   -1.4490   46.5340   56.8750 C   0  0  0  0  0  0  0  0  0  0  0  0
    0.1270   43.0840   52.2670 C   0  0  0  0  0  0  0  0  0  0  0  0
    3.8920   43.4405   53.0323 H   0  0  0  0  0  0  0  0  0  0  0  0
    4.2295   41.8485   52.2552 H   0  0  0  0  0  0  0  0  0  0  0  0
    4.5675   44.0166   53.7834 H   0  0  0  0  0  0  0  0  0  0  0  0
    5.4149   45.6720   55.4485 H   0  0  0  0  0  0  0  0  0  0  0  0
    7.0108   47.4565   54.7386 H   0  0  0  0  0  0  0  0  0  0  0  0
    6.9332   45.9155   50.6938 H   0  0  0  0  0  0  0  0  0  0  0  0
    2.6817   45.3907   52.1612 H   0  0  0  0  0  0  0  0  0  0  0  0
    0.9392   45.7097   51.8465 H   0  0  0  0  0  0  0  0  0  0  0  0
    2.2751   44.8896   54.4761 H   0  0  0  0  0  0  0  0  0  0  0  0
    1.2918   46.3548   54.1310 H   0  0  0  0  0  0  0  0  0  0  0  0
   -2.3933   43.7319   56.0672 H   0  0  0  0  0  0  0  0  0  0  0  0
    1.6436   45.0685   56.9451 H   0  0  0  0  0  0  0  0  0  0  0  0
    1.9283   46.6994   58.8107 H   0  0  0  0  0  0  0  0  0  0  0  0
   -2.1098   48.1188   58.1961 H   0  0  0  0  0  0  0  0  0  0  0  0
   -2.4081   46.4846   56.3386 H   0  0  0  0  0  0  0  0  0  0  0  0
    0.2044   41.9868   52.2556 H   0  0  0  0  0  0  0  0  0  0  0  0
   -0.5577   43.4071   51.4690 H   0  0  0  0  0  0  0  0  0  0  0  0
  1  2  2  0
  2  3  1  0
  3  4  1  0
  4  5  1  0
  5  6  2  0
  6  7  1  0
  7  8  2  0
  8  9  1  0
  9 10  1  0
  9 11  2  0
  2 12  1  0
 12 13  1  0
 13 14  1  0
 14 15  1  0
 15 16  2  0
 16 17  1  0
 17 18  2  0
 18 19  1  0
 19 20  1  0
 20 21  2  0
 21 22  1  0
 22 23  2  0
 23 24  1  0
 23 25  1  0
 25 26  2  0
 16 27  1  0
 11  5  1  0
 27 12  1  0
 19 15  1  0
 26 20  1  0
  3 28  1  0
  3 29  1  0
  6 30  1  0
  7 31  1  0
  8 32  1  0
 11 33  1  0
 13 34  1  0
 13 35  1  0
 14 36  1  0
 14 37  1  0
 18 38  1  0
 21 39  1  0
 22 40  1  0
 25 41  1  0
 26 42  1  0
 27 43  1  0
 27 44  1  0
M  END
>  <meeko>  (4) 
{"is_sidechain": [false], "free_energy": -8.399, "intermolecular_energy": -10.577, "internal_energy": -0.898}

$$$$
ligand_49_conformer_1_docked
     RDKit          3D

 44 47  0  0  0  0  0  0  0  0999 V2000
    3.0740   39.5460   48.7880 O   0  0  0  0  0  0  0  0  0  0  0  0
    3.8450   40.4780   48.4320 C   0  0  0  0  0  0  0  0  0  0  0  0
    3.8780   40.8730   46.9830 C   0  0  0  0  0  0  0  0  0  0  0  0
    2.8920   39.7070   45.9810 S   0  0  0  0  0  0  0  0  0  0  0  0
    4.0970   39.5810   44.6560 C   0  0  0  0  0  0  0  0  0  0  0  0
    4.8930   40.6840   44.3210 C   0  0  0  0  0  0  0  0  0  0  0  0
    5.8310   40.5850   43.2890 C   0  0  0  0  0  0  0  0  0  0  0  0
    5.9810   39.3820   42.5930 C   0  0  0  0  0  0  0  0  0  0  0  0
    5.2000   38.2720   42.9350 C   0  0  0  0  0  0  0  0  0  0  0  0
    5.4150   36.6240   41.9940 Br  0  0  0  0  0  0  0  0  0  0  0  0
    4.2600   38.3720   43.9670 C   0  0  0  0  0  0  0  0  0  0  0  0
    4.7160   41.0870   49.4040 N   0  0  0  0  0  0  0  0  0  0  0  0
    4.3030   41.2950   50.8040 C   0  0  0  0  0  0  0  0  0  0  0  0
    4.3040   42.7970   51.1320 C   0  0  0  0  0  0  0  0  0  0  0  0
    5.5580   43.4330   50.5950 C   0  0  0  0  0  0  0  0  0  0  0  0
    6.3380   42.8680   49.6190 C   0  0  0  0  0  0  0  0  0  0  0  0
    7.4040   43.6490   49.3610 N   0  0  0  0  0  0  0  0  0  0  0  0
    7.2320   44.7030   50.1920 C   0  0  0  0  0  0  0  0  0  0  0  0
    6.1140   44.6080   50.9500 N   0  0  0  0  0  0  0  0  0  0  0  0
    5.6720   45.5550   51.9390 C   0  0  0  0  0  0  0  0  0  0  0  0
    6.3540   45.6940   53.1610 C   0  0  0  0  0  0  0  0  0  0  0  0
    5.9050   46.6040   54.1230 C   0  0  0  0  0  0  0  0  0  0  0  0
    4.7700   47.3810   53.8770 C   0  0  0  0  0  0  0  0  0  0  0  0
    4.3370   48.2640   54.8110 F   0  0  0  0  0  0  0  0  0  0  0  0
    4.0800   47.2450   52.6700 C   0  0  0  0  0  0  0  0  0  0  0  0
    4.5240   46.3340   51.7070 C   0  0  0  0  0  0  0  0  0  0  0  0
    6.0630   41.5270   49.0090 C   0  0  0  0  0  0  0  0  0  0  0  0
    3.4622   41.8856   46.8740 H   0  0  0  0  0  0  0  0  0  0  0  0
    4.9201   40.8518   46.6316 H   0  0  0  0  0  0  0  0  0  0  0  0
    4.7798   41.6299   44.8710 H   0  0  0  0  0  0  0  0  0  0  0  0
    6.4512   41.4541   43.0246 H   0  0  0  0  0  0  0  0  0  0  0  0
    6.7135   39.3077   41.7758 H   0  0  0  0  0  0  0  0  0  0  0  0
    3.6477   37.4993   44.2379 H   0  0  0  0  0  0  0  0  0  0  0  0
    3.2905   40.8905   50.9495 H   0  0  0  0  0  0  0  0  0  0  0  0
    5.0091   40.7782   51.4706 H   0  0  0  0  0  0  0  0  0  0  0  0
    3.4262   43.2726   50.6702 H   0  0  0  0  0  0  0  0  0  0  0  0
    4.2660   42.9315   52.2231 H   0  0  0  0  0  0  0  0  0  0  0  0
    7.9300   45.5514   50.2463 H   0  0  0  0  0  0  0  0  0  0  0  0
    7.2464   45.0829   53.3613 H   0  0  0  0  0  0  0  0  0  0  0  0
    6.4461   46.7084   55.0750 H   0  0  0  0  0  0  0  0  0  0  0  0
    3.1858   47.8558   52.4769 H   0  0  0  0  0  0  0  0  0  0  0  0
    3.9720   46.2257   50.7617 H   0  0  0  0  0  0  0  0  0  0  0  0
    6.1196   41.6020   47.9130 H   0  0  0  0  0  0  0  0  0  0  0  0
    6.8091   40.7993   49.3607 H   0  0  0  0  0  0  0  0  0  0  0  0
  1  2  2  0
  2  3  1  0
  3  4  1  0
  4  5  1  0
  5  6  2  0
  6  7  1  0
  7  8  2  0
  8  9  1  0
  9 10  1  0
  9 11  2  0
  2 12  1  0
 12 13  1  0
 13 14  1  0
 14 15  1  0
 15 16  2  0
 16 17  1  0
 17 18  2  0
 18 19  1  0
 19 20  1  0
 20 21  2  0
 21 22  1  0
 22 23  2  0
 23 24  1  0
 23 25  1  0
 25 26  2  0
 16 27  1  0
 11  5  1  0
 27 12  1  0
 19 15  1  0
 26 20  1  0
  3 28  1  0
  3 29  1  0
  6 30  1  0
  7 31  1  0
  8 32  1  0
 11 33  1  0
 13 34  1  0
 13 35  1  0
 14 36  1  0
 14 37  1  0
 18 38  1  0
 21 39  1  0
 22 40  1  0
 25 41  1  0
 26 42  1  0
 27 43  1  0
 27 44  1  0
M  END
>  <meeko>  (5) 
{"is_sidechain": [false], "free_energy": -8.075, "intermolecular_energy": -10.398, "internal_energy": -0.659}

$$$$
