ligand_28_conformer_1_docked
     RDKit          3D

 55 60  0  0  0  0  0  0  0  0999 V2000
   10.1920   47.2080   54.5690 C   0  0  0  0  0  0  0  0  0  0  0  0
    9.5860   46.7790   53.2720 C   0  0  0  0  0  0  0  0  0  0  0  0
   10.2650   46.3850   52.1200 C   0  0  0  0  0  0  0  0  0  0  0  0
    9.3880   46.0020   51.1630 N   0  0  0  0  0  0  0  0  0  0  0  0
    8.1720   46.1430   51.7120 C   0  0  0  0  0  0  0  0  0  0  0  0
    6.9890   45.8460   51.1200 N   0  0  0  0  0  0  0  0  0  0  0  0
    5.8300   46.0230   51.8210 C   0  0  0  0  0  0  0  0  0  0  0  0
    5.8530   46.5140   53.1550 C   0  0  0  0  0  0  0  0  0  0  0  0
    4.5870   46.6960   53.9010 C   0  0  0  0  0  0  0  0  0  0  0  0
    4.3690   47.7860   54.4970 O   0  0  0  0  0  0  0  0  0  0  0  0
    3.6110   45.6450   53.9700 N   0  0  0  0  0  0  0  0  0  0  0  0
    2.3240   45.8520   54.6260 C   0  0  1  0  0  0  0  0  0  0  0  0
    1.3980   44.6490   54.4980 C   0  0  2  0  0  0  0  0  0  0  0  0
   -0.0840   44.9230   54.7040 C   0  0  0  0  0  0  0  0  0  0  0  0
   -0.2270   45.3920   56.0730 N   0  0  0  0  0  0  0  0  0  0  0  0
   -1.5110   45.5840   56.6920 C   0  0  0  0  0  0  0  0  0  0  0  0
   -2.2950   44.6040   56.8140 O   0  0  0  0  0  0  0  0  0  0  0  0
   -1.9370   46.9050   57.1960 C   0  0  0  0  0  0  0  0  0  0  0  0
   -2.9040   47.6570   56.4790 C   0  0  0  0  0  0  0  0  0  0  0  0
   -3.3130   48.9220   56.9370 C   0  0  0  0  0  0  0  0  0  0  0  0
   -2.7280   49.4140   58.0990 C   0  0  0  0  0  0  0  0  0  0  0  0
   -2.9870   50.5830   58.7120 N   0  0  0  0  0  0  0  0  0  0  0  0
   -2.1540   50.5500   59.7840 C   0  0  0  0  0  0  0  0  0  0  0  0
   -2.1230   51.5930   60.7600 N   0  0  0  0  0  0  0  0  0  0  0  0
   -1.3880   49.4280   59.8510 N   0  0  0  0  0  0  0  0  0  0  0  0
   -0.4520   49.0460   60.9070 C   0  0  0  0  0  0  0  0  0  0  0  0
   -1.7780   48.7090   58.7830 C   0  0  0  0  0  0  0  0  0  0  0  0
   -1.3520   47.4480   58.3630 C   0  0  0  0  0  0  0  0  0  0  0  0
    1.0320   45.3960   56.8060 C   0  0  0  0  0  0  0  0  0  0  0  0
    2.0960   44.9370   55.8200 C   0  0  2  0  0  0  0  0  0  0  0  0
    7.1000   46.8040   53.7560 C   0  0  0  0  0  0  0  0  0  0  0  0
    8.2460   46.6080   52.9920 C   0  0  0  0  0  0  0  0  0  0  0  0
    9.6061   46.7932   55.4025 H   0  0  0  0  0  0  0  0  0  0  0  0
   11.2269   46.8402   54.6296 H   0  0  0  0  0  0  0  0  0  0  0  0
   10.1890   48.3063   54.6296 H   0  0  0  0  0  0  0  0  0  0  0  0
   11.3590   46.3853   52.0051 H   0  0  0  0  0  0  0  0  0  0  0  0
    9.6150   45.6560   50.2040 H   0  0  0  0  0  0  0  0  0  0  0  0
    4.8667   45.7826   51.3473 H   0  0  0  0  0  0  0  0  0  0  0  0
    3.8680   44.6750   53.6820 H   0  0  0  0  0  0  0  0  0  0  0  0
    2.2363   46.9341   54.4487 H   0  0  0  0  0  0  0  0  0  0  0  0
    1.3344   43.8483   53.7465 H   0  0  0  0  0  0  0  0  0  0  0  0
   -0.4302   45.6936   53.9995 H   0  0  0  0  0  0  0  0  0  0  0  0
   -0.6856   44.0194   54.5265 H   0  0  0  0  0  0  0  0  0  0  0  0
   -3.3379   47.2460   55.5555 H   0  0  0  0  0  0  0  0  0  0  0  0
   -4.0717   49.5041   56.3934 H   0  0  0  0  0  0  0  0  0  0  0  0
   -2.3160   51.3740   61.7630 H   0  0  0  0  0  0  0  0  0  0  0  0
   -1.8930   52.5760   60.4980 H   0  0  0  0  0  0  0  0  0  0  0  0
   -0.9108   49.2333   61.8890 H   0  0  0  0  0  0  0  0  0  0  0  0
   -0.2098   47.9771   60.8133 H   0  0  0  0  0  0  0  0  0  0  0  0
    0.4689   49.6402   60.8133 H   0  0  0  0  0  0  0  0  0  0  0  0
   -0.5845   46.8935   58.9229 H   0  0  0  0  0  0  0  0  0  0  0  0
    1.2593   46.4093   57.1687 H   0  0  0  0  0  0  0  0  0  0  0  0
    0.9873   44.7361   57.6849 H   0  0  0  0  0  0  0  0  0  0  0  0
    2.7923   44.4439   56.5143 H   0  0  0  0  0  0  0  0  0  0  0  0
    7.1616   47.1715   54.7910 H   0  0  0  0  0  0  0  0  0  0  0  0
  1  2  1  0
  2  3  2  0
  3  4  1  0
  4  5  1  0
  5  6  2  0
  6  7  1  0
  7  8  2  0
  8  9  1  0
  9 10  2  0
  9 11  1  0
 11 12  1  0
 12 13  1  0
 13 14  1  0
 14 15  1  0
 15 16  1  0
 16 17  2  0
 16 18  1  0
 18 19  2  0
 19 20  1  0
 20 21  2  0
 21 22  1  0
 22 23  2  0
 23 24  1  0
 23 25  1  0
 25 26  1  0
 25 27  1  0
 27 28  2  0
 15 29  1  0
 29 30  1  0
  8 31  1  0
 31 32  2  0
 32  2  1  0
 32  5  1  0
 30 12  1  0
 30 13  1  0
 28 18  1  0
 27 21  1  0
  1 33  1  0
  1 34  1  0
  1 35  1  0
  3 36  1  0
  4 37  1  0
  7 38  1  0
 11 39  1  0
 12 40  1  1
 13 41  1  6
 14 42  1  0
 14 43  1  0
 19 44  1  0
 20 45  1  0
 24 46  1  0
 24 47  1  0
 26 48  1  0
 26 49  1  0
 26 50  1  0
 28 51  1  0
 29 52  1  0
 29 53  1  0
 30 54  1  1
 31 55  1  0
M  END
>  <meeko>  (1) 
{"is_sidechain": [false], "free_energy": -8.984, "intermolecular_energy": -11.347, "internal_energy": -0.63}

$$$$
ligand_28_conformer_1_docked
     RDKit          3D

 55 60  0  0  0  0  0  0  0  0999 V2000
    9.8120   47.3080   54.4520 C   0  0  0  0  0  0  0  0  0  0  0  0
    9.6260   46.7420   53.0810 C   0  0  0  0  0  0  0  0  0  0  0  0
   10.6260   46.4370   52.1590 C   0  0  0  0  0  0  0  0  0  0  0  0
   10.0900   45.8790   51.0480 N   0  0  0  0  0  0  0  0  0  0  0  0
    8.7680   45.8240   51.2760 C   0  0  0  0  0  0  0  0  0  0  0  0
    7.8350   45.3100   50.4380 N   0  0  0  0  0  0  0  0  0  0  0  0
    6.5240   45.3050   50.8240 C   0  0  0  0  0  0  0  0  0  0  0  0
    6.1330   45.8320   52.0860 C   0  0  0  0  0  0  0  0  0  0  0  0
    4.7080   45.8140   52.4890 C   0  0  0  0  0  0  0  0  0  0  0  0
    4.1550   46.8860   52.8580 O   0  0  0  0  0  0  0  0  0  0  0  0
    3.9520   44.5940   52.4810 N   0  0  0  0  0  0  0  0  0  0  0  0
    2.5250   44.5880   52.7890 C   0  0  1  0  0  0  0  0  0  0  0  0
    1.9950   43.1940   53.0910 C   0  0  2  0  0  0  0  0  0  0  0  0
    0.4920   43.0060   52.9450 C   0  0  0  0  0  0  0  0  0  0  0  0
   -0.1280   43.8880   53.9210 N   0  0  0  0  0  0  0  0  0  0  0  0
   -1.5380   43.8550   54.2040 C   0  0  0  0  0  0  0  0  0  0  0  0
   -2.3400   43.4480   53.3200 O   0  0  0  0  0  0  0  0  0  0  0  0
   -2.0740   44.2850   55.5110 C   0  0  0  0  0  0  0  0  0  0  0  0
   -2.4260   43.3150   56.4840 C   0  0  0  0  0  0  0  0  0  0  0  0
   -2.9490   43.7040   57.7300 C   0  0  0  0  0  0  0  0  0  0  0  0
   -3.1240   45.0650   57.9650 C   0  0  0  0  0  0  0  0  0  0  0  0
   -3.5890   45.6460   59.0860 N   0  0  0  0  0  0  0  0  0  0  0  0
   -3.5450   46.9670   58.7770 C   0  0  0  0  0  0  0  0  0  0  0  0
   -3.9150   47.9830   59.7120 N   0  0  0  0  0  0  0  0  0  0  0  0
   -3.0910   47.2240   57.5210 N   0  0  0  0  0  0  0  0  0  0  0  0
   -2.8520   48.5290   56.9070 C   0  0  0  0  0  0  0  0  0  0  0  0
   -2.8110   46.0060   57.0260 C   0  0  0  0  0  0  0  0  0  0  0  0
   -2.2840   45.6570   55.7810 C   0  0  0  0  0  0  0  0  0  0  0  0
    0.8440   44.6000   54.7390 C   0  0  0  0  0  0  0  0  0  0  0  0
    2.2150   44.1870   54.2230 C   0  0  2  0  0  0  0  0  0  0  0  0
    7.1280   46.3520   52.9470 C   0  0  0  0  0  0  0  0  0  0  0  0
    8.4440   46.3330   52.4990 C   0  0  0  0  0  0  0  0  0  0  0  0
    9.5607   46.5432   55.2016 H   0  0  0  0  0  0  0  0  0  0  0  0
   10.8594   47.6182   54.5816 H   0  0  0  0  0  0  0  0  0  0  0  0
    9.1528   48.1790   54.5816 H   0  0  0  0  0  0  0  0  0  0  0  0
   11.6992   46.6234   52.3124 H   0  0  0  0  0  0  0  0  0  0  0  0
   10.6020   45.5480   50.2000 H   0  0  0  0  0  0  0  0  0  0  0  0
    5.7612   44.8880   50.1500 H   0  0  0  0  0  0  0  0  0  0  0  0
    4.4440   43.6770   52.4000 H   0  0  0  0  0  0  0  0  0  0  0  0
    2.2248   45.4178   52.1323 H   0  0  0  0  0  0  0  0  0  0  0  0
    2.3368   42.1956   52.7805 H   0  0  0  0  0  0  0  0  0  0  0  0
    0.1714   43.2779   51.9285 H   0  0  0  0  0  0  0  0  0  0  0  0
    0.2026   41.9582   53.1134 H   0  0  0  0  0  0  0  0  0  0  0  0
   -2.2884   42.2466   56.2615 H   0  0  0  0  0  0  0  0  0  0  0  0
   -3.2113   42.9574   58.4940 H   0  0  0  0  0  0  0  0  0  0  0  0
   -4.7200   48.6150   59.5040 H   0  0  0  0  0  0  0  0  0  0  0  0
   -3.4080   48.1020   60.6150 H   0  0  0  0  0  0  0  0  0  0  0  0
   -2.7136   49.2848   57.6942 H   0  0  0  0  0  0  0  0  0  0  0  0
   -1.9478   48.4803   56.2824 H   0  0  0  0  0  0  0  0  0  0  0  0
   -3.7147   48.8039   56.2824 H   0  0  0  0  0  0  0  0  0  0  0  0
   -2.0397   46.4258   55.0332 H   0  0  0  0  0  0  0  0  0  0  0  0
    0.7082   45.6865   54.6339 H   0  0  0  0  0  0  0  0  0  0  0  0
    0.7264   44.3565   55.8052 H   0  0  0  0  0  0  0  0  0  0  0  0
    2.7960   44.2681   55.1535 H   0  0  0  0  0  0  0  0  0  0  0  0
    6.8694   46.7572   53.9364 H   0  0  0  0  0  0  0  0  0  0  0  0
  1  2  1  0
  2  3  2  0
  3  4  1  0
  4  5  1  0
  5  6  2  0
  6  7  1  0
  7  8  2  0
  8  9  1  0
  9 10  2  0
  9 11  1  0
 11 12  1  0
 12 13  1  0
 13 14  1  0
 14 15  1  0
 15 16  1  0
 16 17  2  0
 16 18  1  0
 18 19  2  0
 19 20  1  0
 20 21  2  0
 21 22  1  0
 22 23  2  0
 23 24  1  0
 23 25  1  0
 25 26  1  0
 25 27  1  0
 27 28  2  0
 15 29  1  0
 29 30  1  0
  8 31  1  0
 31 32  2  0
 32  2  1  0
 32  5  1  0
 30 12  1  0
 30 13  1  0
 28 18  1  0
 27 21  1  0
  1 33  1  0
  1 34  1  0
  1 35  1  0
  3 36  1  0
  4 37  1  0
  7 38  1  0
 11 39  1  0
 12 40  1  6
 13 41  1  1
 14 42  1  0
 14 43  1  0
 19 44  1  0
 20 45  1  0
 24 46  1  0
 24 47  1  0
 26 48  1  0
 26 49  1  0
 26 50  1  0
 28 51  1  0
 29 52  1  0
 29 53  1  0
 30 54  1  1
 31 55  1  0
M  END
>  <meeko>  (2) 
{"is_sidechain": [false], "free_energy": -8.945, "intermolecular_energy": -11.294, "internal_energy": -0.634}

$$$$
ligand_28_conformer_1_docked
     RDKit          3D

 55 60  0  0  0  0  0  0  0  0999 V2000
   10.0300   45.7900   51.3610 C   0  0  0  0  0  0  0  0  0  0  0  0
    9.5450   46.3540   52.6570 C   0  0  0  0  0  0  0  0  0  0  0  0
   10.3190   46.9380   53.6580 C   0  0  0  0  0  0  0  0  0  0  0  0
    9.5310   47.3960   54.6590 N   0  0  0  0  0  0  0  0  0  0  0  0
    8.2740   47.1120   54.2840 C   0  0  0  0  0  0  0  0  0  0  0  0
    7.1470   47.4170   54.9740 N   0  0  0  0  0  0  0  0  0  0  0  0
    5.9320   47.0810   54.4470 C   0  0  0  0  0  0  0  0  0  0  0  0
    5.8390   46.4170   53.1930 C   0  0  0  0  0  0  0  0  0  0  0  0
    4.5130   46.0640   52.6360 C   0  0  0  0  0  0  0  0  0  0  0  0
    4.2470   46.3540   51.4380 O   0  0  0  0  0  0  0  0  0  0  0  0
    3.5220   45.4110   53.4440 N   0  0  0  0  0  0  0  0  0  0  0  0
    2.2500   44.9790   52.8740 C   0  0  1  0  0  0  0  0  0  0  0  0
    2.0940   43.4650   52.8640 C   0  0  2  0  0  0  0  0  0  0  0  0
    1.0700   42.9060   51.8860 C   0  0  0  0  0  0  0  0  0  0  0  0
   -0.2200   43.4360   52.2960 N   0  0  0  0  0  0  0  0  0  0  0  0
   -1.4570   42.9870   51.7170 C   0  0  0  0  0  0  0  0  0  0  0  0
   -2.0330   41.9700   52.1910 O   0  0  0  0  0  0  0  0  0  0  0  0
   -2.0780   43.6930   50.5780 C   0  0  0  0  0  0  0  0  0  0  0  0
   -2.6350   44.9840   50.7650 C   0  0  0  0  0  0  0  0  0  0  0  0
   -3.2420   45.6670   49.6960 C   0  0  0  0  0  0  0  0  0  0  0  0
   -3.2900   45.0280   48.4610 C   0  0  0  0  0  0  0  0  0  0  0  0
   -3.8050   45.5070   47.3140 N   0  0  0  0  0  0  0  0  0  0  0  0
   -3.5850   44.4910   46.4400 C   0  0  0  0  0  0  0  0  0  0  0  0
   -3.9380   44.5810   45.0590 N   0  0  0  0  0  0  0  0  0  0  0  0
   -2.9750   43.4100   46.9970 N   0  0  0  0  0  0  0  0  0  0  0  0
   -2.5310   42.1900   46.3240 C   0  0  0  0  0  0  0  0  0  0  0  0
   -2.7790   43.7750   48.2760 C   0  0  0  0  0  0  0  0  0  0  0  0
   -2.1650   43.0690   49.3130 C   0  0  0  0  0  0  0  0  0  0  0  0
   -0.1400   44.2530   53.5000 C   0  0  0  0  0  0  0  0  0  0  0  0
    1.3320   44.3020   53.8810 C   0  0  2  0  0  0  0  0  0  0  0  0
    7.0290   46.1210   52.4870 C   0  0  0  0  0  0  0  0  0  0  0  0
    8.2360   46.4840   53.0740 C   0  0  0  0  0  0  0  0  0  0  0  0
   10.7355   44.9696   51.5593 H   0  0  0  0  0  0  0  0  0  0  0  0
    9.1748   45.4070   50.7849 H   0  0  0  0  0  0  0  0  0  0  0  0
   10.5368   46.5782   50.7849 H   0  0  0  0  0  0  0  0  0  0  0  0
   11.4161   47.0159   53.6376 H   0  0  0  0  0  0  0  0  0  0  0  0
    9.8390   47.8810   55.5310 H   0  0  0  0  0  0  0  0  0  0  0  0
    5.0136   47.3274   55.0001 H   0  0  0  0  0  0  0  0  0  0  0  0
    3.6390   45.3700   54.4800 H   0  0  0  0  0  0  0  0  0  0  0  0
    2.1330   45.7861   52.1359 H   0  0  0  0  0  0  0  0  0  0  0  0
    2.8339   42.6514   52.8416 H   0  0  0  0  0  0  0  0  0  0  0  0
    1.3061   43.2295   50.8615 H   0  0  0  0  0  0  0  0  0  0  0  0
    1.0701   41.8060   51.8934 H   0  0  0  0  0  0  0  0  0  0  0  0
   -2.5917   45.4563   51.7575 H   0  0  0  0  0  0  0  0  0  0  0  0
   -3.6649   46.6733   49.8318 H   0  0  0  0  0  0  0  0  0  0  0  0
   -4.8950   44.8970   44.7850 H   0  0  0  0  0  0  0  0  0  0  0  0
   -3.2530   44.3540   44.3060 H   0  0  0  0  0  0  0  0  0  0  0  0
   -2.2564   41.4356   47.0760 H   0  0  0  0  0  0  0  0  0  0  0  0
   -3.3453   41.8012   45.6949 H   0  0  0  0  0  0  0  0  0  0  0  0
   -1.6573   42.4155   45.6949 H   0  0  0  0  0  0  0  0  0  0  0  0
   -1.7617   42.0587   49.1501 H   0  0  0  0  0  0  0  0  0  0  0  0
   -0.5160   45.2670   53.2987 H   0  0  0  0  0  0  0  0  0  0  0  0
   -0.7510   43.8320   54.3121 H   0  0  0  0  0  0  0  0  0  0  0  0
    1.2377   44.3969   54.9728 H   0  0  0  0  0  0  0  0  0  0  0  0
    7.0002   45.6210   51.5076 H   0  0  0  0  0  0  0  0  0  0  0  0
  1  2  1  0
  2  3  2  0
  3  4  1  0
  4  5  1  0
  5  6  2  0
  6  7  1  0
  7  8  2  0
  8  9  1  0
  9 10  2  0
  9 11  1  0
 11 12  1  0
 12 13  1  0
 13 14  1  0
 14 15  1  0
 15 16  1  0
 16 17  2  0
 16 18  1  0
 18 19  2  0
 19 20  1  0
 20 21  2  0
 21 22  1  0
 22 23  2  0
 23 24  1  0
 23 25  1  0
 25 26  1  0
 25 27  1  0
 27 28  2  0
 15 29  1  0
 29 30  1  0
  8 31  1  0
 31 32  2  0
 32  2  1  0
 32  5  1  0
 30 12  1  0
 30 13  1  0
 28 18  1  0
 27 21  1  0
  1 33  1  0
  1 34  1  0
  1 35  1  0
  3 36  1  0
  4 37  1  0
  7 38  1  0
 11 39  1  0
 12 40  1  6
 13 41  1  1
 14 42  1  0
 14 43  1  0
 19 44  1  0
 20 45  1  0
 24 46  1  0
 24 47  1  0
 26 48  1  0
 26 49  1  0
 26 50  1  0
 28 51  1  0
 29 52  1  0
 29 53  1  0
 30 54  1  1
 31 55  1  0
M  END
>  <meeko>  (3) 
{"is_sidechain": [false], "free_energy": -8.49, "intermolecular_energy": -10.712, "internal_energy": -0.641}

$$$$
ligand_28_conformer_1_docked
     RDKit          3D

 55 60  0  0  0  0  0  0  0  0999 V2000
    0.2950   35.1680   47.4250 C   0  0  0  0  0  0  0  0  0  0  0  0
    1.1360   35.4380   46.2200 C   0  0  0  0  0  0  0  0  0  0  0  0
    1.2720   34.6260   45.0950 C   0  0  0  0  0  0  0  0  0  0  0  0
    2.0660   35.2230   44.1750 N   0  0  0  0  0  0  0  0  0  0  0  0
    2.4160   36.4020   44.7130 C   0  0  0  0  0  0  0  0  0  0  0  0
    3.1880   37.3490   44.1260 N   0  0  0  0  0  0  0  0  0  0  0  0
    3.4380   38.5140   44.7950 C   0  0  0  0  0  0  0  0  0  0  0  0
    2.9000   38.7390   46.0930 C   0  0  0  0  0  0  0  0  0  0  0  0
    3.1780   40.0090   46.8010 C   0  0  0  0  0  0  0  0  0  0  0  0
    2.4220   41.0020   46.6140 O   0  0  0  0  0  0  0  0  0  0  0  0
    4.3020   40.1320   47.6850 N   0  0  0  0  0  0  0  0  0  0  0  0
    4.5270   41.3520   48.4550 C   0  0  1  0  0  0  0  0  0  0  0  0
    4.8190   41.0750   49.9240 C   0  0  2  0  0  0  0  0  0  0  0  0
    4.5890   42.2350   50.8810 C   0  0  0  0  0  0  0  0  0  0  0  0
    5.5140   43.2840   50.4810 N   0  0  0  0  0  0  0  0  0  0  0  0
    5.7150   44.4740   51.2640 C   0  0  0  0  0  0  0  0  0  0  0  0
    6.5990   45.3040   50.9170 O   0  0  0  0  0  0  0  0  0  0  0  0
    4.9070   44.7520   52.4680 C   0  0  0  0  0  0  0  0  0  0  0  0
    5.5380   44.8580   53.7340 C   0  0  0  0  0  0  0  0  0  0  0  0
    4.7840   45.1110   54.8940 C   0  0  0  0  0  0  0  0  0  0  0  0
    3.4060   45.2370   54.7580 C   0  0  0  0  0  0  0  0  0  0  0  0
    2.5100   45.4950   55.7290 N   0  0  0  0  0  0  0  0  0  0  0  0
    1.3330   45.5160   55.0510 C   0  0  0  0  0  0  0  0  0  0  0  0
    0.0890   45.8050   55.6910 N   0  0  0  0  0  0  0  0  0  0  0  0
    1.4610   45.2700   53.7200 N   0  0  0  0  0  0  0  0  0  0  0  0
    0.4110   45.2940   52.7020 C   0  0  0  0  0  0  0  0  0  0  0  0
    2.7850   45.1130   53.5480 C   0  0  0  0  0  0  0  0  0  0  0  0
    3.5010   44.8670   52.3740 C   0  0  0  0  0  0  0  0  0  0  0  0
    6.3760   42.8890   49.3750 C   0  0  0  0  0  0  0  0  0  0  0  0
    5.9470   41.4830   48.9860 C   0  0  2  0  0  0  0  0  0  0  0  0
    2.0860   37.7400   46.6780 C   0  0  0  0  0  0  0  0  0  0  0  0
    1.8700   36.5750   45.9510 C   0  0  0  0  0  0  0  0  0  0  0  0
    0.8850   35.3574   48.3338 H   0  0  0  0  0  0  0  0  0  0  0  0
   -0.5841   35.8290   47.4142 H   0  0  0  0  0  0  0  0  0  0  0  0
   -0.0351   34.1187   47.4142 H   0  0  0  0  0  0  0  0  0  0  0  0
    0.8008   33.6396   44.9721 H   0  0  0  0  0  0  0  0  0  0  0  0
    2.3350   34.8480   43.2380 H   0  0  0  0  0  0  0  0  0  0  0  0
    4.0628   39.2874   44.3244 H   0  0  0  0  0  0  0  0  0  0  0  0
    5.0540   39.4080   47.6770 H   0  0  0  0  0  0  0  0  0  0  0  0
    3.8416   42.0095   47.9001 H   0  0  0  0  0  0  0  0  0  0  0  0
    4.5440   40.2371   50.5815 H   0  0  0  0  0  0  0  0  0  0  0  0
    3.5515   42.5923   50.8040 H   0  0  0  0  0  0  0  0  0  0  0  0
    4.7563   41.9312   51.9249 H   0  0  0  0  0  0  0  0  0  0  0  0
    6.6292   44.7410   53.8093 H   0  0  0  0  0  0  0  0  0  0  0  0
    5.2687   45.2061   55.8769 H   0  0  0  0  0  0  0  0  0  0  0  0
   -0.3310   45.1130   56.3510 H   0  0  0  0  0  0  0  0  0  0  0  0
   -0.4100   46.7060   55.5280 H   0  0  0  0  0  0  0  0  0  0  0  0
   -0.5738   45.3165   53.1915 H   0  0  0  0  0  0  0  0  0  0  0  0
    0.5291   46.1897   52.0745 H   0  0  0  0  0  0  0  0  0  0  0  0
    0.4881   44.3939   52.0745 H   0  0  0  0  0  0  0  0  0  0  0  0
    2.9870   44.7659   51.4067 H   0  0  0  0  0  0  0  0  0  0  0  0
    6.2463   43.5762   48.5259 H   0  0  0  0  0  0  0  0  0  0  0  0
    7.4373   42.9198   49.6624 H   0  0  0  0  0  0  0  0  0  0  0  0
    6.9084   41.0889   48.6248 H   0  0  0  0  0  0  0  0  0  0  0  0
    1.6397   37.8805   47.6735 H   0  0  0  0  0  0  0  0  0  0  0  0
  1  2  1  0
  2  3  2  0
  3  4  1  0
  4  5  1  0
  5  6  2  0
  6  7  1  0
  7  8  2  0
  8  9  1  0
  9 10  2  0
  9 11  1  0
 11 12  1  0
 12 13  1  0
 13 14  1  0
 14 15  1  0
 15 16  1  0
 16 17  2  0
 16 18  1  0
 18 19  2  0
 19 20  1  0
 20 21  2  0
 21 22  1  0
 22 23  2  0
 23 24  1  0
 23 25  1  0
 25 26  1  0
 25 27  1  0
 27 28  2  0
 15 29  1  0
 29 30  1  0
  8 31  1  0
 31 32  2  0
 32  2  1  0
 32  5  1  0
 30 12  1  0
 30 13  1  0
 28 18  1  0
 27 21  1  0
  1 33  1  0
  1 34  1  0
  1 35  1  0
  3 36  1  0
  4 37  1  0
  7 38  1  0
 11 39  1  0
 12 40  1  1
 13 41  1  1
 14 42  1  0
 14 43  1  0
 19 44  1  0
 20 45  1  0
 24 46  1  0
 24 47  1  0
 26 48  1  0
 26 49  1  0
 26 50  1  0
 28 51  1  0
 29 52  1  0
 29 53  1  0
 30 54  1  6
 31 55  1  0
M  END
>  <meeko>  (4) 
{"is_sidechain": [false], "free_energy": -8.423, "intermolecular_energy": -10.849, "internal_energy": -0.42}

$$$$
ligand_28_conformer_1_docked
     RDKit          3D

 55 60  0  0  0  0  0  0  0  0999 V2000
    8.3350   38.3230   42.0330 C   0  0  0  0  0  0  0  0  0  0  0  0
    6.8650   38.1350   42.2240 C   0  0  0  0  0  0  0  0  0  0  0  0
    6.0660   37.1480   41.6490 C   0  0  0  0  0  0  0  0  0  0  0  0
    4.7940   37.2480   42.1010 N   0  0  0  0  0  0  0  0  0  0  0  0
    4.7970   38.2790   42.9590 C   0  0  0  0  0  0  0  0  0  0  0  0
    3.7360   38.7240   43.6760 N   0  0  0  0  0  0  0  0  0  0  0  0
    3.9040   39.7770   44.5310 C   0  0  0  0  0  0  0  0  0  0  0  0
    5.1710   40.4060   44.6730 C   0  0  0  0  0  0  0  0  0  0  0  0
    5.3360   41.5430   45.6070 C   0  0  0  0  0  0  0  0  0  0  0  0
    5.0880   42.7140   45.2080 O   0  0  0  0  0  0  0  0  0  0  0  0
    5.7870   41.3350   46.9530 N   0  0  0  0  0  0  0  0  0  0  0  0
    5.8620   42.4410   47.9040 C   0  0  1  0  0  0  0  0  0  0  0  0
    5.9040   41.9710   49.3510 C   0  0  2  0  0  0  0  0  0  0  0  0
    5.5000   42.9980   50.3990 C   0  0  0  0  0  0  0  0  0  0  0  0
    6.4660   44.0810   50.3030 N   0  0  0  0  0  0  0  0  0  0  0  0
    6.5160   45.1550   51.2580 C   0  0  0  0  0  0  0  0  0  0  0  0
    7.3470   46.0900   51.0980 O   0  0  0  0  0  0  0  0  0  0  0  0
    5.6130   45.1950   52.4250 C   0  0  0  0  0  0  0  0  0  0  0  0
    6.1450   45.0800   53.7350 C   0  0  0  0  0  0  0  0  0  0  0  0
    5.2990   45.1040   54.8590 C   0  0  0  0  0  0  0  0  0  0  0  0
    3.9310   45.2260   54.6400 C   0  0  0  0  0  0  0  0  0  0  0  0
    2.9580   45.2860   55.5670 N   0  0  0  0  0  0  0  0  0  0  0  0
    1.8350   45.4080   54.8140 C   0  0  0  0  0  0  0  0  0  0  0  0
    0.5370   45.5520   55.3960 N   0  0  0  0  0  0  0  0  0  0  0  0
    2.0680   45.4100   53.4750 N   0  0  0  0  0  0  0  0  0  0  0  0
    1.0960   45.6000   52.3990 C   0  0  0  0  0  0  0  0  0  0  0  0
    3.4060   45.3120   53.3820 C   0  0  0  0  0  0  0  0  0  0  0  0
    4.2150   45.2980   52.2430 C   0  0  0  0  0  0  0  0  0  0  0  0
    7.5080   43.8250   49.3180 C   0  0  0  0  0  0  0  0  0  0  0  0
    7.1690   42.4870   48.6800 C   0  0  2  0  0  0  0  0  0  0  0  0
    6.2660   39.9150   43.9230 C   0  0  0  0  0  0  0  0  0  0  0  0
    6.0340   38.8440   43.0670 C   0  0  0  0  0  0  0  0  0  0  0  0
    8.8272   38.3860   43.0147 H   0  0  0  0  0  0  0  0  0  0  0  0
    8.7439   37.4698   41.4718 H   0  0  0  0  0  0  0  0  0  0  0  0
    8.5160   39.2516   41.4718 H   0  0  0  0  0  0  0  0  0  0  0  0
    6.4192   36.3945   40.9297 H   0  0  0  0  0  0  0  0  0  0  0  0
    3.9850   36.6380   41.8440 H   0  0  0  0  0  0  0  0  0  0  0  0
    3.0478   40.1425   45.1169 H   0  0  0  0  0  0  0  0  0  0  0  0
    6.2070   40.4200   47.2270 H   0  0  0  0  0  0  0  0  0  0  0  0
    5.2719   43.1723   47.3322 H   0  0  0  0  0  0  0  0  0  0  0  0
    5.5321   41.0569   49.8369 H   0  0  0  0  0  0  0  0  0  0  0  0
    4.4862   43.3726   50.1942 H   0  0  0  0  0  0  0  0  0  0  0  0
    5.4914   42.5582   51.4072 H   0  0  0  0  0  0  0  0  0  0  0  0
    7.2308   44.9709   53.8736 H   0  0  0  0  0  0  0  0  0  0  0  0
    5.7064   45.0287   55.8780 H   0  0  0  0  0  0  0  0  0  0  0  0
    0.4300   45.5650   56.4350 H   0  0  0  0  0  0  0  0  0  0  0  0
   -0.3150   45.6630   54.8050 H   0  0  0  0  0  0  0  0  0  0  0  0
    0.1034   45.7940   52.8316 H   0  0  0  0  0  0  0  0  0  0  0  0
    1.3990   46.4559   51.7780 H   0  0  0  0  0  0  0  0  0  0  0  0
    1.0544   44.6930   51.7780 H   0  0  0  0  0  0  0  0  0  0  0  0
    3.7776   45.3650   51.2359 H   0  0  0  0  0  0  0  0  0  0  0  0
    7.5167   44.6191   48.5569 H   0  0  0  0  0  0  0  0  0  0  0  0
    8.5042   43.8060   49.7840 H   0  0  0  0  0  0  0  0  0  0  0  0
    8.1825   42.1344   48.4382 H   0  0  0  0  0  0  0  0  0  0  0  0
    7.2657   40.3648   44.0140 H   0  0  0  0  0  0  0  0  0  0  0  0
  1  2  1  0
  2  3  2  0
  3  4  1  0
  4  5  1  0
  5  6  2  0
  6  7  1  0
  7  8  2  0
  8  9  1  0
  9 10  2  0
  9 11  1  0
 11 12  1  0
 12 13  1  0
 13 14  1  0
 14 15  1  0
 15 16  1  0
 16 17  2  0
 16 18  1  0
 18 19  2  0
 19 20  1  0
 20 21  2  0
 21 22  1  0
 22 23  2  0
 23 24  1  0
 23 25  1  0
 25 26  1  0
 25 27  1  0
 27 28  2  0
 15 29  1  0
 29 30  1  0
  8 31  1  0
 31 32  2  0
 32  2  1  0
 32  5  1  0
 30 12  1  0
 30 13  1  0
 28 18  1  0
 27 21  1  0
  1 33  1  0
  1 34  1  0
  1 35  1  0
  3 36  1  0
  4 37  1  0
  7 38  1  0
 11 39  1  0
 12 40  1  1
 13 41  1  6
 14 42  1  0
 14 43  1  0
 19 44  1  0
 20 45  1  0
 24 46  1  0
 24 47  1  0
 26 48  1  0
 26 49  1  0
 26 50  1  0
 28 51  1  0
 29 52  1  0
 29 53  1  0
 30 54  1  6
 31 55  1  0
M  END
>  <meeko>  (5) 
{"is_sidechain": [false], "free_energy": -8.389, "intermolecular_energy": -10.799, "internal_energy": -0.428}

$$$$
