MODEL 1
REMARK VINA RESULT:    -8.284      0.000      0.000
REMARK INTER + INTRA:         -12.784
REMARK INTER:                 -11.674
REMARK INTRA:                  -1.111
REMARK UNBOUND:                -1.111
REMARK SMILES CCCn1nc(NCc2nc(CC3CC3)no2)c2ccccc21
REMARK SMILES IDX 7 1 6 3 4 4 5 5 23 6 22 7 18 8 21 9 19 10 20 11 3 12 2 13
REMARK SMILES IDX 1 14 8 15 9 16 10 17 17 18 11 19 16 20 12 21 13 22 14 23
REMARK SMILES IDX 15 24
REMARK H PARENT 7 2
ROOT
ATOM      1  N   UNL     1       4.200  46.129  51.786  1.00  0.00    -0.359 N 
ATOM      2  H   UNL     1       3.860  46.816  51.078  1.00  0.00     0.162 HD
ENDROOT
BRANCH   1   3
ATOM      3  C   UNL     1       4.674  44.848  51.352  1.00  0.00     0.156 A 
ATOM      4  N   UNL     1       4.712  42.718  50.954  1.00  0.00    -0.263 N 
ATOM      5  N   UNL     1       3.987  43.689  51.500  1.00  0.00    -0.154 NA
ATOM      6  C   UNL     1       5.847  43.250  50.452  1.00  0.00     0.070 A 
ATOM      7  C   UNL     1       6.888  42.620  49.767  1.00  0.00     0.029 A 
ATOM      8  C   UNL     1       5.857  44.597  50.691  1.00  0.00     0.044 A 
ATOM      9  C   UNL     1       7.960  43.420  49.330  1.00  0.00     0.002 A 
ATOM     10  C   UNL     1       6.901  45.419  50.269  1.00  0.00     0.014 A 
ATOM     11  C   UNL     1       7.968  44.811  49.580  1.00  0.00     0.001 A 
BRANCH   4  12
ATOM     12  C   UNL     1       4.262  41.330  50.861  1.00  0.00     0.145 C 
BRANCH  12  13
ATOM     13  C   UNL     1       3.286  41.144  49.693  1.00  0.00     0.020 C 
ATOM     14  C   UNL     1       3.963  40.542  48.464  1.00  0.00     0.006 C 
ENDBRANCH  12  13
ENDBRANCH   4  12
ENDBRANCH   1   3
BRANCH   1  15
ATOM     15  C   UNL     1       4.159  46.499  53.198  1.00  0.00     0.215 C 
BRANCH  15  16
ATOM     16  C   UNL     1       5.541  46.770  53.696  1.00  0.00     0.245 A 
ATOM     17  N   UNL     1       6.449  47.513  53.034  1.00  0.00    -0.195 NA
ATOM     18  O   UNL     1       6.033  46.281  54.808  1.00  0.00    -0.337 OA
ATOM     19  C   UNL     1       7.511  47.426  53.861  1.00  0.00     0.172 A 
ATOM     20  N   UNL     1       7.264  46.668  54.947  1.00  0.00    -0.062 NA
BRANCH  19  21
ATOM     21  C   UNL     1       8.836  48.054  53.574  1.00  0.00     0.084 C 
BRANCH  21  22
ATOM     22  C   UNL     1       9.911  46.970  53.448  1.00  0.00    -0.003 C 
ATOM     23  C   UNL     1       9.421  45.654  52.862  1.00  0.00     0.004 C 
ATOM     24  C   UNL     1      10.296  46.580  52.029  1.00  0.00     0.004 C 
ENDBRANCH  21  22
ENDBRANCH  19  21
ENDBRANCH  15  16
ENDBRANCH   1  15
TORSDOF 7
ENDMDL
MODEL 2
REMARK VINA RESULT:    -8.127      1.764      5.285
REMARK INTER + INTRA:         -12.564
REMARK INTER:                 -11.534
REMARK INTRA:                  -1.030
REMARK UNBOUND:                -1.111
REMARK SMILES CCCn1nc(NCc2nc(CC3CC3)no2)c2ccccc21
REMARK SMILES IDX 7 1 6 3 4 4 5 5 23 6 22 7 18 8 21 9 19 10 20 11 3 12 2 13
REMARK SMILES IDX 1 14 8 15 9 16 10 17 17 18 11 19 16 20 12 21 13 22 14 23
REMARK SMILES IDX 15 24
REMARK H PARENT 7 2
ROOT
ATOM      1  N   UNL     1       5.094  47.502  53.960  1.00  0.00    -0.359 N 
ATOM      2  H   UNL     1       4.841  48.511  53.880  1.00  0.00     0.162 HD
ENDROOT
BRANCH   1   3
ATOM      3  C   UNL     1       6.172  46.982  53.171  1.00  0.00     0.156 A 
ATOM      4  N   UNL     1       7.225  46.059  51.516  1.00  0.00    -0.263 N 
ATOM      5  N   UNL     1       6.016  46.379  51.968  1.00  0.00    -0.154 NA
ATOM      6  C   UNL     1       8.147  46.462  52.416  1.00  0.00     0.070 A 
ATOM      7  C   UNL     1       9.539  46.366  52.356  1.00  0.00     0.029 A 
ATOM      8  C   UNL     1       7.514  47.048  53.479  1.00  0.00     0.044 A 
ATOM      9  C   UNL     1      10.276  46.888  53.435  1.00  0.00     0.002 A 
ATOM     10  C   UNL     1       8.214  47.578  54.561  1.00  0.00     0.014 A 
ATOM     11  C   UNL     1       9.619  47.491  54.532  1.00  0.00     0.001 A 
BRANCH   4  12
ATOM     12  C   UNL     1       7.463  45.451  50.209  1.00  0.00     0.145 C 
BRANCH  12  13
ATOM     13  C   UNL     1       6.655  44.158  50.047  1.00  0.00     0.020 C 
ATOM     14  C   UNL     1       7.409  43.103  49.240  1.00  0.00     0.006 C 
ENDBRANCH  12  13
ENDBRANCH   4  12
ENDBRANCH   1   3
BRANCH   1  15
ATOM     15  C   UNL     1       4.321  46.655  54.863  1.00  0.00     0.215 C 
BRANCH  15  16
ATOM     16  C   UNL     1       3.434  45.744  54.077  1.00  0.00     0.245 A 
ATOM     17  N   UNL     1       3.761  44.482  53.739  1.00  0.00    -0.195 NA
ATOM     18  O   UNL     1       2.264  46.088  53.596  1.00  0.00    -0.337 OA
ATOM     19  C   UNL     1       2.675  44.113  53.028  1.00  0.00     0.172 A 
ATOM     20  N   UNL     1       1.757  45.095  52.933  1.00  0.00    -0.062 NA
BRANCH  19  21
ATOM     21  C   UNL     1       2.531  42.780  52.370  1.00  0.00     0.084 C 
BRANCH  21  22
ATOM     22  C   UNL     1       3.453  42.700  51.148  1.00  0.00    -0.003 C 
ATOM     23  C   UNL     1       4.422  41.527  51.158  1.00  0.00     0.004 C 
ATOM     24  C   UNL     1       3.223  41.515  50.221  1.00  0.00     0.004 C 
ENDBRANCH  21  22
ENDBRANCH  19  21
ENDBRANCH  15  16
ENDBRANCH   1  15
TORSDOF 7
ENDMDL
MODEL 3
REMARK VINA RESULT:    -8.109      1.821      6.100
REMARK INTER + INTRA:         -12.538
REMARK INTER:                 -11.710
REMARK INTRA:                  -0.828
REMARK UNBOUND:                -1.111
REMARK SMILES CCCn1nc(NCc2nc(CC3CC3)no2)c2ccccc21
REMARK SMILES IDX 7 1 6 3 4 4 5 5 23 6 22 7 18 8 21 9 19 10 20 11 3 12 2 13
REMARK SMILES IDX 1 14 8 15 9 16 10 17 17 18 11 19 16 20 12 21 13 22 14 23
REMARK SMILES IDX 15 24
REMARK H PARENT 7 2
ROOT
ATOM      1  N   UNL     1       4.677  46.479  53.545  1.00  0.00    -0.359 N 
ATOM      2  H   UNL     1       3.979  47.092  53.070  1.00  0.00     0.162 HD
ENDROOT
BRANCH   1   3
ATOM      3  C   UNL     1       6.074  46.770  53.414  1.00  0.00     0.156 A 
ATOM      4  N   UNL     1       8.053  47.515  53.887  1.00  0.00    -0.263 N 
ATOM      5  N   UNL     1       6.797  47.472  54.319  1.00  0.00    -0.154 NA
ATOM      6  C   UNL     1       8.137  46.838  52.722  1.00  0.00     0.070 A 
ATOM      7  C   UNL     1       9.256  46.593  51.923  1.00  0.00     0.029 A 
ATOM      8  C   UNL     1       6.900  46.356  52.390  1.00  0.00     0.044 A 
ATOM      9  C   UNL     1       9.069  45.834  50.753  1.00  0.00     0.002 A 
ATOM     10  C   UNL     1       6.681  45.598  51.241  1.00  0.00     0.014 A 
ATOM     11  C   UNL     1       7.789  45.340  50.413  1.00  0.00     0.001 A 
BRANCH   4  12
ATOM     12  C   UNL     1       9.145  48.133  54.639  1.00  0.00     0.145 C 
BRANCH  12  13
ATOM     13  C   UNL     1      10.202  47.093  55.030  1.00  0.00     0.020 C 
ATOM     14  C   UNL     1      11.025  47.533  56.239  1.00  0.00     0.006 C 
ENDBRANCH  12  13
ENDBRANCH   4  12
ENDBRANCH   1   3
BRANCH   1  15
ATOM     15  C   UNL     1       4.196  45.333  54.312  1.00  0.00     0.215 C 
BRANCH  15  16
ATOM     16  C   UNL     1       3.771  44.240  53.386  1.00  0.00     0.245 A 
ATOM     17  N   UNL     1       4.614  43.560  52.586  1.00  0.00    -0.195 NA
ATOM     18  O   UNL     1       2.529  43.855  53.221  1.00  0.00    -0.337 OA
ATOM     19  C   UNL     1       3.759  42.735  51.947  1.00  0.00     0.172 A 
ATOM     20  N   UNL     1       2.479  42.915  52.328  1.00  0.00    -0.062 NA
BRANCH  19  21
ATOM     21  C   UNL     1       4.178  41.767  50.889  1.00  0.00     0.084 C 
BRANCH  21  22
ATOM     22  C   UNL     1       5.361  42.337  50.099  1.00  0.00    -0.003 C 
ATOM     23  C   UNL     1       6.604  41.460  50.094  1.00  0.00     0.004 C 
ATOM     24  C   UNL     1       5.748  41.573  48.841  1.00  0.00     0.004 C 
ENDBRANCH  21  22
ENDBRANCH  19  21
ENDBRANCH  15  16
ENDBRANCH   1  15
TORSDOF 7
ENDMDL
MODEL 4
REMARK VINA RESULT:    -8.090      1.852      2.336
REMARK INTER + INTRA:         -12.511
REMARK INTER:                 -11.310
REMARK INTRA:                  -1.202
REMARK UNBOUND:                -1.111
REMARK SMILES CCCn1nc(NCc2nc(CC3CC3)no2)c2ccccc21
REMARK SMILES IDX 7 1 6 3 4 4 5 5 23 6 22 7 18 8 21 9 19 10 20 11 3 12 2 13
REMARK SMILES IDX 1 14 8 15 9 16 10 17 17 18 11 19 16 20 12 21 13 22 14 23
REMARK SMILES IDX 15 24
REMARK H PARENT 7 2
ROOT
ATOM      1  N   UNL     1       3.539  47.268  52.168  1.00  0.00    -0.359 N 
ATOM      2  H   UNL     1       3.298  47.906  51.377  1.00  0.00     0.162 HD
ENDROOT
BRANCH   1   3
ATOM      3  C   UNL     1       3.519  45.851  51.959  1.00  0.00     0.156 A 
ATOM      4  N   UNL     1       2.799  43.807  51.921  1.00  0.00    -0.263 N 
ATOM      5  N   UNL     1       2.482  45.044  52.288  1.00  0.00    -0.154 NA
ATOM      6  C   UNL     1       4.023  43.822  51.352  1.00  0.00     0.070 A 
ATOM      7  C   UNL     1       4.749  42.767  50.794  1.00  0.00     0.029 A 
ATOM      8  C   UNL     1       4.511  45.100  51.363  1.00  0.00     0.044 A 
ATOM      9  C   UNL     1       6.011  43.062  50.245  1.00  0.00     0.002 A 
ATOM     10  C   UNL     1       5.754  45.427  50.824  1.00  0.00     0.014 A 
ATOM     11  C   UNL     1       6.511  44.384  50.260  1.00  0.00     0.001 A 
BRANCH   4  12
ATOM     12  C   UNL     1       1.893  42.667  52.054  1.00  0.00     0.145 C 
BRANCH  12  13
ATOM     13  C   UNL     1       1.162  42.699  53.401  1.00  0.00     0.020 C 
ATOM     14  C   UNL     1      -0.355  42.748  53.234  1.00  0.00     0.006 C 
ENDBRANCH  12  13
ENDBRANCH   4  12
ENDBRANCH   1   3
BRANCH   1  15
ATOM     15  C   UNL     1       3.867  47.853  53.465  1.00  0.00     0.215 C 
BRANCH  15  16
ATOM     16  C   UNL     1       5.158  47.293  53.966  1.00  0.00     0.245 A 
ATOM     17  N   UNL     1       6.367  47.629  53.475  1.00  0.00    -0.195 NA
ATOM     18  O   UNL     1       5.253  46.385  54.907  1.00  0.00    -0.337 OA
ATOM     19  C   UNL     1       7.177  46.847  54.218  1.00  0.00     0.172 A 
ATOM     20  N   UNL     1       6.500  46.079  55.094  1.00  0.00    -0.062 NA
BRANCH  19  21
ATOM     21  C   UNL     1       8.661  46.796  54.048  1.00  0.00     0.084 C 
BRANCH  21  22
ATOM     22  C   UNL     1       9.009  46.186  52.686  1.00  0.00    -0.003 C 
ATOM     23  C   UNL     1       9.208  47.198  51.568  1.00  0.00     0.004 C 
ATOM     24  C   UNL     1      10.409  46.481  52.167  1.00  0.00     0.004 C 
ENDBRANCH  21  22
ENDBRANCH  19  21
ENDBRANCH  15  16
ENDBRANCH   1  15
TORSDOF 7
ENDMDL
MODEL 5
REMARK VINA RESULT:    -8.088      2.504      6.185
REMARK INTER + INTRA:         -12.509
REMARK INTER:                 -11.436
REMARK INTRA:                  -1.073
REMARK UNBOUND:                -1.111
REMARK SMILES CCCn1nc(NCc2nc(CC3CC3)no2)c2ccccc21
REMARK SMILES IDX 7 1 6 3 4 4 5 5 23 6 22 7 18 8 21 9 19 10 20 11 3 12 2 13
REMARK SMILES IDX 1 14 8 15 9 16 10 17 17 18 11 19 16 20 12 21 13 22 14 23
REMARK SMILES IDX 15 24
REMARK H PARENT 7 2
ROOT
ATOM      1  N   UNL     1       4.546  47.465  53.517  1.00  0.00    -0.359 N 
ATOM      2  H   UNL     1       3.920  48.230  53.182  1.00  0.00     0.162 HD
ENDROOT
BRANCH   1   3
ATOM      3  C   UNL     1       5.690  47.098  52.737  1.00  0.00     0.156 A 
ATOM      4  N   UNL     1       7.709  47.113  51.950  1.00  0.00    -0.263 N 
ATOM      5  N   UNL     1       6.878  47.747  52.771  1.00  0.00    -0.154 NA
ATOM      6  C   UNL     1       7.063  46.061  51.403  1.00  0.00     0.070 A 
ATOM      7  C   UNL     1       7.542  45.099  50.511  1.00  0.00     0.029 A 
ATOM      8  C   UNL     1       5.780  46.024  51.876  1.00  0.00     0.044 A 
ATOM      9  C   UNL     1       6.654  44.086  50.105  1.00  0.00     0.002 A 
ATOM     10  C   UNL     1       4.876  45.033  51.499  1.00  0.00     0.014 A 
ATOM     11  C   UNL     1       5.328  44.052  50.596  1.00  0.00     0.001 A 
BRANCH   4  12
ATOM     12  C   UNL     1       9.112  47.485  51.775  1.00  0.00     0.145 C 
BRANCH  12  13
ATOM     13  C   UNL     1      10.017  46.684  52.719  1.00  0.00     0.020 C 
ATOM     14  C   UNL     1       9.943  47.191  54.158  1.00  0.00     0.006 C 
ENDBRANCH  12  13
ENDBRANCH   4  12
ENDBRANCH   1   3
BRANCH   1  15
ATOM     15  C   UNL     1       4.213  46.785  54.766  1.00  0.00     0.215 C 
BRANCH  15  16
ATOM     16  C   UNL     1       3.003  45.930  54.575  1.00  0.00     0.245 A 
ATOM     17  N   UNL     1       2.148  46.052  53.542  1.00  0.00    -0.195 NA
ATOM     18  O   UNL     1       2.620  44.997  55.413  1.00  0.00    -0.337 OA
ATOM     19  C   UNL     1       1.238  45.103  53.842  1.00  0.00     0.172 A 
ATOM     20  N   UNL     1       1.519  44.456  54.990  1.00  0.00    -0.062 NA
BRANCH  19  21
ATOM     21  C   UNL     1       0.019  44.837  53.020  1.00  0.00     0.084 C 
BRANCH  21  22
ATOM     22  C   UNL     1       0.419  44.574  51.564  1.00  0.00    -0.003 C 
ATOM     23  C   UNL     1       1.207  43.292  51.343  1.00  0.00     0.004 C 
ATOM     24  C   UNL     1      -0.246  43.377  50.900  1.00  0.00     0.004 C 
ENDBRANCH  21  22
ENDBRANCH  19  21
ENDBRANCH  15  16
ENDBRANCH   1  15
TORSDOF 7
ENDMDL
