MODEL 1
REMARK VINA RESULT:    -8.213      0.000      0.000
REMARK INTER + INTRA:         -10.591
REMARK INTER:                 -10.134
REMARK INTRA:                  -0.457
REMARK UNBOUND:                -0.457
REMARK SMILES Cc1cccc(N(C)C(=O)c2cc(C)n(C(C)(C)C)n2)c1C
REMARK SMILES IDX 9 1 10 2 11 3 13 4 12 5 15 6 20 7 14 8 16 9 17 10 18 11
REMARK SMILES IDX 19 12 7 13 8 14 6 15 5 16 21 17 4 18 2 19 3 20 22 21 1 22
REMARK H PARENT
ROOT
ATOM      1  C   UNL     1       5.277  45.150  53.969  1.00  0.00     0.278 C 
ATOM      2  O   UNL     1       5.793  44.551  54.953  1.00  0.00    -0.267 OA
ENDROOT
BRANCH   1   3
ATOM      3  C   UNL     1       4.148  44.514  53.264  1.00  0.00     0.151 A 
ATOM      4  C   UNL     1       2.944  43.266  51.937  1.00  0.00     0.037 A 
ATOM      5  C   UNL     1       4.248  43.645  52.198  1.00  0.00     0.059 A 
ATOM      6  N   UNL     1       2.113  43.900  52.809  1.00  0.00    -0.264 N 
ATOM      7  N   UNL     1       2.859  44.638  53.625  1.00  0.00    -0.167 NA
ATOM      8  C   UNL     1       2.557  42.348  50.816  1.00  0.00     0.066 C 
BRANCH   6   9
ATOM      9  C   UNL     1       0.645  43.762  52.991  1.00  0.00     0.055 C 
ATOM     10  C   UNL     1       0.162  44.734  54.095  1.00  0.00     0.036 C 
ATOM     11  C   UNL     1      -0.123  44.109  51.696  1.00  0.00     0.036 C 
ATOM     12  C   UNL     1       0.317  42.326  53.435  1.00  0.00     0.036 C 
ENDBRANCH   6   9
ENDBRANCH   1   3
BRANCH   1  13
ATOM     13  N   UNL     1       5.778  46.447  53.592  1.00  0.00    -0.310 N 
ATOM     14  C   UNL     1       4.871  47.513  53.150  1.00  0.00     0.153 C 
BRANCH  13  15
ATOM     15  C   UNL     1       7.200  46.657  53.533  1.00  0.00     0.047 A 
ATOM     16  C   UNL     1       7.833  47.259  54.628  1.00  0.00     0.026 A 
ATOM     17  C   UNL     1       7.961  46.263  52.402  1.00  0.00    -0.024 A 
ATOM     18  C   UNL     1       9.200  47.510  54.602  1.00  0.00     0.002 A 
ATOM     19  C   UNL     1       9.345  46.583  52.356  1.00  0.00    -0.046 A 
ATOM     20  C   UNL     1       9.951  47.185  53.472  1.00  0.00     0.004 A 
ATOM     21  C   UNL     1       7.295  45.557  51.243  1.00  0.00     0.047 C 
ATOM     22  C   UNL     1      10.198  46.262  51.154  1.00  0.00     0.044 C 
ENDBRANCH  13  15
ENDBRANCH   1  13
TORSDOF 4
ENDMDL
MODEL 2
REMARK VINA RESULT:    -8.169      1.060      2.710
REMARK INTER + INTRA:         -10.536
REMARK INTER:                  -9.972
REMARK INTRA:                  -0.563
REMARK UNBOUND:                -0.457
REMARK SMILES Cc1cccc(N(C)C(=O)c2cc(C)n(C(C)(C)C)n2)c1C
REMARK SMILES IDX 9 1 10 2 11 3 13 4 12 5 15 6 20 7 14 8 16 9 17 10 18 11
REMARK SMILES IDX 19 12 7 13 8 14 6 15 5 16 21 17 4 18 2 19 3 20 22 21 1 22
REMARK H PARENT
ROOT
ATOM      1  C   UNL     1       4.720  45.466  54.516  1.00  0.00     0.278 C 
ATOM      2  O   UNL     1       5.453  44.931  55.392  1.00  0.00    -0.267 OA
ENDROOT
BRANCH   1   3
ATOM      3  C   UNL     1       3.344  44.964  54.339  1.00  0.00     0.151 A 
ATOM      4  C   UNL     1       1.207  44.586  54.578  1.00  0.00     0.037 A 
ATOM      5  C   UNL     1       2.289  45.178  55.202  1.00  0.00     0.059 A 
ATOM      6  N   UNL     1       1.616  44.035  53.402  1.00  0.00    -0.264 N 
ATOM      7  N   UNL     1       2.912  44.292  53.258  1.00  0.00    -0.167 NA
ATOM      8  C   UNL     1      -0.167  44.531  55.178  1.00  0.00     0.066 C 
BRANCH   6   9
ATOM      9  C   UNL     1       0.820  43.369  52.340  1.00  0.00     0.055 C 
ATOM     10  C   UNL     1       1.771  42.770  51.274  1.00  0.00     0.036 C 
ATOM     11  C   UNL     1      -0.030  42.211  52.909  1.00  0.00     0.036 C 
ATOM     12  C   UNL     1      -0.085  44.404  51.650  1.00  0.00     0.036 C 
ENDBRANCH   6   9
ENDBRANCH   1   3
BRANCH   1  13
ATOM     13  N   UNL     1       5.232  46.571  53.746  1.00  0.00    -0.310 N 
ATOM     14  C   UNL     1       4.637  47.908  53.846  1.00  0.00     0.153 C 
BRANCH  13  15
ATOM     15  C   UNL     1       6.266  46.326  52.775  1.00  0.00     0.047 A 
ATOM     16  C   UNL     1       5.903  45.787  51.534  1.00  0.00     0.026 A 
ATOM     17  C   UNL     1       7.626  46.623  53.050  1.00  0.00    -0.024 A 
ATOM     18  C   UNL     1       6.873  45.505  50.578  1.00  0.00     0.002 A 
ATOM     19  C   UNL     1       8.617  46.269  52.094  1.00  0.00    -0.046 A 
ATOM     20  C   UNL     1       8.221  45.733  50.858  1.00  0.00     0.004 A 
ATOM     21  C   UNL     1       8.016  47.261  54.364  1.00  0.00     0.047 C 
ATOM     22  C   UNL     1      10.087  46.486  52.352  1.00  0.00     0.044 C 
ENDBRANCH  13  15
ENDBRANCH   1  13
TORSDOF 4
ENDMDL
MODEL 3
REMARK VINA RESULT:    -8.056      0.993      2.072
REMARK INTER + INTRA:         -10.397
REMARK INTER:                 -10.003
REMARK INTRA:                  -0.394
REMARK UNBOUND:                -0.457
REMARK SMILES Cc1cccc(N(C)C(=O)c2cc(C)n(C(C)(C)C)n2)c1C
REMARK SMILES IDX 9 1 10 2 11 3 13 4 12 5 15 6 20 7 14 8 16 9 17 10 18 11
REMARK SMILES IDX 19 12 7 13 8 14 6 15 5 16 21 17 4 18 2 19 3 20 22 21 1 22
REMARK H PARENT
ROOT
ATOM      1  C   UNL     1       5.256  45.698  54.804  1.00  0.00     0.278 C 
ATOM      2  O   UNL     1       5.954  45.159  55.707  1.00  0.00    -0.267 OA
ENDROOT
BRANCH   1   3
ATOM      3  C   UNL     1       3.897  45.181  54.554  1.00  0.00     0.151 A 
ATOM      4  C   UNL     1       1.750  44.797  54.663  1.00  0.00     0.037 A 
ATOM      5  C   UNL     1       2.786  45.418  55.336  1.00  0.00     0.059 A 
ATOM      6  N   UNL     1       2.240  44.207  53.538  1.00  0.00    -0.264 N 
ATOM      7  N   UNL     1       3.541  44.467  53.471  1.00  0.00    -0.167 NA
ATOM      8  C   UNL     1       0.339  44.755  55.171  1.00  0.00     0.066 C 
BRANCH   6   9
ATOM      9  C   UNL     1       1.520  43.497  52.450  1.00  0.00     0.055 C 
ATOM     10  C   UNL     1       2.540  42.790  51.524  1.00  0.00     0.036 C 
ATOM     11  C   UNL     1       0.570  42.414  53.009  1.00  0.00     0.036 C 
ATOM     12  C   UNL     1       0.730  44.515  51.608  1.00  0.00     0.036 C 
ENDBRANCH   6   9
ENDBRANCH   1   3
BRANCH   1  13
ATOM     13  N   UNL     1       5.789  46.821  54.076  1.00  0.00    -0.310 N 
ATOM     14  C   UNL     1       4.913  47.884  53.571  1.00  0.00     0.153 C 
BRANCH  13  15
ATOM     15  C   UNL     1       7.187  46.834  53.739  1.00  0.00     0.047 A 
ATOM     16  C   UNL     1       8.079  47.481  54.604  1.00  0.00     0.026 A 
ATOM     17  C   UNL     1       7.672  46.204  52.563  1.00  0.00    -0.024 A 
ATOM     18  C   UNL     1       9.434  47.545  54.302  1.00  0.00     0.002 A 
ATOM     19  C   UNL     1       9.047  46.331  52.228  1.00  0.00    -0.046 A 
ATOM     20  C   UNL     1       9.915  46.985  53.118  1.00  0.00     0.004 A 
ATOM     21  C   UNL     1       6.725  45.451  51.657  1.00  0.00     0.047 C 
ATOM     22  C   UNL     1       9.615  45.752  50.956  1.00  0.00     0.044 C 
ENDBRANCH  13  15
ENDBRANCH   1  13
TORSDOF 4
ENDMDL
MODEL 4
REMARK VINA RESULT:    -7.884      1.375      7.056
REMARK INTER + INTRA:         -10.184
REMARK INTER:                  -9.734
REMARK INTRA:                  -0.450
REMARK UNBOUND:                -0.457
REMARK SMILES Cc1cccc(N(C)C(=O)c2cc(C)n(C(C)(C)C)n2)c1C
REMARK SMILES IDX 9 1 10 2 11 3 13 4 12 5 15 6 20 7 14 8 16 9 17 10 18 11
REMARK SMILES IDX 19 12 7 13 8 14 6 15 5 16 21 17 4 18 2 19 3 20 22 21 1 22
REMARK H PARENT
ROOT
ATOM      1  C   UNL     1       4.407  45.469  53.871  1.00  0.00     0.278 C 
ATOM      2  O   UNL     1       4.499  44.918  55.003  1.00  0.00    -0.267 OA
ENDROOT
BRANCH   1   3
ATOM      3  C   UNL     1       5.620  45.588  53.038  1.00  0.00     0.151 A 
ATOM      4  C   UNL     1       7.047  45.473  51.389  1.00  0.00     0.037 A 
ATOM      5  C   UNL     1       5.803  45.024  51.794  1.00  0.00     0.059 A 
ATOM      6  N   UNL     1       7.575  46.260  52.367  1.00  0.00    -0.264 N 
ATOM      7  N   UNL     1       6.688  46.340  53.354  1.00  0.00    -0.167 NA
ATOM      8  C   UNL     1       7.692  45.074  50.096  1.00  0.00     0.066 C 
BRANCH   6   9
ATOM      9  C   UNL     1       8.838  47.042  52.376  1.00  0.00     0.055 C 
ATOM     10  C   UNL     1       9.105  47.586  53.801  1.00  0.00     0.036 C 
ATOM     11  C   UNL     1      10.049  46.168  51.977  1.00  0.00     0.036 C 
ATOM     12  C   UNL     1       8.708  48.239  51.418  1.00  0.00     0.036 C 
ENDBRANCH   6   9
ENDBRANCH   1   3
BRANCH   1  13
ATOM     13  N   UNL     1       3.121  45.926  53.411  1.00  0.00    -0.310 N 
ATOM     14  C   UNL     1       2.980  47.189  52.677  1.00  0.00     0.153 C 
BRANCH  13  15
ATOM     15  C   UNL     1       1.944  45.188  53.785  1.00  0.00     0.047 A 
ATOM     16  C   UNL     1       1.266  45.557  54.955  1.00  0.00     0.026 A 
ATOM     17  C   UNL     1       1.461  44.112  52.995  1.00  0.00    -0.024 A 
ATOM     18  C   UNL     1       0.143  44.851  55.371  1.00  0.00     0.002 A 
ATOM     19  C   UNL     1       0.352  43.355  53.463  1.00  0.00    -0.046 A 
ATOM     20  C   UNL     1      -0.306  43.752  54.638  1.00  0.00     0.004 A 
ATOM     21  C   UNL     1       2.151  43.748  51.700  1.00  0.00     0.047 C 
ATOM     22  C   UNL     1      -0.165  42.153  52.713  1.00  0.00     0.044 C 
ENDBRANCH  13  15
ENDBRANCH   1  13
TORSDOF 4
ENDMDL
MODEL 5
REMARK VINA RESULT:    -7.606      1.751      7.291
REMARK INTER + INTRA:          -9.842
REMARK INTER:                  -9.735
REMARK INTRA:                  -0.107
REMARK UNBOUND:                -0.457
REMARK SMILES Cc1cccc(N(C)C(=O)c2cc(C)n(C(C)(C)C)n2)c1C
REMARK SMILES IDX 9 1 10 2 11 3 13 4 12 5 15 6 20 7 14 8 16 9 17 10 18 11
REMARK SMILES IDX 19 12 7 13 8 14 6 15 5 16 21 17 4 18 2 19 3 20 22 21 1 22
REMARK H PARENT
ROOT
ATOM      1  C   UNL     1       3.763  46.462  53.105  1.00  0.00     0.278 C 
ATOM      2  O   UNL     1       2.994  47.385  52.717  1.00  0.00    -0.267 OA
ENDROOT
BRANCH   1   3
ATOM      3  C   UNL     1       5.096  46.340  52.485  1.00  0.00     0.151 A 
ATOM      4  C   UNL     1       6.740  45.844  51.136  1.00  0.00     0.037 A 
ATOM      5  C   UNL     1       5.406  45.577  51.379  1.00  0.00     0.059 A 
ATOM      6  N   UNL     1       7.196  46.720  52.074  1.00  0.00    -0.264 N 
ATOM      7  N   UNL     1       6.182  47.031  52.873  1.00  0.00    -0.167 NA
ATOM      8  C   UNL     1       7.529  45.193  50.039  1.00  0.00     0.066 C 
BRANCH   6   9
ATOM      9  C   UNL     1       8.524  47.374  52.192  1.00  0.00     0.055 C 
ATOM     10  C   UNL     1       9.642  46.343  51.902  1.00  0.00     0.036 C 
ATOM     11  C   UNL     1       8.681  48.529  51.176  1.00  0.00     0.036 C 
ATOM     12  C   UNL     1       8.713  47.899  53.626  1.00  0.00     0.036 C 
ENDBRANCH   6   9
ENDBRANCH   1   3
BRANCH   1  13
ATOM     13  N   UNL     1       3.334  45.585  54.165  1.00  0.00    -0.310 N 
ATOM     14  C   UNL     1       4.010  45.578  55.467  1.00  0.00     0.153 C 
BRANCH  13  15
ATOM     15  C   UNL     1       2.303  44.618  53.896  1.00  0.00     0.047 A 
ATOM     16  C   UNL     1       2.537  43.648  52.912  1.00  0.00     0.026 A 
ATOM     17  C   UNL     1       1.075  44.627  54.606  1.00  0.00    -0.024 A 
ATOM     18  C   UNL     1       1.556  42.713  52.597  1.00  0.00     0.002 A 
ATOM     19  C   UNL     1       0.054  43.711  54.232  1.00  0.00    -0.046 A 
ATOM     20  C   UNL     1       0.320  42.749  53.243  1.00  0.00     0.004 A 
ATOM     21  C   UNL     1       0.841  45.632  55.710  1.00  0.00     0.047 C 
ATOM     22  C   UNL     1      -1.303  43.716  54.892  1.00  0.00     0.044 C 
ENDBRANCH  13  15
ENDBRANCH   1  13
TORSDOF 4
ENDMDL
