ligand_76_conformer_4_docked
     RDKit          3D

 39 40  0  0  0  0  0  0  0  0999 V2000
   10.8030   47.5320   55.8800 C   0  0  0  0  0  0  0  0  0  0  0  0
    9.5990   48.3190   55.3540 C   0  0  0  0  0  0  0  0  0  0  0  0
    8.8300   47.6790   54.1520 C   0  0  2  0  0  0  0  0  0  0  0  0
    9.8420   46.8060   53.3840 C   0  0  0  0  0  0  0  0  0  0  0  0
    8.3910   48.6650   53.2460 O   0  0  0  0  0  0  0  0  0  0  0  0
    7.6480   46.7620   54.5960 C   0  0  0  0  0  0  0  0  0  0  0  0
    6.4100   46.8700   53.7490 C   0  0  0  0  0  0  0  0  0  0  0  0
    6.0790   46.0870   52.6640 C   0  0  0  0  0  0  0  0  0  0  0  0
    4.8620   46.4940   52.2700 N   0  0  0  0  0  0  0  0  0  0  0  0
    4.0540   45.9200   51.2020 C   0  0  0  0  0  0  0  0  0  0  0  0
    4.2050   44.4230   51.1930 C   0  0  0  0  0  0  0  0  0  0  0  0
    5.1420   43.8190   50.3410 C   0  0  0  0  0  0  0  0  0  0  0  0
    5.2520   42.4210   50.3070 C   0  0  0  0  0  0  0  0  0  0  0  0
    6.2490   41.7610   49.4020 C   0  0  0  0  0  0  0  0  0  0  0  0
    5.6030   40.8500   48.5850 F   0  0  0  0  0  0  0  0  0  0  0  0
    6.8700   42.7160   48.6180 F   0  0  0  0  0  0  0  0  0  0  0  0
    7.2110   41.0950   50.1420 F   0  0  0  0  0  0  0  0  0  0  0  0
    4.4360   41.6640   51.0930 N   0  0  0  0  0  0  0  0  0  0  0  0
    3.5120   42.2220   51.9180 C   0  0  0  0  0  0  0  0  0  0  0  0
    3.3730   43.6100   51.9800 C   0  0  0  0  0  0  0  0  0  0  0  0
    2.4360   44.1540   52.7970 F   0  0  0  0  0  0  0  0  0  0  0  0
    4.4510   47.4510   53.0870 N   0  0  0  0  0  0  0  0  0  0  0  0
    5.3780   47.7020   54.0020 N   0  0  0  0  0  0  0  0  0  0  0  0
   10.7931   47.5385   56.9799 H   0  0  0  0  0  0  0  0  0  0  0  0
   10.7489   46.4944   55.5189 H   0  0  0  0  0  0  0  0  0  0  0  0
   11.7317   47.9979   55.5189 H   0  0  0  0  0  0  0  0  0  0  0  0
    8.8866   48.4376   56.1837 H   0  0  0  0  0  0  0  0  0  0  0  0
   10.0090   49.2655   54.9719 H   0  0  0  0  0  0  0  0  0  0  0  0
   10.4740   46.2608   54.1005 H   0  0  0  0  0  0  0  0  0  0  0  0
    9.3004   46.0870   52.7517 H   0  0  0  0  0  0  0  0  0  0  0  0
   10.4738   47.4472   52.7517 H   0  0  0  0  0  0  0  0  0  0  0  0
    9.1780   49.1280   52.8660 H   0  0  0  0  0  0  0  0  0  0  0  0
    7.9943   45.7184   54.5635 H   0  0  0  0  0  0  0  0  0  0  0  0
    7.3616   47.0946   55.6047 H   0  0  0  0  0  0  0  0  0  0  0  0
    6.6885   45.2903   52.2126 H   0  0  0  0  0  0  0  0  0  0  0  0
    2.9974   46.1789   51.3648 H   0  0  0  0  0  0  0  0  0  0  0  0
    4.3915   46.3236   50.2360 H   0  0  0  0  0  0  0  0  0  0  0  0
    5.7878   44.4394   49.7022 H   0  0  0  0  0  0  0  0  0  0  0  0
    2.8715   41.5785   52.5390 H   0  0  0  0  0  0  0  0  0  0  0  0
  1  2  1  0
  2  3  1  0
  3  4  1  0
  3  5  1  6
  3  6  1  0
  6  7  1  0
  7  8  2  0
  8  9  1  0
  9 10  1  0
 10 11  1  0
 11 12  2  0
 12 13  1  0
 13 14  1  0
 14 15  1  0
 14 16  1  0
 14 17  1  0
 13 18  2  0
 18 19  1  0
 19 20  2  0
 20 21  1  0
  9 22  1  0
 22 23  2  0
 23  7  1  0
 20 11  1  0
  1 24  1  0
  1 25  1  0
  1 26  1  0
  2 27  1  0
  2 28  1  0
  4 29  1  0
  4 30  1  0
  4 31  1  0
  5 32  1  0
  6 33  1  0
  6 34  1  0
  8 35  1  0
 10 36  1  0
 10 37  1  0
 12 38  1  0
 19 39  1  0
M  END
>  <meeko>  (1) 
{"is_sidechain": [false], "free_energy": -8.281, "intermolecular_energy": -11.427, "internal_energy": -0.751}

$$$$
ligand_76_conformer_4_docked
     RDKit          3D

 39 40  0  0  0  0  0  0  0  0999 V2000
    1.4550   44.4420   54.7970 C   0  0  0  0  0  0  0  0  0  0  0  0
    0.5190   44.1470   53.6210 C   0  0  0  0  0  0  0  0  0  0  0  0
    0.7040   42.7590   52.9250 C   0  0  2  0  0  0  0  0  0  0  0  0
   -0.7000   42.1450   52.7630 C   0  0  0  0  0  0  0  0  0  0  0  0
    1.4320   41.8720   53.7440 O   0  0  0  0  0  0  0  0  0  0  0  0
    1.3450   42.8630   51.5060 C   0  0  0  0  0  0  0  0  0  0  0  0
    2.7110   43.4920   51.4720 C   0  0  0  0  0  0  0  0  0  0  0  0
    3.0280   44.7580   51.0300 C   0  0  0  0  0  0  0  0  0  0  0  0
    4.3420   44.9110   51.2520 N   0  0  0  0  0  0  0  0  0  0  0  0
    5.1340   46.1120   51.0180 C   0  0  0  0  0  0  0  0  0  0  0  0
    5.9040   46.4690   52.2600 C   0  0  0  0  0  0  0  0  0  0  0  0
    7.3050   46.5210   52.2240 C   0  0  0  0  0  0  0  0  0  0  0  0
    8.0210   46.8150   53.3940 C   0  0  0  0  0  0  0  0  0  0  0  0
    9.5190   46.8760   53.3700 C   0  0  0  0  0  0  0  0  0  0  0  0
    9.9460   47.3250   52.1340 F   0  0  0  0  0  0  0  0  0  0  0  0
    9.9660   47.7440   54.3490 F   0  0  0  0  0  0  0  0  0  0  0  0
   10.0610   45.6230   53.6020 F   0  0  0  0  0  0  0  0  0  0  0  0
    7.3460   47.0310   54.5570 N   0  0  0  0  0  0  0  0  0  0  0  0
    5.9910   46.9740   54.6240 C   0  0  0  0  0  0  0  0  0  0  0  0
    5.2430   46.6850   53.4800 C   0  0  0  0  0  0  0  0  0  0  0  0
    3.8910   46.6160   53.5640 F   0  0  0  0  0  0  0  0  0  0  0  0
    4.8040   43.8130   51.8310 N   0  0  0  0  0  0  0  0  0  0  0  0
    3.8280   42.9280   51.9780 N   0  0  0  0  0  0  0  0  0  0  0  0
    0.9196   44.2733   55.7430 H   0  0  0  0  0  0  0  0  0  0  0  0
    2.3288   43.7757   54.7463 H   0  0  0  0  0  0  0  0  0  0  0  0
    1.7888   45.4889   54.7463 H   0  0  0  0  0  0  0  0  0  0  0  0
   -0.5149   44.2013   53.9927 H   0  0  0  0  0  0  0  0  0  0  0  0
    0.7634   44.8967   52.8540 H   0  0  0  0  0  0  0  0  0  0  0  0
   -1.1340   41.9552   53.7558 H   0  0  0  0  0  0  0  0  0  0  0  0
   -1.3440   42.8436   52.2088 H   0  0  0  0  0  0  0  0  0  0  0  0
   -0.6243   41.1978   52.2088 H   0  0  0  0  0  0  0  0  0  0  0  0
    1.1210   41.9650   54.6780 H   0  0  0  0  0  0  0  0  0  0  0  0
    1.4265   41.8469   51.0927 H   0  0  0  0  0  0  0  0  0  0  0  0
    0.6879   43.5211   50.9184 H   0  0  0  0  0  0  0  0  0  0  0  0
    2.3423   45.4942   50.5851 H   0  0  0  0  0  0  0  0  0  0  0  0
    5.8379   45.9294   50.1926 H   0  0  0  0  0  0  0  0  0  0  0  0
    4.4622   46.9432   50.7576 H   0  0  0  0  0  0  0  0  0  0  0  0
    7.8404   46.3320   51.2819 H   0  0  0  0  0  0  0  0  0  0  0  0
    5.4810   47.1558   55.5815 H   0  0  0  0  0  0  0  0  0  0  0  0
  1  2  1  0
  2  3  1  0
  3  4  1  0
  3  5  1  1
  3  6  1  0
  6  7  1  0
  7  8  2  0
  8  9  1  0
  9 10  1  0
 10 11  1  0
 11 12  2  0
 12 13  1  0
 13 14  1  0
 14 15  1  0
 14 16  1  0
 14 17  1  0
 13 18  2  0
 18 19  1  0
 19 20  2  0
 20 21  1  0
  9 22  1  0
 22 23  2  0
 23  7  1  0
 20 11  1  0
  1 24  1  0
  1 25  1  0
  1 26  1  0
  2 27  1  0
  2 28  1  0
  4 29  1  0
  4 30  1  0
  4 31  1  0
  5 32  1  0
  6 33  1  0
  6 34  1  0
  8 35  1  0
 10 36  1  0
 10 37  1  0
 12 38  1  0
 19 39  1  0
M  END
>  <meeko>  (2) 
{"is_sidechain": [false], "free_energy": -7.837, "intermolecular_energy": -10.676, "internal_energy": -0.889}

$$$$
ligand_76_conformer_4_docked
     RDKit          3D

 39 40  0  0  0  0  0  0  0  0999 V2000
    8.4900   47.1780   51.3740 C   0  0  0  0  0  0  0  0  0  0  0  0
    9.1370   47.8060   52.6120 C   0  0  0  0  0  0  0  0  0  0  0  0
    8.8910   47.0650   53.9670 C   0  0  2  0  0  0  0  0  0  0  0  0
   10.0290   47.4810   54.9210 C   0  0  0  0  0  0  0  0  0  0  0  0
    8.9980   45.6680   53.8100 O   0  0  0  0  0  0  0  0  0  0  0  0
    7.5380   47.4500   54.6430 C   0  0  0  0  0  0  0  0  0  0  0  0
    6.4280   46.4550   54.4490 C   0  0  0  0  0  0  0  0  0  0  0  0
    5.5410   46.4010   53.3960 C   0  0  0  0  0  0  0  0  0  0  0  0
    4.7800   45.3150   53.6060 N   0  0  0  0  0  0  0  0  0  0  0  0
    3.7420   44.7930   52.7260 C   0  0  0  0  0  0  0  0  0  0  0  0
    4.3120   43.7130   51.8460 C   0  0  0  0  0  0  0  0  0  0  0  0
    5.4270   43.9840   51.0400 C   0  0  0  0  0  0  0  0  0  0  0  0
    5.9310   42.9860   50.1910 C   0  0  0  0  0  0  0  0  0  0  0  0
    7.1230   43.2600   49.3240 C   0  0  0  0  0  0  0  0  0  0  0  0
    7.5140   44.5780   49.4750 F   0  0  0  0  0  0  0  0  0  0  0  0
    8.1670   42.4310   49.6920 F   0  0  0  0  0  0  0  0  0  0  0  0
    6.8190   43.0330   47.9930 F   0  0  0  0  0  0  0  0  0  0  0  0
    5.3200   41.7690   50.1500 N   0  0  0  0  0  0  0  0  0  0  0  0
    4.2310   41.4840   50.9100 C   0  0  0  0  0  0  0  0  0  0  0  0
    3.7010   42.4510   51.7680 C   0  0  0  0  0  0  0  0  0  0  0  0
    2.6040   42.1580   52.5100 F   0  0  0  0  0  0  0  0  0  0  0  0
    5.1980   44.7130   54.7080 N   0  0  0  0  0  0  0  0  0  0  0  0
    6.2050   45.3880   55.2450 N   0  0  0  0  0  0  0  0  0  0  0  0
    7.7336   46.4438   51.6882 H   0  0  0  0  0  0  0  0  0  0  0  0
    8.0103   47.9641   50.7723 H   0  0  0  0  0  0  0  0  0  0  0  0
    9.2614   46.6751   50.7723 H   0  0  0  0  0  0  0  0  0  0  0  0
   10.2231   47.8431   52.4415 H   0  0  0  0  0  0  0  0  0  0  0  0
    8.6640   48.7927   52.7245 H   0  0  0  0  0  0  0  0  0  0  0  0
    9.6970   47.3596   55.9627 H   0  0  0  0  0  0  0  0  0  0  0  0
   10.9092   46.8465   54.7404 H   0  0  0  0  0  0  0  0  0  0  0  0
   10.2925   48.5336   54.7404 H   0  0  0  0  0  0  0  0  0  0  0  0
    8.9970   45.4510   52.8460 H   0  0  0  0  0  0  0  0  0  0  0  0
    7.7145   47.5587   55.7233 H   0  0  0  0  0  0  0  0  0  0  0  0
    7.2058   48.3809   54.1603 H   0  0  0  0  0  0  0  0  0  0  0  0
    5.4706   47.1051   52.5538 H   0  0  0  0  0  0  0  0  0  0  0  0
    2.9251   44.3756   53.3330 H   0  0  0  0  0  0  0  0  0  0  0  0
    3.3576   45.6085   52.0957 H   0  0  0  0  0  0  0  0  0  0  0  0
    5.9047   44.9743   51.0728 H   0  0  0  0  0  0  0  0  0  0  0  0
    3.7651   40.4893   50.8499 H   0  0  0  0  0  0  0  0  0  0  0  0
  1  2  1  0
  2  3  1  0
  3  4  1  0
  3  5  1  6
  3  6  1  0
  6  7  1  0
  7  8  2  0
  8  9  1  0
  9 10  1  0
 10 11  1  0
 11 12  2  0
 12 13  1  0
 13 14  1  0
 14 15  1  0
 14 16  1  0
 14 17  1  0
 13 18  2  0
 18 19  1  0
 19 20  2  0
 20 21  1  0
  9 22  1  0
 22 23  2  0
 23  7  1  0
 20 11  1  0
  1 24  1  0
  1 25  1  0
  1 26  1  0
  2 27  1  0
  2 28  1  0
  4 29  1  0
  4 30  1  0
  4 31  1  0
  5 32  1  0
  6 33  1  0
  6 34  1  0
  8 35  1  0
 10 36  1  0
 10 37  1  0
 12 38  1  0
 19 39  1  0
M  END
>  <meeko>  (3) 
{"is_sidechain": [false], "free_energy": -7.796, "intermolecular_energy": -10.484, "internal_energy": -1.025}

$$$$
ligand_76_conformer_4_docked
     RDKit          3D

 39 40  0  0  0  0  0  0  0  0999 V2000
   10.3210   46.1310   51.9400 C   0  0  0  0  0  0  0  0  0  0  0  0
    9.7810   47.1600   52.9380 C   0  0  0  0  0  0  0  0  0  0  0  0
    8.2300   47.3640   52.9450 C   0  0  2  0  0  0  0  0  0  0  0  0
    7.6660   46.5710   51.7500 C   0  0  0  0  0  0  0  0  0  0  0  0
    7.8940   48.7140   52.7190 O   0  0  0  0  0  0  0  0  0  0  0  0
    7.5450   46.8270   54.2410 C   0  0  0  0  0  0  0  0  0  0  0  0
    6.0550   46.6550   54.1430 C   0  0  0  0  0  0  0  0  0  0  0  0
    5.3380   45.5040   54.3890 C   0  0  0  0  0  0  0  0  0  0  0  0
    4.0450   45.8340   54.2500 N   0  0  0  0  0  0  0  0  0  0  0  0
    2.8930   44.9710   54.4800 C   0  0  0  0  0  0  0  0  0  0  0  0
    2.4950   44.2950   53.1960 C   0  0  0  0  0  0  0  0  0  0  0  0
    3.3910   43.4250   52.5560 C   0  0  0  0  0  0  0  0  0  0  0  0
    3.0310   42.8280   51.3390 C   0  0  0  0  0  0  0  0  0  0  0  0
    3.9780   41.8950   50.6440 C   0  0  0  0  0  0  0  0  0  0  0  0
    4.9880   42.6230   50.0410 F   0  0  0  0  0  0  0  0  0  0  0  0
    4.5300   41.0220   51.5620 F   0  0  0  0  0  0  0  0  0  0  0  0
    3.3150   41.1630   49.6740 F   0  0  0  0  0  0  0  0  0  0  0  0
    1.8200   43.1120   50.7840 N   0  0  0  0  0  0  0  0  0  0  0  0
    0.9390   43.9600   51.3750 C   0  0  0  0  0  0  0  0  0  0  0  0
    1.2600   44.5740   52.5880 C   0  0  0  0  0  0  0  0  0  0  0  0
    0.3780   45.4300   53.1600 F   0  0  0  0  0  0  0  0  0  0  0  0
    3.9660   47.1250   53.9660 N   0  0  0  0  0  0  0  0  0  0  0  0
    5.1810   47.6530   53.8960 N   0  0  0  0  0  0  0  0  0  0  0  0
   10.7642   45.2864   52.4879 H   0  0  0  0  0  0  0  0  0  0  0  0
    9.4980   45.7665   51.3077 H   0  0  0  0  0  0  0  0  0  0  0  0
   11.0886   46.6012   51.3077 H   0  0  0  0  0  0  0  0  0  0  0  0
   10.0825   46.8404   53.9464 H   0  0  0  0  0  0  0  0  0  0  0  0
   10.2046   48.1257   52.6249 H   0  0  0  0  0  0  0  0  0  0  0  0
    7.0657   45.7270   52.1205 H   0  0  0  0  0  0  0  0  0  0  0  0
    7.0329   47.2305   51.1382 H   0  0  0  0  0  0  0  0  0  0  0  0
    8.4968   46.1894   51.1382 H   0  0  0  0  0  0  0  0  0  0  0  0
    8.7220   49.2320   52.5640 H   0  0  0  0  0  0  0  0  0  0  0  0
    7.9871   45.8488   54.4813 H   0  0  0  0  0  0  0  0  0  0  0  0
    7.7181   47.5852   55.0190 H   0  0  0  0  0  0  0  0  0  0  0  0
    5.7438   44.5147   54.6471 H   0  0  0  0  0  0  0  0  0  0  0  0
    3.1526   44.2080   55.2287 H   0  0  0  0  0  0  0  0  0  0  0  0
    2.0521   45.5791   54.8449 H   0  0  0  0  0  0  0  0  0  0  0  0
    4.3715   43.2122   53.0069 H   0  0  0  0  0  0  0  0  0  0  0  0
   -0.0305   44.1640   50.8970 H   0  0  0  0  0  0  0  0  0  0  0  0
  1  2  1  0
  2  3  1  0
  3  4  1  0
  3  5  1  6
  3  6  1  0
  6  7  1  0
  7  8  2  0
  8  9  1  0
  9 10  1  0
 10 11  1  0
 11 12  2  0
 12 13  1  0
 13 14  1  0
 14 15  1  0
 14 16  1  0
 14 17  1  0
 13 18  2  0
 18 19  1  0
 19 20  2  0
 20 21  1  0
  9 22  1  0
 22 23  2  0
 23  7  1  0
 20 11  1  0
  1 24  1  0
  1 25  1  0
  1 26  1  0
  2 27  1  0
  2 28  1  0
  4 29  1  0
  4 30  1  0
  4 31  1  0
  5 32  1  0
  6 33  1  0
  6 34  1  0
  8 35  1  0
 10 36  1  0
 10 37  1  0
 12 38  1  0
 19 39  1  0
M  END
>  <meeko>  (4) 
{"is_sidechain": [false], "free_energy": -7.785, "intermolecular_energy": -10.753, "internal_energy": -0.74}

$$$$
ligand_76_conformer_4_docked
     RDKit          3D

 39 40  0  0  0  0  0  0  0  0999 V2000
   10.3810   46.0380   51.7000 C   0  0  0  0  0  0  0  0  0  0  0  0
   10.1750   46.8070   53.0090 C   0  0  0  0  0  0  0  0  0  0  0  0
    8.7380   47.3720   53.2560 C   0  0  2  0  0  0  0  0  0  0  0  0
    8.3290   48.1360   51.9820 C   0  0  0  0  0  0  0  0  0  0  0  0
    8.7360   48.3170   54.3020 O   0  0  0  0  0  0  0  0  0  0  0  0
    7.6740   46.2590   53.5080 C   0  0  0  0  0  0  0  0  0  0  0  0
    6.2460   46.7290   53.4760 C   0  0  0  0  0  0  0  0  0  0  0  0
    5.2690   46.3430   52.5830 C   0  0  0  0  0  0  0  0  0  0  0  0
    4.1420   46.9580   52.9780 N   0  0  0  0  0  0  0  0  0  0  0  0
    2.8160   46.8080   52.3930 C   0  0  0  0  0  0  0  0  0  0  0  0
    2.1260   45.6110   52.9880 C   0  0  0  0  0  0  0  0  0  0  0  0
    1.3820   45.7470   54.1690 C   0  0  0  0  0  0  0  0  0  0  0  0
    0.7740   44.6200   54.7420 C   0  0  0  0  0  0  0  0  0  0  0  0
   -0.0260   44.7500   56.0040 C   0  0  0  0  0  0  0  0  0  0  0  0
   -1.0360   43.8060   56.0130 F   0  0  0  0  0  0  0  0  0  0  0  0
    0.7950   44.5500   57.0980 F   0  0  0  0  0  0  0  0  0  0  0  0
   -0.5910   46.0100   56.0940 F   0  0  0  0  0  0  0  0  0  0  0  0
    0.9250   43.4020   54.1510 N   0  0  0  0  0  0  0  0  0  0  0  0
    1.6500   43.2400   53.0140 C   0  0  0  0  0  0  0  0  0  0  0  0
    2.2700   44.3380   52.4130 C   0  0  0  0  0  0  0  0  0  0  0  0
    3.0040   44.1590   51.2870 F   0  0  0  0  0  0  0  0  0  0  0  0
    4.4030   47.6560   54.0720 N   0  0  0  0  0  0  0  0  0  0  0  0
    5.6820   47.5340   54.4000 N   0  0  0  0  0  0  0  0  0  0  0  0
   10.6596   44.9981   51.9256 H   0  0  0  0  0  0  0  0  0  0  0  0
    9.4481   46.0495   51.1173 H   0  0  0  0  0  0  0  0  0  0  0  0
   11.1832   46.5143   51.1173 H   0  0  0  0  0  0  0  0  0  0  0  0
   10.4163   46.1274   53.8396 H   0  0  0  0  0  0  0  0  0  0  0  0
   10.8310   47.6874   52.9409 H   0  0  0  0  0  0  0  0  0  0  0  0
    7.8270   49.0738   52.2621 H   0  0  0  0  0  0  0  0  0  0  0  0
    9.2258   48.3637   51.3872 H   0  0  0  0  0  0  0  0  0  0  0  0
    7.6422   47.5159   51.3872 H   0  0  0  0  0  0  0  0  0  0  0  0
    8.4820   47.8660   55.1450 H   0  0  0  0  0  0  0  0  0  0  0  0
    7.7971   45.4872   52.7340 H   0  0  0  0  0  0  0  0  0  0  0  0
    7.8532   45.8862   54.5273 H   0  0  0  0  0  0  0  0  0  0  0  0
    5.3882   45.6686   51.7222 H   0  0  0  0  0  0  0  0  0  0  0  0
    2.2223   47.7109   52.5989 H   0  0  0  0  0  0  0  0  0  0  0  0
    2.9135   46.6667   51.3065 H   0  0  0  0  0  0  0  0  0  0  0  0
    1.2756   46.7334   54.6441 H   0  0  0  0  0  0  0  0  0  0  0  0
    1.7493   42.2408   52.5649 H   0  0  0  0  0  0  0  0  0  0  0  0
  1  2  1  0
  2  3  1  0
  3  4  1  0
  3  5  1  1
  3  6  1  0
  6  7  1  0
  7  8  2  0
  8  9  1  0
  9 10  1  0
 10 11  1  0
 11 12  2  0
 12 13  1  0
 13 14  1  0
 14 15  1  0
 14 16  1  0
 14 17  1  0
 13 18  2  0
 18 19  1  0
 19 20  2  0
 20 21  1  0
  9 22  1  0
 22 23  2  0
 23  7  1  0
 20 11  1  0
  1 24  1  0
  1 25  1  0
  1 26  1  0
  2 27  1  0
  2 28  1  0
  4 29  1  0
  4 30  1  0
  4 31  1  0
  5 32  1  0
  6 33  1  0
  6 34  1  0
  8 35  1  0
 10 36  1  0
 10 37  1  0
 12 38  1  0
 19 39  1  0
M  END
>  <meeko>  (5) 
{"is_sidechain": [false], "free_energy": -7.73, "intermolecular_energy": -10.58, "internal_energy": -0.839}

$$$$
