ligand_78_conformer_2_docked
     RDKit          3D

 42 44  0  0  0  0  0  0  0  0999 V2000
    5.4700   44.2340   51.5960 C   0  0  0  0  0  0  0  0  0  0  0  0
    5.5290   45.6790   51.1060 C   0  0  0  0  0  0  0  0  0  0  0  0
    6.0600   46.5620   52.1540 N   0  0  0  0  0  0  0  0  0  0  0  0
    5.1450   47.3780   52.9620 C   0  0  0  0  0  0  0  0  0  0  0  0
    4.3270   46.5110   53.8660 C   0  0  0  0  0  0  0  0  0  0  0  0
    2.9710   46.2890   53.7850 C   0  0  0  0  0  0  0  0  0  0  0  0
    2.6590   45.5220   54.8430 N   0  0  0  0  0  0  0  0  0  0  0  0
    1.3200   45.1350   55.2670 C   0  0  0  0  0  0  0  0  0  0  0  0
    0.7000   44.2570   54.2300 C   0  0  0  0  0  0  0  0  0  0  0  0
    1.2620   43.1090   53.7930 N   0  0  0  0  0  0  0  0  0  0  0  0
    0.4540   42.4550   52.9150 C   0  0  0  0  0  0  0  0  0  0  0  0
   -0.7660   43.0720   52.6610 C   0  0  0  0  0  0  0  0  0  0  0  0
   -0.8300   44.4850   53.5710 S   0  0  0  0  0  0  0  0  0  0  0  0
    3.7600   45.3010   55.5440 N   0  0  0  0  0  0  0  0  0  0  0  0
    4.7980   45.8890   54.9660 N   0  0  0  0  0  0  0  0  0  0  0  0
    7.4790   46.6440   52.3750 C   0  0  0  0  0  0  0  0  0  0  0  0
    8.3750   46.2440   51.3730 C   0  0  0  0  0  0  0  0  0  0  0  0
    9.7530   46.3060   51.5940 C   0  0  0  0  0  0  0  0  0  0  0  0
   10.2470   46.7690   52.8170 C   0  0  0  0  0  0  0  0  0  0  0  0
    9.3640   47.1840   53.8240 C   0  0  0  0  0  0  0  0  0  0  0  0
    9.8900   47.6380   55.1570 C   0  0  0  0  0  0  0  0  0  0  0  0
    9.1400   48.7240   55.6280 O   0  0  0  0  0  0  0  0  0  0  0  0
    7.9800   47.1070   53.6020 C   0  0  0  0  0  0  0  0  0  0  0  0
    5.4694   44.2195   52.6959 H   0  0  0  0  0  0  0  0  0  0  0  0
    4.5516   43.7574   51.2225 H   0  0  0  0  0  0  0  0  0  0  0  0
    6.3464   43.6841   51.2225 H   0  0  0  0  0  0  0  0  0  0  0  0
    6.1818   45.7342   50.2224 H   0  0  0  0  0  0  0  0  0  0  0  0
    4.5109   46.0072   50.8496 H   0  0  0  0  0  0  0  0  0  0  0  0
    5.7305   48.0835   53.5698 H   0  0  0  0  0  0  0  0  0  0  0  0
    4.4695   47.9262   52.2888 H   0  0  0  0  0  0  0  0  0  0  0  0
    2.2834   46.6631   53.0121 H   0  0  0  0  0  0  0  0  0  0  0  0
    1.3813   44.5889   56.2199 H   0  0  0  0  0  0  0  0  0  0  0  0
    0.7036   46.0366   55.3981 H   0  0  0  0  0  0  0  0  0  0  0  0
    0.7450   41.5064   52.4402 H   0  0  0  0  0  0  0  0  0  0  0  0
   -1.5504   42.7015   51.9846 H   0  0  0  0  0  0  0  0  0  0  0  0
    7.9910   45.8798   50.4087 H   0  0  0  0  0  0  0  0  0  0  0  0
   10.4505   45.9900   50.8043 H   0  0  0  0  0  0  0  0  0  0  0  0
   11.3326   46.8079   52.9900 H   0  0  0  0  0  0  0  0  0  0  0  0
    9.8206   46.8090   55.8766 H   0  0  0  0  0  0  0  0  0  0  0  0
   10.9390   47.9486   55.0424 H   0  0  0  0  0  0  0  0  0  0  0  0
    9.5550   49.0050   56.4860 H   0  0  0  0  0  0  0  0  0  0  0  0
    7.2824   47.4119   54.3959 H   0  0  0  0  0  0  0  0  0  0  0  0
  1  2  1  0
  2  3  1  0
  3  4  1  0
  4  5  1  0
  5  6  2  0
  6  7  1  0
  7  8  1  0
  8  9  1  0
  9 10  2  0
 10 11  1  0
 11 12  2  0
 12 13  1  0
  7 14  1  0
 14 15  2  0
  3 16  1  0
 16 17  2  0
 17 18  1  0
 18 19  2  0
 19 20  1  0
 20 21  1  0
 21 22  1  0
 20 23  2  0
 15  5  1  0
 23 16  1  0
 13  9  1  0
  1 24  1  0
  1 25  1  0
  1 26  1  0
  2 27  1  0
  2 28  1  0
  4 29  1  0
  4 30  1  0
  6 31  1  0
  8 32  1  0
  8 33  1  0
 11 34  1  0
 12 35  1  0
 17 36  1  0
 18 37  1  0
 19 38  1  0
 21 39  1  0
 21 40  1  0
 22 41  1  0
 23 42  1  0
M  END
>  <meeko>  (1) 
{"is_sidechain": [false], "free_energy": -7.771, "intermolecular_energy": -11.178, "internal_energy": -0.753}

$$$$
ligand_78_conformer_2_docked
     RDKit          3D

 42 44  0  0  0  0  0  0  0  0999 V2000
    5.4250   44.4150   51.6670 C   0  0  0  0  0  0  0  0  0  0  0  0
    5.3480   45.8770   51.2320 C   0  0  0  0  0  0  0  0  0  0  0  0
    5.9490   46.7550   52.2460 N   0  0  0  0  0  0  0  0  0  0  0  0
    5.0980   47.6310   53.0600 C   0  0  0  0  0  0  0  0  0  0  0  0
    3.8180   46.9410   53.4130 C   0  0  0  0  0  0  0  0  0  0  0  0
    3.6210   46.0560   54.4480 C   0  0  0  0  0  0  0  0  0  0  0  0
    2.3530   45.6280   54.3310 N   0  0  0  0  0  0  0  0  0  0  0  0
    1.7180   44.5760   55.1140 C   0  0  0  0  0  0  0  0  0  0  0  0
    0.6520   45.1680   55.9760 C   0  0  0  0  0  0  0  0  0  0  0  0
    0.9050   45.9960   57.0130 N   0  0  0  0  0  0  0  0  0  0  0  0
   -0.2410   46.4630   57.5770 C   0  0  0  0  0  0  0  0  0  0  0  0
   -1.4170   46.0220   56.9790 C   0  0  0  0  0  0  0  0  0  0  0  0
   -1.0000   45.0120   55.7010 S   0  0  0  0  0  0  0  0  0  0  0  0
    1.8080   46.2060   53.2730 N   0  0  0  0  0  0  0  0  0  0  0  0
    2.6800   47.0210   52.6950 N   0  0  0  0  0  0  0  0  0  0  0  0
    7.3760   46.7700   52.4290 C   0  0  0  0  0  0  0  0  0  0  0  0
    8.2260   46.3520   51.3960 C   0  0  0  0  0  0  0  0  0  0  0  0
    9.6110   46.3500   51.5800 C   0  0  0  0  0  0  0  0  0  0  0  0
   10.1580   46.7660   52.7960 C   0  0  0  0  0  0  0  0  0  0  0  0
    9.3220   47.1990   53.8350 C   0  0  0  0  0  0  0  0  0  0  0  0
    9.9020   47.6020   55.1620 C   0  0  0  0  0  0  0  0  0  0  0  0
    9.1970   48.6940   55.6860 O   0  0  0  0  0  0  0  0  0  0  0  0
    7.9300   47.1870   53.6500 C   0  0  0  0  0  0  0  0  0  0  0  0
    5.4280   44.3590   52.7656 H   0  0  0  0  0  0  0  0  0  0  0  0
    4.5544   43.8693   51.2744 H   0  0  0  0  0  0  0  0  0  0  0  0
    6.3482   43.9638   51.2744 H   0  0  0  0  0  0  0  0  0  0  0  0
    5.8891   45.9997   50.2822 H   0  0  0  0  0  0  0  0  0  0  0  0
    4.2904   46.1531   51.1083 H   0  0  0  0  0  0  0  0  0  0  0  0
    5.6321   47.8971   53.9841 H   0  0  0  0  0  0  0  0  0  0  0  0
    4.8649   48.5369   52.4812 H   0  0  0  0  0  0  0  0  0  0  0  0
    4.3522   45.7596   55.2145 H   0  0  0  0  0  0  0  0  0  0  0  0
    1.2708   43.8342   54.4360 H   0  0  0  0  0  0  0  0  0  0  0  0
    2.4718   44.0871   55.7487 H   0  0  0  0  0  0  0  0  0  0  0  0
   -0.2382   47.1406   58.4435 H   0  0  0  0  0  0  0  0  0  0  0  0
   -2.4390   46.2871   57.2876 H   0  0  0  0  0  0  0  0  0  0  0  0
    7.8008   46.0240   50.4360 H   0  0  0  0  0  0  0  0  0  0  0  0
   10.2722   46.0200   50.7652 H   0  0  0  0  0  0  0  0  0  0  0  0
   11.2486   46.7539   52.9390 H   0  0  0  0  0  0  0  0  0  0  0  0
    9.8329   46.7555   55.8610 H   0  0  0  0  0  0  0  0  0  0  0  0
   10.9549   47.8879   55.0219 H   0  0  0  0  0  0  0  0  0  0  0  0
    9.6270   48.9190   56.5530 H   0  0  0  0  0  0  0  0  0  0  0  0
    7.2682   47.5069   54.4683 H   0  0  0  0  0  0  0  0  0  0  0  0
  1  2  1  0
  2  3  1  0
  3  4  1  0
  4  5  1  0
  5  6  2  0
  6  7  1  0
  7  8  1  0
  8  9  1  0
  9 10  2  0
 10 11  1  0
 11 12  2  0
 12 13  1  0
  7 14  1  0
 14 15  2  0
  3 16  1  0
 16 17  2  0
 17 18  1  0
 18 19  2  0
 19 20  1  0
 20 21  1  0
 21 22  1  0
 20 23  2  0
 15  5  1  0
 23 16  1  0
 13  9  1  0
  1 24  1  0
  1 25  1  0
  1 26  1  0
  2 27  1  0
  2 28  1  0
  4 29  1  0
  4 30  1  0
  6 31  1  0
  8 32  1  0
  8 33  1  0
 11 34  1  0
 12 35  1  0
 17 36  1  0
 18 37  1  0
 19 38  1  0
 21 39  1  0
 21 40  1  0
 22 41  1  0
 23 42  1  0
M  END
>  <meeko>  (2) 
{"is_sidechain": [false], "free_energy": -7.703, "intermolecular_energy": -11.363, "internal_energy": -0.47}

$$$$
ligand_78_conformer_2_docked
     RDKit          3D

 42 44  0  0  0  0  0  0  0  0999 V2000
    1.1900   44.0700   51.1910 C   0  0  0  0  0  0  0  0  0  0  0  0
    2.3470   45.0470   51.3890 C   0  0  0  0  0  0  0  0  0  0  0  0
    3.4790   44.3860   52.0550 N   0  0  0  0  0  0  0  0  0  0  0  0
    3.6430   44.4960   53.5100 C   0  0  0  0  0  0  0  0  0  0  0  0
    4.5760   45.6150   53.8510 C   0  0  0  0  0  0  0  0  0  0  0  0
    5.9480   45.5490   53.9200 C   0  0  0  0  0  0  0  0  0  0  0  0
    6.3550   46.7570   54.3420 N   0  0  0  0  0  0  0  0  0  0  0  0
    7.7150   47.1370   54.7010 C   0  0  0  0  0  0  0  0  0  0  0  0
    8.6140   46.9540   53.5230 C   0  0  0  0  0  0  0  0  0  0  0  0
    9.6760   46.1190   53.5180 N   0  0  0  0  0  0  0  0  0  0  0  0
   10.2750   46.0710   52.2970 C   0  0  0  0  0  0  0  0  0  0  0  0
    9.6800   46.8560   51.3160 C   0  0  0  0  0  0  0  0  0  0  0  0
    8.3600   47.6360   52.0070 S   0  0  0  0  0  0  0  0  0  0  0  0
    5.2900   47.5180   54.5360 N   0  0  0  0  0  0  0  0  0  0  0  0
    4.1860   46.8470   54.2370 N   0  0  0  0  0  0  0  0  0  0  0  0
    4.4380   43.6480   51.2780 C   0  0  0  0  0  0  0  0  0  0  0  0
    4.2710   42.2730   51.0670 C   0  0  0  0  0  0  0  0  0  0  0  0
    5.2120   41.5530   50.3280 C   0  0  0  0  0  0  0  0  0  0  0  0
    6.3290   42.2000   49.7930 C   0  0  0  0  0  0  0  0  0  0  0  0
    6.5050   43.5780   49.9840 C   0  0  0  0  0  0  0  0  0  0  0  0
    7.7280   44.2710   49.4510 C   0  0  0  0  0  0  0  0  0  0  0  0
    8.6230   43.3330   48.9230 O   0  0  0  0  0  0  0  0  0  0  0  0
    5.5620   44.2950   50.7390 C   0  0  0  0  0  0  0  0  0  0  0  0
    0.8095   43.7487   52.1718 H   0  0  0  0  0  0  0  0  0  0  0  0
    0.3841   44.5650   50.6293 H   0  0  0  0  0  0  0  0  0  0  0  0
    1.5430   43.1926   50.6293 H   0  0  0  0  0  0  0  0  0  0  0  0
    2.6744   45.4221   50.4081 H   0  0  0  0  0  0  0  0  0  0  0  0
    2.0024   45.8789   52.0209 H   0  0  0  0  0  0  0  0  0  0  0  0
    2.6630   44.6891   53.9708 H   0  0  0  0  0  0  0  0  0  0  0  0
    4.0638   43.5542   53.8920 H   0  0  0  0  0  0  0  0  0  0  0  0
    6.5824   44.6834   53.6787 H   0  0  0  0  0  0  0  0  0  0  0  0
    7.7301   48.1918   55.0126 H   0  0  0  0  0  0  0  0  0  0  0  0
    8.0647   46.5032   55.5292 H   0  0  0  0  0  0  0  0  0  0  0  0
   11.1654   45.4557   52.1005 H   0  0  0  0  0  0  0  0  0  0  0  0
   10.0137   46.9503   50.2721 H   0  0  0  0  0  0  0  0  0  0  0  0
    3.3939   41.7579   51.4857 H   0  0  0  0  0  0  0  0  0  0  0  0
    5.0736   40.4737   50.1666 H   0  0  0  0  0  0  0  0  0  0  0  0
    7.0726   41.6265   49.2202 H   0  0  0  0  0  0  0  0  0  0  0  0
    7.4310   44.9753   48.6599 H   0  0  0  0  0  0  0  0  0  0  0  0
    8.2195   44.8140   50.2717 H   0  0  0  0  0  0  0  0  0  0  0  0
    9.1800   43.8160   48.2570 H   0  0  0  0  0  0  0  0  0  0  0  0
    5.7051   45.3722   50.9095 H   0  0  0  0  0  0  0  0  0  0  0  0
  1  2  1  0
  2  3  1  0
  3  4  1  0
  4  5  1  0
  5  6  2  0
  6  7  1  0
  7  8  1  0
  8  9  1  0
  9 10  2  0
 10 11  1  0
 11 12  2  0
 12 13  1  0
  7 14  1  0
 14 15  2  0
  3 16  1  0
 16 17  2  0
 17 18  1  0
 18 19  2  0
 19 20  1  0
 20 21  1  0
 21 22  1  0
 20 23  2  0
 15  5  1  0
 23 16  1  0
 13  9  1  0
  1 24  1  0
  1 25  1  0
  1 26  1  0
  2 27  1  0
  2 28  1  0
  4 29  1  0
  4 30  1  0
  6 31  1  0
  8 32  1  0
  8 33  1  0
 11 34  1  0
 12 35  1  0
 17 36  1  0
 18 37  1  0
 19 38  1  0
 21 39  1  0
 21 40  1  0
 22 41  1  0
 23 42  1  0
M  END
>  <meeko>  (3) 
{"is_sidechain": [false], "free_energy": -7.541, "intermolecular_energy": -10.855, "internal_energy": -0.745}

$$$$
ligand_78_conformer_2_docked
     RDKit          3D

 42 44  0  0  0  0  0  0  0  0999 V2000
    5.4960   45.0150   55.0930 C   0  0  0  0  0  0  0  0  0  0  0  0
    5.2880   46.4290   54.5560 C   0  0  0  0  0  0  0  0  0  0  0  0
    5.8910   46.5750   53.2230 N   0  0  0  0  0  0  0  0  0  0  0  0
    5.0380   46.6080   52.0290 C   0  0  0  0  0  0  0  0  0  0  0  0
    4.5520   45.2350   51.6910 C   0  0  0  0  0  0  0  0  0  0  0  0
    3.2520   44.8640   51.4330 C   0  0  0  0  0  0  0  0  0  0  0  0
    3.2750   43.5310   51.2660 N   0  0  0  0  0  0  0  0  0  0  0  0
    2.1200   42.6580   51.1070 C   0  0  0  0  0  0  0  0  0  0  0  0
    1.0300   43.0950   52.0300 C   0  0  0  0  0  0  0  0  0  0  0  0
   -0.1290   43.6460   51.6070 N   0  0  0  0  0  0  0  0  0  0  0  0
   -0.9860   43.8720   52.6390 C   0  0  0  0  0  0  0  0  0  0  0  0
   -0.5200   43.4850   53.8910 C   0  0  0  0  0  0  0  0  0  0  0  0
    1.0200   42.8390   53.6920 S   0  0  0  0  0  0  0  0  0  0  0  0
    4.5180   43.1060   51.4290 N   0  0  0  0  0  0  0  0  0  0  0  0
    5.3230   44.1280   51.6840 N   0  0  0  0  0  0  0  0  0  0  0  0
    7.3200   46.6640   53.0870 C   0  0  0  0  0  0  0  0  0  0  0  0
    7.9320   46.3890   51.8570 C   0  0  0  0  0  0  0  0  0  0  0  0
    9.3220   46.4580   51.7290 C   0  0  0  0  0  0  0  0  0  0  0  0
   10.1110   46.8030   52.8300 C   0  0  0  0  0  0  0  0  0  0  0  0
    9.5130   47.0920   54.0650 C   0  0  0  0  0  0  0  0  0  0  0  0
   10.3600   47.4170   55.2640 C   0  0  0  0  0  0  0  0  0  0  0  0
    9.7650   48.4410   56.0130 O   0  0  0  0  0  0  0  0  0  0  0  0
    8.1170   47.0090   54.1910 C   0  0  0  0  0  0  0  0  0  0  0  0
    5.4929   45.0363   56.1928 H   0  0  0  0  0  0  0  0  0  0  0  0
    4.6839   44.3643   54.7366 H   0  0  0  0  0  0  0  0  0  0  0  0
    6.4611   44.6257   54.7366 H   0  0  0  0  0  0  0  0  0  0  0  0
    4.2094   46.6341   54.4884 H   0  0  0  0  0  0  0  0  0  0  0  0
    5.7708   47.1411   55.2414 H   0  0  0  0  0  0  0  0  0  0  0  0
    4.1734   47.2606   52.2204 H   0  0  0  0  0  0  0  0  0  0  0  0
    5.6264   46.9939   51.1835 H   0  0  0  0  0  0  0  0  0  0  0  0
    2.3738   45.5238   51.3753 H   0  0  0  0  0  0  0  0  0  0  0  0
    1.7624   42.7097   50.0680 H   0  0  0  0  0  0  0  0  0  0  0  0
    2.4084   41.6238   51.3465 H   0  0  0  0  0  0  0  0  0  0  0  0
   -1.9764   44.3281   52.4937 H   0  0  0  0  0  0  0  0  0  0  0  0
   -1.0626   43.5839   54.8427 H   0  0  0  0  0  0  0  0  0  0  0  0
    7.3153   46.1174   50.9876 H   0  0  0  0  0  0  0  0  0  0  0  0
    9.7958   46.2405   50.7604 H   0  0  0  0  0  0  0  0  0  0  0  0
   11.2053   46.8480   52.7273 H   0  0  0  0  0  0  0  0  0  0  0  0
   10.4611   46.5193   55.8916 H   0  0  0  0  0  0  0  0  0  0  0  0
   11.3514   47.7506   54.9236 H   0  0  0  0  0  0  0  0  0  0  0  0
   10.4260   48.7060   56.7060 H   0  0  0  0  0  0  0  0  0  0  0  0
    7.6437   47.2158   55.1622 H   0  0  0  0  0  0  0  0  0  0  0  0
  1  2  1  0
  2  3  1  0
  3  4  1  0
  4  5  1  0
  5  6  2  0
  6  7  1  0
  7  8  1  0
  8  9  1  0
  9 10  2  0
 10 11  1  0
 11 12  2  0
 12 13  1  0
  7 14  1  0
 14 15  2  0
  3 16  1  0
 16 17  2  0
 17 18  1  0
 18 19  2  0
 19 20  1  0
 20 21  1  0
 21 22  1  0
 20 23  2  0
 15  5  1  0
 23 16  1  0
 13  9  1  0
  1 24  1  0
  1 25  1  0
  1 26  1  0
  2 27  1  0
  2 28  1  0
  4 29  1  0
  4 30  1  0
  6 31  1  0
  8 32  1  0
  8 33  1  0
 11 34  1  0
 12 35  1  0
 17 36  1  0
 18 37  1  0
 19 38  1  0
 21 39  1  0
 21 40  1  0
 22 41  1  0
 23 42  1  0
M  END
>  <meeko>  (4) 
{"is_sidechain": [false], "free_energy": -7.517, "intermolecular_energy": -11.008, "internal_energy": -0.557}

$$$$
ligand_78_conformer_2_docked
     RDKit          3D

 42 44  0  0  0  0  0  0  0  0999 V2000
    3.4950   47.5740   52.5230 C   0  0  0  0  0  0  0  0  0  0  0  0
    4.4230   48.0130   53.6530 C   0  0  0  0  0  0  0  0  0  0  0  0
    5.3650   46.9390   54.0000 N   0  0  0  0  0  0  0  0  0  0  0  0
    4.9250   45.8150   54.8350 C   0  0  0  0  0  0  0  0  0  0  0  0
    4.2370   44.7790   54.0020 C   0  0  0  0  0  0  0  0  0  0  0  0
    4.8180   43.9690   53.0530 C   0  0  0  0  0  0  0  0  0  0  0  0
    3.8140   43.2660   52.5050 N   0  0  0  0  0  0  0  0  0  0  0  0
    3.9090   42.3720   51.3580 C   0  0  0  0  0  0  0  0  0  0  0  0
    5.1310   42.7010   50.5650 C   0  0  0  0  0  0  0  0  0  0  0  0
    5.6020   43.9570   50.4090 N   0  0  0  0  0  0  0  0  0  0  0  0
    6.7750   43.9740   49.7190 C   0  0  0  0  0  0  0  0  0  0  0  0
    7.2540   42.7250   49.3360 C   0  0  0  0  0  0  0  0  0  0  0  0
    6.1670   41.5650   49.8840 S   0  0  0  0  0  0  0  0  0  0  0  0
    2.6780   43.6350   53.0740 N   0  0  0  0  0  0  0  0  0  0  0  0
    2.9070   44.5560   54.0000 N   0  0  0  0  0  0  0  0  0  0  0  0
    6.7260   47.0000   53.5380 C   0  0  0  0  0  0  0  0  0  0  0  0
    7.0150   46.8960   52.1710 C   0  0  0  0  0  0  0  0  0  0  0  0
    8.3380   46.9370   51.7240 C   0  0  0  0  0  0  0  0  0  0  0  0
    9.3830   47.0830   52.6400 C   0  0  0  0  0  0  0  0  0  0  0  0
    9.1100   47.2010   54.0100 C   0  0  0  0  0  0  0  0  0  0  0  0
   10.2330   47.3120   55.0040 C   0  0  0  0  0  0  0  0  0  0  0  0
    9.9140   48.2520   55.9920 O   0  0  0  0  0  0  0  0  0  0  0  0
    7.7800   47.1460   54.4550 C   0  0  0  0  0  0  0  0  0  0  0  0
    2.5782   47.1403   52.9490 H   0  0  0  0  0  0  0  0  0  0  0  0
    3.2350   48.4446   51.9029 H   0  0  0  0  0  0  0  0  0  0  0  0
    4.0031   46.8208   51.9029 H   0  0  0  0  0  0  0  0  0  0  0  0
    4.9891   48.8996   53.3313 H   0  0  0  0  0  0  0  0  0  0  0  0
    3.8144   48.2488   54.5384 H   0  0  0  0  0  0  0  0  0  0  0  0
    5.8007   45.3630   55.3238 H   0  0  0  0  0  0  0  0  0  0  0  0
    4.2189   46.1892   55.5909 H   0  0  0  0  0  0  0  0  0  0  0  0
    5.8860   43.9098   52.7962 H   0  0  0  0  0  0  0  0  0  0  0  0
    3.9699   41.3314   51.7092 H   0  0  0  0  0  0  0  0  0  0  0  0
    3.0185   42.4957   50.7242 H   0  0  0  0  0  0  0  0  0  0  0  0
    7.3060   44.9076   49.4813 H   0  0  0  0  0  0  0  0  0  0  0  0
    8.1796   42.5309   48.7743 H   0  0  0  0  0  0  0  0  0  0  0  0
    6.1958   46.7815   51.4458 H   0  0  0  0  0  0  0  0  0  0  0  0
    8.5573   46.8542   50.6493 H   0  0  0  0  0  0  0  0  0  0  0  0
   10.4238   47.1054   52.2848 H   0  0  0  0  0  0  0  0  0  0  0  0
   10.3993   46.3320   55.4751 H   0  0  0  0  0  0  0  0  0  0  0  0
   11.1444   47.6369   54.4807 H   0  0  0  0  0  0  0  0  0  0  0  0
    9.8100   47.7470   56.8410 H   0  0  0  0  0  0  0  0  0  0  0  0
    7.5612   47.2178   55.5306 H   0  0  0  0  0  0  0  0  0  0  0  0
  1  2  1  0
  2  3  1  0
  3  4  1  0
  4  5  1  0
  5  6  2  0
  6  7  1  0
  7  8  1  0
  8  9  1  0
  9 10  2  0
 10 11  1  0
 11 12  2  0
 12 13  1  0
  7 14  1  0
 14 15  2  0
  3 16  1  0
 16 17  2  0
 17 18  1  0
 18 19  2  0
 19 20  1  0
 20 21  1  0
 21 22  1  0
 20 23  2  0
 15  5  1  0
 23 16  1  0
 13  9  1  0
  1 24  1  0
  1 25  1  0
  1 26  1  0
  2 27  1  0
  2 28  1  0
  4 29  1  0
  4 30  1  0
  6 31  1  0
  8 32  1  0
  8 33  1  0
 11 34  1  0
 12 35  1  0
 17 36  1  0
 18 37  1  0
 19 38  1  0
 21 39  1  0
 21 40  1  0
 22 41  1  0
 23 42  1  0
M  END
>  <meeko>  (5) 
{"is_sidechain": [false], "free_energy": -7.212, "intermolecular_energy": -11.099, "internal_energy": -0.028}

$$$$
