ligand_43_conformer_5_docked
     RDKit          3D

 55 58  0  0  0  0  0  0  0  0999 V2000
    7.0230   42.8810   49.4030 C   0  0  0  0  0  0  0  0  0  0  0  0
    6.5070   41.5200   49.8590 C   0  0  0  0  0  0  0  0  0  0  0  0
    5.0300   41.5700   50.0970 C   0  0  0  0  0  0  0  0  0  0  0  0
    4.1350   40.8640   49.3790 N   0  0  0  0  0  0  0  0  0  0  0  0
    2.9780   41.2290   49.8440 O   0  0  0  0  0  0  0  0  0  0  0  0
    3.1410   42.1190   50.7920 C   0  0  0  0  0  0  0  0  0  0  0  0
    2.0350   42.7600   51.5300 C   0  0  0  0  0  0  0  0  0  0  0  0
    0.8520   43.1010   50.8660 C   0  0  0  0  0  0  0  0  0  0  0  0
   -0.1870   43.7260   51.5540 C   0  0  0  0  0  0  0  0  0  0  0  0
   -0.0620   44.0350   52.9180 C   0  0  0  0  0  0  0  0  0  0  0  0
   -1.1940   44.7390   53.6160 C   0  0  0  0  0  0  0  0  0  0  0  0
    1.1310   43.6970   53.6040 C   0  0  0  0  0  0  0  0  0  0  0  0
    1.2970   44.0290   55.0000 N   0  0  0  0  0  0  0  0  0  0  0  0
    1.9940   45.2260   55.4790 C   0  0  0  0  0  0  0  0  0  0  0  0
    3.2310   45.4870   54.6580 C   0  0  0  0  0  0  0  0  0  0  0  0
    3.2110   46.4520   53.6390 C   0  0  0  0  0  0  0  0  0  0  0  0
    4.3400   46.6590   52.8430 C   0  0  0  0  0  0  0  0  0  0  0  0
    5.5050   45.9060   53.0530 C   0  0  0  0  0  0  0  0  0  0  0  0
    6.6960   46.1060   52.2040 C   0  0  0  0  0  0  0  0  0  0  0  0
    6.5700   46.0330   50.9510 O   0  0  0  0  0  0  0  0  0  0  0  0
    7.9830   46.4090   52.7730 N   0  0  0  0  0  0  0  0  0  0  0  0
    9.2040   46.4130   51.9860 C   0  0  0  0  0  0  0  0  0  0  0  0
   10.3060   46.8660   52.9370 C   0  0  0  0  0  0  0  0  0  0  0  0
    9.5920   47.5370   54.1090 C   0  0  0  0  0  0  0  0  0  0  0  0
    8.1730   46.9820   54.1000 C   0  0  0  0  0  0  0  0  0  0  0  0
    5.5410   44.9730   54.1010 C   0  0  0  0  0  0  0  0  0  0  0  0
    4.4110   44.7620   54.8960 C   0  0  0  0  0  0  0  0  0  0  0  0
    2.1610   43.0450   52.8970 C   0  0  0  0  0  0  0  0  0  0  0  0
    4.4470   42.3870   50.9960 N   0  0  0  0  0  0  0  0  0  0  0  0
    7.2570   43.4981   50.2830 H   0  0  0  0  0  0  0  0  0  0  0  0
    7.9319   42.7448   48.7986 H   0  0  0  0  0  0  0  0  0  0  0  0
    6.2523   43.3816   48.7986 H   0  0  0  0  0  0  0  0  0  0  0  0
    6.7229   40.7724   49.0815 H   0  0  0  0  0  0  0  0  0  0  0  0
    7.0089   41.2469   50.7989 H   0  0  0  0  0  0  0  0  0  0  0  0
    0.7409   42.8748   49.7953 H   0  0  0  0  0  0  0  0  0  0  0  0
   -1.1157   43.9801   51.0220 H   0  0  0  0  0  0  0  0  0  0  0  0
   -1.0613   44.6565   54.7048 H   0  0  0  0  0  0  0  0  0  0  0  0
   -1.1998   45.8003   53.3267 H   0  0  0  0  0  0  0  0  0  0  0  0
   -2.1484   44.2749   53.3267 H   0  0  0  0  0  0  0  0  0  0  0  0
    0.8390   43.4380   55.7300 H   0  0  0  0  0  0  0  0  0  0  0  0
    1.3198   46.0917   55.4013 H   0  0  0  0  0  0  0  0  0  0  0  0
    2.2916   45.0666   56.5259 H   0  0  0  0  0  0  0  0  0  0  0  0
    2.3025   47.0477   53.4665 H   0  0  0  0  0  0  0  0  0  0  0  0
    4.3155   47.4172   52.0464 H   0  0  0  0  0  0  0  0  0  0  0  0
    9.4176   45.4037   51.6043 H   0  0  0  0  0  0  0  0  0  0  0  0
    9.1224   47.0774   51.1131 H   0  0  0  0  0  0  0  0  0  0  0  0
   10.8892   46.0017   53.2875 H   0  0  0  0  0  0  0  0  0  0  0  0
   11.0101   47.5526   52.4442 H   0  0  0  0  0  0  0  0  0  0  0  0
   10.0943   47.2903   55.0561 H   0  0  0  0  0  0  0  0  0  0  0  0
    9.5998   48.6330   54.0153 H   0  0  0  0  0  0  0  0  0  0  0  0
    8.0591   46.2072   54.8724 H   0  0  0  0  0  0  0  0  0  0  0  0
    7.4295   47.7636   54.3155 H   0  0  0  0  0  0  0  0  0  0  0  0
    6.4625   44.4054   54.2975 H   0  0  0  0  0  0  0  0  0  0  0  0
    4.4455   44.0250   55.7118 H   0  0  0  0  0  0  0  0  0  0  0  0
    3.0801   42.7545   53.4270 H   0  0  0  0  0  0  0  0  0  0  0  0
  1  2  1  0
  2  3  1  0
  3  4  2  0
  4  5  1  0
  5  6  1  0
  6  7  1  0
  7  8  2  0
  8  9  1  0
  9 10  2  0
 10 11  1  0
 10 12  1  0
 12 13  1  0
 13 14  1  0
 14 15  1  0
 15 16  2  0
 16 17  1  0
 17 18  2  0
 18 19  1  0
 19 20  2  0
 19 21  1  0
 21 22  1  0
 22 23  1  0
 23 24  1  0
 24 25  1  0
 18 26  1  0
 26 27  2  0
 12 28  2  0
  6 29  2  0
 29  3  1  0
 28  7  1  0
 27 15  1  0
 25 21  1  0
  1 30  1  0
  1 31  1  0
  1 32  1  0
  2 33  1  0
  2 34  1  0
  8 35  1  0
  9 36  1  0
 11 37  1  0
 11 38  1  0
 11 39  1  0
 13 40  1  0
 14 41  1  0
 14 42  1  0
 16 43  1  0
 17 44  1  0
 22 45  1  0
 22 46  1  0
 23 47  1  0
 23 48  1  0
 24 49  1  0
 24 50  1  0
 25 51  1  0
 25 52  1  0
 26 53  1  0
 27 54  1  0
 28 55  1  0
M  END
>  <meeko>  (1) 
{"is_sidechain": [false], "free_energy": -9.666, "intermolecular_energy": -13.056, "internal_energy": -1.108}

$$$$
ligand_43_conformer_5_docked
     RDKit          3D

 55 58  0  0  0  0  0  0  0  0999 V2000
    5.6570   41.5330   49.5620 C   0  0  0  0  0  0  0  0  0  0  0  0
    6.2580   42.4290   48.4850 C   0  0  0  0  0  0  0  0  0  0  0  0
    7.1890   43.4300   49.0930 C   0  0  0  0  0  0  0  0  0  0  0  0
    8.3950   43.7370   48.5780 N   0  0  0  0  0  0  0  0  0  0  0  0
    8.9080   44.5840   49.4190 O   0  0  0  0  0  0  0  0  0  0  0  0
    8.0740   44.7870   50.4090 C   0  0  0  0  0  0  0  0  0  0  0  0
    8.3420   45.6810   51.5520 C   0  0  0  0  0  0  0  0  0  0  0  0
    9.6320   46.1790   51.7680 C   0  0  0  0  0  0  0  0  0  0  0  0
    9.8940   47.0060   52.8580 C   0  0  0  0  0  0  0  0  0  0  0  0
    8.8760   47.3450   53.7650 C   0  0  0  0  0  0  0  0  0  0  0  0
    9.2090   48.2150   54.9480 C   0  0  0  0  0  0  0  0  0  0  0  0
    7.5650   46.8480   53.5600 C   0  0  0  0  0  0  0  0  0  0  0  0
    6.5060   47.1570   54.4930 N   0  0  0  0  0  0  0  0  0  0  0  0
    5.2610   47.8360   54.1200 C   0  0  0  0  0  0  0  0  0  0  0  0
    4.0910   46.8890   54.2010 C   0  0  0  0  0  0  0  0  0  0  0  0
    3.9680   46.0120   55.2900 C   0  0  0  0  0  0  0  0  0  0  0  0
    2.9130   45.0970   55.3410 C   0  0  0  0  0  0  0  0  0  0  0  0
    1.9670   45.0460   54.3050 C   0  0  0  0  0  0  0  0  0  0  0  0
    0.8610   44.0690   54.3420 C   0  0  0  0  0  0  0  0  0  0  0  0
    0.9970   42.9710   53.7360 O   0  0  0  0  0  0  0  0  0  0  0  0
   -0.3480   44.3320   55.0780 N   0  0  0  0  0  0  0  0  0  0  0  0
   -1.5260   43.4870   54.9710 C   0  0  0  0  0  0  0  0  0  0  0  0
   -2.5320   44.0560   55.9650 C   0  0  0  0  0  0  0  0  0  0  0  0
   -1.7210   44.9260   56.9230 C   0  0  0  0  0  0  0  0  0  0  0  0
   -0.4460   45.2880   56.1730 C   0  0  0  0  0  0  0  0  0  0  0  0
    2.0650   45.9530   53.2390 C   0  0  0  0  0  0  0  0  0  0  0  0
    3.1220   46.8660   53.1840 C   0  0  0  0  0  0  0  0  0  0  0  0
    7.3140   46.0310   52.4400 C   0  0  0  0  0  0  0  0  0  0  0  0
    6.9460   44.0630   50.2580 N   0  0  0  0  0  0  0  0  0  0  0  0
    5.9206   41.9260   50.5550 H   0  0  0  0  0  0  0  0  0  0  0  0
    4.5625   41.5136   49.4541 H   0  0  0  0  0  0  0  0  0  0  0  0
    6.0543   40.5129   49.4541 H   0  0  0  0  0  0  0  0  0  0  0  0
    6.8134   41.8082   47.7666 H   0  0  0  0  0  0  0  0  0  0  0  0
    5.4444   42.9652   47.9746 H   0  0  0  0  0  0  0  0  0  0  0  0
   10.4434   45.9160   51.0734 H   0  0  0  0  0  0  0  0  0  0  0  0
   10.9103   47.3984   53.0104 H   0  0  0  0  0  0  0  0  0  0  0  0
    8.9988   47.6659   55.8777 H   0  0  0  0  0  0  0  0  0  0  0  0
   10.2745   48.4863   54.9153 H   0  0  0  0  0  0  0  0  0  0  0  0
    8.5969   49.1284   54.9153 H   0  0  0  0  0  0  0  0  0  0  0  0
    6.5720   46.8220   55.4800 H   0  0  0  0  0  0  0  0  0  0  0  0
    5.0907   48.6794   54.8053 H   0  0  0  0  0  0  0  0  0  0  0  0
    5.3521   48.1968   53.0849 H   0  0  0  0  0  0  0  0  0  0  0  0
    4.7047   46.0451   56.1062 H   0  0  0  0  0  0  0  0  0  0  0  0
    2.8233   44.4129   56.1977 H   0  0  0  0  0  0  0  0  0  0  0  0
   -1.9330   43.5235   53.9497 H   0  0  0  0  0  0  0  0  0  0  0  0
   -1.2920   42.4341   55.1872 H   0  0  0  0  0  0  0  0  0  0  0  0
   -3.2866   44.6621   55.4423 H   0  0  0  0  0  0  0  0  0  0  0  0
   -3.0706   43.2588   56.4983 H   0  0  0  0  0  0  0  0  0  0  0  0
   -2.2830   45.8347   57.1848 H   0  0  0  0  0  0  0  0  0  0  0  0
   -1.5027   44.3990   57.8635 H   0  0  0  0  0  0  0  0  0  0  0  0
   -0.5093   46.3141   55.7818 H   0  0  0  0  0  0  0  0  0  0  0  0
    0.4364   45.2465   56.8285 H   0  0  0  0  0  0  0  0  0  0  0  0
    1.3063   45.9456   52.4426 H   0  0  0  0  0  0  0  0  0  0  0  0
    3.1954   47.5691   52.3413 H   0  0  0  0  0  0  0  0  0  0  0  0
    6.2941   45.6611   52.2587 H   0  0  0  0  0  0  0  0  0  0  0  0
  1  2  1  0
  2  3  1  0
  3  4  2  0
  4  5  1  0
  5  6  1  0
  6  7  1  0
  7  8  2  0
  8  9  1  0
  9 10  2  0
 10 11  1  0
 10 12  1  0
 12 13  1  0
 13 14  1  0
 14 15  1  0
 15 16  2  0
 16 17  1  0
 17 18  2  0
 18 19  1  0
 19 20  2  0
 19 21  1  0
 21 22  1  0
 22 23  1  0
 23 24  1  0
 24 25  1  0
 18 26  1  0
 26 27  2  0
 12 28  2  0
  6 29  2  0
 29  3  1  0
 28  7  1  0
 27 15  1  0
 25 21  1  0
  1 30  1  0
  1 31  1  0
  1 32  1  0
  2 33  1  0
  2 34  1  0
  8 35  1  0
  9 36  1  0
 11 37  1  0
 11 38  1  0
 11 39  1  0
 13 40  1  0
 14 41  1  0
 14 42  1  0
 16 43  1  0
 17 44  1  0
 22 45  1  0
 22 46  1  0
 23 47  1  0
 23 48  1  0
 24 49  1  0
 24 50  1  0
 25 51  1  0
 25 52  1  0
 26 53  1  0
 27 54  1  0
 28 55  1  0
M  END
>  <meeko>  (2) 
{"is_sidechain": [false], "free_energy": -8.941, "intermolecular_energy": -12.23, "internal_energy": -0.955}

$$$$
ligand_43_conformer_5_docked
     RDKit          3D

 55 58  0  0  0  0  0  0  0  0999 V2000
   -2.0640   49.7700   59.1900 C   0  0  0  0  0  0  0  0  0  0  0  0
   -0.9330   49.0420   59.9080 C   0  0  0  0  0  0  0  0  0  0  0  0
   -0.4320   47.9000   59.0790 C   0  0  0  0  0  0  0  0  0  0  0  0
    0.7810   47.3390   59.2370 N   0  0  0  0  0  0  0  0  0  0  0  0
    0.8560   46.4430   58.3000 O   0  0  0  0  0  0  0  0  0  0  0  0
   -0.2450   46.4500   57.5900 C   0  0  0  0  0  0  0  0  0  0  0  0
   -0.4950   45.5680   56.4330 C   0  0  0  0  0  0  0  0  0  0  0  0
   -1.7730   45.0430   56.2120 C   0  0  0  0  0  0  0  0  0  0  0  0
   -2.0090   44.1930   55.1330 C   0  0  0  0  0  0  0  0  0  0  0  0
   -0.9700   43.8380   54.2580 C   0  0  0  0  0  0  0  0  0  0  0  0
   -1.2590   42.8910   53.1240 C   0  0  0  0  0  0  0  0  0  0  0  0
    0.3300   44.3610   54.4690 C   0  0  0  0  0  0  0  0  0  0  0  0
    1.4240   43.9900   53.6000 N   0  0  0  0  0  0  0  0  0  0  0  0
    1.5650   44.4580   52.2190 C   0  0  0  0  0  0  0  0  0  0  0  0
    3.0140   44.7040   51.8840 C   0  0  0  0  0  0  0  0  0  0  0  0
    4.0130   43.8760   52.4200 C   0  0  0  0  0  0  0  0  0  0  0  0
    5.3600   44.1340   52.1530 C   0  0  0  0  0  0  0  0  0  0  0  0
    5.7280   45.2230   51.3480 C   0  0  0  0  0  0  0  0  0  0  0  0
    7.1490   45.5130   51.0770 C   0  0  0  0  0  0  0  0  0  0  0  0
    7.6280   45.2190   49.9470 O   0  0  0  0  0  0  0  0  0  0  0  0
    7.9870   46.1490   52.0600 N   0  0  0  0  0  0  0  0  0  0  0  0
    9.4260   46.2670   51.9020 C   0  0  0  0  0  0  0  0  0  0  0  0
    9.9090   47.0720   53.1040 C   0  0  0  0  0  0  0  0  0  0  0  0
    8.6690   47.7680   53.6610 C   0  0  0  0  0  0  0  0  0  0  0  0
    7.4800   46.9520   53.1660 C   0  0  0  0  0  0  0  0  0  0  0  0
    4.7280   46.0240   50.7760 C   0  0  0  0  0  0  0  0  0  0  0  0
    3.3800   45.7700   51.0440 C   0  0  0  0  0  0  0  0  0  0  0  0
    0.5440   45.2370   55.5520 C   0  0  0  0  0  0  0  0  0  0  0  0
   -1.1150   47.3780   58.0410 N   0  0  0  0  0  0  0  0  0  0  0  0
   -2.7467   50.2094   59.9322 H   0  0  0  0  0  0  0  0  0  0  0  0
   -1.6445   50.5681   58.5599 H   0  0  0  0  0  0  0  0  0  0  0  0
   -2.6168   49.0577   58.5599 H   0  0  0  0  0  0  0  0  0  0  0  0
   -0.1077   49.7462   60.0899 H   0  0  0  0  0  0  0  0  0  0  0  0
   -1.3138   48.6479   60.8618 H   0  0  0  0  0  0  0  0  0  0  0  0
   -2.5962   45.3026   56.8938 H   0  0  0  0  0  0  0  0  0  0  0  0
   -3.0209   43.7957   54.9650 H   0  0  0  0  0  0  0  0  0  0  0  0
   -1.5574   41.9131   53.5299 H   0  0  0  0  0  0  0  0  0  0  0  0
   -2.0744   43.2961   52.5067 H   0  0  0  0  0  0  0  0  0  0  0  0
   -0.3563   42.7718   52.5067 H   0  0  0  0  0  0  0  0  0  0  0  0
    2.2120   43.4170   53.9770 H   0  0  0  0  0  0  0  0  0  0  0  0
    1.1612   43.6956   51.5366 H   0  0  0  0  0  0  0  0  0  0  0  0
    1.0116   45.4021   52.1078 H   0  0  0  0  0  0  0  0  0  0  0  0
    3.7341   43.0206   53.0528 H   0  0  0  0  0  0  0  0  0  0  0  0
    6.1364   43.4798   52.5762 H   0  0  0  0  0  0  0  0  0  0  0  0
    9.8938   45.2715   51.8942 H   0  0  0  0  0  0  0  0  0  0  0  0
    9.6913   46.7559   50.9530 H   0  0  0  0  0  0  0  0  0  0  0  0
   10.3471   46.4051   53.8612 H   0  0  0  0  0  0  0  0  0  0  0  0
   10.6880   47.7954   52.8214 H   0  0  0  0  0  0  0  0  0  0  0  0
    8.6962   47.7778   54.7606 H   0  0  0  0  0  0  0  0  0  0  0  0
    8.6084   48.8153   53.3301 H   0  0  0  0  0  0  0  0  0  0  0  0
    7.0993   46.3030   53.9684 H   0  0  0  0  0  0  0  0  0  0  0  0
    6.6469   47.5976   52.8511 H   0  0  0  0  0  0  0  0  0  0  0  0
    5.0065   46.8564   50.1130 H   0  0  0  0  0  0  0  0  0  0  0  0
    2.6027   46.4065   50.5960 H   0  0  0  0  0  0  0  0  0  0  0  0
    1.5436   45.6685   55.7087 H   0  0  0  0  0  0  0  0  0  0  0  0
  1  2  1  0
  2  3  1  0
  3  4  2  0
  4  5  1  0
  5  6  1  0
  6  7  1  0
  7  8  2  0
  8  9  1  0
  9 10  2  0
 10 11  1  0
 10 12  1  0
 12 13  1  0
 13 14  1  0
 14 15  1  0
 15 16  2  0
 16 17  1  0
 17 18  2  0
 18 19  1  0
 19 20  2  0
 19 21  1  0
 21 22  1  0
 22 23  1  0
 23 24  1  0
 24 25  1  0
 18 26  1  0
 26 27  2  0
 12 28  2  0
  6 29  2  0
 29  3  1  0
 28  7  1  0
 27 15  1  0
 25 21  1  0
  1 30  1  0
  1 31  1  0
  1 32  1  0
  2 33  1  0
  2 34  1  0
  8 35  1  0
  9 36  1  0
 11 37  1  0
 11 38  1  0
 11 39  1  0
 13 40  1  0
 14 41  1  0
 14 42  1  0
 16 43  1  0
 17 44  1  0
 22 45  1  0
 22 46  1  0
 23 47  1  0
 23 48  1  0
 24 49  1  0
 24 50  1  0
 25 51  1  0
 25 52  1  0
 26 53  1  0
 27 54  1  0
 28 55  1  0
M  END
>  <meeko>  (3) 
{"is_sidechain": [false], "free_energy": -8.833, "intermolecular_energy": -12.452, "internal_energy": -0.587}

$$$$
ligand_43_conformer_5_docked
     RDKit          3D

 55 58  0  0  0  0  0  0  0  0999 V2000
   10.3300   46.0730   51.9140 C   0  0  0  0  0  0  0  0  0  0  0  0
    9.6820   47.2040   52.7060 C   0  0  0  0  0  0  0  0  0  0  0  0
    8.1910   47.0890   52.6630 C   0  0  0  0  0  0  0  0  0  0  0  0
    7.3580   47.9570   53.2690 N   0  0  0  0  0  0  0  0  0  0  0  0
    6.1700   47.4800   53.0540 O   0  0  0  0  0  0  0  0  0  0  0  0
    6.2560   46.3710   52.3610 C   0  0  0  0  0  0  0  0  0  0  0  0
    5.0960   45.5540   51.9520 C   0  0  0  0  0  0  0  0  0  0  0  0
    3.8200   46.1240   51.8930 C   0  0  0  0  0  0  0  0  0  0  0  0
    2.7190   45.3520   51.5280 C   0  0  0  0  0  0  0  0  0  0  0  0
    2.8670   43.9890   51.2240 C   0  0  0  0  0  0  0  0  0  0  0  0
    1.6470   43.1820   50.8650 C   0  0  0  0  0  0  0  0  0  0  0  0
    4.1520   43.3970   51.2800 C   0  0  0  0  0  0  0  0  0  0  0  0
    4.3290   41.9900   50.9990 N   0  0  0  0  0  0  0  0  0  0  0  0
    5.4380   41.4460   50.2110 C   0  0  0  0  0  0  0  0  0  0  0  0
    5.0060   41.1850   48.7910 C   0  0  0  0  0  0  0  0  0  0  0  0
    5.7200   41.7480   47.7220 C   0  0  0  0  0  0  0  0  0  0  0  0
    5.2910   41.5510   46.4060 C   0  0  0  0  0  0  0  0  0  0  0  0
    4.1440   40.7880   46.1410 C   0  0  0  0  0  0  0  0  0  0  0  0
    3.6730   40.5900   44.7560 C   0  0  0  0  0  0  0  0  0  0  0  0
    2.5900   41.1280   44.3980 O   0  0  0  0  0  0  0  0  0  0  0  0
    4.4370   39.8260   43.8050 N   0  0  0  0  0  0  0  0  0  0  0  0
    3.9110   39.4480   42.5040 C   0  0  0  0  0  0  0  0  0  0  0  0
    5.0540   38.7380   41.7880 C   0  0  0  0  0  0  0  0  0  0  0  0
    6.3240   39.1400   42.5350 C   0  0  0  0  0  0  0  0  0  0  0  0
    5.8670   39.5730   43.9230 C   0  0  0  0  0  0  0  0  0  0  0  0
    3.4560   40.1870   47.2070 C   0  0  0  0  0  0  0  0  0  0  0  0
    3.8810   40.3870   48.5230 C   0  0  0  0  0  0  0  0  0  0  0  0
    5.2570   44.1980   51.6290 C   0  0  0  0  0  0  0  0  0  0  0  0
    7.5390   46.0610   52.0840 N   0  0  0  0  0  0  0  0  0  0  0  0
   10.7535   45.3338   52.6099 H   0  0  0  0  0  0  0  0  0  0  0  0
    9.5726   45.5882   51.2804 H   0  0  0  0  0  0  0  0  0  0  0  0
   11.1312   46.4812   51.2804 H   0  0  0  0  0  0  0  0  0  0  0  0
   10.0187   47.1522   53.7519 H   0  0  0  0  0  0  0  0  0  0  0  0
    9.9769   48.1648   52.2588 H   0  0  0  0  0  0  0  0  0  0  0  0
    3.6849   47.1882   52.1363 H   0  0  0  0  0  0  0  0  0  0  0  0
    1.7227   45.8154   51.4774 H   0  0  0  0  0  0  0  0  0  0  0  0
    1.1438   42.8492   51.7848 H   0  0  0  0  0  0  0  0  0  0  0  0
    0.9576   43.8028   50.2740 H   0  0  0  0  0  0  0  0  0  0  0  0
    1.9486   42.3046   50.2740 H   0  0  0  0  0  0  0  0  0  0  0  0
    3.6850   41.2910   51.4350 H   0  0  0  0  0  0  0  0  0  0  0  0
    6.2676   42.1683   50.2089 H   0  0  0  0  0  0  0  0  0  0  0  0
    5.7596   40.4960   50.6627 H   0  0  0  0  0  0  0  0  0  0  0  0
    6.6211   42.3469   47.9204 H   0  0  0  0  0  0  0  0  0  0  0  0
    5.8559   41.9967   45.5739 H   0  0  0  0  0  0  0  0  0  0  0  0
    3.0515   38.7713   42.6196 H   0  0  0  0  0  0  0  0  0  0  0  0
    3.5587   40.3232   41.9384 H   0  0  0  0  0  0  0  0  0  0  0  0
    4.9138   37.6477   41.8292 H   0  0  0  0  0  0  0  0  0  0  0  0
    5.1028   39.0176   40.7252 H   0  0  0  0  0  0  0  0  0  0  0  0
    7.0130   38.2856   42.6073 H   0  0  0  0  0  0  0  0  0  0  0  0
    6.8626   39.9461   42.0152 H   0  0  0  0  0  0  0  0  0  0  0  0
    6.0563   38.7747   44.6557 H   0  0  0  0  0  0  0  0  0  0  0  0
    6.4102   40.4644   44.2701 H   0  0  0  0  0  0  0  0  0  0  0  0
    2.5781   39.5556   47.0053 H   0  0  0  0  0  0  0  0  0  0  0  0
    3.3324   39.9176   49.3529 H   0  0  0  0  0  0  0  0  0  0  0  0
    6.2628   43.7531   51.6486 H   0  0  0  0  0  0  0  0  0  0  0  0
  1  2  1  0
  2  3  1  0
  3  4  2  0
  4  5  1  0
  5  6  1  0
  6  7  1  0
  7  8  2  0
  8  9  1  0
  9 10  2  0
 10 11  1  0
 10 12  1  0
 12 13  1  0
 13 14  1  0
 14 15  1  0
 15 16  2  0
 16 17  1  0
 17 18  2  0
 18 19  1  0
 19 20  2  0
 19 21  1  0
 21 22  1  0
 22 23  1  0
 23 24  1  0
 24 25  1  0
 18 26  1  0
 26 27  2  0
 12 28  2  0
  6 29  2  0
 29  3  1  0
 28  7  1  0
 27 15  1  0
 25 21  1  0
  1 30  1  0
  1 31  1  0
  1 32  1  0
  2 33  1  0
  2 34  1  0
  8 35  1  0
  9 36  1  0
 11 37  1  0
 11 38  1  0
 11 39  1  0
 13 40  1  0
 14 41  1  0
 14 42  1  0
 16 43  1  0
 17 44  1  0
 22 45  1  0
 22 46  1  0
 23 47  1  0
 23 48  1  0
 24 49  1  0
 24 50  1  0
 25 51  1  0
 25 52  1  0
 26 53  1  0
 27 54  1  0
 28 55  1  0
M  END
>  <meeko>  (4) 
{"is_sidechain": [false], "free_energy": -8.639, "intermolecular_energy": -12.026, "internal_energy": -0.751}

$$$$
ligand_43_conformer_5_docked
     RDKit          3D

 55 58  0  0  0  0  0  0  0  0999 V2000
   10.0380   47.2230   54.5900 C   0  0  0  0  0  0  0  0  0  0  0  0
    9.8490   47.1930   53.0770 C   0  0  0  0  0  0  0  0  0  0  0  0
    8.4020   47.0330   52.7310 C   0  0  0  0  0  0  0  0  0  0  0  0
    7.5010   48.0310   52.8090 N   0  0  0  0  0  0  0  0  0  0  0  0
    6.3680   47.4800   52.4930 O   0  0  0  0  0  0  0  0  0  0  0  0
    6.5490   46.2070   52.2410 C   0  0  0  0  0  0  0  0  0  0  0  0
    5.4710   45.2710   51.8650 C   0  0  0  0  0  0  0  0  0  0  0  0
    4.1330   45.6160   52.0870 C   0  0  0  0  0  0  0  0  0  0  0  0
    3.1120   44.7270   51.7530 C   0  0  0  0  0  0  0  0  0  0  0  0
    3.4060   43.4700   51.2010 C   0  0  0  0  0  0  0  0  0  0  0  0
    2.2760   42.5270   50.8850 C   0  0  0  0  0  0  0  0  0  0  0  0
    4.7560   43.1070   50.9720 C   0  0  0  0  0  0  0  0  0  0  0  0
    5.0880   41.8080   50.4320 N   0  0  0  0  0  0  0  0  0  0  0  0
    5.9250   41.6050   49.2460 C   0  0  0  0  0  0  0  0  0  0  0  0
    5.0830   41.2210   48.0560 C   0  0  0  0  0  0  0  0  0  0  0  0
    3.9330   40.4350   48.2310 C   0  0  0  0  0  0  0  0  0  0  0  0
    3.1790   40.0340   47.1240 C   0  0  0  0  0  0  0  0  0  0  0  0
    3.5640   40.4130   45.8290 C   0  0  0  0  0  0  0  0  0  0  0  0
    2.7850   39.9770   44.6540 C   0  0  0  0  0  0  0  0  0  0  0  0
    2.9580   38.8110   44.2050 O   0  0  0  0  0  0  0  0  0  0  0  0
    1.8150   40.8410   44.0330 N   0  0  0  0  0  0  0  0  0  0  0  0
    1.1810   40.5200   42.7660 C   0  0  0  0  0  0  0  0  0  0  0  0
    0.1720   41.6350   42.5160 C   0  0  0  0  0  0  0  0  0  0  0  0
   -0.0500   42.3040   43.8710 C   0  0  0  0  0  0  0  0  0  0  0  0
    1.1830   41.9700   44.7020 C   0  0  0  0  0  0  0  0  0  0  0  0
    4.6880   41.2350   45.6580 C   0  0  0  0  0  0  0  0  0  0  0  0
    5.4450   41.6340   46.7630 C   0  0  0  0  0  0  0  0  0  0  0  0
    5.7730   44.0260   51.2950 C   0  0  0  0  0  0  0  0  0  0  0  0
    7.8440   45.8550   52.3860 N   0  0  0  0  0  0  0  0  0  0  0  0
    9.0673   47.0689   55.0839 H   0  0  0  0  0  0  0  0  0  0  0  0
   10.7323   46.4238   54.8887 H   0  0  0  0  0  0  0  0  0  0  0  0
   10.4507   48.1979   54.8887 H   0  0  0  0  0  0  0  0  0  0  0  0
   10.2217   48.1345   52.6472 H   0  0  0  0  0  0  0  0  0  0  0  0
   10.4087   46.3398   52.6661 H   0  0  0  0  0  0  0  0  0  0  0  0
    3.8856   46.5933   52.5271 H   0  0  0  0  0  0  0  0  0  0  0  0
    2.0639   45.0139   51.9240 H   0  0  0  0  0  0  0  0  0  0  0  0
    1.8336   42.1578   51.8220 H   0  0  0  0  0  0  0  0  0  0  0  0
    1.5089   43.0566   50.3010 H   0  0  0  0  0  0  0  0  0  0  0  0
    2.6598   41.6775   50.3010 H   0  0  0  0  0  0  0  0  0  0  0  0
    4.7900   40.9450   50.9400 H   0  0  0  0  0  0  0  0  0  0  0  0
    6.4637   42.5373   49.0209 H   0  0  0  0  0  0  0  0  0  0  0  0
    6.6366   40.7918   49.4516 H   0  0  0  0  0  0  0  0  0  0  0  0
    3.6240   40.1335   49.2428 H   0  0  0  0  0  0  0  0  0  0  0  0
    2.2792   39.4181   47.2690 H   0  0  0  0  0  0  0  0  0  0  0  0
    1.9284   40.4911   41.9595 H   0  0  0  0  0  0  0  0  0  0  0  0
    0.6969   39.5326   42.7927 H   0  0  0  0  0  0  0  0  0  0  0  0
    0.5728   42.3595   41.7918 H   0  0  0  0  0  0  0  0  0  0  0  0
   -0.7676   41.2455   42.0971 H   0  0  0  0  0  0  0  0  0  0  0  0
   -0.1475   43.3929   43.7498 H   0  0  0  0  0  0  0  0  0  0  0  0
   -0.9730   41.9492   44.3529 H   0  0  0  0  0  0  0  0  0  0  0  0
    1.8685   42.8297   44.7338 H   0  0  0  0  0  0  0  0  0  0  0  0
    0.9186   41.7294   45.7423 H   0  0  0  0  0  0  0  0  0  0  0  0
    4.9749   41.5671   44.6493 H   0  0  0  0  0  0  0  0  0  0  0  0
    6.3280   42.2741   46.6196 H   0  0  0  0  0  0  0  0  0  0  0  0
    6.8224   43.7626   51.0967 H   0  0  0  0  0  0  0  0  0  0  0  0
  1  2  1  0
  2  3  1  0
  3  4  2  0
  4  5  1  0
  5  6  1  0
  6  7  1  0
  7  8  2  0
  8  9  1  0
  9 10  2  0
 10 11  1  0
 10 12  1  0
 12 13  1  0
 13 14  1  0
 14 15  1  0
 15 16  2  0
 16 17  1  0
 17 18  2  0
 18 19  1  0
 19 20  2  0
 19 21  1  0
 21 22  1  0
 22 23  1  0
 23 24  1  0
 24 25  1  0
 18 26  1  0
 26 27  2  0
 12 28  2  0
  6 29  2  0
 29  3  1  0
 28  7  1  0
 27 15  1  0
 25 21  1  0
  1 30  1  0
  1 31  1  0
  1 32  1  0
  2 33  1  0
  2 34  1  0
  8 35  1  0
  9 36  1  0
 11 37  1  0
 11 38  1  0
 11 39  1  0
 13 40  1  0
 14 41  1  0
 14 42  1  0
 16 43  1  0
 17 44  1  0
 22 45  1  0
 22 46  1  0
 23 47  1  0
 23 48  1  0
 24 49  1  0
 24 50  1  0
 25 51  1  0
 25 52  1  0
 26 53  1  0
 27 54  1  0
 28 55  1  0
M  END
>  <meeko>  (5) 
{"is_sidechain": [false], "free_energy": -8.624, "intermolecular_energy": -11.715, "internal_energy": -1.042}

$$$$
