ligand_77_conformer_3_docked
     RDKit          3D

 42 45  0  0  0  0  0  0  0  0999 V2000
    4.3380   45.9370   50.5090 O   0  0  0  0  0  0  0  0  0  0  0  0
    4.6840   45.0310   51.3170 C   0  0  0  0  0  0  0  0  0  0  0  0
    6.0550   44.6050   51.3710 N   0  0  0  0  0  0  0  0  0  0  0  0
    7.1210   45.3340   50.6770 C   0  0  1  0  0  0  0  0  0  0  0  0
    7.8630   46.2210   51.6510 C   0  0  0  0  0  0  0  0  0  0  0  0
    9.2450   46.0720   51.8410 C   0  0  0  0  0  0  0  0  0  0  0  0
    9.9180   46.8820   52.7570 C   0  0  0  0  0  0  0  0  0  0  0  0
    9.2010   47.8340   53.4830 C   0  0  0  0  0  0  0  0  0  0  0  0
    7.8600   47.9620   53.3010 N   0  0  0  0  0  0  0  0  0  0  0  0
    7.1820   47.1860   52.4140 C   0  0  0  0  0  0  0  0  0  0  0  0
    8.1110   44.3420   50.0390 C   0  0  0  0  0  0  0  0  0  0  0  0
    7.4850   43.0890   49.4460 C   0  0  0  0  0  0  0  0  0  0  0  0
    8.0070   44.1850   48.5290 C   0  0  0  0  0  0  0  0  0  0  0  0
    3.6620   44.4250   52.1880 C   0  0  0  0  0  0  0  0  0  0  0  0
    2.7820   45.0890   53.0250 C   0  0  0  0  0  0  0  0  0  0  0  0
    2.0220   44.0810   53.5950 C   0  0  0  0  0  0  0  0  0  0  0  0
    0.9150   44.2520   54.5700 C   0  0  0  0  0  0  0  0  0  0  0  0
   -0.3660   43.7270   54.3040 C   0  0  0  0  0  0  0  0  0  0  0  0
   -1.4080   43.8990   55.2220 C   0  0  0  0  0  0  0  0  0  0  0  0
   -1.1860   44.5920   56.4140 C   0  0  0  0  0  0  0  0  0  0  0  0
    0.0790   45.1120   56.6920 C   0  0  0  0  0  0  0  0  0  0  0  0
    1.1240   44.9440   55.7790 C   0  0  0  0  0  0  0  0  0  0  0  0
    2.4460   42.8960   53.1050 N   0  0  0  0  0  0  0  0  0  0  0  0
    3.4350   43.0990   52.2510 N   0  0  0  0  0  0  0  0  0  0  0  0
    6.3040   43.7570   51.9290 H   0  0  0  0  0  0  0  0  0  0  0  0
    6.6664   45.9544   49.8906 H   0  0  0  0  0  0  0  0  0  0  0  0
    9.7994   45.3151   51.2668 H   0  0  0  0  0  0  0  0  0  0  0  0
   11.0023   46.7711   52.9051 H   0  0  0  0  0  0  0  0  0  0  0  0
    9.7217   48.4818   54.2036 H   0  0  0  0  0  0  0  0  0  0  0  0
    6.0962   47.3136   52.2928 H   0  0  0  0  0  0  0  0  0  0  0  0
    8.9294   44.5481   50.7445 H   0  0  0  0  0  0  0  0  0  0  0  0
    8.0143   42.1268   49.5097 H   0  0  0  0  0  0  0  0  0  0  0  0
    6.5236   42.5682   49.5665 H   0  0  0  0  0  0  0  0  0  0  0  0
    8.9138   44.0154   47.9299 H   0  0  0  0  0  0  0  0  0  0  0  0
    7.5796   44.7850   47.7121 H   0  0  0  0  0  0  0  0  0  0  0  0
    2.7039   46.1724   53.1983 H   0  0  0  0  0  0  0  0  0  0  0  0
   -0.5477   43.1782   53.3681 H   0  0  0  0  0  0  0  0  0  0  0  0
   -2.4045   43.4873   55.0042 H   0  0  0  0  0  0  0  0  0  0  0  0
   -2.0073   44.7279   57.1330 H   0  0  0  0  0  0  0  0  0  0  0  0
    0.2541   45.6555   57.6322 H   0  0  0  0  0  0  0  0  0  0  0  0
    2.1183   45.3558   56.0066 H   0  0  0  0  0  0  0  0  0  0  0  0
    2.0600   41.9520   53.3210 H   0  0  0  0  0  0  0  0  0  0  0  0
  1  2  2  0
  2  3  1  0
  3  4  1  0
  4  5  1  0
  5  6  2  0
  6  7  1  0
  7  8  2  0
  8  9  1  0
  9 10  2  0
  4 11  1  0
 11 12  1  0
 12 13  1  0
  2 14  1  0
 14 15  1  0
 15 16  2  0
 16 17  1  0
 17 18  2  0
 18 19  1  0
 19 20  2  0
 20 21  1  0
 21 22  2  0
 16 23  1  0
 23 24  1  0
 10  5  1  0
 13 11  1  0
 24 14  2  0
 22 17  1  0
  3 25  1  0
  4 26  1  6
  6 27  1  0
  7 28  1  0
  8 29  1  0
 10 30  1  0
 11 31  1  0
 12 32  1  0
 12 33  1  0
 13 34  1  0
 13 35  1  0
 15 36  1  0
 18 37  1  0
 19 38  1  0
 20 39  1  0
 21 40  1  0
 22 41  1  0
 23 42  1  0
M  END
>  <meeko>  (1) 
{"is_sidechain": [false], "free_energy": -8.642, "intermolecular_energy": -11.168, "internal_energy": -0.792}

$$$$
ligand_77_conformer_3_docked
     RDKit          3D

 42 45  0  0  0  0  0  0  0  0999 V2000
    3.0810   42.5810   52.5290 O   0  0  0  0  0  0  0  0  0  0  0  0
    3.0640   43.8420   52.5150 C   0  0  0  0  0  0  0  0  0  0  0  0
    1.8600   44.5460   52.8610 N   0  0  0  0  0  0  0  0  0  0  0  0
    0.7040   43.8600   53.4480 C   0  0  1  0  0  0  0  0  0  0  0  0
    0.3390   44.4940   54.7720 C   0  0  0  0  0  0  0  0  0  0  0  0
   -0.9970   44.5420   55.1950 C   0  0  0  0  0  0  0  0  0  0  0  0
   -1.3260   45.1470   56.4100 C   0  0  0  0  0  0  0  0  0  0  0  0
   -0.3130   45.7070   57.1910 C   0  0  0  0  0  0  0  0  0  0  0  0
    0.9780   45.6650   56.7650 N   0  0  0  0  0  0  0  0  0  0  0  0
    1.3230   45.0810   55.5870 C   0  0  0  0  0  0  0  0  0  0  0  0
   -0.5030   43.9490   52.4940 C   0  0  0  0  0  0  0  0  0  0  0  0
   -0.2390   43.4930   51.0680 C   0  0  0  0  0  0  0  0  0  0  0  0
   -1.0580   42.6190   52.0060 C   0  0  0  0  0  0  0  0  0  0  0  0
    4.2880   44.5680   52.1340 C   0  0  0  0  0  0  0  0  0  0  0  0
    5.3300   44.9350   52.9660 C   0  0  0  0  0  0  0  0  0  0  0  0
    6.2360   45.5620   52.1270 C   0  0  0  0  0  0  0  0  0  0  0  0
    7.5480   46.1410   52.5160 C   0  0  0  0  0  0  0  0  0  0  0  0
    8.6320   46.1380   51.6150 C   0  0  0  0  0  0  0  0  0  0  0  0
    9.8680   46.6760   51.9900 C   0  0  0  0  0  0  0  0  0  0  0  0
   10.0370   47.2250   53.2620 C   0  0  0  0  0  0  0  0  0  0  0  0
    8.9700   47.2390   54.1620 C   0  0  0  0  0  0  0  0  0  0  0  0
    7.7330   46.7020   53.7940 C   0  0  0  0  0  0  0  0  0  0  0  0
    5.7360   45.5520   50.8730 N   0  0  0  0  0  0  0  0  0  0  0  0
    4.5590   44.9490   50.8700 N   0  0  0  0  0  0  0  0  0  0  0  0
    1.8070   45.5770   52.7030 H   0  0  0  0  0  0  0  0  0  0  0  0
    0.9682   42.8044   53.6089 H   0  0  0  0  0  0  0  0  0  0  0  0
   -1.7873   44.1024   54.5688 H   0  0  0  0  0  0  0  0  0  0  0  0
   -2.3721   45.1820   56.7482 H   0  0  0  0  0  0  0  0  0  0  0  0
   -0.5593   46.1826   58.1518 H   0  0  0  0  0  0  0  0  0  0  0  0
    2.3763   45.0676   55.2700 H   0  0  0  0  0  0  0  0  0  0  0  0
   -0.9346   44.8469   52.9603 H   0  0  0  0  0  0  0  0  0  0  0  0
   -0.7283   44.0062   50.2271 H   0  0  0  0  0  0  0  0  0  0  0  0
    0.6609   43.3436   50.4534 H   0  0  0  0  0  0  0  0  0  0  0  0
   -2.1395   42.5005   51.8436 H   0  0  0  0  0  0  0  0  0  0  0  0
   -0.9957   41.5763   52.3508 H   0  0  0  0  0  0  0  0  0  0  0  0
    5.4190   44.7669   54.0494 H   0  0  0  0  0  0  0  0  0  0  0  0
    8.5053   45.7096   50.6098 H   0  0  0  0  0  0  0  0  0  0  0  0
   10.7086   46.6662   51.2805 H   0  0  0  0  0  0  0  0  0  0  0  0
   11.0100   47.6462   53.5550 H   0  0  0  0  0  0  0  0  0  0  0  0
    9.1030   47.6738   55.1636 H   0  0  0  0  0  0  0  0  0  0  0  0
    6.8971   46.7179   54.5089 H   0  0  0  0  0  0  0  0  0  0  0  0
    6.1900   45.9260   50.0110 H   0  0  0  0  0  0  0  0  0  0  0  0
  1  2  2  0
  2  3  1  0
  3  4  1  0
  4  5  1  0
  5  6  2  0
  6  7  1  0
  7  8  2  0
  8  9  1  0
  9 10  2  0
  4 11  1  0
 11 12  1  0
 12 13  1  0
  2 14  1  0
 14 15  1  0
 15 16  2  0
 16 17  1  0
 17 18  2  0
 18 19  1  0
 19 20  2  0
 20 21  1  0
 21 22  2  0
 16 23  1  0
 23 24  1  0
 10  5  1  0
 13 11  1  0
 24 14  2  0
 22 17  1  0
  3 25  1  0
  4 26  1  1
  6 27  1  0
  7 28  1  0
  8 29  1  0
 10 30  1  0
 11 31  1  0
 12 32  1  0
 12 33  1  0
 13 34  1  0
 13 35  1  0
 15 36  1  0
 18 37  1  0
 19 38  1  0
 20 39  1  0
 21 40  1  0
 22 41  1  0
 23 42  1  0
M  END
>  <meeko>  (2) 
{"is_sidechain": [false], "free_energy": -8.179, "intermolecular_energy": -10.475, "internal_energy": -0.886}

$$$$
ligand_77_conformer_3_docked
     RDKit          3D

 42 45  0  0  0  0  0  0  0  0999 V2000
    3.7350   46.9470   52.1700 O   0  0  0  0  0  0  0  0  0  0  0  0
    4.0550   46.0870   53.0360 C   0  0  0  0  0  0  0  0  0  0  0  0
    5.3550   45.4760   52.9910 N   0  0  0  0  0  0  0  0  0  0  0  0
    6.4150   45.9720   52.1080 C   0  0  1  0  0  0  0  0  0  0  0  0
    7.5560   46.5310   52.9270 C   0  0  0  0  0  0  0  0  0  0  0  0
    8.8680   46.5120   52.4290 C   0  0  0  0  0  0  0  0  0  0  0  0
    9.9180   47.0120   53.2020 C   0  0  0  0  0  0  0  0  0  0  0  0
    9.6480   47.5220   54.4730 C   0  0  0  0  0  0  0  0  0  0  0  0
    8.3750   47.5240   54.9510 N   0  0  0  0  0  0  0  0  0  0  0  0
    7.3360   47.0440   54.2180 C   0  0  0  0  0  0  0  0  0  0  0  0
    6.9400   44.8290   51.2200 C   0  0  0  0  0  0  0  0  0  0  0  0
    5.8780   44.0690   50.4410 C   0  0  0  0  0  0  0  0  0  0  0  0
    6.7990   45.0400   49.7200 C   0  0  0  0  0  0  0  0  0  0  0  0
    3.0770   45.7230   54.0750 C   0  0  0  0  0  0  0  0  0  0  0  0
    1.7320   45.4520   53.8920 C   0  0  0  0  0  0  0  0  0  0  0  0
    1.2690   45.1420   55.1610 C   0  0  0  0  0  0  0  0  0  0  0  0
   -0.1200   44.7610   55.5260 C   0  0  0  0  0  0  0  0  0  0  0  0
   -0.6000   44.9590   56.8360 C   0  0  0  0  0  0  0  0  0  0  0  0
   -1.9050   44.5890   57.1780 C   0  0  0  0  0  0  0  0  0  0  0  0
   -2.7470   44.0220   56.2190 C   0  0  0  0  0  0  0  0  0  0  0  0
   -2.2870   43.8260   54.9160 C   0  0  0  0  0  0  0  0  0  0  0  0
   -0.9830   44.1920   54.5690 C   0  0  0  0  0  0  0  0  0  0  0  0
    2.3000   45.2300   56.0270 N   0  0  0  0  0  0  0  0  0  0  0  0
    3.3970   45.5770   55.3750 N   0  0  0  0  0  0  0  0  0  0  0  0
    5.5570   44.6610   53.6140 H   0  0  0  0  0  0  0  0  0  0  0  0
    5.9979   46.7675   51.4731 H   0  0  0  0  0  0  0  0  0  0  0  0
    9.0695   46.1026   51.4281 H   0  0  0  0  0  0  0  0  0  0  0  0
   10.9470   47.0040   52.8134 H   0  0  0  0  0  0  0  0  0  0  0  0
   10.4664   47.9230   55.0890 H   0  0  0  0  0  0  0  0  0  0  0  0
    6.3187   47.0568   54.6362 H   0  0  0  0  0  0  0  0  0  0  0  0
    7.7654   44.5510   51.8919 H   0  0  0  0  0  0  0  0  0  0  0  0
    5.9846   42.9863   50.2785 H   0  0  0  0  0  0  0  0  0  0  0  0
    4.7879   43.9490   50.5264 H   0  0  0  0  0  0  0  0  0  0  0  0
    7.5721   44.6599   49.0360 H   0  0  0  0  0  0  0  0  0  0  0  0
    6.6515   45.9134   49.0678 H   0  0  0  0  0  0  0  0  0  0  0  0
    1.1603   45.4770   52.9525 H   0  0  0  0  0  0  0  0  0  0  0  0
    0.0567   45.4081   57.5957 H   0  0  0  0  0  0  0  0  0  0  0  0
   -2.2686   44.7450   58.2044 H   0  0  0  0  0  0  0  0  0  0  0  0
   -3.7722   43.7300   56.4904 H   0  0  0  0  0  0  0  0  0  0  0  0
   -2.9519   43.3825   54.1602 H   0  0  0  0  0  0  0  0  0  0  0  0
   -0.6279   44.0343   53.5399 H   0  0  0  0  0  0  0  0  0  0  0  0
    2.2800   45.0340   57.0510 H   0  0  0  0  0  0  0  0  0  0  0  0
  1  2  2  0
  2  3  1  0
  3  4  1  0
  4  5  1  0
  5  6  2  0
  6  7  1  0
  7  8  2  0
  8  9  1  0
  9 10  2  0
  4 11  1  0
 11 12  1  0
 12 13  1  0
  2 14  1  0
 14 15  1  0
 15 16  2  0
 16 17  1  0
 17 18  2  0
 18 19  1  0
 19 20  2  0
 20 21  1  0
 21 22  2  0
 16 23  1  0
 23 24  1  0
 10  5  1  0
 13 11  1  0
 24 14  2  0
 22 17  1  0
  3 25  1  0
  4 26  1  6
  6 27  1  0
  7 28  1  0
  8 29  1  0
 10 30  1  0
 11 31  1  0
 12 32  1  0
 12 33  1  0
 13 34  1  0
 13 35  1  0
 15 36  1  0
 18 37  1  0
 19 38  1  0
 20 39  1  0
 21 40  1  0
 22 41  1  0
 23 42  1  0
M  END
>  <meeko>  (3) 
{"is_sidechain": [false], "free_energy": -8.177, "intermolecular_energy": -10.502, "internal_energy": -0.857}

$$$$
ligand_77_conformer_3_docked
     RDKit          3D

 42 45  0  0  0  0  0  0  0  0999 V2000
    1.7050   46.8140   52.5270 O   0  0  0  0  0  0  0  0  0  0  0  0
    2.5520   46.1930   53.2260 C   0  0  0  0  0  0  0  0  0  0  0  0
    2.1380   45.5330   54.4340 N   0  0  0  0  0  0  0  0  0  0  0  0
    0.7220   45.3630   54.7770 C   0  0  1  0  0  0  0  0  0  0  0  0
    0.1030   44.2870   53.9140 C   0  0  0  0  0  0  0  0  0  0  0  0
    0.7080   43.0260   53.8020 C   0  0  0  0  0  0  0  0  0  0  0  0
    0.1390   42.0460   52.9870 C   0  0  0  0  0  0  0  0  0  0  0  0
   -1.0300   42.3370   52.2830 C   0  0  0  0  0  0  0  0  0  0  0  0
   -1.6010   43.5660   52.3880 N   0  0  0  0  0  0  0  0  0  0  0  0
   -1.0670   44.5380   53.1760 C   0  0  0  0  0  0  0  0  0  0  0  0
    0.5830   44.9670   56.2590 C   0  0  0  0  0  0  0  0  0  0  0  0
    0.9540   46.0510   57.2600 C   0  0  0  0  0  0  0  0  0  0  0  0
   -0.5070   45.6910   57.0350 C   0  0  0  0  0  0  0  0  0  0  0  0
    3.9570   46.1660   52.7860 C   0  0  0  0  0  0  0  0  0  0  0  0
    5.0610   46.6060   53.4960 C   0  0  0  0  0  0  0  0  0  0  0  0
    6.1350   46.3380   52.6630 C   0  0  0  0  0  0  0  0  0  0  0  0
    7.5670   46.6090   52.9520 C   0  0  0  0  0  0  0  0  0  0  0  0
    8.5530   46.3880   51.9710 C   0  0  0  0  0  0  0  0  0  0  0  0
    9.9020   46.6360   52.2520 C   0  0  0  0  0  0  0  0  0  0  0  0
   10.2810   47.1080   53.5100 C   0  0  0  0  0  0  0  0  0  0  0  0
    9.3130   47.3360   54.4890 C   0  0  0  0  0  0  0  0  0  0  0  0
    7.9650   47.0900   54.2150 C   0  0  0  0  0  0  0  0  0  0  0  0
    5.6680   45.7710   51.5310 N   0  0  0  0  0  0  0  0  0  0  0  0
    4.3520   45.6600   51.6010 N   0  0  0  0  0  0  0  0  0  0  0  0
    2.8640   45.1520   55.0820 H   0  0  0  0  0  0  0  0  0  0  0  0
    0.2017   46.3160   54.6010 H   0  0  0  0  0  0  0  0  0  0  0  0
    1.6324   42.8093   54.3575 H   0  0  0  0  0  0  0  0  0  0  0  0
    0.6074   41.0545   52.9006 H   0  0  0  0  0  0  0  0  0  0  0  0
   -1.4902   41.5706   51.6420 H   0  0  0  0  0  0  0  0  0  0  0  0
   -1.5522   45.5234   53.2359 H   0  0  0  0  0  0  0  0  0  0  0  0
    0.8617   43.9135   56.1090 H   0  0  0  0  0  0  0  0  0  0  0  0
    1.4477   45.7811   58.2052 H   0  0  0  0  0  0  0  0  0  0  0  0
    1.5415   46.9800   57.2184 H   0  0  0  0  0  0  0  0  0  0  0  0
   -1.0696   45.1609   57.8176 H   0  0  0  0  0  0  0  0  0  0  0  0
   -1.4134   46.2520   56.7634 H   0  0  0  0  0  0  0  0  0  0  0  0
    5.0809   47.0647   54.4956 H   0  0  0  0  0  0  0  0  0  0  0  0
    8.2612   46.0180   50.9771 H   0  0  0  0  0  0  0  0  0  0  0  0
   10.6650   46.4585   51.4798 H   0  0  0  0  0  0  0  0  0  0  0  0
   11.3417   47.3000   53.7293 H   0  0  0  0  0  0  0  0  0  0  0  0
    9.6119   47.7104   55.4792 H   0  0  0  0  0  0  0  0  0  0  0  0
    7.2082   47.2734   54.9920 H   0  0  0  0  0  0  0  0  0  0  0  0
    6.2290   45.4330   50.7190 H   0  0  0  0  0  0  0  0  0  0  0  0
  1  2  2  0
  2  3  1  0
  3  4  1  0
  4  5  1  0
  5  6  2  0
  6  7  1  0
  7  8  2  0
  8  9  1  0
  9 10  2  0
  4 11  1  0
 11 12  1  0
 12 13  1  0
  2 14  1  0
 14 15  1  0
 15 16  2  0
 16 17  1  0
 17 18  2  0
 18 19  1  0
 19 20  2  0
 20 21  1  0
 21 22  2  0
 16 23  1  0
 23 24  1  0
 10  5  1  0
 13 11  1  0
 24 14  2  0
 22 17  1  0
  3 25  1  0
  4 26  1  1
  6 27  1  0
  7 28  1  0
  8 29  1  0
 10 30  1  0
 11 31  1  0
 12 32  1  0
 12 33  1  0
 13 34  1  0
 13 35  1  0
 15 36  1  0
 18 37  1  0
 19 38  1  0
 20 39  1  0
 21 40  1  0
 22 41  1  0
 23 42  1  0
M  END
>  <meeko>  (4) 
{"is_sidechain": [false], "free_energy": -8.104, "intermolecular_energy": -10.539, "internal_energy": -0.727}

$$$$
ligand_77_conformer_3_docked
     RDKit          3D

 42 45  0  0  0  0  0  0  0  0999 V2000
    5.8360   44.8440   54.1440 O   0  0  0  0  0  0  0  0  0  0  0  0
    5.1610   45.5030   53.3060 C   0  0  0  0  0  0  0  0  0  0  0  0
    5.8190   46.1320   52.1940 N   0  0  0  0  0  0  0  0  0  0  0  0
    7.2210   45.8550   51.8660 C   0  0  1  0  0  0  0  0  0  0  0  0
    7.3040   44.8850   50.7100 C   0  0  0  0  0  0  0  0  0  0  0  0
    6.2260   44.0360   50.4120 C   0  0  0  0  0  0  0  0  0  0  0  0
    6.3200   43.1300   49.3550 C   0  0  0  0  0  0  0  0  0  0  0  0
    7.4960   43.0730   48.6050 C   0  0  0  0  0  0  0  0  0  0  0  0
    8.5390   43.8910   48.9100 N   0  0  0  0  0  0  0  0  0  0  0  0
    8.4720   44.7830   49.9340 C   0  0  0  0  0  0  0  0  0  0  0  0
    7.9410   47.1620   51.4830 C   0  0  0  0  0  0  0  0  0  0  0  0
    7.8610   48.2750   52.5160 C   0  0  0  0  0  0  0  0  0  0  0  0
    9.1620   47.5120   52.3210 C   0  0  0  0  0  0  0  0  0  0  0  0
    3.7050   45.6180   53.4950 C   0  0  0  0  0  0  0  0  0  0  0  0
    2.9280   44.9310   54.4120 C   0  0  0  0  0  0  0  0  0  0  0  0
    1.6460   45.4110   54.2040 C   0  0  0  0  0  0  0  0  0  0  0  0
    0.4200   45.0080   54.9410 C   0  0  0  0  0  0  0  0  0  0  0  0
    0.2350   45.3790   56.2880 C   0  0  0  0  0  0  0  0  0  0  0  0
   -0.9170   44.9890   56.9800 C   0  0  0  0  0  0  0  0  0  0  0  0
   -1.8960   44.2270   56.3390 C   0  0  0  0  0  0  0  0  0  0  0  0
   -1.7270   43.8570   55.0040 C   0  0  0  0  0  0  0  0  0  0  0  0
   -0.5790   44.2430   54.3070 C   0  0  0  0  0  0  0  0  0  0  0  0
    1.6870   46.3300   53.2170 N   0  0  0  0  0  0  0  0  0  0  0  0
    2.9310   46.4630   52.7870 N   0  0  0  0  0  0  0  0  0  0  0  0
    5.2820   46.7960   51.5930 H   0  0  0  0  0  0  0  0  0  0  0  0
    7.7060   45.4129   52.7488 H   0  0  0  0  0  0  0  0  0  0  0  0
    5.3059   44.0852   51.0128 H   0  0  0  0  0  0  0  0  0  0  0  0
    5.4756   42.4671   49.1150 H   0  0  0  0  0  0  0  0  0  0  0  0
    7.5792   42.3659   47.7665 H   0  0  0  0  0  0  0  0  0  0  0  0
    9.3352   45.4276   50.1562 H   0  0  0  0  0  0  0  0  0  0  0  0
    7.7352   47.0793   50.4056 H   0  0  0  0  0  0  0  0  0  0  0  0
    7.7840   49.3229   52.1904 H   0  0  0  0  0  0  0  0  0  0  0  0
    7.2090   48.4936   53.3745 H   0  0  0  0  0  0  0  0  0  0  0  0
   10.0258   48.0078   51.8541 H   0  0  0  0  0  0  0  0  0  0  0  0
    9.8406   46.9501   52.9796 H   0  0  0  0  0  0  0  0  0  0  0  0
    3.2551   44.1749   55.1409 H   0  0  0  0  0  0  0  0  0  0  0  0
    1.0019   45.9796   56.7991 H   0  0  0  0  0  0  0  0  0  0  0  0
   -1.0517   45.2833   58.0313 H   0  0  0  0  0  0  0  0  0  0  0  0
   -2.7994   43.9187   56.8857 H   0  0  0  0  0  0  0  0  0  0  0  0
   -2.5001   43.2595   54.4987 H   0  0  0  0  0  0  0  0  0  0  0  0
   -0.4542   43.9472   53.2549 H   0  0  0  0  0  0  0  0  0  0  0  0
    0.8900   46.8910   52.8440 H   0  0  0  0  0  0  0  0  0  0  0  0
  1  2  2  0
  2  3  1  0
  3  4  1  0
  4  5  1  0
  5  6  2  0
  6  7  1  0
  7  8  2  0
  8  9  1  0
  9 10  2  0
  4 11  1  0
 11 12  1  0
 12 13  1  0
  2 14  1  0
 14 15  1  0
 15 16  2  0
 16 17  1  0
 17 18  2  0
 18 19  1  0
 19 20  2  0
 20 21  1  0
 21 22  2  0
 16 23  1  0
 23 24  1  0
 10  5  1  0
 13 11  1  0
 24 14  2  0
 22 17  1  0
  3 25  1  0
  4 26  1  1
  6 27  1  0
  7 28  1  0
  8 29  1  0
 10 30  1  0
 11 31  1  0
 12 32  1  0
 12 33  1  0
 13 34  1  0
 13 35  1  0
 15 36  1  0
 18 37  1  0
 19 38  1  0
 20 39  1  0
 21 40  1  0
 22 41  1  0
 23 42  1  0
M  END
>  <meeko>  (5) 
{"is_sidechain": [false], "free_energy": -8.021, "intermolecular_energy": -10.504, "internal_energy": -0.653}

$$$$
