ligand_79_conformer_1_docked
     RDKit          3D

 45 47  0  0  0  0  0  0  0  0999 V2000
    4.5680   47.5390   53.9920 C   0  0  0  0  0  0  0  0  0  0  0  0
    4.6820   46.6810   52.7250 C   0  0  2  0  0  0  0  0  0  0  0  0
    4.0170   45.3410   52.9040 C   0  0  0  0  0  0  0  0  0  0  0  0
    4.1770   44.7200   53.9890 O   0  0  0  0  0  0  0  0  0  0  0  0
    3.2100   44.7720   51.8600 N   0  0  0  0  0  0  0  0  0  0  0  0
    2.5330   43.4710   51.9840 C   0  0  0  0  0  0  0  0  0  0  0  0
    3.5220   42.2860   52.1240 C   0  0  0  0  0  0  0  0  0  0  0  0
    4.2940   42.0320   50.8510 C   0  0  0  0  0  0  0  0  0  0  0  0
    5.4650   42.7600   50.5760 C   0  0  0  0  0  0  0  0  0  0  0  0
    6.1840   42.5230   49.4010 C   0  0  0  0  0  0  0  0  0  0  0  0
    5.7500   41.5480   48.4990 C   0  0  0  0  0  0  0  0  0  0  0  0
    4.5890   40.8180   48.7650 C   0  0  0  0  0  0  0  0  0  0  0  0
    3.8610   41.0600   49.9340 C   0  0  0  0  0  0  0  0  0  0  0  0
    1.4190   43.4860   53.0430 C   0  0  0  0  0  0  0  0  0  0  0  0
    0.3770   43.2860   51.9510 C   0  0  0  0  0  0  0  0  0  0  0  0
    1.4720   43.2630   50.8950 C   0  0  0  0  0  0  0  0  0  0  0  0
    6.0760   46.5140   52.3010 N   0  0  0  0  0  0  0  0  0  0  0  0
    6.5250   46.0670   51.1070 C   0  0  0  0  0  0  0  0  0  0  0  0
    7.9030   46.0980   51.1160 C   0  0  0  0  0  0  0  0  0  0  0  0
    8.2280   46.6040   52.3600 C   0  0  0  0  0  0  0  0  0  0  0  0
    9.6100   46.7760   52.9050 C   0  0  0  0  0  0  0  0  0  0  0  0
   10.5130   46.8180   51.8600 F   0  0  0  0  0  0  0  0  0  0  0  0
    9.6930   47.9520   53.6290 F   0  0  0  0  0  0  0  0  0  0  0  0
    9.9220   45.7150   53.7360 F   0  0  0  0  0  0  0  0  0  0  0  0
    7.1050   46.8420   53.0660 N   0  0  0  0  0  0  0  0  0  0  0  0
    4.6535   46.8951   54.8798 H   0  0  0  0  0  0  0  0  0  0  0  0
    5.3747   48.2868   54.0023 H   0  0  0  0  0  0  0  0  0  0  0  0
    3.5940   48.0502   54.0023 H   0  0  0  0  0  0  0  0  0  0  0  0
    4.1525   47.2218   51.9268 H   0  0  0  0  0  0  0  0  0  0  0  0
    3.0740   45.3210   50.9820 H   0  0  0  0  0  0  0  0  0  0  0  0
    4.2345   42.5130   52.9308 H   0  0  0  0  0  0  0  0  0  0  0  0
    2.9360   41.3826   52.3488 H   0  0  0  0  0  0  0  0  0  0  0  0
    5.8171   43.5199   51.2891 H   0  0  0  0  0  0  0  0  0  0  0  0
    7.0925   43.1047   49.1861 H   0  0  0  0  0  0  0  0  0  0  0  0
    6.3224   41.3553   47.5797 H   0  0  0  0  0  0  0  0  0  0  0  0
    4.2470   40.0517   48.0538 H   0  0  0  0  0  0  0  0  0  0  0  0
    2.9446   40.4863   50.1366 H   0  0  0  0  0  0  0  0  0  0  0  0
    1.4759   42.6591   53.7662 H   0  0  0  0  0  0  0  0  0  0  0  0
    1.3324   44.3262   53.7476 H   0  0  0  0  0  0  0  0  0  0  0  0
   -0.1837   42.3433   52.0348 H   0  0  0  0  0  0  0  0  0  0  0  0
   -0.4671   43.9851   51.8573 H   0  0  0  0  0  0  0  0  0  0  0  0
    1.5596   42.3055   50.3607 H   0  0  0  0  0  0  0  0  0  0  0  0
    1.4237   43.9411   50.0302 H   0  0  0  0  0  0  0  0  0  0  0  0
    5.8959   45.7341   50.2683 H   0  0  0  0  0  0  0  0  0  0  0  0
    8.5893   45.7894   50.3136 H   0  0  0  0  0  0  0  0  0  0  0  0
  1  2  1  0
  2  3  1  0
  3  4  2  0
  3  5  1  0
  5  6  1  0
  6  7  1  0
  7  8  1  0
  8  9  2  0
  9 10  1  0
 10 11  2  0
 11 12  1  0
 12 13  2  0
  6 14  1  0
 14 15  1  0
 15 16  1  0
  2 17  1  0
 17 18  1  0
 18 19  2  0
 19 20  1  0
 20 21  1  0
 21 22  1  0
 21 23  1  0
 21 24  1  0
 20 25  2  0
 16  6  1  0
 25 17  1  0
 13  8  1  0
  1 26  1  0
  1 27  1  0
  1 28  1  0
  2 29  1  6
  5 30  1  0
  7 31  1  0
  7 32  1  0
  9 33  1  0
 10 34  1  0
 11 35  1  0
 12 36  1  0
 13 37  1  0
 14 38  1  0
 14 39  1  0
 15 40  1  0
 15 41  1  0
 16 42  1  0
 16 43  1  0
 18 44  1  0
 19 45  1  0
M  END
>  <meeko>  (1) 
{"is_sidechain": [false], "free_energy": -8.985, "intermolecular_energy": -12.137, "internal_energy": -0.674}

$$$$
ligand_79_conformer_1_docked
     RDKit          3D

 45 47  0  0  0  0  0  0  0  0999 V2000
    3.9610   46.7190   55.3020 C   0  0  0  0  0  0  0  0  0  0  0  0
    4.6590   45.8720   54.2300 C   0  0  2  0  0  0  0  0  0  0  0  0
    5.8200   46.6100   53.6130 C   0  0  0  0  0  0  0  0  0  0  0  0
    5.6900   47.8340   53.3400 O   0  0  0  0  0  0  0  0  0  0  0  0
    7.0610   45.9380   53.3400 N   0  0  0  0  0  0  0  0  0  0  0  0
    8.2260   46.6120   52.7450 C   0  0  0  0  0  0  0  0  0  0  0  0
    8.1150   46.7700   51.2080 C   0  0  0  0  0  0  0  0  0  0  0  0
    7.6320   45.5070   50.5370 C   0  0  0  0  0  0  0  0  0  0  0  0
    8.5290   44.7050   49.8080 C   0  0  0  0  0  0  0  0  0  0  0  0
    8.0860   43.5330   49.1900 C   0  0  0  0  0  0  0  0  0  0  0  0
    6.7490   43.1420   49.3070 C   0  0  0  0  0  0  0  0  0  0  0  0
    5.8520   43.9300   50.0310 C   0  0  0  0  0  0  0  0  0  0  0  0
    6.2880   45.1100   50.6410 C   0  0  0  0  0  0  0  0  0  0  0  0
    8.5970   47.9080   53.4850 C   0  0  0  0  0  0  0  0  0  0  0  0
    9.9060   47.2760   53.9400 C   0  0  0  0  0  0  0  0  0  0  0  0
    9.5520   45.9900   53.2070 C   0  0  0  0  0  0  0  0  0  0  0  0
    3.7250   45.4210   53.1930 N   0  0  0  0  0  0  0  0  0  0  0  0
    2.9950   46.1880   52.3530 C   0  0  0  0  0  0  0  0  0  0  0  0
    2.2770   45.3610   51.5160 C   0  0  0  0  0  0  0  0  0  0  0  0
    2.6430   44.0840   51.8960 C   0  0  0  0  0  0  0  0  0  0  0  0
    2.0920   42.8090   51.3410 C   0  0  0  0  0  0  0  0  0  0  0  0
    1.2630   42.2220   52.2780 F   0  0  0  0  0  0  0  0  0  0  0  0
    1.3710   43.0650   50.1880 F   0  0  0  0  0  0  0  0  0  0  0  0
    3.1270   41.9420   51.0400 F   0  0  0  0  0  0  0  0  0  0  0  0
    3.5160   44.1430   52.9200 N   0  0  0  0  0  0  0  0  0  0  0  0
    4.2550   46.3622   56.3001 H   0  0  0  0  0  0  0  0  0  0  0  0
    4.2569   47.7722   55.1872 H   0  0  0  0  0  0  0  0  0  0  0  0
    2.8706   46.6299   55.1872 H   0  0  0  0  0  0  0  0  0  0  0  0
    5.0506   44.9785   54.7382 H   0  0  0  0  0  0  0  0  0  0  0  0
    7.1480   44.9310   53.6010 H   0  0  0  0  0  0  0  0  0  0  0  0
    7.4069   47.5819   50.9858 H   0  0  0  0  0  0  0  0  0  0  0  0
    9.1188   46.9957   50.8190 H   0  0  0  0  0  0  0  0  0  0  0  0
    9.5847   45.0023   49.7242 H   0  0  0  0  0  0  0  0  0  0  0  0
    8.7899   42.9173   48.6108 H   0  0  0  0  0  0  0  0  0  0  0  0
    6.4036   42.2136   48.8287 H   0  0  0  0  0  0  0  0  0  0  0  0
    4.8000   43.6217   50.1216 H   0  0  0  0  0  0  0  0  0  0  0  0
    5.5758   45.7304   51.2049 H   0  0  0  0  0  0  0  0  0  0  0  0
    8.7246   48.7799   52.8266 H   0  0  0  0  0  0  0  0  0  0  0  0
    7.9058   48.3458   54.2203 H   0  0  0  0  0  0  0  0  0  0  0  0
   10.8043   47.7791   53.5527 H   0  0  0  0  0  0  0  0  0  0  0  0
   10.1659   47.2502   55.0085 H   0  0  0  0  0  0  0  0  0  0  0  0
   10.2393   45.7383   52.3858 H   0  0  0  0  0  0  0  0  0  0  0  0
    9.5577   45.0278   53.7401 H   0  0  0  0  0  0  0  0  0  0  0  0
    2.9769   47.2878   52.3396 H   0  0  0  0  0  0  0  0  0  0  0  0
    1.5715   45.6521   50.7239 H   0  0  0  0  0  0  0  0  0  0  0  0
  1  2  1  0
  2  3  1  0
  3  4  2  0
  3  5  1  0
  5  6  1  0
  6  7  1  0
  7  8  1  0
  8  9  2  0
  9 10  1  0
 10 11  2  0
 11 12  1  0
 12 13  2  0
  6 14  1  0
 14 15  1  0
 15 16  1  0
  2 17  1  0
 17 18  1  0
 18 19  2  0
 19 20  1  0
 20 21  1  0
 21 22  1  0
 21 23  1  0
 21 24  1  0
 20 25  2  0
 16  6  1  0
 25 17  1  0
 13  8  1  0
  1 26  1  0
  1 27  1  0
  1 28  1  0
  2 29  1  1
  5 30  1  0
  7 31  1  0
  7 32  1  0
  9 33  1  0
 10 34  1  0
 11 35  1  0
 12 36  1  0
 13 37  1  0
 14 38  1  0
 14 39  1  0
 15 40  1  0
 15 41  1  0
 16 42  1  0
 16 43  1  0
 18 44  1  0
 19 45  1  0
M  END
>  <meeko>  (2) 
{"is_sidechain": [false], "free_energy": -8.97, "intermolecular_energy": -12.269, "internal_energy": -0.521}

$$$$
ligand_79_conformer_1_docked
     RDKit          3D

 45 47  0  0  0  0  0  0  0  0999 V2000
    5.5030   44.9230   55.6510 C   0  0  0  0  0  0  0  0  0  0  0  0
    5.0870   46.1040   54.7650 C   0  0  2  0  0  0  0  0  0  0  0  0
    3.8310   45.7980   53.9900 C   0  0  0  0  0  0  0  0  0  0  0  0
    3.1950   46.7470   53.4580 O   0  0  0  0  0  0  0  0  0  0  0  0
    3.3590   44.4470   53.8530 N   0  0  0  0  0  0  0  0  0  0  0  0
    2.1440   44.0920   53.1020 C   0  0  0  0  0  0  0  0  0  0  0  0
    2.3340   44.1760   51.5670 C   0  0  0  0  0  0  0  0  0  0  0  0
    3.6100   43.5100   51.1110 C   0  0  0  0  0  0  0  0  0  0  0  0
    3.6610   42.1140   50.9460 C   0  0  0  0  0  0  0  0  0  0  0  0
    4.8390   41.4960   50.5190 C   0  0  0  0  0  0  0  0  0  0  0  0
    5.9710   42.2650   50.2380 C   0  0  0  0  0  0  0  0  0  0  0  0
    5.9300   43.6520   50.3960 C   0  0  0  0  0  0  0  0  0  0  0  0
    4.7560   44.2740   50.8340 C   0  0  0  0  0  0  0  0  0  0  0  0
    1.5180   42.7740   53.5860 C   0  0  0  0  0  0  0  0  0  0  0  0
    0.3000   43.5360   54.0920 C   0  0  0  0  0  0  0  0  0  0  0  0
    0.9080   44.8460   53.6130 C   0  0  0  0  0  0  0  0  0  0  0  0
    6.1650   46.5170   53.8590 N   0  0  0  0  0  0  0  0  0  0  0  0
    6.0460   47.1730   52.6840 C   0  0  0  0  0  0  0  0  0  0  0  0
    7.3070   47.3940   52.1750 C   0  0  0  0  0  0  0  0  0  0  0  0
    8.1600   46.8560   53.1200 C   0  0  0  0  0  0  0  0  0  0  0  0
    9.6490   46.7730   53.0150 C   0  0  0  0  0  0  0  0  0  0  0  0
   10.0550   45.4750   53.2620 F   0  0  0  0  0  0  0  0  0  0  0  0
   10.0590   47.1470   51.7480 F   0  0  0  0  0  0  0  0  0  0  0  0
   10.2330   47.6180   53.9430 F   0  0  0  0  0  0  0  0  0  0  0  0
    7.4460   46.3220   54.1300 N   0  0  0  0  0  0  0  0  0  0  0  0
    5.4034   45.2057   56.7094 H   0  0  0  0  0  0  0  0  0  0  0  0
    4.8548   44.0598   55.4395 H   0  0  0  0  0  0  0  0  0  0  0  0
    6.5491   44.6566   55.4395 H   0  0  0  0  0  0  0  0  0  0  0  0
    4.8768   46.9467   55.4400 H   0  0  0  0  0  0  0  0  0  0  0  0
    3.9210   43.6790   54.2820 H   0  0  0  0  0  0  0  0  0  0  0  0
    1.4821   43.6814   51.0774 H   0  0  0  0  0  0  0  0  0  0  0  0
    2.3925   45.2396   51.2925 H   0  0  0  0  0  0  0  0  0  0  0  0
    2.7686   41.5056   51.1543 H   0  0  0  0  0  0  0  0  0  0  0  0
    4.8752   40.4026   50.4039 H   0  0  0  0  0  0  0  0  0  0  0  0
    6.8947   41.7780   49.8923 H   0  0  0  0  0  0  0  0  0  0  0  0
    6.8223   44.2564   50.1757 H   0  0  0  0  0  0  0  0  0  0  0  0
    4.7300   45.3662   50.9621 H   0  0  0  0  0  0  0  0  0  0  0  0
    1.2971   42.0593   52.7795 H   0  0  0  0  0  0  0  0  0  0  0  0
    2.0765   42.1076   54.2598 H   0  0  0  0  0  0  0  0  0  0  0  0
   -0.6386   43.2666   53.5856 H   0  0  0  0  0  0  0  0  0  0  0  0
   -0.0264   43.4267   55.1368 H   0  0  0  0  0  0  0  0  0  0  0  0
    0.3294   45.3461   52.8224 H   0  0  0  0  0  0  0  0  0  0  0  0
    1.0216   45.6916   54.3073 H   0  0  0  0  0  0  0  0  0  0  0  0
    5.1005   47.4794   52.2126 H   0  0  0  0  0  0  0  0  0  0  0  0
    7.5747   47.8877   51.2291 H   0  0  0  0  0  0  0  0  0  0  0  0
  1  2  1  0
  2  3  1  0
  3  4  2  0
  3  5  1  0
  5  6  1  0
  6  7  1  0
  7  8  1  0
  8  9  2  0
  9 10  1  0
 10 11  2  0
 11 12  1  0
 12 13  2  0
  6 14  1  0
 14 15  1  0
 15 16  1  0
  2 17  1  0
 17 18  1  0
 18 19  2  0
 19 20  1  0
 20 21  1  0
 21 22  1  0
 21 23  1  0
 21 24  1  0
 20 25  2  0
 16  6  1  0
 25 17  1  0
 13  8  1  0
  1 26  1  0
  1 27  1  0
  1 28  1  0
  2 29  1  1
  5 30  1  0
  7 31  1  0
  7 32  1  0
  9 33  1  0
 10 34  1  0
 11 35  1  0
 12 36  1  0
 13 37  1  0
 14 38  1  0
 14 39  1  0
 15 40  1  0
 15 41  1  0
 16 42  1  0
 16 43  1  0
 18 44  1  0
 19 45  1  0
M  END
>  <meeko>  (3) 
{"is_sidechain": [false], "free_energy": -8.843, "intermolecular_energy": -12.23, "internal_energy": -0.389}

$$$$
ligand_79_conformer_1_docked
     RDKit          3D

 45 47  0  0  0  0  0  0  0  0999 V2000
    1.6750   44.6570   51.1110 C   0  0  0  0  0  0  0  0  0  0  0  0
    2.4810   43.7210   52.0210 C   0  0  2  0  0  0  0  0  0  0  0  0
    3.2400   44.4900   53.0720 C   0  0  0  0  0  0  0  0  0  0  0  0
    2.7760   44.5450   54.2430 O   0  0  0  0  0  0  0  0  0  0  0  0
    4.4760   45.1520   52.7540 N   0  0  0  0  0  0  0  0  0  0  0  0
    5.2590   45.9100   53.7430 C   0  0  0  0  0  0  0  0  0  0  0  0
    5.9450   47.1620   53.1410 C   0  0  0  0  0  0  0  0  0  0  0  0
    7.4100   46.9300   52.8560 C   0  0  0  0  0  0  0  0  0  0  0  0
    7.8070   46.2760   51.6750 C   0  0  0  0  0  0  0  0  0  0  0  0
    9.1620   46.0660   51.4070 C   0  0  0  0  0  0  0  0  0  0  0  0
   10.1320   46.5190   52.3040 C   0  0  0  0  0  0  0  0  0  0  0  0
    9.7480   47.1710   53.4770 C   0  0  0  0  0  0  0  0  0  0  0  0
    8.3930   47.3740   53.7560 C   0  0  0  0  0  0  0  0  0  0  0  0
    4.4690   46.1870   55.0330 C   0  0  0  0  0  0  0  0  0  0  0  0
    5.4190   45.2850   55.8100 C   0  0  0  0  0  0  0  0  0  0  0  0
    6.2120   45.0090   54.5410 C   0  0  0  0  0  0  0  0  0  0  0  0
    3.3890   42.8600   51.2550 N   0  0  0  0  0  0  0  0  0  0  0  0
    3.1440   41.6150   50.7900 C   0  0  0  0  0  0  0  0  0  0  0  0
    4.2520   41.1810   50.0940 C   0  0  0  0  0  0  0  0  0  0  0  0
    5.1380   42.2400   50.1610 C   0  0  0  0  0  0  0  0  0  0  0  0
    6.5320   42.2560   49.6190 C   0  0  0  0  0  0  0  0  0  0  0  0
    7.1730   43.4060   50.0370 F   0  0  0  0  0  0  0  0  0  0  0  0
    7.2310   41.1520   50.0710 F   0  0  0  0  0  0  0  0  0  0  0  0
    6.4970   42.2300   48.2360 F   0  0  0  0  0  0  0  0  0  0  0  0
    4.5970   43.2450   50.8770 N   0  0  0  0  0  0  0  0  0  0  0  0
    1.0810   45.3468   51.7285 H   0  0  0  0  0  0  0  0  0  0  0  0
    2.3637   45.2337   50.4760 H   0  0  0  0  0  0  0  0  0  0  0  0
    1.0025   44.0616   50.4760 H   0  0  0  0  0  0  0  0  0  0  0  0
    1.7538   43.0714   52.5301 H   0  0  0  0  0  0  0  0  0  0  0  0
    4.8490   45.0670   51.7830 H   0  0  0  0  0  0  0  0  0  0  0  0
    5.4388   47.4252   52.2005 H   0  0  0  0  0  0  0  0  0  0  0  0
    5.8696   47.9749   53.8782 H   0  0  0  0  0  0  0  0  0  0  0  0
    7.0471   45.9285   50.9596 H   0  0  0  0  0  0  0  0  0  0  0  0
    9.4654   45.5430   50.4880 H   0  0  0  0  0  0  0  0  0  0  0  0
   11.1987   46.3620   52.0861 H   0  0  0  0  0  0  0  0  0  0  0  0
   10.5130   47.5258   54.1833 H   0  0  0  0  0  0  0  0  0  0  0  0
    8.0954   47.8836   54.6843 H   0  0  0  0  0  0  0  0  0  0  0  0
    4.4867   47.2393   55.3530 H   0  0  0  0  0  0  0  0  0  0  0  0
    3.3833   46.0136   55.0686 H   0  0  0  0  0  0  0  0  0  0  0  0
    5.9919   45.8058   56.5913 H   0  0  0  0  0  0  0  0  0  0  0  0
    5.0243   44.4505   56.4081 H   0  0  0  0  0  0  0  0  0  0  0  0
    7.2500   45.3717   54.5732 H   0  0  0  0  0  0  0  0  0  0  0  0
    6.3988   43.9744   54.2174 H   0  0  0  0  0  0  0  0  0  0  0  0
    2.2162   41.0438   50.9414 H   0  0  0  0  0  0  0  0  0  0  0  0
    4.3982   40.2105   49.5972 H   0  0  0  0  0  0  0  0  0  0  0  0
  1  2  1  0
  2  3  1  0
  3  4  2  0
  3  5  1  0
  5  6  1  0
  6  7  1  0
  7  8  1  0
  8  9  2  0
  9 10  1  0
 10 11  2  0
 11 12  1  0
 12 13  2  0
  6 14  1  0
 14 15  1  0
 15 16  1  0
  2 17  1  0
 17 18  1  0
 18 19  2  0
 19 20  1  0
 20 21  1  0
 21 22  1  0
 21 23  1  0
 21 24  1  0
 20 25  2  0
 16  6  1  0
 25 17  1  0
 13  8  1  0
  1 26  1  0
  1 27  1  0
  1 28  1  0
  2 29  1  1
  5 30  1  0
  7 31  1  0
  7 32  1  0
  9 33  1  0
 10 34  1  0
 11 35  1  0
 12 36  1  0
 13 37  1  0
 14 38  1  0
 14 39  1  0
 15 40  1  0
 15 41  1  0
 16 42  1  0
 16 43  1  0
 18 44  1  0
 19 45  1  0
M  END
>  <meeko>  (4) 
{"is_sidechain": [false], "free_energy": -8.526, "intermolecular_energy": -12.298, "internal_energy": 0.107}

$$$$
ligand_79_conformer_1_docked
     RDKit          3D

 45 47  0  0  0  0  0  0  0  0999 V2000
    1.6080   44.2010   51.1750 C   0  0  0  0  0  0  0  0  0  0  0  0
    1.3060   45.4500   52.0140 C   0  0  2  0  0  0  0  0  0  0  0  0
    2.5710   46.1020   52.5100 C   0  0  0  0  0  0  0  0  0  0  0  0
    2.6250   47.3600   52.5740 O   0  0  0  0  0  0  0  0  0  0  0  0
    3.7030   45.3100   52.9080 N   0  0  0  0  0  0  0  0  0  0  0  0
    4.9590   45.8960   53.4040 C   0  0  0  0  0  0  0  0  0  0  0  0
    5.6070   46.8800   52.3980 C   0  0  0  0  0  0  0  0  0  0  0  0
    7.1150   46.8340   52.4440 C   0  0  0  0  0  0  0  0  0  0  0  0
    7.8300   46.0680   51.5060 C   0  0  0  0  0  0  0  0  0  0  0  0
    9.2260   46.0290   51.5430 C   0  0  0  0  0  0  0  0  0  0  0  0
    9.9220   46.7650   52.5050 C   0  0  0  0  0  0  0  0  0  0  0  0
    9.2220   47.5310   53.4400 C   0  0  0  0  0  0  0  0  0  0  0  0
    7.8240   47.5640   53.4140 C   0  0  0  0  0  0  0  0  0  0  0  0
    4.8240   46.4540   54.8300 C   0  0  0  0  0  0  0  0  0  0  0  0
    5.7810   45.3850   55.3410 C   0  0  0  0  0  0  0  0  0  0  0  0
    5.9260   44.8280   53.9320 C   0  0  0  0  0  0  0  0  0  0  0  0
    0.4050   45.1540   53.1330 N   0  0  0  0  0  0  0  0  0  0  0  0
   -0.8410   44.6340   53.0720 C   0  0  0  0  0  0  0  0  0  0  0  0
   -1.3190   44.4860   54.3560 C   0  0  0  0  0  0  0  0  0  0  0  0
   -0.2850   44.9230   55.1610 C   0  0  0  0  0  0  0  0  0  0  0  0
   -0.3180   45.0330   56.6520 C   0  0  0  0  0  0  0  0  0  0  0  0
   -1.2160   44.1140   57.1600 F   0  0  0  0  0  0  0  0  0  0  0  0
    0.9380   44.7820   57.1760 F   0  0  0  0  0  0  0  0  0  0  0  0
   -0.7110   46.3070   57.0200 F   0  0  0  0  0  0  0  0  0  0  0  0
    0.7490   45.3310   54.3990 N   0  0  0  0  0  0  0  0  0  0  0  0
    1.8134   43.3515   51.8429 H   0  0  0  0  0  0  0  0  0  0  0  0
    0.7405   43.9670   50.5403 H   0  0  0  0  0  0  0  0  0  0  0  0
    2.4865   44.3892   50.5403 H   0  0  0  0  0  0  0  0  0  0  0  0
    0.7920   46.1603   51.3497 H   0  0  0  0  0  0  0  0  0  0  0  0
    3.6200   44.2710   52.8690 H   0  0  0  0  0  0  0  0  0  0  0  0
    5.2757   46.6173   51.3825 H   0  0  0  0  0  0  0  0  0  0  0  0
    5.2923   47.8978   52.6719 H   0  0  0  0  0  0  0  0  0  0  0  0
    7.2870   45.4964   50.7389 H   0  0  0  0  0  0  0  0  0  0  0  0
    9.7779   45.4179   50.8136 H   0  0  0  0  0  0  0  0  0  0  0  0
   11.0215   46.7413   52.5262 H   0  0  0  0  0  0  0  0  0  0  0  0
    9.7710   48.1091   54.1979 H   0  0  0  0  0  0  0  0  0  0  0  0
    7.2767   48.1639   54.1560 H   0  0  0  0  0  0  0  0  0  0  0  0
    5.1963   47.4825   54.9466 H   0  0  0  0  0  0  0  0  0  0  0  0
    3.8312   46.5763   55.2876 H   0  0  0  0  0  0  0  0  0  0  0  0
    6.7150   45.7848   55.7627 H   0  0  0  0  0  0  0  0  0  0  0  0
    5.4829   44.7252   56.1692 H   0  0  0  0  0  0  0  0  0  0  0  0
    6.9442   44.9036   53.5227 H   0  0  0  0  0  0  0  0  0  0  0  0
    5.7373   43.7624   53.7345 H   0  0  0  0  0  0  0  0  0  0  0  0
   -1.3830   44.3726   52.1512 H   0  0  0  0  0  0  0  0  0  0  0  0
   -2.3024   44.1056   54.6693 H   0  0  0  0  0  0  0  0  0  0  0  0
  1  2  1  0
  2  3  1  0
  3  4  2  0
  3  5  1  0
  5  6  1  0
  6  7  1  0
  7  8  1  0
  8  9  2  0
  9 10  1  0
 10 11  2  0
 11 12  1  0
 12 13  2  0
  6 14  1  0
 14 15  1  0
 15 16  1  0
  2 17  1  0
 17 18  1  0
 18 19  2  0
 19 20  1  0
 20 21  1  0
 21 22  1  0
 21 23  1  0
 21 24  1  0
 20 25  2  0
 16  6  1  0
 25 17  1  0
 13  8  1  0
  1 26  1  0
  1 27  1  0
  1 28  1  0
  2 29  1  6
  5 30  1  0
  7 31  1  0
  7 32  1  0
  9 33  1  0
 10 34  1  0
 11 35  1  0
 12 36  1  0
 13 37  1  0
 14 38  1  0
 14 39  1  0
 15 40  1  0
 15 41  1  0
 16 42  1  0
 16 43  1  0
 18 44  1  0
 19 45  1  0
M  END
>  <meeko>  (5) 
{"is_sidechain": [false], "free_energy": -8.339, "intermolecular_energy": -11.421, "internal_energy": -0.517}

$$$$
