ligand_90_conformer_5_docked
     RDKit          3D

 47 49  0  0  0  0  0  0  0  0999 V2000
    1.6950   43.0430   50.8000 C   0  0  0  0  0  0  0  0  0  0  0  0
    2.9980   43.2500   51.4600 N   0  0  0  0  0  0  0  0  0  0  0  0
    3.9980   42.3670   50.8340 C   0  0  0  0  0  0  0  0  0  0  0  0
    2.9140   42.9780   52.9150 C   0  0  0  0  0  0  0  0  0  0  0  0
    2.9120   44.2960   53.7420 C   0  0  2  0  0  0  0  0  0  0  0  0
    1.6410   44.5710   54.5410 C   0  0  0  0  0  0  0  0  0  0  0  0
    0.3510   44.1830   54.1140 C   0  0  0  0  0  0  0  0  0  0  0  0
   -0.7710   44.4720   54.8950 C   0  0  0  0  0  0  0  0  0  0  0  0
   -0.6290   45.1450   56.1090 C   0  0  0  0  0  0  0  0  0  0  0  0
    0.6380   45.5300   56.5470 C   0  0  0  0  0  0  0  0  0  0  0  0
    1.7650   45.2430   55.7710 C   0  0  0  0  0  0  0  0  0  0  0  0
    3.2890   45.5010   52.9520 N   0  0  0  0  0  0  0  0  0  0  0  0
    2.1570   46.4140   52.7270 C   0  0  0  0  0  0  0  0  0  0  0  0
    4.6750   46.4020   53.5410 S   0  0  0  0  0  0  0  0  0  0  0  0
    4.3430   47.8680   53.5050 O   0  0  0  0  0  0  0  0  0  0  0  0
    4.9660   46.0430   54.9710 O   0  0  0  0  0  0  0  0  0  0  0  0
    6.0810   46.1750   52.4920 C   0  0  0  0  0  0  0  0  0  0  0  0
    5.9240   45.6090   51.2250 C   0  0  0  0  0  0  0  0  0  0  0  0
    7.4250   45.4930   50.4690 S   0  0  0  0  0  0  0  0  0  0  0  0
    8.2890   46.1620   51.7380 C   0  0  0  0  0  0  0  0  0  0  0  0
    9.6650   46.3620   51.8100 C   0  0  0  0  0  0  0  0  0  0  0  0
   10.1940   46.9250   52.9770 C   0  0  0  0  0  0  0  0  0  0  0  0
    9.3440   47.2790   54.0400 C   0  0  0  0  0  0  0  0  0  0  0  0
    7.9590   47.0680   53.9470 C   0  0  0  0  0  0  0  0  0  0  0  0
    7.4280   46.4960   52.7790 C   0  0  0  0  0  0  0  0  0  0  0  0
    0.9129   42.9188   51.5635 H   0  0  0  0  0  0  0  0  0  0  0  0
    1.4593   43.9150   50.1722 H   0  0  0  0  0  0  0  0  0  0  0  0
    1.7412   42.1409   50.1722 H   0  0  0  0  0  0  0  0  0  0  0  0
    4.5771   41.8557   51.6171 H   0  0  0  0  0  0  0  0  0  0  0  0
    3.4872   41.6198   50.2088 H   0  0  0  0  0  0  0  0  0  0  0  0
    4.6762   42.9663   50.2088 H   0  0  0  0  0  0  0  0  0  0  0  0
    1.9863   42.4245   53.1222 H   0  0  0  0  0  0  0  0  0  0  0  0
    3.7953   42.3882   53.2074 H   0  0  0  0  0  0  0  0  0  0  0  0
    3.7044   44.1012   54.4797 H   0  0  0  0  0  0  0  0  0  0  0  0
    0.2293   43.6495   53.1597 H   0  0  0  0  0  0  0  0  0  0  0  0
   -1.7706   44.1676   54.5513 H   0  0  0  0  0  0  0  0  0  0  0  0
   -1.5152   45.3717   56.7199 H   0  0  0  0  0  0  0  0  0  0  0  0
    0.7507   46.0601   57.5042 H   0  0  0  0  0  0  0  0  0  0  0  0
    2.7609   45.5463   56.1264 H   0  0  0  0  0  0  0  0  0  0  0  0
    1.7515   46.7410   53.6958 H   0  0  0  0  0  0  0  0  0  0  0  0
    2.5005   47.2908   52.1585 H   0  0  0  0  0  0  0  0  0  0  0  0
    1.3728   45.8926   52.1585 H   0  0  0  0  0  0  0  0  0  0  0  0
    4.9670   45.2881   50.7877 H   0  0  0  0  0  0  0  0  0  0  0  0
   10.3198   46.0845   50.9708 H   0  0  0  0  0  0  0  0  0  0  0  0
   11.2780   47.0911   53.0630 H   0  0  0  0  0  0  0  0  0  0  0  0
    9.7678   47.7249   54.9519 H   0  0  0  0  0  0  0  0  0  0  0  0
    7.2969   47.3476   54.7797 H   0  0  0  0  0  0  0  0  0  0  0  0
  1  2  1  0
  2  3  1  0
  2  4  1  0
  4  5  1  0
  5  6  1  0
  6  7  2  0
  7  8  1  0
  8  9  2  0
  9 10  1  0
 10 11  2  0
  5 12  1  0
 12 13  1  0
 12 14  1  0
 14 15  2  0
 14 16  2  0
 14 17  1  0
 17 18  2  0
 18 19  1  0
 19 20  1  0
 20 21  2  0
 21 22  1  0
 22 23  2  0
 23 24  1  0
 24 25  2  0
 11  6  1  0
 25 17  1  0
 25 20  1  0
  1 26  1  0
  1 27  1  0
  1 28  1  0
  3 29  1  0
  3 30  1  0
  3 31  1  0
  4 32  1  0
  4 33  1  0
  5 34  1  1
  7 35  1  0
  8 36  1  0
  9 37  1  0
 10 38  1  0
 11 39  1  0
 13 40  1  0
 13 41  1  0
 13 42  1  0
 18 43  1  0
 21 44  1  0
 22 45  1  0
 23 46  1  0
 24 47  1  0
M  END
>  <meeko>  (1) 
{"is_sidechain": [false], "free_energy": -8.358, "intermolecular_energy": -11.289, "internal_energy": -0.447}

$$$$
ligand_90_conformer_5_docked
     RDKit          3D

 47 49  0  0  0  0  0  0  0  0999 V2000
    0.9970   44.9280   56.3530 C   0  0  0  0  0  0  0  0  0  0  0  0
    0.3280   45.5810   55.2130 N   0  0  0  0  0  0  0  0  0  0  0  0
   -0.9690   44.9230   54.9780 C   0  0  0  0  0  0  0  0  0  0  0  0
    1.1630   45.5170   53.9900 C   0  0  0  0  0  0  0  0  0  0  0  0
    2.3810   44.5670   54.1820 C   0  0  2  0  0  0  0  0  0  0  0  0
    3.7490   45.2450   54.2020 C   0  0  0  0  0  0  0  0  0  0  0  0
    4.9610   44.5520   54.4190 C   0  0  0  0  0  0  0  0  0  0  0  0
    6.1780   45.2390   54.4280 C   0  0  0  0  0  0  0  0  0  0  0  0
    6.2100   46.6170   54.2190 C   0  0  0  0  0  0  0  0  0  0  0  0
    5.0220   47.3150   53.9980 C   0  0  0  0  0  0  0  0  0  0  0  0
    3.8010   46.6350   53.9870 C   0  0  0  0  0  0  0  0  0  0  0  0
    2.3980   43.4140   53.2390 N   0  0  0  0  0  0  0  0  0  0  0  0
    1.2740   42.4880   53.4490 C   0  0  0  0  0  0  0  0  0  0  0  0
    2.5300   43.8180   51.5360 S   0  0  0  0  0  0  0  0  0  0  0  0
    1.4070   43.1430   50.7970 O   0  0  0  0  0  0  0  0  0  0  0  0
    2.3740   45.2990   51.3330 O   0  0  0  0  0  0  0  0  0  0  0  0
    4.0360   43.1990   50.8450 C   0  0  0  0  0  0  0  0  0  0  0  0
    4.1340   41.8580   50.4700 C   0  0  0  0  0  0  0  0  0  0  0  0
    5.6790   41.5500   49.8730 S   0  0  0  0  0  0  0  0  0  0  0  0
    6.2380   43.1160   50.0790 C   0  0  0  0  0  0  0  0  0  0  0  0
    7.5120   43.6010   49.7960 C   0  0  0  0  0  0  0  0  0  0  0  0
    7.7810   44.9500   50.0580 C   0  0  0  0  0  0  0  0  0  0  0  0
    6.7800   45.7810   50.5910 C   0  0  0  0  0  0  0  0  0  0  0  0
    5.5020   45.2710   50.8700 C   0  0  0  0  0  0  0  0  0  0  0  0
    5.2330   43.9160   50.6140 C   0  0  0  0  0  0  0  0  0  0  0  0
    0.5895   45.3257   57.2941 H   0  0  0  0  0  0  0  0  0  0  0  0
    0.8230   43.8428   56.3077 H   0  0  0  0  0  0  0  0  0  0  0  0
    2.0777   45.1282   56.3077 H   0  0  0  0  0  0  0  0  0  0  0  0
   -1.4393   44.6844   55.9433 H   0  0  0  0  0  0  0  0  0  0  0  0
   -1.6244   45.5976   54.4076 H   0  0  0  0  0  0  0  0  0  0  0  0
   -0.8117   43.9957   54.4076 H   0  0  0  0  0  0  0  0  0  0  0  0
    0.5484   45.1467   53.1562 H   0  0  0  0  0  0  0  0  0  0  0  0
    1.5425   46.5273   53.7771 H   0  0  0  0  0  0  0  0  0  0  0  0
    2.2102   44.1836   55.1988 H   0  0  0  0  0  0  0  0  0  0  0  0
    4.9466   43.4642   54.5820 H   0  0  0  0  0  0  0  0  0  0  0  0
    7.1153   44.6898   54.6008 H   0  0  0  0  0  0  0  0  0  0  0  0
    7.1703   47.1533   54.2283 H   0  0  0  0  0  0  0  0  0  0  0  0
    5.0466   48.4022   53.8322 H   0  0  0  0  0  0  0  0  0  0  0  0
    2.8698   47.1926   53.8082 H   0  0  0  0  0  0  0  0  0  0  0  0
    1.1081   42.3514   54.5278 H   0  0  0  0  0  0  0  0  0  0  0  0
    0.3657   42.9034   52.9881 H   0  0  0  0  0  0  0  0  0  0  0  0
    1.5079   41.5170   52.9881 H   0  0  0  0  0  0  0  0  0  0  0  0
    3.3261   41.1159   50.5518 H   0  0  0  0  0  0  0  0  0  0  0  0
    8.2869   42.9418   49.3776 H   0  0  0  0  0  0  0  0  0  0  0  0
    8.7791   45.3610   49.8460 H   0  0  0  0  0  0  0  0  0  0  0  0
    7.0000   46.8400   50.7912 H   0  0  0  0  0  0  0  0  0  0  0  0
    4.7203   45.9248   51.2842 H   0  0  0  0  0  0  0  0  0  0  0  0
  1  2  1  0
  2  3  1  0
  2  4  1  0
  4  5  1  0
  5  6  1  0
  6  7  2  0
  7  8  1  0
  8  9  2  0
  9 10  1  0
 10 11  2  0
  5 12  1  0
 12 13  1  0
 12 14  1  0
 14 15  2  0
 14 16  2  0
 14 17  1  0
 17 18  2  0
 18 19  1  0
 19 20  1  0
 20 21  2  0
 21 22  1  0
 22 23  2  0
 23 24  1  0
 24 25  2  0
 11  6  1  0
 25 17  1  0
 25 20  1  0
  1 26  1  0
  1 27  1  0
  1 28  1  0
  3 29  1  0
  3 30  1  0
  3 31  1  0
  4 32  1  0
  4 33  1  0
  5 34  1  1
  7 35  1  0
  8 36  1  0
  9 37  1  0
 10 38  1  0
 11 39  1  0
 13 40  1  0
 13 41  1  0
 13 42  1  0
 18 43  1  0
 21 44  1  0
 22 45  1  0
 23 46  1  0
 24 47  1  0
M  END
>  <meeko>  (2) 
{"is_sidechain": [false], "free_energy": -8.144, "intermolecular_energy": -10.284, "internal_energy": -1.164}

$$$$
ligand_90_conformer_5_docked
     RDKit          3D

 47 49  0  0  0  0  0  0  0  0999 V2000
    0.1570   45.6000   56.9290 C   0  0  0  0  0  0  0  0  0  0  0  0
    0.4850   45.3290   55.5170 N   0  0  0  0  0  0  0  0  0  0  0  0
   -0.5290   44.4170   54.9570 C   0  0  0  0  0  0  0  0  0  0  0  0
    1.8360   44.7360   55.3820 C   0  0  0  0  0  0  0  0  0  0  0  0
    2.5500   45.2320   54.0910 C   0  0  2  0  0  0  0  0  0  0  0  0
    2.6970   44.1960   52.9800 C   0  0  0  0  0  0  0  0  0  0  0  0
    3.7520   43.2580   52.9220 C   0  0  0  0  0  0  0  0  0  0  0  0
    3.8270   42.3390   51.8710 C   0  0  0  0  0  0  0  0  0  0  0  0
    2.8570   42.3360   50.8690 C   0  0  0  0  0  0  0  0  0  0  0  0
    1.8060   43.2530   50.9150 C   0  0  0  0  0  0  0  0  0  0  0  0
    1.7240   44.1740   51.9630 C   0  0  0  0  0  0  0  0  0  0  0  0
    3.8580   45.8960   54.3460 N   0  0  0  0  0  0  0  0  0  0  0  0
    4.9460   44.9380   54.5970 C   0  0  0  0  0  0  0  0  0  0  0  0
    4.3650   47.0760   53.1490 S   0  0  0  0  0  0  0  0  0  0  0  0
    3.2460   47.2680   52.1640 O   0  0  0  0  0  0  0  0  0  0  0  0
    4.6250   48.4060   53.8000 O   0  0  0  0  0  0  0  0  0  0  0  0
    5.7590   46.4960   52.2270 C   0  0  0  0  0  0  0  0  0  0  0  0
    5.5650   45.7270   51.0780 C   0  0  0  0  0  0  0  0  0  0  0  0
    7.0600   45.2990   50.4270 S   0  0  0  0  0  0  0  0  0  0  0  0
    7.9670   46.0870   51.5940 C   0  0  0  0  0  0  0  0  0  0  0  0
    9.3550   46.1360   51.6940 C   0  0  0  0  0  0  0  0  0  0  0  0
    9.9190   46.8410   52.7640 C   0  0  0  0  0  0  0  0  0  0  0  0
    9.0920   47.4820   53.7030 C   0  0  0  0  0  0  0  0  0  0  0  0
    7.6950   47.4200   53.5840 C   0  0  0  0  0  0  0  0  0  0  0  0
    7.1270   46.7060   52.5150 C   0  0  0  0  0  0  0  0  0  0  0  0
    0.8410   45.0349   57.5793 H   0  0  0  0  0  0  0  0  0  0  0  0
    0.2648   46.6760   57.1305 H   0  0  0  0  0  0  0  0  0  0  0  0
   -0.8794   45.2912   57.1305 H   0  0  0  0  0  0  0  0  0  0  0  0
   -1.0741   43.9268   55.7771 H   0  0  0  0  0  0  0  0  0  0  0  0
   -1.2354   44.9897   54.3380 H   0  0  0  0  0  0  0  0  0  0  0  0
   -0.0341   43.6541   54.3380 H   0  0  0  0  0  0  0  0  0  0  0  0
    2.4401   45.0201   56.2563 H   0  0  0  0  0  0  0  0  0  0  0  0
    1.7286   43.6431   55.3189 H   0  0  0  0  0  0  0  0  0  0  0  0
    1.8431   45.9874   53.7174 H   0  0  0  0  0  0  0  0  0  0  0  0
    4.5200   43.2507   53.7095 H   0  0  0  0  0  0  0  0  0  0  0  0
    4.6546   41.6153   51.8343 H   0  0  0  0  0  0  0  0  0  0  0  0
    2.9202   41.6118   50.0435 H   0  0  0  0  0  0  0  0  0  0  0  0
    1.0407   43.2509   50.1249 H   0  0  0  0  0  0  0  0  0  0  0  0
    0.8895   44.8900   51.9935 H   0  0  0  0  0  0  0  0  0  0  0  0
    5.0844   44.8162   55.6814 H   0  0  0  0  0  0  0  0  0  0  0  0
    4.6900   43.9667   54.1486 H   0  0  0  0  0  0  0  0  0  0  0  0
    5.8771   45.3149   54.1486 H   0  0  0  0  0  0  0  0  0  0  0  0
    4.5870   45.4439   50.6615 H   0  0  0  0  0  0  0  0  0  0  0  0
    9.9921   45.6336   50.9512 H   0  0  0  0  0  0  0  0  0  0  0  0
   11.0126   46.8936   52.8703 H   0  0  0  0  0  0  0  0  0  0  0  0
    9.5439   48.0370   54.5383 H   0  0  0  0  0  0  0  0  0  0  0  0
    7.0515   47.9248   54.3196 H   0  0  0  0  0  0  0  0  0  0  0  0
  1  2  1  0
  2  3  1  0
  2  4  1  0
  4  5  1  0
  5  6  1  0
  6  7  2  0
  7  8  1  0
  8  9  2  0
  9 10  1  0
 10 11  2  0
  5 12  1  0
 12 13  1  0
 12 14  1  0
 14 15  2  0
 14 16  2  0
 14 17  1  0
 17 18  2  0
 18 19  1  0
 19 20  1  0
 20 21  2  0
 21 22  1  0
 22 23  2  0
 23 24  1  0
 24 25  2  0
 11  6  1  0
 25 17  1  0
 25 20  1  0
  1 26  1  0
  1 27  1  0
  1 28  1  0
  3 29  1  0
  3 30  1  0
  3 31  1  0
  4 32  1  0
  4 33  1  0
  5 34  1  6
  7 35  1  0
  8 36  1  0
  9 37  1  0
 10 38  1  0
 11 39  1  0
 13 40  1  0
 13 41  1  0
 13 42  1  0
 18 43  1  0
 21 44  1  0
 22 45  1  0
 23 46  1  0
 24 47  1  0
M  END
>  <meeko>  (3) 
{"is_sidechain": [false], "free_energy": -8.111, "intermolecular_energy": -11.706, "internal_energy": 0.304}

$$$$
ligand_90_conformer_5_docked
     RDKit          3D

 47 49  0  0  0  0  0  0  0  0999 V2000
    8.0820   48.2510   52.2660 C   0  0  0  0  0  0  0  0  0  0  0  0
    7.0390   47.6050   53.0830 N   0  0  0  0  0  0  0  0  0  0  0  0
    7.6540   46.5310   53.8840 C   0  0  0  0  0  0  0  0  0  0  0  0
    5.9550   47.0540   52.2360 C   0  0  0  0  0  0  0  0  0  0  0  0
    5.7690   45.5270   52.4700 C   0  0  2  0  0  0  0  0  0  0  0  0
    6.1660   44.6270   51.3030 C   0  0  0  0  0  0  0  0  0  0  0  0
    5.5050   43.4190   50.9880 C   0  0  0  0  0  0  0  0  0  0  0  0
    5.9260   42.6420   49.9050 C   0  0  0  0  0  0  0  0  0  0  0  0
    7.0030   43.0550   49.1200 C   0  0  0  0  0  0  0  0  0  0  0  0
    7.6630   44.2480   49.4150 C   0  0  0  0  0  0  0  0  0  0  0  0
    7.2460   45.0300   50.4960 C   0  0  0  0  0  0  0  0  0  0  0  0
    4.4120   45.1560   52.9610 N   0  0  0  0  0  0  0  0  0  0  0  0
    4.2740   45.2960   54.4190 C   0  0  0  0  0  0  0  0  0  0  0  0
    3.0640   45.9390   52.1550 S   0  0  0  0  0  0  0  0  0  0  0  0
    2.7350   47.2050   52.8960 O   0  0  0  0  0  0  0  0  0  0  0  0
    3.4420   46.3230   50.7530 O   0  0  0  0  0  0  0  0  0  0  0  0
    1.6120   44.9300   52.2070 C   0  0  0  0  0  0  0  0  0  0  0  0
    1.2000   44.2380   51.0660 C   0  0  0  0  0  0  0  0  0  0  0  0
   -0.2150   43.3880   51.4020 S   0  0  0  0  0  0  0  0  0  0  0  0
   -0.3190   43.8850   52.9980 C   0  0  0  0  0  0  0  0  0  0  0  0
   -1.3100   43.5620   53.9200 C   0  0  0  0  0  0  0  0  0  0  0  0
   -1.2180   44.1000   55.2100 C   0  0  0  0  0  0  0  0  0  0  0  0
   -0.1450   44.9410   55.5500 C   0  0  0  0  0  0  0  0  0  0  0  0
    0.8450   45.2540   54.6050 C   0  0  0  0  0  0  0  0  0  0  0  0
    0.7490   44.7210   53.3090 C   0  0  0  0  0  0  0  0  0  0  0  0
    8.8301   48.7144   52.9260 H   0  0  0  0  0  0  0  0  0  0  0  0
    8.5700   47.4968   51.6312 H   0  0  0  0  0  0  0  0  0  0  0  0
    7.6242   49.0239   51.6312 H   0  0  0  0  0  0  0  0  0  0  0  0
    7.5269   46.7529   54.9539 H   0  0  0  0  0  0  0  0  0  0  0  0
    7.1676   45.5731   53.6479 H   0  0  0  0  0  0  0  0  0  0  0  0
    8.7264   46.4657   53.6479 H   0  0  0  0  0  0  0  0  0  0  0  0
    5.0144   47.5700   52.4787 H   0  0  0  0  0  0  0  0  0  0  0  0
    6.2270   47.2111   51.1818 H   0  0  0  0  0  0  0  0  0  0  0  0
    6.4963   45.3316   53.2718 H   0  0  0  0  0  0  0  0  0  0  0  0
    4.6528   43.0874   51.5994 H   0  0  0  0  0  0  0  0  0  0  0  0
    5.4062   41.7013   49.6707 H   0  0  0  0  0  0  0  0  0  0  0  0
    7.3314   42.4402   48.2690 H   0  0  0  0  0  0  0  0  0  0  0  0
    8.5123   44.5737   48.7964 H   0  0  0  0  0  0  0  0  0  0  0  0
    7.7686   45.9720   50.7186 H   0  0  0  0  0  0  0  0  0  0  0  0
    4.9611   44.5989   54.9210 H   0  0  0  0  0  0  0  0  0  0  0  0
    4.5185   46.3274   54.7131 H   0  0  0  0  0  0  0  0  0  0  0  0
    3.2392   45.0664   54.7131 H   0  0  0  0  0  0  0  0  0  0  0  0
    1.7198   44.2467   50.0966 H   0  0  0  0  0  0  0  0  0  0  0  0
   -2.1444   42.9010   53.6428 H   0  0  0  0  0  0  0  0  0  0  0  0
   -1.9880   43.8634   55.9591 H   0  0  0  0  0  0  0  0  0  0  0  0
   -0.0800   45.3580   56.5658 H   0  0  0  0  0  0  0  0  0  0  0  0
    1.6860   45.9090   54.8764 H   0  0  0  0  0  0  0  0  0  0  0  0
  1  2  1  0
  2  3  1  0
  2  4  1  0
  4  5  1  0
  5  6  1  0
  6  7  2  0
  7  8  1  0
  8  9  2  0
  9 10  1  0
 10 11  2  0
  5 12  1  0
 12 13  1  0
 12 14  1  0
 14 15  2  0
 14 16  2  0
 14 17  1  0
 17 18  2  0
 18 19  1  0
 19 20  1  0
 20 21  2  0
 21 22  1  0
 22 23  2  0
 23 24  1  0
 24 25  2  0
 11  6  1  0
 25 17  1  0
 25 20  1  0
  1 26  1  0
  1 27  1  0
  1 28  1  0
  3 29  1  0
  3 30  1  0
  3 31  1  0
  4 32  1  0
  4 33  1  0
  5 34  1  1
  7 35  1  0
  8 36  1  0
  9 37  1  0
 10 38  1  0
 11 39  1  0
 13 40  1  0
 13 41  1  0
 13 42  1  0
 18 43  1  0
 21 44  1  0
 22 45  1  0
 23 46  1  0
 24 47  1  0
M  END
>  <meeko>  (4) 
{"is_sidechain": [false], "free_energy": -7.729, "intermolecular_energy": -10.673, "internal_energy": -0.215}

$$$$
ligand_90_conformer_5_docked
     RDKit          3D

 47 49  0  0  0  0  0  0  0  0999 V2000
    7.9350   48.2880   52.0880 C   0  0  0  0  0  0  0  0  0  0  0  0
    7.8020   46.8280   52.2490 N   0  0  0  0  0  0  0  0  0  0  0  0
    8.9320   46.1670   51.5730 C   0  0  0  0  0  0  0  0  0  0  0  0
    6.5170   46.3400   51.6930 C   0  0  0  0  0  0  0  0  0  0  0  0
    6.1350   44.9500   52.2770 C   0  0  2  0  0  0  0  0  0  0  0  0
    5.8340   43.8630   51.2490 C   0  0  0  0  0  0  0  0  0  0  0  0
    6.5410   43.7190   50.0350 C   0  0  0  0  0  0  0  0  0  0  0  0
    6.2090   42.7010   49.1370 C   0  0  0  0  0  0  0  0  0  0  0  0
    5.1750   41.8120   49.4320 C   0  0  0  0  0  0  0  0  0  0  0  0
    4.4700   41.9380   50.6300 C   0  0  0  0  0  0  0  0  0  0  0  0
    4.7980   42.9530   51.5330 C   0  0  0  0  0  0  0  0  0  0  0  0
    5.0490   45.0040   53.2940 N   0  0  0  0  0  0  0  0  0  0  0  0
    5.5490   45.2750   54.6520 C   0  0  0  0  0  0  0  0  0  0  0  0
    3.7070   46.0750   52.9280 S   0  0  0  0  0  0  0  0  0  0  0  0
    3.8890   47.3510   53.7020 O   0  0  0  0  0  0  0  0  0  0  0  0
    3.7040   46.4320   51.4680 O   0  0  0  0  0  0  0  0  0  0  0  0
    2.1680   45.3790   53.4520 C   0  0  0  0  0  0  0  0  0  0  0  0
    1.7090   45.5970   54.7530 C   0  0  0  0  0  0  0  0  0  0  0  0
    0.2430   44.7980   54.9750 S   0  0  0  0  0  0  0  0  0  0  0  0
    0.1720   44.1710   53.4240 C   0  0  0  0  0  0  0  0  0  0  0  0
   -0.8160   43.3480   52.8900 C   0  0  0  0  0  0  0  0  0  0  0  0
   -0.6760   42.9170   51.5650 C   0  0  0  0  0  0  0  0  0  0  0  0
    0.4370   43.3160   50.8050 C   0  0  0  0  0  0  0  0  0  0  0  0
    1.4220   44.1460   51.3630 C   0  0  0  0  0  0  0  0  0  0  0  0
    1.2870   44.5730   52.6940 C   0  0  0  0  0  0  0  0  0  0  0  0
    7.9783   48.7637   53.0789 H   0  0  0  0  0  0  0  0  0  0  0  0
    8.8574   48.5131   51.5325 H   0  0  0  0  0  0  0  0  0  0  0  0
    7.0685   48.6761   51.5325 H   0  0  0  0  0  0  0  0  0  0  0  0
    9.6239   45.7622   52.3263 H   0  0  0  0  0  0  0  0  0  0  0  0
    8.5544   45.3474   50.9440 H   0  0  0  0  0  0  0  0  0  0  0  0
    9.4613   46.8979   50.9440 H   0  0  0  0  0  0  0  0  0  0  0  0
    5.7240   47.0614   51.9392 H   0  0  0  0  0  0  0  0  0  0  0  0
    6.6287   46.2379   50.6035 H   0  0  0  0  0  0  0  0  0  0  0  0
    7.0677   44.6519   52.7782 H   0  0  0  0  0  0  0  0  0  0  0  0
    7.3594   44.4135   49.7944 H   0  0  0  0  0  0  0  0  0  0  0  0
    6.7654   42.6002   48.1934 H   0  0  0  0  0  0  0  0  0  0  0  0
    4.9158   41.0131   48.7216 H   0  0  0  0  0  0  0  0  0  0  0  0
    3.6549   41.2373   50.8638 H   0  0  0  0  0  0  0  0  0  0  0  0
    4.2401   43.0419   52.4768 H   0  0  0  0  0  0  0  0  0  0  0  0
    4.8325   44.8867   55.3908 H   0  0  0  0  0  0  0  0  0  0  0  0
    6.5220   44.7808   54.7899 H   0  0  0  0  0  0  0  0  0  0  0  0
    5.6661   46.3600   54.7899 H   0  0  0  0  0  0  0  0  0  0  0  0
    2.2257   46.1982   55.5156 H   0  0  0  0  0  0  0  0  0  0  0  0
   -1.6841   43.0442   53.4934 H   0  0  0  0  0  0  0  0  0  0  0  0
   -1.4397   42.2639   51.1174 H   0  0  0  0  0  0  0  0  0  0  0  0
    0.5370   42.9749   49.7640 H   0  0  0  0  0  0  0  0  0  0  0  0
    2.2902   44.4585   50.7642 H   0  0  0  0  0  0  0  0  0  0  0  0
  1  2  1  0
  2  3  1  0
  2  4  1  0
  4  5  1  0
  5  6  1  0
  6  7  2  0
  7  8  1  0
  8  9  2  0
  9 10  1  0
 10 11  2  0
  5 12  1  0
 12 13  1  0
 12 14  1  0
 14 15  2  0
 14 16  2  0
 14 17  1  0
 17 18  2  0
 18 19  1  0
 19 20  1  0
 20 21  2  0
 21 22  1  0
 22 23  2  0
 23 24  1  0
 24 25  2  0
 11  6  1  0
 25 17  1  0
 25 20  1  0
  1 26  1  0
  1 27  1  0
  1 28  1  0
  3 29  1  0
  3 30  1  0
  3 31  1  0
  4 32  1  0
  4 33  1  0
  5 34  1  1
  7 35  1  0
  8 36  1  0
  9 37  1  0
 10 38  1  0
 11 39  1  0
 13 40  1  0
 13 41  1  0
 13 42  1  0
 18 43  1  0
 21 44  1  0
 22 45  1  0
 23 46  1  0
 24 47  1  0
M  END
>  <meeko>  (5) 
{"is_sidechain": [false], "free_energy": -7.201, "intermolecular_energy": -9.583, "internal_energy": -0.591}

$$$$
