ligand_21_conformer_3_docked
     RDKit          3D

 39 42  0  0  0  0  0  0  0  0999 V2000
    3.1430   42.3770   52.1700 C   0  0  0  0  0  0  0  0  0  0  0  0
    2.7960   43.8470   52.4050 C   0  0  1  0  0  0  0  0  0  0  0  0
    2.5520   44.5090   51.1110 N   0  0  0  0  0  0  0  0  0  0  0  0
    2.7310   45.9630   51.1990 C   0  0  0  0  0  0  0  0  0  0  0  0
    4.0860   46.2690   51.7600 C   0  0  0  0  0  0  0  0  0  0  0  0
    5.2000   45.9050   51.0580 N   0  0  0  0  0  0  0  0  0  0  0  0
    6.4210   46.1580   51.5860 C   0  0  0  0  0  0  0  0  0  0  0  0
    7.9240   45.7950   50.8890 S   0  0  0  0  0  0  0  0  0  0  0  0
    8.7570   46.4400   52.2110 C   0  0  0  0  0  0  0  0  0  0  0  0
    7.9140   46.9140   53.1540 C   0  0  0  0  0  0  0  0  0  0  0  0
    6.5700   46.7640   52.8210 C   0  0  0  0  0  0  0  0  0  0  0  0
    5.4320   47.1220   53.5380 C   0  0  0  0  0  0  0  0  0  0  0  0
    5.5210   47.6720   54.6690 O   0  0  0  0  0  0  0  0  0  0  0  0
    4.2060   46.8620   52.9920 N   0  0  0  0  0  0  0  0  0  0  0  0
    8.6260   47.4720   54.3210 C   0  0  0  0  0  0  0  0  0  0  0  0
   10.1190   47.2690   53.9460 C   0  0  0  0  0  0  0  0  0  0  0  0
   10.1800   46.5840   52.5560 C   0  0  0  0  0  0  0  0  0  0  0  0
    1.6080   43.9660   53.3290 C   0  0  0  0  0  0  0  0  0  0  0  0
    1.5520   44.6820   54.5210 C   0  0  0  0  0  0  0  0  0  0  0  0
    0.3120   44.5820   55.1620 C   0  0  0  0  0  0  0  0  0  0  0  0
   -0.0750   45.4490   56.8170 Br  0  0  0  0  0  0  0  0  0  0  0  0
   -0.6100   43.7920   54.4880 C   0  0  0  0  0  0  0  0  0  0  0  0
    0.1220   43.2150   53.0890 S   0  0  0  0  0  0  0  0  0  0  0  0
    3.2629   41.8692   53.1384 H   0  0  0  0  0  0  0  0  0  0  0  0
    2.3338   41.8956   51.6012 H   0  0  0  0  0  0  0  0  0  0  0  0
    4.0820   42.3083   51.6012 H   0  0  0  0  0  0  0  0  0  0  0  0
    3.6416   44.3525   52.8942 H   0  0  0  0  0  0  0  0  0  0  0  0
    1.5730   44.3080   50.7920 H   0  0  0  0  0  0  0  0  0  0  0  0
    2.6420   46.4043   50.1953 H   0  0  0  0  0  0  0  0  0  0  0  0
    1.9585   46.3872   51.8573 H   0  0  0  0  0  0  0  0  0  0  0  0
    3.3460   47.1210   53.5270 H   0  0  0  0  0  0  0  0  0  0  0  0
    8.3928   48.5388   54.4539 H   0  0  0  0  0  0  0  0  0  0  0  0
    8.3473   46.9914   55.2704 H   0  0  0  0  0  0  0  0  0  0  0  0
   10.6282   48.2431   53.9039 H   0  0  0  0  0  0  0  0  0  0  0  0
   10.6189   46.6436   54.7003 H   0  0  0  0  0  0  0  0  0  0  0  0
   10.7049   47.2155   51.8240 H   0  0  0  0  0  0  0  0  0  0  0  0
   10.7296   45.6311   52.5598 H   0  0  0  0  0  0  0  0  0  0  0  0
    2.3952   45.2661   54.9183 H   0  0  0  0  0  0  0  0  0  0  0  0
   -1.6395   43.5807   54.8128 H   0  0  0  0  0  0  0  0  0  0  0  0
  1  2  1  0
  2  3  1  0
  3  4  1  0
  4  5  1  0
  5  6  2  0
  6  7  1  0
  7  8  1  0
  8  9  1  0
  9 10  2  0
 10 11  1  0
 11 12  1  0
 12 13  2  0
 12 14  1  0
 10 15  1  0
 15 16  1  0
 16 17  1  0
  2 18  1  0
 18 19  2  0
 19 20  1  0
 20 21  1  0
 20 22  2  0
 22 23  1  0
 14  5  1  0
 23 18  1  0
 11  7  2  0
 17  9  1  0
  1 24  1  0
  1 25  1  0
  1 26  1  0
  2 27  1  1
  3 28  1  0
  4 29  1  0
  4 30  1  0
 14 31  1  0
 15 32  1  0
 15 33  1  0
 16 34  1  0
 16 35  1  0
 17 36  1  0
 17 37  1  0
 19 38  1  0
 22 39  1  0
M  END
>  <meeko>  (1) 
{"is_sidechain": [false], "free_energy": -8.725, "intermolecular_energy": -10.765, "internal_energy": -0.478}

$$$$
ligand_21_conformer_3_docked
     RDKit          3D

 39 42  0  0  0  0  0  0  0  0999 V2000
    0.6320   43.2920   51.4640 C   0  0  0  0  0  0  0  0  0  0  0  0
    0.8150   42.6620   52.8440 C   0  0  1  0  0  0  0  0  0  0  0  0
    2.2440   42.3820   53.0740 N   0  0  0  0  0  0  0  0  0  0  0  0
    3.0550   42.6760   51.8860 C   0  0  0  0  0  0  0  0  0  0  0  0
    4.1450   43.6380   52.2480 C   0  0  0  0  0  0  0  0  0  0  0  0
    5.0260   44.0460   51.2860 N   0  0  0  0  0  0  0  0  0  0  0  0
    6.0270   44.8910   51.6280 C   0  0  0  0  0  0  0  0  0  0  0  0
    7.2210   45.5200   50.5990 S   0  0  0  0  0  0  0  0  0  0  0  0
    7.9350   46.3850   51.8650 C   0  0  0  0  0  0  0  0  0  0  0  0
    7.2850   46.1960   53.0330 C   0  0  0  0  0  0  0  0  0  0  0  0
    6.1880   45.3440   52.9260 C   0  0  0  0  0  0  0  0  0  0  0  0
    5.2960   44.9160   53.9050 C   0  0  0  0  0  0  0  0  0  0  0  0
    5.4080   45.3000   55.1000 O   0  0  0  0  0  0  0  0  0  0  0  0
    4.2890   44.0640   53.5440 N   0  0  0  0  0  0  0  0  0  0  0  0
    7.9030   46.9360   54.1510 C   0  0  0  0  0  0  0  0  0  0  0  0
    9.0990   47.6560   53.4710 C   0  0  0  0  0  0  0  0  0  0  0  0
    9.1020   47.2750   51.9680 C   0  0  0  0  0  0  0  0  0  0  0  0
    0.2400   43.5590   53.9140 C   0  0  0  0  0  0  0  0  0  0  0  0
    0.9500   44.2340   54.9020 C   0  0  0  0  0  0  0  0  0  0  0  0
    0.1280   44.9740   55.7590 C   0  0  0  0  0  0  0  0  0  0  0  0
    0.8040   46.0050   57.2150 Br  0  0  0  0  0  0  0  0  0  0  0  0
   -1.2250   44.8870   55.4570 C   0  0  0  0  0  0  0  0  0  0  0  0
   -1.3970   43.8840   54.1190 S   0  0  0  0  0  0  0  0  0  0  0  0
    0.3268   44.3426   51.5781 H   0  0  0  0  0  0  0  0  0  0  0  0
    1.5812   43.2440   50.9102 H   0  0  0  0  0  0  0  0  0  0  0  0
   -0.1438   42.7429   50.9102 H   0  0  0  0  0  0  0  0  0  0  0  0
    0.2677   41.7089   52.8890 H   0  0  0  0  0  0  0  0  0  0  0  0
    2.3690   41.3720   53.3260 H   0  0  0  0  0  0  0  0  0  0  0  0
    3.4999   41.7443   51.5066 H   0  0  0  0  0  0  0  0  0  0  0  0
    2.4169   43.1220   51.1089 H   0  0  0  0  0  0  0  0  0  0  0  0
    3.6190   43.7310   54.2750 H   0  0  0  0  0  0  0  0  0  0  0  0
    7.1981   47.6615   54.5831 H   0  0  0  0  0  0  0  0  0  0  0  0
    8.2044   46.2879   54.9871 H   0  0  0  0  0  0  0  0  0  0  0  0
    8.9883   48.7451   53.5790 H   0  0  0  0  0  0  0  0  0  0  0  0
   10.0447   47.3505   53.9426 H   0  0  0  0  0  0  0  0  0  0  0  0
    8.9816   48.1643   51.3319 H   0  0  0  0  0  0  0  0  0  0  0  0
   10.0409   46.8087   51.6348 H   0  0  0  0  0  0  0  0  0  0  0  0
    2.0448   44.1904   54.9993 H   0  0  0  0  0  0  0  0  0  0  0  0
   -2.0413   45.3871   55.9988 H   0  0  0  0  0  0  0  0  0  0  0  0
  1  2  1  0
  2  3  1  0
  3  4  1  0
  4  5  1  0
  5  6  2  0
  6  7  1  0
  7  8  1  0
  8  9  1  0
  9 10  2  0
 10 11  1  0
 11 12  1  0
 12 13  2  0
 12 14  1  0
 10 15  1  0
 15 16  1  0
 16 17  1  0
  2 18  1  0
 18 19  2  0
 19 20  1  0
 20 21  1  0
 20 22  2  0
 22 23  1  0
 14  5  1  0
 23 18  1  0
 11  7  2  0
 17  9  1  0
  1 24  1  0
  1 25  1  0
  1 26  1  0
  2 27  1  6
  3 28  1  0
  4 29  1  0
  4 30  1  0
 14 31  1  0
 15 32  1  0
 15 33  1  0
 16 34  1  0
 16 35  1  0
 17 36  1  0
 17 37  1  0
 19 38  1  0
 22 39  1  0
M  END
>  <meeko>  (2) 
{"is_sidechain": [false], "free_energy": -8.659, "intermolecular_energy": -10.648, "internal_energy": -0.514}

$$$$
ligand_21_conformer_3_docked
     RDKit          3D

 39 42  0  0  0  0  0  0  0  0999 V2000
    0.8070   44.0820   51.7350 C   0  0  0  0  0  0  0  0  0  0  0  0
    0.9550   43.1590   52.9440 C   0  0  1  0  0  0  0  0  0  0  0  0
    2.3550   42.7130   53.0560 N   0  0  0  0  0  0  0  0  0  0  0  0
    3.0660   42.8180   51.7770 C   0  0  0  0  0  0  0  0  0  0  0  0
    4.2890   43.6670   51.9490 C   0  0  0  0  0  0  0  0  0  0  0  0
    4.5260   44.2640   53.1550 N   0  0  0  0  0  0  0  0  0  0  0  0
    5.6160   45.0540   53.2940 C   0  0  0  0  0  0  0  0  0  0  0  0
    6.0980   45.8840   54.6930 S   0  0  0  0  0  0  0  0  0  0  0  0
    7.4510   46.5310   53.9110 C   0  0  0  0  0  0  0  0  0  0  0  0
    7.5290   46.1290   52.6240 C   0  0  0  0  0  0  0  0  0  0  0  0
    6.4900   45.2830   52.2450 C   0  0  0  0  0  0  0  0  0  0  0  0
    6.2370   44.6820   51.0140 C   0  0  0  0  0  0  0  0  0  0  0  0
    7.0040   44.8660   50.0310 O   0  0  0  0  0  0  0  0  0  0  0  0
    5.1340   43.8850   50.8900 N   0  0  0  0  0  0  0  0  0  0  0  0
    8.6990   46.6940   51.9240 C   0  0  0  0  0  0  0  0  0  0  0  0
    9.3800   47.5530   53.0240 C   0  0  0  0  0  0  0  0  0  0  0  0
    8.5380   47.4340   54.3210 C   0  0  0  0  0  0  0  0  0  0  0  0
    0.4850   43.8540   54.1990 C   0  0  0  0  0  0  0  0  0  0  0  0
   -0.7910   43.7980   54.7500 C   0  0  0  0  0  0  0  0  0  0  0  0
   -0.9210   44.5690   55.9110 C   0  0  0  0  0  0  0  0  0  0  0  0
   -2.5490   44.7000   56.8970 Br  0  0  0  0  0  0  0  0  0  0  0  0
    0.2420   45.2340   56.2800 C   0  0  0  0  0  0  0  0  0  0  0  0
    1.4340   44.8610   55.1550 S   0  0  0  0  0  0  0  0  0  0  0  0
    0.6416   45.1136   52.0793 H   0  0  0  0  0  0  0  0  0  0  0  0
    1.7233   44.0406   51.1277 H   0  0  0  0  0  0  0  0  0  0  0  0
   -0.0504   43.7562   51.1277 H   0  0  0  0  0  0  0  0  0  0  0  0
    0.3222   42.2695   52.8083 H   0  0  0  0  0  0  0  0  0  0  0  0
    2.3830   41.7150   53.3770 H   0  0  0  0  0  0  0  0  0  0  0  0
    3.3621   41.8138   51.4394 H   0  0  0  0  0  0  0  0  0  0  0  0
    2.4045   43.2784   51.0284 H   0  0  0  0  0  0  0  0  0  0  0  0
    4.9320   43.4360   49.9670 H   0  0  0  0  0  0  0  0  0  0  0  0
    9.3711   45.8981   51.5707 H   0  0  0  0  0  0  0  0  0  0  0  0
    8.4314   47.2705   51.0262 H   0  0  0  0  0  0  0  0  0  0  0  0
   10.3999   47.1838   53.2068 H   0  0  0  0  0  0  0  0  0  0  0  0
    9.4390   48.6037   52.7039 H   0  0  0  0  0  0  0  0  0  0  0  0
    9.1289   46.9989   55.1404 H   0  0  0  0  0  0  0  0  0  0  0  0
    8.1837   48.4020   54.7050 H   0  0  0  0  0  0  0  0  0  0  0  0
   -1.6131   43.2086   54.3179 H   0  0  0  0  0  0  0  0  0  0  0  0
    0.3617   45.8897   57.1551 H   0  0  0  0  0  0  0  0  0  0  0  0
  1  2  1  0
  2  3  1  0
  3  4  1  0
  4  5  1  0
  5  6  2  0
  6  7  1  0
  7  8  1  0
  8  9  1  0
  9 10  2  0
 10 11  1  0
 11 12  1  0
 12 13  2  0
 12 14  1  0
 10 15  1  0
 15 16  1  0
 16 17  1  0
  2 18  1  0
 18 19  2  0
 19 20  1  0
 20 21  1  0
 20 22  2  0
 22 23  1  0
 14  5  1  0
 23 18  1  0
 11  7  2  0
 17  9  1  0
  1 24  1  0
  1 25  1  0
  1 26  1  0
  2 27  1  6
  3 28  1  0
  4 29  1  0
  4 30  1  0
 14 31  1  0
 15 32  1  0
 15 33  1  0
 16 34  1  0
 16 35  1  0
 17 36  1  0
 17 37  1  0
 19 38  1  0
 22 39  1  0
M  END
>  <meeko>  (3) 
{"is_sidechain": [false], "free_energy": -8.115, "intermolecular_energy": -10.065, "internal_energy": -0.426}

$$$$
ligand_21_conformer_3_docked
     RDKit          3D

 39 42  0  0  0  0  0  0  0  0999 V2000
    0.0570   43.0480   52.5400 C   0  0  0  0  0  0  0  0  0  0  0  0
    1.1920   43.8570   51.9110 C   0  0  1  0  0  0  0  0  0  0  0  0
    1.6920   44.8440   52.8840 N   0  0  0  0  0  0  0  0  0  0  0  0
    2.0760   46.1040   52.2360 C   0  0  0  0  0  0  0  0  0  0  0  0
    3.5370   46.3540   52.4500 C   0  0  0  0  0  0  0  0  0  0  0  0
    4.4350   45.9260   51.5130 N   0  0  0  0  0  0  0  0  0  0  0  0
    5.7560   46.1280   51.7280 C   0  0  0  0  0  0  0  0  0  0  0  0
    7.0330   45.6810   50.7040 S   0  0  0  0  0  0  0  0  0  0  0  0
    8.1840   46.3090   51.7720 C   0  0  0  0  0  0  0  0  0  0  0  0
    7.6120   46.8380   52.8740 C   0  0  0  0  0  0  0  0  0  0  0  0
    6.2220   46.7470   52.8750 C   0  0  0  0  0  0  0  0  0  0  0  0
    5.3040   47.1720   53.8320 C   0  0  0  0  0  0  0  0  0  0  0  0
    5.6840   47.7360   54.8930 O   0  0  0  0  0  0  0  0  0  0  0  0
    3.9740   46.9620   53.6000 N   0  0  0  0  0  0  0  0  0  0  0  0
    8.6050   47.3810   53.8220 C   0  0  0  0  0  0  0  0  0  0  0  0
    9.9550   47.1000   53.1090 C   0  0  0  0  0  0  0  0  0  0  0  0
    9.6530   46.3900   51.7640 C   0  0  0  0  0  0  0  0  0  0  0  0
    2.2880   42.9380   51.4290 C   0  0  0  0  0  0  0  0  0  0  0  0
    2.3030   42.2160   50.2400 C   0  0  0  0  0  0  0  0  0  0  0  0
    3.4560   41.4370   50.0860 C   0  0  0  0  0  0  0  0  0  0  0  0
    3.7690   40.3320   48.5620 Br  0  0  0  0  0  0  0  0  0  0  0  0
    4.3510   41.5380   51.1440 C   0  0  0  0  0  0  0  0  0  0  0  0
    3.7020   42.6000   52.2750 S   0  0  0  0  0  0  0  0  0  0  0  0
    0.1322   43.1016   53.6361 H   0  0  0  0  0  0  0  0  0  0  0  0
   -0.9101   43.4616   52.2182 H   0  0  0  0  0  0  0  0  0  0  0  0
    0.1325   41.9988   52.2182 H   0  0  0  0  0  0  0  0  0  0  0  0
    0.8150   44.4028   51.0336 H   0  0  0  0  0  0  0  0  0  0  0  0
    2.5270   44.4540   53.3840 H   0  0  0  0  0  0  0  0  0  0  0  0
    1.8699   46.0387   51.1575 H   0  0  0  0  0  0  0  0  0  0  0  0
    1.4961   46.9307   52.6722 H   0  0  0  0  0  0  0  0  0  0  0  0
    3.2780   47.2710   54.3170 H   0  0  0  0  0  0  0  0  0  0  0  0
    8.4560   48.4599   53.9764 H   0  0  0  0  0  0  0  0  0  0  0  0
    8.5408   46.9308   54.8236 H   0  0  0  0  0  0  0  0  0  0  0  0
   10.4809   48.0475   52.9202 H   0  0  0  0  0  0  0  0  0  0  0  0
   10.5931   46.4639   53.7400 H   0  0  0  0  0  0  0  0  0  0  0  0
   10.0141   46.9833   50.9110 H   0  0  0  0  0  0  0  0  0  0  0  0
   10.1464   45.4121   51.6629 H   0  0  0  0  0  0  0  0  0  0  0  0
    1.4924   42.2533   49.4973 H   0  0  0  0  0  0  0  0  0  0  0  0
    5.3151   41.0150   51.2272 H   0  0  0  0  0  0  0  0  0  0  0  0
  1  2  1  0
  2  3  1  0
  3  4  1  0
  4  5  1  0
  5  6  2  0
  6  7  1  0
  7  8  1  0
  8  9  1  0
  9 10  2  0
 10 11  1  0
 11 12  1  0
 12 13  2  0
 12 14  1  0
 10 15  1  0
 15 16  1  0
 16 17  1  0
  2 18  1  0
 18 19  2  0
 19 20  1  0
 20 21  1  0
 20 22  2  0
 22 23  1  0
 14  5  1  0
 23 18  1  0
 11  7  2  0
 17  9  1  0
  1 24  1  0
  1 25  1  0
  1 26  1  0
  2 27  1  6
  3 28  1  0
  4 29  1  0
  4 30  1  0
 14 31  1  0
 15 32  1  0
 15 33  1  0
 16 34  1  0
 16 35  1  0
 17 36  1  0
 17 37  1  0
 19 38  1  0
 22 39  1  0
M  END
>  <meeko>  (4) 
{"is_sidechain": [false], "free_energy": -8.07, "intermolecular_energy": -9.935, "internal_energy": -0.502}

$$$$
ligand_21_conformer_3_docked
     RDKit          3D

 39 42  0  0  0  0  0  0  0  0999 V2000
    2.6620   42.6630   51.4740 C   0  0  0  0  0  0  0  0  0  0  0  0
    2.0260   43.9200   52.0680 C   0  0  1  0  0  0  0  0  0  0  0  0
    2.2420   45.0600   51.1600 N   0  0  0  0  0  0  0  0  0  0  0  0
    2.4220   46.3170   51.8940 C   0  0  0  0  0  0  0  0  0  0  0  0
    3.8680   46.4890   52.2490 C   0  0  0  0  0  0  0  0  0  0  0  0
    4.8280   46.0550   51.3790 N   0  0  0  0  0  0  0  0  0  0  0  0
    6.1310   46.1860   51.7190 C   0  0  0  0  0  0  0  0  0  0  0  0
    7.4750   45.7190   50.7950 S   0  0  0  0  0  0  0  0  0  0  0  0
    8.5510   46.2490   51.9870 C   0  0  0  0  0  0  0  0  0  0  0  0
    7.9040   46.7620   53.0560 C   0  0  0  0  0  0  0  0  0  0  0  0
    6.5180   46.7370   52.9290 C   0  0  0  0  0  0  0  0  0  0  0  0
    5.5350   47.1680   53.8170 C   0  0  0  0  0  0  0  0  0  0  0  0
    5.8420   47.6720   54.9310 O   0  0  0  0  0  0  0  0  0  0  0  0
    4.2240   47.0300   53.4580 N   0  0  0  0  0  0  0  0  0  0  0  0
    8.8290   47.2200   54.1120 C   0  0  0  0  0  0  0  0  0  0  0  0
   10.2250   46.9030   53.5100 C   0  0  0  0  0  0  0  0  0  0  0  0
   10.0160   46.2600   52.1150 C   0  0  0  0  0  0  0  0  0  0  0  0
    0.5590   43.6890   52.3410 C   0  0  0  0  0  0  0  0  0  0  0  0
   -0.3370   42.9970   51.5330 C   0  0  0  0  0  0  0  0  0  0  0  0
   -1.6370   42.9730   52.0520 C   0  0  0  0  0  0  0  0  0  0  0  0
   -3.0910   42.1040   51.1730 Br  0  0  0  0  0  0  0  0  0  0  0  0
   -1.7750   43.6410   53.2610 C   0  0  0  0  0  0  0  0  0  0  0  0
   -0.2720   44.2650   53.6850 S   0  0  0  0  0  0  0  0  0  0  0  0
    2.9964   42.0020   52.2872 H   0  0  0  0  0  0  0  0  0  0  0  0
    1.9222   42.1358   50.8537 H   0  0  0  0  0  0  0  0  0  0  0  0
    3.5250   42.9468   50.8537 H   0  0  0  0  0  0  0  0  0  0  0  0
    2.5037   44.1553   53.0305 H   0  0  0  0  0  0  0  0  0  0  0  0
    1.4190   45.1590   50.5180 H   0  0  0  0  0  0  0  0  0  0  0  0
    2.0970   47.1584   51.2644 H   0  0  0  0  0  0  0  0  0  0  0  0
    1.8202   46.2921   52.8145 H   0  0  0  0  0  0  0  0  0  0  0  0
    3.4790   47.3440   54.1230 H   0  0  0  0  0  0  0  0  0  0  0  0
    8.7139   48.2979   54.2990 H   0  0  0  0  0  0  0  0  0  0  0  0
    8.6541   46.7350   55.0837 H   0  0  0  0  0  0  0  0  0  0  0  0
   10.8065   47.8313   53.4089 H   0  0  0  0  0  0  0  0  0  0  0  0
   10.7749   46.2137   54.1677 H   0  0  0  0  0  0  0  0  0  0  0  0
   10.4798   46.8672   51.3237 H   0  0  0  0  0  0  0  0  0  0  0  0
   10.4726   45.2639   52.0180 H   0  0  0  0  0  0  0  0  0  0  0  0
   -0.0535   42.5181   50.5842 H   0  0  0  0  0  0  0  0  0  0  0  0
   -2.7045   43.7441   53.8402 H   0  0  0  0  0  0  0  0  0  0  0  0
  1  2  1  0
  2  3  1  0
  3  4  1  0
  4  5  1  0
  5  6  2  0
  6  7  1  0
  7  8  1  0
  8  9  1  0
  9 10  2  0
 10 11  1  0
 11 12  1  0
 12 13  2  0
 12 14  1  0
 10 15  1  0
 15 16  1  0
 16 17  1  0
  2 18  1  0
 18 19  2  0
 19 20  1  0
 20 21  1  0
 20 22  2  0
 22 23  1  0
 14  5  1  0
 23 18  1  0
 11  7  2  0
 17  9  1  0
  1 24  1  0
  1 25  1  0
  1 26  1  0
  2 27  1  1
  3 28  1  0
  4 29  1  0
  4 30  1  0
 14 31  1  0
 15 32  1  0
 15 33  1  0
 16 34  1  0
 16 35  1  0
 17 36  1  0
 17 37  1  0
 19 38  1  0
 22 39  1  0
M  END
>  <meeko>  (5) 
{"is_sidechain": [false], "free_energy": -8.053, "intermolecular_energy": -9.989, "internal_energy": -0.426}

$$$$
