MODEL 1
REMARK VINA RESULT:    -9.531      0.000      0.000
REMARK INTER + INTRA:         -12.348
REMARK INTER:                 -12.317
REMARK INTRA:                  -0.031
REMARK UNBOUND:                -0.031
REMARK SMILES Cc1cc(NC(=O)NC2CCN([C@@H](C)c3ccccc3)CC2)nn1-c1ccc(F)cc1F
REMARK SMILES IDX 5 1 6 2 7 3 8 4 4 7 2 8 3 9 24 10 23 11 1 12 25 13 26 14
REMARK SMILES IDX 31 15 27 16 30 17 28 18 32 19 29 20 9 21 10 22 22 23 11 24
REMARK SMILES IDX 21 25 12 26 13 27 14 28 15 29 16 30 20 31 17 32 19 33 18 34
REMARK H PARENT 5 5 8 6
ROOT
ATOM      1  N   UNL     1       0.135  44.078  53.012  1.00  0.00    -0.291 N 
ATOM      2  C   UNL     1       1.458  44.442  52.590  1.00  0.00     0.320 C 
ATOM      3  O   UNL     1       2.234  45.050  53.375  1.00  0.00    -0.248 OA
ATOM      4  N   UNL     1       1.894  44.103  51.264  1.00  0.00    -0.335 N 
ATOM      5  H   UNL     1      -0.479  43.571  52.336  1.00  0.00     0.173 HD
ATOM      6  H   UNL     1       1.206  43.655  50.618  1.00  0.00     0.165 HD
ENDROOT
BRANCH   1   7
ATOM      7  C   UNL     1      -0.393  44.362  54.315  1.00  0.00     0.156 A 
ATOM      8  C   UNL     1      -1.532  44.252  56.164  1.00  0.00     0.043 A 
ATOM      9  C   UNL     1      -1.376  43.623  54.945  1.00  0.00     0.072 A 
ATOM     10  N   UNL     1      -0.698  45.316  56.219  1.00  0.00    -0.233 N 
ATOM     11  N   UNL     1       0.012  45.378  55.102  1.00  0.00    -0.150 NA
ATOM     12  C   UNL     1      -2.458  43.799  57.252  1.00  0.00     0.067 C 
BRANCH  10  13
ATOM     13  C   UNL     1      -0.519  46.236  57.307  1.00  0.00     0.101 A 
ATOM     14  C   UNL     1       0.719  46.301  57.965  1.00  0.00     0.034 A 
ATOM     15  C   UNL     1      -1.552  47.109  57.695  1.00  0.00     0.151 A 
ATOM     16  C   UNL     1       0.912  47.197  59.020  1.00  0.00     0.041 A 
ATOM     17  C   UNL     1      -1.354  48.005  58.751  1.00  0.00     0.080 A 
ATOM     18  C   UNL     1      -0.125  48.045  59.416  1.00  0.00     0.126 A 
ATOM     19  F   UNL     1      -2.730  47.129  57.022  1.00  0.00    -0.205 F 
ATOM     20  F   UNL     1       0.064  48.915  60.438  1.00  0.00    -0.207 F 
ENDBRANCH  10  13
ENDBRANCH   1   7
BRANCH   4  21
ATOM     21  C   UNL     1       3.212  44.467  50.734  1.00  0.00     0.086 C 
ATOM     22  C   UNL     1       4.281  43.487  51.258  1.00  0.00     0.040 C 
ATOM     23  C   UNL     1       3.535  45.928  51.108  1.00  0.00     0.040 C 
ATOM     24  C   UNL     1       4.983  44.046  52.502  1.00  0.00     0.087 C 
ATOM     25  C   UNL     1       5.052  46.152  51.178  1.00  0.00     0.087 C 
ATOM     26  N   UNL     1       5.720  45.306  52.212  1.00  0.00    -0.296 NA
BRANCH  26  27
ATOM     27  C   UNL     1       6.043  46.076  53.448  1.00  0.00     0.083 C 
ATOM     28  C   UNL     1       5.755  45.280  54.737  1.00  0.00     0.030 C 
BRANCH  27  29
ATOM     29  C   UNL     1       7.512  46.466  53.468  1.00  0.00    -0.031 A 
ATOM     30  C   UNL     1       8.036  47.200  54.547  1.00  0.00     0.005 A 
ATOM     31  C   UNL     1       8.371  46.076  52.424  1.00  0.00     0.005 A 
ATOM     32  C   UNL     1       9.388  47.553  54.570  1.00  0.00     0.000 A 
ATOM     33  C   UNL     1       9.723  46.431  52.452  1.00  0.00     0.000 A 
ATOM     34  C   UNL     1      10.231  47.170  53.523  1.00  0.00     0.000 A 
ENDBRANCH  27  29
ENDBRANCH  26  27
ENDBRANCH   4  21
TORSDOF 5
ENDMDL
MODEL 2
REMARK VINA RESULT:    -9.495      1.623      2.234
REMARK INTER + INTRA:         -12.302
REMARK INTER:                 -11.882
REMARK INTRA:                  -0.420
REMARK UNBOUND:                -0.031
REMARK SMILES Cc1cc(NC(=O)NC2CCN([C@@H](C)c3ccccc3)CC2)nn1-c1ccc(F)cc1F
REMARK SMILES IDX 5 1 6 2 7 3 8 4 4 7 2 8 3 9 24 10 23 11 1 12 25 13 26 14
REMARK SMILES IDX 31 15 27 16 30 17 28 18 32 19 29 20 9 21 10 22 22 23 11 24
REMARK SMILES IDX 21 25 12 26 13 27 14 28 15 29 16 30 20 31 17 32 19 33 18 34
REMARK H PARENT 5 5 8 6
ROOT
ATOM      1  N   UNL     1       0.784  44.376  55.715  1.00  0.00    -0.291 N 
ATOM      2  C   UNL     1       1.269  44.686  54.400  1.00  0.00     0.320 C 
ATOM      3  O   UNL     1       0.733  45.603  53.722  1.00  0.00    -0.248 OA
ATOM      4  N   UNL     1       2.374  43.944  53.862  1.00  0.00    -0.335 N 
ATOM      5  H   UNL     1       1.256  43.612  56.249  1.00  0.00     0.173 HD
ATOM      6  H   UNL     1       2.755  43.149  54.423  1.00  0.00     0.165 HD
ENDROOT
BRANCH   1   7
ATOM      7  C   UNL     1      -0.306  45.062  56.346  1.00  0.00     0.156 A 
ATOM      8  C   UNL     1      -2.249  45.528  57.204  1.00  0.00     0.043 A 
ATOM      9  C   UNL     1      -1.561  44.523  56.553  1.00  0.00     0.072 A 
ATOM     10  N   UNL     1      -1.435  46.600  57.339  1.00  0.00    -0.233 N 
ATOM     11  N   UNL     1      -0.244  46.316  56.835  1.00  0.00    -0.150 NA
ATOM     12  C   UNL     1      -3.659  45.421  57.701  1.00  0.00     0.067 C 
BRANCH  10  13
ATOM     13  C   UNL     1      -1.733  47.854  57.971  1.00  0.00     0.101 A 
ATOM     14  C   UNL     1      -1.094  48.197  59.173  1.00  0.00     0.034 A 
ATOM     15  C   UNL     1      -2.623  48.770  57.379  1.00  0.00     0.151 A 
ATOM     16  C   UNL     1      -1.367  49.418  59.795  1.00  0.00     0.041 A 
ATOM     17  C   UNL     1      -2.893  49.991  58.006  1.00  0.00     0.080 A 
ATOM     18  C   UNL     1      -2.269  50.313  59.215  1.00  0.00     0.126 A 
ATOM     19  F   UNL     1      -3.190  48.504  56.176  1.00  0.00    -0.205 F 
ATOM     20  F   UNL     1      -2.531  51.497  59.819  1.00  0.00    -0.207 F 
ENDBRANCH  10  13
ENDBRANCH   1   7
BRANCH   4  21
ATOM     21  C   UNL     1       2.911  44.164  52.515  1.00  0.00     0.086 C 
ATOM     22  C   UNL     1       4.305  43.516  52.389  1.00  0.00     0.040 C 
ATOM     23  C   UNL     1       2.949  45.677  52.214  1.00  0.00     0.040 C 
ATOM     24  C   UNL     1       5.418  44.538  52.653  1.00  0.00     0.087 C 
ATOM     25  C   UNL     1       4.040  46.003  51.185  1.00  0.00     0.087 C 
ATOM     26  N   UNL     1       5.412  45.643  51.655  1.00  0.00    -0.296 NA
BRANCH  26  27
ATOM     27  C   UNL     1       6.179  46.835  52.118  1.00  0.00     0.083 C 
ATOM     28  C   UNL     1       5.832  47.240  53.566  1.00  0.00     0.030 C 
BRANCH  27  29
ATOM     29  C   UNL     1       7.674  46.565  52.064  1.00  0.00    -0.031 A 
ATOM     30  C   UNL     1       8.228  45.861  50.980  1.00  0.00     0.005 A 
ATOM     31  C   UNL     1       8.525  47.036  53.081  1.00  0.00     0.005 A 
ATOM     32  C   UNL     1       9.603  45.618  50.925  1.00  0.00     0.000 A 
ATOM     33  C   UNL     1       9.900  46.790  53.021  1.00  0.00     0.000 A 
ATOM     34  C   UNL     1      10.438  46.080  51.946  1.00  0.00     0.000 A 
ENDBRANCH  27  29
ENDBRANCH  26  27
ENDBRANCH   4  21
TORSDOF 5
ENDMDL
MODEL 3
REMARK VINA RESULT:    -8.787      1.776      2.277
REMARK INTER + INTRA:         -11.387
REMARK INTER:                 -11.222
REMARK INTRA:                  -0.165
REMARK UNBOUND:                -0.031
REMARK SMILES Cc1cc(NC(=O)NC2CCN([C@@H](C)c3ccccc3)CC2)nn1-c1ccc(F)cc1F
REMARK SMILES IDX 5 1 6 2 7 3 8 4 4 7 2 8 3 9 24 10 23 11 1 12 25 13 26 14
REMARK SMILES IDX 31 15 27 16 30 17 28 18 32 19 29 20 9 21 10 22 22 23 11 24
REMARK SMILES IDX 21 25 12 26 13 27 14 28 15 29 16 30 20 31 17 32 19 33 18 34
REMARK H PARENT 5 5 8 6
ROOT
ATOM      1  N   UNL     1       0.815  43.110  53.682  1.00  0.00    -0.291 N 
ATOM      2  C   UNL     1       1.625  43.758  52.690  1.00  0.00     0.320 C 
ATOM      3  O   UNL     1       1.269  44.864  52.200  1.00  0.00    -0.248 OA
ATOM      4  N   UNL     1       2.848  43.140  52.262  1.00  0.00    -0.335 N 
ATOM      5  H   UNL     1       1.144  42.196  54.069  1.00  0.00     0.173 HD
ATOM      6  H   UNL     1       3.082  42.195  52.642  1.00  0.00     0.165 HD
ENDROOT
BRANCH   1   7
ATOM      7  C   UNL     1      -0.417  43.646  54.183  1.00  0.00     0.156 A 
ATOM      8  C   UNL     1      -2.508  44.204  54.388  1.00  0.00     0.043 A 
ATOM      9  C   UNL     1      -1.627  43.594  53.518  1.00  0.00     0.072 A 
ATOM     10  N   UNL     1      -1.830  44.611  55.486  1.00  0.00    -0.233 N 
ATOM     11  N   UNL     1      -0.558  44.258  55.376  1.00  0.00    -0.150 NA
ATOM     12  C   UNL     1      -3.980  44.358  54.152  1.00  0.00     0.067 C 
BRANCH  10  13
ATOM     13  C   UNL     1      -2.356  45.272  56.647  1.00  0.00     0.101 A 
ATOM     14  C   UNL     1      -2.253  46.668  56.757  1.00  0.00     0.034 A 
ATOM     15  C   UNL     1      -3.016  44.549  57.658  1.00  0.00     0.151 A 
ATOM     16  C   UNL     1      -2.768  47.328  57.876  1.00  0.00     0.041 A 
ATOM     17  C   UNL     1      -3.529  45.214  58.776  1.00  0.00     0.080 A 
ATOM     18  C   UNL     1      -3.401  46.602  58.887  1.00  0.00     0.126 A 
ATOM     19  F   UNL     1      -3.205  43.211  57.538  1.00  0.00    -0.205 F 
ATOM     20  F   UNL     1      -3.901  47.244  59.971  1.00  0.00    -0.207 F 
ENDBRANCH  10  13
ENDBRANCH   1   7
BRANCH   4  21
ATOM     21  C   UNL     1       3.718  43.709  51.228  1.00  0.00     0.086 C 
ATOM     22  C   UNL     1       5.193  43.384  51.541  1.00  0.00     0.040 C 
ATOM     23  C   UNL     1       3.472  45.229  51.123  1.00  0.00     0.040 C 
ATOM     24  C   UNL     1       5.868  44.538  52.292  1.00  0.00     0.087 C 
ATOM     25  C   UNL     1       4.719  45.950  50.594  1.00  0.00     0.087 C 
ATOM     26  N   UNL     1       5.909  45.787  51.482  1.00  0.00    -0.296 NA
BRANCH  26  27
ATOM     27  C   UNL     1       6.161  46.999  52.314  1.00  0.00     0.083 C 
ATOM     28  C   UNL     1       5.250  47.069  53.556  1.00  0.00     0.030 C 
BRANCH  27  29
ATOM     29  C   UNL     1       7.602  47.025  52.801  1.00  0.00    -0.031 A 
ATOM     30  C   UNL     1       8.656  46.765  51.907  1.00  0.00     0.005 A 
ATOM     31  C   UNL     1       7.899  47.332  54.141  1.00  0.00     0.005 A 
ATOM     32  C   UNL     1       9.981  46.795  52.352  1.00  0.00     0.000 A 
ATOM     33  C   UNL     1       9.226  47.361  54.581  1.00  0.00     0.000 A 
ATOM     34  C   UNL     1      10.266  47.091  53.688  1.00  0.00     0.000 A 
ENDBRANCH  27  29
ENDBRANCH  26  27
ENDBRANCH   4  21
TORSDOF 5
ENDMDL
MODEL 4
REMARK VINA RESULT:    -8.424      7.474     10.609
REMARK INTER + INTRA:         -10.917
REMARK INTER:                 -10.193
REMARK INTRA:                  -0.724
REMARK UNBOUND:                -0.031
REMARK SMILES Cc1cc(NC(=O)NC2CCN([C@@H](C)c3ccccc3)CC2)nn1-c1ccc(F)cc1F
REMARK SMILES IDX 5 1 6 2 7 3 8 4 4 7 2 8 3 9 24 10 23 11 1 12 25 13 26 14
REMARK SMILES IDX 31 15 27 16 30 17 28 18 32 19 29 20 9 21 10 22 22 23 11 24
REMARK SMILES IDX 21 25 12 26 13 27 14 28 15 29 16 30 20 31 17 32 19 33 18 34
REMARK H PARENT 5 5 8 6
ROOT
ATOM      1  N   UNL     1       3.519  39.795  47.041  1.00  0.00    -0.291 N 
ATOM      2  C   UNL     1       3.639  40.053  48.449  1.00  0.00     0.320 C 
ATOM      3  O   UNL     1       3.130  39.261  49.287  1.00  0.00    -0.248 OA
ATOM      4  N   UNL     1       4.347  41.220  48.895  1.00  0.00    -0.335 N 
ATOM      5  H   UNL     1       3.957  40.471  46.376  1.00  0.00     0.173 HD
ATOM      6  H   UNL     1       4.702  41.887  48.174  1.00  0.00     0.165 HD
ENDROOT
BRANCH   1   7
ATOM      7  C   UNL     1       2.841  38.657  46.493  1.00  0.00     0.156 A 
ATOM      8  C   UNL     1       2.384  36.857  45.363  1.00  0.00     0.043 A 
ATOM      9  C   UNL     1       3.381  37.790  45.563  1.00  0.00     0.072 A 
ATOM     10  N   UNL     1       1.313  37.189  46.121  1.00  0.00    -0.233 N 
ATOM     11  N   UNL     1       1.592  38.275  46.826  1.00  0.00    -0.150 NA
ATOM     12  C   UNL     1       2.495  35.659  44.469  1.00  0.00     0.067 C 
BRANCH  10  13
ATOM     13  C   UNL     1       0.066  36.486  46.233  1.00  0.00     0.101 A 
ATOM     14  C   UNL     1      -0.985  36.794  45.355  1.00  0.00     0.034 A 
ATOM     15  C   UNL     1      -0.105  35.460  47.180  1.00  0.00     0.151 A 
ATOM     16  C   UNL     1      -2.203  36.114  45.446  1.00  0.00     0.041 A 
ATOM     17  C   UNL     1      -1.325  34.781  47.266  1.00  0.00     0.080 A 
ATOM     18  C   UNL     1      -2.375  35.111  46.403  1.00  0.00     0.126 A 
ATOM     19  F   UNL     1       0.921  35.082  47.984  1.00  0.00    -0.205 F 
ATOM     20  F   UNL     1      -3.555  34.451  46.489  1.00  0.00    -0.207 F 
ENDBRANCH  10  13
ENDBRANCH   1   7
BRANCH   4  21
ATOM     21  C   UNL     1       4.487  41.584  50.309  1.00  0.00     0.086 C 
ATOM     22  C   UNL     1       3.164  42.178  50.835  1.00  0.00     0.040 C 
ATOM     23  C   UNL     1       5.667  42.563  50.477  1.00  0.00     0.040 C 
ATOM     24  C   UNL     1       3.180  43.710  50.769  1.00  0.00     0.087 C 
ATOM     25  C   UNL     1       5.469  43.451  51.713  1.00  0.00     0.087 C 
ATOM     26  N   UNL     1       4.241  44.297  51.634  1.00  0.00    -0.296 NA
BRANCH  26  27
ATOM     27  C   UNL     1       4.553  45.711  51.274  1.00  0.00     0.083 C 
ATOM     28  C   UNL     1       3.427  46.688  51.670  1.00  0.00     0.030 C 
BRANCH  27  29
ATOM     29  C   UNL     1       5.825  46.172  51.968  1.00  0.00    -0.031 A 
ATOM     30  C   UNL     1       5.825  46.428  53.351  1.00  0.00     0.005 A 
ATOM     31  C   UNL     1       7.021  46.325  51.243  1.00  0.00     0.005 A 
ATOM     32  C   UNL     1       6.995  46.845  53.991  1.00  0.00     0.000 A 
ATOM     33  C   UNL     1       8.189  46.742  51.889  1.00  0.00     0.000 A 
ATOM     34  C   UNL     1       8.176  47.004  53.260  1.00  0.00     0.000 A 
ENDBRANCH  27  29
ENDBRANCH  26  27
ENDBRANCH   4  21
TORSDOF 5
ENDMDL
MODEL 5
REMARK VINA RESULT:    -8.386      3.145      8.762
REMARK INTER + INTRA:         -10.868
REMARK INTER:                 -11.086
REMARK INTRA:                   0.217
REMARK UNBOUND:                -0.031
REMARK SMILES Cc1cc(NC(=O)NC2CCN([C@@H](C)c3ccccc3)CC2)nn1-c1ccc(F)cc1F
REMARK SMILES IDX 5 1 6 2 7 3 8 4 4 7 2 8 3 9 24 10 23 11 1 12 25 13 26 14
REMARK SMILES IDX 31 15 27 16 30 17 28 18 32 19 29 20 9 21 10 22 22 23 11 24
REMARK SMILES IDX 21 25 12 26 13 27 14 28 15 29 16 30 20 31 17 32 19 33 18 34
REMARK H PARENT 5 5 8 6
ROOT
ATOM      1  N   UNL     1       2.009  46.218  52.144  1.00  0.00    -0.291 N 
ATOM      2  C   UNL     1       0.959  45.260  52.352  1.00  0.00     0.320 C 
ATOM      3  O   UNL     1       1.212  44.025  52.343  1.00  0.00    -0.248 OA
ATOM      4  N   UNL     1      -0.382  45.720  52.574  1.00  0.00    -0.335 N 
ATOM      5  H   UNL     1       1.763  47.233  52.161  1.00  0.00     0.173 HD
ATOM      6  H   UNL     1      -0.569  46.746  52.512  1.00  0.00     0.165 HD
ENDROOT
BRANCH   1   7
ATOM      7  C   UNL     1       3.381  45.863  51.922  1.00  0.00     0.156 A 
ATOM      8  C   UNL     1       5.185  44.918  51.162  1.00  0.00     0.043 A 
ATOM      9  C   UNL     1       3.809  44.873  51.059  1.00  0.00     0.072 A 
ATOM     10  N   UNL     1       5.527  45.869  52.062  1.00  0.00    -0.233 N 
ATOM     11  N   UNL     1       4.433  46.461  52.515  1.00  0.00    -0.150 NA
ATOM     12  C   UNL     1       6.134  44.064  50.377  1.00  0.00     0.067 C 
BRANCH  10  13
ATOM     13  C   UNL     1       6.848  46.263  52.463  1.00  0.00     0.101 A 
ATOM     14  C   UNL     1       7.712  46.850  51.525  1.00  0.00     0.034 A 
ATOM     15  C   UNL     1       7.277  46.115  53.795  1.00  0.00     0.151 A 
ATOM     16  C   UNL     1       8.998  47.247  51.901  1.00  0.00     0.041 A 
ATOM     17  C   UNL     1       8.564  46.514  54.167  1.00  0.00     0.080 A 
ATOM     18  C   UNL     1       9.426  47.076  53.220  1.00  0.00     0.126 A 
ATOM     19  F   UNL     1       6.434  45.630  54.742  1.00  0.00    -0.205 F 
ATOM     20  F   UNL     1      10.673  47.463  53.584  1.00  0.00    -0.207 F 
ENDBRANCH  10  13
ENDBRANCH   1   7
BRANCH   4  21
ATOM     21  C   UNL     1      -1.522  44.816  52.757  1.00  0.00     0.086 C 
ATOM     22  C   UNL     1      -2.810  45.630  52.994  1.00  0.00     0.040 C 
ATOM     23  C   UNL     1      -1.231  43.845  53.921  1.00  0.00     0.040 C 
ATOM     24  C   UNL     1      -3.102  45.784  54.492  1.00  0.00     0.087 C 
ATOM     25  C   UNL     1      -2.536  43.361  54.569  1.00  0.00     0.087 C 
ATOM     26  N   UNL     1      -3.345  44.473  55.153  1.00  0.00    -0.296 NA
BRANCH  26  27
ATOM     27  C   UNL     1      -3.210  44.548  56.637  1.00  0.00     0.083 C 
ATOM     28  C   UNL     1      -3.126  43.157  57.298  1.00  0.00     0.030 C 
BRANCH  27  29
ATOM     29  C   UNL     1      -1.955  45.315  57.023  1.00  0.00    -0.031 A 
ATOM     30  C   UNL     1      -2.052  46.624  57.527  1.00  0.00     0.005 A 
ATOM     31  C   UNL     1      -0.686  44.718  56.905  1.00  0.00     0.005 A 
ATOM     32  C   UNL     1      -0.900  47.328  57.889  1.00  0.00     0.000 A 
ATOM     33  C   UNL     1       0.463  45.427  57.269  1.00  0.00     0.000 A 
ATOM     34  C   UNL     1       0.357  46.731  57.758  1.00  0.00     0.000 A 
ENDBRANCH  27  29
ENDBRANCH  26  27
ENDBRANCH   4  21
TORSDOF 5
ENDMDL
