MODEL 1
REMARK VINA RESULT:   -10.185      0.000      0.000
REMARK INTER + INTRA:         -13.783
REMARK INTER:                 -13.162
REMARK INTRA:                  -0.621
REMARK UNBOUND:                -0.621
REMARK SMILES O=C(CSc1cccc(Br)c1)N1CCc2c(ncn2-c2ccc(F)cc2)C1
REMARK SMILES IDX 1 1 2 2 3 3 4 4 5 5 6 6 11 7 7 8 9 9 8 10 10 11 12 12 13 13
REMARK SMILES IDX 27 14 14 15 16 16 15 17 17 18 19 19 18 20 20 21 21 22 26 23
REMARK SMILES IDX 22 24 25 25 23 26 24 27
REMARK H PARENT
ROOT
ATOM      1  O   UNL     1       0.095  45.120  51.823  1.00  0.00    -0.274 OA
ATOM      2  C   UNL     1       1.314  44.873  51.615  1.00  0.00     0.233 C 
ENDROOT
BRANCH   2   3
ATOM      3  C   UNL     1       1.700  43.504  51.131  1.00  0.00     0.175 C 
BRANCH   3   4
ATOM      4  S   UNL     1       2.983  42.783  52.212  1.00  0.00    -0.116 SA
BRANCH   4   5
ATOM      5  C   UNL     1       4.030  42.227  50.863  1.00  0.00     0.009 A 
ATOM      6  C   UNL     1       3.621  41.166  50.045  1.00  0.00     0.015 A 
ATOM      7  C   UNL     1       5.251  42.868  50.611  1.00  0.00     0.030 A 
ATOM      8  C   UNL     1       4.437  40.735  48.995  1.00  0.00     0.002 A 
ATOM      9  C   UNL     1       6.066  42.437  49.558  1.00  0.00     0.019 A 
ATOM     10  C   UNL     1       5.661  41.366  48.755  1.00  0.00     0.016 A 
ATOM     11  Br  UNL     1       7.731  43.310  49.221  1.00  0.00    -0.051 Br
ENDBRANCH   4   5
ENDBRANCH   3   4
ENDBRANCH   2   3
BRANCH   2  12
ATOM     12  N   UNL     1       2.300  45.879  51.911  1.00  0.00    -0.336 N 
ATOM     13  C   UNL     1       3.254  46.364  50.895  1.00  0.00     0.126 C 
ATOM     14  C   UNL     1       2.381  46.454  53.263  1.00  0.00     0.177 C 
ATOM     15  C   UNL     1       4.693  46.050  51.338  1.00  0.00     0.078 C 
ATOM     16  C   UNL     1       3.820  46.563  53.663  1.00  0.00     0.081 A 
ATOM     17  C   UNL     1       4.866  46.405  52.790  1.00  0.00     0.049 A 
ATOM     18  N   UNL     1       4.276  46.903  54.883  1.00  0.00    -0.239 NA
ATOM     19  N   UNL     1       6.013  46.618  53.465  1.00  0.00    -0.303 N 
ATOM     20  C   UNL     1       5.621  46.925  54.724  1.00  0.00     0.205 A 
BRANCH  19  21
ATOM     21  C   UNL     1       7.367  46.579  52.980  1.00  0.00     0.047 A 
ATOM     22  C   UNL     1       7.651  46.187  51.660  1.00  0.00     0.029 A 
ATOM     23  C   UNL     1       8.434  46.901  53.838  1.00  0.00     0.029 A 
ATOM     24  C   UNL     1       8.971  46.135  51.204  1.00  0.00     0.041 A 
ATOM     25  C   UNL     1       9.753  46.851  53.379  1.00  0.00     0.041 A 
ATOM     26  C   UNL     1      10.022  46.469  52.062  1.00  0.00     0.123 A 
ATOM     27  F   UNL     1      11.302  46.419  51.618  1.00  0.00    -0.207 F 
ENDBRANCH  19  21
ENDBRANCH   2  12
TORSDOF 5
ENDMDL
MODEL 2
REMARK VINA RESULT:    -8.605      3.463      5.021
REMARK INTER + INTRA:         -11.741
REMARK INTER:                 -11.518
REMARK INTRA:                  -0.223
REMARK UNBOUND:                -0.621
REMARK SMILES O=C(CSc1cccc(Br)c1)N1CCc2c(ncn2-c2ccc(F)cc2)C1
REMARK SMILES IDX 1 1 2 2 3 3 4 4 5 5 6 6 11 7 7 8 9 9 8 10 10 11 12 12 13 13
REMARK SMILES IDX 27 14 14 15 16 16 15 17 17 18 19 19 18 20 20 21 21 22 26 23
REMARK SMILES IDX 22 24 25 25 23 26 24 27
REMARK H PARENT
ROOT
ATOM      1  O   UNL     1       1.693  43.722  50.827  1.00  0.00    -0.274 OA
ATOM      2  C   UNL     1       1.394  44.710  51.551  1.00  0.00     0.233 C 
ENDROOT
BRANCH   2   3
ATOM      3  C   UNL     1       0.005  44.795  52.117  1.00  0.00     0.175 C 
BRANCH   3   4
ATOM      4  S   UNL     1      -0.324  43.375  53.217  1.00  0.00    -0.116 SA
BRANCH   4   5
ATOM      5  C   UNL     1      -0.176  44.319  54.738  1.00  0.00     0.009 A 
ATOM      6  C   UNL     1       1.082  44.526  55.318  1.00  0.00     0.015 A 
ATOM      7  C   UNL     1      -1.317  44.869  55.338  1.00  0.00     0.030 A 
ATOM      8  C   UNL     1       1.197  45.260  56.502  1.00  0.00     0.002 A 
ATOM      9  C   UNL     1      -1.201  45.606  56.522  1.00  0.00     0.019 A 
ATOM     10  C   UNL     1       0.056  45.795  57.107  1.00  0.00     0.016 A 
ATOM     11  Br  UNL     1      -2.759  46.349  57.340  1.00  0.00    -0.051 Br
ENDBRANCH   4   5
ENDBRANCH   3   4
ENDBRANCH   2   3
BRANCH   2  12
ATOM     12  N   UNL     1       2.363  45.755  51.758  1.00  0.00    -0.336 N 
ATOM     13  C   UNL     1       3.358  46.115  50.731  1.00  0.00     0.126 C 
ATOM     14  C   UNL     1       2.381  46.499  53.027  1.00  0.00     0.177 C 
ATOM     15  C   UNL     1       4.777  45.873  51.272  1.00  0.00     0.078 C 
ATOM     16  C   UNL     1       3.800  46.671  53.472  1.00  0.00     0.081 A 
ATOM     17  C   UNL     1       4.885  46.412  52.674  1.00  0.00     0.049 A 
ATOM     18  N   UNL     1       4.201  47.169  54.658  1.00  0.00    -0.239 NA
ATOM     19  N   UNL     1       6.000  46.720  53.365  1.00  0.00    -0.303 N 
ATOM     20  C   UNL     1       5.551  47.182  54.556  1.00  0.00     0.205 A 
BRANCH  19  21
ATOM     21  C   UNL     1       7.375  46.632  52.949  1.00  0.00     0.047 A 
ATOM     22  C   UNL     1       7.711  46.188  51.658  1.00  0.00     0.029 A 
ATOM     23  C   UNL     1       8.407  46.959  53.847  1.00  0.00     0.029 A 
ATOM     24  C   UNL     1       9.050  46.089  51.269  1.00  0.00     0.041 A 
ATOM     25  C   UNL     1       9.744  46.861  53.454  1.00  0.00     0.041 A 
ATOM     26  C   UNL     1      10.067  46.428  52.166  1.00  0.00     0.123 A 
ATOM     27  F   UNL     1      11.365  46.331  51.787  1.00  0.00    -0.207 F 
ENDBRANCH  19  21
ENDBRANCH   2  12
TORSDOF 5
ENDMDL
MODEL 3
REMARK VINA RESULT:    -8.400      3.679      6.529
REMARK INTER + INTRA:         -11.476
REMARK INTER:                 -10.690
REMARK INTRA:                  -0.786
REMARK UNBOUND:                -0.621
REMARK SMILES O=C(CSc1cccc(Br)c1)N1CCc2c(ncn2-c2ccc(F)cc2)C1
REMARK SMILES IDX 1 1 2 2 3 3 4 4 5 5 6 6 11 7 7 8 9 9 8 10 10 11 12 12 13 13
REMARK SMILES IDX 27 14 14 15 16 16 15 17 17 18 19 19 18 20 20 21 21 22 26 23
REMARK SMILES IDX 22 24 25 25 23 26 24 27
REMARK H PARENT
ROOT
ATOM      1  O   UNL     1       7.371  47.447  54.096  1.00  0.00    -0.274 OA
ATOM      2  C   UNL     1       6.284  47.053  53.591  1.00  0.00     0.233 C 
ENDROOT
BRANCH   2   3
ATOM      3  C   UNL     1       5.066  46.980  54.468  1.00  0.00     0.175 C 
BRANCH   3   4
ATOM      4  S   UNL     1       4.982  45.363  55.311  1.00  0.00    -0.116 SA
BRANCH   4   5
ATOM      5  C   UNL     1       3.279  45.033  54.846  1.00  0.00     0.009 A 
ATOM      6  C   UNL     1       2.228  45.499  55.647  1.00  0.00     0.015 A 
ATOM      7  C   UNL     1       2.996  44.326  53.670  1.00  0.00     0.030 A 
ATOM      8  C   UNL     1       0.903  45.241  55.284  1.00  0.00     0.002 A 
ATOM      9  C   UNL     1       1.669  44.070  53.306  1.00  0.00     0.019 A 
ATOM     10  C   UNL     1       0.623  44.523  54.118  1.00  0.00     0.016 A 
ATOM     11  Br  UNL     1       1.287  43.102  51.705  1.00  0.00    -0.051 Br
ENDBRANCH   4   5
ENDBRANCH   3   4
ENDBRANCH   2   3
BRANCH   2  12
ATOM     12  N   UNL     1       6.257  46.623  52.217  1.00  0.00    -0.336 N 
ATOM     13  C   UNL     1       4.996  46.313  51.519  1.00  0.00     0.126 C 
ATOM     14  C   UNL     1       7.515  46.478  51.468  1.00  0.00     0.177 C 
ATOM     15  C   UNL     1       4.990  44.839  51.082  1.00  0.00     0.078 C 
ATOM     16  C   UNL     1       7.463  45.215  50.665  1.00  0.00     0.081 A 
ATOM     17  C   UNL     1       6.319  44.485  50.469  1.00  0.00     0.049 A 
ATOM     18  N   UNL     1       8.486  44.676  49.975  1.00  0.00    -0.239 NA
ATOM     19  N   UNL     1       6.615  43.445  49.664  1.00  0.00    -0.303 N 
ATOM     20  C   UNL     1       7.929  43.596  49.377  1.00  0.00     0.205 A 
BRANCH  19  21
ATOM     21  C   UNL     1       5.746  42.412  49.165  1.00  0.00     0.047 A 
ATOM     22  C   UNL     1       5.774  42.038  47.810  1.00  0.00     0.029 A 
ATOM     23  C   UNL     1       4.828  41.785  50.026  1.00  0.00     0.029 A 
ATOM     24  C   UNL     1       4.913  41.046  47.332  1.00  0.00     0.041 A 
ATOM     25  C   UNL     1       3.971  40.792  49.546  1.00  0.00     0.041 A 
ATOM     26  C   UNL     1       4.013  40.421  48.199  1.00  0.00     0.123 A 
ATOM     27  F   UNL     1       3.179  39.459  47.733  1.00  0.00    -0.207 F 
ENDBRANCH  19  21
ENDBRANCH   2  12
TORSDOF 5
ENDMDL
MODEL 4
REMARK VINA RESULT:    -8.399      4.430      7.146
REMARK INTER + INTRA:         -11.475
REMARK INTER:                 -10.577
REMARK INTRA:                  -0.898
REMARK UNBOUND:                -0.621
REMARK SMILES O=C(CSc1cccc(Br)c1)N1CCc2c(ncn2-c2ccc(F)cc2)C1
REMARK SMILES IDX 1 1 2 2 3 3 4 4 5 5 6 6 11 7 7 8 9 9 8 10 10 11 12 12 13 13
REMARK SMILES IDX 27 14 14 15 16 16 15 17 17 18 19 19 18 20 20 21 21 22 26 23
REMARK SMILES IDX 22 24 25 25 23 26 24 27
REMARK H PARENT
ROOT
ATOM      1  O   UNL     1       2.272  42.085  50.545  1.00  0.00    -0.274 OA
ATOM      2  C   UNL     1       2.519  42.870  51.501  1.00  0.00     0.233 C 
ENDROOT
BRANCH   2   3
ATOM      3  C   UNL     1       3.904  42.885  52.083  1.00  0.00     0.175 C 
BRANCH   3   4
ATOM      4  S   UNL     1       5.071  43.688  50.931  1.00  0.00    -0.116 SA
BRANCH   4   5
ATOM      5  C   UNL     1       5.683  44.876  52.132  1.00  0.00     0.009 A 
ATOM      6  C   UNL     1       5.269  44.803  53.468  1.00  0.00     0.015 A 
ATOM      7  C   UNL     1       6.594  45.865  51.739  1.00  0.00     0.030 A 
ATOM      8  C   UNL     1       5.746  45.728  54.401  1.00  0.00     0.002 A 
ATOM      9  C   UNL     1       7.073  46.789  52.675  1.00  0.00     0.019 A 
ATOM     10  C   UNL     1       6.643  46.724  54.005  1.00  0.00     0.016 A 
ATOM     11  Br  UNL     1       8.310  48.141  52.136  1.00  0.00    -0.051 Br
ENDBRANCH   4   5
ENDBRANCH   3   4
ENDBRANCH   2   3
BRANCH   2  12
ATOM     12  N   UNL     1       1.457  43.674  52.048  1.00  0.00    -0.336 N 
ATOM     13  C   UNL     1       1.653  45.090  52.409  1.00  0.00     0.126 C 
ATOM     14  C   UNL     1       0.127  43.084  52.267  1.00  0.00     0.177 C 
ATOM     15  C   UNL     1       1.414  45.283  53.916  1.00  0.00     0.078 C 
ATOM     16  C   UNL     1      -0.397  43.536  53.595  1.00  0.00     0.081 A 
ATOM     17  C   UNL     1       0.168  44.546  54.331  1.00  0.00     0.049 A 
ATOM     18  N   UNL     1      -1.513  43.085  54.199  1.00  0.00    -0.239 NA
ATOM     19  N   UNL     1      -0.578  44.728  55.438  1.00  0.00    -0.303 N 
ATOM     20  C   UNL     1      -1.590  43.836  55.323  1.00  0.00     0.205 A 
BRANCH  19  21
ATOM     21  C   UNL     1      -0.396  45.677  56.505  1.00  0.00     0.047 A 
ATOM     22  C   UNL     1       0.816  45.741  57.215  1.00  0.00     0.029 A 
ATOM     23  C   UNL     1      -1.449  46.534  56.875  1.00  0.00     0.029 A 
ATOM     24  C   UNL     1       0.976  46.654  58.262  1.00  0.00     0.041 A 
ATOM     25  C   UNL     1      -1.284  47.447  57.919  1.00  0.00     0.041 A 
ATOM     26  C   UNL     1      -0.073  47.509  58.612  1.00  0.00     0.123 A 
ATOM     27  F   UNL     1       0.084  48.394  59.627  1.00  0.00    -0.207 F 
ENDBRANCH  19  21
ENDBRANCH   2  12
TORSDOF 5
ENDMDL
MODEL 5
REMARK VINA RESULT:    -8.075      4.480      6.058
REMARK INTER + INTRA:         -11.056
REMARK INTER:                 -10.398
REMARK INTRA:                  -0.659
REMARK UNBOUND:                -0.621
REMARK SMILES O=C(CSc1cccc(Br)c1)N1CCc2c(ncn2-c2ccc(F)cc2)C1
REMARK SMILES IDX 1 1 2 2 3 3 4 4 5 5 6 6 11 7 7 8 9 9 8 10 10 11 12 12 13 13
REMARK SMILES IDX 27 14 14 15 16 16 15 17 17 18 19 19 18 20 20 21 21 22 26 23
REMARK SMILES IDX 22 24 25 25 23 26 24 27
REMARK H PARENT
ROOT
ATOM      1  O   UNL     1       3.074  39.546  48.788  1.00  0.00    -0.274 OA
ATOM      2  C   UNL     1       3.845  40.478  48.432  1.00  0.00     0.233 C 
ENDROOT
BRANCH   2   3
ATOM      3  C   UNL     1       3.878  40.873  46.983  1.00  0.00     0.175 C 
BRANCH   3   4
ATOM      4  S   UNL     1       2.892  39.707  45.981  1.00  0.00    -0.116 SA
BRANCH   4   5
ATOM      5  C   UNL     1       4.097  39.581  44.656  1.00  0.00     0.009 A 
ATOM      6  C   UNL     1       4.893  40.684  44.321  1.00  0.00     0.015 A 
ATOM      7  C   UNL     1       4.260  38.372  43.967  1.00  0.00     0.030 A 
ATOM      8  C   UNL     1       5.831  40.585  43.289  1.00  0.00     0.002 A 
ATOM      9  C   UNL     1       5.200  38.272  42.935  1.00  0.00     0.019 A 
ATOM     10  C   UNL     1       5.981  39.382  42.593  1.00  0.00     0.016 A 
ATOM     11  Br  UNL     1       5.415  36.624  41.994  1.00  0.00    -0.051 Br
ENDBRANCH   4   5
ENDBRANCH   3   4
ENDBRANCH   2   3
BRANCH   2  12
ATOM     12  N   UNL     1       4.716  41.087  49.404  1.00  0.00    -0.336 N 
ATOM     13  C   UNL     1       4.303  41.295  50.804  1.00  0.00     0.126 C 
ATOM     14  C   UNL     1       6.063  41.527  49.009  1.00  0.00     0.177 C 
ATOM     15  C   UNL     1       4.304  42.797  51.132  1.00  0.00     0.078 C 
ATOM     16  C   UNL     1       6.338  42.868  49.619  1.00  0.00     0.081 A 
ATOM     17  C   UNL     1       5.558  43.433  50.595  1.00  0.00     0.049 A 
ATOM     18  N   UNL     1       7.404  43.649  49.361  1.00  0.00    -0.239 NA
ATOM     19  N   UNL     1       6.114  44.608  50.950  1.00  0.00    -0.303 N 
ATOM     20  C   UNL     1       7.232  44.703  50.192  1.00  0.00     0.205 A 
BRANCH  19  21
ATOM     21  C   UNL     1       5.672  45.555  51.939  1.00  0.00     0.047 A 
ATOM     22  C   UNL     1       6.354  45.694  53.161  1.00  0.00     0.029 A 
ATOM     23  C   UNL     1       4.524  46.334  51.707  1.00  0.00     0.029 A 
ATOM     24  C   UNL     1       5.905  46.604  54.123  1.00  0.00     0.041 A 
ATOM     25  C   UNL     1       4.080  47.245  52.670  1.00  0.00     0.041 A 
ATOM     26  C   UNL     1       4.770  47.381  53.877  1.00  0.00     0.123 A 
ATOM     27  F   UNL     1       4.337  48.264  54.811  1.00  0.00    -0.207 F 
ENDBRANCH  19  21
ENDBRANCH   2  12
TORSDOF 5
ENDMDL
