ligand_45_conformer_4_docked
     RDKit          3D

 49 51  0  0  0  0  0  0  0  0999 V2000
   11.0930   47.5160   56.1420 C   0  0  0  0  0  0  0  0  0  0  0  0
    9.8700   47.3730   55.3350 N   0  0  0  0  0  0  0  0  0  0  0  0
    9.1390   48.6510   55.3220 C   0  0  0  0  0  0  0  0  0  0  0  0
   10.2050   46.9380   53.9610 C   0  0  0  0  0  0  0  0  0  0  0  0
    9.2050   47.5240   52.9560 C   0  0  0  0  0  0  0  0  0  0  0  0
    8.8830   46.5210   51.8800 C   0  0  0  0  0  0  0  0  0  0  0  0
    7.5570   46.3390   51.4600 C   0  0  0  0  0  0  0  0  0  0  0  0
    7.2470   45.3770   50.4930 C   0  0  0  0  0  0  0  0  0  0  0  0
    8.2600   44.5800   49.9380 C   0  0  0  0  0  0  0  0  0  0  0  0
    7.9300   43.5320   48.9080 C   0  0  0  0  0  0  0  0  0  0  0  0
    6.5600   43.0540   49.0780 N   0  0  0  0  0  0  0  0  0  0  0  0
    6.2470   41.8140   49.7270 C   0  0  0  0  0  0  0  0  0  0  0  0
    7.1690   41.0660   50.1460 O   0  0  0  0  0  0  0  0  0  0  0  0
    4.8200   41.4180   49.9500 C   0  0  0  0  0  0  0  0  0  0  0  0
    4.1690   42.3710   50.9140 C   0  0  0  0  0  0  0  0  0  0  0  0
    2.7590   42.4770   50.9670 C   0  0  0  0  0  0  0  0  0  0  0  0
    2.1410   43.3370   51.8890 C   0  0  0  0  0  0  0  0  0  0  0  0
    2.9520   44.0690   52.7510 C   0  0  0  0  0  0  0  0  0  0  0  0
    2.4920   45.1530   53.9470 S   0  0  0  0  0  0  0  0  0  0  0  0
    4.0690   45.5100   54.4460 C   0  0  0  0  0  0  0  0  0  0  0  0
    4.9690   44.7770   53.6750 C   0  0  0  0  0  0  0  0  0  0  0  0
    4.3340   43.9700   52.7240 C   0  0  0  0  0  0  0  0  0  0  0  0
    4.9630   43.1210   51.8100 C   0  0  0  0  0  0  0  0  0  0  0  0
    9.5860   44.7570   50.3640 C   0  0  0  0  0  0  0  0  0  0  0  0
    9.8950   45.7160   51.3340 C   0  0  0  0  0  0  0  0  0  0  0  0
   10.8330   47.4856   57.2104 H   0  0  0  0  0  0  0  0  0  0  0  0
   11.7842   46.6926   55.9093 H   0  0  0  0  0  0  0  0  0  0  0  0
   11.5756   48.4767   55.9093 H   0  0  0  0  0  0  0  0  0  0  0  0
    8.9524   48.9772   56.3558 H   0  0  0  0  0  0  0  0  0  0  0  0
    9.7388   49.4112   54.8002 H   0  0  0  0  0  0  0  0  0  0  0  0
    8.1796   48.5194   54.8002 H   0  0  0  0  0  0  0  0  0  0  0  0
   11.2181   47.2841   53.7081 H   0  0  0  0  0  0  0  0  0  0  0  0
   10.1577   45.8401   53.9127 H   0  0  0  0  0  0  0  0  0  0  0  0
    8.2795   47.7965   53.4844 H   0  0  0  0  0  0  0  0  0  0  0  0
    9.6531   48.4131   52.4884 H   0  0  0  0  0  0  0  0  0  0  0  0
    6.7564   46.9563   51.8936 H   0  0  0  0  0  0  0  0  0  0  0  0
    6.2050   45.2447   50.1663 H   0  0  0  0  0  0  0  0  0  0  0  0
    8.0388   43.9664   47.9033 H   0  0  0  0  0  0  0  0  0  0  0  0
    8.6187   42.6835   49.0337 H   0  0  0  0  0  0  0  0  0  0  0  0
    5.7790   43.6530   48.7230 H   0  0  0  0  0  0  0  0  0  0  0  0
    4.2805   41.4433   48.9917 H   0  0  0  0  0  0  0  0  0  0  0  0
    4.7875   40.4012   50.3684 H   0  0  0  0  0  0  0  0  0  0  0  0
    2.1414   41.8803   50.2797 H   0  0  0  0  0  0  0  0  0  0  0  0
    1.0456   43.4296   51.9288 H   0  0  0  0  0  0  0  0  0  0  0  0
    4.3404   46.2092   55.2507 H   0  0  0  0  0  0  0  0  0  0  0  0
    6.0607   44.8272   53.8003 H   0  0  0  0  0  0  0  0  0  0  0  0
    6.0596   43.0378   51.7884 H   0  0  0  0  0  0  0  0  0  0  0  0
   10.3864   44.1380   49.9325 H   0  0  0  0  0  0  0  0  0  0  0  0
   10.9350   45.8399   51.6703 H   0  0  0  0  0  0  0  0  0  0  0  0
  1  2  1  0
  2  3  1  0
  2  4  1  0
  4  5  1  0
  5  6  1  0
  6  7  2  0
  7  8  1  0
  8  9  2  0
  9 10  1  0
 10 11  1  0
 11 12  1  0
 12 13  2  0
 12 14  1  0
 14 15  1  0
 15 16  2  0
 16 17  1  0
 17 18  2  0
 18 19  1  0
 19 20  1  0
 20 21  2  0
 21 22  1  0
 22 23  2  0
  9 24  1  0
 24 25  2  0
 25  6  1  0
 23 15  1  0
 22 18  1  0
  1 26  1  0
  1 27  1  0
  1 28  1  0
  3 29  1  0
  3 30  1  0
  3 31  1  0
  4 32  1  0
  4 33  1  0
  5 34  1  0
  5 35  1  0
  7 36  1  0
  8 37  1  0
 10 38  1  0
 10 39  1  0
 11 40  1  0
 14 41  1  0
 14 42  1  0
 16 43  1  0
 17 44  1  0
 20 45  1  0
 21 46  1  0
 23 47  1  0
 24 48  1  0
 25 49  1  0
M  END
>  <meeko>  (1) 
{"is_sidechain": [false], "free_energy": -8.606, "intermolecular_energy": -12.127, "internal_energy": -1.075}

$$$$
ligand_45_conformer_4_docked
     RDKit          3D

 49 51  0  0  0  0  0  0  0  0999 V2000
   -1.2720   43.3540   52.3830 C   0  0  0  0  0  0  0  0  0  0  0  0
   -0.0210   42.5860   52.2710 N   0  0  0  0  0  0  0  0  0  0  0  0
    0.7160   43.0230   51.0720 C   0  0  0  0  0  0  0  0  0  0  0  0
    0.7990   42.7550   53.4900 C   0  0  0  0  0  0  0  0  0  0  0  0
    0.4380   44.0660   54.2000 C   0  0  0  0  0  0  0  0  0  0  0  0
    1.6000   45.0230   54.1740 C   0  0  0  0  0  0  0  0  0  0  0  0
    1.8260   45.8280   53.0470 C   0  0  0  0  0  0  0  0  0  0  0  0
    2.9300   46.6860   53.0000 C   0  0  0  0  0  0  0  0  0  0  0  0
    3.8260   46.7440   54.0780 C   0  0  0  0  0  0  0  0  0  0  0  0
    5.0250   47.6540   54.0260 C   0  0  0  0  0  0  0  0  0  0  0  0
    5.7570   47.4740   52.7750 N   0  0  0  0  0  0  0  0  0  0  0  0
    7.0400   46.8370   52.7130 C   0  0  0  0  0  0  0  0  0  0  0  0
    7.6030   46.4390   53.7660 O   0  0  0  0  0  0  0  0  0  0  0  0
    7.7030   46.6010   51.3900 C   0  0  0  0  0  0  0  0  0  0  0  0
    7.2110   45.3120   50.7930 C   0  0  0  0  0  0  0  0  0  0  0  0
    7.9610   44.6630   49.7840 C   0  0  0  0  0  0  0  0  0  0  0  0
    7.5280   43.4410   49.2470 C   0  0  0  0  0  0  0  0  0  0  0  0
    6.3520   42.8860   49.7400 C   0  0  0  0  0  0  0  0  0  0  0  0
    5.6110   41.4460   49.2950 S   0  0  0  0  0  0  0  0  0  0  0  0
    4.3220   41.5940   50.3820 C   0  0  0  0  0  0  0  0  0  0  0  0
    4.4650   42.7790   51.1030 C   0  0  0  0  0  0  0  0  0  0  0  0
    5.6090   43.4980   50.7360 C   0  0  0  0  0  0  0  0  0  0  0  0
    6.0260   44.7170   51.2790 C   0  0  0  0  0  0  0  0  0  0  0  0
    3.6050   45.9340   55.2030 C   0  0  0  0  0  0  0  0  0  0  0  0
    2.5020   45.0730   55.2480 C   0  0  0  0  0  0  0  0  0  0  0  0
   -1.5163   43.5040   53.4450 H   0  0  0  0  0  0  0  0  0  0  0  0
   -1.1473   44.3313   51.8939 H   0  0  0  0  0  0  0  0  0  0  0  0
   -2.0871   42.8005   51.8939 H   0  0  0  0  0  0  0  0  0  0  0  0
    1.6252   43.5621   51.3767 H   0  0  0  0  0  0  0  0  0  0  0  0
    0.9946   42.1440   50.4722 H   0  0  0  0  0  0  0  0  0  0  0  0
    0.0784   43.6891   50.4722 H   0  0  0  0  0  0  0  0  0  0  0  0
    0.6141   41.9112   54.1710 H   0  0  0  0  0  0  0  0  0  0  0  0
    1.8609   42.7846   53.2044 H   0  0  0  0  0  0  0  0  0  0  0  0
   -0.4212   44.5274   53.6912 H   0  0  0  0  0  0  0  0  0  0  0  0
    0.1868   43.8432   55.2475 H   0  0  0  0  0  0  0  0  0  0  0  0
    1.1310   45.7841   52.1955 H   0  0  0  0  0  0  0  0  0  0  0  0
    3.0961   47.3174   52.1147 H   0  0  0  0  0  0  0  0  0  0  0  0
    4.6887   48.6987   54.1003 H   0  0  0  0  0  0  0  0  0  0  0  0
    5.6926   47.4069   54.8646 H   0  0  0  0  0  0  0  0  0  0  0  0
    5.3140   47.8120   51.8890 H   0  0  0  0  0  0  0  0  0  0  0  0
    7.4653   47.4320   50.7097 H   0  0  0  0  0  0  0  0  0  0  0  0
    8.7915   46.5397   51.5366 H   0  0  0  0  0  0  0  0  0  0  0  0
    8.8918   45.1204   49.4172 H   0  0  0  0  0  0  0  0  0  0  0  0
    8.1033   42.9356   48.4573 H   0  0  0  0  0  0  0  0  0  0  0  0
    3.5020   40.8705   50.5008 H   0  0  0  0  0  0  0  0  0  0  0  0
    3.7565   43.1124   51.8756 H   0  0  0  0  0  0  0  0  0  0  0  0
    5.4404   45.2049   52.0721 H   0  0  0  0  0  0  0  0  0  0  0  0
    4.3017   45.9760   56.0532 H   0  0  0  0  0  0  0  0  0  0  0  0
    2.3417   44.4333   56.1284 H   0  0  0  0  0  0  0  0  0  0  0  0
  1  2  1  0
  2  3  1  0
  2  4  1  0
  4  5  1  0
  5  6  1  0
  6  7  2  0
  7  8  1  0
  8  9  2  0
  9 10  1  0
 10 11  1  0
 11 12  1  0
 12 13  2  0
 12 14  1  0
 14 15  1  0
 15 16  2  0
 16 17  1  0
 17 18  2  0
 18 19  1  0
 19 20  1  0
 20 21  2  0
 21 22  1  0
 22 23  2  0
  9 24  1  0
 24 25  2  0
 25  6  1  0
 23 15  1  0
 22 18  1  0
  1 26  1  0
  1 27  1  0
  1 28  1  0
  3 29  1  0
  3 30  1  0
  3 31  1  0
  4 32  1  0
  4 33  1  0
  5 34  1  0
  5 35  1  0
  7 36  1  0
  8 37  1  0
 10 38  1  0
 10 39  1  0
 11 40  1  0
 14 41  1  0
 14 42  1  0
 16 43  1  0
 17 44  1  0
 20 45  1  0
 21 46  1  0
 23 47  1  0
 24 48  1  0
 25 49  1  0
M  END
>  <meeko>  (2) 
{"is_sidechain": [false], "free_energy": -8.095, "intermolecular_energy": -11.392, "internal_energy": -1.092}

$$$$
ligand_45_conformer_4_docked
     RDKit          3D

 49 51  0  0  0  0  0  0  0  0999 V2000
   10.3080   46.0690   51.6060 C   0  0  0  0  0  0  0  0  0  0  0  0
    9.5140   47.0310   52.3880 N   0  0  0  0  0  0  0  0  0  0  0  0
    8.5110   47.6640   51.5140 C   0  0  0  0  0  0  0  0  0  0  0  0
    8.8700   46.3570   53.5360 C   0  0  0  0  0  0  0  0  0  0  0  0
    8.0220   47.3550   54.3360 C   0  0  0  0  0  0  0  0  0  0  0  0
    6.6430   46.8040   54.5810 C   0  0  0  0  0  0  0  0  0  0  0  0
    6.4740   45.4610   54.9510 C   0  0  0  0  0  0  0  0  0  0  0  0
    5.1920   44.9340   55.1370 C   0  0  0  0  0  0  0  0  0  0  0  0
    4.0610   45.7420   54.9470 C   0  0  0  0  0  0  0  0  0  0  0  0
    2.6770   45.1760   55.1300 C   0  0  0  0  0  0  0  0  0  0  0  0
    2.4400   44.0800   54.1930 N   0  0  0  0  0  0  0  0  0  0  0  0
    1.8410   44.2790   52.9050 C   0  0  0  0  0  0  0  0  0  0  0  0
    1.4600   45.4260   52.5510 O   0  0  0  0  0  0  0  0  0  0  0  0
    1.7040   43.1320   51.9510 C   0  0  0  0  0  0  0  0  0  0  0  0
    3.0330   42.8300   51.3160 C   0  0  0  0  0  0  0  0  0  0  0  0
    3.2780   41.5590   50.7460 C   0  0  0  0  0  0  0  0  0  0  0  0
    4.5020   41.2800   50.1200 C   0  0  0  0  0  0  0  0  0  0  0  0
    5.4590   42.2890   50.0680 C   0  0  0  0  0  0  0  0  0  0  0  0
    6.9900   42.2410   49.3810 S   0  0  0  0  0  0  0  0  0  0  0  0
    7.3850   43.8390   49.7720 C   0  0  0  0  0  0  0  0  0  0  0  0
    6.3140   44.4230   50.4470 C   0  0  0  0  0  0  0  0  0  0  0  0
    5.2360   43.5450   50.6090 C   0  0  0  0  0  0  0  0  0  0  0  0
    4.0220   43.8360   51.2380 C   0  0  0  0  0  0  0  0  0  0  0  0
    4.2280   47.0840   54.5690 C   0  0  0  0  0  0  0  0  0  0  0  0
    5.5110   47.6100   54.3800 C   0  0  0  0  0  0  0  0  0  0  0  0
   10.8564   45.4046   52.2899 H   0  0  0  0  0  0  0  0  0  0  0  0
    9.6377   45.4701   50.9719 H   0  0  0  0  0  0  0  0  0  0  0  0
   11.0231   46.6135   50.9719 H   0  0  0  0  0  0  0  0  0  0  0  0
    7.7411   48.1499   52.1314 H   0  0  0  0  0  0  0  0  0  0  0  0
    9.0009   48.4169   50.8790 H   0  0  0  0  0  0  0  0  0  0  0  0
    8.0422   46.8978   50.8790 H   0  0  0  0  0  0  0  0  0  0  0  0
    8.2236   45.5479   53.1651 H   0  0  0  0  0  0  0  0  0  0  0  0
    9.6512   45.9462   54.1925 H   0  0  0  0  0  0  0  0  0  0  0  0
    8.5099   47.5503   55.3023 H   0  0  0  0  0  0  0  0  0  0  0  0
    7.9333   48.2869   53.7583 H   0  0  0  0  0  0  0  0  0  0  0  0
    7.3553   44.8188   55.0956 H   0  0  0  0  0  0  0  0  0  0  0  0
    5.0700   43.8818   55.4335 H   0  0  0  0  0  0  0  0  0  0  0  0
    2.5734   44.8006   56.1587 H   0  0  0  0  0  0  0  0  0  0  0  0
    1.9412   45.9709   54.9384 H   0  0  0  0  0  0  0  0  0  0  0  0
    2.7350   43.1160   54.4720 H   0  0  0  0  0  0  0  0  0  0  0  0
    1.3509   42.2445   52.4966 H   0  0  0  0  0  0  0  0  0  0  0  0
    0.9812   43.3994   51.1661 H   0  0  0  0  0  0  0  0  0  0  0  0
    2.5012   40.7817   50.7940 H   0  0  0  0  0  0  0  0  0  0  0  0
    4.7000   40.2905   49.6821 H   0  0  0  0  0  0  0  0  0  0  0  0
    8.3355   44.3378   49.5319 H   0  0  0  0  0  0  0  0  0  0  0  0
    6.3159   45.4605   50.8124 H   0  0  0  0  0  0  0  0  0  0  0  0
    3.8395   44.8329   51.6657 H   0  0  0  0  0  0  0  0  0  0  0  0
    3.3463   47.7248   54.4208 H   0  0  0  0  0  0  0  0  0  0  0  0
    5.6331   48.6591   54.0727 H   0  0  0  0  0  0  0  0  0  0  0  0
  1  2  1  0
  2  3  1  0
  2  4  1  0
  4  5  1  0
  5  6  1  0
  6  7  2  0
  7  8  1  0
  8  9  2  0
  9 10  1  0
 10 11  1  0
 11 12  1  0
 12 13  2  0
 12 14  1  0
 14 15  1  0
 15 16  2  0
 16 17  1  0
 17 18  2  0
 18 19  1  0
 19 20  1  0
 20 21  2  0
 21 22  1  0
 22 23  2  0
  9 24  1  0
 24 25  2  0
 25  6  1  0
 23 15  1  0
 22 18  1  0
  1 26  1  0
  1 27  1  0
  1 28  1  0
  3 29  1  0
  3 30  1  0
  3 31  1  0
  4 32  1  0
  4 33  1  0
  5 34  1  0
  5 35  1  0
  7 36  1  0
  8 37  1  0
 10 38  1  0
 10 39  1  0
 11 40  1  0
 14 41  1  0
 14 42  1  0
 16 43  1  0
 17 44  1  0
 20 45  1  0
 21 46  1  0
 23 47  1  0
 24 48  1  0
 25 49  1  0
M  END
>  <meeko>  (3) 
{"is_sidechain": [false], "free_energy": -7.79, "intermolecular_energy": -10.874, "internal_energy": -1.179}

$$$$
ligand_45_conformer_4_docked
     RDKit          3D

 49 51  0  0  0  0  0  0  0  0999 V2000
    1.2220   42.9920   53.4210 C   0  0  0  0  0  0  0  0  0  0  0  0
    1.7110   44.3470   53.1170 N   0  0  0  0  0  0  0  0  0  0  0  0
    1.3550   44.6970   51.7310 C   0  0  0  0  0  0  0  0  0  0  0  0
    1.1490   45.3260   54.0730 C   0  0  0  0  0  0  0  0  0  0  0  0
    1.9520   45.3170   55.3800 C   0  0  0  0  0  0  0  0  0  0  0  0
    3.3860   45.7000   55.1270 C   0  0  0  0  0  0  0  0  0  0  0  0
    4.4250   44.8340   55.5000 C   0  0  0  0  0  0  0  0  0  0  0  0
    5.7590   45.2040   55.3070 C   0  0  0  0  0  0  0  0  0  0  0  0
    6.0730   46.4510   54.7440 C   0  0  0  0  0  0  0  0  0  0  0  0
    7.5080   46.8620   54.5490 C   0  0  0  0  0  0  0  0  0  0  0  0
    8.0170   46.3700   53.2710 N   0  0  0  0  0  0  0  0  0  0  0  0
    8.0680   47.1850   52.0920 C   0  0  0  0  0  0  0  0  0  0  0  0
    7.6290   48.3650   52.1150 O   0  0  0  0  0  0  0  0  0  0  0  0
    8.6820   46.6540   50.8330 C   0  0  0  0  0  0  0  0  0  0  0  0
    7.9660   45.4050   50.4000 C   0  0  0  0  0  0  0  0  0  0  0  0
    8.5760   44.5160   49.4840 C   0  0  0  0  0  0  0  0  0  0  0  0
    7.9300   43.3290   49.1020 C   0  0  0  0  0  0  0  0  0  0  0  0
    6.6850   43.0510   49.6560 C   0  0  0  0  0  0  0  0  0  0  0  0
    5.7000   41.7170   49.3920 S   0  0  0  0  0  0  0  0  0  0  0  0
    4.4750   42.2190   50.4460 C   0  0  0  0  0  0  0  0  0  0  0  0
    4.8330   43.4410   51.0140 C   0  0  0  0  0  0  0  0  0  0  0  0
    6.0750   43.9010   50.5650 C   0  0  0  0  0  0  0  0  0  0  0  0
    6.7050   45.0880   50.9520 C   0  0  0  0  0  0  0  0  0  0  0  0
    5.0340   47.3220   54.3780 C   0  0  0  0  0  0  0  0  0  0  0  0
    3.6990   46.9520   54.5740 C   0  0  0  0  0  0  0  0  0  0  0  0
    1.1729   42.8560   54.5115 H   0  0  0  0  0  0  0  0  0  0  0  0
    0.2191   42.8587   52.9893 H   0  0  0  0  0  0  0  0  0  0  0  0
    1.9087   42.2489   52.9893 H   0  0  0  0  0  0  0  0  0  0  0  0
    0.5706   45.4682   51.7375 H   0  0  0  0  0  0  0  0  0  0  0  0
    2.2439   45.0825   51.2103 H   0  0  0  0  0  0  0  0  0  0  0  0
    0.9846   43.8016   51.2103 H   0  0  0  0  0  0  0  0  0  0  0  0
    1.1904   46.3315   53.6288 H   0  0  0  0  0  0  0  0  0  0  0  0
    0.1063   45.0530   54.2924 H   0  0  0  0  0  0  0  0  0  0  0  0
    1.5052   46.0353   56.0831 H   0  0  0  0  0  0  0  0  0  0  0  0
    1.9267   44.3020   55.8033 H   0  0  0  0  0  0  0  0  0  0  0  0
    4.1882   43.8574   55.9473 H   0  0  0  0  0  0  0  0  0  0  0  0
    6.5660   44.5153   55.5974 H   0  0  0  0  0  0  0  0  0  0  0  0
    7.5746   47.9599   54.5657 H   0  0  0  0  0  0  0  0  0  0  0  0
    8.1128   46.4306   55.3602 H   0  0  0  0  0  0  0  0  0  0  0  0
    8.3730   45.3870   53.2250 H   0  0  0  0  0  0  0  0  0  0  0  0
    8.6027   47.4128   50.0406 H   0  0  0  0  0  0  0  0  0  0  0  0
    9.7403   46.4182   51.0184 H   0  0  0  0  0  0  0  0  0  0  0  0
    9.5651   44.7567   49.0673 H   0  0  0  0  0  0  0  0  0  0  0  0
    8.3960   42.6380   48.3842 H   0  0  0  0  0  0  0  0  0  0  0  0
    3.5446   41.6690   50.6504 H   0  0  0  0  0  0  0  0  0  0  0  0
    4.2065   43.9843   51.7368 H   0  0  0  0  0  0  0  0  0  0  0  0
    6.2259   45.7644   51.6752 H   0  0  0  0  0  0  0  0  0  0  0  0
    5.2710   48.3005   53.9348 H   0  0  0  0  0  0  0  0  0  0  0  0
    2.8916   47.6446   54.2938 H   0  0  0  0  0  0  0  0  0  0  0  0
  1  2  1  0
  2  3  1  0
  2  4  1  0
  4  5  1  0
  5  6  1  0
  6  7  2  0
  7  8  1  0
  8  9  2  0
  9 10  1  0
 10 11  1  0
 11 12  1  0
 12 13  2  0
 12 14  1  0
 14 15  1  0
 15 16  2  0
 16 17  1  0
 17 18  2  0
 18 19  1  0
 19 20  1  0
 20 21  2  0
 21 22  1  0
 22 23  2  0
  9 24  1  0
 24 25  2  0
 25  6  1  0
 23 15  1  0
 22 18  1  0
  1 26  1  0
  1 27  1  0
  1 28  1  0
  3 29  1  0
  3 30  1  0
  3 31  1  0
  4 32  1  0
  4 33  1  0
  5 34  1  0
  5 35  1  0
  7 36  1  0
  8 37  1  0
 10 38  1  0
 10 39  1  0
 11 40  1  0
 14 41  1  0
 14 42  1  0
 16 43  1  0
 17 44  1  0
 20 45  1  0
 21 46  1  0
 23 47  1  0
 24 48  1  0
 25 49  1  0
M  END
>  <meeko>  (4) 
{"is_sidechain": [false], "free_energy": -7.783, "intermolecular_energy": -11.055, "internal_energy": -0.989}

$$$$
ligand_45_conformer_4_docked
     RDKit          3D

 49 51  0  0  0  0  0  0  0  0999 V2000
    0.2100   47.8970   59.6910 C   0  0  0  0  0  0  0  0  0  0  0  0
   -1.0960   47.6460   59.0590 N   0  0  0  0  0  0  0  0  0  0  0  0
   -1.8930   48.8850   59.0700 C   0  0  0  0  0  0  0  0  0  0  0  0
   -0.9140   47.1430   57.6800 C   0  0  0  0  0  0  0  0  0  0  0  0
    0.3780   46.3220   57.5760 C   0  0  0  0  0  0  0  0  0  0  0  0
    0.3400   45.4210   56.3710 C   0  0  0  0  0  0  0  0  0  0  0  0
   -0.8760   44.8670   55.9410 C   0  0  0  0  0  0  0  0  0  0  0  0
   -0.9080   43.9940   54.8490 C   0  0  0  0  0  0  0  0  0  0  0  0
    0.2760   43.6580   54.1760 C   0  0  0  0  0  0  0  0  0  0  0  0
    0.2490   42.7070   53.0090 C   0  0  0  0  0  0  0  0  0  0  0  0
    1.6020   42.2820   52.6570 N   0  0  0  0  0  0  0  0  0  0  0  0
    2.3210   42.8330   51.5450 C   0  0  0  0  0  0  0  0  0  0  0  0
    1.7800   43.6910   50.8000 O   0  0  0  0  0  0  0  0  0  0  0  0
    3.7390   42.4230   51.2850 C   0  0  0  0  0  0  0  0  0  0  0  0
    4.6710   43.5460   51.6450 C   0  0  0  0  0  0  0  0  0  0  0  0
    5.4370   44.1840   50.6410 C   0  0  0  0  0  0  0  0  0  0  0  0
    6.2830   45.2580   50.9610 C   0  0  0  0  0  0  0  0  0  0  0  0
    6.3370   45.6790   52.2860 C   0  0  0  0  0  0  0  0  0  0  0  0
    7.2420   46.9300   52.9470 S   0  0  0  0  0  0  0  0  0  0  0  0
    6.6770   46.7100   54.5270 C   0  0  0  0  0  0  0  0  0  0  0  0
    5.7710   45.6510   54.5460 C   0  0  0  0  0  0  0  0  0  0  0  0
    5.5860   45.0770   53.2830 C   0  0  0  0  0  0  0  0  0  0  0  0
    4.7420   44.0050   52.9790 C   0  0  0  0  0  0  0  0  0  0  0  0
    1.4940   44.2060   54.6090 C   0  0  0  0  0  0  0  0  0  0  0  0
    1.5270   45.0770   55.7050 C   0  0  0  0  0  0  0  0  0  0  0  0
    0.0981   47.8755   60.7851 H   0  0  0  0  0  0  0  0  0  0  0  0
    0.9233   47.1195   59.3800 H   0  0  0  0  0  0  0  0  0  0  0  0
    0.5843   48.8835   59.3800 H   0  0  0  0  0  0  0  0  0  0  0  0
   -2.0872   49.1868   60.1098 H   0  0  0  0  0  0  0  0  0  0  0  0
   -1.3381   49.6825   58.5542 H   0  0  0  0  0  0  0  0  0  0  0  0
   -2.8488   48.7107   58.5542 H   0  0  0  0  0  0  0  0  0  0  0  0
   -1.7701   46.5072   57.4102 H   0  0  0  0  0  0  0  0  0  0  0  0
   -0.8483   48.0000   56.9935 H   0  0  0  0  0  0  0  0  0  0  0  0
    1.2347   47.0064   57.4883 H   0  0  0  0  0  0  0  0  0  0  0  0
    0.4763   45.7013   58.4788 H   0  0  0  0  0  0  0  0  0  0  0  0
   -1.8088   45.1209   56.4658 H   0  0  0  0  0  0  0  0  0  0  0  0
   -1.8663   43.5687   54.5162 H   0  0  0  0  0  0  0  0  0  0  0  0
   -0.3487   41.8233   53.2772 H   0  0  0  0  0  0  0  0  0  0  0  0
   -0.1961   43.2211   52.1444 H   0  0  0  0  0  0  0  0  0  0  0  0
    2.0650   41.5580   53.2540 H   0  0  0  0  0  0  0  0  0  0  0  0
    3.9805   41.5393   51.8939 H   0  0  0  0  0  0  0  0  0  0  0  0
    3.8565   42.1831   50.2179 H   0  0  0  0  0  0  0  0  0  0  0  0
    5.3691   43.8354   49.5999 H   0  0  0  0  0  0  0  0  0  0  0  0
    6.8863   45.7528   50.1856 H   0  0  0  0  0  0  0  0  0  0  0  0
    6.9771   47.3078   55.4003 H   0  0  0  0  0  0  0  0  0  0  0  0
    5.2573   45.3041   55.4547 H   0  0  0  0  0  0  0  0  0  0  0  0
    4.1421   43.5260   53.7668 H   0  0  0  0  0  0  0  0  0  0  0  0
    2.4266   43.9500   54.0849 H   0  0  0  0  0  0  0  0  0  0  0  0
    2.4866   45.4932   56.0454 H   0  0  0  0  0  0  0  0  0  0  0  0
  1  2  1  0
  2  3  1  0
  2  4  1  0
  4  5  1  0
  5  6  1  0
  6  7  2  0
  7  8  1  0
  8  9  2  0
  9 10  1  0
 10 11  1  0
 11 12  1  0
 12 13  2  0
 12 14  1  0
 14 15  1  0
 15 16  2  0
 16 17  1  0
 17 18  2  0
 18 19  1  0
 19 20  1  0
 20 21  2  0
 21 22  1  0
 22 23  2  0
  9 24  1  0
 24 25  2  0
 25  6  1  0
 23 15  1  0
 22 18  1  0
  1 26  1  0
  1 27  1  0
  1 28  1  0
  3 29  1  0
  3 30  1  0
  3 31  1  0
  4 32  1  0
  4 33  1  0
  5 34  1  0
  5 35  1  0
  7 36  1  0
  8 37  1  0
 10 38  1  0
 10 39  1  0
 11 40  1  0
 14 41  1  0
 14 42  1  0
 16 43  1  0
 17 44  1  0
 20 45  1  0
 21 46  1  0
 23 47  1  0
 24 48  1  0
 25 49  1  0
M  END
>  <meeko>  (5) 
{"is_sidechain": [false], "free_energy": -7.657, "intermolecular_energy": -10.871, "internal_energy": -0.995}

$$$$
