MODEL 1
REMARK VINA RESULT:    -7.942      0.000      0.000
REMARK INTER + INTRA:         -10.245
REMARK INTER:                  -9.799
REMARK INTRA:                  -0.446
REMARK UNBOUND:                -0.446
REMARK SMILES CN1CCC[C@@H](N2CCN(C(=O)Cc3csc(-c4cccs4)n3)CC2)C1
REMARK SMILES IDX 7 1 8 2 9 3 10 4 24 5 25 6 11 7 12 8 6 9 2 10 3 11 26 12
REMARK SMILES IDX 4 13 5 14 1 15 13 16 14 17 15 18 23 19 16 20 17 21 18 22
REMARK SMILES IDX 19 23 22 24 20 25 21 26
REMARK H PARENT
ROOT
ATOM      1  N   UNL     1       1.757  45.147  53.736  1.00  0.00    -0.296 NA
ATOM      2  C   UNL     1       2.064  46.487  53.186  1.00  0.00     0.106 C 
ATOM      3  C   UNL     1       3.532  46.609  52.766  1.00  0.00     0.135 C 
ATOM      4  N   UNL     1       4.427  46.220  53.865  1.00  0.00    -0.340 N 
ATOM      5  C   UNL     1       4.086  45.044  54.683  1.00  0.00     0.135 C 
ATOM      6  C   UNL     1       2.576  44.958  54.958  1.00  0.00     0.106 C 
ATOM      7  C   UNL     1       5.780  46.724  53.924  1.00  0.00     0.228 C 
ATOM      8  O   UNL     1       6.435  46.629  54.997  1.00  0.00    -0.274 OA
ENDROOT
BRANCH   1   9
ATOM      9  C   UNL     1       1.856  44.012  52.759  1.00  0.00     0.071 C 
ATOM     10  N   UNL     1      -0.306  42.824  53.375  1.00  0.00    -0.305 NA
ATOM     11  C   UNL     1      -0.930  43.233  52.099  1.00  0.00     0.084 C 
ATOM     12  C   UNL     1       1.169  42.721  53.291  1.00  0.00     0.103 C 
ATOM     13  C   UNL     1      -0.290  44.495  51.500  1.00  0.00     0.017 C 
ATOM     14  C   UNL     1       1.224  44.317  51.382  1.00  0.00     0.022 C 
ATOM     15  C   UNL     1      -0.781  43.614  54.521  1.00  0.00     0.105 C 
ENDBRANCH   1   9
BRANCH   7  16
ATOM     16  C   UNL     1       6.458  47.340  52.727  1.00  0.00     0.157 C 
BRANCH  16  17
ATOM     17  C   UNL     1       6.882  46.284  51.750  1.00  0.00     0.061 A 
ATOM     18  C   UNL     1       8.101  46.318  51.076  1.00  0.00     0.091 A 
ATOM     19  N   UNL     1       6.091  45.215  51.460  1.00  0.00    -0.240 NA
ATOM     20  S   UNL     1       8.167  44.973  50.070  1.00  0.00    -0.121 S 
ATOM     21  C   UNL     1       6.658  44.400  50.545  1.00  0.00     0.133 A 
BRANCH  21  22
ATOM     22  C   UNL     1       6.014  43.185  50.033  1.00  0.00     0.063 A 
ATOM     23  C   UNL     1       6.379  42.496  48.882  1.00  0.00     0.023 A 
ATOM     24  S   UNL     1       4.715  42.387  50.744  1.00  0.00    -0.141 S 
ATOM     25  C   UNL     1       5.588  41.366  48.642  1.00  0.00     0.012 A 
ATOM     26  C   UNL     1       4.602  41.161  49.598  1.00  0.00     0.065 A 
ENDBRANCH  21  22
ENDBRANCH  16  17
ENDBRANCH   7  16
TORSDOF 4
ENDMDL
MODEL 2
REMARK VINA RESULT:    -7.039      2.838      5.030
REMARK INTER + INTRA:          -9.131
REMARK INTER:                  -8.685
REMARK INTRA:                  -0.446
REMARK UNBOUND:                -0.446
REMARK SMILES CN1CCC[C@@H](N2CCN(C(=O)Cc3csc(-c4cccs4)n3)CC2)C1
REMARK SMILES IDX 7 1 8 2 9 3 10 4 24 5 25 6 11 7 12 8 6 9 2 10 3 11 26 12
REMARK SMILES IDX 4 13 5 14 1 15 13 16 14 17 15 18 23 19 16 20 17 21 18 22
REMARK SMILES IDX 19 23 22 24 20 25 21 26
REMARK H PARENT
ROOT
ATOM      1  N   UNL     1      -1.019  43.170  53.409  1.00  0.00    -0.296 NA
ATOM      2  C   UNL     1       0.048  42.283  53.926  1.00  0.00     0.106 C 
ATOM      3  C   UNL     1       1.413  42.616  53.315  1.00  0.00     0.135 C 
ATOM      4  N   UNL     1       1.340  42.634  51.847  1.00  0.00    -0.340 N 
ATOM      5  C   UNL     1       0.174  43.252  51.195  1.00  0.00     0.135 C 
ATOM      6  C   UNL     1      -1.131  42.943  51.948  1.00  0.00     0.106 C 
ATOM      7  C   UNL     1       2.524  42.400  51.051  1.00  0.00     0.228 C 
ATOM      8  O   UNL     1       2.408  42.127  49.826  1.00  0.00    -0.274 OA
ENDROOT
BRANCH   1   9
ATOM      9  C   UNL     1      -0.896  44.615  53.790  1.00  0.00     0.071 C 
ATOM     10  N   UNL     1      -3.347  45.059  54.299  1.00  0.00    -0.305 NA
ATOM     11  C   UNL     1      -3.062  45.151  55.747  1.00  0.00     0.084 C 
ATOM     12  C   UNL     1      -2.185  45.421  53.456  1.00  0.00     0.103 C 
ATOM     13  C   UNL     1      -1.788  44.393  56.153  1.00  0.00     0.017 C 
ATOM     14  C   UNL     1      -0.607  44.842  55.293  1.00  0.00     0.022 C 
ATOM     15  C   UNL     1      -3.980  43.785  53.922  1.00  0.00     0.105 C 
ENDBRANCH   1   9
BRANCH   7  16
ATOM     16  C   UNL     1       3.912  42.500  51.630  1.00  0.00     0.157 C 
BRANCH  16  17
ATOM     17  C   UNL     1       4.358  43.930  51.705  1.00  0.00     0.061 A 
ATOM     18  C   UNL     1       3.519  45.005  51.421  1.00  0.00     0.091 A 
ATOM     19  N   UNL     1       5.628  44.267  52.061  1.00  0.00    -0.240 NA
ATOM     20  S   UNL     1       4.414  46.415  51.602  1.00  0.00    -0.121 S 
ATOM     21  C   UNL     1       5.819  45.604  52.048  1.00  0.00     0.133 A 
BRANCH  21  22
ATOM     22  C   UNL     1       7.100  46.242  52.368  1.00  0.00     0.063 A 
ATOM     23  C   UNL     1       8.127  46.499  51.466  1.00  0.00     0.023 A 
ATOM     24  S   UNL     1       7.572  46.794  53.885  1.00  0.00    -0.141 S 
ATOM     25  C   UNL     1       9.233  47.125  52.053  1.00  0.00     0.012 A 
ATOM     26  C   UNL     1       9.083  47.363  53.413  1.00  0.00     0.065 A 
ENDBRANCH  21  22
ENDBRANCH  16  17
ENDBRANCH   7  16
TORSDOF 4
ENDMDL
MODEL 3
REMARK VINA RESULT:    -6.860      3.532      7.804
REMARK INTER + INTRA:          -8.910
REMARK INTER:                  -8.730
REMARK INTRA:                  -0.180
REMARK UNBOUND:                -0.446
REMARK SMILES CN1CCC[C@@H](N2CCN(C(=O)Cc3csc(-c4cccs4)n3)CC2)C1
REMARK SMILES IDX 7 1 8 2 9 3 10 4 24 5 25 6 11 7 12 8 6 9 2 10 3 11 26 12
REMARK SMILES IDX 4 13 5 14 1 15 13 16 14 17 15 18 23 19 16 20 17 21 18 22
REMARK SMILES IDX 19 23 22 24 20 25 21 26
REMARK H PARENT
ROOT
ATOM      1  N   UNL     1       6.576  46.326  53.688  1.00  0.00    -0.296 NA
ATOM      2  C   UNL     1       6.230  44.887  53.666  1.00  0.00     0.106 C 
ATOM      3  C   UNL     1       4.823  44.646  53.109  1.00  0.00     0.135 C 
ATOM      4  N   UNL     1       3.831  45.465  53.820  1.00  0.00    -0.340 N 
ATOM      5  C   UNL     1       4.162  46.860  54.154  1.00  0.00     0.135 C 
ATOM      6  C   UNL     1       5.626  47.008  54.599  1.00  0.00     0.106 C 
ATOM      7  C   UNL     1       2.443  45.062  53.864  1.00  0.00     0.228 C 
ATOM      8  O   UNL     1       1.666  45.595  54.703  1.00  0.00    -0.274 OA
ENDROOT
BRANCH   1   9
ATOM      9  C   UNL     1       6.700  46.979  52.343  1.00  0.00     0.071 C 
ATOM     10  N   UNL     1       9.062  47.883  52.602  1.00  0.00    -0.305 NA
ATOM     11  C   UNL     1       9.580  46.893  51.634  1.00  0.00     0.084 C 
ATOM     12  C   UNL     1       7.637  48.220  52.379  1.00  0.00     0.103 C 
ATOM     13  C   UNL     1       8.694  45.642  51.528  1.00  0.00     0.017 C 
ATOM     14  C   UNL     1       7.246  46.041  51.241  1.00  0.00     0.022 C 
ATOM     15  C   UNL     1       9.378  47.536  53.997  1.00  0.00     0.105 C 
ENDBRANCH   1   9
BRANCH   7  16
ATOM     16  C   UNL     1       1.875  44.038  52.917  1.00  0.00     0.157 C 
BRANCH  16  17
ATOM     17  C   UNL     1       0.380  44.142  52.851  1.00  0.00     0.061 A 
ATOM     18  C   UNL     1      -0.469  43.419  53.685  1.00  0.00     0.091 A 
ATOM     19  N   UNL     1      -0.244  44.959  51.959  1.00  0.00    -0.240 NA
ATOM     20  S   UNL     1      -2.050  43.808  53.267  1.00  0.00    -0.121 S 
ATOM     21  C   UNL     1      -1.589  44.884  52.060  1.00  0.00     0.133 A 
BRANCH  21  22
ATOM     22  C   UNL     1      -2.508  45.643  51.204  1.00  0.00     0.063 A 
ATOM     23  C   UNL     1      -3.169  46.813  51.559  1.00  0.00     0.023 A 
ATOM     24  S   UNL     1      -2.933  45.248  49.625  1.00  0.00    -0.141 S 
ATOM     25  C   UNL     1      -3.980  47.320  50.537  1.00  0.00     0.012 A 
ATOM     26  C   UNL     1      -3.961  46.556  49.378  1.00  0.00     0.065 A 
ENDBRANCH  21  22
ENDBRANCH  16  17
ENDBRANCH   7  16
TORSDOF 4
ENDMDL
MODEL 4
REMARK VINA RESULT:    -6.840      4.514      8.998
REMARK INTER + INTRA:          -8.886
REMARK INTER:                  -8.361
REMARK INTRA:                  -0.524
REMARK UNBOUND:                -0.446
REMARK SMILES CN1CCC[C@@H](N2CCN(C(=O)Cc3csc(-c4cccs4)n3)CC2)C1
REMARK SMILES IDX 7 1 8 2 9 3 10 4 24 5 25 6 11 7 12 8 6 9 2 10 3 11 26 12
REMARK SMILES IDX 4 13 5 14 1 15 13 16 14 17 15 18 23 19 16 20 17 21 18 22
REMARK SMILES IDX 19 23 22 24 20 25 21 26
REMARK H PARENT
ROOT
ATOM      1  N   UNL     1       5.819  47.231  53.295  1.00  0.00    -0.296 NA
ATOM      2  C   UNL     1       5.136  47.440  54.592  1.00  0.00     0.106 C 
ATOM      3  C   UNL     1       4.196  46.279  54.935  1.00  0.00     0.135 C 
ATOM      4  N   UNL     1       3.263  46.017  53.830  1.00  0.00    -0.340 N 
ATOM      5  C   UNL     1       3.765  46.053  52.446  1.00  0.00     0.135 C 
ATOM      6  C   UNL     1       4.781  47.187  52.237  1.00  0.00     0.106 C 
ATOM      7  C   UNL     1       1.992  45.376  54.080  1.00  0.00     0.228 C 
ATOM      8  O   UNL     1       1.089  45.418  53.200  1.00  0.00    -0.274 OA
ENDROOT
BRANCH   1   9
ATOM      9  C   UNL     1       6.779  46.080  53.251  1.00  0.00     0.071 C 
ATOM     10  N   UNL     1       8.653  47.228  51.971  1.00  0.00    -0.305 NA
ATOM     11  C   UNL     1       9.500  47.263  53.182  1.00  0.00     0.084 C 
ATOM     12  C   UNL     1       7.676  46.114  51.980  1.00  0.00     0.103 C 
ATOM     13  C   UNL     1       8.684  47.212  54.483  1.00  0.00     0.017 C 
ATOM     14  C   UNL     1       7.733  46.015  54.467  1.00  0.00     0.022 C 
ATOM     15  C   UNL     1       8.058  48.536  51.654  1.00  0.00     0.105 C 
ENDBRANCH   1   9
BRANCH   7  16
ATOM     16  C   UNL     1       1.709  44.626  55.355  1.00  0.00     0.157 C 
BRANCH  16  17
ATOM     17  C   UNL     1       0.431  45.098  55.982  1.00  0.00     0.061 A 
ATOM     18  C   UNL     1      -0.793  44.465  55.782  1.00  0.00     0.091 A 
ATOM     19  N   UNL     1       0.391  46.190  56.794  1.00  0.00    -0.240 NA
ATOM     20  S   UNL     1      -1.959  45.322  56.637  1.00  0.00    -0.121 S 
ATOM     21  C   UNL     1      -0.860  46.447  57.234  1.00  0.00     0.133 A 
BRANCH  21  22
ATOM     22  C   UNL     1      -1.194  47.578  58.106  1.00  0.00     0.063 A 
ATOM     23  C   UNL     1      -0.473  47.984  59.223  1.00  0.00     0.023 A 
ATOM     24  S   UNL     1      -2.511  48.609  57.919  1.00  0.00    -0.141 S 
ATOM     25  C   UNL     1      -1.025  49.100  59.862  1.00  0.00     0.012 A 
ATOM     26  C   UNL     1      -2.179  49.577  59.253  1.00  0.00     0.065 A 
ENDBRANCH  21  22
ENDBRANCH  16  17
ENDBRANCH   7  16
TORSDOF 4
ENDMDL
MODEL 5
REMARK VINA RESULT:    -6.752      3.852      7.808
REMARK INTER + INTRA:          -8.777
REMARK INTER:                  -8.437
REMARK INTRA:                  -0.340
REMARK UNBOUND:                -0.446
REMARK SMILES CN1CCC[C@@H](N2CCN(C(=O)Cc3csc(-c4cccs4)n3)CC2)C1
REMARK SMILES IDX 7 1 8 2 9 3 10 4 24 5 25 6 11 7 12 8 6 9 2 10 3 11 26 12
REMARK SMILES IDX 4 13 5 14 1 15 13 16 14 17 15 18 23 19 16 20 17 21 18 22
REMARK SMILES IDX 19 23 22 24 20 25 21 26
REMARK H PARENT
ROOT
ATOM      1  N   UNL     1       4.269  45.080  53.531  1.00  0.00    -0.296 NA
ATOM      2  C   UNL     1       3.992  43.752  52.939  1.00  0.00     0.106 C 
ATOM      3  C   UNL     1       2.541  43.632  52.462  1.00  0.00     0.135 C 
ATOM      4  N   UNL     1       1.604  43.989  53.536  1.00  0.00    -0.340 N 
ATOM      5  C   UNL     1       1.906  45.147  54.393  1.00  0.00     0.135 C 
ATOM      6  C   UNL     1       3.405  45.235  54.726  1.00  0.00     0.106 C 
ATOM      7  C   UNL     1       0.253  43.476  53.532  1.00  0.00     0.228 C 
ATOM      8  O   UNL     1      -0.442  43.541  54.583  1.00  0.00    -0.274 OA
ENDROOT
BRANCH   1   9
ATOM      9  C   UNL     1       4.199  46.237  52.578  1.00  0.00     0.071 C 
ATOM     10  N   UNL     1       6.230  47.514  53.419  1.00  0.00    -0.305 NA
ATOM     11  C   UNL     1       6.988  47.175  52.196  1.00  0.00     0.084 C 
ATOM     12  C   UNL     1       4.766  47.545  53.203  1.00  0.00     0.103 C 
ATOM     13  C   UNL     1       6.472  45.901  51.509  1.00  0.00     0.017 C 
ATOM     14  C   UNL     1       4.968  46.005  51.257  1.00  0.00     0.022 C 
ATOM     15  C   UNL     1       6.642  46.715  54.584  1.00  0.00     0.105 C 
ENDBRANCH   1   9
BRANCH   7  16
ATOM     16  C   UNL     1      -0.376  42.884  52.298  1.00  0.00     0.157 C 
BRANCH  16  17
ATOM     17  C   UNL     1      -1.631  43.620  51.932  1.00  0.00     0.061 A 
ATOM     18  C   UNL     1      -2.834  43.459  52.616  1.00  0.00     0.091 A 
ATOM     19  N   UNL     1      -1.670  44.501  50.895  1.00  0.00    -0.240 NA
ATOM     20  S   UNL     1      -3.980  44.439  51.874  1.00  0.00    -0.121 S 
ATOM     21  C   UNL     1      -2.900  45.035  50.731  1.00  0.00     0.133 A 
BRANCH  21  22
ATOM     22  C   UNL     1      -3.230  45.997  49.674  1.00  0.00     0.063 A 
ATOM     23  C   UNL     1      -3.593  47.325  49.869  1.00  0.00     0.023 A 
ATOM     24  S   UNL     1      -3.225  45.683  48.021  1.00  0.00    -0.141 S 
ATOM     25  C   UNL     1      -3.846  48.009  48.674  1.00  0.00     0.012 A 
ATOM     26  C   UNL     1      -3.685  47.227  47.538  1.00  0.00     0.065 A 
ENDBRANCH  21  22
ENDBRANCH  16  17
ENDBRANCH   7  16
TORSDOF 4
ENDMDL
