ligand_58_conformer_2_docked
     RDKit          3D

 45 48  0  0  0  0  0  0  0  0999 V2000
    3.7480   46.3250   50.3660 O   0  0  0  0  0  0  0  0  0  0  0  0
    4.3130   46.2070   51.4870 C   0  0  0  0  0  0  0  0  0  0  0  0
    5.7900   46.1540   51.5440 C   0  0  0  0  0  0  0  0  0  0  0  0
    6.5080   45.4100   50.5760 C   0  0  0  0  0  0  0  0  0  0  0  0
    7.9100   45.3550   50.6110 C   0  0  0  0  0  0  0  0  0  0  0  0
    8.5680   46.0580   51.6140 C   0  0  0  0  0  0  0  0  0  0  0  0
   10.2160   46.1850   51.9000 S   0  0  0  0  0  0  0  0  0  0  0  0
    9.9860   47.2000   53.2360 C   0  0  0  0  0  0  0  0  0  0  0  0
    8.6720   47.4430   53.4640 N   0  0  0  0  0  0  0  0  0  0  0  0
    7.8880   46.8040   52.5590 C   0  0  0  0  0  0  0  0  0  0  0  0
    6.4950   46.8680   52.5380 C   0  0  0  0  0  0  0  0  0  0  0  0
    3.5110   46.1050   52.6800 N   0  0  0  0  0  0  0  0  0  0  0  0
    2.1910   46.7380   52.7370 C   0  0  0  0  0  0  0  0  0  0  0  0
    1.0840   45.6720   52.7260 C   0  0  0  0  0  0  0  0  0  0  0  0
    1.4440   44.3620   53.5250 C   0  0  0  0  0  0  0  0  0  0  0  0
    0.2380   43.9100   54.3970 C   0  0  0  0  0  0  0  0  0  0  0  0
   -0.9420   43.3920   53.5620 C   0  0  0  0  0  0  0  0  0  0  0  0
   -0.5200   42.2210   52.6680 C   0  0  0  0  0  0  0  0  0  0  0  0
   -0.1550   41.1220   53.4640 O   0  0  0  0  0  0  0  0  0  0  0  0
    0.6420   42.6350   51.7550 C   0  0  0  0  0  0  0  0  0  0  0  0
    1.8320   43.2030   52.5520 C   0  0  0  0  0  0  0  0  0  0  0  0
    2.6390   44.6370   54.4850 C   0  0  0  0  0  0  0  0  0  0  0  0
    3.8810   45.1570   53.7410 C   0  0  0  0  0  0  0  0  0  0  0  0
    5.9614   44.8699   49.7889 H   0  0  0  0  0  0  0  0  0  0  0  0
    8.4721   44.7724   49.8663 H   0  0  0  0  0  0  0  0  0  0  0  0
   10.8039   47.6122   53.8451 H   0  0  0  0  0  0  0  0  0  0  0  0
    5.9529   47.4662   53.2852 H   0  0  0  0  0  0  0  0  0  0  0  0
    2.1133   47.3315   53.6599 H   0  0  0  0  0  0  0  0  0  0  0  0
    2.0690   47.3878   51.8579 H   0  0  0  0  0  0  0  0  0  0  0  0
    0.1783   46.1100   53.1708 H   0  0  0  0  0  0  0  0  0  0  0  0
    0.9408   45.3743   51.6768 H   0  0  0  0  0  0  0  0  0  0  0  0
    0.5725   43.1057   55.0688 H   0  0  0  0  0  0  0  0  0  0  0  0
   -0.1138   44.7900   54.9555 H   0  0  0  0  0  0  0  0  0  0  0  0
   -1.7403   43.0557   54.2399 H   0  0  0  0  0  0  0  0  0  0  0  0
   -1.2972   44.2100   52.9180 H   0  0  0  0  0  0  0  0  0  0  0  0
   -1.3699   41.9324   52.0320 H   0  0  0  0  0  0  0  0  0  0  0  0
   -0.4310   41.3360   54.3930 H   0  0  0  0  0  0  0  0  0  0  0  0
    0.9813   41.7536   51.1911 H   0  0  0  0  0  0  0  0  0  0  0  0
    0.2782   43.4246   51.0810 H   0  0  0  0  0  0  0  0  0  0  0  0
    2.2743   42.3875   53.1430 H   0  0  0  0  0  0  0  0  0  0  0  0
    2.5371   43.6226   51.8193 H   0  0  0  0  0  0  0  0  0  0  0  0
    2.3308   45.3888   55.2264 H   0  0  0  0  0  0  0  0  0  0  0  0
    2.9096   43.6850   54.9650 H   0  0  0  0  0  0  0  0  0  0  0  0
    4.5427   45.6635   54.4591 H   0  0  0  0  0  0  0  0  0  0  0  0
    4.3920   44.3001   53.2778 H   0  0  0  0  0  0  0  0  0  0  0  0
  1  2  2  0
  2  3  1  0
  3  4  2  0
  4  5  1  0
  5  6  2  0
  6  7  1  0
  7  8  1  0
  8  9  2  0
  9 10  1  0
 10 11  2  0
  2 12  1  0
 12 13  1  0
 13 14  1  0
 14 15  1  0
 15 16  1  0
 16 17  1  0
 17 18  1  0
 18 19  1  0
 18 20  1  0
 20 21  1  0
 15 22  1  0
 22 23  1  0
 11  3  1  0
 23 12  1  0
 10  6  1  0
 21 15  1  0
  4 24  1  0
  5 25  1  0
  8 26  1  0
 11 27  1  0
 13 28  1  0
 13 29  1  0
 14 30  1  0
 14 31  1  0
 16 32  1  0
 16 33  1  0
 17 34  1  0
 17 35  1  0
 18 36  1  0
 19 37  1  0
 20 38  1  0
 20 39  1  0
 21 40  1  0
 21 41  1  0
 22 42  1  0
 22 43  1  0
 23 44  1  0
 23 45  1  0
M  END
>  <meeko>  (1) 
{"is_sidechain": [false], "free_energy": -9.273, "intermolecular_energy": -10.086, "internal_energy": -0.131}

$$$$
ligand_58_conformer_2_docked
     RDKit          3D

 45 48  0  0  0  0  0  0  0  0999 V2000
    3.2850   47.1100   53.9120 O   0  0  0  0  0  0  0  0  0  0  0  0
    3.9940   46.0890   53.6960 C   0  0  0  0  0  0  0  0  0  0  0  0
    5.4040   46.2680   53.2850 C   0  0  0  0  0  0  0  0  0  0  0  0
    5.7700   46.1030   51.9280 C   0  0  0  0  0  0  0  0  0  0  0  0
    7.1020   46.2770   51.5200 C   0  0  0  0  0  0  0  0  0  0  0  0
    8.0420   46.6230   52.4830 C   0  0  0  0  0  0  0  0  0  0  0  0
    9.6860   46.9010   52.2950 S   0  0  0  0  0  0  0  0  0  0  0  0
    9.8960   47.2450   53.9400 C   0  0  0  0  0  0  0  0  0  0  0  0
    8.7310   47.1520   54.6280 N   0  0  0  0  0  0  0  0  0  0  0  0
    7.7040   46.8030   53.8110 C   0  0  0  0  0  0  0  0  0  0  0  0
    6.3850   46.6350   54.2330 C   0  0  0  0  0  0  0  0  0  0  0  0
    3.4120   44.7780   53.8350 N   0  0  0  0  0  0  0  0  0  0  0  0
    2.3090   44.5560   54.7730 C   0  0  0  0  0  0  0  0  0  0  0  0
    0.9970   44.3080   54.0100 C   0  0  0  0  0  0  0  0  0  0  0  0
    1.1730   43.4820   52.6800 C   0  0  0  0  0  0  0  0  0  0  0  0
    0.0670   42.3950   52.5670 C   0  0  0  0  0  0  0  0  0  0  0  0
   -1.3300   42.9870   52.3250 C   0  0  0  0  0  0  0  0  0  0  0  0
   -1.3590   43.8470   51.0570 C   0  0  0  0  0  0  0  0  0  0  0  0
   -1.1290   43.0400   49.9300 O   0  0  0  0  0  0  0  0  0  0  0  0
   -0.3090   44.9640   51.1430 C   0  0  0  0  0  0  0  0  0  0  0  0
    1.1010   44.4150   51.4290 C   0  0  0  0  0  0  0  0  0  0  0  0
    2.5490   42.7500   52.6860 C   0  0  0  0  0  0  0  0  0  0  0  0
    3.7280   43.7230   52.8610 C   0  0  0  0  0  0  0  0  0  0  0  0
    5.0034   45.8358   51.1857 H   0  0  0  0  0  0  0  0  0  0  0  0
    7.3933   46.1432   50.4677 H   0  0  0  0  0  0  0  0  0  0  0  0
   10.8611   47.5117   54.3955 H   0  0  0  0  0  0  0  0  0  0  0  0
    6.1129   46.7860   55.2881 H   0  0  0  0  0  0  0  0  0  0  0  0
    2.5358   43.6797   55.3981 H   0  0  0  0  0  0  0  0  0  0  0  0
    2.1914   45.4500   55.4030 H   0  0  0  0  0  0  0  0  0  0  0  0
    0.3119   43.7568   54.6709 H   0  0  0  0  0  0  0  0  0  0  0  0
    0.6064   45.2949   53.7213 H   0  0  0  0  0  0  0  0  0  0  0  0
    0.3153   41.7273   51.7289 H   0  0  0  0  0  0  0  0  0  0  0  0
    0.0355   41.8550   53.5248 H   0  0  0  0  0  0  0  0  0  0  0  0
   -2.0534   42.1654   52.2172 H   0  0  0  0  0  0  0  0  0  0  0  0
   -1.5899   43.6248   53.1827 H   0  0  0  0  0  0  0  0  0  0  0  0
   -2.3506   44.3140   50.9639 H   0  0  0  0  0  0  0  0  0  0  0  0
   -0.2490   42.6010   50.0650 H   0  0  0  0  0  0  0  0  0  0  0  0
   -0.2905   45.5074   50.1868 H   0  0  0  0  0  0  0  0  0  0  0  0
   -0.5886   45.6275   51.9747 H   0  0  0  0  0  0  0  0  0  0  0  0
    1.4354   43.8436   50.5506 H   0  0  0  0  0  0  0  0  0  0  0  0
    1.7456   45.2814   51.6382 H   0  0  0  0  0  0  0  0  0  0  0  0
    2.5613   42.0269   53.5148 H   0  0  0  0  0  0  0  0  0  0  0  0
    2.6677   42.2493   51.7138 H   0  0  0  0  0  0  0  0  0  0  0  0
    4.6060   43.1618   53.2133 H   0  0  0  0  0  0  0  0  0  0  0  0
    3.9324   44.1978   51.8900 H   0  0  0  0  0  0  0  0  0  0  0  0
  1  2  2  0
  2  3  1  0
  3  4  2  0
  4  5  1  0
  5  6  2  0
  6  7  1  0
  7  8  1  0
  8  9  2  0
  9 10  1  0
 10 11  2  0
  2 12  1  0
 12 13  1  0
 13 14  1  0
 14 15  1  0
 15 16  1  0
 16 17  1  0
 17 18  1  0
 18 19  1  0
 18 20  1  0
 20 21  1  0
 15 22  1  0
 22 23  1  0
 11  3  1  0
 23 12  1  0
 10  6  1  0
 21 15  1  0
  4 24  1  0
  5 25  1  0
  8 26  1  0
 11 27  1  0
 13 28  1  0
 13 29  1  0
 14 30  1  0
 14 31  1  0
 16 32  1  0
 16 33  1  0
 17 34  1  0
 17 35  1  0
 18 36  1  0
 19 37  1  0
 20 38  1  0
 20 39  1  0
 21 40  1  0
 21 41  1  0
 22 42  1  0
 22 43  1  0
 23 44  1  0
 23 45  1  0
M  END
>  <meeko>  (2) 
{"is_sidechain": [false], "free_energy": -8.274, "intermolecular_energy": -9.073, "internal_energy": -0.057}

$$$$
ligand_58_conformer_2_docked
     RDKit          3D

 45 48  0  0  0  0  0  0  0  0999 V2000
    3.8910   43.1470   52.7650 O   0  0  0  0  0  0  0  0  0  0  0  0
    3.3650   44.1610   53.2990 C   0  0  0  0  0  0  0  0  0  0  0  0
    1.9230   44.4170   53.0860 C   0  0  0  0  0  0  0  0  0  0  0  0
    1.4430   44.7170   51.7880 C   0  0  0  0  0  0  0  0  0  0  0  0
    0.0780   44.9550   51.5680 C   0  0  0  0  0  0  0  0  0  0  0  0
   -0.7850   44.8790   52.6550 C   0  0  0  0  0  0  0  0  0  0  0  0
   -2.4470   45.1030   52.6970 S   0  0  0  0  0  0  0  0  0  0  0  0
   -2.5270   44.7960   54.3600 C   0  0  0  0  0  0  0  0  0  0  0  0
   -1.3050   44.5230   54.8820 N   0  0  0  0  0  0  0  0  0  0  0  0
   -0.3400   44.5720   53.9280 C   0  0  0  0  0  0  0  0  0  0  0  0
    1.0140   44.3330   54.1640 C   0  0  0  0  0  0  0  0  0  0  0  0
    4.1790   45.0540   54.0830 N   0  0  0  0  0  0  0  0  0  0  0  0
    5.3590   44.5480   54.7890 C   0  0  0  0  0  0  0  0  0  0  0  0
    6.6450   45.0630   54.1220 C   0  0  0  0  0  0  0  0  0  0  0  0
    6.5390   46.5340   53.5710 C   0  0  0  0  0  0  0  0  0  0  0  0
    7.8130   47.3450   53.9420 C   0  0  0  0  0  0  0  0  0  0  0  0
    9.0640   46.8710   53.1870 C   0  0  0  0  0  0  0  0  0  0  0  0
    8.8620   46.9490   51.6700 C   0  0  0  0  0  0  0  0  0  0  0  0
    8.7110   48.2900   51.2770 O   0  0  0  0  0  0  0  0  0  0  0  0
    7.6360   46.1240   51.2500 C   0  0  0  0  0  0  0  0  0  0  0  0
    6.3670   46.5390   52.0170 C   0  0  0  0  0  0  0  0  0  0  0  0
    5.3190   47.2580   54.2160 C   0  0  0  0  0  0  0  0  0  0  0  0
    3.9980   46.5090   53.9720 C   0  0  0  0  0  0  0  0  0  0  0  0
    2.1471   44.7639   50.9442 H   0  0  0  0  0  0  0  0  0  0  0  0
   -0.2989   45.1952   50.5629 H   0  0  0  0  0  0  0  0  0  0  0  0
   -3.4575   44.8155   54.9464 H   0  0  0  0  0  0  0  0  0  0  0  0
    1.3686   44.0828   55.1748 H   0  0  0  0  0  0  0  0  0  0  0  0
    5.3306   44.8905   55.8339 H   0  0  0  0  0  0  0  0  0  0  0  0
    5.3532   43.4487   54.7510 H   0  0  0  0  0  0  0  0  0  0  0  0
    7.4562   45.0298   54.8642 H   0  0  0  0  0  0  0  0  0  0  0  0
    6.8350   44.4127   53.2554 H   0  0  0  0  0  0  0  0  0  0  0  0
    7.6377   48.4038   53.7009 H   0  0  0  0  0  0  0  0  0  0  0  0
    7.9988   47.1951   55.0158 H   0  0  0  0  0  0  0  0  0  0  0  0
    9.9152   47.5084   53.4683 H   0  0  0  0  0  0  0  0  0  0  0  0
    9.2565   45.8224   53.4581 H   0  0  0  0  0  0  0  0  0  0  0  0
    9.7475   46.5299   51.1698 H   0  0  0  0  0  0  0  0  0  0  0  0
    9.4460   48.7990   51.7080 H   0  0  0  0  0  0  0  0  0  0  0  0
    7.4629   46.2691   50.1734 H   0  0  0  0  0  0  0  0  0  0  0  0
    7.8423   45.0689   51.4829 H   0  0  0  0  0  0  0  0  0  0  0  0
    6.0883   47.5555   51.7022 H   0  0  0  0  0  0  0  0  0  0  0  0
    5.5911   45.7967   51.7781 H   0  0  0  0  0  0  0  0  0  0  0  0
    5.4865   47.3351   55.3004 H   0  0  0  0  0  0  0  0  0  0  0  0
    5.2331   48.2509   53.7504 H   0  0  0  0  0  0  0  0  0  0  0  0
    3.2581   46.8357   54.7175 H   0  0  0  0  0  0  0  0  0  0  0  0
    3.6524   46.7386   52.9533 H   0  0  0  0  0  0  0  0  0  0  0  0
  1  2  2  0
  2  3  1  0
  3  4  2  0
  4  5  1  0
  5  6  2  0
  6  7  1  0
  7  8  1  0
  8  9  2  0
  9 10  1  0
 10 11  2  0
  2 12  1  0
 12 13  1  0
 13 14  1  0
 14 15  1  0
 15 16  1  0
 16 17  1  0
 17 18  1  0
 18 19  1  0
 18 20  1  0
 20 21  1  0
 15 22  1  0
 22 23  1  0
 11  3  1  0
 23 12  1  0
 10  6  1  0
 21 15  1  0
  4 24  1  0
  5 25  1  0
  8 26  1  0
 11 27  1  0
 13 28  1  0
 13 29  1  0
 14 30  1  0
 14 31  1  0
 16 32  1  0
 16 33  1  0
 17 34  1  0
 17 35  1  0
 18 36  1  0
 19 37  1  0
 20 38  1  0
 20 39  1  0
 21 40  1  0
 21 41  1  0
 22 42  1  0
 22 43  1  0
 23 44  1  0
 23 45  1  0
M  END
>  <meeko>  (3) 
{"is_sidechain": [false], "free_energy": -8.157, "intermolecular_energy": -8.709, "internal_energy": -0.294}

$$$$
ligand_58_conformer_2_docked
     RDKit          3D

 45 48  0  0  0  0  0  0  0  0999 V2000
    3.1250   46.3820   50.4900 O   0  0  0  0  0  0  0  0  0  0  0  0
    3.1350   45.5150   51.4070 C   0  0  0  0  0  0  0  0  0  0  0  0
    1.8700   45.1930   52.1030 C   0  0  0  0  0  0  0  0  0  0  0  0
    0.8170   44.5610   51.3990 C   0  0  0  0  0  0  0  0  0  0  0  0
   -0.3870   44.2420   52.0460 C   0  0  0  0  0  0  0  0  0  0  0  0
   -0.5080   44.5560   53.3950 C   0  0  0  0  0  0  0  0  0  0  0  0
   -1.8070   44.2910   54.4230 S   0  0  0  0  0  0  0  0  0  0  0  0
   -0.9980   44.9680   55.7480 C   0  0  0  0  0  0  0  0  0  0  0  0
    0.2470   45.3890   55.4170 N   0  0  0  0  0  0  0  0  0  0  0  0
    0.5130   45.1590   54.1060 C   0  0  0  0  0  0  0  0  0  0  0  0
    1.7160   45.4820   53.4780 C   0  0  0  0  0  0  0  0  0  0  0  0
    4.3750   44.8770   51.7670 N   0  0  0  0  0  0  0  0  0  0  0  0
    5.4350   44.7070   50.7700 C   0  0  0  0  0  0  0  0  0  0  0  0
    6.6170   45.6390   51.0800 C   0  0  0  0  0  0  0  0  0  0  0  0
    6.9060   45.8220   52.6180 C   0  0  0  0  0  0  0  0  0  0  0  0
    8.4330   45.7310   52.8970 C   0  0  0  0  0  0  0  0  0  0  0  0
    9.2150   46.9290   52.3390 C   0  0  0  0  0  0  0  0  0  0  0  0
    8.6930   48.2510   52.9120 C   0  0  0  0  0  0  0  0  0  0  0  0
    8.9340   48.2980   54.2960 O   0  0  0  0  0  0  0  0  0  0  0  0
    7.1940   48.4060   52.6210 C   0  0  0  0  0  0  0  0  0  0  0  0
    6.3770   47.2010   53.1270 C   0  0  0  0  0  0  0  0  0  0  0  0
    6.2140   44.6850   53.4280 C   0  0  0  0  0  0  0  0  0  0  0  0
    4.6960   44.6320   53.1810 C   0  0  0  0  0  0  0  0  0  0  0  0
    0.9437   44.3174   50.3338 H   0  0  0  0  0  0  0  0  0  0  0  0
   -1.2110   43.7576   51.5016 H   0  0  0  0  0  0  0  0  0  0  0  0
   -1.4308   45.0554   56.7555 H   0  0  0  0  0  0  0  0  0  0  0  0
    2.5323   45.9544   54.0442 H   0  0  0  0  0  0  0  0  0  0  0  0
    5.7827   43.6635   50.7851 H   0  0  0  0  0  0  0  0  0  0  0  0
    5.0340   44.9577   49.7768 H   0  0  0  0  0  0  0  0  0  0  0  0
    7.5184   45.2230   50.6063 H   0  0  0  0  0  0  0  0  0  0  0  0
    6.3500   46.6312   50.6873 H   0  0  0  0  0  0  0  0  0  0  0  0
    8.5889   45.6861   53.9850 H   0  0  0  0  0  0  0  0  0  0  0  0
    8.8075   44.8283   52.3921 H   0  0  0  0  0  0  0  0  0  0  0  0
   10.2769   46.8183   52.6037 H   0  0  0  0  0  0  0  0  0  0  0  0
    9.0860   46.9492   51.2468 H   0  0  0  0  0  0  0  0  0  0  0  0
    9.2248   49.0846   52.4300 H   0  0  0  0  0  0  0  0  0  0  0  0
    9.9180   48.2620   54.4170 H   0  0  0  0  0  0  0  0  0  0  0  0
    6.8285   49.3164   53.1186 H   0  0  0  0  0  0  0  0  0  0  0  0
    7.0656   48.4681   51.5303 H   0  0  0  0  0  0  0  0  0  0  0  0
    6.4064   47.1993   54.2266 H   0  0  0  0  0  0  0  0  0  0  0  0
    5.3566   47.3178   52.7332 H   0  0  0  0  0  0  0  0  0  0  0  0
    6.6543   43.7214   53.1319 H   0  0  0  0  0  0  0  0  0  0  0  0
    6.3739   44.8884   54.4971 H   0  0  0  0  0  0  0  0  0  0  0  0
    4.3212   43.6380   53.4663 H   0  0  0  0  0  0  0  0  0  0  0  0
    4.2186   45.4168   53.7860 H   0  0  0  0  0  0  0  0  0  0  0  0
  1  2  2  0
  2  3  1  0
  3  4  2  0
  4  5  1  0
  5  6  2  0
  6  7  1  0
  7  8  1  0
  8  9  2  0
  9 10  1  0
 10 11  2  0
  2 12  1  0
 12 13  1  0
 13 14  1  0
 14 15  1  0
 15 16  1  0
 16 17  1  0
 17 18  1  0
 18 19  1  0
 18 20  1  0
 20 21  1  0
 15 22  1  0
 22 23  1  0
 11  3  1  0
 23 12  1  0
 10  6  1  0
 21 15  1  0
  4 24  1  0
  5 25  1  0
  8 26  1  0
 11 27  1  0
 13 28  1  0
 13 29  1  0
 14 30  1  0
 14 31  1  0
 16 32  1  0
 16 33  1  0
 17 34  1  0
 17 35  1  0
 18 36  1  0
 19 37  1  0
 20 38  1  0
 20 39  1  0
 21 40  1  0
 21 41  1  0
 22 42  1  0
 22 43  1  0
 23 44  1  0
 23 45  1  0
M  END
>  <meeko>  (4) 
{"is_sidechain": [false], "free_energy": -7.643, "intermolecular_energy": -8.527, "internal_energy": 0.083}

$$$$
ligand_58_conformer_2_docked
     RDKit          3D

 45 48  0  0  0  0  0  0  0  0999 V2000
    4.9670   43.6670   51.5050 O   0  0  0  0  0  0  0  0  0  0  0  0
    4.8100   44.8270   51.9740 C   0  0  0  0  0  0  0  0  0  0  0  0
    5.9470   45.4860   52.6540 C   0  0  0  0  0  0  0  0  0  0  0  0
    5.8270   45.8840   54.0070 C   0  0  0  0  0  0  0  0  0  0  0  0
    6.8990   46.5040   54.6680 C   0  0  0  0  0  0  0  0  0  0  0  0
    8.0780   46.7050   53.9600 C   0  0  0  0  0  0  0  0  0  0  0  0
    9.5110   47.4030   54.4810 S   0  0  0  0  0  0  0  0  0  0  0  0
   10.2640   47.1670   52.9820 C   0  0  0  0  0  0  0  0  0  0  0  0
    9.4380   46.5630   52.0930 N   0  0  0  0  0  0  0  0  0  0  0  0
    8.2220   46.3100   52.6430 C   0  0  0  0  0  0  0  0  0  0  0  0
    7.1670   45.6920   51.9710 C   0  0  0  0  0  0  0  0  0  0  0  0
    3.5280   45.4730   51.8570 N   0  0  0  0  0  0  0  0  0  0  0  0
    2.6410   45.1540   50.7350 C   0  0  0  0  0  0  0  0  0  0  0  0
    1.4250   44.3510   51.2240 C   0  0  0  0  0  0  0  0  0  0  0  0
    0.8940   44.7880   52.6420 C   0  0  0  0  0  0  0  0  0  0  0  0
   -0.6580   44.8830   52.6330 C   0  0  0  0  0  0  0  0  0  0  0  0
   -1.3400   43.5120   52.5090 C   0  0  0  0  0  0  0  0  0  0  0  0
   -0.9150   42.5730   53.6420 C   0  0  0  0  0  0  0  0  0  0  0  0
   -1.3740   43.0740   54.8720 O   0  0  0  0  0  0  0  0  0  0  0  0
    0.6120   42.4130   53.6620 C   0  0  0  0  0  0  0  0  0  0  0  0
    1.3360   43.7700   53.7420 C   0  0  0  0  0  0  0  0  0  0  0  0
    1.4470   46.1980   53.0060 C   0  0  0  0  0  0  0  0  0  0  0  0
    2.9850   46.2480   52.9820 C   0  0  0  0  0  0  0  0  0  0  0  0
    4.8846   45.7057   54.5457 H   0  0  0  0  0  0  0  0  0  0  0  0
    6.8084   46.8219   55.7172 H   0  0  0  0  0  0  0  0  0  0  0  0
   11.2980   47.4675   52.7573 H   0  0  0  0  0  0  0  0  0  0  0  0
    7.2830   45.3700   50.9256 H   0  0  0  0  0  0  0  0  0  0  0  0
    2.2947   46.0887   50.2698 H   0  0  0  0  0  0  0  0  0  0  0  0
    3.1961   44.5498   50.0023 H   0  0  0  0  0  0  0  0  0  0  0  0
    0.6107   44.4791   50.4956 H   0  0  0  0  0  0  0  0  0  0  0  0
    1.7517   43.3047   51.3160 H   0  0  0  0  0  0  0  0  0  0  0  0
   -0.9862   45.3548   53.5709 H   0  0  0  0  0  0  0  0  0  0  0  0
   -0.9474   45.4765   51.7532 H   0  0  0  0  0  0  0  0  0  0  0  0
   -2.4306   43.6497   52.5482 H   0  0  0  0  0  0  0  0  0  0  0  0
   -1.0383   43.0600   51.5526 H   0  0  0  0  0  0  0  0  0  0  0  0
   -1.3619   41.5824   53.4718 H   0  0  0  0  0  0  0  0  0  0  0  0
   -0.5830   43.4380   55.3470 H   0  0  0  0  0  0  0  0  0  0  0  0
    0.8938   41.8086   54.5368 H   0  0  0  0  0  0  0  0  0  0  0  0
    0.9134   41.9231   52.7244 H   0  0  0  0  0  0  0  0  0  0  0  0
    1.1318   44.2142   54.7274 H   0  0  0  0  0  0  0  0  0  0  0  0
    2.4061   43.5714   53.5825 H   0  0  0  0  0  0  0  0  0  0  0  0
    1.0583   46.9281   52.2809 H   0  0  0  0  0  0  0  0  0  0  0  0
    1.1193   46.4334   54.0293 H   0  0  0  0  0  0  0  0  0  0  0  0
    3.3078   47.2950   52.8845 H   0  0  0  0  0  0  0  0  0  0  0  0
    3.3609   45.8099   53.9184 H   0  0  0  0  0  0  0  0  0  0  0  0
  1  2  2  0
  2  3  1  0
  3  4  2  0
  4  5  1  0
  5  6  2  0
  6  7  1  0
  7  8  1  0
  8  9  2  0
  9 10  1  0
 10 11  2  0
  2 12  1  0
 12 13  1  0
 13 14  1  0
 14 15  1  0
 15 16  1  0
 16 17  1  0
 17 18  1  0
 18 19  1  0
 18 20  1  0
 20 21  1  0
 15 22  1  0
 22 23  1  0
 11  3  1  0
 23 12  1  0
 10  6  1  0
 21 15  1  0
  4 24  1  0
  5 25  1  0
  8 26  1  0
 11 27  1  0
 13 28  1  0
 13 29  1  0
 14 30  1  0
 14 31  1  0
 16 32  1  0
 16 33  1  0
 17 34  1  0
 17 35  1  0
 18 36  1  0
 19 37  1  0
 20 38  1  0
 20 39  1  0
 21 40  1  0
 21 41  1  0
 22 42  1  0
 22 43  1  0
 23 44  1  0
 23 45  1  0
M  END
>  <meeko>  (5) 
{"is_sidechain": [false], "free_energy": -7.242, "intermolecular_energy": -8.19, "internal_energy": 0.183}

$$$$
