ligand_11_conformer_4_docked
     RDKit          3D

 40 42  0  0  0  0  0  0  0  0999 V2000
    8.0410   43.9360   50.0030 O   0  0  0  0  0  0  0  0  0  0  0  0
    6.7870   43.9070   50.1420 C   0  0  0  0  0  0  0  0  0  0  0  0
    6.1330   44.9330   50.9070 N   0  0  0  0  0  0  0  0  0  0  0  0
    6.7950   45.7350   51.9000 C   0  0  0  0  0  0  0  0  0  0  0  0
    7.8140   46.6400   51.5520 C   0  0  0  0  0  0  0  0  0  0  0  0
    8.4590   47.3930   52.5380 C   0  0  0  0  0  0  0  0  0  0  0  0
    8.1040   47.2440   53.8920 C   0  0  0  0  0  0  0  0  0  0  0  0
    8.7180   47.9780   54.9190 O   0  0  0  0  0  0  0  0  0  0  0  0
   10.1010   47.9040   55.2540 C   0  0  0  0  0  0  0  0  0  0  0  0
   10.5570   46.6090   55.0950 F   0  0  0  0  0  0  0  0  0  0  0  0
   10.2650   48.2790   56.5750 F   0  0  0  0  0  0  0  0  0  0  0  0
    7.1030   46.3300   54.2370 C   0  0  0  0  0  0  0  0  0  0  0  0
    6.4580   45.5760   53.2520 C   0  0  0  0  0  0  0  0  0  0  0  0
    6.0040   42.8420   49.4710 C   0  0  0  0  0  0  0  0  0  0  0  0
    6.1820   42.5640   48.1040 C   0  0  0  0  0  0  0  0  0  0  0  0
    5.4330   41.5630   47.4800 C   0  0  0  0  0  0  0  0  0  0  0  0
    4.4770   40.8350   48.2000 C   0  0  0  0  0  0  0  0  0  0  0  0
    3.7370   39.7950   47.5380 N   0  0  0  0  0  0  0  0  0  0  0  0
    3.1880   39.9090   46.2180 C   0  0  0  0  0  0  0  0  0  0  0  0
    3.6110   39.0940   45.2120 N   0  0  0  0  0  0  0  0  0  0  0  0
    3.0730   39.1790   43.9680 C   0  0  0  0  0  0  0  0  0  0  0  0
    2.0650   40.1060   43.7080 C   0  0  0  0  0  0  0  0  0  0  0  0
    1.6320   40.9240   44.7500 C   0  0  0  0  0  0  0  0  0  0  0  0
    2.1950   40.8090   45.9800 N   0  0  0  0  0  0  0  0  0  0  0  0
    4.3040   41.0990   49.5680 C   0  0  0  0  0  0  0  0  0  0  0  0
    5.0530   42.1000   50.1950 C   0  0  0  0  0  0  0  0  0  0  0  0
    5.1530   45.1880   50.6480 H   0  0  0  0  0  0  0  0  0  0  0  0
    8.1053   46.7561   50.4976 H   0  0  0  0  0  0  0  0  0  0  0  0
    9.2477   48.1053   52.2542 H   0  0  0  0  0  0  0  0  0  0  0  0
   10.6709   48.5741   54.5935 H   0  0  0  0  0  0  0  0  0  0  0  0
    6.8208   46.2033   55.2926 H   0  0  0  0  0  0  0  0  0  0  0  0
    5.6806   44.8528   53.5396 H   0  0  0  0  0  0  0  0  0  0  0  0
    6.9167   43.1391   47.5214 H   0  0  0  0  0  0  0  0  0  0  0  0
    5.5955   41.3447   46.4142 H   0  0  0  0  0  0  0  0  0  0  0  0
    3.6610   38.8670   48.0140 H   0  0  0  0  0  0  0  0  0  0  0  0
    3.4323   38.5170   43.1663 H   0  0  0  0  0  0  0  0  0  0  0  0
    1.6220   40.1899   42.7046 H   0  0  0  0  0  0  0  0  0  0  0  0
    0.8350   41.6619   44.5760 H   0  0  0  0  0  0  0  0  0  0  0  0
    3.5754   40.5154   50.1499 H   0  0  0  0  0  0  0  0  0  0  0  0
    4.8971   42.3089   51.2637 H   0  0  0  0  0  0  0  0  0  0  0  0
  1  2  2  0
  2  3  1  0
  3  4  1  0
  4  5  2  0
  5  6  1  0
  6  7  2  0
  7  8  1  0
  8  9  1  0
  9 10  1  0
  9 11  1  0
  7 12  1  0
 12 13  2  0
  2 14  1  0
 14 15  2  0
 15 16  1  0
 16 17  2  0
 17 18  1  0
 18 19  1  0
 19 20  2  0
 20 21  1  0
 21 22  2  0
 22 23  1  0
 23 24  2  0
 17 25  1  0
 25 26  2  0
 13  4  1  0
 26 14  1  0
 24 19  1  0
  3 27  1  0
  5 28  1  0
  6 29  1  0
  9 30  1  0
 12 31  1  0
 13 32  1  0
 15 33  1  0
 16 34  1  0
 18 35  1  0
 21 36  1  0
 22 37  1  0
 23 38  1  0
 25 39  1  0
 26 40  1  0
M  END
>  <meeko>  (1) 
{"is_sidechain": [false], "free_energy": -8.119, "intermolecular_energy": -10.966, "internal_energy": -0.597}

$$$$
ligand_11_conformer_4_docked
     RDKit          3D

 40 42  0  0  0  0  0  0  0  0999 V2000
    4.2730   43.3300   52.7710 O   0  0  0  0  0  0  0  0  0  0  0  0
    3.4910   44.0240   52.0650 C   0  0  0  0  0  0  0  0  0  0  0  0
    4.0220   45.0730   51.2380 N   0  0  0  0  0  0  0  0  0  0  0  0
    5.2910   45.7080   51.4680 C   0  0  0  0  0  0  0  0  0  0  0  0
    6.4310   45.3610   50.7200 C   0  0  0  0  0  0  0  0  0  0  0  0
    7.6600   45.9750   50.9780 C   0  0  0  0  0  0  0  0  0  0  0  0
    7.7730   46.9390   51.9970 C   0  0  0  0  0  0  0  0  0  0  0  0
    8.9830   47.5880   52.2930 O   0  0  0  0  0  0  0  0  0  0  0  0
    9.9270   47.1420   53.2620 C   0  0  0  0  0  0  0  0  0  0  0  0
    9.7530   45.7920   53.5040 F   0  0  0  0  0  0  0  0  0  0  0  0
    9.7280   47.8390   54.4390 F   0  0  0  0  0  0  0  0  0  0  0  0
    6.6420   47.2690   52.7510 C   0  0  0  0  0  0  0  0  0  0  0  0
    5.4130   46.6550   52.4950 C   0  0  0  0  0  0  0  0  0  0  0  0
    2.0410   43.7120   52.0600 C   0  0  0  0  0  0  0  0  0  0  0  0
    1.1620   44.3660   51.1800 C   0  0  0  0  0  0  0  0  0  0  0  0
   -0.2030   44.0700   51.1890 C   0  0  0  0  0  0  0  0  0  0  0  0
   -0.7230   43.1320   52.0910 C   0  0  0  0  0  0  0  0  0  0  0  0
   -2.1280   42.8280   52.0630 N   0  0  0  0  0  0  0  0  0  0  0  0
   -2.7280   41.8620   51.1890 C   0  0  0  0  0  0  0  0  0  0  0  0
   -2.9490   42.1480   49.8770 N   0  0  0  0  0  0  0  0  0  0  0  0
   -3.4910   41.2260   49.0390 C   0  0  0  0  0  0  0  0  0  0  0  0
   -3.8210   39.9600   49.5190 C   0  0  0  0  0  0  0  0  0  0  0  0
   -3.5770   39.6760   50.8620 C   0  0  0  0  0  0  0  0  0  0  0  0
   -3.0350   40.6240   51.6680 N   0  0  0  0  0  0  0  0  0  0  0  0
    0.1530   42.4650   52.9630 C   0  0  0  0  0  0  0  0  0  0  0  0
    1.5200   42.7600   52.9550 C   0  0  0  0  0  0  0  0  0  0  0  0
    3.5110   45.3090   50.3570 H   0  0  0  0  0  0  0  0  0  0  0  0
    6.3547   44.6020   49.9275 H   0  0  0  0  0  0  0  0  0  0  0  0
    8.5433   45.7033   50.3815 H   0  0  0  0  0  0  0  0  0  0  0  0
   10.9453   47.3158   52.8839 H   0  0  0  0  0  0  0  0  0  0  0  0
    6.7206   48.0183   53.5524 H   0  0  0  0  0  0  0  0  0  0  0  0
    4.5348   46.9165   53.1036 H   0  0  0  0  0  0  0  0  0  0  0  0
    1.5523   45.1176   50.4780 H   0  0  0  0  0  0  0  0  0  0  0  0
   -0.8756   44.5776   50.4819 H   0  0  0  0  0  0  0  0  0  0  0  0
   -2.7420   43.2790   52.7790 H   0  0  0  0  0  0  0  0  0  0  0  0
   -3.6691   41.4785   47.9833 H   0  0  0  0  0  0  0  0  0  0  0  0
   -4.2632   39.2032   48.8544 H   0  0  0  0  0  0  0  0  0  0  0  0
   -3.8237   38.6840   51.2682 H   0  0  0  0  0  0  0  0  0  0  0  0
   -0.2385   41.7061   53.6564 H   0  0  0  0  0  0  0  0  0  0  0  0
    2.1935   42.2432   53.6545 H   0  0  0  0  0  0  0  0  0  0  0  0
  1  2  2  0
  2  3  1  0
  3  4  1  0
  4  5  2  0
  5  6  1  0
  6  7  2  0
  7  8  1  0
  8  9  1  0
  9 10  1  0
  9 11  1  0
  7 12  1  0
 12 13  2  0
  2 14  1  0
 14 15  2  0
 15 16  1  0
 16 17  2  0
 17 18  1  0
 18 19  1  0
 19 20  2  0
 20 21  1  0
 21 22  2  0
 22 23  1  0
 23 24  2  0
 17 25  1  0
 25 26  2  0
 13  4  1  0
 26 14  1  0
 24 19  1  0
  3 27  1  0
  5 28  1  0
  6 29  1  0
  9 30  1  0
 12 31  1  0
 13 32  1  0
 15 33  1  0
 16 34  1  0
 18 35  1  0
 21 36  1  0
 22 37  1  0
 23 38  1  0
 25 39  1  0
 26 40  1  0
M  END
>  <meeko>  (2) 
{"is_sidechain": [false], "free_energy": -8.019, "intermolecular_energy": -10.581, "internal_energy": -0.848}

$$$$
ligand_11_conformer_4_docked
     RDKit          3D

 40 42  0  0  0  0  0  0  0  0999 V2000
    6.8760   41.6950   50.1800 O   0  0  0  0  0  0  0  0  0  0  0  0
    6.6300   42.2720   49.0850 C   0  0  0  0  0  0  0  0  0  0  0  0
    7.3490   43.4670   48.7350 N   0  0  0  0  0  0  0  0  0  0  0  0
    7.9960   44.3210   49.6940 C   0  0  0  0  0  0  0  0  0  0  0  0
    7.2800   45.3030   50.4020 C   0  0  0  0  0  0  0  0  0  0  0  0
    7.9350   46.1370   51.3130 C   0  0  0  0  0  0  0  0  0  0  0  0
    9.3210   46.0130   51.5210 C   0  0  0  0  0  0  0  0  0  0  0  0
   10.0250   46.8230   52.4260 O   0  0  0  0  0  0  0  0  0  0  0  0
    9.5440   47.2170   53.7080 C   0  0  0  0  0  0  0  0  0  0  0  0
    8.9150   48.4450   53.6180 F   0  0  0  0  0  0  0  0  0  0  0  0
   10.6120   47.3200   54.5790 F   0  0  0  0  0  0  0  0  0  0  0  0
   10.0340   45.0480   50.8020 C   0  0  0  0  0  0  0  0  0  0  0  0
    9.3800   44.2140   49.8910 C   0  0  0  0  0  0  0  0  0  0  0  0
    5.6390   41.6800   48.1550 C   0  0  0  0  0  0  0  0  0  0  0  0
    5.7160   41.9150   46.7710 C   0  0  0  0  0  0  0  0  0  0  0  0
    4.7730   41.3570   45.9030 C   0  0  0  0  0  0  0  0  0  0  0  0
    3.7230   40.5730   46.4000 C   0  0  0  0  0  0  0  0  0  0  0  0
    2.7800   39.9930   45.4830 N   0  0  0  0  0  0  0  0  0  0  0  0
    1.7010   40.7140   44.8700 C   0  0  0  0  0  0  0  0  0  0  0  0
    1.0420   41.6940   45.5470 N   0  0  0  0  0  0  0  0  0  0  0  0
    0.0390   42.3990   44.9610 C   0  0  0  0  0  0  0  0  0  0  0  0
   -0.3220   42.1280   43.6420 C   0  0  0  0  0  0  0  0  0  0  0  0
    0.3700   41.1300   42.9570 C   0  0  0  0  0  0  0  0  0  0  0  0
    1.3660   40.4480   43.5780 N   0  0  0  0  0  0  0  0  0  0  0  0
    3.6500   40.3250   47.7810 C   0  0  0  0  0  0  0  0  0  0  0  0
    4.5920   40.8810   48.6500 C   0  0  0  0  0  0  0  0  0  0  0  0
    7.5070   43.6640   47.7210 H   0  0  0  0  0  0  0  0  0  0  0  0
    6.1981   45.4155   50.2379 H   0  0  0  0  0  0  0  0  0  0  0  0
    7.3638   46.8942   51.8701 H   0  0  0  0  0  0  0  0  0  0  0  0
    8.8274   46.4669   54.0738 H   0  0  0  0  0  0  0  0  0  0  0  0
   11.1184   44.9447   50.9549 H   0  0  0  0  0  0  0  0  0  0  0  0
    9.9557   43.4676   49.3240 H   0  0  0  0  0  0  0  0  0  0  0  0
    6.5245   42.5428   46.3681 H   0  0  0  0  0  0  0  0  0  0  0  0
    4.8558   41.5348   44.8206 H   0  0  0  0  0  0  0  0  0  0  0  0
    2.9340   39.0050   45.1790 H   0  0  0  0  0  0  0  0  0  0  0  0
   -0.4872   43.1822   45.5264 H   0  0  0  0  0  0  0  0  0  0  0  0
   -1.1331   42.6879   43.1535 H   0  0  0  0  0  0  0  0  0  0  0  0
    0.1091   40.8955   41.9144 H   0  0  0  0  0  0  0  0  0  0  0  0
    2.8462   39.6891   48.1804 H   0  0  0  0  0  0  0  0  0  0  0  0
    4.5145   40.6924   49.7309 H   0  0  0  0  0  0  0  0  0  0  0  0
  1  2  2  0
  2  3  1  0
  3  4  1  0
  4  5  2  0
  5  6  1  0
  6  7  2  0
  7  8  1  0
  8  9  1  0
  9 10  1  0
  9 11  1  0
  7 12  1  0
 12 13  2  0
  2 14  1  0
 14 15  2  0
 15 16  1  0
 16 17  2  0
 17 18  1  0
 18 19  1  0
 19 20  2  0
 20 21  1  0
 21 22  2  0
 22 23  1  0
 23 24  2  0
 17 25  1  0
 25 26  2  0
 13  4  1  0
 26 14  1  0
 24 19  1  0
  3 27  1  0
  5 28  1  0
  6 29  1  0
  9 30  1  0
 12 31  1  0
 13 32  1  0
 15 33  1  0
 16 34  1  0
 18 35  1  0
 21 36  1  0
 22 37  1  0
 23 38  1  0
 25 39  1  0
 26 40  1  0
M  END
>  <meeko>  (3) 
{"is_sidechain": [false], "free_energy": -7.989, "intermolecular_energy": -10.65, "internal_energy": -0.739}

$$$$
ligand_11_conformer_4_docked
     RDKit          3D

 40 42  0  0  0  0  0  0  0  0999 V2000
    4.0860   43.6790   53.0170 O   0  0  0  0  0  0  0  0  0  0  0  0
    3.3120   44.6040   52.6470 C   0  0  0  0  0  0  0  0  0  0  0  0
    3.8150   45.6600   51.8110 N   0  0  0  0  0  0  0  0  0  0  0  0
    5.2060   46.0120   51.7180 C   0  0  0  0  0  0  0  0  0  0  0  0
    6.0530   45.4120   50.7700 C   0  0  0  0  0  0  0  0  0  0  0  0
    7.4080   45.7550   50.7140 C   0  0  0  0  0  0  0  0  0  0  0  0
    7.9410   46.6950   51.6150 C   0  0  0  0  0  0  0  0  0  0  0  0
    9.2920   47.0760   51.5980 O   0  0  0  0  0  0  0  0  0  0  0  0
   10.2490   46.7160   52.5900 C   0  0  0  0  0  0  0  0  0  0  0  0
    9.9440   45.4730   53.1120 F   0  0  0  0  0  0  0  0  0  0  0  0
   10.2170   47.6510   53.6080 F   0  0  0  0  0  0  0  0  0  0  0  0
    7.1000   47.2770   52.5690 C   0  0  0  0  0  0  0  0  0  0  0  0
    5.7460   46.9350   52.6260 C   0  0  0  0  0  0  0  0  0  0  0  0
    1.8830   44.5610   53.0400 C   0  0  0  0  0  0  0  0  0  0  0  0
    1.5000   44.1720   54.3360 C   0  0  0  0  0  0  0  0  0  0  0  0
    0.1500   44.1280   54.6930 C   0  0  0  0  0  0  0  0  0  0  0  0
   -0.8450   44.4480   53.7610 C   0  0  0  0  0  0  0  0  0  0  0  0
   -2.2260   44.4170   54.1620 N   0  0  0  0  0  0  0  0  0  0  0  0
   -2.6690   44.2870   55.5200 C   0  0  0  0  0  0  0  0  0  0  0  0
   -2.8780   43.0610   56.0730 N   0  0  0  0  0  0  0  0  0  0  0  0
   -3.2700   42.9330   57.3680 C   0  0  0  0  0  0  0  0  0  0  0  0
   -3.4560   44.0690   58.1530 C   0  0  0  0  0  0  0  0  0  0  0  0
   -3.2250   45.3180   57.5780 C   0  0  0  0  0  0  0  0  0  0  0  0
   -2.8350   45.4050   56.2800 N   0  0  0  0  0  0  0  0  0  0  0  0
   -0.4680   44.8500   52.4690 C   0  0  0  0  0  0  0  0  0  0  0  0
    0.8830   44.8950   52.1090 C   0  0  0  0  0  0  0  0  0  0  0  0
    3.1500   46.1200   51.1490 H   0  0  0  0  0  0  0  0  0  0  0  0
    5.6478   44.6683   50.0680 H   0  0  0  0  0  0  0  0  0  0  0  0
    8.0602   45.2874   49.9616 H   0  0  0  0  0  0  0  0  0  0  0  0
   11.2494   46.6836   52.1337 H   0  0  0  0  0  0  0  0  0  0  0  0
    7.5077   48.0102   53.2805 H   0  0  0  0  0  0  0  0  0  0  0  0
    5.0989   47.3930   53.3886 H   0  0  0  0  0  0  0  0  0  0  0  0
    2.2690   43.9004   55.0741 H   0  0  0  0  0  0  0  0  0  0  0  0
   -0.1340   43.8393   55.7157 H   0  0  0  0  0  0  0  0  0  0  0  0
   -2.9540   44.5790   53.4300 H   0  0  0  0  0  0  0  0  0  0  0  0
   -3.4402   41.9340   57.7958 H   0  0  0  0  0  0  0  0  0  0  0  0
   -3.7774   43.9825   59.2014 H   0  0  0  0  0  0  0  0  0  0  0  0
   -3.3585   46.2321   58.1751 H   0  0  0  0  0  0  0  0  0  0  0  0
   -1.2391   45.1309   51.7365 H   0  0  0  0  0  0  0  0  0  0  0  0
    1.1658   45.1942   51.0889 H   0  0  0  0  0  0  0  0  0  0  0  0
  1  2  2  0
  2  3  1  0
  3  4  1  0
  4  5  2  0
  5  6  1  0
  6  7  2  0
  7  8  1  0
  8  9  1  0
  9 10  1  0
  9 11  1  0
  7 12  1  0
 12 13  2  0
  2 14  1  0
 14 15  2  0
 15 16  1  0
 16 17  2  0
 17 18  1  0
 18 19  1  0
 19 20  2  0
 20 21  1  0
 21 22  2  0
 22 23  1  0
 23 24  2  0
 17 25  1  0
 25 26  2  0
 13  4  1  0
 26 14  1  0
 24 19  1  0
  3 27  1  0
  5 28  1  0
  6 29  1  0
  9 30  1  0
 12 31  1  0
 13 32  1  0
 15 33  1  0
 16 34  1  0
 18 35  1  0
 21 36  1  0
 22 37  1  0
 23 38  1  0
 25 39  1  0
 26 40  1  0
M  END
>  <meeko>  (4) 
{"is_sidechain": [false], "free_energy": -7.836, "intermolecular_energy": -10.374, "internal_energy": -0.808}

$$$$
ligand_11_conformer_4_docked
     RDKit          3D

 40 42  0  0  0  0  0  0  0  0999 V2000
    2.7540   43.7690   53.2790 O   0  0  0  0  0  0  0  0  0  0  0  0
    2.4490   44.8100   53.9250 C   0  0  0  0  0  0  0  0  0  0  0  0
    3.2510   45.9940   53.7840 N   0  0  0  0  0  0  0  0  0  0  0  0
    4.6160   45.9870   53.3340 C   0  0  0  0  0  0  0  0  0  0  0  0
    5.6880   45.9890   54.2450 C   0  0  0  0  0  0  0  0  0  0  0  0
    7.0080   46.0050   53.7830 C   0  0  0  0  0  0  0  0  0  0  0  0
    7.2790   46.0310   52.4020 C   0  0  0  0  0  0  0  0  0  0  0  0
    8.5850   46.0440   51.8880 O   0  0  0  0  0  0  0  0  0  0  0  0
    9.4290   47.1910   51.8440 C   0  0  0  0  0  0  0  0  0  0  0  0
   10.2420   47.2210   52.9620 F   0  0  0  0  0  0  0  0  0  0  0  0
    8.6430   48.3290   51.8290 F   0  0  0  0  0  0  0  0  0  0  0  0
    6.2100   46.0470   51.5000 C   0  0  0  0  0  0  0  0  0  0  0  0
    4.8900   46.0330   51.9600 C   0  0  0  0  0  0  0  0  0  0  0  0
    1.2370   44.8080   54.7800 C   0  0  0  0  0  0  0  0  0  0  0  0
   -0.0050   44.3830   54.2750 C   0  0  0  0  0  0  0  0  0  0  0  0
   -1.1420   44.3930   55.0870 C   0  0  0  0  0  0  0  0  0  0  0  0
   -1.0690   44.8470   56.4100 C   0  0  0  0  0  0  0  0  0  0  0  0
   -2.2490   44.8250   57.2300 N   0  0  0  0  0  0  0  0  0  0  0  0
   -2.8130   45.9810   57.8660 C   0  0  0  0  0  0  0  0  0  0  0  0
   -3.2030   45.9420   59.1700 N   0  0  0  0  0  0  0  0  0  0  0  0
   -3.7100   47.0420   59.7840 C   0  0  0  0  0  0  0  0  0  0  0  0
   -3.8290   48.2390   59.0780 C   0  0  0  0  0  0  0  0  0  0  0  0
   -3.4140   48.2680   57.7480 C   0  0  0  0  0  0  0  0  0  0  0  0
   -2.9130   47.1470   57.1700 N   0  0  0  0  0  0  0  0  0  0  0  0
    0.1720   45.2600   56.9230 C   0  0  0  0  0  0  0  0  0  0  0  0
    1.3110   45.2510   56.1130 C   0  0  0  0  0  0  0  0  0  0  0  0
    2.7820   46.9210   53.9060 H   0  0  0  0  0  0  0  0  0  0  0  0
    5.4870   45.9779   55.3264 H   0  0  0  0  0  0  0  0  0  0  0  0
    7.8394   45.9972   54.5032 H   0  0  0  0  0  0  0  0  0  0  0  0
   10.0539   47.1480   50.9398 H   0  0  0  0  0  0  0  0  0  0  0  0
    6.4099   46.0708   50.4186 H   0  0  0  0  0  0  0  0  0  0  0  0
    4.0601   46.0583   51.2384 H   0  0  0  0  0  0  0  0  0  0  0  0
   -0.0818   44.0401   53.2327 H   0  0  0  0  0  0  0  0  0  0  0  0
   -2.1030   44.0412   54.6837 H   0  0  0  0  0  0  0  0  0  0  0  0
   -2.7790   43.9270   57.3050 H   0  0  0  0  0  0  0  0  0  0  0  0
   -4.0263   46.9891   60.8362 H   0  0  0  0  0  0  0  0  0  0  0  0
   -4.2405   49.1384   59.5594 H   0  0  0  0  0  0  0  0  0  0  0  0
   -3.4924   49.1988   57.1671 H   0  0  0  0  0  0  0  0  0  0  0  0
    0.2477   45.5926   57.9688 H   0  0  0  0  0  0  0  0  0  0  0  0
    2.2734   45.5932   56.5214 H   0  0  0  0  0  0  0  0  0  0  0  0
  1  2  2  0
  2  3  1  0
  3  4  1  0
  4  5  2  0
  5  6  1  0
  6  7  2  0
  7  8  1  0
  8  9  1  0
  9 10  1  0
  9 11  1  0
  7 12  1  0
 12 13  2  0
  2 14  1  0
 14 15  2  0
 15 16  1  0
 16 17  2  0
 17 18  1  0
 18 19  1  0
 19 20  2  0
 20 21  1  0
 21 22  2  0
 22 23  1  0
 23 24  2  0
 17 25  1  0
 25 26  2  0
 13  4  1  0
 26 14  1  0
 24 19  1  0
  3 27  1  0
  5 28  1  0
  6 29  1  0
  9 30  1  0
 12 31  1  0
 13 32  1  0
 15 33  1  0
 16 34  1  0
 18 35  1  0
 21 36  1  0
 22 37  1  0
 23 38  1  0
 25 39  1  0
 26 40  1  0
M  END
>  <meeko>  (5) 
{"is_sidechain": [false], "free_energy": -7.509, "intermolecular_energy": -9.92, "internal_energy": -0.819}

$$$$
