ligand_94_conformer_2_docked
     RDKit          3D

 52 55  0  0  0  0  0  0  0  0999 V2000
    4.9280   47.6540   53.5920 C   0  0  0  0  0  0  0  0  0  0  0  0
    6.2820   47.0890   53.7020 N   0  0  0  0  0  0  0  0  0  0  0  0
    7.2010   47.6030   52.6550 C   0  0  0  0  0  0  0  0  0  0  0  0
    7.5810   46.5560   51.5940 C   0  0  0  0  0  0  0  0  0  0  0  0
    6.3770   45.6820   51.2490 C   0  0  0  0  0  0  0  0  0  0  0  0
    5.8190   44.9070   52.4780 C   0  0  2  0  0  0  0  0  0  0  0  0
    4.3350   44.7320   52.3810 N   0  0  0  0  0  0  0  0  0  0  0  0
    3.9230   43.3050   52.5180 C   0  0  0  0  0  0  0  0  0  0  0  0
    2.5710   42.9670   51.8540 C   0  0  0  0  0  0  0  0  0  0  0  0
    1.7110   44.1550   51.8020 N   0  0  0  0  0  0  0  0  0  0  0  0
    0.3150   44.1260   52.1750 C   0  0  0  0  0  0  0  0  0  0  0  0
   -0.4820   44.9530   51.6560 O   0  0  0  0  0  0  0  0  0  0  0  0
   -0.2150   43.1800   53.2190 C   0  0  0  0  0  0  0  0  0  0  0  0
   -0.9080   43.9420   54.3080 C   0  0  0  0  0  0  0  0  0  0  0  0
   -2.2920   44.0880   54.3710 C   0  0  0  0  0  0  0  0  0  0  0  0
   -2.6430   45.0810   55.6820 S   0  0  0  0  0  0  0  0  0  0  0  0
   -1.0280   45.2790   56.1110 C   0  0  0  0  0  0  0  0  0  0  0  0
   -0.5380   46.1260   57.2050 C   0  0  0  0  0  0  0  0  0  0  0  0
    0.7560   46.1290   57.7100 C   0  0  0  0  0  0  0  0  0  0  0  0
    0.9510   47.0770   58.7210 C   0  0  0  0  0  0  0  0  0  0  0  0
   -0.1840   47.8230   59.0120 C   0  0  0  0  0  0  0  0  0  0  0  0
   -1.4300   47.3040   58.0100 S   0  0  0  0  0  0  0  0  0  0  0  0
   -0.2130   44.6060   55.2710 N   0  0  0  0  0  0  0  0  0  0  0  0
    2.2660   45.3830   51.2220 C   0  0  0  0  0  0  0  0  0  0  0  0
    3.7930   45.3000   51.1230 C   0  0  0  0  0  0  0  0  0  0  0  0
    6.2670   45.6150   53.8030 C   0  0  0  0  0  0  0  0  0  0  0  0
    4.5190   47.8247   54.5988 H   0  0  0  0  0  0  0  0  0  0  0  0
    4.9722   48.6088   53.0475 H   0  0  0  0  0  0  0  0  0  0  0  0
    4.2805   46.9510   53.0475 H   0  0  0  0  0  0  0  0  0  0  0  0
    6.7118   48.4481   52.1486 H   0  0  0  0  0  0  0  0  0  0  0  0
    8.1316   47.8976   53.1621 H   0  0  0  0  0  0  0  0  0  0  0  0
    7.9269   47.0706   50.6854 H   0  0  0  0  0  0  0  0  0  0  0  0
    8.3809   45.9167   51.9959 H   0  0  0  0  0  0  0  0  0  0  0  0
    5.5797   46.3252   50.8482 H   0  0  0  0  0  0  0  0  0  0  0  0
    6.7107   44.9364   50.5123 H   0  0  0  0  0  0  0  0  0  0  0  0
    6.2418   43.8916   52.4892 H   0  0  0  0  0  0  0  0  0  0  0  0
    4.6995   42.6766   52.0574 H   0  0  0  0  0  0  0  0  0  0  0  0
    3.8013   43.1145   53.5945 H   0  0  0  0  0  0  0  0  0  0  0  0
    2.7509   42.6056   50.8308 H   0  0  0  0  0  0  0  0  0  0  0  0
    2.0678   42.1901   52.4484 H   0  0  0  0  0  0  0  0  0  0  0  0
   -0.9287   42.4860   52.7510 H   0  0  0  0  0  0  0  0  0  0  0  0
    0.6258   42.6196   53.6538 H   0  0  0  0  0  0  0  0  0  0  0  0
   -3.0239   43.6350   53.6861 H   0  0  0  0  0  0  0  0  0  0  0  0
    1.5475   45.4545   57.3515 H   0  0  0  0  0  0  0  0  0  0  0  0
    1.9124   47.2180   59.2365 H   0  0  0  0  0  0  0  0  0  0  0  0
   -0.2553   48.6179   59.7690 H   0  0  0  0  0  0  0  0  0  0  0  0
    1.8472   45.5269   50.2151 H   0  0  0  0  0  0  0  0  0  0  0  0
    2.0017   46.2295   51.8729 H   0  0  0  0  0  0  0  0  0  0  0  0
    4.0719   44.6537   50.2778 H   0  0  0  0  0  0  0  0  0  0  0  0
    4.2074   46.3065   50.9643 H   0  0  0  0  0  0  0  0  0  0  0  0
    5.5714   45.3271   54.6051 H   0  0  0  0  0  0  0  0  0  0  0  0
    7.2976   45.2924   54.0123 H   0  0  0  0  0  0  0  0  0  0  0  0
  1  2  1  0
  2  3  1  0
  3  4  1  0
  4  5  1  0
  5  6  1  0
  6  7  1  0
  7  8  1  0
  8  9  1  0
  9 10  1  0
 10 11  1  0
 11 12  2  0
 11 13  1  0
 13 14  1  0
 14 15  2  0
 15 16  1  0
 16 17  1  0
 17 18  1  0
 18 19  2  0
 19 20  1  0
 20 21  2  0
 21 22  1  0
 17 23  2  0
 10 24  1  0
 24 25  1  0
  6 26  1  0
 26  2  1  0
 25  7  1  0
 23 14  1  0
 22 18  1  0
  1 27  1  0
  1 28  1  0
  1 29  1  0
  3 30  1  0
  3 31  1  0
  4 32  1  0
  4 33  1  0
  5 34  1  0
  5 35  1  0
  6 36  1  1
  8 37  1  0
  8 38  1  0
  9 39  1  0
  9 40  1  0
 13 41  1  0
 13 42  1  0
 15 43  1  0
 19 44  1  0
 20 45  1  0
 21 46  1  0
 24 47  1  0
 24 48  1  0
 25 49  1  0
 25 50  1  0
 26 51  1  0
 26 52  1  0
M  END
>  <meeko>  (1) 
{"is_sidechain": [false], "free_energy": -7.531, "intermolecular_energy": -9.292, "internal_energy": -0.737}

$$$$
ligand_94_conformer_2_docked
     RDKit          3D

 52 55  0  0  0  0  0  0  0  0999 V2000
    8.4210   45.7360   50.9840 C   0  0  0  0  0  0  0  0  0  0  0  0
    9.0250   46.9890   51.4610 N   0  0  0  0  0  0  0  0  0  0  0  0
   10.1310   46.7590   52.4240 C   0  0  0  0  0  0  0  0  0  0  0  0
    9.7900   47.1630   53.8690 C   0  0  0  0  0  0  0  0  0  0  0  0
    8.3450   46.7960   54.2010 C   0  0  0  0  0  0  0  0  0  0  0  0
    7.3130   47.5020   53.2730 C   0  0  2  0  0  0  0  0  0  0  0  0
    6.1140   46.6360   53.0390 N   0  0  0  0  0  0  0  0  0  0  0  0
    4.8350   47.3660   53.2790 C   0  0  0  0  0  0  0  0  0  0  0  0
    3.6430   46.4550   53.6470 C   0  0  0  0  0  0  0  0  0  0  0  0
    3.8270   45.1120   53.0850 N   0  0  0  0  0  0  0  0  0  0  0  0
    2.7720   44.4030   52.3990 C   0  0  0  0  0  0  0  0  0  0  0  0
    2.7740   43.1420   52.3950 O   0  0  0  0  0  0  0  0  0  0  0  0
    1.6970   45.1180   51.6240 C   0  0  0  0  0  0  0  0  0  0  0  0
    0.3410   44.7000   52.1060 C   0  0  0  0  0  0  0  0  0  0  0  0
   -0.6440   44.1970   51.2590 C   0  0  0  0  0  0  0  0  0  0  0  0
   -2.0290   43.9430   52.1780 S   0  0  0  0  0  0  0  0  0  0  0  0
   -1.3190   44.4800   53.6060 C   0  0  0  0  0  0  0  0  0  0  0  0
   -2.0000   44.6000   54.9000 C   0  0  0  0  0  0  0  0  0  0  0  0
   -1.7210   43.8490   56.0350 C   0  0  0  0  0  0  0  0  0  0  0  0
   -2.4970   44.2140   57.1420 C   0  0  0  0  0  0  0  0  0  0  0  0
   -3.3830   45.2520   56.8830 C   0  0  0  0  0  0  0  0  0  0  0  0
   -3.2000   45.7170   55.2780 S   0  0  0  0  0  0  0  0  0  0  0  0
   -0.0380   44.8580   53.4030 N   0  0  0  0  0  0  0  0  0  0  0  0
    5.0930   44.4210   53.3500 C   0  0  0  0  0  0  0  0  0  0  0  0
    6.1560   45.4000   53.8580 C   0  0  0  0  0  0  0  0  0  0  0  0
    8.0120   47.9510   51.9430 C   0  0  0  0  0  0  0  0  0  0  0  0
    8.1243   45.1205   51.8461 H   0  0  0  0  0  0  0  0  0  0  0  0
    7.5344   45.9651   50.3746 H   0  0  0  0  0  0  0  0  0  0  0  0
    9.1525   45.1851   50.3746 H   0  0  0  0  0  0  0  0  0  0  0  0
   10.3830   45.6883   52.4135 H   0  0  0  0  0  0  0  0  0  0  0  0
   10.9715   47.3924   52.1040 H   0  0  0  0  0  0  0  0  0  0  0  0
   10.4649   46.6374   54.5605 H   0  0  0  0  0  0  0  0  0  0  0  0
    9.9131   48.2512   53.9723 H   0  0  0  0  0  0  0  0  0  0  0  0
    8.2258   45.7076   54.0948 H   0  0  0  0  0  0  0  0  0  0  0  0
    8.1471   47.1305   55.2301 H   0  0  0  0  0  0  0  0  0  0  0  0
    6.9384   48.4090   53.7700 H   0  0  0  0  0  0  0  0  0  0  0  0
    4.9932   48.0764   54.1038 H   0  0  0  0  0  0  0  0  0  0  0  0
    4.5726   47.8616   52.3327 H   0  0  0  0  0  0  0  0  0  0  0  0
    3.5686   46.3816   54.7420 H   0  0  0  0  0  0  0  0  0  0  0  0
    2.7222   46.8904   53.2315 H   0  0  0  0  0  0  0  0  0  0  0  0
    1.8120   46.2033   51.7613 H   0  0  0  0  0  0  0  0  0  0  0  0
    1.7928   44.8599   50.5590 H   0  0  0  0  0  0  0  0  0  0  0  0
   -0.5352   44.0011   50.1821 H   0  0  0  0  0  0  0  0  0  0  0  0
   -0.9668   43.0487   56.0614 H   0  0  0  0  0  0  0  0  0  0  0  0
   -2.4129   43.7250   58.1238 H   0  0  0  0  0  0  0  0  0  0  0  0
   -4.0849   45.6944   57.6052 H   0  0  0  0  0  0  0  0  0  0  0  0
    4.9265   43.6440   54.1106 H   0  0  0  0  0  0  0  0  0  0  0  0
    5.4501   43.9711   52.4119 H   0  0  0  0  0  0  0  0  0  0  0  0
    5.9536   45.6491   54.9101 H   0  0  0  0  0  0  0  0  0  0  0  0
    7.1512   44.9382   53.7782 H   0  0  0  0  0  0  0  0  0  0  0  0
    7.2422   48.0661   51.1657 H   0  0  0  0  0  0  0  0  0  0  0  0
    8.5342   48.8962   52.1526 H   0  0  0  0  0  0  0  0  0  0  0  0
  1  2  1  0
  2  3  1  0
  3  4  1  0
  4  5  1  0
  5  6  1  0
  6  7  1  0
  7  8  1  0
  8  9  1  0
  9 10  1  0
 10 11  1  0
 11 12  2  0
 11 13  1  0
 13 14  1  0
 14 15  2  0
 15 16  1  0
 16 17  1  0
 17 18  1  0
 18 19  2  0
 19 20  1  0
 20 21  2  0
 21 22  1  0
 17 23  2  0
 10 24  1  0
 24 25  1  0
  6 26  1  0
 26  2  1  0
 25  7  1  0
 23 14  1  0
 22 18  1  0
  1 27  1  0
  1 28  1  0
  1 29  1  0
  3 30  1  0
  3 31  1  0
  4 32  1  0
  4 33  1  0
  5 34  1  0
  5 35  1  0
  6 36  1  1
  8 37  1  0
  8 38  1  0
  9 39  1  0
  9 40  1  0
 13 41  1  0
 13 42  1  0
 15 43  1  0
 19 44  1  0
 20 45  1  0
 21 46  1  0
 24 47  1  0
 24 48  1  0
 25 49  1  0
 25 50  1  0
 26 51  1  0
 26 52  1  0
M  END
>  <meeko>  (2) 
{"is_sidechain": [false], "free_energy": -7.5, "intermolecular_energy": -9.292, "internal_energy": -0.698}

$$$$
ligand_94_conformer_2_docked
     RDKit          3D

 52 55  0  0  0  0  0  0  0  0999 V2000
    7.4140   45.5700   50.7680 C   0  0  0  0  0  0  0  0  0  0  0  0
    8.4790   46.5840   50.8100 N   0  0  0  0  0  0  0  0  0  0  0  0
    9.7940   46.0130   51.1970 C   0  0  0  0  0  0  0  0  0  0  0  0
   10.2660   46.4360   52.5990 C   0  0  0  0  0  0  0  0  0  0  0  0
    9.0880   46.4730   53.5710 C   0  0  0  0  0  0  0  0  0  0  0  0
    7.9790   47.4770   53.1390 C   0  0  2  0  0  0  0  0  0  0  0  0
    6.6220   46.9920   53.5440 N   0  0  0  0  0  0  0  0  0  0  0  0
    5.5370   47.9200   53.1120 C   0  0  0  0  0  0  0  0  0  0  0  0
    4.2510   47.8340   53.9630 C   0  0  0  0  0  0  0  0  0  0  0  0
    4.1150   46.5010   54.5600 N   0  0  0  0  0  0  0  0  0  0  0  0
    2.8730   45.7640   54.5490 C   0  0  0  0  0  0  0  0  0  0  0  0
    2.6430   44.9230   55.4600 O   0  0  0  0  0  0  0  0  0  0  0  0
    1.8630   45.9120   53.4420 C   0  0  0  0  0  0  0  0  0  0  0  0
    1.9360   44.7410   52.5100 C   0  0  0  0  0  0  0  0  0  0  0  0
    0.8340   43.9490   52.1980 C   0  0  0  0  0  0  0  0  0  0  0  0
    1.3650   42.7020   51.2020 S   0  0  0  0  0  0  0  0  0  0  0  0
    2.9640   43.2230   51.2090 C   0  0  0  0  0  0  0  0  0  0  0  0
    4.0830   42.5390   50.5510 C   0  0  0  0  0  0  0  0  0  0  0  0
    5.4180   42.9200   50.6160 C   0  0  0  0  0  0  0  0  0  0  0  0
    6.2730   42.0500   49.9290 C   0  0  0  0  0  0  0  0  0  0  0  0
    5.6180   40.9840   49.3270 C   0  0  0  0  0  0  0  0  0  0  0  0
    3.9740   41.1220   49.6500 S   0  0  0  0  0  0  0  0  0  0  0  0
    3.1140   44.3330   51.9630 N   0  0  0  0  0  0  0  0  0  0  0  0
    5.2550   45.9620   55.3100 C   0  0  0  0  0  0  0  0  0  0  0  0
    6.5340   46.7500   55.0050 C   0  0  0  0  0  0  0  0  0  0  0  0
    8.0930   47.7690   51.6030 C   0  0  0  0  0  0  0  0  0  0  0  0
    7.1271   45.2969   51.7942 H   0  0  0  0  0  0  0  0  0  0  0  0
    6.5400   45.9779   50.2392 H   0  0  0  0  0  0  0  0  0  0  0  0
    7.7786   44.6770   50.2392 H   0  0  0  0  0  0  0  0  0  0  0  0
    9.7163   44.9160   51.1735 H   0  0  0  0  0  0  0  0  0  0  0  0
   10.5341   46.3979   50.4800 H   0  0  0  0  0  0  0  0  0  0  0  0
   11.0129   45.7149   52.9625 H   0  0  0  0  0  0  0  0  0  0  0  0
   10.7084   47.4412   52.5374 H   0  0  0  0  0  0  0  0  0  0  0  0
    8.6478   45.4665   53.6279 H   0  0  0  0  0  0  0  0  0  0  0  0
    9.4740   46.8059   54.5458 H   0  0  0  0  0  0  0  0  0  0  0  0
    8.1273   48.4313   53.6656 H   0  0  0  0  0  0  0  0  0  0  0  0
    5.9205   48.9493   53.1703 H   0  0  0  0  0  0  0  0  0  0  0  0
    5.2585   47.6249   52.0896 H   0  0  0  0  0  0  0  0  0  0  0  0
    4.2969   48.5860   54.7644 H   0  0  0  0  0  0  0  0  0  0  0  0
    3.3831   48.0220   53.3139 H   0  0  0  0  0  0  0  0  0  0  0  0
    0.8540   45.9672   53.8766 H   0  0  0  0  0  0  0  0  0  0  0  0
    2.0822   46.8311   52.8788 H   0  0  0  0  0  0  0  0  0  0  0  0
   -0.1986   44.1100   52.5413 H   0  0  0  0  0  0  0  0  0  0  0  0
    5.7673   43.8143   51.1528 H   0  0  0  0  0  0  0  0  0  0  0  0
    7.3616   42.1971   49.8715 H   0  0  0  0  0  0  0  0  0  0  0  0
    6.0937   40.1853   48.7390 H   0  0  0  0  0  0  0  0  0  0  0  0
    5.0404   46.0270   56.3869 H   0  0  0  0  0  0  0  0  0  0  0  0
    5.4083   44.9147   55.0106 H   0  0  0  0  0  0  0  0  0  0  0  0
    6.5083   47.7128   55.5364 H   0  0  0  0  0  0  0  0  0  0  0  0
    7.4105   46.1744   55.3374 H   0  0  0  0  0  0  0  0  0  0  0  0
    7.1176   48.1278   51.2425 H   0  0  0  0  0  0  0  0  0  0  0  0
    8.8853   48.5207   51.4722 H   0  0  0  0  0  0  0  0  0  0  0  0
  1  2  1  0
  2  3  1  0
  3  4  1  0
  4  5  1  0
  5  6  1  0
  6  7  1  0
  7  8  1  0
  8  9  1  0
  9 10  1  0
 10 11  1  0
 11 12  2  0
 11 13  1  0
 13 14  1  0
 14 15  2  0
 15 16  1  0
 16 17  1  0
 17 18  1  0
 18 19  2  0
 19 20  1  0
 20 21  2  0
 21 22  1  0
 17 23  2  0
 10 24  1  0
 24 25  1  0
  6 26  1  0
 26  2  1  0
 25  7  1  0
 23 14  1  0
 22 18  1  0
  1 27  1  0
  1 28  1  0
  1 29  1  0
  3 30  1  0
  3 31  1  0
  4 32  1  0
  4 33  1  0
  5 34  1  0
  5 35  1  0
  6 36  1  1
  8 37  1  0
  8 38  1  0
  9 39  1  0
  9 40  1  0
 13 41  1  0
 13 42  1  0
 15 43  1  0
 19 44  1  0
 20 45  1  0
 21 46  1  0
 24 47  1  0
 24 48  1  0
 25 49  1  0
 25 50  1  0
 26 51  1  0
 26 52  1  0
M  END
>  <meeko>  (3) 
{"is_sidechain": [false], "free_energy": -7.459, "intermolecular_energy": -9.128, "internal_energy": -0.811}

$$$$
ligand_94_conformer_2_docked
     RDKit          3D

 52 55  0  0  0  0  0  0  0  0999 V2000
   -2.2480   47.3470   57.2930 C   0  0  0  0  0  0  0  0  0  0  0  0
   -3.5010   46.6340   56.9990 N   0  0  0  0  0  0  0  0  0  0  0  0
   -3.9410   45.7680   58.1230 C   0  0  0  0  0  0  0  0  0  0  0  0
   -3.8070   44.2630   57.8340 C   0  0  0  0  0  0  0  0  0  0  0  0
   -2.5250   43.9780   57.0540 C   0  0  0  0  0  0  0  0  0  0  0  0
   -2.4760   44.7130   55.6820 C   0  0  2  0  0  0  0  0  0  0  0  0
   -1.0740   45.0920   55.3200 N   0  0  0  0  0  0  0  0  0  0  0  0
   -0.6940   44.6180   53.9570 C   0  0  0  0  0  0  0  0  0  0  0  0
    0.8240   44.4250   53.7520 C   0  0  0  0  0  0  0  0  0  0  0  0
    1.5820   45.3080   54.6460 N   0  0  0  0  0  0  0  0  0  0  0  0
    2.7080   46.0930   54.1960 C   0  0  0  0  0  0  0  0  0  0  0  0
    3.6120   46.4070   55.0170 O   0  0  0  0  0  0  0  0  0  0  0  0
    2.8100   46.6150   52.7880 C   0  0  0  0  0  0  0  0  0  0  0  0
    4.1300   46.2370   52.1860 C   0  0  0  0  0  0  0  0  0  0  0  0
    4.2530   45.3420   51.1260 C   0  0  0  0  0  0  0  0  0  0  0  0
    5.8940   45.1290   50.8240 S   0  0  0  0  0  0  0  0  0  0  0  0
    6.3730   46.1800   52.0470 C   0  0  0  0  0  0  0  0  0  0  0  0
    7.7610   46.4630   52.4280 C   0  0  0  0  0  0  0  0  0  0  0  0
    8.8760   46.2930   51.6160 C   0  0  0  0  0  0  0  0  0  0  0  0
   10.0700   46.6900   52.2290 C   0  0  0  0  0  0  0  0  0  0  0  0
    9.9000   47.1760   53.5190 C   0  0  0  0  0  0  0  0  0  0  0  0
    8.2630   47.1120   53.8970 S   0  0  0  0  0  0  0  0  0  0  0  0
    5.3060   46.6960   52.6950 N   0  0  0  0  0  0  0  0  0  0  0  0
    1.2580   45.2830   56.0760 C   0  0  0  0  0  0  0  0  0  0  0  0
   -0.0940   44.6040   56.3210 C   0  0  0  0  0  0  0  0  0  0  0  0
   -3.4560   45.9360   55.6980 C   0  0  0  0  0  0  0  0  0  0  0  0
   -2.1159   47.4222   58.3824 H   0  0  0  0  0  0  0  0  0  0  0  0
   -1.4015   46.7953   56.8582 H   0  0  0  0  0  0  0  0  0  0  0  0
   -2.2899   48.3565   56.8582 H   0  0  0  0  0  0  0  0  0  0  0  0
   -3.3300   46.0077   59.0057 H   0  0  0  0  0  0  0  0  0  0  0  0
   -5.0101   45.9701   58.2847 H   0  0  0  0  0  0  0  0  0  0  0  0
   -3.7808   43.7129   58.7862 H   0  0  0  0  0  0  0  0  0  0  0  0
   -4.6684   43.9393   57.2314 H   0  0  0  0  0  0  0  0  0  0  0  0
   -1.6661   44.3049   57.6585 H   0  0  0  0  0  0  0  0  0  0  0  0
   -2.4945   42.8972   56.8515 H   0  0  0  0  0  0  0  0  0  0  0  0
   -2.8170   44.0289   54.8909 H   0  0  0  0  0  0  0  0  0  0  0  0
   -1.1914   43.6536   53.7765 H   0  0  0  0  0  0  0  0  0  0  0  0
   -1.0102   45.4006   53.2517 H   0  0  0  0  0  0  0  0  0  0  0  0
    1.0879   43.3791   53.9677 H   0  0  0  0  0  0  0  0  0  0  0  0
    1.0758   44.6737   52.7105 H   0  0  0  0  0  0  0  0  0  0  0  0
    1.9987   46.1851   52.1822 H   0  0  0  0  0  0  0  0  0  0  0  0
    2.7267   47.7117   52.8066 H   0  0  0  0  0  0  0  0  0  0  0  0
    3.4257   44.8609   50.5837 H   0  0  0  0  0  0  0  0  0  0  0  0
    8.8253   45.8874   50.5948 H   0  0  0  0  0  0  0  0  0  0  0  0
   11.0508   46.6234   51.7355 H   0  0  0  0  0  0  0  0  0  0  0  0
   10.6998   47.5405   54.1804 H   0  0  0  0  0  0  0  0  0  0  0  0
    2.0417   44.7282   56.6128 H   0  0  0  0  0  0  0  0  0  0  0  0
    1.2009   46.3193   56.4406 H   0  0  0  0  0  0  0  0  0  0  0  0
    0.0189   43.5141   56.2242 H   0  0  0  0  0  0  0  0  0  0  0  0
   -0.4498   44.8442   57.3338 H   0  0  0  0  0  0  0  0  0  0  0  0
   -3.1322   46.6525   54.9288 H   0  0  0  0  0  0  0  0  0  0  0  0
   -4.4659   45.5458   55.5035 H   0  0  0  0  0  0  0  0  0  0  0  0
  1  2  1  0
  2  3  1  0
  3  4  1  0
  4  5  1  0
  5  6  1  0
  6  7  1  0
  7  8  1  0
  8  9  1  0
  9 10  1  0
 10 11  1  0
 11 12  2  0
 11 13  1  0
 13 14  1  0
 14 15  2  0
 15 16  1  0
 16 17  1  0
 17 18  1  0
 18 19  2  0
 19 20  1  0
 20 21  2  0
 21 22  1  0
 17 23  2  0
 10 24  1  0
 24 25  1  0
  6 26  1  0
 26  2  1  0
 25  7  1  0
 23 14  1  0
 22 18  1  0
  1 27  1  0
  1 28  1  0
  1 29  1  0
  3 30  1  0
  3 31  1  0
  4 32  1  0
  4 33  1  0
  5 34  1  0
  5 35  1  0
  6 36  1  6
  8 37  1  0
  8 38  1  0
  9 39  1  0
  9 40  1  0
 13 41  1  0
 13 42  1  0
 15 43  1  0
 19 44  1  0
 20 45  1  0
 21 46  1  0
 24 47  1  0
 24 48  1  0
 25 49  1  0
 25 50  1  0
 26 51  1  0
 26 52  1  0
M  END
>  <meeko>  (4) 
{"is_sidechain": [false], "free_energy": -7.09, "intermolecular_energy": -9.206, "internal_energy": -0.279}

$$$$
ligand_94_conformer_2_docked
     RDKit          3D

 52 55  0  0  0  0  0  0  0  0999 V2000
   -0.4870   46.0310   56.5360 C   0  0  0  0  0  0  0  0  0  0  0  0
   -1.9550   45.9430   56.5300 N   0  0  0  0  0  0  0  0  0  0  0  0
   -2.4760   45.0230   57.5720 C   0  0  0  0  0  0  0  0  0  0  0  0
   -3.0700   43.7200   57.0090 C   0  0  0  0  0  0  0  0  0  0  0  0
   -2.2350   43.2140   55.8340 C   0  0  0  0  0  0  0  0  0  0  0  0
   -2.1670   44.2330   54.6580 C   0  0  2  0  0  0  0  0  0  0  0  0
   -0.8520   44.1530   53.9470 N   0  0  0  0  0  0  0  0  0  0  0  0
   -0.8270   44.9800   52.7060 C   0  0  0  0  0  0  0  0  0  0  0  0
    0.1920   44.5070   51.6480 C   0  0  0  0  0  0  0  0  0  0  0  0
    1.3090   43.8010   52.2850 N   0  0  0  0  0  0  0  0  0  0  0  0
    2.6890   44.0540   51.9420 C   0  0  0  0  0  0  0  0  0  0  0  0
    3.5430   43.1380   52.0930 O   0  0  0  0  0  0  0  0  0  0  0  0
    3.1650   45.4030   51.4720 C   0  0  0  0  0  0  0  0  0  0  0  0
    4.1480   45.9780   52.4450 C   0  0  0  0  0  0  0  0  0  0  0  0
    3.7670   46.6330   53.6140 C   0  0  0  0  0  0  0  0  0  0  0  0
    5.1630   47.1990   54.3620 S   0  0  0  0  0  0  0  0  0  0  0  0
    6.1860   46.5870   53.1750 C   0  0  0  0  0  0  0  0  0  0  0  0
    7.6420   46.7620   53.1370 C   0  0  0  0  0  0  0  0  0  0  0  0
    8.4400   47.1550   54.2040 C   0  0  0  0  0  0  0  0  0  0  0  0
    9.8040   47.1900   53.8890 C   0  0  0  0  0  0  0  0  0  0  0  0
   10.0830   46.8230   52.5790 C   0  0  0  0  0  0  0  0  0  0  0  0
    8.6330   46.4520   51.8130 S   0  0  0  0  0  0  0  0  0  0  0  0
    5.4880   45.9580   52.2050 N   0  0  0  0  0  0  0  0  0  0  0  0
    0.9950   42.7060   53.2090 C   0  0  0  0  0  0  0  0  0  0  0  0
   -0.4770   42.7520   53.6340 C   0  0  0  0  0  0  0  0  0  0  0  0
   -2.4940   45.6740   55.1810 C   0  0  0  0  0  0  0  0  0  0  0  0
   -0.1252   46.0527   57.5746 H   0  0  0  0  0  0  0  0  0  0  0  0
   -0.0651   45.1565   56.0190 H   0  0  0  0  0  0  0  0  0  0  0  0
   -0.1726   46.9496   56.0190 H   0  0  0  0  0  0  0  0  0  0  0  0
   -1.6496   44.7630   58.2498 H   0  0  0  0  0  0  0  0  0  0  0  0
   -3.2922   45.5511   58.0867 H   0  0  0  0  0  0  0  0  0  0  0  0
   -3.0814   42.9560   57.8003 H   0  0  0  0  0  0  0  0  0  0  0  0
   -4.0935   43.9186   56.6582 H   0  0  0  0  0  0  0  0  0  0  0  0
   -1.2123   43.0178   56.1884 H   0  0  0  0  0  0  0  0  0  0  0  0
   -2.7175   42.3015   55.4538 H   0  0  0  0  0  0  0  0  0  0  0  0
   -2.9306   43.9749   53.9095 H   0  0  0  0  0  0  0  0  0  0  0  0
   -1.8297   44.9539   52.2544 H   0  0  0  0  0  0  0  0  0  0  0  0
   -0.5204   45.9923   53.0082 H   0  0  0  0  0  0  0  0  0  0  0  0
   -0.3089   43.8283   50.9420 H   0  0  0  0  0  0  0  0  0  0  0  0
    0.5854   45.3864   51.1171 H   0  0  0  0  0  0  0  0  0  0  0  0
    3.6482   45.2948   50.4898 H   0  0  0  0  0  0  0  0  0  0  0  0
    2.3010   46.0796   51.3958 H   0  0  0  0  0  0  0  0  0  0  0  0
    2.7378   46.7576   53.9818 H   0  0  0  0  0  0  0  0  0  0  0  0
    8.0408   47.4127   55.1961 H   0  0  0  0  0  0  0  0  0  0  0  0
   10.5812   47.4808   54.6111 H   0  0  0  0  0  0  0  0  0  0  0  0
   11.0822   46.7820   52.1207 H   0  0  0  0  0  0  0  0  0  0  0  0
    1.1959   41.7460   52.7109 H   0  0  0  0  0  0  0  0  0  0  0  0
    1.6226   42.8131   54.1060 H   0  0  0  0  0  0  0  0  0  0  0  0
   -1.1081   42.3766   52.8150 H   0  0  0  0  0  0  0  0  0  0  0  0
   -0.6240   42.1229   54.5243 H   0  0  0  0  0  0  0  0  0  0  0  0
   -2.0637   46.4054   54.4810 H   0  0  0  0  0  0  0  0  0  0  0  0
   -3.5890   45.7562   55.2456 H   0  0  0  0  0  0  0  0  0  0  0  0
  1  2  1  0
  2  3  1  0
  3  4  1  0
  4  5  1  0
  5  6  1  0
  6  7  1  0
  7  8  1  0
  8  9  1  0
  9 10  1  0
 10 11  1  0
 11 12  2  0
 11 13  1  0
 13 14  1  0
 14 15  2  0
 15 16  1  0
 16 17  1  0
 17 18  1  0
 18 19  2  0
 19 20  1  0
 20 21  2  0
 21 22  1  0
 17 23  2  0
 10 24  1  0
 24 25  1  0
  6 26  1  0
 26  2  1  0
 25  7  1  0
 23 14  1  0
 22 18  1  0
  1 27  1  0
  1 28  1  0
  1 29  1  0
  3 30  1  0
  3 31  1  0
  4 32  1  0
  4 33  1  0
  5 34  1  0
  5 35  1  0
  6 36  1  6
  8 37  1  0
  8 38  1  0
  9 39  1  0
  9 40  1  0
 13 41  1  0
 13 42  1  0
 15 43  1  0
 19 44  1  0
 20 45  1  0
 21 46  1  0
 24 47  1  0
 24 48  1  0
 25 49  1  0
 25 50  1  0
 26 51  1  0
 26 52  1  0
M  END
>  <meeko>  (5) 
{"is_sidechain": [false], "free_energy": -7.058, "intermolecular_energy": -8.785, "internal_energy": -0.66}

$$$$
