MODEL 1
REMARK VINA RESULT:    -9.290      0.000      0.000
REMARK INTER + INTRA:         -11.409
REMARK INTER:                 -11.191
REMARK INTRA:                  -0.218
REMARK UNBOUND:                -0.218
REMARK SMILES O=C(Nc1cccc(-c2[nH]nc3c2COCC3)c1)c1cncc(O)c1
REMARK SMILES IDX 1 1 2 2 3 3 19 5 20 6 25 7 21 8 23 9 22 10 24 11 4 13 5 14
REMARK SMILES IDX 18 15 6 16 8 17 7 18 9 19 10 20 13 21 11 22 14 23 12 24
REMARK SMILES IDX 15 25 17 26 16 27
REMARK H PARENT 3 4 24 12 10 28
ROOT
ATOM      1  O   UNL     1       1.295  43.468  53.694  1.00  0.00    -0.269 OA
ATOM      2  C   UNL     1       0.837  44.567  54.110  1.00  0.00     0.257 C 
ATOM      3  N   UNL     1       1.271  45.796  53.501  1.00  0.00    -0.322 N 
ATOM      4  H   UNL     1       0.606  46.600  53.488  1.00  0.00     0.170 HD
ENDROOT
BRANCH   2   5
ATOM      5  C   UNL     1      -0.182  44.571  55.188  1.00  0.00     0.062 A 
ATOM      6  C   UNL     1       0.027  45.279  56.385  1.00  0.00     0.125 A 
ATOM      7  C   UNL     1      -1.374  43.842  55.045  1.00  0.00     0.063 A 
ATOM      8  N   UNL     1      -0.916  45.261  57.366  1.00  0.00    -0.260 NA
ATOM      9  C   UNL     1      -2.328  43.842  56.065  1.00  0.00     0.134 A 
ATOM     10  C   UNL     1      -2.077  44.570  57.232  1.00  0.00     0.157 A 
BRANCH   9  11
ATOM     11  O   UNL     1      -3.510  43.123  55.910  1.00  0.00    -0.506 OA
ATOM     12  H   UNL     1      -3.593  42.166  56.235  1.00  0.00     0.293 HD
ENDBRANCH   9  11
ENDBRANCH   2   5
BRANCH   3  13
ATOM     13  C   UNL     1       2.503  45.930  52.771  1.00  0.00     0.042 A 
ATOM     14  C   UNL     1       2.490  45.822  51.373  1.00  0.00     0.026 A 
ATOM     15  C   UNL     1       3.712  46.225  53.426  1.00  0.00     0.036 A 
ATOM     16  C   UNL     1       3.670  45.973  50.643  1.00  0.00     0.003 A 
ATOM     17  C   UNL     1       4.907  46.365  52.699  1.00  0.00     0.002 A 
ATOM     18  C   UNL     1       4.873  46.241  51.299  1.00  0.00     0.010 A 
BRANCH  17  19
ATOM     19  C   UNL     1       6.185  46.661  53.385  1.00  0.00     0.071 A 
ATOM     20  N   UNL     1       6.290  47.061  54.673  1.00  0.00    -0.277 N 
ATOM     21  C   UNL     1       7.463  46.625  52.855  1.00  0.00     0.027 A 
ATOM     22  N   UNL     1       7.564  47.266  54.982  1.00  0.00    -0.180 NA
ATOM     23  C   UNL     1       8.001  46.303  51.492  1.00  0.00     0.200 C 
ATOM     24  C   UNL     1       8.284  46.985  53.882  1.00  0.00     0.071 A 
ATOM     25  O   UNL     1       9.280  46.902  51.309  1.00  0.00    -0.376 OA
ATOM     26  C   UNL     1       9.755  47.161  53.703  1.00  0.00     0.087 C 
ATOM     27  C   UNL     1      10.172  46.529  52.356  1.00  0.00     0.167 C 
ATOM     28  H   UNL     1       5.503  47.189  55.348  1.00  0.00     0.190 HD
ENDBRANCH  17  19
ENDBRANCH   3  13
TORSDOF 4
ENDMDL
MODEL 2
REMARK VINA RESULT:    -9.124      2.148      2.312
REMARK INTER + INTRA:         -11.208
REMARK INTER:                 -10.899
REMARK INTRA:                  -0.309
REMARK UNBOUND:                -0.218
REMARK SMILES O=C(Nc1cccc(-c2[nH]nc3c2COCC3)c1)c1cncc(O)c1
REMARK SMILES IDX 1 1 2 2 3 3 19 5 20 6 25 7 21 8 23 9 22 10 24 11 4 13 5 14
REMARK SMILES IDX 18 15 6 16 8 17 7 18 9 19 10 20 13 21 11 22 14 23 12 24
REMARK SMILES IDX 15 25 17 26 16 27
REMARK H PARENT 3 4 24 12 10 28
ROOT
ATOM      1  O   UNL     1       1.025  45.621  53.112  1.00  0.00    -0.269 OA
ATOM      2  C   UNL     1       1.192  44.843  54.090  1.00  0.00     0.257 C 
ATOM      3  N   UNL     1       2.436  44.132  54.230  1.00  0.00    -0.322 N 
ATOM      4  H   UNL     1       2.758  43.891  55.194  1.00  0.00     0.170 HD
ENDROOT
BRANCH   2   5
ATOM      5  C   UNL     1       0.122  44.710  55.108  1.00  0.00     0.062 A 
ATOM      6  C   UNL     1       0.289  45.209  56.412  1.00  0.00     0.125 A 
ATOM      7  C   UNL     1      -1.082  44.055  54.796  1.00  0.00     0.063 A 
ATOM      8  N   UNL     1      -0.701  45.068  57.333  1.00  0.00    -0.260 NA
ATOM      9  C   UNL     1      -2.085  43.925  55.758  1.00  0.00     0.134 A 
ATOM     10  C   UNL     1      -1.873  44.448  57.038  1.00  0.00     0.157 A 
BRANCH   9  11
ATOM     11  O   UNL     1      -3.277  43.281  55.437  1.00  0.00    -0.506 OA
ATOM     12  H   UNL     1      -3.283  42.385  54.962  1.00  0.00     0.293 HD
ENDBRANCH   9  11
ENDBRANCH   2   5
BRANCH   3  13
ATOM     13  C   UNL     1       3.334  43.877  53.137  1.00  0.00     0.042 A 
ATOM     14  C   UNL     1       3.042  42.847  52.232  1.00  0.00     0.026 A 
ATOM     15  C   UNL     1       4.471  44.677  52.923  1.00  0.00     0.036 A 
ATOM     16  C   UNL     1       3.887  42.598  51.149  1.00  0.00     0.003 A 
ATOM     17  C   UNL     1       5.335  44.424  51.843  1.00  0.00     0.002 A 
ATOM     18  C   UNL     1       5.028  43.379  50.955  1.00  0.00     0.010 A 
BRANCH  17  19
ATOM     19  C   UNL     1       6.540  45.254  51.622  1.00  0.00     0.071 A 
ATOM     20  N   UNL     1       7.202  45.348  50.445  1.00  0.00    -0.277 N 
ATOM     21  C   UNL     1       7.218  46.031  52.545  1.00  0.00     0.027 A 
ATOM     22  N   UNL     1       8.250  46.151  50.578  1.00  0.00    -0.180 NA
ATOM     23  C   UNL     1       7.013  46.305  54.005  1.00  0.00     0.200 C 
ATOM     24  C   UNL     1       8.255  46.583  51.851  1.00  0.00     0.071 A 
ATOM     25  O   UNL     1       8.233  46.724  54.608  1.00  0.00    -0.376 OA
ATOM     26  C   UNL     1       9.294  47.427  52.509  1.00  0.00     0.087 C 
ATOM     27  C   UNL     1       8.789  47.837  53.911  1.00  0.00     0.167 C 
ATOM     28  H   UNL     1       6.943  44.878  49.550  1.00  0.00     0.190 HD
ENDBRANCH  17  19
ENDBRANCH   3  13
TORSDOF 4
ENDMDL
MODEL 3
REMARK VINA RESULT:    -8.807      4.892      7.800
REMARK INTER + INTRA:         -10.828
REMARK INTER:                 -10.348
REMARK INTRA:                  -0.480
REMARK UNBOUND:                -0.218
REMARK SMILES O=C(Nc1cccc(-c2[nH]nc3c2COCC3)c1)c1cncc(O)c1
REMARK SMILES IDX 1 1 2 2 3 3 19 5 20 6 25 7 21 8 23 9 22 10 24 11 4 13 5 14
REMARK SMILES IDX 18 15 6 16 8 17 7 18 9 19 10 20 13 21 11 22 14 23 12 24
REMARK SMILES IDX 15 25 17 26 16 27
REMARK H PARENT 3 4 24 12 10 28
ROOT
ATOM      1  O   UNL     1       6.146  41.263  49.846  1.00  0.00    -0.269 OA
ATOM      2  C   UNL     1       6.006  41.782  48.705  1.00  0.00     0.257 C 
ATOM      3  N   UNL     1       6.848  42.881  48.314  1.00  0.00    -0.322 N 
ATOM      4  H   UNL     1       7.071  42.993  47.300  1.00  0.00     0.170 HD
ENDROOT
BRANCH   2   5
ATOM      5  C   UNL     1       5.007  41.218  47.765  1.00  0.00     0.062 A 
ATOM      6  C   UNL     1       3.941  40.424  48.223  1.00  0.00     0.125 A 
ATOM      7  C   UNL     1       5.121  41.446  46.383  1.00  0.00     0.063 A 
ATOM      8  N   UNL     1       3.041  39.908  47.343  1.00  0.00    -0.260 NA
ATOM      9  C   UNL     1       4.183  40.908  45.499  1.00  0.00     0.134 A 
ATOM     10  C   UNL     1       3.135  40.133  46.007  1.00  0.00     0.157 A 
BRANCH   9  11
ATOM     11  O   UNL     1       4.300  41.146  44.132  1.00  0.00    -0.506 OA
ATOM     12  H   UNL     1       3.708  41.821  43.660  1.00  0.00     0.293 HD
ENDBRANCH   9  11
ENDBRANCH   2   5
BRANCH   3  13
ATOM     13  C   UNL     1       7.528  43.734  49.251  1.00  0.00     0.042 A 
ATOM     14  C   UNL     1       8.928  43.808  49.226  1.00  0.00     0.026 A 
ATOM     15  C   UNL     1       6.814  44.541  50.155  1.00  0.00     0.036 A 
ATOM     16  C   UNL     1       9.606  44.649  50.110  1.00  0.00     0.003 A 
ATOM     17  C   UNL     1       7.490  45.380  51.058  1.00  0.00     0.002 A 
ATOM     18  C   UNL     1       8.894  45.430  51.023  1.00  0.00     0.010 A 
BRANCH  17  19
ATOM     19  C   UNL     1       6.744  46.221  52.021  1.00  0.00     0.071 A 
ATOM     20  N   UNL     1       7.039  47.510  52.305  1.00  0.00    -0.277 N 
ATOM     21  C   UNL     1       5.669  45.856  52.813  1.00  0.00     0.027 A 
ATOM     22  N   UNL     1       6.202  47.976  53.222  1.00  0.00    -0.180 NA
ATOM     23  C   UNL     1       4.912  44.574  52.990  1.00  0.00     0.200 C 
ATOM     24  C   UNL     1       5.353  46.978  53.523  1.00  0.00     0.071 A 
ATOM     25  O   UNL     1       4.262  44.551  54.257  1.00  0.00    -0.376 OA
ATOM     26  C   UNL     1       4.294  46.984  54.573  1.00  0.00     0.087 C 
ATOM     27  C   UNL     1       3.442  45.703  54.430  1.00  0.00     0.167 C 
ATOM     28  H   UNL     1       7.801  48.080  51.875  1.00  0.00     0.190 HD
ENDBRANCH  17  19
ENDBRANCH   3  13
TORSDOF 4
ENDMDL
MODEL 4
REMARK VINA RESULT:    -8.718      2.106      8.713
REMARK INTER + INTRA:         -10.720
REMARK INTER:                 -10.532
REMARK INTRA:                  -0.188
REMARK UNBOUND:                -0.218
REMARK SMILES O=C(Nc1cccc(-c2[nH]nc3c2COCC3)c1)c1cncc(O)c1
REMARK SMILES IDX 1 1 2 2 3 3 19 5 20 6 25 7 21 8 23 9 22 10 24 11 4 13 5 14
REMARK SMILES IDX 18 15 6 16 8 17 7 18 9 19 10 20 13 21 11 22 14 23 12 24
REMARK SMILES IDX 15 25 17 26 16 27
REMARK H PARENT 3 4 24 12 10 28
ROOT
ATOM      1  O   UNL     1       5.088  46.812  51.997  1.00  0.00    -0.269 OA
ATOM      2  C   UNL     1       5.937  45.981  52.422  1.00  0.00     0.257 C 
ATOM      3  N   UNL     1       5.569  44.597  52.564  1.00  0.00    -0.322 N 
ATOM      4  H   UNL     1       6.316  43.876  52.450  1.00  0.00     0.170 HD
ENDROOT
BRANCH   2   5
ATOM      5  C   UNL     1       7.316  46.436  52.722  1.00  0.00     0.062 A 
ATOM      6  C   UNL     1       8.383  46.152  51.852  1.00  0.00     0.125 A 
ATOM      7  C   UNL     1       7.592  47.144  53.904  1.00  0.00     0.063 A 
ATOM      8  N   UNL     1       9.642  46.570  52.150  1.00  0.00    -0.260 NA
ATOM      9  C   UNL     1       8.893  47.565  54.187  1.00  0.00     0.134 A 
ATOM     10  C   UNL     1       9.917  47.266  53.284  1.00  0.00     0.157 A 
BRANCH   9  11
ATOM     11  O   UNL     1       9.154  48.273  55.357  1.00  0.00    -0.506 OA
ATOM     12  H   UNL     1       9.822  47.936  56.042  1.00  0.00     0.293 HD
ENDBRANCH   9  11
ENDBRANCH   2   5
BRANCH   3  13
ATOM     13  C   UNL     1       4.211  44.144  52.695  1.00  0.00     0.042 A 
ATOM     14  C   UNL     1       3.694  43.238  51.758  1.00  0.00     0.026 A 
ATOM     15  C   UNL     1       3.407  44.547  53.776  1.00  0.00     0.036 A 
ATOM     16  C   UNL     1       2.385  42.767  51.880  1.00  0.00     0.003 A 
ATOM     17  C   UNL     1       2.084  44.088  53.898  1.00  0.00     0.002 A 
ATOM     18  C   UNL     1       1.583  43.189  52.942  1.00  0.00     0.010 A 
BRANCH  17  19
ATOM     19  C   UNL     1       1.229  44.520  55.027  1.00  0.00     0.071 A 
ATOM     20  N   UNL     1       1.690  45.087  56.166  1.00  0.00    -0.277 N 
ATOM     21  C   UNL     1      -0.144  44.401  55.148  1.00  0.00     0.027 A 
ATOM     22  N   UNL     1       0.680  45.338  56.989  1.00  0.00    -0.180 NA
ATOM     23  C   UNL     1      -1.208  43.829  54.258  1.00  0.00     0.200 C 
ATOM     24  C   UNL     1      -0.442  44.938  56.366  1.00  0.00     0.071 A 
ATOM     25  O   UNL     1      -2.354  43.468  55.023  1.00  0.00    -0.376 OA
ATOM     26  C   UNL     1      -1.824  44.922  56.927  1.00  0.00     0.087 C 
ATOM     27  C   UNL     1      -2.818  44.571  55.797  1.00  0.00     0.167 C 
ATOM     28  H   UNL     1       2.686  45.311  56.387  1.00  0.00     0.190 HD
ENDBRANCH  17  19
ENDBRANCH   3  13
TORSDOF 4
ENDMDL
MODEL 5
REMARK VINA RESULT:    -8.264      3.011      4.420
REMARK INTER + INTRA:         -10.173
REMARK INTER:                 -10.021
REMARK INTRA:                  -0.152
REMARK UNBOUND:                -0.218
REMARK SMILES O=C(Nc1cccc(-c2[nH]nc3c2COCC3)c1)c1cncc(O)c1
REMARK SMILES IDX 1 1 2 2 3 3 19 5 20 6 25 7 21 8 23 9 22 10 24 11 4 13 5 14
REMARK SMILES IDX 18 15 6 16 8 17 7 18 9 19 10 20 13 21 11 22 14 23 12 24
REMARK SMILES IDX 15 25 17 26 16 27
REMARK H PARENT 3 4 24 12 10 28
ROOT
ATOM      1  O   UNL     1       1.448  46.059  53.006  1.00  0.00    -0.269 OA
ATOM      2  C   UNL     1       1.726  45.749  54.196  1.00  0.00     0.257 C 
ATOM      3  N   UNL     1       3.069  45.922  54.682  1.00  0.00    -0.322 N 
ATOM      4  H   UNL     1       3.203  46.123  55.697  1.00  0.00     0.170 HD
ENDROOT
BRANCH   2   5
ATOM      5  C   UNL     1       0.651  45.258  55.092  1.00  0.00     0.062 A 
ATOM      6  C   UNL     1       0.711  45.461  56.482  1.00  0.00     0.125 A 
ATOM      7  C   UNL     1      -0.446  44.552  54.569  1.00  0.00     0.063 A 
ATOM      8  N   UNL     1      -0.280  44.993  57.288  1.00  0.00    -0.260 NA
ATOM      9  C   UNL     1      -1.453  44.085  55.416  1.00  0.00     0.134 A 
ATOM     10  C   UNL     1      -1.351  44.321  56.791  1.00  0.00     0.157 A 
BRANCH   9  11
ATOM     11  O   UNL     1      -2.539  43.393  54.887  1.00  0.00    -0.506 OA
ATOM     12  H   UNL     1      -3.054  43.748  54.089  1.00  0.00     0.293 HD
ENDBRANCH   9  11
ENDBRANCH   2   5
BRANCH   3  13
ATOM     13  C   UNL     1       4.222  45.990  53.825  1.00  0.00     0.042 A 
ATOM     14  C   UNL     1       5.158  47.019  54.010  1.00  0.00     0.026 A 
ATOM     15  C   UNL     1       4.461  45.014  52.841  1.00  0.00     0.036 A 
ATOM     16  C   UNL     1       6.296  47.090  53.205  1.00  0.00     0.003 A 
ATOM     17  C   UNL     1       5.598  45.086  52.018  1.00  0.00     0.002 A 
ATOM     18  C   UNL     1       6.517  46.132  52.213  1.00  0.00     0.010 A 
BRANCH  17  19
ATOM     19  C   UNL     1       5.847  44.069  50.971  1.00  0.00     0.071 A 
ATOM     20  N   UNL     1       6.916  44.066  50.142  1.00  0.00    -0.277 N 
ATOM     21  C   UNL     1       5.049  42.992  50.627  1.00  0.00     0.027 A 
ATOM     22  N   UNL     1       6.837  43.039  49.305  1.00  0.00    -0.180 NA
ATOM     23  C   UNL     1       3.733  42.484  51.135  1.00  0.00     0.200 C 
ATOM     24  C   UNL     1       5.711  42.371  49.608  1.00  0.00     0.071 A 
ATOM     25  O   UNL     1       3.090  41.691  50.144  1.00  0.00    -0.376 OA
ATOM     26  C   UNL     1       5.136  41.202  48.881  1.00  0.00     0.087 C 
ATOM     27  C   UNL     1       3.946  40.644  49.694  1.00  0.00     0.167 C 
ATOM     28  H   UNL     1       7.703  44.751  50.144  1.00  0.00     0.190 HD
ENDBRANCH  17  19
ENDBRANCH   3  13
TORSDOF 4
ENDMDL
