MODEL 1
REMARK VINA RESULT:    -8.329      0.000      0.000
REMARK INTER + INTRA:         -11.956
REMARK INTER:                 -11.250
REMARK INTRA:                  -0.706
REMARK UNBOUND:                -0.706
REMARK SMILES O=C(Nc1cccc(OC(F)F)c1)c1ccc(Nc2ncccn2)cc1
REMARK SMILES IDX 4 1 5 2 6 3 7 4 8 5 13 6 3 7 1 8 2 9 14 11 15 12 26 13 16 14
REMARK SMILES IDX 25 15 17 16 18 17 19 19 20 20 24 21 21 22 23 23 22 24 9 25
REMARK SMILES IDX 10 26 11 27 12 28
REMARK H PARENT 3 10 18 18
ROOT
ATOM      1  C   UNL     1       6.992  46.063  53.024  1.00  0.00     0.045 A 
ATOM      2  C   UNL     1       7.189  46.091  51.636  1.00  0.00     0.026 A 
ATOM      3  C   UNL     1       8.410  46.506  51.104  1.00  0.00     0.006 A 
ATOM      4  C   UNL     1       9.443  46.912  51.952  1.00  0.00     0.047 A 
ATOM      5  C   UNL     1       9.262  46.914  53.340  1.00  0.00     0.128 A 
ATOM      6  C   UNL     1       8.028  46.495  53.873  1.00  0.00     0.072 A 
ENDROOT
BRANCH   1   7
ATOM      7  N   UNL     1       5.718  45.650  53.548  1.00  0.00    -0.322 N 
ATOM      8  O   UNL     1       4.796  47.782  53.802  1.00  0.00    -0.269 OA
ATOM      9  C   UNL     1       4.599  46.539  53.714  1.00  0.00     0.255 C 
ATOM     10  H   UNL     1       5.638  44.683  53.935  1.00  0.00     0.170 HD
BRANCH   9  11
ATOM     11  C   UNL     1       3.218  46.010  53.834  1.00  0.00     0.040 A 
ATOM     12  C   UNL     1       2.808  45.366  55.015  1.00  0.00     0.016 A 
ATOM     13  C   UNL     1       2.295  46.152  52.783  1.00  0.00     0.016 A 
ATOM     14  C   UNL     1       1.506  44.872  55.140  1.00  0.00     0.027 A 
ATOM     15  C   UNL     1       0.994  45.655  52.909  1.00  0.00     0.027 A 
ATOM     16  C   UNL     1       0.583  45.029  54.092  1.00  0.00     0.041 A 
BRANCH  16  17
ATOM     17  N   UNL     1      -0.754  44.507  54.187  1.00  0.00    -0.324 N 
ATOM     18  H   UNL     1      -1.223  44.194  53.307  1.00  0.00     0.170 HD
BRANCH  17  19
ATOM     19  C   UNL     1      -1.530  44.488  55.394  1.00  0.00     0.227 A 
ATOM     20  N   UNL     1      -2.076  43.318  55.821  1.00  0.00    -0.221 NA
ATOM     21  N   UNL     1      -1.770  45.635  56.088  1.00  0.00    -0.221 NA
ATOM     22  C   UNL     1      -2.840  43.269  56.943  1.00  0.00     0.117 A 
ATOM     23  C   UNL     1      -2.529  45.627  57.214  1.00  0.00     0.117 A 
ATOM     24  C   UNL     1      -3.083  44.433  57.671  1.00  0.00     0.040 A 
ENDBRANCH  17  19
ENDBRANCH  16  17
ENDBRANCH   9  11
ENDBRANCH   1   7
BRANCH   5  25
ATOM     25  O   UNL     1      10.328  47.344  54.147  1.00  0.00    -0.435 OA
BRANCH  25  26
ATOM     26  C   UNL     1      10.263  47.508  55.560  1.00  0.00     0.542 C 
ATOM     27  F   UNL     1       9.591  48.680  55.849  1.00  0.00    -0.167 F 
ATOM     28  F   UNL     1      11.542  47.582  56.086  1.00  0.00    -0.167 F 
ENDBRANCH  25  26
ENDBRANCH   5  25
TORSDOF 6
ENDMDL
MODEL 2
REMARK VINA RESULT:    -8.127      2.174      2.710
REMARK INTER + INTRA:         -11.684
REMARK INTER:                 -11.333
REMARK INTRA:                  -0.351
REMARK UNBOUND:                -0.706
REMARK SMILES O=C(Nc1cccc(OC(F)F)c1)c1ccc(Nc2ncccn2)cc1
REMARK SMILES IDX 4 1 5 2 6 3 7 4 8 5 13 6 3 7 1 8 2 9 14 11 15 12 26 13 16 14
REMARK SMILES IDX 25 15 17 16 18 17 19 19 20 20 24 21 21 22 23 23 22 24 9 25
REMARK SMILES IDX 10 26 11 27 12 28
REMARK H PARENT 3 10 18 18
ROOT
ATOM      1  C   UNL     1       7.277  46.507  52.463  1.00  0.00     0.045 A 
ATOM      2  C   UNL     1       8.282  46.424  51.488  1.00  0.00     0.026 A 
ATOM      3  C   UNL     1       9.599  46.762  51.799  1.00  0.00     0.006 A 
ATOM      4  C   UNL     1       9.925  47.199  53.084  1.00  0.00     0.047 A 
ATOM      5  C   UNL     1       8.936  47.312  54.068  1.00  0.00     0.128 A 
ATOM      6  C   UNL     1       7.607  46.971  53.749  1.00  0.00     0.072 A 
ENDROOT
BRANCH   1   7
ATOM      7  N   UNL     1       5.923  46.172  52.111  1.00  0.00    -0.322 N 
ATOM      8  O   UNL     1       6.389  44.167  51.007  1.00  0.00    -0.269 OA
ATOM      9  C   UNL     1       5.531  44.896  51.575  1.00  0.00     0.255 C 
ATOM     10  H   UNL     1       5.208  46.935  52.137  1.00  0.00     0.170 HD
BRANCH   9  11
ATOM     11  C   UNL     1       4.119  44.447  51.636  1.00  0.00     0.040 A 
ATOM     12  C   UNL     1       3.085  45.304  51.218  1.00  0.00     0.016 A 
ATOM     13  C   UNL     1       3.789  43.160  52.097  1.00  0.00     0.016 A 
ATOM     14  C   UNL     1       1.752  44.885  51.265  1.00  0.00     0.027 A 
ATOM     15  C   UNL     1       2.455  42.745  52.145  1.00  0.00     0.027 A 
ATOM     16  C   UNL     1       1.428  43.594  51.713  1.00  0.00     0.041 A 
BRANCH  16  17
ATOM     17  N   UNL     1       0.063  43.149  51.794  1.00  0.00    -0.324 N 
ATOM     18  H   UNL     1      -0.326  42.608  50.989  1.00  0.00     0.170 HD
BRANCH  17  19
ATOM     19  C   UNL     1      -0.836  43.491  52.859  1.00  0.00     0.227 A 
ATOM     20  N   UNL     1      -0.346  43.687  54.112  1.00  0.00    -0.221 NA
ATOM     21  N   UNL     1      -2.178  43.571  52.641  1.00  0.00    -0.221 NA
ATOM     22  C   UNL     1      -1.171  43.983  55.150  1.00  0.00     0.117 A 
ATOM     23  C   UNL     1      -3.035  43.865  53.653  1.00  0.00     0.117 A 
ATOM     24  C   UNL     1      -2.545  44.082  54.939  1.00  0.00     0.040 A 
ENDBRANCH  17  19
ENDBRANCH  16  17
ENDBRANCH   9  11
ENDBRANCH   1   7
BRANCH   5  25
ATOM     25  O   UNL     1       9.315  47.770  55.340  1.00  0.00    -0.435 OA
BRANCH  25  26
ATOM     26  C   UNL     1      10.644  47.738  55.854  1.00  0.00     0.542 C 
ATOM     27  F   UNL     1      11.034  46.423  56.014  1.00  0.00    -0.167 F 
ATOM     28  F   UNL     1      10.690  48.373  57.082  1.00  0.00    -0.167 F 
ENDBRANCH  25  26
ENDBRANCH   5  25
TORSDOF 6
ENDMDL
MODEL 3
REMARK VINA RESULT:    -8.084      2.286      2.974
REMARK INTER + INTRA:         -11.625
REMARK INTER:                 -11.164
REMARK INTRA:                  -0.461
REMARK UNBOUND:                -0.706
REMARK SMILES O=C(Nc1cccc(OC(F)F)c1)c1ccc(Nc2ncccn2)cc1
REMARK SMILES IDX 4 1 5 2 6 3 7 4 8 5 13 6 3 7 1 8 2 9 14 11 15 12 26 13 16 14
REMARK SMILES IDX 25 15 17 16 18 17 19 19 20 20 24 21 21 22 23 23 22 24 9 25
REMARK SMILES IDX 10 26 11 27 12 28
REMARK H PARENT 3 10 18 18
ROOT
ATOM      1  C   UNL     1       5.219  45.607  51.806  1.00  0.00     0.045 A 
ATOM      2  C   UNL     1       5.450  44.805  50.679  1.00  0.00     0.026 A 
ATOM      3  C   UNL     1       6.713  44.768  50.086  1.00  0.00     0.006 A 
ATOM      4  C   UNL     1       7.753  45.543  50.602  1.00  0.00     0.047 A 
ATOM      5  C   UNL     1       7.540  46.368  51.712  1.00  0.00     0.128 A 
ATOM      6  C   UNL     1       6.264  46.403  52.308  1.00  0.00     0.072 A 
ENDROOT
BRANCH   1   7
ATOM      7  N   UNL     1       3.904  45.643  52.388  1.00  0.00    -0.322 N 
ATOM      8  O   UNL     1       3.716  43.358  52.841  1.00  0.00    -0.269 OA
ATOM      9  C   UNL     1       3.304  44.528  53.071  1.00  0.00     0.255 C 
ATOM     10  H   UNL     1       3.309  46.482  52.202  1.00  0.00     0.170 HD
BRANCH   9  11
ATOM     11  C   UNL     1       2.172  44.730  54.008  1.00  0.00     0.040 A 
ATOM     12  C   UNL     1       2.416  45.013  55.363  1.00  0.00     0.016 A 
ATOM     13  C   UNL     1       0.840  44.657  53.560  1.00  0.00     0.016 A 
ATOM     14  C   UNL     1       1.354  45.212  56.251  1.00  0.00     0.027 A 
ATOM     15  C   UNL     1      -0.219  44.855  54.450  1.00  0.00     0.027 A 
ATOM     16  C   UNL     1       0.027  45.152  55.796  1.00  0.00     0.041 A 
BRANCH  16  17
ATOM     17  N   UNL     1      -1.082  45.329  56.694  1.00  0.00    -0.324 N 
ATOM     18  H   UNL     1      -1.720  44.517  56.854  1.00  0.00     0.170 HD
BRANCH  17  19
ATOM     19  C   UNL     1      -1.437  46.580  57.302  1.00  0.00     0.227 A 
ATOM     20  N   UNL     1      -0.734  47.025  58.378  1.00  0.00    -0.221 NA
ATOM     21  N   UNL     1      -2.500  47.300  56.849  1.00  0.00    -0.221 NA
ATOM     22  C   UNL     1      -1.060  48.189  58.997  1.00  0.00     0.117 A 
ATOM     23  C   UNL     1      -2.858  48.470  57.441  1.00  0.00     0.117 A 
ATOM     24  C   UNL     1      -2.138  48.944  58.535  1.00  0.00     0.040 A 
ENDBRANCH  17  19
ENDBRANCH  16  17
ENDBRANCH   9  11
ENDBRANCH   1   7
BRANCH   5  25
ATOM     25  O   UNL     1       8.616  47.137  52.184  1.00  0.00    -0.435 OA
BRANCH  25  26
ATOM     26  C   UNL     1       9.798  46.604  52.776  1.00  0.00     0.542 C 
ATOM     27  F   UNL     1      10.254  47.480  53.742  1.00  0.00    -0.167 F 
ATOM     28  F   UNL     1      10.779  46.449  51.812  1.00  0.00    -0.167 F 
ENDBRANCH  25  26
ENDBRANCH   5  25
TORSDOF 6
ENDMDL
MODEL 4
REMARK VINA RESULT:    -7.854      4.068      9.453
REMARK INTER + INTRA:         -11.315
REMARK INTER:                 -10.633
REMARK INTRA:                  -0.682
REMARK UNBOUND:                -0.706
REMARK SMILES O=C(Nc1cccc(OC(F)F)c1)c1ccc(Nc2ncccn2)cc1
REMARK SMILES IDX 4 1 5 2 6 3 7 4 8 5 13 6 3 7 1 8 2 9 14 11 15 12 26 13 16 14
REMARK SMILES IDX 25 15 17 16 18 17 19 19 20 20 24 21 21 22 23 23 22 24 9 25
REMARK SMILES IDX 10 26 11 27 12 28
REMARK H PARENT 3 10 18 18
ROOT
ATOM      1  C   UNL     1      -0.097  44.451  54.865  1.00  0.00     0.045 A 
ATOM      2  C   UNL     1      -1.283  43.790  54.517  1.00  0.00     0.026 A 
ATOM      3  C   UNL     1      -2.421  43.912  55.316  1.00  0.00     0.006 A 
ATOM      4  C   UNL     1      -2.382  44.686  56.478  1.00  0.00     0.047 A 
ATOM      5  C   UNL     1      -1.202  45.337  56.857  1.00  0.00     0.128 A 
ATOM      6  C   UNL     1      -0.056  45.210  56.049  1.00  0.00     0.072 A 
ENDROOT
BRANCH   1   7
ATOM      7  N   UNL     1       1.068  44.292  54.036  1.00  0.00    -0.322 N 
ATOM      8  O   UNL     1       0.433  45.771  52.343  1.00  0.00    -0.269 OA
ATOM      9  C   UNL     1       1.363  45.132  52.907  1.00  0.00     0.255 C 
ATOM     10  H   UNL     1       1.669  43.450  54.192  1.00  0.00     0.170 HD
BRANCH   9  11
ATOM     11  C   UNL     1       2.740  45.219  52.363  1.00  0.00     0.040 A 
ATOM     12  C   UNL     1       3.778  44.466  52.939  1.00  0.00     0.016 A 
ATOM     13  C   UNL     1       3.031  46.041  51.259  1.00  0.00     0.016 A 
ATOM     14  C   UNL     1       5.078  44.537  52.428  1.00  0.00     0.027 A 
ATOM     15  C   UNL     1       4.331  46.111  50.750  1.00  0.00     0.027 A 
ATOM     16  C   UNL     1       5.360  45.348  51.316  1.00  0.00     0.041 A 
BRANCH  16  17
ATOM     17  N   UNL     1       6.693  45.456  50.787  1.00  0.00    -0.324 N 
ATOM     18  H   UNL     1       6.881  45.055  49.841  1.00  0.00     0.170 HD
BRANCH  17  19
ATOM     19  C   UNL     1       7.811  45.982  51.517  1.00  0.00     0.227 A 
ATOM     20  N   UNL     1       7.596  46.879  52.516  1.00  0.00    -0.221 NA
ATOM     21  N   UNL     1       9.086  45.636  51.187  1.00  0.00    -0.221 NA
ATOM     22  C   UNL     1       8.632  47.420  53.208  1.00  0.00     0.117 A 
ATOM     23  C   UNL     1      10.148  46.155  51.856  1.00  0.00     0.117 A 
ATOM     24  C   UNL     1       9.942  47.064  52.891  1.00  0.00     0.040 A 
ENDBRANCH  17  19
ENDBRANCH  16  17
ENDBRANCH   9  11
ENDBRANCH   1   7
BRANCH   5  25
ATOM     25  O   UNL     1      -1.213  46.091  58.041  1.00  0.00    -0.435 OA
BRANCH  25  26
ATOM     26  C   UNL     1      -0.807  47.453  58.142  1.00  0.00     0.542 C 
ATOM     27  F   UNL     1       0.476  47.506  58.650  1.00  0.00    -0.167 F 
ATOM     28  F   UNL     1      -1.656  48.137  58.995  1.00  0.00    -0.167 F 
ENDBRANCH  25  26
ENDBRANCH   5  25
TORSDOF 6
ENDMDL
MODEL 5
REMARK VINA RESULT:    -7.753      1.811      2.424
REMARK INTER + INTRA:         -11.179
REMARK INTER:                 -10.372
REMARK INTRA:                  -0.806
REMARK UNBOUND:                -0.706
REMARK SMILES O=C(Nc1cccc(OC(F)F)c1)c1ccc(Nc2ncccn2)cc1
REMARK SMILES IDX 4 1 5 2 6 3 7 4 8 5 13 6 3 7 1 8 2 9 14 11 15 12 26 13 16 14
REMARK SMILES IDX 25 15 17 16 18 17 19 19 20 20 24 21 21 22 23 23 22 24 9 25
REMARK SMILES IDX 10 26 11 27 12 28
REMARK H PARENT 3 10 18 18
ROOT
ATOM      1  C   UNL     1       5.763  45.208  51.604  1.00  0.00     0.045 A 
ATOM      2  C   UNL     1       6.018  44.305  50.562  1.00  0.00     0.026 A 
ATOM      3  C   UNL     1       7.238  44.333  49.885  1.00  0.00     0.006 A 
ATOM      4  C   UNL     1       8.211  45.273  50.232  1.00  0.00     0.047 A 
ATOM      5  C   UNL     1       7.971  46.199  51.253  1.00  0.00     0.128 A 
ATOM      6  C   UNL     1       6.738  46.168  51.934  1.00  0.00     0.072 A 
ENDROOT
BRANCH   1   7
ATOM      7  N   UNL     1       4.490  45.172  52.273  1.00  0.00    -0.322 N 
ATOM      8  O   UNL     1       3.292  46.417  50.700  1.00  0.00    -0.269 OA
ATOM      9  C   UNL     1       3.260  45.610  51.669  1.00  0.00     0.255 C 
ATOM     10  H   UNL     1       4.478  44.925  53.288  1.00  0.00     0.170 HD
BRANCH   9  11
ATOM     11  C   UNL     1       1.950  45.164  52.203  1.00  0.00     0.040 A 
ATOM     12  C   UNL     1       1.665  45.291  53.574  1.00  0.00     0.016 A 
ATOM     13  C   UNL     1       0.969  44.623  51.353  1.00  0.00     0.016 A 
ATOM     14  C   UNL     1       0.429  44.881  54.085  1.00  0.00     0.027 A 
ATOM     15  C   UNL     1      -0.265  44.212  51.866  1.00  0.00     0.027 A 
ATOM     16  C   UNL     1      -0.553  44.354  53.229  1.00  0.00     0.041 A 
BRANCH  16  17
ATOM     17  N   UNL     1      -1.822  43.903  53.734  1.00  0.00    -0.324 N 
ATOM     18  H   UNL     1      -2.470  43.420  53.072  1.00  0.00     0.170 HD
BRANCH  17  19
ATOM     19  C   UNL     1      -2.304  44.167  55.059  1.00  0.00     0.227 A 
ATOM     20  N   UNL     1      -2.791  45.400  55.361  1.00  0.00    -0.221 NA
ATOM     21  N   UNL     1      -2.231  43.217  56.031  1.00  0.00    -0.221 NA
ATOM     22  C   UNL     1      -3.228  45.695  56.613  1.00  0.00     0.117 A 
ATOM     23  C   UNL     1      -2.659  43.472  57.295  1.00  0.00     0.117 A 
ATOM     24  C   UNL     1      -3.173  44.727  57.615  1.00  0.00     0.040 A 
ENDBRANCH  17  19
ENDBRANCH  16  17
ENDBRANCH   9  11
ENDBRANCH   1   7
BRANCH   5  25
ATOM     25  O   UNL     1       8.977  47.131  51.553  1.00  0.00    -0.435 OA
BRANCH  25  26
ATOM     26  C   UNL     1       9.867  47.039  52.662  1.00  0.00     0.542 C 
ATOM     27  F   UNL     1       9.832  45.752  53.163  1.00  0.00    -0.167 F 
ATOM     28  F   UNL     1       9.476  47.919  53.656  1.00  0.00    -0.167 F 
ENDBRANCH  25  26
ENDBRANCH   5  25
TORSDOF 6
ENDMDL
