MODEL 1
REMARK VINA RESULT:    -9.283      0.000      0.000
REMARK INTER + INTRA:         -11.976
REMARK INTER:                 -11.454
REMARK INTRA:                  -0.522
REMARK UNBOUND:                -0.522
REMARK SMILES O=C1C[C@@H](Nc2nccc(Oc3ccccc3)n2)[C@H]2CCCCN12
REMARK SMILES IDX 6 1 7 2 8 3 9 4 10 5 18 6 5 7 4 9 1 10 2 11 3 12 24 13 23 14
REMARK SMILES IDX 19 15 22 16 20 17 21 18 11 19 12 20 13 21 17 22 14 23 16 24
REMARK SMILES IDX 15 25
REMARK H PARENT 5 8
ROOT
ATOM      1  C   UNL     1       5.120  43.332  51.018  1.00  0.00     0.226 A 
ATOM      2  N   UNL     1       5.435  42.269  50.230  1.00  0.00    -0.221 NA
ATOM      3  C   UNL     1       6.518  42.301  49.412  1.00  0.00     0.121 A 
ATOM      4  C   UNL     1       7.322  43.438  49.367  1.00  0.00     0.089 A 
ATOM      5  C   UNL     1       6.984  44.528  50.167  1.00  0.00     0.224 A 
ATOM      6  N   UNL     1       5.896  44.450  50.982  1.00  0.00    -0.177 NA
ENDROOT
BRANCH   1   7
ATOM      7  N   UNL     1       3.969  43.267  51.869  1.00  0.00    -0.349 N 
ATOM      8  H   UNL     1       3.601  42.321  52.113  1.00  0.00     0.164 HD
BRANCH   7   9
ATOM      9  C   UNL     1       3.381  44.465  52.485  1.00  0.00     0.114 C 
ATOM     10  O   UNL     1       3.266  45.852  55.788  1.00  0.00    -0.275 OA
ATOM     11  C   UNL     1       3.068  45.307  54.670  1.00  0.00     0.225 C 
ATOM     12  C   UNL     1       4.151  44.909  53.746  1.00  0.00     0.127 C 
ATOM     13  N   UNL     1       1.781  44.958  54.199  1.00  0.00    -0.338 N 
ATOM     14  C   UNL     1       0.601  44.844  55.057  1.00  0.00     0.120 C 
ATOM     15  C   UNL     1       1.896  44.278  52.918  1.00  0.00     0.108 C 
ATOM     16  C   UNL     1      -0.490  44.031  54.351  1.00  0.00     0.022 C 
ATOM     17  C   UNL     1       1.446  42.815  53.107  1.00  0.00     0.027 C 
ATOM     18  C   UNL     1       0.056  42.703  53.788  1.00  0.00     0.004 C 
ENDBRANCH   7   9
ENDBRANCH   1   7
BRANCH   5  19
ATOM     19  O   UNL     1       7.791  45.672  50.145  1.00  0.00    -0.439 OA
BRANCH  19  20
ATOM     20  C   UNL     1       8.340  46.291  51.276  1.00  0.00     0.129 A 
ATOM     21  C   UNL     1       9.665  45.999  51.626  1.00  0.00     0.047 A 
ATOM     22  C   UNL     1       7.615  47.226  52.041  1.00  0.00     0.047 A 
ATOM     23  C   UNL     1      10.251  46.603  52.743  1.00  0.00     0.004 A 
ATOM     24  C   UNL     1       8.205  47.828  53.157  1.00  0.00     0.004 A 
ATOM     25  C   UNL     1       9.519  47.513  53.512  1.00  0.00     0.000 A 
ENDBRANCH  19  20
ENDBRANCH   5  19
TORSDOF 4
ENDMDL
MODEL 2
REMARK VINA RESULT:    -9.255      1.685      2.273
REMARK INTER + INTRA:         -11.941
REMARK INTER:                 -11.381
REMARK INTRA:                  -0.561
REMARK UNBOUND:                -0.522
REMARK SMILES O=C1C[C@@H](Nc2nccc(Oc3ccccc3)n2)[C@H]2CCCCN12
REMARK SMILES IDX 6 1 7 2 8 3 9 4 10 5 18 6 5 7 4 9 1 10 2 11 3 12 24 13 23 14
REMARK SMILES IDX 19 15 22 16 20 17 21 18 11 19 12 20 13 21 17 22 14 23 16 24
REMARK SMILES IDX 15 25
REMARK H PARENT 5 8
ROOT
ATOM      1  C   UNL     1       4.244  43.946  52.318  1.00  0.00     0.226 A 
ATOM      2  N   UNL     1       4.305  42.835  51.536  1.00  0.00    -0.221 NA
ATOM      3  C   UNL     1       5.212  42.735  50.531  1.00  0.00     0.121 A 
ATOM      4  C   UNL     1       6.097  43.784  50.286  1.00  0.00     0.089 A 
ATOM      5  C   UNL     1       6.018  44.925  51.083  1.00  0.00     0.224 A 
ATOM      6  N   UNL     1       5.100  44.979  52.088  1.00  0.00    -0.177 NA
ENDROOT
BRANCH   1   7
ATOM      7  N   UNL     1       3.272  44.020  53.369  1.00  0.00    -0.349 N 
ATOM      8  H   UNL     1       3.593  44.364  54.300  1.00  0.00     0.164 HD
BRANCH   7   9
ATOM      9  C   UNL     1       1.847  43.744  53.139  1.00  0.00     0.114 C 
ATOM     10  O   UNL     1      -0.980  45.636  52.007  1.00  0.00    -0.275 OA
ATOM     11  C   UNL     1      -0.094  44.990  52.628  1.00  0.00     0.225 C 
ATOM     12  C   UNL     1       1.237  44.675  52.070  1.00  0.00     0.127 C 
ATOM     13  N   UNL     1      -0.257  44.545  53.961  1.00  0.00    -0.338 N 
ATOM     14  C   UNL     1      -1.268  45.070  54.879  1.00  0.00     0.120 C 
ATOM     15  C   UNL     1       0.968  43.903  54.415  1.00  0.00     0.108 C 
ATOM     16  C   UNL     1      -0.896  44.728  56.327  1.00  0.00     0.022 C 
ATOM     17  C   UNL     1       1.581  44.773  55.532  1.00  0.00     0.027 C 
ATOM     18  C   UNL     1       0.562  45.112  56.651  1.00  0.00     0.004 C 
ENDBRANCH   7   9
ENDBRANCH   1   7
BRANCH   5  19
ATOM     19  O   UNL     1       6.909  45.981  50.860  1.00  0.00    -0.439 OA
BRANCH  19  20
ATOM     20  C   UNL     1       7.910  46.391  51.752  1.00  0.00     0.129 A 
ATOM     21  C   UNL     1       9.240  46.053  51.472  1.00  0.00     0.047 A 
ATOM     22  C   UNL     1       7.621  47.167  52.892  1.00  0.00     0.047 A 
ATOM     23  C   UNL     1      10.268  46.452  52.333  1.00  0.00     0.004 A 
ATOM     24  C   UNL     1       8.651  47.564  53.751  1.00  0.00     0.004 A 
ATOM     25  C   UNL     1       9.972  47.202  53.475  1.00  0.00     0.000 A 
ENDBRANCH  19  20
ENDBRANCH   5  19
TORSDOF 4
ENDMDL
MODEL 3
REMARK VINA RESULT:    -9.103      1.120      1.613
REMARK INTER + INTRA:         -11.754
REMARK INTER:                 -11.118
REMARK INTRA:                  -0.637
REMARK UNBOUND:                -0.522
REMARK SMILES O=C1C[C@@H](Nc2nccc(Oc3ccccc3)n2)[C@H]2CCCCN12
REMARK SMILES IDX 6 1 7 2 8 3 9 4 10 5 18 6 5 7 4 9 1 10 2 11 3 12 24 13 23 14
REMARK SMILES IDX 19 15 22 16 20 17 21 18 11 19 12 20 13 21 17 22 14 23 16 24
REMARK SMILES IDX 15 25
REMARK H PARENT 5 8
ROOT
ATOM      1  C   UNL     1       4.515  43.684  52.090  1.00  0.00     0.226 A 
ATOM      2  N   UNL     1       4.713  42.670  51.207  1.00  0.00    -0.221 NA
ATOM      3  C   UNL     1       5.636  42.773  50.217  1.00  0.00     0.121 A 
ATOM      4  C   UNL     1       6.396  43.935  50.093  1.00  0.00     0.089 A 
ATOM      5  C   UNL     1       6.176  44.976  50.993  1.00  0.00     0.224 A 
ATOM      6  N   UNL     1       5.248  44.826  51.979  1.00  0.00    -0.177 NA
ENDROOT
BRANCH   1   7
ATOM      7  N   UNL     1       3.530  43.544  53.122  1.00  0.00    -0.349 N 
ATOM      8  H   UNL     1       3.536  42.662  53.679  1.00  0.00     0.164 HD
BRANCH   7   9
ATOM      9  C   UNL     1       2.612  44.634  53.482  1.00  0.00     0.114 C 
ATOM     10  O   UNL     1       0.848  45.625  56.441  1.00  0.00    -0.275 OA
ATOM     11  C   UNL     1       1.244  45.203  55.321  1.00  0.00     0.225 C 
ATOM     12  C   UNL     1       2.664  44.966  54.988  1.00  0.00     0.127 C 
ATOM     13  N   UNL     1       0.361  44.850  54.274  1.00  0.00    -0.338 N 
ATOM     14  C   UNL     1      -1.064  44.582  54.464  1.00  0.00     0.120 C 
ATOM     15  C   UNL     1       1.122  44.328  53.149  1.00  0.00     0.108 C 
ATOM     16  C   UNL     1      -1.621  43.805  53.265  1.00  0.00     0.022 C 
ATOM     17  C   UNL     1       0.777  42.834  52.987  1.00  0.00     0.027 C 
ATOM     18  C   UNL     1      -0.752  42.578  52.922  1.00  0.00     0.004 C 
ENDBRANCH   7   9
ENDBRANCH   1   7
BRANCH   5  19
ATOM     19  O   UNL     1       6.941  46.144  50.892  1.00  0.00    -0.439 OA
BRANCH  19  20
ATOM     20  C   UNL     1       7.987  46.498  51.755  1.00  0.00     0.129 A 
ATOM     21  C   UNL     1       7.687  47.229  52.912  1.00  0.00     0.047 A 
ATOM     22  C   UNL     1       9.319  46.102  51.516  1.00  0.00     0.047 A 
ATOM     23  C   UNL     1       8.702  47.593  53.802  1.00  0.00     0.004 A 
ATOM     24  C   UNL     1      10.331  46.467  52.409  1.00  0.00     0.004 A 
ATOM     25  C   UNL     1      10.024  47.217  53.548  1.00  0.00     0.000 A 
ENDBRANCH  19  20
ENDBRANCH   5  19
TORSDOF 4
ENDMDL
MODEL 4
REMARK VINA RESULT:    -8.806      2.037      6.883
REMARK INTER + INTRA:         -11.388
REMARK INTER:                 -11.317
REMARK INTRA:                  -0.070
REMARK UNBOUND:                -0.522
REMARK SMILES O=C1C[C@@H](Nc2nccc(Oc3ccccc3)n2)[C@H]2CCCCN12
REMARK SMILES IDX 6 1 7 2 8 3 9 4 10 5 18 6 5 7 4 9 1 10 2 11 3 12 24 13 23 14
REMARK SMILES IDX 19 15 22 16 20 17 21 18 11 19 12 20 13 21 17 22 14 23 16 24
REMARK SMILES IDX 15 25
REMARK H PARENT 5 8
ROOT
ATOM      1  C   UNL     1       3.905  45.424  53.111  1.00  0.00     0.226 A 
ATOM      2  N   UNL     1       2.617  45.642  53.488  1.00  0.00    -0.221 NA
ATOM      3  C   UNL     1       1.690  44.652  53.420  1.00  0.00     0.121 A 
ATOM      4  C   UNL     1       2.054  43.391  52.954  1.00  0.00     0.089 A 
ATOM      5  C   UNL     1       3.373  43.180  52.556  1.00  0.00     0.224 A 
ATOM      6  N   UNL     1       4.273  44.198  52.651  1.00  0.00    -0.177 NA
ENDROOT
BRANCH   1   7
ATOM      7  N   UNL     1       4.858  46.492  53.193  1.00  0.00    -0.349 N 
ATOM      8  H   UNL     1       4.944  46.994  54.104  1.00  0.00     0.164 HD
BRANCH   7   9
ATOM      9  C   UNL     1       5.774  46.810  52.089  1.00  0.00     0.114 C 
ATOM     10  O   UNL     1       7.857  44.923  49.864  1.00  0.00    -0.275 OA
ATOM     11  C   UNL     1       7.340  45.649  50.755  1.00  0.00     0.225 C 
ATOM     12  C   UNL     1       5.899  45.648  51.082  1.00  0.00     0.127 C 
ATOM     13  N   UNL     1       8.098  46.507  51.587  1.00  0.00    -0.338 N 
ATOM     14  C   UNL     1       9.544  46.395  51.773  1.00  0.00     0.120 C 
ATOM     15  C   UNL     1       7.222  47.145  52.558  1.00  0.00     0.108 C 
ATOM     16  C   UNL     1       9.974  47.142  53.040  1.00  0.00     0.022 C 
ATOM     17  C   UNL     1       7.596  46.622  53.959  1.00  0.00     0.027 C 
ATOM     18  C   UNL     1       9.113  46.751  54.258  1.00  0.00     0.004 C 
ENDBRANCH   7   9
ENDBRANCH   1   7
BRANCH   5  19
ATOM     19  O   UNL     1       3.758  41.914  52.099  1.00  0.00    -0.439 OA
BRANCH  19  20
ATOM     20  C   UNL     1       4.284  41.643  50.828  1.00  0.00     0.129 A 
ATOM     21  C   UNL     1       3.481  40.969  49.897  1.00  0.00     0.047 A 
ATOM     22  C   UNL     1       5.572  42.067  50.447  1.00  0.00     0.047 A 
ATOM     23  C   UNL     1       3.966  40.689  48.616  1.00  0.00     0.004 A 
ATOM     24  C   UNL     1       6.054  41.785  49.165  1.00  0.00     0.004 A 
ATOM     25  C   UNL     1       5.254  41.092  48.252  1.00  0.00     0.000 A 
ENDBRANCH  19  20
ENDBRANCH   5  19
TORSDOF 4
ENDMDL
MODEL 5
REMARK VINA RESULT:    -8.663      2.340      4.134
REMARK INTER + INTRA:         -11.211
REMARK INTER:                 -10.508
REMARK INTRA:                  -0.703
REMARK UNBOUND:                -0.522
REMARK SMILES O=C1C[C@@H](Nc2nccc(Oc3ccccc3)n2)[C@H]2CCCCN12
REMARK SMILES IDX 6 1 7 2 8 3 9 4 10 5 18 6 5 7 4 9 1 10 2 11 3 12 24 13 23 14
REMARK SMILES IDX 19 15 22 16 20 17 21 18 11 19 12 20 13 21 17 22 14 23 16 24
REMARK SMILES IDX 15 25
REMARK H PARENT 5 8
ROOT
ATOM      1  C   UNL     1       4.207  45.466  54.657  1.00  0.00     0.226 A 
ATOM      2  N   UNL     1       5.133  46.172  55.359  1.00  0.00    -0.221 NA
ATOM      3  C   UNL     1       6.169  46.785  54.731  1.00  0.00     0.121 A 
ATOM      4  C   UNL     1       6.296  46.692  53.347  1.00  0.00     0.089 A 
ATOM      5  C   UNL     1       5.350  45.955  52.636  1.00  0.00     0.224 A 
ATOM      6  N   UNL     1       4.320  45.365  53.304  1.00  0.00    -0.177 NA
ENDROOT
BRANCH   1   7
ATOM      7  N   UNL     1       3.126  44.829  55.350  1.00  0.00    -0.349 N 
ATOM      8  H   UNL     1       3.350  43.984  55.920  1.00  0.00     0.164 HD
BRANCH   7   9
ATOM      9  C   UNL     1       1.769  45.391  55.372  1.00  0.00     0.114 C 
ATOM     10  O   UNL     1      -1.221  44.795  57.257  1.00  0.00    -0.275 OA
ATOM     11  C   UNL     1      -0.293  44.889  56.411  1.00  0.00     0.225 C 
ATOM     12  C   UNL     1       1.100  45.246  56.755  1.00  0.00     0.127 C 
ATOM     13  N   UNL     1      -0.469  44.602  55.037  1.00  0.00    -0.338 N 
ATOM     14  C   UNL     1      -1.594  43.835  54.502  1.00  0.00     0.120 C 
ATOM     15  C   UNL     1       0.804  44.729  54.344  1.00  0.00     0.108 C 
ATOM     16  C   UNL     1      -1.264  43.322  53.095  1.00  0.00     0.022 C 
ATOM     17  C   UNL     1       1.226  43.329  53.853  1.00  0.00     0.027 C 
ATOM     18  C   UNL     1       0.107  42.616  53.049  1.00  0.00     0.004 C 
ENDBRANCH   7   9
ENDBRANCH   1   7
BRANCH   5  19
ATOM     19  O   UNL     1       5.456  45.864  51.243  1.00  0.00    -0.439 OA
BRANCH  19  20
ATOM     20  C   UNL     1       6.255  44.939  50.556  1.00  0.00     0.129 A 
ATOM     21  C   UNL     1       5.722  43.678  50.260  1.00  0.00     0.047 A 
ATOM     22  C   UNL     1       7.556  45.258  50.118  1.00  0.00     0.047 A 
ATOM     23  C   UNL     1       6.485  42.733  49.567  1.00  0.00     0.004 A 
ATOM     24  C   UNL     1       8.316  44.310  49.426  1.00  0.00     0.004 A 
ATOM     25  C   UNL     1       7.783  43.046  49.156  1.00  0.00     0.000 A 
ENDBRANCH  19  20
ENDBRANCH   5  19
TORSDOF 4
ENDMDL
