ligand_97_conformer_2_docked
     RDKit          3D

 36 39  0  0  0  0  0  0  0  0999 V2000
    8.7780   44.0500   49.0740 O   0  0  0  0  0  0  0  0  0  0  0  0
    8.8980   44.7580   50.1110 C   0  0  0  0  0  0  0  0  0  0  0  0
   10.1590   44.8770   50.7000 C   0  0  0  0  0  0  0  0  0  0  0  0
   10.3130   45.6360   51.8570 C   0  0  0  0  0  0  0  0  0  0  0  0
    9.2040   46.2620   52.4330 C   0  0  0  0  0  0  0  0  0  0  0  0
    9.3560   47.0610   53.6650 C   0  0  0  0  0  0  0  0  0  0  0  0
    8.4360   47.9280   54.1310 N   0  0  0  0  0  0  0  0  0  0  0  0
    8.9400   48.4410   55.2430 N   0  0  0  0  0  0  0  0  0  0  0  0
   10.1470   47.8710   55.4150 C   0  0  0  0  0  0  0  0  0  0  0  0
   10.4070   47.0240   54.4500 O   0  0  0  0  0  0  0  0  0  0  0  0
    7.9520   46.1180   51.8170 C   0  0  0  0  0  0  0  0  0  0  0  0
    7.8130   45.4050   50.6550 N   0  0  0  0  0  0  0  0  0  0  0  0
    6.4770   45.3170   50.0300 C   0  0  0  0  0  0  0  0  0  0  0  0
    5.6910   44.1490   50.5690 C   0  0  0  0  0  0  0  0  0  0  0  0
    5.6800   42.9380   49.9760 N   0  0  0  0  0  0  0  0  0  0  0  0
    4.9540   42.1980   50.8410 C   0  0  0  0  0  0  0  0  0  0  0  0
    4.5470   42.9050   51.9130 N   0  0  0  0  0  0  0  0  0  0  0  0
    5.0020   44.1300   51.7280 N   0  0  0  0  0  0  0  0  0  0  0  0
    4.8200   45.1950   52.6690 C   0  0  0  0  0  0  0  0  0  0  0  0
    5.3590   45.0890   53.9600 C   0  0  0  0  0  0  0  0  0  0  0  0
    5.2070   46.1350   54.8740 C   0  0  0  0  0  0  0  0  0  0  0  0
    4.5030   47.2860   54.5110 C   0  0  0  0  0  0  0  0  0  0  0  0
    3.9460   47.3900   53.2340 C   0  0  0  0  0  0  0  0  0  0  0  0
    4.0980   46.3460   52.3150 C   0  0  0  0  0  0  0  0  0  0  0  0
   11.0275   44.3727   50.2512 H   0  0  0  0  0  0  0  0  0  0  0  0
   11.3063   45.7429   52.3173 H   0  0  0  0  0  0  0  0  0  0  0  0
   10.8248   48.0874   56.2539 H   0  0  0  0  0  0  0  0  0  0  0  0
    7.0672   46.5851   52.2742 H   0  0  0  0  0  0  0  0  0  0  0  0
    5.9242   46.2454   50.2359 H   0  0  0  0  0  0  0  0  0  0  0  0
    6.6110   45.1730   48.9477 H   0  0  0  0  0  0  0  0  0  0  0  0
    4.7204   41.1342   50.6872 H   0  0  0  0  0  0  0  0  0  0  0  0
    5.9032   44.1793   54.2537 H   0  0  0  0  0  0  0  0  0  0  0  0
    5.6423   46.0521   55.8808 H   0  0  0  0  0  0  0  0  0  0  0  0
    4.3873   48.1100   55.2305 H   0  0  0  0  0  0  0  0  0  0  0  0
    3.3871   48.2941   52.9506 H   0  0  0  0  0  0  0  0  0  0  0  0
    3.6510   46.4271   51.3132 H   0  0  0  0  0  0  0  0  0  0  0  0
  1  2  2  0
  2  3  1  0
  3  4  2  0
  4  5  1  0
  5  6  1  0
  6  7  2  0
  7  8  1  0
  8  9  2  0
  9 10  1  0
  5 11  2  0
 11 12  1  0
 12 13  1  0
 13 14  1  0
 14 15  2  0
 15 16  1  0
 16 17  2  0
 17 18  1  0
 18 19  1  0
 19 20  2  0
 20 21  1  0
 21 22  2  0
 22 23  1  0
 23 24  2  0
 12  2  1  0
 18 14  1  0
 24 19  1  0
 10  6  1  0
  3 25  1  0
  4 26  1  0
  9 27  1  0
 11 28  1  0
 13 29  1  0
 13 30  1  0
 16 31  1  0
 20 32  1  0
 21 33  1  0
 22 34  1  0
 23 35  1  0
 24 36  1  0
M  END
>  <meeko>  (1) 
{"is_sidechain": [false], "free_energy": -8.948, "intermolecular_energy": -11.041, "internal_energy": -0.812}

$$$$
ligand_97_conformer_2_docked
     RDKit          3D

 36 39  0  0  0  0  0  0  0  0999 V2000
    8.4360   43.8080   49.1970 O   0  0  0  0  0  0  0  0  0  0  0  0
    7.3130   43.6410   49.7470 C   0  0  0  0  0  0  0  0  0  0  0  0
    6.7250   42.3750   49.7020 C   0  0  0  0  0  0  0  0  0  0  0  0
    5.4770   42.1710   50.2850 C   0  0  0  0  0  0  0  0  0  0  0  0
    4.8100   43.2360   50.8960 C   0  0  0  0  0  0  0  0  0  0  0  0
    3.4820   43.0320   51.5070 C   0  0  0  0  0  0  0  0  0  0  0  0
    2.3980   42.5840   50.8460 N   0  0  0  0  0  0  0  0  0  0  0  0
    1.4150   42.5410   51.7320 N   0  0  0  0  0  0  0  0  0  0  0  0
    1.9330   42.9630   52.9000 C   0  0  0  0  0  0  0  0  0  0  0  0
    3.2010   43.2660   52.7680 O   0  0  0  0  0  0  0  0  0  0  0  0
    5.4280   44.4960   50.9190 C   0  0  0  0  0  0  0  0  0  0  0  0
    6.6750   44.6810   50.3810 N   0  0  0  0  0  0  0  0  0  0  0  0
    7.2940   46.0210   50.4660 C   0  0  0  0  0  0  0  0  0  0  0  0
    8.2580   46.1110   51.6220 C   0  0  0  0  0  0  0  0  0  0  0  0
    9.5950   46.1590   51.4580 N   0  0  0  0  0  0  0  0  0  0  0  0
   10.0360   46.3410   52.7210 C   0  0  0  0  0  0  0  0  0  0  0  0
    9.0310   46.4110   53.6160 N   0  0  0  0  0  0  0  0  0  0  0  0
    7.9200   46.2530   52.9200 N   0  0  0  0  0  0  0  0  0  0  0  0
    6.6090   46.3030   53.4960 C   0  0  0  0  0  0  0  0  0  0  0  0
    6.1780   45.2730   54.3440 C   0  0  0  0  0  0  0  0  0  0  0  0
    4.9090   45.3270   54.9280 C   0  0  0  0  0  0  0  0  0  0  0  0
    4.0580   46.4030   54.6560 C   0  0  0  0  0  0  0  0  0  0  0  0
    4.4740   47.4210   53.7950 C   0  0  0  0  0  0  0  0  0  0  0  0
    5.7440   47.3710   53.2110 C   0  0  0  0  0  0  0  0  0  0  0  0
    7.2460   41.5418   49.2077 H   0  0  0  0  0  0  0  0  0  0  0  0
    5.0166   41.1722   50.2646 H   0  0  0  0  0  0  0  0  0  0  0  0
    1.3675   43.0430   53.8401 H   0  0  0  0  0  0  0  0  0  0  0  0
    4.9035   45.3482   51.3758 H   0  0  0  0  0  0  0  0  0  0  0  0
    7.8368   46.2242   49.5311 H   0  0  0  0  0  0  0  0  0  0  0  0
    6.4956   46.7611   50.6234 H   0  0  0  0  0  0  0  0  0  0  0  0
   11.0994   46.4232   52.9900 H   0  0  0  0  0  0  0  0  0  0  0  0
    6.8406   44.4196   54.5505 H   0  0  0  0  0  0  0  0  0  0  0  0
    4.5795   44.5225   55.6020 H   0  0  0  0  0  0  0  0  0  0  0  0
    3.0616   46.4475   55.1199 H   0  0  0  0  0  0  0  0  0  0  0  0
    3.8017   48.2636   53.5758 H   0  0  0  0  0  0  0  0  0  0  0  0
    6.0655   48.1703   52.5270 H   0  0  0  0  0  0  0  0  0  0  0  0
  1  2  2  0
  2  3  1  0
  3  4  2  0
  4  5  1  0
  5  6  1  0
  6  7  2  0
  7  8  1  0
  8  9  2  0
  9 10  1  0
  5 11  2  0
 11 12  1  0
 12 13  1  0
 13 14  1  0
 14 15  2  0
 15 16  1  0
 16 17  2  0
 17 18  1  0
 18 19  1  0
 19 20  2  0
 20 21  1  0
 21 22  2  0
 22 23  1  0
 23 24  2  0
 12  2  1  0
 18 14  1  0
 24 19  1  0
 10  6  1  0
  3 25  1  0
  4 26  1  0
  9 27  1  0
 11 28  1  0
 13 29  1  0
 13 30  1  0
 16 31  1  0
 20 32  1  0
 21 33  1  0
 22 34  1  0
 23 35  1  0
 24 36  1  0
M  END
>  <meeko>  (2) 
{"is_sidechain": [false], "free_energy": -8.825, "intermolecular_energy": -10.88, "internal_energy": -0.821}

$$$$
ligand_97_conformer_2_docked
     RDKit          3D

 36 39  0  0  0  0  0  0  0  0999 V2000
    6.6710   43.9740   50.2780 O   0  0  0  0  0  0  0  0  0  0  0  0
    5.5180   43.7430   50.7340 C   0  0  0  0  0  0  0  0  0  0  0  0
    5.0540   42.4260   50.7520 C   0  0  0  0  0  0  0  0  0  0  0  0
    3.7780   42.1490   51.2320 C   0  0  0  0  0  0  0  0  0  0  0  0
    2.9590   43.1900   51.6770 C   0  0  0  0  0  0  0  0  0  0  0  0
    1.5990   42.9070   52.1790 C   0  0  0  0  0  0  0  0  0  0  0  0
    1.3090   42.5740   53.4510 N   0  0  0  0  0  0  0  0  0  0  0  0
   -0.0030   42.4000   53.4980 N   0  0  0  0  0  0  0  0  0  0  0  0
   -0.4660   42.6320   52.2560 C   0  0  0  0  0  0  0  0  0  0  0  0
    0.5140   42.9440   51.4430 O   0  0  0  0  0  0  0  0  0  0  0  0
    3.4550   44.5020   51.6410 C   0  0  0  0  0  0  0  0  0  0  0  0
    4.7280   44.7650   51.2070 N   0  0  0  0  0  0  0  0  0  0  0  0
    5.2110   46.1610   51.2250 C   0  0  0  0  0  0  0  0  0  0  0  0
    5.0960   46.7670   52.6010 C   0  0  0  0  0  0  0  0  0  0  0  0
    3.9140   46.9630   53.2180 N   0  0  0  0  0  0  0  0  0  0  0  0
    4.2920   47.4130   54.4340 C   0  0  0  0  0  0  0  0  0  0  0  0
    5.6320   47.4820   54.5660 N   0  0  0  0  0  0  0  0  0  0  0  0
    6.1280   47.0880   53.4090 N   0  0  0  0  0  0  0  0  0  0  0  0
    7.5310   46.9760   53.1430 C   0  0  0  0  0  0  0  0  0  0  0  0
    8.4520   47.0460   54.1980 C   0  0  0  0  0  0  0  0  0  0  0  0
    9.8200   46.9140   53.9480 C   0  0  0  0  0  0  0  0  0  0  0  0
   10.2790   46.7250   52.6410 C   0  0  0  0  0  0  0  0  0  0  0  0
    9.3680   46.6760   51.5830 C   0  0  0  0  0  0  0  0  0  0  0  0
    7.9980   46.8060   51.8300 C   0  0  0  0  0  0  0  0  0  0  0  0
    5.6955   41.6101   50.3877 H   0  0  0  0  0  0  0  0  0  0  0  0
    3.4141   41.1113   51.2612 H   0  0  0  0  0  0  0  0  0  0  0  0
   -1.5242   42.5684   51.9624 H   0  0  0  0  0  0  0  0  0  0  0  0
    2.8117   45.3328   51.9664 H   0  0  0  0  0  0  0  0  0  0  0  0
    6.2659   46.1785   50.9136 H   0  0  0  0  0  0  0  0  0  0  0  0
    4.5896   46.7505   50.5348 H   0  0  0  0  0  0  0  0  0  0  0  0
    3.5848   47.6923   55.2289 H   0  0  0  0  0  0  0  0  0  0  0  0
    8.0959   47.2055   55.2265 H   0  0  0  0  0  0  0  0  0  0  0  0
   10.5372   46.9588   54.7808 H   0  0  0  0  0  0  0  0  0  0  0  0
   11.3560   46.6150   52.4460 H   0  0  0  0  0  0  0  0  0  0  0  0
    9.7292   46.5349   50.5536 H   0  0  0  0  0  0  0  0  0  0  0  0
    7.2843   46.7750   50.9935 H   0  0  0  0  0  0  0  0  0  0  0  0
  1  2  2  0
  2  3  1  0
  3  4  2  0
  4  5  1  0
  5  6  1  0
  6  7  2  0
  7  8  1  0
  8  9  2  0
  9 10  1  0
  5 11  2  0
 11 12  1  0
 12 13  1  0
 13 14  1  0
 14 15  2  0
 15 16  1  0
 16 17  2  0
 17 18  1  0
 18 19  1  0
 19 20  2  0
 20 21  1  0
 21 22  2  0
 22 23  1  0
 23 24  2  0
 12  2  1  0
 18 14  1  0
 24 19  1  0
 10  6  1  0
  3 25  1  0
  4 26  1  0
  9 27  1  0
 11 28  1  0
 13 29  1  0
 13 30  1  0
 16 31  1  0
 20 32  1  0
 21 33  1  0
 22 34  1  0
 23 35  1  0
 24 36  1  0
M  END
>  <meeko>  (3) 
{"is_sidechain": [false], "free_energy": -8.576, "intermolecular_energy": -11.67, "internal_energy": 0.277}

$$$$
ligand_97_conformer_2_docked
     RDKit          3D

 36 39  0  0  0  0  0  0  0  0999 V2000
    4.8400   41.3630   49.7260 O   0  0  0  0  0  0  0  0  0  0  0  0
    5.4350   42.4160   50.0840 C   0  0  0  0  0  0  0  0  0  0  0  0
    6.4980   42.8830   49.3090 C   0  0  0  0  0  0  0  0  0  0  0  0
    7.1830   44.0320   49.6950 C   0  0  0  0  0  0  0  0  0  0  0  0
    6.8160   44.7030   50.8640 C   0  0  0  0  0  0  0  0  0  0  0  0
    7.5430   45.9160   51.2870 C   0  0  0  0  0  0  0  0  0  0  0  0
    8.8810   46.0590   51.2430 N   0  0  0  0  0  0  0  0  0  0  0  0
    9.1400   47.2730   51.7040 N   0  0  0  0  0  0  0  0  0  0  0  0
    7.9530   47.8270   52.0120 C   0  0  0  0  0  0  0  0  0  0  0  0
    6.9700   46.9990   51.7580 O   0  0  0  0  0  0  0  0  0  0  0  0
    5.7450   44.2040   51.6220 C   0  0  0  0  0  0  0  0  0  0  0  0
    5.0470   43.0970   51.2150 N   0  0  0  0  0  0  0  0  0  0  0  0
    3.9050   42.6370   52.0320 C   0  0  0  0  0  0  0  0  0  0  0  0
    2.6270   43.3310   51.6350 C   0  0  0  0  0  0  0  0  0  0  0  0
    1.6810   42.7430   50.8750 N   0  0  0  0  0  0  0  0  0  0  0  0
    0.6980   43.6690   50.8670 C   0  0  0  0  0  0  0  0  0  0  0  0
    1.0130   44.7640   51.5870 N   0  0  0  0  0  0  0  0  0  0  0  0
    2.2290   44.5490   52.0540 N   0  0  0  0  0  0  0  0  0  0  0  0
    2.9240   45.4630   52.9110 C   0  0  0  0  0  0  0  0  0  0  0  0
    3.1700   45.1200   54.2480 C   0  0  0  0  0  0  0  0  0  0  0  0
    3.8690   45.9970   55.0820 C   0  0  0  0  0  0  0  0  0  0  0  0
    4.3140   47.2270   54.5900 C   0  0  0  0  0  0  0  0  0  0  0  0
    4.0530   47.5840   53.2650 C   0  0  0  0  0  0  0  0  0  0  0  0
    3.3560   46.7080   52.4270 C   0  0  0  0  0  0  0  0  0  0  0  0
    6.7935   42.3449   48.3962 H   0  0  0  0  0  0  0  0  0  0  0  0
    8.0125   44.4111   49.0800 H   0  0  0  0  0  0  0  0  0  0  0  0
    7.8251   48.8396   52.4222 H   0  0  0  0  0  0  0  0  0  0  0  0
    5.4616   44.7093   52.5571 H   0  0  0  0  0  0  0  0  0  0  0  0
    3.7807   41.5528   51.8943 H   0  0  0  0  0  0  0  0  0  0  0  0
    4.1151   42.8763   53.0849 H   0  0  0  0  0  0  0  0  0  0  0  0
   -0.2548   43.5434   50.3318 H   0  0  0  0  0  0  0  0  0  0  0  0
    2.8117   44.1575   54.6419 H   0  0  0  0  0  0  0  0  0  0  0  0
    4.0692   45.7187   56.1272 H   0  0  0  0  0  0  0  0  0  0  0  0
    4.8695   47.9136   55.2458 H   0  0  0  0  0  0  0  0  0  0  0  0
    4.3963   48.5557   52.8802 H   0  0  0  0  0  0  0  0  0  0  0  0
    3.1457   46.9951   51.3861 H   0  0  0  0  0  0  0  0  0  0  0  0
  1  2  2  0
  2  3  1  0
  3  4  2  0
  4  5  1  0
  5  6  1  0
  6  7  2  0
  7  8  1  0
  8  9  2  0
  9 10  1  0
  5 11  2  0
 11 12  1  0
 12 13  1  0
 13 14  1  0
 14 15  2  0
 15 16  1  0
 16 17  2  0
 17 18  1  0
 18 19  1  0
 19 20  2  0
 20 21  1  0
 21 22  2  0
 22 23  1  0
 23 24  2  0
 12  2  1  0
 18 14  1  0
 24 19  1  0
 10  6  1  0
  3 25  1  0
  4 26  1  0
  9 27  1  0
 11 28  1  0
 13 29  1  0
 13 30  1  0
 16 31  1  0
 20 32  1  0
 21 33  1  0
 22 34  1  0
 23 35  1  0
 24 36  1  0
M  END
>  <meeko>  (4) 
{"is_sidechain": [false], "free_energy": -8.128, "intermolecular_energy": -10.059, "internal_energy": -0.782}

$$$$
ligand_97_conformer_2_docked
     RDKit          3D

 36 39  0  0  0  0  0  0  0  0999 V2000
    1.3470   43.1690   50.5080 O   0  0  0  0  0  0  0  0  0  0  0  0
    1.1890   43.5990   51.6830 C   0  0  0  0  0  0  0  0  0  0  0  0
    0.3870   42.8690   52.5620 C   0  0  0  0  0  0  0  0  0  0  0  0
    0.1810   43.3320   53.8580 C   0  0  0  0  0  0  0  0  0  0  0  0
    0.7640   44.5340   54.2700 C   0  0  0  0  0  0  0  0  0  0  0  0
    0.5430   45.0390   55.6390 C   0  0  0  0  0  0  0  0  0  0  0  0
   -0.6260   44.9620   56.3020 N   0  0  0  0  0  0  0  0  0  0  0  0
   -0.4200   45.5210   57.4850 N   0  0  0  0  0  0  0  0  0  0  0  0
    0.8660   45.9180   57.5020 C   0  0  0  0  0  0  0  0  0  0  0  0
    1.4610   45.6240   56.3720 O   0  0  0  0  0  0  0  0  0  0  0  0
    1.5620   45.2440   53.3590 C   0  0  0  0  0  0  0  0  0  0  0  0
    1.7950   44.7620   52.0980 N   0  0  0  0  0  0  0  0  0  0  0  0
    2.6730   45.5330   51.1940 C   0  0  0  0  0  0  0  0  0  0  0  0
    3.9760   45.8900   51.8620 C   0  0  0  0  0  0  0  0  0  0  0  0
    4.1110   46.9490   52.6850 N   0  0  0  0  0  0  0  0  0  0  0  0
    5.3820   46.8190   53.1210 C   0  0  0  0  0  0  0  0  0  0  0  0
    5.9970   45.7360   52.6060 N   0  0  0  0  0  0  0  0  0  0  0  0
    5.1140   45.1670   51.8080 N   0  0  0  0  0  0  0  0  0  0  0  0
    5.3590   43.9520   51.0890 C   0  0  0  0  0  0  0  0  0  0  0  0
    4.6610   42.7840   51.4290 C   0  0  0  0  0  0  0  0  0  0  0  0
    4.8780   41.6020   50.7160 C   0  0  0  0  0  0  0  0  0  0  0  0
    5.8030   41.5750   49.6680 C   0  0  0  0  0  0  0  0  0  0  0  0
    6.5160   42.7300   49.3380 C   0  0  0  0  0  0  0  0  0  0  0  0
    6.3010   43.9150   50.0480 C   0  0  0  0  0  0  0  0  0  0  0  0
   -0.0809   41.9301   52.2310 H   0  0  0  0  0  0  0  0  0  0  0  0
   -0.4398   42.7529   54.5575 H   0  0  0  0  0  0  0  0  0  0  0  0
    1.3523   46.4216   58.3505 H   0  0  0  0  0  0  0  0  0  0  0  0
    2.0074   46.2029   53.6626 H   0  0  0  0  0  0  0  0  0  0  0  0
    2.8837   44.9289   50.2992 H   0  0  0  0  0  0  0  0  0  0  0  0
    2.1566   46.4659   50.9237 H   0  0  0  0  0  0  0  0  0  0  0  0
    5.8627   47.5197   53.8195 H   0  0  0  0  0  0  0  0  0  0  0  0
    3.9402   42.7985   52.2598 H   0  0  0  0  0  0  0  0  0  0  0  0
    4.3202   40.6913   50.9797 H   0  0  0  0  0  0  0  0  0  0  0  0
    5.9691   40.6453   49.1040 H   0  0  0  0  0  0  0  0  0  0  0  0
    7.2484   42.7071   48.5176 H   0  0  0  0  0  0  0  0  0  0  0  0
    6.8707   44.8201   49.7908 H   0  0  0  0  0  0  0  0  0  0  0  0
  1  2  2  0
  2  3  1  0
  3  4  2  0
  4  5  1  0
  5  6  1  0
  6  7  2  0
  7  8  1  0
  8  9  2  0
  9 10  1  0
  5 11  2  0
 11 12  1  0
 12 13  1  0
 13 14  1  0
 14 15  2  0
 15 16  1  0
 16 17  2  0
 17 18  1  0
 18 19  1  0
 19 20  2  0
 20 21  1  0
 21 22  2  0
 22 23  1  0
 23 24  2  0
 12  2  1  0
 18 14  1  0
 24 19  1  0
 10  6  1  0
  3 25  1  0
  4 26  1  0
  9 27  1  0
 11 28  1  0
 13 29  1  0
 13 30  1  0
 16 31  1  0
 20 32  1  0
 21 33  1  0
 22 34  1  0
 23 35  1  0
 24 36  1  0
M  END
>  <meeko>  (5) 
{"is_sidechain": [false], "free_energy": -7.609, "intermolecular_energy": -9.671, "internal_energy": -0.53}

$$$$
