ligand_68_conformer_1_docked
     RDKit          3D

 49 51  0  0  0  0  0  0  0  0999 V2000
   11.0070   47.6070   56.2460 C   0  0  0  0  0  0  0  0  0  0  0  0
    9.9000   47.6010   55.2420 C   0  0  0  0  0  0  0  0  0  0  0  0
    9.0210   48.5040   55.2850 O   0  0  0  0  0  0  0  0  0  0  0  0
    9.8930   46.6200   54.1950 N   0  0  0  0  0  0  0  0  0  0  0  0
    8.7940   46.4150   53.2900 C   0  0  0  0  0  0  0  0  0  0  0  0
    7.5100   46.0800   53.7580 C   0  0  0  0  0  0  0  0  0  0  0  0
    6.4640   45.8630   52.8570 C   0  0  0  0  0  0  0  0  0  0  0  0
    6.6830   45.9710   51.4750 C   0  0  0  0  0  0  0  0  0  0  0  0
    5.5590   45.7090   50.5130 C   0  0  0  0  0  0  0  0  0  0  0  0
    4.6370   44.7220   51.0710 N   0  0  0  0  0  0  0  0  0  0  0  0
    3.2190   44.9390   51.1270 C   0  0  0  0  0  0  0  0  0  0  0  0
    2.7420   46.0560   50.7900 O   0  0  0  0  0  0  0  0  0  0  0  0
    2.3170   43.8430   51.6500 C   0  0  0  0  0  0  0  0  0  0  0  0
    0.8140   44.1530   51.4800 C   0  0  0  0  0  0  0  0  0  0  0  0
    0.2750   45.1590   52.5100 C   0  0  0  0  0  0  0  0  0  0  0  0
    0.7230   44.8160   53.8660 N   0  0  0  0  0  0  0  0  0  0  0  0
   -0.1450   44.9930   55.0050 C   0  0  0  0  0  0  0  0  0  0  0  0
    0.3470   45.4360   56.2450 C   0  0  0  0  0  0  0  0  0  0  0  0
   -0.5080   45.5900   57.2900 N   0  0  0  0  0  0  0  0  0  0  0  0
   -1.8330   45.3230   57.1610 C   0  0  0  0  0  0  0  0  0  0  0  0
   -2.3260   44.8760   55.9370 C   0  0  0  0  0  0  0  0  0  0  0  0
   -1.4750   44.7200   54.8910 N   0  0  0  0  0  0  0  0  0  0  0  0
    2.1530   44.5600   54.0810 C   0  0  0  0  0  0  0  0  0  0  0  0
    2.6500   43.4890   53.1090 C   0  0  0  0  0  0  0  0  0  0  0  0
    7.9700   46.2760   51.0070 C   0  0  0  0  0  0  0  0  0  0  0  0
    9.0180   46.4900   51.9070 C   0  0  0  0  0  0  0  0  0  0  0  0
   10.5819   47.6047   57.2605 H   0  0  0  0  0  0  0  0  0  0  0  0
   11.6318   46.7122   56.1082 H   0  0  0  0  0  0  0  0  0  0  0  0
   11.6221   48.5085   56.1082 H   0  0  0  0  0  0  0  0  0  0  0  0
   10.7750   46.0850   54.0270 H   0  0  0  0  0  0  0  0  0  0  0  0
    7.3285   45.9884   54.8391 H   0  0  0  0  0  0  0  0  0  0  0  0
    5.4629   45.6060   53.2333 H   0  0  0  0  0  0  0  0  0  0  0  0
    5.0164   46.6470   50.3240 H   0  0  0  0  0  0  0  0  0  0  0  0
    5.9752   45.3198   49.5721 H   0  0  0  0  0  0  0  0  0  0  0  0
    5.0300   43.8260   51.4370 H   0  0  0  0  0  0  0  0  0  0  0  0
    2.5208   42.9612   51.0247 H   0  0  0  0  0  0  0  0  0  0  0  0
    0.6556   44.5669   50.4732 H   0  0  0  0  0  0  0  0  0  0  0  0
    0.2697   43.2096   51.6337 H   0  0  0  0  0  0  0  0  0  0  0  0
    0.6392   46.1651   52.2547 H   0  0  0  0  0  0  0  0  0  0  0  0
   -0.8243   45.1293   52.4864 H   0  0  0  0  0  0  0  0  0  0  0  0
    1.4175   45.6567   56.3687 H   0  0  0  0  0  0  0  0  0  0  0  0
   -2.5117   45.4585   58.0160 H   0  0  0  0  0  0  0  0  0  0  0  0
   -3.3963   44.6513   55.8192 H   0  0  0  0  0  0  0  0  0  0  0  0
    2.7173   45.4898   53.9166 H   0  0  0  0  0  0  0  0  0  0  0  0
    2.3033   44.2066   55.1118 H   0  0  0  0  0  0  0  0  0  0  0  0
    3.7410   43.3933   53.2121 H   0  0  0  0  0  0  0  0  0  0  0  0
    2.1451   42.5432   53.3551 H   0  0  0  0  0  0  0  0  0  0  0  0
    8.1555   46.3472   49.9251 H   0  0  0  0  0  0  0  0  0  0  0  0
   10.0251   46.7188   51.5283 H   0  0  0  0  0  0  0  0  0  0  0  0
  1  2  1  0
  2  3  2  0
  2  4  1  0
  4  5  1  0
  5  6  2  0
  6  7  1  0
  7  8  2  0
  8  9  1  0
  9 10  1  0
 10 11  1  0
 11 12  2  0
 11 13  1  0
 13 14  1  0
 14 15  1  0
 15 16  1  0
 16 17  1  0
 17 18  2  0
 18 19  1  0
 19 20  2  0
 20 21  1  0
 21 22  2  0
 16 23  1  0
 23 24  1  0
  8 25  1  0
 25 26  2  0
 26  5  1  0
 24 13  1  0
 22 17  1  0
  1 27  1  0
  1 28  1  0
  1 29  1  0
  4 30  1  0
  6 31  1  0
  7 32  1  0
  9 33  1  0
  9 34  1  0
 10 35  1  0
 13 36  1  0
 14 37  1  0
 14 38  1  0
 15 39  1  0
 15 40  1  0
 18 41  1  0
 20 42  1  0
 21 43  1  0
 23 44  1  0
 23 45  1  0
 24 46  1  0
 24 47  1  0
 25 48  1  0
 26 49  1  0
M  END
>  <meeko>  (1) 
{"is_sidechain": [false], "free_energy": -8.728, "intermolecular_energy": -11.279, "internal_energy": -0.537}

$$$$
ligand_68_conformer_1_docked
     RDKit          3D

 49 51  0  0  0  0  0  0  0  0999 V2000
    3.5430   39.4120   42.1490 C   0  0  0  0  0  0  0  0  0  0  0  0
    4.1710   39.5790   43.4940 C   0  0  0  0  0  0  0  0  0  0  0  0
    5.0790   38.7820   43.8560 O   0  0  0  0  0  0  0  0  0  0  0  0
    3.7940   40.6870   44.3240 N   0  0  0  0  0  0  0  0  0  0  0  0
    4.2020   40.8420   45.6950 C   0  0  0  0  0  0  0  0  0  0  0  0
    3.4440   40.3060   46.7520 C   0  0  0  0  0  0  0  0  0  0  0  0
    3.8490   40.4910   48.0760 C   0  0  0  0  0  0  0  0  0  0  0  0
    5.0130   41.2180   48.3680 C   0  0  0  0  0  0  0  0  0  0  0  0
    5.4260   41.4350   49.7960 C   0  0  0  0  0  0  0  0  0  0  0  0
    5.1900   42.8240   50.1850 N   0  0  0  0  0  0  0  0  0  0  0  0
    4.2460   43.1890   51.2020 C   0  0  0  0  0  0  0  0  0  0  0  0
    3.5050   42.3080   51.7150 O   0  0  0  0  0  0  0  0  0  0  0  0
    4.1070   44.6410   51.6050 C   0  0  0  0  0  0  0  0  0  0  0  0
    5.0220   45.5910   50.8020 C   0  0  0  0  0  0  0  0  0  0  0  0
    6.4910   45.5520   51.2510 C   0  0  0  0  0  0  0  0  0  0  0  0
    6.5980   45.6240   52.7140 N   0  0  0  0  0  0  0  0  0  0  0  0
    7.6610   46.3660   53.3480 C   0  0  0  0  0  0  0  0  0  0  0  0
    7.4280   47.1590   54.4860 C   0  0  0  0  0  0  0  0  0  0  0  0
    8.4600   47.8390   55.0510 N   0  0  0  0  0  0  0  0  0  0  0  0
    9.7150   47.7700   54.5380 C   0  0  0  0  0  0  0  0  0  0  0  0
    9.9510   46.9920   53.4060 C   0  0  0  0  0  0  0  0  0  0  0  0
    8.9220   46.3120   52.8380 N   0  0  0  0  0  0  0  0  0  0  0  0
    5.7810   44.7050   53.5150 C   0  0  0  0  0  0  0  0  0  0  0  0
    4.3080   44.8250   53.1190 C   0  0  0  0  0  0  0  0  0  0  0  0
    5.7530   41.7790   47.3150 C   0  0  0  0  0  0  0  0  0  0  0  0
    5.3470   41.5970   45.9900 C   0  0  0  0  0  0  0  0  0  0  0  0
    2.4864   39.1310   42.2700 H   0  0  0  0  0  0  0  0  0  0  0  0
    3.6093   40.3590   41.5933 H   0  0  0  0  0  0  0  0  0  0  0  0
    4.0709   38.6230   41.5933 H   0  0  0  0  0  0  0  0  0  0  0  0
    3.2650   41.4690   43.8770 H   0  0  0  0  0  0  0  0  0  0  0  0
    2.5273   39.7381   46.5347 H   0  0  0  0  0  0  0  0  0  0  0  0
    3.2515   40.0640   48.8950 H   0  0  0  0  0  0  0  0  0  0  0  0
    4.8404   40.7706   50.4484 H   0  0  0  0  0  0  0  0  0  0  0  0
    6.4983   41.2116   49.8971 H   0  0  0  0  0  0  0  0  0  0  0  0
    5.7350   43.5740   49.7020 H   0  0  0  0  0  0  0  0  0  0  0  0
    3.0745   44.9256   51.3543 H   0  0  0  0  0  0  0  0  0  0  0  0
    4.9746   45.3055   49.7407 H   0  0  0  0  0  0  0  0  0  0  0  0
    4.6577   46.6143   50.9754 H   0  0  0  0  0  0  0  0  0  0  0  0
    6.9484   44.6141   50.9029 H   0  0  0  0  0  0  0  0  0  0  0  0
    7.0118   46.4193   50.8191 H   0  0  0  0  0  0  0  0  0  0  0  0
    6.4177   47.2283   54.9156 H   0  0  0  0  0  0  0  0  0  0  0  0
   10.5389   48.3236   55.0119 H   0  0  0  0  0  0  0  0  0  0  0  0
   10.9618   46.9294   52.9765 H   0  0  0  0  0  0  0  0  0  0  0  0
    6.1205   43.6730   53.3429 H   0  0  0  0  0  0  0  0  0  0  0  0
    5.8887   44.9635   54.5788 H   0  0  0  0  0  0  0  0  0  0  0  0
    3.7322   44.0534   53.6511 H   0  0  0  0  0  0  0  0  0  0  0  0
    3.9620   45.8334   53.3899 H   0  0  0  0  0  0  0  0  0  0  0  0
    6.6576   42.3652   47.5340 H   0  0  0  0  0  0  0  0  0  0  0  0
    5.9291   42.0487   45.1732 H   0  0  0  0  0  0  0  0  0  0  0  0
  1  2  1  0
  2  3  2  0
  2  4  1  0
  4  5  1  0
  5  6  2  0
  6  7  1  0
  7  8  2  0
  8  9  1  0
  9 10  1  0
 10 11  1  0
 11 12  2  0
 11 13  1  0
 13 14  1  0
 14 15  1  0
 15 16  1  0
 16 17  1  0
 17 18  2  0
 18 19  1  0
 19 20  2  0
 20 21  1  0
 21 22  2  0
 16 23  1  0
 23 24  1  0
  8 25  1  0
 25 26  2  0
 26  5  1  0
 24 13  1  0
 22 17  1  0
  1 27  1  0
  1 28  1  0
  1 29  1  0
  4 30  1  0
  6 31  1  0
  7 32  1  0
  9 33  1  0
  9 34  1  0
 10 35  1  0
 13 36  1  0
 14 37  1  0
 14 38  1  0
 15 39  1  0
 15 40  1  0
 18 41  1  0
 20 42  1  0
 21 43  1  0
 23 44  1  0
 23 45  1  0
 24 46  1  0
 24 47  1  0
 25 48  1  0
 26 49  1  0
M  END
>  <meeko>  (2) 
{"is_sidechain": [false], "free_energy": -8.453, "intermolecular_energy": -10.878, "internal_energy": -0.583}

$$$$
ligand_68_conformer_1_docked
     RDKit          3D

 49 51  0  0  0  0  0  0  0  0999 V2000
    2.7810   38.3710   46.8660 C   0  0  0  0  0  0  0  0  0  0  0  0
    3.2160   39.6970   47.3990 C   0  0  0  0  0  0  0  0  0  0  0  0
    2.8640   40.7500   46.8010 O   0  0  0  0  0  0  0  0  0  0  0  0
    3.9590   39.7640   48.6250 N   0  0  0  0  0  0  0  0  0  0  0  0
    4.5730   40.9620   49.1310 C   0  0  0  0  0  0  0  0  0  0  0  0
    5.7090   41.5210   48.5160 C   0  0  0  0  0  0  0  0  0  0  0  0
    6.3010   42.6720   49.0410 C   0  0  0  0  0  0  0  0  0  0  0  0
    5.7750   43.2810   50.1900 C   0  0  0  0  0  0  0  0  0  0  0  0
    6.4350   44.5040   50.7630 C   0  0  0  0  0  0  0  0  0  0  0  0
    5.4280   45.4220   51.2900 N   0  0  0  0  0  0  0  0  0  0  0  0
    5.5730   46.0780   52.5580 C   0  0  0  0  0  0  0  0  0  0  0  0
    6.5420   45.7850   53.3090 O   0  0  0  0  0  0  0  0  0  0  0  0
    4.5260   47.0730   53.0070 C   0  0  0  0  0  0  0  0  0  0  0  0
    4.4200   47.2010   54.5430 C   0  0  0  0  0  0  0  0  0  0  0  0
    3.6710   46.0340   55.2050 C   0  0  0  0  0  0  0  0  0  0  0  0
    2.4260   45.7320   54.4870 N   0  0  0  0  0  0  0  0  0  0  0  0
    1.2310   45.3440   55.1980 C   0  0  0  0  0  0  0  0  0  0  0  0
    1.1540   45.4150   56.6000 C   0  0  0  0  0  0  0  0  0  0  0  0
    0.0080   45.0410   57.2280 N   0  0  0  0  0  0  0  0  0  0  0  0
   -1.0680   44.5990   56.5270 C   0  0  0  0  0  0  0  0  0  0  0  0
   -0.9950   44.5190   55.1380 C   0  0  0  0  0  0  0  0  0  0  0  0
    0.1490   44.8910   54.5070 N   0  0  0  0  0  0  0  0  0  0  0  0
    2.4890   45.5540   53.0320 C   0  0  0  0  0  0  0  0  0  0  0  0
    3.1550   46.7680   52.3800 C   0  0  0  0  0  0  0  0  0  0  0  0
    4.6600   42.7080   50.8210 C   0  0  0  0  0  0  0  0  0  0  0  0
    4.0690   41.5530   50.2990 C   0  0  0  0  0  0  0  0  0  0  0  0
    2.5589   37.6939   47.7040 H   0  0  0  0  0  0  0  0  0  0  0  0
    1.8785   38.5013   46.2508 H   0  0  0  0  0  0  0  0  0  0  0  0
    3.5853   37.9414   46.2508 H   0  0  0  0  0  0  0  0  0  0  0  0
    3.9770   38.9100   49.2270 H   0  0  0  0  0  0  0  0  0  0  0  0
    6.1327   41.0490   47.6173 H   0  0  0  0  0  0  0  0  0  0  0  0
    7.1857   43.1038   48.5502 H   0  0  0  0  0  0  0  0  0  0  0  0
    7.1133   44.2038   51.5753 H   0  0  0  0  0  0  0  0  0  0  0  0
    7.0015   45.0113   49.9682 H   0  0  0  0  0  0  0  0  0  0  0  0
    4.5740   45.6050   50.7160 H   0  0  0  0  0  0  0  0  0  0  0  0
    4.8653   48.0529   52.6399 H   0  0  0  0  0  0  0  0  0  0  0  0
    5.4371   47.2432   54.9599 H   0  0  0  0  0  0  0  0  0  0  0  0
    3.8450   48.1150   54.7526 H   0  0  0  0  0  0  0  0  0  0  0  0
    4.3156   45.1427   55.1977 H   0  0  0  0  0  0  0  0  0  0  0  0
    3.4196   46.3197   56.2371 H   0  0  0  0  0  0  0  0  0  0  0  0
    2.0152   45.7707   57.1847 H   0  0  0  0  0  0  0  0  0  0  0  0
   -1.9896   44.3066   57.0516 H   0  0  0  0  0  0  0  0  0  0  0  0
   -1.8565   44.1577   54.5572 H   0  0  0  0  0  0  0  0  0  0  0  0
    3.0735   44.6512   52.8012 H   0  0  0  0  0  0  0  0  0  0  0  0
    1.4671   45.4503   52.6382 H   0  0  0  0  0  0  0  0  0  0  0  0
    3.2911   46.5661   51.3073 H   0  0  0  0  0  0  0  0  0  0  0  0
    2.5047   47.6409   52.5387 H   0  0  0  0  0  0  0  0  0  0  0  0
    4.2488   43.1697   51.7308 H   0  0  0  0  0  0  0  0  0  0  0  0
    3.2029   41.1049   50.8079 H   0  0  0  0  0  0  0  0  0  0  0  0
  1  2  1  0
  2  3  2  0
  2  4  1  0
  4  5  1  0
  5  6  2  0
  6  7  1  0
  7  8  2  0
  8  9  1  0
  9 10  1  0
 10 11  1  0
 11 12  2  0
 11 13  1  0
 13 14  1  0
 14 15  1  0
 15 16  1  0
 16 17  1  0
 17 18  2  0
 18 19  1  0
 19 20  2  0
 20 21  1  0
 21 22  2  0
 16 23  1  0
 23 24  1  0
  8 25  1  0
 25 26  2  0
 26  5  1  0
 24 13  1  0
 22 17  1  0
  1 27  1  0
  1 28  1  0
  1 29  1  0
  4 30  1  0
  6 31  1  0
  7 32  1  0
  9 33  1  0
  9 34  1  0
 10 35  1  0
 13 36  1  0
 14 37  1  0
 14 38  1  0
 15 39  1  0
 15 40  1  0
 18 41  1  0
 20 42  1  0
 21 43  1  0
 23 44  1  0
 23 45  1  0
 24 46  1  0
 24 47  1  0
 25 48  1  0
 26 49  1  0
M  END
>  <meeko>  (3) 
{"is_sidechain": [false], "free_energy": -8.27, "intermolecular_energy": -10.464, "internal_energy": -0.76}

$$$$
ligand_68_conformer_1_docked
     RDKit          3D

 49 51  0  0  0  0  0  0  0  0999 V2000
    5.5980   41.1160   44.4090 C   0  0  0  0  0  0  0  0  0  0  0  0
    4.9590   41.1820   45.7580 C   0  0  0  0  0  0  0  0  0  0  0  0
    3.7020   41.1470   45.8500 O   0  0  0  0  0  0  0  0  0  0  0  0
    5.7800   41.2030   46.9360 N   0  0  0  0  0  0  0  0  0  0  0  0
    5.2800   41.4410   48.2630 C   0  0  0  0  0  0  0  0  0  0  0  0
    4.1350   40.7820   48.7460 C   0  0  0  0  0  0  0  0  0  0  0  0
    3.6560   41.0480   50.0310 C   0  0  0  0  0  0  0  0  0  0  0  0
    4.3070   41.9810   50.8530 C   0  0  0  0  0  0  0  0  0  0  0  0
    3.7680   42.2810   52.2230 C   0  0  0  0  0  0  0  0  0  0  0  0
    4.0540   43.6680   52.5850 N   0  0  0  0  0  0  0  0  0  0  0  0
    3.0270   44.5850   52.9890 C   0  0  0  0  0  0  0  0  0  0  0  0
    1.8170   44.2370   52.9320 O   0  0  0  0  0  0  0  0  0  0  0  0
    3.4040   45.9850   53.4220 C   0  0  0  0  0  0  0  0  0  0  0  0
    4.2020   46.7630   52.3530 C   0  0  0  0  0  0  0  0  0  0  0  0
    5.6760   46.3390   52.2580 C   0  0  0  0  0  0  0  0  0  0  0  0
    6.2860   46.2480   53.5920 N   0  0  0  0  0  0  0  0  0  0  0  0
    7.6510   46.6570   53.8160 C   0  0  0  0  0  0  0  0  0  0  0  0
    8.7000   46.1990   52.9990 C   0  0  0  0  0  0  0  0  0  0  0  0
    9.9710   46.6120   53.2460 N   0  0  0  0  0  0  0  0  0  0  0  0
   10.2510   47.4590   54.2690 C   0  0  0  0  0  0  0  0  0  0  0  0
    9.2170   47.9100   55.0870 C   0  0  0  0  0  0  0  0  0  0  0  0
    7.9460   47.4990   54.8440 N   0  0  0  0  0  0  0  0  0  0  0  0
    5.5840   45.4760   54.6240 C   0  0  0  0  0  0  0  0  0  0  0  0
    4.1450   45.9750   54.7700 C   0  0  0  0  0  0  0  0  0  0  0  0
    5.4310   42.6610   50.3600 C   0  0  0  0  0  0  0  0  0  0  0  0
    5.9090   42.3980   49.0730 C   0  0  0  0  0  0  0  0  0  0  0  0
    6.6862   41.0036   44.5238 H   0  0  0  0  0  0  0  0  0  0  0  0
    5.1968   40.2545   43.8550 H   0  0  0  0  0  0  0  0  0  0  0  0
    5.3814   42.0413   43.8550 H   0  0  0  0  0  0  0  0  0  0  0  0
    6.7860   40.9410   46.8290 H   0  0  0  0  0  0  0  0  0  0  0  0
    3.6138   40.0530   48.1082 H   0  0  0  0  0  0  0  0  0  0  0  0
    2.7630   40.5229   50.4010 H   0  0  0  0  0  0  0  0  0  0  0  0
    2.6797   42.1210   52.2284 H   0  0  0  0  0  0  0  0  0  0  0  0
    4.2493   41.6129   52.9524 H   0  0  0  0  0  0  0  0  0  0  0  0
    5.0460   43.9960   52.5510 H   0  0  0  0  0  0  0  0  0  0  0  0
    2.4554   46.5267   53.5512 H   0  0  0  0  0  0  0  0  0  0  0  0
    3.7280   46.5956   51.3746 H   0  0  0  0  0  0  0  0  0  0  0  0
    4.1889   47.8227   52.6476 H   0  0  0  0  0  0  0  0  0  0  0  0
    5.7365   45.3564   51.7672 H   0  0  0  0  0  0  0  0  0  0  0  0
    6.2210   47.0959   51.6748 H   0  0  0  0  0  0  0  0  0  0  0  0
    8.4932   45.5112   52.1658 H   0  0  0  0  0  0  0  0  0  0  0  0
   11.2852   47.7866   54.4508 H   0  0  0  0  0  0  0  0  0  0  0  0
    9.4287   48.5933   55.9226 H   0  0  0  0  0  0  0  0  0  0  0  0
    5.5730   44.4137   54.3386 H   0  0  0  0  0  0  0  0  0  0  0  0
    6.1065   45.6016   55.5838 H   0  0  0  0  0  0  0  0  0  0  0  0
    3.6080   45.3143   55.4665 H   0  0  0  0  0  0  0  0  0  0  0  0
    4.1779   47.0069   55.1496 H   0  0  0  0  0  0  0  0  0  0  0  0
    5.9392   43.4057   50.9902 H   0  0  0  0  0  0  0  0  0  0  0  0
    6.7843   42.9452   48.6929 H   0  0  0  0  0  0  0  0  0  0  0  0
  1  2  1  0
  2  3  2  0
  2  4  1  0
  4  5  1  0
  5  6  2  0
  6  7  1  0
  7  8  2  0
  8  9  1  0
  9 10  1  0
 10 11  1  0
 11 12  2  0
 11 13  1  0
 13 14  1  0
 14 15  1  0
 15 16  1  0
 16 17  1  0
 17 18  2  0
 18 19  1  0
 19 20  2  0
 20 21  1  0
 21 22  2  0
 16 23  1  0
 23 24  1  0
  8 25  1  0
 25 26  2  0
 26  5  1  0
 24 13  1  0
 22 17  1  0
  1 27  1  0
  1 28  1  0
  1 29  1  0
  4 30  1  0
  6 31  1  0
  7 32  1  0
  9 33  1  0
  9 34  1  0
 10 35  1  0
 13 36  1  0
 14 37  1  0
 14 38  1  0
 15 39  1  0
 15 40  1  0
 18 41  1  0
 20 42  1  0
 21 43  1  0
 23 44  1  0
 23 45  1  0
 24 46  1  0
 24 47  1  0
 25 48  1  0
 26 49  1  0
M  END
>  <meeko>  (4) 
{"is_sidechain": [false], "free_energy": -8.162, "intermolecular_energy": -11.143, "internal_energy": 0.057}

$$$$
ligand_68_conformer_1_docked
     RDKit          3D

 49 51  0  0  0  0  0  0  0  0999 V2000
    3.4810   39.5210   47.5830 C   0  0  0  0  0  0  0  0  0  0  0  0
    4.0170   40.5740   48.4970 C   0  0  0  0  0  0  0  0  0  0  0  0
    3.3300   40.9420   49.4880 O   0  0  0  0  0  0  0  0  0  0  0  0
    5.3380   41.0960   48.2870 N   0  0  0  0  0  0  0  0  0  0  0  0
    5.8800   42.2250   48.9920 C   0  0  0  0  0  0  0  0  0  0  0  0
    7.1200   42.7870   48.6370 C   0  0  0  0  0  0  0  0  0  0  0  0
    7.6350   43.8700   49.3530 C   0  0  0  0  0  0  0  0  0  0  0  0
    6.9260   44.4060   50.4390 C   0  0  0  0  0  0  0  0  0  0  0  0
    7.5020   45.5540   51.2200 C   0  0  0  0  0  0  0  0  0  0  0  0
    6.8690   45.6380   52.5340 N   0  0  0  0  0  0  0  0  0  0  0  0
    6.6240   46.8900   53.1920 C   0  0  0  0  0  0  0  0  0  0  0  0
    7.0600   47.9600   52.6870 O   0  0  0  0  0  0  0  0  0  0  0  0
    5.8960   46.9070   54.5180 C   0  0  0  0  0  0  0  0  0  0  0  0
    5.6960   45.5010   55.1260 C   0  0  0  0  0  0  0  0  0  0  0  0
    4.5690   44.6980   54.4570 C   0  0  0  0  0  0  0  0  0  0  0  0
    3.3610   45.5190   54.2970 N   0  0  0  0  0  0  0  0  0  0  0  0
    2.0460   44.9520   54.4750 C   0  0  0  0  0  0  0  0  0  0  0  0
    1.5860   43.8930   53.6730 C   0  0  0  0  0  0  0  0  0  0  0  0
    0.3410   43.3880   53.8780 N   0  0  0  0  0  0  0  0  0  0  0  0
   -0.4720   43.8880   54.8440 C   0  0  0  0  0  0  0  0  0  0  0  0
   -0.0250   44.9430   55.6370 C   0  0  0  0  0  0  0  0  0  0  0  0
    1.2180   45.4500   55.4350 N   0  0  0  0  0  0  0  0  0  0  0  0
    3.4990   46.8430   53.6790 C   0  0  0  0  0  0  0  0  0  0  0  0
    4.5600   47.6620   54.4160 C   0  0  0  0  0  0  0  0  0  0  0  0
    5.7040   43.8280   50.8130 C   0  0  0  0  0  0  0  0  0  0  0  0
    5.1890   42.7420   50.0990 C   0  0  0  0  0  0  0  0  0  0  0  0
    3.0616   38.6970   48.1790 H   0  0  0  0  0  0  0  0  0  0  0  0
    2.6929   39.9527   46.9485 H   0  0  0  0  0  0  0  0  0  0  0  0
    4.2938   39.1379   46.9485 H   0  0  0  0  0  0  0  0  0  0  0  0
    5.9710   40.5660   47.6460 H   0  0  0  0  0  0  0  0  0  0  0  0
    7.6869   42.3712   47.7910 H   0  0  0  0  0  0  0  0  0  0  0  0
    8.6027   44.3057   49.0637 H   0  0  0  0  0  0  0  0  0  0  0  0
    8.5838   45.4007   51.3469 H   0  0  0  0  0  0  0  0  0  0  0  0
    7.3172   46.4897   50.6720 H   0  0  0  0  0  0  0  0  0  0  0  0
    6.5820   44.7500   53.0050 H   0  0  0  0  0  0  0  0  0  0  0  0
    6.5507   47.4522   55.2137 H   0  0  0  0  0  0  0  0  0  0  0  0
    6.6352   44.9385   55.0187 H   0  0  0  0  0  0  0  0  0  0  0  0
    5.4117   45.6416   56.1793 H   0  0  0  0  0  0  0  0  0  0  0  0
    4.9075   44.3593   53.4667 H   0  0  0  0  0  0  0  0  0  0  0  0
    4.3252   43.8366   55.0963 H   0  0  0  0  0  0  0  0  0  0  0  0
    2.2296   43.4758   52.8846 H   0  0  0  0  0  0  0  0  0  0  0  0
   -1.4750   43.4638   54.9992 H   0  0  0  0  0  0  0  0  0  0  0  0
   -0.6740   45.3616   56.4203 H   0  0  0  0  0  0  0  0  0  0  0  0
    3.7980   46.7236   52.6272 H   0  0  0  0  0  0  0  0  0  0  0  0
    2.5347   47.3689   53.7380 H   0  0  0  0  0  0  0  0  0  0  0  0
    4.7240   48.6039   53.8720 H   0  0  0  0  0  0  0  0  0  0  0  0
    4.1965   47.8527   55.4365 H   0  0  0  0  0  0  0  0  0  0  0  0
    5.1481   44.2312   51.6723 H   0  0  0  0  0  0  0  0  0  0  0  0
    4.2350   42.2892   50.4071 H   0  0  0  0  0  0  0  0  0  0  0  0
  1  2  1  0
  2  3  2  0
  2  4  1  0
  4  5  1  0
  5  6  2  0
  6  7  1  0
  7  8  2  0
  8  9  1  0
  9 10  1  0
 10 11  1  0
 11 12  2  0
 11 13  1  0
 13 14  1  0
 14 15  1  0
 15 16  1  0
 16 17  1  0
 17 18  2  0
 18 19  1  0
 19 20  2  0
 20 21  1  0
 21 22  2  0
 16 23  1  0
 23 24  1  0
  8 25  1  0
 25 26  2  0
 26  5  1  0
 24 13  1  0
 22 17  1  0
  1 27  1  0
  1 28  1  0
  1 29  1  0
  4 30  1  0
  6 31  1  0
  7 32  1  0
  9 33  1  0
  9 34  1  0
 10 35  1  0
 13 36  1  0
 14 37  1  0
 14 38  1  0
 15 39  1  0
 15 40  1  0
 18 41  1  0
 20 42  1  0
 21 43  1  0
 23 44  1  0
 23 45  1  0
 24 46  1  0
 24 47  1  0
 25 48  1  0
 26 49  1  0
M  END
>  <meeko>  (5) 
{"is_sidechain": [false], "free_energy": -7.923, "intermolecular_energy": -10.792, "internal_energy": 0.015}

$$$$
