ligand_17_conformer_2_docked
     RDKit          3D

 40 42  0  0  0  0  0  0  0  0999 V2000
    4.6940   47.8010   53.5930 O   0  0  0  0  0  0  0  0  0  0  0  0
    4.5110   46.5590   53.7160 C   0  0  0  0  0  0  0  0  0  0  0  0
    5.6400   45.6690   53.6880 N   0  0  0  0  0  0  0  0  0  0  0  0
    6.9050   46.0040   53.0910 C   0  0  0  0  0  0  0  0  0  0  0  0
    7.0440   45.9500   51.6960 C   0  0  0  0  0  0  0  0  0  0  0  0
    8.2570   46.2880   51.0930 C   0  0  0  0  0  0  0  0  0  0  0  0
    9.3390   46.6950   51.8750 C   0  0  0  0  0  0  0  0  0  0  0  0
    9.2180   46.7800   53.2670 C   0  0  0  0  0  0  0  0  0  0  0  0
   10.3330   47.2090   54.0040 O   0  0  0  0  0  0  0  0  0  0  0  0
   10.3360   47.4410   55.4100 C   0  0  0  0  0  0  0  0  0  0  0  0
   11.6350   47.6580   55.8280 F   0  0  0  0  0  0  0  0  0  0  0  0
    9.5770   48.5590   55.7060 F   0  0  0  0  0  0  0  0  0  0  0  0
    7.9920   46.4370   53.8730 C   0  0  0  0  0  0  0  0  0  0  0  0
    3.1400   46.0400   53.9380 C   0  0  0  0  0  0  0  0  0  0  0  0
    2.2770   45.7940   52.8550 C   0  0  0  0  0  0  0  0  0  0  0  0
    0.9790   45.3300   53.0760 C   0  0  0  0  0  0  0  0  0  0  0  0
    0.5270   45.0980   54.3760 C   0  0  0  0  0  0  0  0  0  0  0  0
    1.3730   45.3190   55.4700 C   0  0  0  0  0  0  0  0  0  0  0  0
    0.8770   45.0960   56.8010 N   0  0  0  0  0  0  0  0  0  0  0  0
    0.3890   46.1340   57.6630 C   0  0  0  0  0  0  0  0  0  0  0  0
   -0.8960   46.5640   57.5350 N   0  0  0  0  0  0  0  0  0  0  0  0
   -1.4000   47.5240   58.3530 C   0  0  0  0  0  0  0  0  0  0  0  0
   -0.5990   48.0780   59.3500 C   0  0  0  0  0  0  0  0  0  0  0  0
    0.7100   47.6200   59.4800 C   0  0  0  0  0  0  0  0  0  0  0  0
    1.1770   46.6580   58.6420 N   0  0  0  0  0  0  0  0  0  0  0  0
    2.6710   45.8130   55.2460 C   0  0  0  0  0  0  0  0  0  0  0  0
    5.5770   44.7790   54.2320 H   0  0  0  0  0  0  0  0  0  0  0  0
    6.1920   45.6394   51.0734 H   0  0  0  0  0  0  0  0  0  0  0  0
    8.3601   46.2334   49.9992 H   0  0  0  0  0  0  0  0  0  0  0  0
   10.2944   46.9510   51.3937 H   0  0  0  0  0  0  0  0  0  0  0  0
    9.9112   46.5655   55.9230 H   0  0  0  0  0  0  0  0  0  0  0  0
    7.8843   46.5084   54.9654 H   0  0  0  0  0  0  0  0  0  0  0  0
    2.6272   45.9684   51.8269 H   0  0  0  0  0  0  0  0  0  0  0  0
    0.3099   45.1465   52.2224 H   0  0  0  0  0  0  0  0  0  0  0  0
   -0.4996   44.7395   54.5422 H   0  0  0  0  0  0  0  0  0  0  0  0
    0.9490   44.1320   57.1990 H   0  0  0  0  0  0  0  0  0  0  0  0
   -2.4388   47.8637   58.2288 H   0  0  0  0  0  0  0  0  0  0  0  0
   -0.9913   48.8585   60.0185 H   0  0  0  0  0  0  0  0  0  0  0  0
    1.3645   48.0365   60.2598 H   0  0  0  0  0  0  0  0  0  0  0  0
    3.3274   46.0245   56.1030 H   0  0  0  0  0  0  0  0  0  0  0  0
  1  2  2  0
  2  3  1  0
  3  4  1  0
  4  5  2  0
  5  6  1  0
  6  7  2  0
  7  8  1  0
  8  9  1  0
  9 10  1  0
 10 11  1  0
 10 12  1  0
  8 13  2  0
  2 14  1  0
 14 15  2  0
 15 16  1  0
 16 17  2  0
 17 18  1  0
 18 19  1  0
 19 20  1  0
 20 21  2  0
 21 22  1  0
 22 23  2  0
 23 24  1  0
 24 25  2  0
 18 26  2  0
 13  4  1  0
 26 14  1  0
 25 20  1  0
  3 27  1  0
  5 28  1  0
  6 29  1  0
  7 30  1  0
 10 31  1  0
 13 32  1  0
 15 33  1  0
 16 34  1  0
 17 35  1  0
 19 36  1  0
 22 37  1  0
 23 38  1  0
 24 39  1  0
 26 40  1  0
M  END
>  <meeko>  (1) 
{"is_sidechain": [false], "free_energy": -8.83, "intermolecular_energy": -11.928, "internal_energy": -0.774}

$$$$
ligand_17_conformer_2_docked
     RDKit          3D

 40 42  0  0  0  0  0  0  0  0999 V2000
    2.5470   42.3200   52.6780 O   0  0  0  0  0  0  0  0  0  0  0  0
    3.3440   43.2960   52.6360 C   0  0  0  0  0  0  0  0  0  0  0  0
    3.2090   44.3650   53.5880 N   0  0  0  0  0  0  0  0  0  0  0  0
    1.9910   44.6530   54.2960 C   0  0  0  0  0  0  0  0  0  0  0  0
    0.7670   44.5980   53.6120 C   0  0  0  0  0  0  0  0  0  0  0  0
   -0.4300   44.8560   54.2830 C   0  0  0  0  0  0  0  0  0  0  0  0
   -0.4190   45.1580   55.6450 C   0  0  0  0  0  0  0  0  0  0  0  0
    0.7860   45.1960   56.3550 C   0  0  0  0  0  0  0  0  0  0  0  0
    0.7400   45.4920   57.7260 O   0  0  0  0  0  0  0  0  0  0  0  0
    0.8580   46.7990   58.2800 C   0  0  0  0  0  0  0  0  0  0  0  0
   -0.4030   47.2750   58.5840 F   0  0  0  0  0  0  0  0  0  0  0  0
    1.6120   46.7560   59.4390 F   0  0  0  0  0  0  0  0  0  0  0  0
    1.9940   44.9360   55.6750 C   0  0  0  0  0  0  0  0  0  0  0  0
    4.4410   43.3030   51.6380 C   0  0  0  0  0  0  0  0  0  0  0  0
    4.7250   42.1600   50.8700 C   0  0  0  0  0  0  0  0  0  0  0  0
    5.7760   42.1680   49.9510 C   0  0  0  0  0  0  0  0  0  0  0  0
    6.5520   43.3160   49.7810 C   0  0  0  0  0  0  0  0  0  0  0  0
    6.2790   44.4720   50.5220 C   0  0  0  0  0  0  0  0  0  0  0  0
    7.1080   45.6340   50.3470 N   0  0  0  0  0  0  0  0  0  0  0  0
    8.0350   46.1180   51.3290 C   0  0  0  0  0  0  0  0  0  0  0  0
    9.3500   45.7810   51.2340 N   0  0  0  0  0  0  0  0  0  0  0  0
   10.2590   46.2460   52.1290 C   0  0  0  0  0  0  0  0  0  0  0  0
    9.8510   47.0890   53.1610 C   0  0  0  0  0  0  0  0  0  0  0  0
    8.5040   47.4380   53.2390 C   0  0  0  0  0  0  0  0  0  0  0  0
    7.6250   46.9520   52.3240 N   0  0  0  0  0  0  0  0  0  0  0  0
    5.2360   44.4530   51.4670 C   0  0  0  0  0  0  0  0  0  0  0  0
    4.0710   44.8860   53.8680 H   0  0  0  0  0  0  0  0  0  0  0  0
    0.7504   44.3501   52.5404 H   0  0  0  0  0  0  0  0  0  0  0  0
   -1.3840   44.8211   53.7364 H   0  0  0  0  0  0  0  0  0  0  0  0
   -1.3654   45.3679   56.1649 H   0  0  0  0  0  0  0  0  0  0  0  0
    1.3497   47.4585   57.5497 H   0  0  0  0  0  0  0  0  0  0  0  0
    2.9457   44.9545   56.2264 H   0  0  0  0  0  0  0  0  0  0  0  0
    4.1149   41.2532   50.9941 H   0  0  0  0  0  0  0  0  0  0  0  0
    5.9933   41.2668   49.3589 H   0  0  0  0  0  0  0  0  0  0  0  0
    7.3831   43.3122   49.0604 H   0  0  0  0  0  0  0  0  0  0  0  0
    6.9720   46.2110   49.4850 H   0  0  0  0  0  0  0  0  0  0  0  0
   11.3167   45.9575   52.0396 H   0  0  0  0  0  0  0  0  0  0  0  0
   10.5749   47.4699   53.8965 H   0  0  0  0  0  0  0  0  0  0  0  0
    8.1532   48.1056   54.0398 H   0  0  0  0  0  0  0  0  0  0  0  0
    5.0397   45.3460   52.0786 H   0  0  0  0  0  0  0  0  0  0  0  0
  1  2  2  0
  2  3  1  0
  3  4  1  0
  4  5  2  0
  5  6  1  0
  6  7  2  0
  7  8  1  0
  8  9  1  0
  9 10  1  0
 10 11  1  0
 10 12  1  0
  8 13  2  0
  2 14  1  0
 14 15  2  0
 15 16  1  0
 16 17  2  0
 17 18  1  0
 18 19  1  0
 19 20  1  0
 20 21  2  0
 21 22  1  0
 22 23  2  0
 23 24  1  0
 24 25  2  0
 18 26  2  0
 13  4  1  0
 26 14  1  0
 25 20  1  0
  3 27  1  0
  5 28  1  0
  6 29  1  0
  7 30  1  0
 10 31  1  0
 13 32  1  0
 15 33  1  0
 16 34  1  0
 17 35  1  0
 19 36  1  0
 22 37  1  0
 23 38  1  0
 24 39  1  0
 26 40  1  0
M  END
>  <meeko>  (2) 
{"is_sidechain": [false], "free_energy": -8.728, "intermolecular_energy": -12.053, "internal_energy": -0.51}

$$$$
ligand_17_conformer_2_docked
     RDKit          3D

 40 42  0  0  0  0  0  0  0  0999 V2000
    3.1440   47.1050   52.1810 O   0  0  0  0  0  0  0  0  0  0  0  0
    3.0370   45.9950   52.7700 C   0  0  0  0  0  0  0  0  0  0  0  0
    4.2010   45.1670   52.9430 N   0  0  0  0  0  0  0  0  0  0  0  0
    5.3810   45.2690   52.1270 C   0  0  0  0  0  0  0  0  0  0  0  0
    5.4470   44.5560   50.9210 C   0  0  0  0  0  0  0  0  0  0  0  0
    6.5740   44.6540   50.1030 C   0  0  0  0  0  0  0  0  0  0  0  0
    7.6410   45.4740   50.4750 C   0  0  0  0  0  0  0  0  0  0  0  0
    7.5880   46.2140   51.6610 C   0  0  0  0  0  0  0  0  0  0  0  0
    8.6820   47.0330   51.9810 O   0  0  0  0  0  0  0  0  0  0  0  0
    9.8680   46.5880   52.6330 C   0  0  0  0  0  0  0  0  0  0  0  0
   10.8630   46.4150   51.6900 F   0  0  0  0  0  0  0  0  0  0  0  0
   10.2830   47.5320   53.5550 F   0  0  0  0  0  0  0  0  0  0  0  0
    6.4490   46.1120   52.4860 C   0  0  0  0  0  0  0  0  0  0  0  0
    1.7230   45.5810   53.3190 C   0  0  0  0  0  0  0  0  0  0  0  0
    0.6220   45.3660   52.4710 C   0  0  0  0  0  0  0  0  0  0  0  0
   -0.6180   45.0020   53.0010 C   0  0  0  0  0  0  0  0  0  0  0  0
   -0.7740   44.8420   54.3790 C   0  0  0  0  0  0  0  0  0  0  0  0
    0.3120   45.0350   55.2420 C   0  0  0  0  0  0  0  0  0  0  0  0
    0.1190   44.8890   56.6590 N   0  0  0  0  0  0  0  0  0  0  0  0
   -0.0890   45.9850   57.5620 C   0  0  0  0  0  0  0  0  0  0  0  0
    0.9420   46.4190   58.3370 N   0  0  0  0  0  0  0  0  0  0  0  0
    0.7890   47.4730   59.1810 C   0  0  0  0  0  0  0  0  0  0  0  0
   -0.4370   48.1320   59.2550 C   0  0  0  0  0  0  0  0  0  0  0  0
   -1.4800   47.6860   58.4460 C   0  0  0  0  0  0  0  0  0  0  0  0
   -1.2870   46.6290   57.6150 N   0  0  0  0  0  0  0  0  0  0  0  0
    1.5530   45.4280   54.7090 C   0  0  0  0  0  0  0  0  0  0  0  0
    4.2380   44.5400   53.7780 H   0  0  0  0  0  0  0  0  0  0  0  0
    4.6056   43.9156   50.6178 H   0  0  0  0  0  0  0  0  0  0  0  0
    6.6215   44.0840   49.1634 H   0  0  0  0  0  0  0  0  0  0  0  0
    8.5301   45.5387   49.8306 H   0  0  0  0  0  0  0  0  0  0  0  0
    9.6632   45.6389   53.1499 H   0  0  0  0  0  0  0  0  0  0  0  0
    6.3949   46.6956   53.4169 H   0  0  0  0  0  0  0  0  0  0  0  0
    0.7380   45.4852   51.3837 H   0  0  0  0  0  0  0  0  0  0  0  0
   -1.4747   44.8408   52.3301 H   0  0  0  0  0  0  0  0  0  0  0  0
   -1.7556   44.5627   54.7894 H   0  0  0  0  0  0  0  0  0  0  0  0
    0.2170   43.9340   57.0740 H   0  0  0  0  0  0  0  0  0  0  0  0
    1.6316   47.8057   59.8050 H   0  0  0  0  0  0  0  0  0  0  0  0
   -0.5778   48.9842   59.9361 H   0  0  0  0  0  0  0  0  0  0  0  0
   -2.4577   48.1888   58.4802 H   0  0  0  0  0  0  0  0  0  0  0  0
    2.3998   45.6179   55.3849 H   0  0  0  0  0  0  0  0  0  0  0  0
  1  2  2  0
  2  3  1  0
  3  4  1  0
  4  5  2  0
  5  6  1  0
  6  7  2  0
  7  8  1  0
  8  9  1  0
  9 10  1  0
 10 11  1  0
 10 12  1  0
  8 13  2  0
  2 14  1  0
 14 15  2  0
 15 16  1  0
 16 17  2  0
 17 18  1  0
 18 19  1  0
 19 20  1  0
 20 21  2  0
 21 22  1  0
 22 23  2  0
 23 24  1  0
 24 25  2  0
 18 26  2  0
 13  4  1  0
 26 14  1  0
 25 20  1  0
  3 27  1  0
  5 28  1  0
  6 29  1  0
  7 30  1  0
 10 31  1  0
 13 32  1  0
 15 33  1  0
 16 34  1  0
 17 35  1  0
 19 36  1  0
 22 37  1  0
 23 38  1  0
 24 39  1  0
 26 40  1  0
M  END
>  <meeko>  (3) 
{"is_sidechain": [false], "free_energy": -8.592, "intermolecular_energy": -11.609, "internal_energy": -0.771}

$$$$
ligand_17_conformer_2_docked
     RDKit          3D

 40 42  0  0  0  0  0  0  0  0999 V2000
    4.0830   41.6120   50.7640 O   0  0  0  0  0  0  0  0  0  0  0  0
    4.3420   42.8080   51.0700 C   0  0  0  0  0  0  0  0  0  0  0  0
    3.4450   43.5320   51.9290 N   0  0  0  0  0  0  0  0  0  0  0  0
    2.0610   43.1840   52.1120 C   0  0  0  0  0  0  0  0  0  0  0  0
    1.6460   42.6330   53.3340 C   0  0  0  0  0  0  0  0  0  0  0  0
    0.3050   42.3040   53.5410 C   0  0  0  0  0  0  0  0  0  0  0  0
   -0.6360   42.5340   52.5360 C   0  0  0  0  0  0  0  0  0  0  0  0
   -0.2510   43.1040   51.3180 C   0  0  0  0  0  0  0  0  0  0  0  0
   -1.2400   43.3270   50.3480 O   0  0  0  0  0  0  0  0  0  0  0  0
   -2.2290   44.3510   50.4160 C   0  0  0  0  0  0  0  0  0  0  0  0
   -1.7430   45.3970   51.1770 F   0  0  0  0  0  0  0  0  0  0  0  0
   -2.5160   44.8160   49.1450 F   0  0  0  0  0  0  0  0  0  0  0  0
    1.1040   43.4350   51.1110 C   0  0  0  0  0  0  0  0  0  0  0  0
    5.5960   43.4320   50.5830 C   0  0  0  0  0  0  0  0  0  0  0  0
    6.4550   42.7410   49.7090 C   0  0  0  0  0  0  0  0  0  0  0  0
    7.6450   43.3290   49.2760 C   0  0  0  0  0  0  0  0  0  0  0  0
    7.9920   44.6120   49.7020 C   0  0  0  0  0  0  0  0  0  0  0  0
    7.1450   45.3270   50.5590 C   0  0  0  0  0  0  0  0  0  0  0  0
    7.5360   46.6370   51.0020 N   0  0  0  0  0  0  0  0  0  0  0  0
    8.2780   46.8930   52.2030 C   0  0  0  0  0  0  0  0  0  0  0  0
    7.6260   47.3340   53.3130 N   0  0  0  0  0  0  0  0  0  0  0  0
    8.2910   47.5580   54.4760 C   0  0  0  0  0  0  0  0  0  0  0  0
    9.6640   47.3280   54.5460 C   0  0  0  0  0  0  0  0  0  0  0  0
   10.3180   46.8640   53.4070 C   0  0  0  0  0  0  0  0  0  0  0  0
    9.6170   46.6510   52.2630 N   0  0  0  0  0  0  0  0  0  0  0  0
    5.9600   44.7220   51.0150 C   0  0  0  0  0  0  0  0  0  0  0  0
    3.8450   44.2780   52.5410 H   0  0  0  0  0  0  0  0  0  0  0  0
    2.3814   42.4593   54.1334 H   0  0  0  0  0  0  0  0  0  0  0  0
   -0.0106   41.8627   54.4979 H   0  0  0  0  0  0  0  0  0  0  0  0
   -1.6893   42.2647   52.7033 H   0  0  0  0  0  0  0  0  0  0  0  0
   -3.1439   43.9421   50.8697 H   0  0  0  0  0  0  0  0  0  0  0  0
    1.4153   43.8927   50.1604 H   0  0  0  0  0  0  0  0  0  0  0  0
    6.1874   41.7311   49.3646 H   0  0  0  0  0  0  0  0  0  0  0  0
    8.3120   42.7787   48.5961 H   0  0  0  0  0  0  0  0  0  0  0  0
    8.9357   45.0643   49.3630 H   0  0  0  0  0  0  0  0  0  0  0  0
    7.1910   47.4630   50.4630 H   0  0  0  0  0  0  0  0  0  0  0  0
    7.7471   47.9202   55.3609 H   0  0  0  0  0  0  0  0  0  0  0  0
   10.2181   47.5087   55.4789 H   0  0  0  0  0  0  0  0  0  0  0  0
   11.4005   46.6703   53.4338 H   0  0  0  0  0  0  0  0  0  0  0  0
    5.3095   45.2632   51.7178 H   0  0  0  0  0  0  0  0  0  0  0  0
  1  2  2  0
  2  3  1  0
  3  4  1  0
  4  5  2  0
  5  6  1  0
  6  7  2  0
  7  8  1  0
  8  9  1  0
  9 10  1  0
 10 11  1  0
 10 12  1  0
  8 13  2  0
  2 14  1  0
 14 15  2  0
 15 16  1  0
 16 17  2  0
 17 18  1  0
 18 19  1  0
 19 20  1  0
 20 21  2  0
 21 22  1  0
 22 23  2  0
 23 24  1  0
 24 25  2  0
 18 26  2  0
 13  4  1  0
 26 14  1  0
 25 20  1  0
  3 27  1  0
  5 28  1  0
  6 29  1  0
  7 30  1  0
 10 31  1  0
 13 32  1  0
 15 33  1  0
 16 34  1  0
 17 35  1  0
 19 36  1  0
 22 37  1  0
 23 38  1  0
 24 39  1  0
 26 40  1  0
M  END
>  <meeko>  (4) 
{"is_sidechain": [false], "free_energy": -8.439, "intermolecular_energy": -11.281, "internal_energy": -0.893}

$$$$
ligand_17_conformer_2_docked
     RDKit          3D

 40 42  0  0  0  0  0  0  0  0999 V2000
    2.0520   44.8090   51.3460 O   0  0  0  0  0  0  0  0  0  0  0  0
    2.8640   44.0170   51.8970 C   0  0  0  0  0  0  0  0  0  0  0  0
    2.4860   43.3410   53.1090 N   0  0  0  0  0  0  0  0  0  0  0  0
    1.4560   43.8110   53.9960 C   0  0  0  0  0  0  0  0  0  0  0  0
    1.7820   44.7330   55.0010 C   0  0  0  0  0  0  0  0  0  0  0  0
    0.7950   45.2170   55.8620 C   0  0  0  0  0  0  0  0  0  0  0  0
   -0.5280   44.7960   55.7200 C   0  0  0  0  0  0  0  0  0  0  0  0
   -0.8820   43.8950   54.7100 C   0  0  0  0  0  0  0  0  0  0  0  0
   -2.2290   43.5150   54.6020 O   0  0  0  0  0  0  0  0  0  0  0  0
   -3.1560   44.0640   53.6690 C   0  0  0  0  0  0  0  0  0  0  0  0
   -2.5380   45.0790   52.9640 F   0  0  0  0  0  0  0  0  0  0  0  0
   -3.5670   43.0870   52.7810 F   0  0  0  0  0  0  0  0  0  0  0  0
    0.1160   43.4070   53.8420 C   0  0  0  0  0  0  0  0  0  0  0  0
    4.1780   43.7550   51.2600 C   0  0  0  0  0  0  0  0  0  0  0  0
    4.5410   42.4560   50.8630 C   0  0  0  0  0  0  0  0  0  0  0  0
    5.7900   42.2160   50.2870 C   0  0  0  0  0  0  0  0  0  0  0  0
    6.6890   43.2660   50.0940 C   0  0  0  0  0  0  0  0  0  0  0  0
    6.3440   44.5710   50.4670 C   0  0  0  0  0  0  0  0  0  0  0  0
    7.2970   45.6320   50.2810 N   0  0  0  0  0  0  0  0  0  0  0  0
    8.1120   46.1760   51.3300 C   0  0  0  0  0  0  0  0  0  0  0  0
    9.4160   45.7970   51.4300 N   0  0  0  0  0  0  0  0  0  0  0  0
   10.2240   46.3140   52.3910 C   0  0  0  0  0  0  0  0  0  0  0  0
    9.7230   47.2540   53.2900 C   0  0  0  0  0  0  0  0  0  0  0  0
    8.3900   47.6440   53.1680 C   0  0  0  0  0  0  0  0  0  0  0  0
    7.6140   47.1040   52.1920 N   0  0  0  0  0  0  0  0  0  0  0  0
    5.0960   44.8060   51.0720 C   0  0  0  0  0  0  0  0  0  0  0  0
    2.8980   42.3990   53.2950 H   0  0  0  0  0  0  0  0  0  0  0  0
    2.8210   45.0769   55.1117 H   0  0  0  0  0  0  0  0  0  0  0  0
    1.0610   45.9321   56.6544 H   0  0  0  0  0  0  0  0  0  0  0  0
   -1.2983   45.1755   56.4075 H   0  0  0  0  0  0  0  0  0  0  0  0
   -4.0295   44.4538   54.2122 H   0  0  0  0  0  0  0  0  0  0  0  0
   -0.1541   42.7057   53.0388 H   0  0  0  0  0  0  0  0  0  0  0  0
    3.8365   41.6236   51.0071 H   0  0  0  0  0  0  0  0  0  0  0  0
    6.0666   41.1953   49.9841 H   0  0  0  0  0  0  0  0  0  0  0  0
    7.6740   43.0674   49.6464 H   0  0  0  0  0  0  0  0  0  0  0  0
    7.3440   46.0940   49.3450 H   0  0  0  0  0  0  0  0  0  0  0  0
   11.2733   45.9912   52.4600 H   0  0  0  0  0  0  0  0  0  0  0  0
   10.3640   47.6780   54.0770 H   0  0  0  0  0  0  0  0  0  0  0  0
    7.9675   48.3871   53.8603 H   0  0  0  0  0  0  0  0  0  0  0  0
    4.8343   45.8222   51.4019 H   0  0  0  0  0  0  0  0  0  0  0  0
  1  2  2  0
  2  3  1  0
  3  4  1  0
  4  5  2  0
  5  6  1  0
  6  7  2  0
  7  8  1  0
  8  9  1  0
  9 10  1  0
 10 11  1  0
 10 12  1  0
  8 13  2  0
  2 14  1  0
 14 15  2  0
 15 16  1  0
 16 17  2  0
 17 18  1  0
 18 19  1  0
 19 20  1  0
 20 21  2  0
 21 22  1  0
 22 23  2  0
 23 24  1  0
 24 25  2  0
 18 26  2  0
 13  4  1  0
 26 14  1  0
 25 20  1  0
  3 27  1  0
  5 28  1  0
  6 29  1  0
  7 30  1  0
 10 31  1  0
 13 32  1  0
 15 33  1  0
 16 34  1  0
 17 35  1  0
 19 36  1  0
 22 37  1  0
 23 38  1  0
 24 39  1  0
 26 40  1  0
M  END
>  <meeko>  (5) 
{"is_sidechain": [false], "free_energy": -8.388, "intermolecular_energy": -11.248, "internal_energy": -0.856}

$$$$
