ligand_71_conformer_1_docked
     RDKit          3D

 39 41  0  0  0  0  0  0  0  0999 V2000
    7.8060   45.9400   50.7650 C   0  0  0  0  0  0  0  0  0  0  0  0
    8.3460   46.4290   52.0840 C   0  0  0  0  0  0  0  0  0  0  0  0
    9.7380   46.4340   52.2800 C   0  0  0  0  0  0  0  0  0  0  0  0
   10.2840   46.8370   53.5010 C   0  0  0  0  0  0  0  0  0  0  0  0
    9.4480   47.2410   54.5400 C   0  0  0  0  0  0  0  0  0  0  0  0
    8.0640   47.2620   54.3580 C   0  0  0  0  0  0  0  0  0  0  0  0
    7.4970   46.8820   53.1290 C   0  0  0  0  0  0  0  0  0  0  0  0
    6.0270   46.9570   52.9800 C   0  0  0  0  0  0  0  0  0  0  0  0
    5.4600   48.0820   53.0500 O   0  0  0  0  0  0  0  0  0  0  0  0
    5.2620   45.7760   52.6960 N   0  0  0  0  0  0  0  0  0  0  0  0
    3.8330   45.7220   52.7750 C   0  0  0  0  0  0  0  0  0  0  0  0
    3.1470   45.4250   53.9000 N   0  0  0  0  0  0  0  0  0  0  0  0
    1.8000   45.4300   53.6950 C   0  0  0  0  0  0  0  0  0  0  0  0
    0.8400   45.1320   54.7900 C   0  0  0  0  0  0  0  0  0  0  0  0
    1.0370   45.6920   56.0680 C   0  0  0  0  0  0  0  0  0  0  0  0
    0.1380   45.4370   57.1040 C   0  0  0  0  0  0  0  0  0  0  0  0
   -0.9710   44.6240   56.8820 C   0  0  0  0  0  0  0  0  0  0  0  0
   -1.1850   44.0600   55.6240 C   0  0  0  0  0  0  0  0  0  0  0  0
   -0.2870   44.3040   54.5660 C   0  0  0  0  0  0  0  0  0  0  0  0
   -0.4730   43.7270   53.2980 O   0  0  0  0  0  0  0  0  0  0  0  0
   -0.1000   42.3990   52.9370 C   0  0  0  0  0  0  0  0  0  0  0  0
    0.8760   41.9530   53.8060 F   0  0  0  0  0  0  0  0  0  0  0  0
    0.4030   42.3830   51.6490 F   0  0  0  0  0  0  0  0  0  0  0  0
    1.4170   45.7290   52.3830 C   0  0  0  0  0  0  0  0  0  0  0  0
    2.8090   45.9930   51.4740 S   0  0  0  0  0  0  0  0  0  0  0  0
    7.0017   45.2116   50.9454 H   0  0  0  0  0  0  0  0  0  0  0  0
    7.4082   46.7914   50.1933 H   0  0  0  0  0  0  0  0  0  0  0  0
    8.6139   45.4599   50.1933 H   0  0  0  0  0  0  0  0  0  0  0  0
   10.4040   46.1174   51.4637 H   0  0  0  0  0  0  0  0  0  0  0  0
   11.3749   46.8354   53.6424 H   0  0  0  0  0  0  0  0  0  0  0  0
    9.8794   47.5440   55.5055 H   0  0  0  0  0  0  0  0  0  0  0  0
    7.4108   47.5790   55.1843 H   0  0  0  0  0  0  0  0  0  0  0  0
    5.7660   44.9130   52.3940 H   0  0  0  0  0  0  0  0  0  0  0  0
    1.9090   46.3372   56.2508 H   0  0  0  0  0  0  0  0  0  0  0  0
    0.3052   45.8786   58.0975 H   0  0  0  0  0  0  0  0  0  0  0  0
   -1.6794   44.4263   57.7000 H   0  0  0  0  0  0  0  0  0  0  0  0
   -2.0630   43.4188   55.4565 H   0  0  0  0  0  0  0  0  0  0  0  0
   -0.9841   41.7467   52.9904 H   0  0  0  0  0  0  0  0  0  0  0  0
    0.3837   45.7824   52.0096 H   0  0  0  0  0  0  0  0  0  0  0  0
  1  2  1  0
  2  3  2  0
  3  4  1  0
  4  5  2  0
  5  6  1  0
  6  7  2  0
  7  8  1  0
  8  9  2  0
  8 10  1  0
 10 11  1  0
 11 12  2  0
 12 13  1  0
 13 14  1  0
 14 15  2  0
 15 16  1  0
 16 17  2  0
 17 18  1  0
 18 19  2  0
 19 20  1  0
 20 21  1  0
 21 22  1  0
 21 23  1  0
 13 24  2  0
 24 25  1  0
  7  2  1  0
 25 11  1  0
 19 14  1  0
  1 26  1  0
  1 27  1  0
  1 28  1  0
  3 29  1  0
  4 30  1  0
  5 31  1  0
  6 32  1  0
 10 33  1  0
 15 34  1  0
 16 35  1  0
 17 36  1  0
 18 37  1  0
 21 38  1  0
 24 39  1  0
M  END
>  <meeko>  (1) 
{"is_sidechain": [false], "free_energy": -8.729, "intermolecular_energy": -11.281, "internal_energy": -0.276}

$$$$
ligand_71_conformer_1_docked
     RDKit          3D

 39 41  0  0  0  0  0  0  0  0999 V2000
    6.2810   46.7650   54.6140 C   0  0  0  0  0  0  0  0  0  0  0  0
    7.5120   46.7030   53.7460 C   0  0  0  0  0  0  0  0  0  0  0  0
    8.7190   47.2140   54.2540 C   0  0  0  0  0  0  0  0  0  0  0  0
    9.8750   47.2200   53.4700 C   0  0  0  0  0  0  0  0  0  0  0  0
    9.8420   46.7130   52.1720 C   0  0  0  0  0  0  0  0  0  0  0  0
    8.6570   46.1820   51.6570 C   0  0  0  0  0  0  0  0  0  0  0  0
    7.4890   46.1480   52.4390 C   0  0  0  0  0  0  0  0  0  0  0  0
    6.2720   45.5420   51.8560 C   0  0  0  0  0  0  0  0  0  0  0  0
    5.7380   46.0840   50.8490 O   0  0  0  0  0  0  0  0  0  0  0  0
    5.7390   44.3200   52.3880 N   0  0  0  0  0  0  0  0  0  0  0  0
    4.4480   43.8030   52.0430 C   0  0  0  0  0  0  0  0  0  0  0  0
    3.2810   44.3650   52.4260 N   0  0  0  0  0  0  0  0  0  0  0  0
    2.2030   43.6660   51.9730 C   0  0  0  0  0  0  0  0  0  0  0  0
    0.8110   44.0950   52.2680 C   0  0  0  0  0  0  0  0  0  0  0  0
   -0.0860   44.3440   51.2100 C   0  0  0  0  0  0  0  0  0  0  0  0
   -1.4020   44.7320   51.4660 C   0  0  0  0  0  0  0  0  0  0  0  0
   -1.8440   44.8750   52.7800 C   0  0  0  0  0  0  0  0  0  0  0  0
   -0.9730   44.6330   53.8420 C   0  0  0  0  0  0  0  0  0  0  0  0
    0.3610   44.2430   53.6030 C   0  0  0  0  0  0  0  0  0  0  0  0
    1.2600   44.0160   54.6590 O   0  0  0  0  0  0  0  0  0  0  0  0
    1.7240   45.0090   55.5690 C   0  0  0  0  0  0  0  0  0  0  0  0
    3.1030   44.9620   55.6240 F   0  0  0  0  0  0  0  0  0  0  0  0
    1.2160   44.7660   56.8330 F   0  0  0  0  0  0  0  0  0  0  0  0
    2.5260   42.5280   51.2260 C   0  0  0  0  0  0  0  0  0  0  0  0
    4.2020   42.4120   51.1390 S   0  0  0  0  0  0  0  0  0  0  0  0
    6.5780   46.7500   55.6730 H   0  0  0  0  0  0  0  0  0  0  0  0
    5.7286   47.6921   54.4012 H   0  0  0  0  0  0  0  0  0  0  0  0
    5.6382   45.8981   54.4012 H   0  0  0  0  0  0  0  0  0  0  0  0
    8.7535   47.6129   55.2786 H   0  0  0  0  0  0  0  0  0  0  0  0
   10.8128   47.6254   53.8775 H   0  0  0  0  0  0  0  0  0  0  0  0
   10.7506   46.7311   51.5522 H   0  0  0  0  0  0  0  0  0  0  0  0
    8.6375   45.7870   50.6306 H   0  0  0  0  0  0  0  0  0  0  0  0
    6.3270   43.7600   53.0450 H   0  0  0  0  0  0  0  0  0  0  0  0
    0.2550   44.2313   50.1703 H   0  0  0  0  0  0  0  0  0  0  0  0
   -2.0907   44.9250   50.6303 H   0  0  0  0  0  0  0  0  0  0  0  0
   -2.8820   45.1794   52.9799 H   0  0  0  0  0  0  0  0  0  0  0  0
   -1.3300   44.7474   54.8761 H   0  0  0  0  0  0  0  0  0  0  0  0
    1.3900   45.9992   55.2255 H   0  0  0  0  0  0  0  0  0  0  0  0
    1.8073   41.8290   50.7732 H   0  0  0  0  0  0  0  0  0  0  0  0
  1  2  1  0
  2  3  2  0
  3  4  1  0
  4  5  2  0
  5  6  1  0
  6  7  2  0
  7  8  1  0
  8  9  2  0
  8 10  1  0
 10 11  1  0
 11 12  2  0
 12 13  1  0
 13 14  1  0
 14 15  2  0
 15 16  1  0
 16 17  2  0
 17 18  1  0
 18 19  2  0
 19 20  1  0
 20 21  1  0
 21 22  1  0
 21 23  1  0
 13 24  2  0
 24 25  1  0
  7  2  1  0
 25 11  1  0
 19 14  1  0
  1 26  1  0
  1 27  1  0
  1 28  1  0
  3 29  1  0
  4 30  1  0
  5 31  1  0
  6 32  1  0
 10 33  1  0
 15 34  1  0
 16 35  1  0
 17 36  1  0
 18 37  1  0
 21 38  1  0
 24 39  1  0
M  END
>  <meeko>  (2) 
{"is_sidechain": [false], "free_energy": -8.724, "intermolecular_energy": -10.852, "internal_energy": -0.698}

$$$$
ligand_71_conformer_1_docked
     RDKit          3D

 39 41  0  0  0  0  0  0  0  0999 V2000
   -1.0900   44.3790   53.2180 C   0  0  0  0  0  0  0  0  0  0  0  0
   -0.6050   44.6560   54.6180 C   0  0  0  0  0  0  0  0  0  0  0  0
   -1.5450   44.6800   55.6620 C   0  0  0  0  0  0  0  0  0  0  0  0
   -1.1500   44.9760   56.9690 C   0  0  0  0  0  0  0  0  0  0  0  0
    0.1880   45.2490   57.2500 C   0  0  0  0  0  0  0  0  0  0  0  0
    1.1390   45.2110   56.2290 C   0  0  0  0  0  0  0  0  0  0  0  0
    0.7650   44.8930   54.9110 C   0  0  0  0  0  0  0  0  0  0  0  0
    1.8190   44.8310   53.8760 C   0  0  0  0  0  0  0  0  0  0  0  0
    2.1780   43.7070   53.4310 O   0  0  0  0  0  0  0  0  0  0  0  0
    2.3840   46.0370   53.3390 N   0  0  0  0  0  0  0  0  0  0  0  0
    3.5610   46.0640   52.5220 C   0  0  0  0  0  0  0  0  0  0  0  0
    4.8090   46.2630   52.9980 N   0  0  0  0  0  0  0  0  0  0  0  0
    5.7430   46.2530   52.0070 C   0  0  0  0  0  0  0  0  0  0  0  0
    7.1890   46.4510   52.2900 C   0  0  0  0  0  0  0  0  0  0  0  0
    7.5920   47.0320   53.5090 C   0  0  0  0  0  0  0  0  0  0  0  0
    8.9450   47.2120   53.7990 C   0  0  0  0  0  0  0  0  0  0  0  0
    9.9150   46.8130   52.8820 C   0  0  0  0  0  0  0  0  0  0  0  0
    9.5380   46.2350   51.6700 C   0  0  0  0  0  0  0  0  0  0  0  0
    8.1760   46.0480   51.3580 C   0  0  0  0  0  0  0  0  0  0  0  0
    7.7740   45.4880   50.1320 O   0  0  0  0  0  0  0  0  0  0  0  0
    8.0720   44.1640   49.6980 C   0  0  0  0  0  0  0  0  0  0  0  0
    8.7670   44.2270   48.5060 F   0  0  0  0  0  0  0  0  0  0  0  0
    6.9000   43.4570   49.4990 F   0  0  0  0  0  0  0  0  0  0  0  0
    5.2210   46.0510   50.7250 C   0  0  0  0  0  0  0  0  0  0  0  0
    3.5530   45.8780   50.8550 S   0  0  0  0  0  0  0  0  0  0  0  0
   -2.0444   43.8339   53.2617 H   0  0  0  0  0  0  0  0  0  0  0  0
   -1.2352   45.3304   52.6853 H   0  0  0  0  0  0  0  0  0  0  0  0
   -0.3443   43.7706   52.6853 H   0  0  0  0  0  0  0  0  0  0  0  0
   -2.6021   44.4637   55.4482 H   0  0  0  0  0  0  0  0  0  0  0  0
   -1.8957   44.9937   57.7775 H   0  0  0  0  0  0  0  0  0  0  0  0
    0.4946   45.4946   58.2775 H   0  0  0  0  0  0  0  0  0  0  0  0
    2.1920   45.4321   56.4576 H   0  0  0  0  0  0  0  0  0  0  0  0
    1.9050   46.9450   53.5310 H   0  0  0  0  0  0  0  0  0  0  0  0
    6.8322   47.3469   54.2394 H   0  0  0  0  0  0  0  0  0  0  0  0
    9.2461   47.6696   54.7529 H   0  0  0  0  0  0  0  0  0  0  0  0
   10.9808   46.9542   53.1145 H   0  0  0  0  0  0  0  0  0  0  0  0
   10.3100   45.9224   50.9514 H   0  0  0  0  0  0  0  0  0  0  0  0
    8.6763   43.6576   50.4650 H   0  0  0  0  0  0  0  0  0  0  0  0
    5.8019   46.0120   49.7917 H   0  0  0  0  0  0  0  0  0  0  0  0
  1  2  1  0
  2  3  2  0
  3  4  1  0
  4  5  2  0
  5  6  1  0
  6  7  2  0
  7  8  1  0
  8  9  2  0
  8 10  1  0
 10 11  1  0
 11 12  2  0
 12 13  1  0
 13 14  1  0
 14 15  2  0
 15 16  1  0
 16 17  2  0
 17 18  1  0
 18 19  2  0
 19 20  1  0
 20 21  1  0
 21 22  1  0
 21 23  1  0
 13 24  2  0
 24 25  1  0
  7  2  1  0
 25 11  1  0
 19 14  1  0
  1 26  1  0
  1 27  1  0
  1 28  1  0
  3 29  1  0
  4 30  1  0
  5 31  1  0
  6 32  1  0
 10 33  1  0
 15 34  1  0
 16 35  1  0
 17 36  1  0
 18 37  1  0
 21 38  1  0
 24 39  1  0
M  END
>  <meeko>  (3) 
{"is_sidechain": [false], "free_energy": -8.499, "intermolecular_energy": -11.264, "internal_energy": 0.004}

$$$$
ligand_71_conformer_1_docked
     RDKit          3D

 39 41  0  0  0  0  0  0  0  0999 V2000
    5.0390   41.9140   50.3710 C   0  0  0  0  0  0  0  0  0  0  0  0
    6.0340   43.0310   50.1830 C   0  0  0  0  0  0  0  0  0  0  0  0
    7.1330   42.8150   49.3330 C   0  0  0  0  0  0  0  0  0  0  0  0
    8.1050   43.8020   49.1620 C   0  0  0  0  0  0  0  0  0  0  0  0
    7.9920   45.0190   49.8330 C   0  0  0  0  0  0  0  0  0  0  0  0
    6.8970   45.2590   50.6660 C   0  0  0  0  0  0  0  0  0  0  0  0
    5.8970   44.2860   50.8330 C   0  0  0  0  0  0  0  0  0  0  0  0
    4.7410   44.6070   51.6990 C   0  0  0  0  0  0  0  0  0  0  0  0
    3.6830   45.0470   51.1720 O   0  0  0  0  0  0  0  0  0  0  0  0
    4.8000   44.3640   53.1130 N   0  0  0  0  0  0  0  0  0  0  0  0
    3.8300   44.8630   54.0420 C   0  0  0  0  0  0  0  0  0  0  0  0
    2.5660   44.3990   54.1390 N   0  0  0  0  0  0  0  0  0  0  0  0
    1.8510   45.0560   55.0940 C   0  0  0  0  0  0  0  0  0  0  0  0
    0.4320   44.7180   55.3830 C   0  0  0  0  0  0  0  0  0  0  0  0
   -0.0890   44.9230   56.6760 C   0  0  0  0  0  0  0  0  0  0  0  0
   -1.4220   44.6260   56.9620 C   0  0  0  0  0  0  0  0  0  0  0  0
   -2.2550   44.1230   55.9650 C   0  0  0  0  0  0  0  0  0  0  0  0
   -1.7600   43.9130   54.6780 C   0  0  0  0  0  0  0  0  0  0  0  0
   -0.4150   44.2040   54.3710 C   0  0  0  0  0  0  0  0  0  0  0  0
    0.1090   43.9780   53.0860 O   0  0  0  0  0  0  0  0  0  0  0  0
   -0.0340   44.8580   51.9740 C   0  0  0  0  0  0  0  0  0  0  0  0
    0.5080   44.2600   50.8540 F   0  0  0  0  0  0  0  0  0  0  0  0
    0.6350   46.0430   52.2200 F   0  0  0  0  0  0  0  0  0  0  0  0
    2.5620   46.0620   55.7570 C   0  0  0  0  0  0  0  0  0  0  0  0
    4.1200   46.1130   55.1230 S   0  0  0  0  0  0  0  0  0  0  0  0
    4.8830   41.7389   51.4457 H   0  0  0  0  0  0  0  0  0  0  0  0
    4.0834   42.1915   49.9022 H   0  0  0  0  0  0  0  0  0  0  0  0
    5.4247   40.9967   49.9022 H   0  0  0  0  0  0  0  0  0  0  0  0
    7.2277   41.8588   48.7975 H   0  0  0  0  0  0  0  0  0  0  0  0
    8.9617   43.6194   48.4967 H   0  0  0  0  0  0  0  0  0  0  0  0
    8.7657   45.7905   49.7062 H   0  0  0  0  0  0  0  0  0  0  0  0
    6.8166   46.2192   51.1966 H   0  0  0  0  0  0  0  0  0  0  0  0
    5.5750   43.7730   53.4890 H   0  0  0  0  0  0  0  0  0  0  0  0
    0.5619   45.3213   57.4682 H   0  0  0  0  0  0  0  0  0  0  0  0
   -1.8157   44.7892   57.9761 H   0  0  0  0  0  0  0  0  0  0  0  0
   -3.3057   43.8909   56.1933 H   0  0  0  0  0  0  0  0  0  0  0  0
   -2.4245   43.5170   53.8960 H   0  0  0  0  0  0  0  0  0  0  0  0
   -1.1015   45.0697   51.8136 H   0  0  0  0  0  0  0  0  0  0  0  0
    2.1699   46.7087   56.5557 H   0  0  0  0  0  0  0  0  0  0  0  0
  1  2  1  0
  2  3  2  0
  3  4  1  0
  4  5  2  0
  5  6  1  0
  6  7  2  0
  7  8  1  0
  8  9  2  0
  8 10  1  0
 10 11  1  0
 11 12  2  0
 12 13  1  0
 13 14  1  0
 14 15  2  0
 15 16  1  0
 16 17  2  0
 17 18  1  0
 18 19  2  0
 19 20  1  0
 20 21  1  0
 21 22  1  0
 21 23  1  0
 13 24  2  0
 24 25  1  0
  7  2  1  0
 25 11  1  0
 19 14  1  0
  1 26  1  0
  1 27  1  0
  1 28  1  0
  3 29  1  0
  4 30  1  0
  5 31  1  0
  6 32  1  0
 10 33  1  0
 15 34  1  0
 16 35  1  0
 17 36  1  0
 18 37  1  0
 21 38  1  0
 24 39  1  0
M  END
>  <meeko>  (4) 
{"is_sidechain": [false], "free_energy": -8.11, "intermolecular_energy": -10.381, "internal_energy": -0.375}

$$$$
ligand_71_conformer_1_docked
     RDKit          3D

 39 41  0  0  0  0  0  0  0  0999 V2000
    7.2320   45.6970   50.7500 C   0  0  0  0  0  0  0  0  0  0  0  0
    8.0580   46.2280   51.8930 C   0  0  0  0  0  0  0  0  0  0  0  0
    9.4530   46.3060   51.7340 C   0  0  0  0  0  0  0  0  0  0  0  0
   10.2640   46.7490   52.7800 C   0  0  0  0  0  0  0  0  0  0  0  0
    9.6960   47.1230   53.9970 C   0  0  0  0  0  0  0  0  0  0  0  0
    8.3110   47.0710   54.1670 C   0  0  0  0  0  0  0  0  0  0  0  0
    7.4750   46.6490   53.1180 C   0  0  0  0  0  0  0  0  0  0  0  0
    6.0130   46.6480   53.3420 C   0  0  0  0  0  0  0  0  0  0  0  0
    5.4030   47.7490   53.4230 O   0  0  0  0  0  0  0  0  0  0  0  0
    5.2860   45.4110   53.4030 N   0  0  0  0  0  0  0  0  0  0  0  0
    3.9280   45.3130   53.8500 C   0  0  0  0  0  0  0  0  0  0  0  0
    2.8980   44.9380   53.0630 N   0  0  0  0  0  0  0  0  0  0  0  0
    1.7120   44.9410   53.7340 C   0  0  0  0  0  0  0  0  0  0  0  0
    0.4360   44.5620   53.0730 C   0  0  0  0  0  0  0  0  0  0  0  0
    0.3100   44.6740   51.6740 C   0  0  0  0  0  0  0  0  0  0  0  0
   -0.8750   44.3080   51.0340 C   0  0  0  0  0  0  0  0  0  0  0  0
   -1.9500   43.8240   51.7770 C   0  0  0  0  0  0  0  0  0  0  0  0
   -1.8450   43.7050   53.1630 C   0  0  0  0  0  0  0  0  0  0  0  0
   -0.6580   44.0710   53.8280 C   0  0  0  0  0  0  0  0  0  0  0  0
   -0.5410   43.9800   55.2260 O   0  0  0  0  0  0  0  0  0  0  0  0
   -1.5830   44.2600   56.1560 C   0  0  0  0  0  0  0  0  0  0  0  0
   -1.0570   44.9600   57.2240 F   0  0  0  0  0  0  0  0  0  0  0  0
   -2.1330   43.0790   56.6210 F   0  0  0  0  0  0  0  0  0  0  0  0
    1.8090   45.3330   55.0740 C   0  0  0  0  0  0  0  0  0  0  0  0
    3.4220   45.6760   55.4080 S   0  0  0  0  0  0  0  0  0  0  0  0
    6.3693   45.1424   51.1477 H   0  0  0  0  0  0  0  0  0  0  0  0
    6.8762   46.5360   50.1340 H   0  0  0  0  0  0  0  0  0  0  0  0
    7.8475   45.0250   50.1340 H   0  0  0  0  0  0  0  0  0  0  0  0
    9.9093   46.0152   50.7763 H   0  0  0  0  0  0  0  0  0  0  0  0
   11.3542   46.8032   52.6438 H   0  0  0  0  0  0  0  0  0  0  0  0
   10.3391   47.4592   54.8237 H   0  0  0  0  0  0  0  0  0  0  0  0
    7.8695   47.3631   55.1312 H   0  0  0  0  0  0  0  0  0  0  0  0
    5.7580   44.5360   53.0860 H   0  0  0  0  0  0  0  0  0  0  0  0
    1.1544   45.0539   51.0801 H   0  0  0  0  0  0  0  0  0  0  0  0
   -0.9606   44.4017   49.9413 H   0  0  0  0  0  0  0  0  0  0  0  0
   -2.8826   43.5354   51.2700 H   0  0  0  0  0  0  0  0  0  0  0  0
   -2.6976   43.3215   53.7426 H   0  0  0  0  0  0  0  0  0  0  0  0
   -2.3635   44.8535   55.6574 H   0  0  0  0  0  0  0  0  0  0  0  0
    0.9740   45.4046   55.7865 H   0  0  0  0  0  0  0  0  0  0  0  0
  1  2  1  0
  2  3  2  0
  3  4  1  0
  4  5  2  0
  5  6  1  0
  6  7  2  0
  7  8  1  0
  8  9  2  0
  8 10  1  0
 10 11  1  0
 11 12  2  0
 12 13  1  0
 13 14  1  0
 14 15  2  0
 15 16  1  0
 16 17  2  0
 17 18  1  0
 18 19  2  0
 19 20  1  0
 20 21  1  0
 21 22  1  0
 21 23  1  0
 13 24  2  0
 24 25  1  0
  7  2  1  0
 25 11  1  0
 19 14  1  0
  1 26  1  0
  1 27  1  0
  1 28  1  0
  3 29  1  0
  4 30  1  0
  5 31  1  0
  6 32  1  0
 10 33  1  0
 15 34  1  0
 16 35  1  0
 17 36  1  0
 18 37  1  0
 21 38  1  0
 24 39  1  0
M  END
>  <meeko>  (5) 
{"is_sidechain": [false], "free_energy": -8.011, "intermolecular_energy": -10.688, "internal_energy": 0.059}

$$$$
