ligand_7_conformer_4_docked
     RDKit          3D

 46 48  0  0  0  0  0  0  0  0999 V2000
    0.8020   44.2970   51.2280 O   0  0  0  0  0  0  0  0  0  0  0  0
    1.7090   44.3670   52.1020 C   0  0  0  0  0  0  0  0  0  0  0  0
    1.4020   44.0660   53.4710 N   0  0  0  0  0  0  0  0  0  0  0  0
    0.0680   43.6170   53.8710 C   0  0  0  0  0  0  0  0  0  0  0  0
   -0.6850   44.7080   54.6620 C   0  0  0  0  0  0  0  0  0  0  0  0
    0.1920   45.2290   55.8190 C   0  0  0  0  0  0  0  0  0  0  0  0
   -0.6900   45.8390   56.9200 C   0  0  0  0  0  0  0  0  0  0  0  0
   -1.6080   44.9260   57.5130 O   0  0  0  0  0  0  0  0  0  0  0  0
   -1.9740   43.8360   56.6760 C   0  0  0  0  0  0  0  0  0  0  0  0
   -2.0530   44.2040   55.1850 C   0  0  0  0  0  0  0  0  0  0  0  0
    3.0900   44.7370   51.7070 C   0  0  0  0  0  0  0  0  0  0  0  0
    3.4400   46.0930   51.6470 C   0  0  0  0  0  0  0  0  0  0  0  0
    4.7010   46.4630   51.3150 N   0  0  0  0  0  0  0  0  0  0  0  0
    5.6510   45.5380   51.0200 C   0  0  0  0  0  0  0  0  0  0  0  0
    6.9930   45.9370   50.7020 N   0  0  0  0  0  0  0  0  0  0  0  0
    7.9700   46.3380   51.6770 C   0  0  0  0  0  0  0  0  0  0  0  0
    7.6150   47.1150   52.7960 C   0  0  0  0  0  0  0  0  0  0  0  0
    8.5910   47.5120   53.7160 C   0  0  0  0  0  0  0  0  0  0  0  0
    9.9260   47.1540   53.5210 C   0  0  0  0  0  0  0  0  0  0  0  0
   10.2910   46.4030   52.4000 C   0  0  0  0  0  0  0  0  0  0  0  0
    9.3190   46.0040   51.4770 C   0  0  0  0  0  0  0  0  0  0  0  0
    5.3410   44.2190   51.0760 N   0  0  0  0  0  0  0  0  0  0  0  0
    4.0920   43.7830   51.3970 C   0  0  0  0  0  0  0  0  0  0  0  0
    3.8390   42.2970   51.4050 C   0  0  0  0  0  0  0  0  0  0  0  0
    2.7830   41.9810   50.5680 F   0  0  0  0  0  0  0  0  0  0  0  0
    3.5550   41.8770   52.6920 F   0  0  0  0  0  0  0  0  0  0  0  0
    4.9600   41.6170   50.9610 F   0  0  0  0  0  0  0  0  0  0  0  0
    2.1460   44.1930   54.1940 H   0  0  0  0  0  0  0  0  0  0  0  0
   -0.5099   43.3669   52.9691 H   0  0  0  0  0  0  0  0  0  0  0  0
    0.1816   42.7370   54.5212 H   0  0  0  0  0  0  0  0  0  0  0  0
   -0.8924   45.5398   53.9728 H   0  0  0  0  0  0  0  0  0  0  0  0
    0.7726   44.3945   56.2392 H   0  0  0  0  0  0  0  0  0  0  0  0
    0.8721   46.0030   55.4337 H   0  0  0  0  0  0  0  0  0  0  0  0
   -0.0323   46.2280   57.7113 H   0  0  0  0  0  0  0  0  0  0  0  0
   -1.2938   46.6230   56.4395 H   0  0  0  0  0  0  0  0  0  0  0  0
   -1.2270   43.0378   56.7980 H   0  0  0  0  0  0  0  0  0  0  0  0
   -2.9810   43.5173   56.9833 H   0  0  0  0  0  0  0  0  0  0  0  0
   -2.3517   43.3146   54.6107 H   0  0  0  0  0  0  0  0  0  0  0  0
   -2.7922   45.0094   55.0625 H   0  0  0  0  0  0  0  0  0  0  0  0
    2.6861   46.8621   51.8709 H   0  0  0  0  0  0  0  0  0  0  0  0
    7.2970   45.8540   49.7050 H   0  0  0  0  0  0  0  0  0  0  0  0
    6.5664   47.4109   52.9474 H   0  0  0  0  0  0  0  0  0  0  0  0
    8.3057   48.1079   54.5955 H   0  0  0  0  0  0  0  0  0  0  0  0
   10.6905   47.4627   54.2492 H   0  0  0  0  0  0  0  0  0  0  0  0
   11.3439   46.1255   52.2436 H   0  0  0  0  0  0  0  0  0  0  0  0
    9.6131   45.4251   50.5891 H   0  0  0  0  0  0  0  0  0  0  0  0
  1  2  2  0
  2  3  1  0
  3  4  1  0
  4  5  1  0
  5  6  1  0
  6  7  1  0
  7  8  1  0
  8  9  1  0
  9 10  1  0
  2 11  1  0
 11 12  2  0
 12 13  1  0
 13 14  2  0
 14 15  1  0
 15 16  1  0
 16 17  2  0
 17 18  1  0
 18 19  2  0
 19 20  1  0
 20 21  2  0
 14 22  1  0
 22 23  2  0
 23 24  1  0
 24 25  1  0
 24 26  1  0
 24 27  1  0
 10  5  1  0
 23 11  1  0
 21 16  1  0
  3 28  1  0
  4 29  1  0
  4 30  1  0
  5 31  1  0
  6 32  1  0
  6 33  1  0
  7 34  1  0
  7 35  1  0
  9 36  1  0
  9 37  1  0
 10 38  1  0
 10 39  1  0
 12 40  1  0
 15 41  1  0
 17 42  1  0
 18 43  1  0
 19 44  1  0
 20 45  1  0
 21 46  1  0
M  END
>  <meeko>  (1) 
{"is_sidechain": [false], "free_energy": -8.738, "intermolecular_energy": -11.804, "internal_energy": -0.626}

$$$$
ligand_7_conformer_4_docked
     RDKit          3D

 46 48  0  0  0  0  0  0  0  0999 V2000
    1.7650   42.6510   50.7110 O   0  0  0  0  0  0  0  0  0  0  0  0
    2.4700   43.1240   51.6430 C   0  0  0  0  0  0  0  0  0  0  0  0
    2.0640   42.9360   53.0080 N   0  0  0  0  0  0  0  0  0  0  0  0
    0.8770   42.1490   53.3470 C   0  0  0  0  0  0  0  0  0  0  0  0
   -0.3590   43.0480   53.5570 C   0  0  0  0  0  0  0  0  0  0  0  0
   -1.3700   42.8430   52.4100 C   0  0  0  0  0  0  0  0  0  0  0  0
   -2.2740   44.0780   52.2710 C   0  0  0  0  0  0  0  0  0  0  0  0
   -1.5810   45.2830   51.9620 O   0  0  0  0  0  0  0  0  0  0  0  0
   -0.2220   45.3020   52.3820 C   0  0  0  0  0  0  0  0  0  0  0  0
    0.0290   44.5410   53.6940 C   0  0  0  0  0  0  0  0  0  0  0  0
    3.7230   43.8520   51.3280 C   0  0  0  0  0  0  0  0  0  0  0  0
    3.7770   45.2360   51.5400 C   0  0  0  0  0  0  0  0  0  0  0  0
    4.9150   45.9270   51.2860 N   0  0  0  0  0  0  0  0  0  0  0  0
    6.0240   45.3030   50.8100 C   0  0  0  0  0  0  0  0  0  0  0  0
    7.2360   46.0360   50.5760 N   0  0  0  0  0  0  0  0  0  0  0  0
    8.1530   46.4340   51.6080 C   0  0  0  0  0  0  0  0  0  0  0  0
    9.5060   46.0460   51.5780 C   0  0  0  0  0  0  0  0  0  0  0  0
   10.3710   46.4270   52.6090 C   0  0  0  0  0  0  0  0  0  0  0  0
    9.8940   47.1820   53.6830 C   0  0  0  0  0  0  0  0  0  0  0  0
    8.5470   47.5510   53.7320 C   0  0  0  0  0  0  0  0  0  0  0  0
    7.6780   47.1720   52.7050 C   0  0  0  0  0  0  0  0  0  0  0  0
    6.0010   43.9630   50.6000 N   0  0  0  0  0  0  0  0  0  0  0  0
    4.8880   43.2150   50.8310 C   0  0  0  0  0  0  0  0  0  0  0  0
    4.9530   41.7370   50.5420 C   0  0  0  0  0  0  0  0  0  0  0  0
    4.3060   41.4470   49.3540 F   0  0  0  0  0  0  0  0  0  0  0  0
    4.3670   41.0310   51.5760 F   0  0  0  0  0  0  0  0  0  0  0  0
    6.2710   41.3290   50.4250 F   0  0  0  0  0  0  0  0  0  0  0  0
    2.6210   43.3900   53.7660 H   0  0  0  0  0  0  0  0  0  0  0  0
    0.6706   41.4436   52.5286 H   0  0  0  0  0  0  0  0  0  0  0  0
    1.0763   41.6128   54.2866 H   0  0  0  0  0  0  0  0  0  0  0  0
   -0.8333   42.7507   54.5039 H   0  0  0  0  0  0  0  0  0  0  0  0
   -0.8238   42.6849   51.4684 H   0  0  0  0  0  0  0  0  0  0  0  0
   -1.9940   41.9654   52.6347 H   0  0  0  0  0  0  0  0  0  0  0  0
   -3.0008   43.8837   51.4685 H   0  0  0  0  0  0  0  0  0  0  0  0
   -2.7484   44.2315   53.2515 H   0  0  0  0  0  0  0  0  0  0  0  0
    0.3922   44.8449   51.5922 H   0  0  0  0  0  0  0  0  0  0  0  0
    0.0440   46.3537   52.5639 H   0  0  0  0  0  0  0  0  0  0  0  0
    1.0959   44.6125   53.9520 H   0  0  0  0  0  0  0  0  0  0  0  0
   -0.5912   44.9917   54.4828 H   0  0  0  0  0  0  0  0  0  0  0  0
    2.8891   45.7657   51.9154 H   0  0  0  0  0  0  0  0  0  0  0  0
    7.5030   46.2200   49.5820 H   0  0  0  0  0  0  0  0  0  0  0  0
    9.8842   45.4411   50.7407 H   0  0  0  0  0  0  0  0  0  0  0  0
   11.4299   46.1312   52.5739 H   0  0  0  0  0  0  0  0  0  0  0  0
   10.5778   47.4858   54.4893 H   0  0  0  0  0  0  0  0  0  0  0  0
    8.1699   48.1409   54.5805 H   0  0  0  0  0  0  0  0  0  0  0  0
    6.6158   47.4533   52.7560 H   0  0  0  0  0  0  0  0  0  0  0  0
  1  2  2  0
  2  3  1  0
  3  4  1  0
  4  5  1  0
  5  6  1  0
  6  7  1  0
  7  8  1  0
  8  9  1  0
  9 10  1  0
  2 11  1  0
 11 12  2  0
 12 13  1  0
 13 14  2  0
 14 15  1  0
 15 16  1  0
 16 17  2  0
 17 18  1  0
 18 19  2  0
 19 20  1  0
 20 21  2  0
 14 22  1  0
 22 23  2  0
 23 24  1  0
 24 25  1  0
 24 26  1  0
 24 27  1  0
 10  5  1  0
 23 11  1  0
 21 16  1  0
  3 28  1  0
  4 29  1  0
  4 30  1  0
  5 31  1  0
  6 32  1  0
  6 33  1  0
  7 34  1  0
  7 35  1  0
  9 36  1  0
  9 37  1  0
 10 38  1  0
 10 39  1  0
 12 40  1  0
 15 41  1  0
 17 42  1  0
 18 43  1  0
 19 44  1  0
 20 45  1  0
 21 46  1  0
M  END
>  <meeko>  (2) 
{"is_sidechain": [false], "free_energy": -8.715, "intermolecular_energy": -11.884, "internal_energy": -0.514}

$$$$
ligand_7_conformer_4_docked
     RDKit          3D

 46 48  0  0  0  0  0  0  0  0999 V2000
    6.1140   44.5960   49.6110 O   0  0  0  0  0  0  0  0  0  0  0  0
    5.9290   44.7460   50.8500 C   0  0  0  0  0  0  0  0  0  0  0  0
    6.8970   45.4630   51.6310 N   0  0  0  0  0  0  0  0  0  0  0  0
    8.0680   46.0830   51.0100 C   0  0  0  0  0  0  0  0  0  0  0  0
    8.7440   47.0950   51.9590 C   0  0  0  0  0  0  0  0  0  0  0  0
    9.8400   46.3970   52.7910 C   0  0  0  0  0  0  0  0  0  0  0  0
   10.1020   47.1800   54.0870 C   0  0  0  0  0  0  0  0  0  0  0  0
    8.9740   47.2860   54.9490 O   0  0  0  0  0  0  0  0  0  0  0  0
    7.7190   47.1900   54.2870 C   0  0  0  0  0  0  0  0  0  0  0  0
    7.7180   47.8030   52.8770 C   0  0  0  0  0  0  0  0  0  0  0  0
    4.7070   44.2000   51.4870 C   0  0  0  0  0  0  0  0  0  0  0  0
    4.6370   42.8270   51.7610 C   0  0  0  0  0  0  0  0  0  0  0  0
    3.5440   42.3010   52.3660 N   0  0  0  0  0  0  0  0  0  0  0  0
    2.4870   43.0820   52.7110 C   0  0  0  0  0  0  0  0  0  0  0  0
    1.3490   42.5230   53.3830 N   0  0  0  0  0  0  0  0  0  0  0  0
    0.1810   43.2730   53.7550 C   0  0  0  0  0  0  0  0  0  0  0  0
    0.1870   44.1370   54.8670 C   0  0  0  0  0  0  0  0  0  0  0  0
   -0.9710   44.8360   55.2220 C   0  0  0  0  0  0  0  0  0  0  0  0
   -2.1460   44.6680   54.4850 C   0  0  0  0  0  0  0  0  0  0  0  0
   -2.1670   43.7940   53.3950 C   0  0  0  0  0  0  0  0  0  0  0  0
   -1.0120   43.0930   53.0360 C   0  0  0  0  0  0  0  0  0  0  0  0
    2.5310   44.4150   52.4630 N   0  0  0  0  0  0  0  0  0  0  0  0
    3.5970   45.0020   51.8540 C   0  0  0  0  0  0  0  0  0  0  0  0
    3.5390   46.4870   51.5960 C   0  0  0  0  0  0  0  0  0  0  0  0
    3.5850   46.7450   50.2380 F   0  0  0  0  0  0  0  0  0  0  0  0
    4.5990   47.1130   52.2260 F   0  0  0  0  0  0  0  0  0  0  0  0
    2.3600   47.0140   52.0960 F   0  0  0  0  0  0  0  0  0  0  0  0
    6.7650   45.5210   52.6660 H   0  0  0  0  0  0  0  0  0  0  0  0
    8.7928   45.2973   50.7507 H   0  0  0  0  0  0  0  0  0  0  0  0
    7.7360   46.6226   50.1108 H   0  0  0  0  0  0  0  0  0  0  0  0
    9.2116   47.8744   51.3395 H   0  0  0  0  0  0  0  0  0  0  0  0
    9.5115   45.3777   53.0424 H   0  0  0  0  0  0  0  0  0  0  0  0
   10.7679   46.3579   52.2015 H   0  0  0  0  0  0  0  0  0  0  0  0
   10.9090   46.6741   54.6373 H   0  0  0  0  0  0  0  0  0  0  0  0
   10.3645   48.2051   53.7865 H   0  0  0  0  0  0  0  0  0  0  0  0
    7.4501   46.1266   54.2040 H   0  0  0  0  0  0  0  0  0  0  0  0
    6.9937   47.7595   54.8867 H   0  0  0  0  0  0  0  0  0  0  0  0
    6.7137   47.6982   52.4407 H   0  0  0  0  0  0  0  0  0  0  0  0
    7.9964   48.8641   52.9579 H   0  0  0  0  0  0  0  0  0  0  0  0
    5.4754   42.1715   51.4829 H   0  0  0  0  0  0  0  0  0  0  0  0
    1.3400   41.4890   53.5380 H   0  0  0  0  0  0  0  0  0  0  0  0
    1.1059   44.2625   55.4585 H   0  0  0  0  0  0  0  0  0  0  0  0
   -0.9567   45.5197   56.0836 H   0  0  0  0  0  0  0  0  0  0  0  0
   -3.0540   45.2234   54.7627 H   0  0  0  0  0  0  0  0  0  0  0  0
   -3.0938   43.6573   52.8185 H   0  0  0  0  0  0  0  0  0  0  0  0
   -1.0377   42.3962   52.1852 H   0  0  0  0  0  0  0  0  0  0  0  0
  1  2  2  0
  2  3  1  0
  3  4  1  0
  4  5  1  0
  5  6  1  0
  6  7  1  0
  7  8  1  0
  8  9  1  0
  9 10  1  0
  2 11  1  0
 11 12  2  0
 12 13  1  0
 13 14  2  0
 14 15  1  0
 15 16  1  0
 16 17  2  0
 17 18  1  0
 18 19  2  0
 19 20  1  0
 20 21  2  0
 14 22  1  0
 22 23  2  0
 23 24  1  0
 24 25  1  0
 24 26  1  0
 24 27  1  0
 10  5  1  0
 23 11  1  0
 21 16  1  0
  3 28  1  0
  4 29  1  0
  4 30  1  0
  5 31  1  0
  6 32  1  0
  6 33  1  0
  7 34  1  0
  7 35  1  0
  9 36  1  0
  9 37  1  0
 10 38  1  0
 10 39  1  0
 12 40  1  0
 15 41  1  0
 17 42  1  0
 18 43  1  0
 19 44  1  0
 20 45  1  0
 21 46  1  0
M  END
>  <meeko>  (3) 
{"is_sidechain": [false], "free_energy": -8.481, "intermolecular_energy": -11.563, "internal_energy": -0.518}

$$$$
ligand_7_conformer_4_docked
     RDKit          3D

 46 48  0  0  0  0  0  0  0  0999 V2000
    1.6590   43.4590   54.1570 O   0  0  0  0  0  0  0  0  0  0  0  0
    1.9240   43.3440   52.9290 C   0  0  0  0  0  0  0  0  0  0  0  0
    1.0180   42.6340   52.0700 N   0  0  0  0  0  0  0  0  0  0  0  0
   -0.2430   42.0910   52.5760 C   0  0  0  0  0  0  0  0  0  0  0  0
   -1.4590   42.8160   51.9630 C   0  0  0  0  0  0  0  0  0  0  0  0
   -1.0030   43.7650   50.8350 C   0  0  0  0  0  0  0  0  0  0  0  0
   -2.0420   44.8780   50.6250 C   0  0  0  0  0  0  0  0  0  0  0  0
   -2.2560   45.7060   51.7630 O   0  0  0  0  0  0  0  0  0  0  0  0
   -1.9600   45.0820   53.0060 C   0  0  0  0  0  0  0  0  0  0  0  0
   -2.2790   43.5790   53.0320 C   0  0  0  0  0  0  0  0  0  0  0  0
    3.1540   43.9600   52.3760 C   0  0  0  0  0  0  0  0  0  0  0  0
    4.1940   43.1290   51.9390 C   0  0  0  0  0  0  0  0  0  0  0  0
    5.3210   43.6600   51.4040 N   0  0  0  0  0  0  0  0  0  0  0  0
    5.4790   45.0040   51.2900 C   0  0  0  0  0  0  0  0  0  0  0  0
    6.6610   45.5570   50.6920 N   0  0  0  0  0  0  0  0  0  0  0  0
    7.7790   46.0700   51.4350 C   0  0  0  0  0  0  0  0  0  0  0  0
    9.0940   45.6410   51.1720 C   0  0  0  0  0  0  0  0  0  0  0  0
   10.1610   46.1380   51.9270 C   0  0  0  0  0  0  0  0  0  0  0  0
    9.9260   47.0520   52.9560 C   0  0  0  0  0  0  0  0  0  0  0  0
    8.6220   47.4650   53.2400 C   0  0  0  0  0  0  0  0  0  0  0  0
    7.5520   46.9700   52.4890 C   0  0  0  0  0  0  0  0  0  0  0  0
    4.4860   45.8320   51.7010 N   0  0  0  0  0  0  0  0  0  0  0  0
    3.3330   45.3610   52.2500 C   0  0  0  0  0  0  0  0  0  0  0  0
    2.3000   46.3630   52.7010 C   0  0  0  0  0  0  0  0  0  0  0  0
    1.0600   46.0480   52.1760 F   0  0  0  0  0  0  0  0  0  0  0  0
    2.6700   47.6320   52.2960 F   0  0  0  0  0  0  0  0  0  0  0  0
    2.1990   46.3570   54.0830 F   0  0  0  0  0  0  0  0  0  0  0  0
    1.2830   42.4890   51.0690 H   0  0  0  0  0  0  0  0  0  0  0  0
   -0.2991   41.0222   52.3220 H   0  0  0  0  0  0  0  0  0  0  0  0
   -0.2683   42.2371   53.6660 H   0  0  0  0  0  0  0  0  0  0  0  0
   -2.1236   42.0510   51.5352 H   0  0  0  0  0  0  0  0  0  0  0  0
   -0.0375   44.2160   51.1078 H   0  0  0  0  0  0  0  0  0  0  0  0
   -0.8992   43.1905   49.9027 H   0  0  0  0  0  0  0  0  0  0  0  0
   -1.7008   45.5149   49.7956 H   0  0  0  0  0  0  0  0  0  0  0  0
   -2.9994   44.3780   50.4165 H   0  0  0  0  0  0  0  0  0  0  0  0
   -0.8880   45.2135   53.2144 H   0  0  0  0  0  0  0  0  0  0  0  0
   -2.5960   45.5596   53.7659 H   0  0  0  0  0  0  0  0  0  0  0  0
   -2.0347   43.1771   54.0264 H   0  0  0  0  0  0  0  0  0  0  0  0
   -3.3486   43.4452   52.8127 H   0  0  0  0  0  0  0  0  0  0  0  0
    4.0954   42.0373   52.0307 H   0  0  0  0  0  0  0  0  0  0  0  0
    6.7410   45.5100   49.6510 H   0  0  0  0  0  0  0  0  0  0  0  0
    9.2827   44.9123   50.3698 H   0  0  0  0  0  0  0  0  0  0  0  0
   11.1876   45.8082   51.7097 H   0  0  0  0  0  0  0  0  0  0  0  0
   10.7680   47.4471   53.5433 H   0  0  0  0  0  0  0  0  0  0  0  0
    8.4371   48.1802   54.0551 H   0  0  0  0  0  0  0  0  0  0  0  0
    6.5256   47.2874   52.7251 H   0  0  0  0  0  0  0  0  0  0  0  0
  1  2  2  0
  2  3  1  0
  3  4  1  0
  4  5  1  0
  5  6  1  0
  6  7  1  0
  7  8  1  0
  8  9  1  0
  9 10  1  0
  2 11  1  0
 11 12  2  0
 12 13  1  0
 13 14  2  0
 14 15  1  0
 15 16  1  0
 16 17  2  0
 17 18  1  0
 18 19  2  0
 19 20  1  0
 20 21  2  0
 14 22  1  0
 22 23  2  0
 23 24  1  0
 24 25  1  0
 24 26  1  0
 24 27  1  0
 10  5  1  0
 23 11  1  0
 21 16  1  0
  3 28  1  0
  4 29  1  0
  4 30  1  0
  5 31  1  0
  6 32  1  0
  6 33  1  0
  7 34  1  0
  7 35  1  0
  9 36  1  0
  9 37  1  0
 10 38  1  0
 10 39  1  0
 12 40  1  0
 15 41  1  0
 17 42  1  0
 18 43  1  0
 19 44  1  0
 20 45  1  0
 21 46  1  0
M  END
>  <meeko>  (4) 
{"is_sidechain": [false], "free_energy": -8.343, "intermolecular_energy": -11.053, "internal_energy": -0.843}

$$$$
ligand_7_conformer_4_docked
     RDKit          3D

 46 48  0  0  0  0  0  0  0  0999 V2000
    1.0120   43.2270   51.7380 O   0  0  0  0  0  0  0  0  0  0  0  0
    1.8250   43.7100   52.5720 C   0  0  0  0  0  0  0  0  0  0  0  0
    1.4710   43.7580   53.9630 N   0  0  0  0  0  0  0  0  0  0  0  0
    0.2080   43.2000   54.4470 C   0  0  0  0  0  0  0  0  0  0  0  0
   -0.7720   44.3090   54.8830 C   0  0  0  0  0  0  0  0  0  0  0  0
   -0.0810   45.2760   55.8670 C   0  0  0  0  0  0  0  0  0  0  0  0
   -1.1290   45.9920   56.7330 C   0  0  0  0  0  0  0  0  0  0  0  0
   -1.9200   45.1240   57.5390 O   0  0  0  0  0  0  0  0  0  0  0  0
   -2.0370   43.8000   57.0330 C   0  0  0  0  0  0  0  0  0  0  0  0
   -2.0690   43.7270   55.4980 C   0  0  0  0  0  0  0  0  0  0  0  0
    3.1470   44.2040   52.1180 C   0  0  0  0  0  0  0  0  0  0  0  0
    4.0740   43.2880   51.6010 C   0  0  0  0  0  0  0  0  0  0  0  0
    5.2820   43.7100   51.1530 N   0  0  0  0  0  0  0  0  0  0  0  0
    5.6310   45.0220   51.2040 C   0  0  0  0  0  0  0  0  0  0  0  0
    6.8980   45.4660   50.6960 N   0  0  0  0  0  0  0  0  0  0  0  0
    7.9500   46.0080   51.5100 C   0  0  0  0  0  0  0  0  0  0  0  0
    7.6750   46.8710   52.5880 C   0  0  0  0  0  0  0  0  0  0  0  0
    8.7200   47.4040   53.3480 C   0  0  0  0  0  0  0  0  0  0  0  0
   10.0460   47.0960   53.0320 C   0  0  0  0  0  0  0  0  0  0  0  0
   10.3290   46.2610   51.9490 C   0  0  0  0  0  0  0  0  0  0  0  0
    9.2870   45.7260   51.1850 C   0  0  0  0  0  0  0  0  0  0  0  0
    4.7500   45.9300   51.6940 N   0  0  0  0  0  0  0  0  0  0  0  0
    3.5260   45.5690   52.1630 C   0  0  0  0  0  0  0  0  0  0  0  0
    2.6290   46.6490   52.7140 C   0  0  0  0  0  0  0  0  0  0  0  0
    1.3200   46.4410   52.3170 F   0  0  0  0  0  0  0  0  0  0  0  0
    3.0590   47.8860   52.2720 F   0  0  0  0  0  0  0  0  0  0  0  0
    2.6660   46.6430   54.0990 F   0  0  0  0  0  0  0  0  0  0  0  0
    2.1250   44.2220   54.6330 H   0  0  0  0  0  0  0  0  0  0  0  0
   -0.2545   42.6114   53.6410 H   0  0  0  0  0  0  0  0  0  0  0  0
    0.4234   42.5676   55.3209 H   0  0  0  0  0  0  0  0  0  0  0  0
   -1.0660   44.8688   53.9829 H   0  0  0  0  0  0  0  0  0  0  0  0
    0.6001   44.7073   56.5171 H   0  0  0  0  0  0  0  0  0  0  0  0
    0.4844   46.0263   55.2948 H   0  0  0  0  0  0  0  0  0  0  0  0
   -0.6043   46.6947   57.3970 H   0  0  0  0  0  0  0  0  0  0  0  0
   -1.8205   46.4921   56.0389 H   0  0  0  0  0  0  0  0  0  0  0  0
   -1.1776   43.2140   57.3909 H   0  0  0  0  0  0  0  0  0  0  0  0
   -2.9962   43.4008   57.3944 H   0  0  0  0  0  0  0  0  0  0  0  0
   -2.1716   42.6758   55.1907 H   0  0  0  0  0  0  0  0  0  0  0  0
   -2.9222   44.3209   55.1385 H   0  0  0  0  0  0  0  0  0  0  0  0
    3.8192   42.2188   51.5585 H   0  0  0  0  0  0  0  0  0  0  0  0
    7.0910   45.3100   49.6800 H   0  0  0  0  0  0  0  0  0  0  0  0
    6.6336   47.1268   52.8331 H   0  0  0  0  0  0  0  0  0  0  0  0
    8.4981   48.0675   54.1969 H   0  0  0  0  0  0  0  0  0  0  0  0
   10.8663   47.5110   53.6360 H   0  0  0  0  0  0  0  0  0  0  0  0
   11.3730   46.0238   51.6965 H   0  0  0  0  0  0  0  0  0  0  0  0
    9.5159   45.0804   50.3243 H   0  0  0  0  0  0  0  0  0  0  0  0
  1  2  2  0
  2  3  1  0
  3  4  1  0
  4  5  1  0
  5  6  1  0
  6  7  1  0
  7  8  1  0
  8  9  1  0
  9 10  1  0
  2 11  1  0
 11 12  2  0
 12 13  1  0
 13 14  2  0
 14 15  1  0
 15 16  1  0
 16 17  2  0
 17 18  1  0
 18 19  2  0
 19 20  1  0
 20 21  2  0
 14 22  1  0
 22 23  2  0
 23 24  1  0
 24 25  1  0
 24 26  1  0
 24 27  1  0
 10  5  1  0
 23 11  1  0
 21 16  1  0
  3 28  1  0
  4 29  1  0
  4 30  1  0
  5 31  1  0
  6 32  1  0
  6 33  1  0
  7 34  1  0
  7 35  1  0
  9 36  1  0
  9 37  1  0
 10 38  1  0
 10 39  1  0
 12 40  1  0
 15 41  1  0
 17 42  1  0
 18 43  1  0
 19 44  1  0
 20 45  1  0
 21 46  1  0
M  END
>  <meeko>  (5) 
{"is_sidechain": [false], "free_energy": -8.343, "intermolecular_energy": -11.456, "internal_energy": -0.439}

$$$$
