MODEL 1
REMARK VINA RESULT:    -8.988      0.000      0.000
REMARK INTER + INTRA:          -9.839
REMARK INTER:                  -9.514
REMARK INTRA:                  -0.325
REMARK UNBOUND:                -0.325
REMARK SMILES CN1CCC2(CCN(C(=O)c3ccc4cccnn34)CC2)C1=O
REMARK SMILES IDX 1 1 2 2 3 3 4 4 5 5 6 6 7 7 8 8 20 9 21 10 9 11 10 12 22 13
REMARK SMILES IDX 23 14 11 15 12 16 19 17 13 18 18 19 14 20 17 21 15 22 16 23
REMARK H PARENT
ROOT
ATOM      1  C   UNL     1       2.285  43.572  51.198  1.00  0.00     0.146 C 
ATOM      2  N   UNL     1       2.679  44.241  52.432  1.00  0.00    -0.345 N 
ATOM      3  C   UNL     1       2.221  43.868  53.755  1.00  0.00     0.120 C 
ATOM      4  C   UNL     1       2.849  44.897  54.711  1.00  0.00     0.038 C 
ATOM      5  C   UNL     1       4.026  45.579  53.946  1.00  0.00     0.054 C 
ATOM      6  C   UNL     1       5.400  44.967  54.366  1.00  0.00     0.038 C 
ATOM      7  C   UNL     1       6.557  45.984  54.408  1.00  0.00     0.121 C 
ATOM      8  N   UNL     1       6.378  47.051  53.415  1.00  0.00    -0.337 N 
ATOM      9  C   UNL     1       5.134  47.833  53.419  1.00  0.00     0.121 C 
ATOM     10  C   UNL     1       3.996  47.112  54.161  1.00  0.00     0.038 C 
ATOM     11  C   UNL     1       7.520  47.579  52.714  1.00  0.00     0.272 C 
ATOM     12  O   UNL     1       7.671  48.829  52.627  1.00  0.00    -0.267 OA
ATOM     13  C   UNL     1       3.703  45.210  52.530  1.00  0.00     0.228 C 
ATOM     14  O   UNL     1       4.309  45.658  51.519  1.00  0.00    -0.274 OA
ENDROOT
BRANCH  11  15
ATOM     15  C   UNL     1       8.530  46.699  52.094  1.00  0.00     0.130 A 
ATOM     16  C   UNL     1       9.898  46.734  52.347  1.00  0.00     0.036 A 
ATOM     17  N   UNL     1       8.291  45.768  51.152  1.00  0.00    -0.228 N 
ATOM     18  C   UNL     1      10.491  45.770  51.535  1.00  0.00     0.031 A 
ATOM     19  N   UNL     1       7.135  45.457  50.569  1.00  0.00    -0.176 NA
ATOM     20  C   UNL     1       9.460  45.205  50.814  1.00  0.00     0.066 A 
ATOM     21  C   UNL     1       7.109  44.498  49.601  1.00  0.00     0.134 A 
ATOM     22  C   UNL     1       9.511  44.219  49.834  1.00  0.00     0.030 A 
ATOM     23  C   UNL     1       8.303  43.858  49.221  1.00  0.00     0.024 A 
ENDBRANCH  11  15
TORSDOF 1
ENDMDL
MODEL 2
REMARK VINA RESULT:    -8.315      1.864      2.956
REMARK INTER + INTRA:          -9.127
REMARK INTER:                  -8.728
REMARK INTRA:                  -0.399
REMARK UNBOUND:                -0.325
REMARK SMILES CN1CCC2(CCN(C(=O)c3ccc4cccnn34)CC2)C1=O
REMARK SMILES IDX 1 1 2 2 3 3 4 4 5 5 6 6 7 7 8 8 20 9 21 10 9 11 10 12 22 13
REMARK SMILES IDX 23 14 11 15 12 16 19 17 13 18 18 19 14 20 17 21 15 22 16 23
REMARK H PARENT
ROOT
ATOM      1  C   UNL     1       5.907  41.955  49.032  1.00  0.00     0.146 C 
ATOM      2  N   UNL     1       5.023  42.324  50.132  1.00  0.00    -0.345 N 
ATOM      3  C   UNL     1       4.164  41.401  50.845  1.00  0.00     0.120 C 
ATOM      4  C   UNL     1       3.387  42.262  51.856  1.00  0.00     0.038 C 
ATOM      5  C   UNL     1       4.157  43.612  51.999  1.00  0.00     0.054 C 
ATOM      6  C   UNL     1       5.035  43.624  53.292  1.00  0.00     0.038 C 
ATOM      7  C   UNL     1       5.123  44.999  53.980  1.00  0.00     0.121 C 
ATOM      8  N   UNL     1       5.035  46.099  53.012  1.00  0.00    -0.337 N 
ATOM      9  C   UNL     1       3.883  46.162  52.101  1.00  0.00     0.121 C 
ATOM     10  C   UNL     1       3.171  44.804  51.970  1.00  0.00     0.038 C 
ATOM     11  C   UNL     1       5.830  47.286  53.196  1.00  0.00     0.272 C 
ATOM     12  O   UNL     1       5.286  48.420  53.095  1.00  0.00    -0.267 OA
ATOM     13  C   UNL     1       5.027  43.581  50.780  1.00  0.00     0.228 C 
ATOM     14  O   UNL     1       5.743  44.541  50.387  1.00  0.00    -0.274 OA
ENDROOT
BRANCH  11  15
ATOM     15  C   UNL     1       7.271  47.217  53.507  1.00  0.00     0.130 A 
ATOM     16  C   UNL     1       7.879  47.741  54.644  1.00  0.00     0.036 A 
ATOM     17  N   UNL     1       8.223  46.689  52.717  1.00  0.00    -0.228 N 
ATOM     18  C   UNL     1       9.245  47.494  54.531  1.00  0.00     0.031 A 
ATOM     19  N   UNL     1       8.090  46.149  51.507  1.00  0.00    -0.176 NA
ATOM     20  C   UNL     1       9.408  46.848  53.324  1.00  0.00     0.066 A 
ATOM     21  C   UNL     1       9.194  45.698  50.848  1.00  0.00     0.134 A 
ATOM     22  C   UNL     1      10.579  46.413  52.712  1.00  0.00     0.030 A 
ATOM     23  C   UNL     1      10.462  45.820  51.447  1.00  0.00     0.024 A 
ENDBRANCH  11  15
TORSDOF 1
ENDMDL
MODEL 3
REMARK VINA RESULT:    -8.313      1.737      2.959
REMARK INTER + INTRA:          -9.125
REMARK INTER:                  -8.813
REMARK INTRA:                  -0.312
REMARK UNBOUND:                -0.325
REMARK SMILES CN1CCC2(CCN(C(=O)c3ccc4cccnn34)CC2)C1=O
REMARK SMILES IDX 1 1 2 2 3 3 4 4 5 5 6 6 7 7 8 8 20 9 21 10 9 11 10 12 22 13
REMARK SMILES IDX 23 14 11 15 12 16 19 17 13 18 18 19 14 20 17 21 15 22 16 23
REMARK H PARENT
ROOT
ATOM      1  C   UNL     1       0.205  43.423  50.121  1.00  0.00     0.146 C 
ATOM      2  N   UNL     1       0.614  43.495  51.519  1.00  0.00    -0.345 N 
ATOM      3  C   UNL     1       0.275  42.513  52.528  1.00  0.00     0.120 C 
ATOM      4  C   UNL     1       0.868  43.054  53.841  1.00  0.00     0.038 C 
ATOM      5  C   UNL     1       1.929  44.132  53.457  1.00  0.00     0.054 C 
ATOM      6  C   UNL     1       3.376  43.547  53.529  1.00  0.00     0.038 C 
ATOM      7  C   UNL     1       4.438  44.552  54.016  1.00  0.00     0.121 C 
ATOM      8  N   UNL     1       4.104  45.928  53.627  1.00  0.00    -0.337 N 
ATOM      9  C   UNL     1       2.798  46.483  54.010  1.00  0.00     0.121 C 
ATOM     10  C   UNL     1       1.777  45.385  54.353  1.00  0.00     0.038 C 
ATOM     11  C   UNL     1       5.148  46.837  53.231  1.00  0.00     0.272 C 
ATOM     12  O   UNL     1       5.182  47.997  53.726  1.00  0.00    -0.267 OA
ATOM     13  C   UNL     1       1.553  44.417  52.035  1.00  0.00     0.228 C 
ATOM     14  O   UNL     1       2.052  45.338  51.335  1.00  0.00    -0.274 OA
ENDROOT
BRANCH  11  15
ATOM     15  C   UNL     1       6.191  46.450  52.261  1.00  0.00     0.130 A 
ATOM     16  C   UNL     1       5.964  45.847  51.027  1.00  0.00     0.036 A 
ATOM     17  N   UNL     1       7.519  46.569  52.442  1.00  0.00    -0.228 N 
ATOM     18  C   UNL     1       7.208  45.618  50.445  1.00  0.00     0.031 A 
ATOM     19  N   UNL     1       8.172  47.025  53.509  1.00  0.00    -0.176 NA
ATOM     20  C   UNL     1       8.135  46.076  51.358  1.00  0.00     0.066 A 
ATOM     21  C   UNL     1       9.534  47.032  53.510  1.00  0.00     0.134 A 
ATOM     22  C   UNL     1       9.524  46.049  51.287  1.00  0.00     0.030 A 
ATOM     23  C   UNL     1      10.234  46.546  52.390  1.00  0.00     0.024 A 
ENDBRANCH  11  15
TORSDOF 1
ENDMDL
MODEL 4
REMARK VINA RESULT:    -8.289      3.035      5.321
REMARK INTER + INTRA:          -9.099
REMARK INTER:                  -8.579
REMARK INTRA:                  -0.520
REMARK UNBOUND:                -0.325
REMARK SMILES CN1CCC2(CCN(C(=O)c3ccc4cccnn34)CC2)C1=O
REMARK SMILES IDX 1 1 2 2 3 3 4 4 5 5 6 6 7 7 8 8 20 9 21 10 9 11 10 12 22 13
REMARK SMILES IDX 23 14 11 15 12 16 19 17 13 18 18 19 14 20 17 21 15 22 16 23
REMARK H PARENT
ROOT
ATOM      1  C   UNL     1       0.622  46.093  57.561  1.00  0.00     0.146 C 
ATOM      2  N   UNL     1       0.059  45.505  56.352  1.00  0.00    -0.345 N 
ATOM      3  C   UNL     1      -1.276  45.764  55.853  1.00  0.00     0.120 C 
ATOM      4  C   UNL     1      -1.427  44.875  54.607  1.00  0.00     0.038 C 
ATOM      5  C   UNL     1       0.008  44.455  54.164  1.00  0.00     0.054 C 
ATOM      6  C   UNL     1       0.507  45.329  52.969  1.00  0.00     0.038 C 
ATOM      7  C   UNL     1       1.379  44.569  51.952  1.00  0.00     0.121 C 
ATOM      8  N   UNL     1       2.153  43.498  52.592  1.00  0.00    -0.337 N 
ATOM      9  C   UNL     1       1.449  42.478  53.383  1.00  0.00     0.121 C 
ATOM     10  C   UNL     1       0.049  42.946  53.820  1.00  0.00     0.038 C 
ATOM     11  C   UNL     1       3.496  43.220  52.153  1.00  0.00     0.272 C 
ATOM     12  O   UNL     1       3.840  42.028  51.921  1.00  0.00    -0.267 OA
ATOM     13  C   UNL     1       0.796  44.764  55.400  1.00  0.00     0.228 C 
ATOM     14  O   UNL     1       2.008  44.459  55.571  1.00  0.00    -0.274 OA
ENDROOT
BRANCH  11  15
ATOM     15  C   UNL     1       4.491  44.294  51.960  1.00  0.00     0.130 A 
ATOM     16  C   UNL     1       4.980  44.731  50.733  1.00  0.00     0.036 A 
ATOM     17  N   UNL     1       5.115  44.975  52.938  1.00  0.00    -0.228 N 
ATOM     18  C   UNL     1       5.919  45.726  50.995  1.00  0.00     0.031 A 
ATOM     19  N   UNL     1       4.999  44.824  54.256  1.00  0.00    -0.176 NA
ATOM     20  C   UNL     1       5.970  45.836  52.369  1.00  0.00     0.066 A 
ATOM     21  C   UNL     1       5.753  45.596  55.089  1.00  0.00     0.134 A 
ATOM     22  C   UNL     1       6.772  46.657  53.155  1.00  0.00     0.030 A 
ATOM     23  C   UNL     1       6.652  46.533  54.546  1.00  0.00     0.024 A 
ENDBRANCH  11  15
TORSDOF 1
ENDMDL
MODEL 5
REMARK VINA RESULT:    -8.243      1.782      2.617
REMARK INTER + INTRA:          -9.050
REMARK INTER:                  -9.749
REMARK INTRA:                   0.699
REMARK UNBOUND:                -0.325
REMARK SMILES CN1CCC2(CCN(C(=O)c3ccc4cccnn34)CC2)C1=O
REMARK SMILES IDX 1 1 2 2 3 3 4 4 5 5 6 6 7 7 8 8 20 9 21 10 9 11 10 12 22 13
REMARK SMILES IDX 23 14 11 15 12 16 19 17 13 18 18 19 14 20 17 21 15 22 16 23
REMARK H PARENT
ROOT
ATOM      1  C   UNL     1       0.358  45.181  52.839  1.00  0.00     0.146 C 
ATOM      2  N   UNL     1       1.490  45.491  53.704  1.00  0.00    -0.345 N 
ATOM      3  C   UNL     1       1.514  45.281  55.137  1.00  0.00     0.120 C 
ATOM      4  C   UNL     1       2.878  45.816  55.606  1.00  0.00     0.038 C 
ATOM      5  C   UNL     1       3.793  45.915  54.345  1.00  0.00     0.054 C 
ATOM      6  C   UNL     1       4.767  44.697  54.259  1.00  0.00     0.038 C 
ATOM      7  C   UNL     1       6.156  45.039  53.689  1.00  0.00     0.121 C 
ATOM      8  N   UNL     1       6.089  46.134  52.713  1.00  0.00    -0.337 N 
ATOM      9  C   UNL     1       5.474  47.410  53.107  1.00  0.00     0.121 C 
ATOM     10  C   UNL     1       4.561  47.259  54.337  1.00  0.00     0.038 C 
ATOM     11  C   UNL     1       6.933  46.110  51.546  1.00  0.00     0.272 C 
ATOM     12  O   UNL     1       7.587  47.143  51.231  1.00  0.00    -0.267 OA
ATOM     13  C   UNL     1       2.778  45.849  53.244  1.00  0.00     0.228 C 
ATOM     14  O   UNL     1       3.035  46.031  52.024  1.00  0.00    -0.274 OA
ENDROOT
BRANCH  11  15
ATOM     15  C   UNL     1       7.061  44.906  50.703  1.00  0.00     0.130 A 
ATOM     16  C   UNL     1       8.089  44.659  49.798  1.00  0.00     0.036 A 
ATOM     17  N   UNL     1       6.180  43.892  50.638  1.00  0.00    -0.228 N 
ATOM     18  C   UNL     1       7.815  43.437  49.187  1.00  0.00     0.031 A 
ATOM     19  N   UNL     1       5.021  43.759  51.280  1.00  0.00    -0.176 NA
ATOM     20  C   UNL     1       6.625  43.006  49.735  1.00  0.00     0.066 A 
ATOM     21  C   UNL     1       4.247  42.662  51.049  1.00  0.00     0.134 A 
ATOM     22  C   UNL     1       5.889  41.862  49.446  1.00  0.00     0.030 A 
ATOM     23  C   UNL     1       4.675  41.689  50.126  1.00  0.00     0.024 A 
ENDBRANCH  11  15
TORSDOF 1
ENDMDL
