ligand_24_conformer_4_docked
     RDKit          3D

 49 52  0  0  0  0  0  0  0  0999 V2000
    8.3800   44.5580   49.0850 C   0  0  0  0  0  0  0  0  0  0  0  0
    7.6770   44.9830   50.3320 C   0  0  0  0  0  0  0  0  0  0  0  0
    6.3460   44.7680   50.4670 N   0  0  0  0  0  0  0  0  0  0  0  0
    5.6700   45.1850   51.5690 C   0  0  0  0  0  0  0  0  0  0  0  0
    4.2650   44.9170   51.6680 N   0  0  0  0  0  0  0  0  0  0  0  0
    3.3190   45.7930   50.9740 C   0  0  0  0  0  0  0  0  0  0  0  0
    2.7050   46.8050   51.9490 C   0  0  0  0  0  0  0  0  0  0  0  0
    1.8850   46.1450   53.0810 C   0  0  0  0  0  0  0  0  0  0  0  0
    1.7540   44.6740   53.0000 N   0  0  0  0  0  0  0  0  0  0  0  0
    0.5140   44.1100   52.5050 C   0  0  0  0  0  0  0  0  0  0  0  0
    0.2480   42.7320   52.6200 C   0  0  0  0  0  0  0  0  0  0  0  0
   -0.9530   42.2110   52.1330 C   0  0  0  0  0  0  0  0  0  0  0  0
   -1.8660   43.0310   51.5480 N   0  0  0  0  0  0  0  0  0  0  0  0
   -1.6420   44.3640   51.4200 C   0  0  0  0  0  0  0  0  0  0  0  0
   -0.4570   44.9280   51.8960 C   0  0  0  0  0  0  0  0  0  0  0  0
    2.8720   43.7800   53.3500 C   0  0  0  0  0  0  0  0  0  0  0  0
    3.8240   43.6120   52.1610 C   0  0  0  0  0  0  0  0  0  0  0  0
    6.3520   45.8730   52.5930 C   0  0  0  0  0  0  0  0  0  0  0  0
    5.5970   46.3990   53.7890 C   0  0  0  0  0  0  0  0  0  0  0  0
    7.7490   46.0500   52.4490 C   0  0  0  0  0  0  0  0  0  0  0  0
    8.5500   46.6870   53.4560 N   0  0  0  0  0  0  0  0  0  0  0  0
    9.8480   46.4500   53.7280 C   0  0  0  0  0  0  0  0  0  0  0  0
   10.2620   47.3450   54.6910 C   0  0  0  0  0  0  0  0  0  0  0  0
    9.1500   48.1240   54.9460 C   0  0  0  0  0  0  0  0  0  0  0  0
    8.1250   47.7140   54.1740 N   0  0  0  0  0  0  0  0  0  0  0  0
    8.3600   45.6250   51.3120 N   0  0  0  0  0  0  0  0  0  0  0  0
    9.2938   44.0056   49.3493 H   0  0  0  0  0  0  0  0  0  0  0  0
    7.7174   43.9091   48.4935 H   0  0  0  0  0  0  0  0  0  0  0  0
    8.6467   45.4463   48.4935 H   0  0  0  0  0  0  0  0  0  0  0  0
    3.8471   46.3349   50.1756 H   0  0  0  0  0  0  0  0  0  0  0  0
    2.5131   45.1775   50.5477 H   0  0  0  0  0  0  0  0  0  0  0  0
    3.5185   47.3900   52.4029 H   0  0  0  0  0  0  0  0  0  0  0  0
    2.0131   47.4352   51.3709 H   0  0  0  0  0  0  0  0  0  0  0  0
    2.3702   46.3896   54.0374 H   0  0  0  0  0  0  0  0  0  0  0  0
    0.8644   46.5441   52.9858 H   0  0  0  0  0  0  0  0  0  0  0  0
    0.9853   42.0665   53.0929 H   0  0  0  0  0  0  0  0  0  0  0  0
   -1.1606   41.1345   52.2230 H   0  0  0  0  0  0  0  0  0  0  0  0
   -2.3977   45.0025   50.9390 H   0  0  0  0  0  0  0  0  0  0  0  0
   -0.2821   46.0094   51.7955 H   0  0  0  0  0  0  0  0  0  0  0  0
    3.4257   44.2093   54.1980 H   0  0  0  0  0  0  0  0  0  0  0  0
    2.4654   42.7941   53.6194 H   0  0  0  0  0  0  0  0  0  0  0  0
    4.7015   43.0302   52.4795 H   0  0  0  0  0  0  0  0  0  0  0  0
    3.2936   43.0875   51.3525 H   0  0  0  0  0  0  0  0  0  0  0  0
    6.0880   46.0569   54.7120 H   0  0  0  0  0  0  0  0  0  0  0  0
    5.5897   47.4987   53.7634 H   0  0  0  0  0  0  0  0  0  0  0  0
    4.5629   46.0248   53.7634 H   0  0  0  0  0  0  0  0  0  0  0  0
   10.4717   45.6737   53.2607 H   0  0  0  0  0  0  0  0  0  0  0  0
   11.2570   47.4219   55.1538 H   0  0  0  0  0  0  0  0  0  0  0  0
    9.1080   48.9522   55.6687 H   0  0  0  0  0  0  0  0  0  0  0  0
  1  2  1  0
  2  3  2  0
  3  4  1  0
  4  5  1  0
  5  6  1  0
  6  7  1  0
  7  8  1  0
  8  9  1  0
  9 10  1  0
 10 11  2  0
 11 12  1  0
 12 13  2  0
 13 14  1  0
 14 15  2  0
  9 16  1  0
 16 17  1  0
  4 18  2  0
 18 19  1  0
 18 20  1  0
 20 21  1  0
 21 22  1  0
 22 23  2  0
 23 24  1  0
 24 25  2  0
 20 26  2  0
 26  2  1  0
 17  5  1  0
 25 21  1  0
 15 10  1  0
  1 27  1  0
  1 28  1  0
  1 29  1  0
  6 30  1  0
  6 31  1  0
  7 32  1  0
  7 33  1  0
  8 34  1  0
  8 35  1  0
 11 36  1  0
 12 37  1  0
 14 38  1  0
 15 39  1  0
 16 40  1  0
 16 41  1  0
 17 42  1  0
 17 43  1  0
 19 44  1  0
 19 45  1  0
 19 46  1  0
 22 47  1  0
 23 48  1  0
 24 49  1  0
M  END
>  <meeko>  (1) 
{"is_sidechain": [false], "free_energy": -6.512, "intermolecular_energy": -9.938, "internal_energy": 0.257}

$$$$
ligand_24_conformer_4_docked
     RDKit          3D

 49 52  0  0  0  0  0  0  0  0999 V2000
    0.8660   45.2950   56.8340 C   0  0  0  0  0  0  0  0  0  0  0  0
    1.0510   44.9580   55.3910 C   0  0  0  0  0  0  0  0  0  0  0  0
    2.2480   45.1720   54.7920 N   0  0  0  0  0  0  0  0  0  0  0  0
    2.4330   44.9200   53.4700 C   0  0  0  0  0  0  0  0  0  0  0  0
    3.7240   45.1490   52.8910 N   0  0  0  0  0  0  0  0  0  0  0  0
    3.9950   46.4260   52.2280 C   0  0  0  0  0  0  0  0  0  0  0  0
    4.0590   47.5640   53.2540 C   0  0  0  0  0  0  0  0  0  0  0  0
    5.2730   47.4450   54.1930 C   0  0  0  0  0  0  0  0  0  0  0  0
    6.1230   46.2560   53.9650 N   0  0  0  0  0  0  0  0  0  0  0  0
    7.4440   46.4420   53.3960 C   0  0  0  0  0  0  0  0  0  0  0  0
    8.5200   46.8840   54.1890 C   0  0  0  0  0  0  0  0  0  0  0  0
    9.7830   47.0570   53.6170 C   0  0  0  0  0  0  0  0  0  0  0  0
    9.9750   46.8000   52.2970 N   0  0  0  0  0  0  0  0  0  0  0  0
    8.9610   46.3720   51.5020 C   0  0  0  0  0  0  0  0  0  0  0  0
    7.6830   46.1820   52.0320 C   0  0  0  0  0  0  0  0  0  0  0  0
    5.6850   44.9060   54.3610 C   0  0  0  0  0  0  0  0  0  0  0  0
    4.8330   44.2690   53.2580 C   0  0  0  0  0  0  0  0  0  0  0  0
    1.3610   44.4430   52.6890 C   0  0  0  0  0  0  0  0  0  0  0  0
    1.5380   44.2260   51.2060 C   0  0  0  0  0  0  0  0  0  0  0  0
    0.1320   44.1890   53.3430 C   0  0  0  0  0  0  0  0  0  0  0  0
   -1.0070   43.6510   52.6560 N   0  0  0  0  0  0  0  0  0  0  0  0
   -1.9370   44.3400   51.9650 C   0  0  0  0  0  0  0  0  0  0  0  0
   -2.7960   43.4390   51.3740 C   0  0  0  0  0  0  0  0  0  0  0  0
   -2.3080   42.1990   51.7360 C   0  0  0  0  0  0  0  0  0  0  0  0
   -1.2120   42.3520   52.5050 N   0  0  0  0  0  0  0  0  0  0  0  0
    0.0090   44.4810   54.6660 N   0  0  0  0  0  0  0  0  0  0  0  0
    1.3028   44.4993   57.4553 H   0  0  0  0  0  0  0  0  0  0  0  0
    1.3668   46.2492   57.0548 H   0  0  0  0  0  0  0  0  0  0  0  0
   -0.2079   45.3848   57.0548 H   0  0  0  0  0  0  0  0  0  0  0  0
    4.9573   46.3616   51.6990 H   0  0  0  0  0  0  0  0  0  0  0  0
    3.1828   46.6354   51.5163 H   0  0  0  0  0  0  0  0  0  0  0  0
    4.1223   48.5211   52.7155 H   0  0  0  0  0  0  0  0  0  0  0  0
    3.1514   47.5068   53.8729 H   0  0  0  0  0  0  0  0  0  0  0  0
    5.8967   48.3413   54.0603 H   0  0  0  0  0  0  0  0  0  0  0  0
    4.8671   47.3434   55.2103 H   0  0  0  0  0  0  0  0  0  0  0  0
    8.3665   47.0930   55.2580 H   0  0  0  0  0  0  0  0  0  0  0  0
   10.6236   47.4020   54.2369 H   0  0  0  0  0  0  0  0  0  0  0  0
    9.1469   46.1741   50.4360 H   0  0  0  0  0  0  0  0  0  0  0  0
    6.8650   45.8302   51.3862 H   0  0  0  0  0  0  0  0  0  0  0  0
    6.5696   44.2779   54.5424 H   0  0  0  0  0  0  0  0  0  0  0  0
    5.0792   44.9843   55.2758 H   0  0  0  0  0  0  0  0  0  0  0  0
    5.4615   44.0913   52.3729 H   0  0  0  0  0  0  0  0  0  0  0  0
    4.4231   43.3187   53.6308 H   0  0  0  0  0  0  0  0  0  0  0  0
    2.2251   43.3836   51.0381 H   0  0  0  0  0  0  0  0  0  0  0  0
    0.5630   44.0004   50.7495 H   0  0  0  0  0  0  0  0  0  0  0  0
    1.9549   45.1358   50.7495 H   0  0  0  0  0  0  0  0  0  0  0  0
   -1.9996   45.4354   51.8863 H   0  0  0  0  0  0  0  0  0  0  0  0
   -3.6759   43.6589   50.7515 H   0  0  0  0  0  0  0  0  0  0  0  0
   -2.7467   41.2341   51.4417 H   0  0  0  0  0  0  0  0  0  0  0  0
  1  2  1  0
  2  3  2  0
  3  4  1  0
  4  5  1  0
  5  6  1  0
  6  7  1  0
  7  8  1  0
  8  9  1  0
  9 10  1  0
 10 11  2  0
 11 12  1  0
 12 13  2  0
 13 14  1  0
 14 15  2  0
  9 16  1  0
 16 17  1  0
  4 18  2  0
 18 19  1  0
 18 20  1  0
 20 21  1  0
 21 22  1  0
 22 23  2  0
 23 24  1  0
 24 25  2  0
 20 26  2  0
 26  2  1  0
 17  5  1  0
 25 21  1  0
 15 10  1  0
  1 27  1  0
  1 28  1  0
  1 29  1  0
  6 30  1  0
  6 31  1  0
  7 32  1  0
  7 33  1  0
  8 34  1  0
  8 35  1  0
 11 36  1  0
 12 37  1  0
 14 38  1  0
 15 39  1  0
 16 40  1  0
 16 41  1  0
 17 42  1  0
 17 43  1  0
 19 44  1  0
 19 45  1  0
 19 46  1  0
 22 47  1  0
 23 48  1  0
 24 49  1  0
M  END
>  <meeko>  (2) 
{"is_sidechain": [false], "free_energy": -6.511, "intermolecular_energy": -9.515, "internal_energy": -0.165}

$$$$
ligand_24_conformer_4_docked
     RDKit          3D

 49 52  0  0  0  0  0  0  0  0999 V2000
    9.0100   47.2080   51.4880 C   0  0  0  0  0  0  0  0  0  0  0  0
    7.7670   46.3850   51.5620 C   0  0  0  0  0  0  0  0  0  0  0  0
    6.7940   46.7020   52.4510 N   0  0  0  0  0  0  0  0  0  0  0  0
    5.6730   45.9450   52.5740 C   0  0  0  0  0  0  0  0  0  0  0  0
    4.6690   46.3360   53.5200 N   0  0  0  0  0  0  0  0  0  0  0  0
    4.8250   45.9590   54.9260 C   0  0  0  0  0  0  0  0  0  0  0  0
    3.6280   45.1260   55.3980 C   0  0  0  0  0  0  0  0  0  0  0  0
    2.2590   45.7380   55.0120 C   0  0  0  0  0  0  0  0  0  0  0  0
    1.9390   45.6900   53.5690 N   0  0  0  0  0  0  0  0  0  0  0  0
    1.0950   44.6190   53.0760 C   0  0  0  0  0  0  0  0  0  0  0  0
    0.9350   43.4270   53.8090 C   0  0  0  0  0  0  0  0  0  0  0  0
    0.1180   42.4080   53.3130 C   0  0  0  0  0  0  0  0  0  0  0  0
   -0.5220   42.5640   52.1250 N   0  0  0  0  0  0  0  0  0  0  0  0
   -0.3910   43.6990   51.3920 C   0  0  0  0  0  0  0  0  0  0  0  0
    0.4130   44.7450   51.8510 C   0  0  0  0  0  0  0  0  0  0  0  0
    2.4040   46.7350   52.6400 C   0  0  0  0  0  0  0  0  0  0  0  0
    3.7040   47.3700   53.1450 C   0  0  0  0  0  0  0  0  0  0  0  0
    5.5120   44.7930   51.7790 C   0  0  0  0  0  0  0  0  0  0  0  0
    4.3030   43.9080   51.9570 C   0  0  0  0  0  0  0  0  0  0  0  0
    6.5210   44.5030   50.8300 C   0  0  0  0  0  0  0  0  0  0  0  0
    6.4320   43.3870   49.9320 N   0  0  0  0  0  0  0  0  0  0  0  0
    5.8910   42.1800   50.1900 C   0  0  0  0  0  0  0  0  0  0  0  0
    5.9140   41.4350   49.0310 C   0  0  0  0  0  0  0  0  0  0  0  0
    6.4730   42.2730   48.0870 C   0  0  0  0  0  0  0  0  0  0  0  0
    6.7680   43.4600   48.6540 N   0  0  0  0  0  0  0  0  0  0  0  0
    7.6270   45.2920   50.7710 N   0  0  0  0  0  0  0  0  0  0  0  0
    9.3582   47.4386   52.5056 H   0  0  0  0  0  0  0  0  0  0  0  0
    9.7898   46.6471   50.9519 H   0  0  0  0  0  0  0  0  0  0  0  0
    8.7981   48.1449   50.9519 H   0  0  0  0  0  0  0  0  0  0  0  0
    5.7451   45.3673   55.0415 H   0  0  0  0  0  0  0  0  0  0  0  0
    4.8817   46.8740   55.5340 H   0  0  0  0  0  0  0  0  0  0  0  0
    3.7012   44.1250   54.9479 H   0  0  0  0  0  0  0  0  0  0  0  0
    3.6696   45.0934   56.4967 H   0  0  0  0  0  0  0  0  0  0  0  0
    1.4747   45.1895   55.5542 H   0  0  0  0  0  0  0  0  0  0  0  0
    2.3111   46.8034   55.2807 H   0  0  0  0  0  0  0  0  0  0  0  0
    1.4528   43.2985   54.7710 H   0  0  0  0  0  0  0  0  0  0  0  0
   -0.0073   41.4773   53.8858 H   0  0  0  0  0  0  0  0  0  0  0  0
   -0.9202   43.7954   50.4325 H   0  0  0  0  0  0  0  0  0  0  0  0
    0.5130   45.6651   51.2565 H   0  0  0  0  0  0  0  0  0  0  0  0
    2.5817   46.2862   51.6515 H   0  0  0  0  0  0  0  0  0  0  0  0
    1.6324   47.5160   52.5718 H   0  0  0  0  0  0  0  0  0  0  0  0
    4.1345   47.9949   52.3487 H   0  0  0  0  0  0  0  0  0  0  0  0
    3.4792   47.9837   54.0298 H   0  0  0  0  0  0  0  0  0  0  0  0
    4.1079   43.7652   53.0301 H   0  0  0  0  0  0  0  0  0  0  0  0
    3.4293   44.3815   51.4853 H   0  0  0  0  0  0  0  0  0  0  0  0
    4.4903   42.9321   51.4853 H   0  0  0  0  0  0  0  0  0  0  0  0
    5.4976   41.8460   51.1614 H   0  0  0  0  0  0  0  0  0  0  0  0
    5.5644   40.4017   48.8894 H   0  0  0  0  0  0  0  0  0  0  0  0
    6.6506   42.0121   47.0333 H   0  0  0  0  0  0  0  0  0  0  0  0
  1  2  1  0
  2  3  2  0
  3  4  1  0
  4  5  1  0
  5  6  1  0
  6  7  1  0
  7  8  1  0
  8  9  1  0
  9 10  1  0
 10 11  2  0
 11 12  1  0
 12 13  2  0
 13 14  1  0
 14 15  2  0
  9 16  1  0
 16 17  1  0
  4 18  2  0
 18 19  1  0
 18 20  1  0
 20 21  1  0
 21 22  1  0
 22 23  2  0
 23 24  1  0
 24 25  2  0
 20 26  2  0
 26  2  1  0
 17  5  1  0
 25 21  1  0
 15 10  1  0
  1 27  1  0
  1 28  1  0
  1 29  1  0
  6 30  1  0
  6 31  1  0
  7 32  1  0
  7 33  1  0
  8 34  1  0
  8 35  1  0
 11 36  1  0
 12 37  1  0
 14 38  1  0
 15 39  1  0
 16 40  1  0
 16 41  1  0
 17 42  1  0
 17 43  1  0
 19 44  1  0
 19 45  1  0
 19 46  1  0
 22 47  1  0
 23 48  1  0
 24 49  1  0
M  END
>  <meeko>  (3) 
{"is_sidechain": [false], "free_energy": -6.409, "intermolecular_energy": -9.812, "internal_energy": 0.287}

$$$$
ligand_24_conformer_4_docked
     RDKit          3D

 49 52  0  0  0  0  0  0  0  0999 V2000
    0.9770   43.0590   50.8540 C   0  0  0  0  0  0  0  0  0  0  0  0
    1.0680   43.7480   52.1750 C   0  0  0  0  0  0  0  0  0  0  0  0
    2.2290   44.3340   52.5580 N   0  0  0  0  0  0  0  0  0  0  0  0
    2.3560   44.9260   53.7730 C   0  0  0  0  0  0  0  0  0  0  0  0
    3.6020   45.5450   54.1190 N   0  0  0  0  0  0  0  0  0  0  0  0
    4.6800   44.7230   54.6730 C   0  0  0  0  0  0  0  0  0  0  0  0
    5.9110   45.5840   54.9820 C   0  0  0  0  0  0  0  0  0  0  0  0
    6.6770   46.0510   53.7170 C   0  0  0  0  0  0  0  0  0  0  0  0
    5.9020   46.0190   52.4570 N   0  0  0  0  0  0  0  0  0  0  0  0
    6.3430   45.1430   51.3890 C   0  0  0  0  0  0  0  0  0  0  0  0
    7.5330   45.4040   50.6830 C   0  0  0  0  0  0  0  0  0  0  0  0
    7.9360   44.5470   49.6560 C   0  0  0  0  0  0  0  0  0  0  0  0
    7.1820   43.4630   49.3360 N   0  0  0  0  0  0  0  0  0  0  0  0
    6.0290   43.1810   49.9960 C   0  0  0  0  0  0  0  0  0  0  0  0
    5.5900   44.0080   51.0310 C   0  0  0  0  0  0  0  0  0  0  0  0
    4.6670   46.8040   52.2910 C   0  0  0  0  0  0  0  0  0  0  0  0
    3.8940   46.8850   53.6110 C   0  0  0  0  0  0  0  0  0  0  0  0
    1.2710   44.9240   54.6730 C   0  0  0  0  0  0  0  0  0  0  0  0
    1.4250   45.5200   56.0510 C   0  0  0  0  0  0  0  0  0  0  0  0
    0.0570   44.3420   54.2380 C   0  0  0  0  0  0  0  0  0  0  0  0
   -1.1250   44.3340   55.0510 N   0  0  0  0  0  0  0  0  0  0  0  0
   -2.0190   45.3330   55.1940 C   0  0  0  0  0  0  0  0  0  0  0  0
   -3.0570   44.8810   55.9780 C   0  0  0  0  0  0  0  0  0  0  0  0
   -2.7350   43.5690   56.2640 C   0  0  0  0  0  0  0  0  0  0  0  0
   -1.5620   43.2540   55.6790 N   0  0  0  0  0  0  0  0  0  0  0  0
    0.0030   43.7490   53.0150 N   0  0  0  0  0  0  0  0  0  0  0  0
    0.8345   41.9798   51.0124 H   0  0  0  0  0  0  0  0  0  0  0  0
    0.1243   43.4623   50.2881 H   0  0  0  0  0  0  0  0  0  0  0  0
    1.9051   43.2271   50.2881 H   0  0  0  0  0  0  0  0  0  0  0  0
    4.3306   44.2458   55.6004 H   0  0  0  0  0  0  0  0  0  0  0  0
    4.9588   43.9582   53.9332 H   0  0  0  0  0  0  0  0  0  0  0  0
    5.5817   46.4746   55.5374 H   0  0  0  0  0  0  0  0  0  0  0  0
    6.6032   44.9587   55.5651 H   0  0  0  0  0  0  0  0  0  0  0  0
    7.0095   47.0861   53.8846 H   0  0  0  0  0  0  0  0  0  0  0  0
    7.5031   45.3372   53.5825 H   0  0  0  0  0  0  0  0  0  0  0  0
    8.1445   46.2816   50.9398 H   0  0  0  0  0  0  0  0  0  0  0  0
    8.8661   44.7503   49.1050 H   0  0  0  0  0  0  0  0  0  0  0  0
    5.4386   42.2969   49.7136 H   0  0  0  0  0  0  0  0  0  0  0  0
    4.6578   43.7738   51.5660 H   0  0  0  0  0  0  0  0  0  0  0  0
    4.9272   47.8209   51.9622 H   0  0  0  0  0  0  0  0  0  0  0  0
    4.0328   46.3101   51.5401 H   0  0  0  0  0  0  0  0  0  0  0  0
    4.4990   47.4286   54.3516 H   0  0  0  0  0  0  0  0  0  0  0  0
    2.9448   47.4123   53.4346 H   0  0  0  0  0  0  0  0  0  0  0  0
    1.2255   44.7480   56.8088 H   0  0  0  0  0  0  0  0  0  0  0  0
    2.4504   45.8985   56.1743 H   0  0  0  0  0  0  0  0  0  0  0  0
    0.7113   46.3479   56.1743 H   0  0  0  0  0  0  0  0  0  0  0  0
   -1.9337   46.3393   54.7580 H   0  0  0  0  0  0  0  0  0  0  0  0
   -3.9458   45.4410   56.3042 H   0  0  0  0  0  0  0  0  0  0  0  0
   -3.3425   42.8856   56.8755 H   0  0  0  0  0  0  0  0  0  0  0  0
  1  2  1  0
  2  3  2  0
  3  4  1  0
  4  5  1  0
  5  6  1  0
  6  7  1  0
  7  8  1  0
  8  9  1  0
  9 10  1  0
 10 11  2  0
 11 12  1  0
 12 13  2  0
 13 14  1  0
 14 15  2  0
  9 16  1  0
 16 17  1  0
  4 18  2  0
 18 19  1  0
 18 20  1  0
 20 21  1  0
 21 22  1  0
 22 23  2  0
 23 24  1  0
 24 25  2  0
 20 26  2  0
 26  2  1  0
 17  5  1  0
 25 21  1  0
 15 10  1  0
  1 27  1  0
  1 28  1  0
  1 29  1  0
  6 30  1  0
  6 31  1  0
  7 32  1  0
  7 33  1  0
  8 34  1  0
  8 35  1  0
 11 36  1  0
 12 37  1  0
 14 38  1  0
 15 39  1  0
 16 40  1  0
 16 41  1  0
 17 42  1  0
 17 43  1  0
 19 44  1  0
 19 45  1  0
 19 46  1  0
 22 47  1  0
 23 48  1  0
 24 49  1  0
M  END
>  <meeko>  (4) 
{"is_sidechain": [false], "free_energy": -6.393, "intermolecular_energy": -9.073, "internal_energy": -0.427}

$$$$
ligand_24_conformer_4_docked
     RDKit          3D

 49 52  0  0  0  0  0  0  0  0999 V2000
    3.8090   41.2000   50.0990 C   0  0  0  0  0  0  0  0  0  0  0  0
    3.0590   42.2660   50.8270 C   0  0  0  0  0  0  0  0  0  0  0  0
    3.7330   43.2210   51.5150 N   0  0  0  0  0  0  0  0  0  0  0  0
    3.0790   44.1760   52.2260 C   0  0  0  0  0  0  0  0  0  0  0  0
    3.8410   45.1710   52.9220 N   0  0  0  0  0  0  0  0  0  0  0  0
    3.9220   46.5250   52.3700 C   0  0  0  0  0  0  0  0  0  0  0  0
    4.0020   47.5630   53.4960 C   0  0  0  0  0  0  0  0  0  0  0  0
    5.3840   47.5990   54.1960 C   0  0  0  0  0  0  0  0  0  0  0  0
    6.2050   46.3830   54.0060 N   0  0  0  0  0  0  0  0  0  0  0  0
    7.5160   46.5130   53.4000 C   0  0  0  0  0  0  0  0  0  0  0  0
    8.6470   46.8250   54.1800 C   0  0  0  0  0  0  0  0  0  0  0  0
    9.8990   46.9470   53.5720 C   0  0  0  0  0  0  0  0  0  0  0  0
   10.0280   46.7670   52.2320 N   0  0  0  0  0  0  0  0  0  0  0  0
    8.9600   46.4660   51.4500 C   0  0  0  0  0  0  0  0  0  0  0  0
    7.6900   46.3300   52.0150 C   0  0  0  0  0  0  0  0  0  0  0  0
    5.7490   45.0630   54.4750 C   0  0  0  0  0  0  0  0  0  0  0  0
    4.2320   44.9240   54.3090 C   0  0  0  0  0  0  0  0  0  0  0  0
    1.6700   44.1760   52.2720 C   0  0  0  0  0  0  0  0  0  0  0  0
    0.9370   45.1910   53.1140 C   0  0  0  0  0  0  0  0  0  0  0  0
    0.9870   43.1950   51.5140 C   0  0  0  0  0  0  0  0  0  0  0  0
   -0.4450   43.1380   51.4460 N   0  0  0  0  0  0  0  0  0  0  0  0
   -1.2350   43.6980   50.5080 C   0  0  0  0  0  0  0  0  0  0  0  0
   -2.5370   43.3170   50.7510 C   0  0  0  0  0  0  0  0  0  0  0  0
   -2.4610   42.4930   51.8570 C   0  0  0  0  0  0  0  0  0  0  0  0
   -1.1770   42.3880   52.2540 N   0  0  0  0  0  0  0  0  0  0  0  0
    1.7030   42.2560   50.8400 N   0  0  0  0  0  0  0  0  0  0  0  0
    4.2842   40.5246   50.8256 H   0  0  0  0  0  0  0  0  0  0  0  0
    3.1131   40.6282   49.4675 H   0  0  0  0  0  0  0  0  0  0  0  0
    4.5823   41.6618   49.4675 H   0  0  0  0  0  0  0  0  0  0  0  0
    4.8200   46.6054   51.7398 H   0  0  0  0  0  0  0  0  0  0  0  0
    3.0191   46.7189   51.7724 H   0  0  0  0  0  0  0  0  0  0  0  0
    3.7997   48.5569   53.0703 H   0  0  0  0  0  0  0  0  0  0  0  0
    3.2583   47.2796   54.2553 H   0  0  0  0  0  0  0  0  0  0  0  0
    5.9464   48.4575   53.8001 H   0  0  0  0  0  0  0  0  0  0  0  0
    5.1839   47.6733   55.2751 H   0  0  0  0  0  0  0  0  0  0  0  0
    8.5446   46.9722   55.2653 H   0  0  0  0  0  0  0  0  0  0  0  0
   10.7828   47.1895   54.1803 H   0  0  0  0  0  0  0  0  0  0  0  0
    9.0954   46.3287   50.3670 H   0  0  0  0  0  0  0  0  0  0  0  0
    6.8277   46.0805   51.3793 H   0  0  0  0  0  0  0  0  0  0  0  0
    6.2499   44.2786   53.8886 H   0  0  0  0  0  0  0  0  0  0  0  0
    5.9991   44.9606   55.5413 H   0  0  0  0  0  0  0  0  0  0  0  0
    3.9290   43.9057   54.5941 H   0  0  0  0  0  0  0  0  0  0  0  0
    3.7355   45.6636   54.9543 H   0  0  0  0  0  0  0  0  0  0  0  0
    1.0977   44.9685   54.1792 H   0  0  0  0  0  0  0  0  0  0  0  0
    1.3176   46.1981   52.8883 H   0  0  0  0  0  0  0  0  0  0  0  0
   -0.1387   45.1464   52.8883 H   0  0  0  0  0  0  0  0  0  0  0  0
   -0.8976   44.3487   49.6878 H   0  0  0  0  0  0  0  0  0  0  0  0
   -3.4374   43.6053   50.1887 H   0  0  0  0  0  0  0  0  0  0  0  0
   -3.3168   41.9984   52.3397 H   0  0  0  0  0  0  0  0  0  0  0  0
  1  2  1  0
  2  3  2  0
  3  4  1  0
  4  5  1  0
  5  6  1  0
  6  7  1  0
  7  8  1  0
  8  9  1  0
  9 10  1  0
 10 11  2  0
 11 12  1  0
 12 13  2  0
 13 14  1  0
 14 15  2  0
  9 16  1  0
 16 17  1  0
  4 18  2  0
 18 19  1  0
 18 20  1  0
 20 21  1  0
 21 22  1  0
 22 23  2  0
 23 24  1  0
 24 25  2  0
 20 26  2  0
 26  2  1  0
 17  5  1  0
 25 21  1  0
 15 10  1  0
  1 27  1  0
  1 28  1  0
  1 29  1  0
  6 30  1  0
  6 31  1  0
  7 32  1  0
  7 33  1  0
  8 34  1  0
  8 35  1  0
 11 36  1  0
 12 37  1  0
 14 38  1  0
 15 39  1  0
 16 40  1  0
 16 41  1  0
 17 42  1  0
 17 43  1  0
 19 44  1  0
 19 45  1  0
 19 46  1  0
 22 47  1  0
 23 48  1  0
 24 49  1  0
M  END
>  <meeko>  (5) 
{"is_sidechain": [false], "free_energy": -6.361, "intermolecular_energy": -9.269, "internal_energy": -0.181}

$$$$
