MODEL 1
REMARK VINA RESULT:    -9.056      0.000      0.000
REMARK INTER + INTRA:         -11.287
REMARK INTER:                 -10.645
REMARK INTRA:                  -0.642
REMARK UNBOUND:                -0.642
REMARK SMILES O=C(NC1CCOCC1)c1cncc(-c2ccc3c(c2)CCO3)c1
REMARK SMILES IDX 10 1 11 2 12 3 13 4 14 5 24 6 2 7 1 8 3 9 4 11 5 12 9 13
REMARK SMILES IDX 6 14 8 15 7 16 15 17 16 18 20 19 17 20 19 21 18 22 21 23
REMARK SMILES IDX 23 24 22 25
REMARK H PARENT 3 10
ROOT
ATOM      1  C   UNL     1       6.182  43.829  50.623  1.00  0.00     0.058 A 
ATOM      2  C   UNL     1       6.221  42.630  49.895  1.00  0.00     0.124 A 
ATOM      3  N   UNL     1       5.219  41.722  50.012  1.00  0.00    -0.263 NA
ATOM      4  C   UNL     1       4.147  41.936  50.819  1.00  0.00     0.119 A 
ATOM      5  C   UNL     1       4.043  43.122  51.562  1.00  0.00     0.001 A 
ATOM      6  C   UNL     1       5.074  44.071  51.452  1.00  0.00     0.025 A 
ENDROOT
BRANCH   1   7
ATOM      7  C   UNL     1       7.270  44.825  50.490  1.00  0.00     0.253 C 
ATOM      8  O   UNL     1       7.978  44.835  49.446  1.00  0.00    -0.269 OA
ATOM      9  N   UNL     1       7.540  45.767  51.541  1.00  0.00    -0.349 N 
ATOM     10  H   UNL     1       7.172  45.563  52.497  1.00  0.00     0.164 HD
BRANCH   9  11
ATOM     11  C   UNL     1       8.398  46.942  51.336  1.00  0.00     0.086 C 
ATOM     12  C   UNL     1       7.955  48.101  52.244  1.00  0.00     0.053 C 
ATOM     13  C   UNL     1       9.874  46.602  51.616  1.00  0.00     0.053 C 
ATOM     14  C   UNL     1       8.343  47.820  53.701  1.00  0.00     0.162 C 
ATOM     15  C   UNL     1      10.130  46.459  53.126  1.00  0.00     0.162 C 
ATOM     16  O   UNL     1       9.742  47.631  53.819  1.00  0.00    -0.381 OA
ENDBRANCH   9  11
ENDBRANCH   1   7
BRANCH   5  17
ATOM     17  C   UNL     1       2.871  43.371  52.440  1.00  0.00    -0.016 A 
ATOM     18  C   UNL     1       1.639  42.712  52.202  1.00  0.00     0.012 A 
ATOM     19  C   UNL     1       2.970  44.274  53.525  1.00  0.00     0.016 A 
ATOM     20  C   UNL     1       0.528  42.948  53.029  1.00  0.00     0.047 A 
ATOM     21  C   UNL     1       1.849  44.485  54.327  1.00  0.00    -0.002 A 
ATOM     22  C   UNL     1       0.671  43.843  54.085  1.00  0.00     0.122 A 
ATOM     23  C   UNL     1       1.708  45.371  55.512  1.00  0.00     0.081 C 
ATOM     24  O   UNL     1      -0.295  44.201  54.999  1.00  0.00    -0.493 OA
ATOM     25  C   UNL     1       0.235  45.143  55.931  1.00  0.00     0.234 C 
ENDBRANCH   5  17
TORSDOF 3
ENDMDL
MODEL 2
REMARK VINA RESULT:    -8.466      3.087      8.572
REMARK INTER + INTRA:         -10.593
REMARK INTER:                  -9.987
REMARK INTRA:                  -0.606
REMARK UNBOUND:                -0.642
REMARK SMILES O=C(NC1CCOCC1)c1cncc(-c2ccc3c(c2)CCO3)c1
REMARK SMILES IDX 10 1 11 2 12 3 13 4 14 5 24 6 2 7 1 8 3 9 4 11 5 12 9 13
REMARK SMILES IDX 6 14 8 15 7 16 15 17 16 18 20 19 17 20 19 21 18 22 21 23
REMARK SMILES IDX 23 24 22 25
REMARK H PARENT 3 10
ROOT
ATOM      1  C   UNL     1       2.131  44.945  51.685  1.00  0.00     0.058 A 
ATOM      2  C   UNL     1       1.600  46.051  52.367  1.00  0.00     0.124 A 
ATOM      3  N   UNL     1       2.416  47.044  52.806  1.00  0.00    -0.263 NA
ATOM      4  C   UNL     1       3.758  47.014  52.599  1.00  0.00     0.119 A 
ATOM      5  C   UNL     1       4.347  45.942  51.912  1.00  0.00     0.001 A 
ATOM      6  C   UNL     1       3.515  44.906  51.452  1.00  0.00     0.025 A 
ENDROOT
BRANCH   1   7
ATOM      7  C   UNL     1       1.242  43.866  51.198  1.00  0.00     0.253 C 
ATOM      8  O   UNL     1       1.693  42.693  51.086  1.00  0.00    -0.269 OA
ATOM      9  N   UNL     1      -0.122  44.140  50.835  1.00  0.00    -0.349 N 
ATOM     10  H   UNL     1      -0.393  45.129  50.639  1.00  0.00     0.164 HD
BRANCH   9  11
ATOM     11  C   UNL     1      -1.106  43.069  50.632  1.00  0.00     0.086 C 
ATOM     12  C   UNL     1      -1.708  42.625  51.976  1.00  0.00     0.053 C 
ATOM     13  C   UNL     1      -2.234  43.529  49.689  1.00  0.00     0.053 C 
ATOM     14  C   UNL     1      -2.674  43.690  52.510  1.00  0.00     0.162 C 
ATOM     15  C   UNL     1      -3.183  44.507  50.401  1.00  0.00     0.162 C 
ATOM     16  O   UNL     1      -3.714  43.932  51.580  1.00  0.00    -0.381 OA
ENDBRANCH   9  11
ENDBRANCH   1   7
BRANCH   5  17
ATOM     17  C   UNL     1       5.813  45.903  51.671  1.00  0.00    -0.016 A 
ATOM     18  C   UNL     1       6.334  45.305  50.496  1.00  0.00     0.012 A 
ATOM     19  C   UNL     1       6.707  46.461  52.615  1.00  0.00     0.016 A 
ATOM     20  C   UNL     1       7.719  45.265  50.267  1.00  0.00     0.047 A 
ATOM     21  C   UNL     1       8.076  46.405  52.356  1.00  0.00    -0.002 A 
ATOM     22  C   UNL     1       8.562  45.827  51.222  1.00  0.00     0.122 A 
ATOM     23  C   UNL     1       9.199  46.918  53.184  1.00  0.00     0.081 C 
ATOM     24  O   UNL     1       9.937  45.886  51.175  1.00  0.00    -0.493 OA
ATOM     25  C   UNL     1      10.441  46.540  52.339  1.00  0.00     0.234 C 
ENDBRANCH   5  17
TORSDOF 3
ENDMDL
MODEL 3
REMARK VINA RESULT:    -8.244      2.700      8.032
REMARK INTER + INTRA:         -10.332
REMARK INTER:                  -9.687
REMARK INTRA:                  -0.645
REMARK UNBOUND:                -0.642
REMARK SMILES O=C(NC1CCOCC1)c1cncc(-c2ccc3c(c2)CCO3)c1
REMARK SMILES IDX 10 1 11 2 12 3 13 4 14 5 24 6 2 7 1 8 3 9 4 11 5 12 9 13
REMARK SMILES IDX 6 14 8 15 7 16 15 17 16 18 20 19 17 20 19 21 18 22 21 23
REMARK SMILES IDX 23 24 22 25
REMARK H PARENT 3 10
ROOT
ATOM      1  C   UNL     1       1.947  45.105  53.077  1.00  0.00     0.058 A 
ATOM      2  C   UNL     1       1.563  45.291  51.740  1.00  0.00     0.124 A 
ATOM      3  N   UNL     1       2.456  45.747  50.826  1.00  0.00    -0.263 NA
ATOM      4  C   UNL     1       3.742  46.031  51.158  1.00  0.00     0.119 A 
ATOM      5  C   UNL     1       4.191  45.853  52.476  1.00  0.00     0.001 A 
ATOM      6  C   UNL     1       3.277  45.381  53.434  1.00  0.00     0.025 A 
ENDROOT
BRANCH   1   7
ATOM      7  C   UNL     1       0.976  44.598  54.074  1.00  0.00     0.253 C 
ATOM      8  O   UNL     1       0.656  43.378  54.064  1.00  0.00    -0.269 OA
ATOM      9  N   UNL     1       0.382  45.481  55.040  1.00  0.00    -0.349 N 
ATOM     10  H   UNL     1       0.409  46.508  54.855  1.00  0.00     0.164 HD
BRANCH   9  11
ATOM     11  C   UNL     1      -0.346  44.978  56.213  1.00  0.00     0.086 C 
ATOM     12  C   UNL     1       0.556  45.001  57.459  1.00  0.00     0.053 C 
ATOM     13  C   UNL     1      -1.611  45.816  56.477  1.00  0.00     0.053 C 
ATOM     14  C   UNL     1       0.759  46.440  57.949  1.00  0.00     0.162 C 
ATOM     15  C   UNL     1      -1.251  47.188  57.069  1.00  0.00     0.162 C 
ATOM     16  O   UNL     1      -0.484  47.046  58.250  1.00  0.00    -0.381 OA
ENDBRANCH   9  11
ENDBRANCH   1   7
BRANCH   5  17
ATOM     17  C   UNL     1       5.598  46.149  52.850  1.00  0.00    -0.016 A 
ATOM     18  C   UNL     1       5.921  46.563  54.167  1.00  0.00     0.012 A 
ATOM     19  C   UNL     1       6.633  46.025  51.893  1.00  0.00     0.016 A 
ATOM     20  C   UNL     1       7.251  46.847  54.522  1.00  0.00     0.047 A 
ATOM     21  C   UNL     1       7.941  46.314  52.279  1.00  0.00    -0.002 A 
ATOM     22  C   UNL     1       8.236  46.710  53.549  1.00  0.00     0.122 A 
ATOM     23  C   UNL     1       9.184  46.254  51.465  1.00  0.00     0.081 C 
ATOM     24  O   UNL     1       9.585  46.939  53.704  1.00  0.00    -0.493 OA
ATOM     25  C   UNL     1      10.271  46.689  52.478  1.00  0.00     0.234 C 
ENDBRANCH   5  17
TORSDOF 3
ENDMDL
MODEL 4
REMARK VINA RESULT:    -8.150      2.117      3.393
REMARK INTER + INTRA:         -10.221
REMARK INTER:                  -9.612
REMARK INTRA:                  -0.610
REMARK UNBOUND:                -0.642
REMARK SMILES O=C(NC1CCOCC1)c1cncc(-c2ccc3c(c2)CCO3)c1
REMARK SMILES IDX 10 1 11 2 12 3 13 4 14 5 24 6 2 7 1 8 3 9 4 11 5 12 9 13
REMARK SMILES IDX 6 14 8 15 7 16 15 17 16 18 20 19 17 20 19 21 18 22 21 23
REMARK SMILES IDX 23 24 22 25
REMARK H PARENT 3 10
ROOT
ATOM      1  C   UNL     1       4.481  45.949  53.148  1.00  0.00     0.058 A 
ATOM      2  C   UNL     1       4.613  44.879  52.250  1.00  0.00     0.124 A 
ATOM      3  N   UNL     1       3.717  43.858  52.262  1.00  0.00    -0.263 NA
ATOM      4  C   UNL     1       2.667  43.834  53.123  1.00  0.00     0.119 A 
ATOM      5  C   UNL     1       2.474  44.882  54.037  1.00  0.00     0.001 A 
ATOM      6  C   UNL     1       3.393  45.945  54.036  1.00  0.00     0.025 A 
ENDROOT
BRANCH   1   7
ATOM      7  C   UNL     1       5.452  47.068  53.131  1.00  0.00     0.253 C 
ATOM      8  O   UNL     1       5.137  48.170  53.658  1.00  0.00    -0.269 OA
ATOM      9  N   UNL     1       6.738  46.919  52.507  1.00  0.00    -0.349 N 
ATOM     10  H   UNL     1       6.871  46.139  51.825  1.00  0.00     0.164 HD
BRANCH   9  11
ATOM     11  C   UNL     1       7.825  47.884  52.720  1.00  0.00     0.086 C 
ATOM     12  C   UNL     1       8.606  47.545  54.001  1.00  0.00     0.053 C 
ATOM     13  C   UNL     1       8.789  47.902  51.518  1.00  0.00     0.053 C 
ATOM     14  C   UNL     1       9.478  46.302  53.785  1.00  0.00     0.162 C 
ATOM     15  C   UNL     1       9.672  46.644  51.500  1.00  0.00     0.162 C 
ATOM     16  O   UNL     1      10.384  46.506  52.716  1.00  0.00    -0.381 OA
ENDBRANCH   9  11
ENDBRANCH   1   7
BRANCH   5  17
ATOM     17  C   UNL     1       1.324  44.872  54.977  1.00  0.00    -0.016 A 
ATOM     18  C   UNL     1       1.485  45.305  56.317  1.00  0.00     0.012 A 
ATOM     19  C   UNL     1       0.052  44.428  54.545  1.00  0.00     0.016 A 
ATOM     20  C   UNL     1       0.400  45.294  57.209  1.00  0.00     0.047 A 
ATOM     21  C   UNL     1      -1.004  44.430  55.456  1.00  0.00    -0.002 A 
ATOM     22  C   UNL     1      -0.833  44.849  56.741  1.00  0.00     0.122 A 
ATOM     23  C   UNL     1      -2.416  44.018  55.241  1.00  0.00     0.081 C 
ATOM     24  O   UNL     1      -2.006  44.767  57.458  1.00  0.00    -0.493 OA
ATOM     25  C   UNL     1      -3.054  44.264  56.630  1.00  0.00     0.234 C 
ENDBRANCH   5  17
TORSDOF 3
ENDMDL
MODEL 5
REMARK VINA RESULT:    -8.007      2.884      8.455
REMARK INTER + INTRA:         -10.053
REMARK INTER:                  -9.455
REMARK INTRA:                  -0.599
REMARK UNBOUND:                -0.642
REMARK SMILES O=C(NC1CCOCC1)c1cncc(-c2ccc3c(c2)CCO3)c1
REMARK SMILES IDX 10 1 11 2 12 3 13 4 14 5 24 6 2 7 1 8 3 9 4 11 5 12 9 13
REMARK SMILES IDX 6 14 8 15 7 16 15 17 16 18 20 19 17 20 19 21 18 22 21 23
REMARK SMILES IDX 23 24 22 25
REMARK H PARENT 3 10
ROOT
ATOM      1  C   UNL     1       1.985  45.494  53.762  1.00  0.00     0.058 A 
ATOM      2  C   UNL     1       1.195  45.567  52.604  1.00  0.00     0.124 A 
ATOM      3  N   UNL     1       1.767  45.818  51.399  1.00  0.00    -0.263 NA
ATOM      4  C   UNL     1       3.106  45.998  51.262  1.00  0.00     0.119 A 
ATOM      5  C   UNL     1       3.950  45.923  52.381  1.00  0.00     0.001 A 
ATOM      6  C   UNL     1       3.373  45.664  53.636  1.00  0.00     0.025 A 
ENDROOT
BRANCH   1   7
ATOM      7  C   UNL     1       1.365  45.212  55.077  1.00  0.00     0.253 C 
ATOM      8  O   UNL     1       2.019  44.575  55.948  1.00  0.00    -0.269 OA
ATOM      9  N   UNL     1       0.023  45.638  55.368  1.00  0.00    -0.349 N 
ATOM     10  H   UNL     1      -0.604  45.880  54.568  1.00  0.00     0.164 HD
BRANCH   9  11
ATOM     11  C   UNL     1      -0.517  45.640  56.734  1.00  0.00     0.086 C 
ATOM     12  C   UNL     1      -1.383  46.889  56.970  1.00  0.00     0.053 C 
ATOM     13  C   UNL     1      -1.355  44.374  56.997  1.00  0.00     0.053 C 
ATOM     14  C   UNL     1      -2.718  46.766  56.225  1.00  0.00     0.162 C 
ATOM     15  C   UNL     1      -2.709  44.448  56.272  1.00  0.00     0.162 C 
ATOM     16  O   UNL     1      -3.422  45.612  56.647  1.00  0.00    -0.381 OA
ENDBRANCH   9  11
ENDBRANCH   1   7
BRANCH   5  17
ATOM     17  C   UNL     1       5.418  46.107  52.243  1.00  0.00    -0.016 A 
ATOM     18  C   UNL     1       6.082  45.731  51.048  1.00  0.00     0.012 A 
ATOM     19  C   UNL     1       6.172  46.659  53.305  1.00  0.00     0.016 A 
ATOM     20  C   UNL     1       7.470  45.902  50.916  1.00  0.00     0.047 A 
ATOM     21  C   UNL     1       7.548  46.815  53.140  1.00  0.00    -0.002 A 
ATOM     22  C   UNL     1       8.172  46.449  51.986  1.00  0.00     0.122 A 
ATOM     23  C   UNL     1       8.541  47.368  54.099  1.00  0.00     0.081 C 
ATOM     24  O   UNL     1       9.525  46.693  52.045  1.00  0.00    -0.493 OA
ATOM     25  C   UNL     1       9.868  47.262  53.309  1.00  0.00     0.234 C 
ENDBRANCH   5  17
TORSDOF 3
ENDMDL
