ligand_0_conformer_2_docked
     RDKit          3D

 45 48  0  0  0  0  0  0  0  0999 V2000
    7.2830   42.6760   49.3850 C   0  0  0  0  0  0  0  0  0  0  0  0
    6.5560   41.5380   49.7440 C   0  0  0  0  0  0  0  0  0  0  0  0
    5.3660   41.6670   50.4670 C   0  0  0  0  0  0  0  0  0  0  0  0
    4.8840   42.9360   50.8230 C   0  0  0  0  0  0  0  0  0  0  0  0
    3.6650   43.0410   51.5780 N   0  0  0  0  0  0  0  0  0  0  0  0
    3.5290   43.8190   52.7760 C   0  0  0  0  0  0  0  0  0  0  0  0
    4.5930   44.5360   53.2690 N   0  0  0  0  0  0  0  0  0  0  0  0
    4.4850   45.2980   54.3970 C   0  0  0  0  0  0  0  0  0  0  0  0
    5.5740   46.0100   54.9040 O   0  0  0  0  0  0  0  0  0  0  0  0
    6.8930   45.8570   54.3880 C   0  0  0  0  0  0  0  0  0  0  0  0
    7.3920   47.1930   53.8050 C   0  0  0  0  0  0  0  0  0  0  0  0
    7.4320   47.1650   52.2620 C   0  0  0  0  0  0  0  0  0  0  0  0
    8.5930   46.3170   51.7210 C   0  0  0  0  0  0  0  0  0  0  0  0
    9.9340   46.7860   52.2940 C   0  0  0  0  0  0  0  0  0  0  0  0
    9.9190   46.7670   53.8260 C   0  0  0  0  0  0  0  0  0  0  0  0
    8.7640   47.6130   54.3810 C   0  0  0  0  0  0  0  0  0  0  0  0
    3.2510   45.3350   55.0250 C   0  0  0  0  0  0  0  0  0  0  0  0
    2.8620   45.9860   56.1260 N   0  0  0  0  0  0  0  0  0  0  0  0
    1.5540   45.6480   56.2540 C   0  0  0  0  0  0  0  0  0  0  0  0
    1.1070   44.8090   55.2770 N   0  0  0  0  0  0  0  0  0  0  0  0
    2.2070   44.6370   54.5250 C   0  0  0  0  0  0  0  0  0  0  0  0
    2.3150   43.8780   53.4080 N   0  0  0  0  0  0  0  0  0  0  0  0
    5.6360   44.0760   50.4800 C   0  0  0  0  0  0  0  0  0  0  0  0
    6.8250   43.9440   49.7560 C   0  0  0  0  0  0  0  0  0  0  0  0
    8.2156   42.5744   48.8106 H   0  0  0  0  0  0  0  0  0  0  0  0
    6.9199   40.5402   49.4578 H   0  0  0  0  0  0  0  0  0  0  0  0
    4.8039   40.7676   50.7587 H   0  0  0  0  0  0  0  0  0  0  0  0
    2.8000   42.6050   51.1850 H   0  0  0  0  0  0  0  0  0  0  0  0
    7.5660   45.5396   55.1981 H   0  0  0  0  0  0  0  0  0  0  0  0
    6.8821   45.0984   53.5915 H   0  0  0  0  0  0  0  0  0  0  0  0
    6.6606   47.9545   54.1135 H   0  0  0  0  0  0  0  0  0  0  0  0
    6.4853   46.7447   51.8918 H   0  0  0  0  0  0  0  0  0  0  0  0
    7.5794   48.1973   51.9118 H   0  0  0  0  0  0  0  0  0  0  0  0
    8.4308   45.2658   52.0013 H   0  0  0  0  0  0  0  0  0  0  0  0
    8.6241   46.4257   50.6268 H   0  0  0  0  0  0  0  0  0  0  0  0
   10.7309   46.1183   51.9347 H   0  0  0  0  0  0  0  0  0  0  0  0
   10.1133   47.8187   51.9602 H   0  0  0  0  0  0  0  0  0  0  0  0
    9.8013   45.7291   54.1707 H   0  0  0  0  0  0  0  0  0  0  0  0
   10.8669   47.1913   54.1887 H   0  0  0  0  0  0  0  0  0  0  0  0
    8.7372   47.4990   55.4747 H   0  0  0  0  0  0  0  0  0  0  0  0
    8.9440   48.6577   54.0874 H   0  0  0  0  0  0  0  0  0  0  0  0
    3.4270   46.6110   56.7420 H   0  0  0  0  0  0  0  0  0  0  0  0
    0.9144   46.0165   57.0696 H   0  0  0  0  0  0  0  0  0  0  0  0
    5.2868   45.0742   50.7827 H   0  0  0  0  0  0  0  0  0  0  0  0
    7.4009   44.8390   49.4779 H   0  0  0  0  0  0  0  0  0  0  0  0
  1  2  2  0
  2  3  1  0
  3  4  2  0
  4  5  1  0
  5  6  1  0
  6  7  2  0
  7  8  1  0
  8  9  1  0
  9 10  1  0
 10 11  1  0
 11 12  1  0
 12 13  1  0
 13 14  1  0
 14 15  1  0
 15 16  1  0
  8 17  2  0
 17 18  1  0
 18 19  1  0
 19 20  2  0
 20 21  1  0
 21 22  2  0
  4 23  1  0
 23 24  2  0
 24  1  1  0
 22  6  1  0
 16 11  1  0
 21 17  1  0
  1 25  1  0
  2 26  1  0
  3 27  1  0
  5 28  1  0
 10 29  1  0
 10 30  1  0
 11 31  1  0
 12 32  1  0
 12 33  1  0
 13 34  1  0
 13 35  1  0
 14 36  1  0
 14 37  1  0
 15 38  1  0
 15 39  1  0
 16 40  1  0
 16 41  1  0
 18 42  1  0
 19 43  1  0
 23 44  1  0
 24 45  1  0
M  END
>  <meeko>  (1) 
{"is_sidechain": [false], "free_energy": -9.629, "intermolecular_energy": -12.444, "internal_energy": -0.598}

$$$$
ligand_0_conformer_2_docked
     RDKit          3D

 45 48  0  0  0  0  0  0  0  0999 V2000
    9.4970   47.6310   53.3190 C   0  0  0  0  0  0  0  0  0  0  0  0
    8.3840   48.1100   52.6220 C   0  0  0  0  0  0  0  0  0  0  0  0
    7.8440   47.3650   51.5690 C   0  0  0  0  0  0  0  0  0  0  0  0
    8.4020   46.1270   51.2140 C   0  0  0  0  0  0  0  0  0  0  0  0
    7.8370   45.3870   50.1190 N   0  0  0  0  0  0  0  0  0  0  0  0
    6.8330   44.3730   50.2700 C   0  0  0  0  0  0  0  0  0  0  0  0
    5.9150   44.4440   51.2900 N   0  0  0  0  0  0  0  0  0  0  0  0
    4.9380   43.5020   51.4460 C   0  0  0  0  0  0  0  0  0  0  0  0
    4.0200   43.5680   52.4950 O   0  0  0  0  0  0  0  0  0  0  0  0
    3.5160   44.8060   52.9900 C   0  0  0  0  0  0  0  0  0  0  0  0
    3.8360   44.9440   54.4920 C   0  0  0  0  0  0  0  0  0  0  0  0
    3.5710   46.3760   55.0040 C   0  0  0  0  0  0  0  0  0  0  0  0
    4.6350   47.3760   54.5250 C   0  0  0  0  0  0  0  0  0  0  0  0
    6.0430   46.9100   54.9100 C   0  0  0  0  0  0  0  0  0  0  0  0
    6.3320   45.5100   54.3590 C   0  0  0  0  0  0  0  0  0  0  0  0
    5.2770   44.4980   54.8320 C   0  0  0  0  0  0  0  0  0  0  0  0
    4.8960   42.4710   50.5210 C   0  0  0  0  0  0  0  0  0  0  0  0
    4.0630   41.4290   50.4290 N   0  0  0  0  0  0  0  0  0  0  0  0
    4.5030   40.7630   49.3310 C   0  0  0  0  0  0  0  0  0  0  0  0
    5.5800   41.3460   48.7320 N   0  0  0  0  0  0  0  0  0  0  0  0
    5.7950   42.4170   49.5140 C   0  0  0  0  0  0  0  0  0  0  0  0
    6.7660   43.3500   49.3610 N   0  0  0  0  0  0  0  0  0  0  0  0
    9.5390   45.6650   51.9040 C   0  0  0  0  0  0  0  0  0  0  0  0
   10.0760   46.4110   52.9580 C   0  0  0  0  0  0  0  0  0  0  0  0
    9.9172   48.2142   54.1516 H   0  0  0  0  0  0  0  0  0  0  0  0
    7.9328   49.0733   52.9020 H   0  0  0  0  0  0  0  0  0  0  0  0
    6.9759   47.7519   51.0151 H   0  0  0  0  0  0  0  0  0  0  0  0
    8.1000   45.6640   49.1460 H   0  0  0  0  0  0  0  0  0  0  0  0
    3.9843   45.6357   52.4402 H   0  0  0  0  0  0  0  0  0  0  0  0
    2.4253   44.8334   52.8496 H   0  0  0  0  0  0  0  0  0  0  0  0
    3.1503   44.2621   55.0162 H   0  0  0  0  0  0  0  0  0  0  0  0
    2.5870   46.7052   54.6388 H   0  0  0  0  0  0  0  0  0  0  0  0
    3.6053   46.3508   56.1032 H   0  0  0  0  0  0  0  0  0  0  0  0
    4.5740   47.4688   53.4306 H   0  0  0  0  0  0  0  0  0  0  0  0
    4.4443   48.3464   55.0065 H   0  0  0  0  0  0  0  0  0  0  0  0
    6.7797   47.6164   54.4997 H   0  0  0  0  0  0  0  0  0  0  0  0
    6.1105   46.8738   56.0073 H   0  0  0  0  0  0  0  0  0  0  0  0
    6.3248   45.5485   53.2597 H   0  0  0  0  0  0  0  0  0  0  0  0
    7.3159   45.1862   54.7293 H   0  0  0  0  0  0  0  0  0  0  0  0
    5.4716   43.5313   54.3445 H   0  0  0  0  0  0  0  0  0  0  0  0
    5.3541   44.4210   55.9266 H   0  0  0  0  0  0  0  0  0  0  0  0
    3.2610   41.1840   51.0500 H   0  0  0  0  0  0  0  0  0  0  0  0
    4.0346   39.8397   48.9595 H   0  0  0  0  0  0  0  0  0  0  0  0
   10.0070   44.7131   51.6128 H   0  0  0  0  0  0  0  0  0  0  0  0
   10.9550   46.0373   53.5036 H   0  0  0  0  0  0  0  0  0  0  0  0
  1  2  2  0
  2  3  1  0
  3  4  2  0
  4  5  1  0
  5  6  1  0
  6  7  2  0
  7  8  1  0
  8  9  1  0
  9 10  1  0
 10 11  1  0
 11 12  1  0
 12 13  1  0
 13 14  1  0
 14 15  1  0
 15 16  1  0
  8 17  2  0
 17 18  1  0
 18 19  1  0
 19 20  2  0
 20 21  1  0
 21 22  2  0
  4 23  1  0
 23 24  2  0
 24  1  1  0
 22  6  1  0
 16 11  1  0
 21 17  1  0
  1 25  1  0
  2 26  1  0
  3 27  1  0
  5 28  1  0
 10 29  1  0
 10 30  1  0
 11 31  1  0
 12 32  1  0
 12 33  1  0
 13 34  1  0
 13 35  1  0
 14 36  1  0
 14 37  1  0
 15 38  1  0
 15 39  1  0
 16 40  1  0
 16 41  1  0
 18 42  1  0
 19 43  1  0
 23 44  1  0
 24 45  1  0
M  END
>  <meeko>  (2) 
{"is_sidechain": [false], "free_energy": -9.215, "intermolecular_energy": -11.294, "internal_energy": -1.213}

$$$$
ligand_0_conformer_2_docked
     RDKit          3D

 45 48  0  0  0  0  0  0  0  0999 V2000
    9.8080   47.0600   52.0180 C   0  0  0  0  0  0  0  0  0  0  0  0
    9.7910   46.2680   53.1710 C   0  0  0  0  0  0  0  0  0  0  0  0
    8.6770   46.2830   54.0140 C   0  0  0  0  0  0  0  0  0  0  0  0
    7.5610   47.0760   53.7050 C   0  0  0  0  0  0  0  0  0  0  0  0
    6.4320   47.0850   54.5950 N   0  0  0  0  0  0  0  0  0  0  0  0
    5.2670   46.2670   54.4190 C   0  0  0  0  0  0  0  0  0  0  0  0
    5.2200   45.3200   53.4250 N   0  0  0  0  0  0  0  0  0  0  0  0
    4.1300   44.5160   53.2470 C   0  0  0  0  0  0  0  0  0  0  0  0
    4.0800   43.5690   52.2230 O   0  0  0  0  0  0  0  0  0  0  0  0
    5.2520   43.0880   51.5700 C   0  0  0  0  0  0  0  0  0  0  0  0
    5.3260   43.6460   50.1360 C   0  0  0  0  0  0  0  0  0  0  0  0
    6.0450   42.6710   49.1790 C   0  0  0  0  0  0  0  0  0  0  0  0
    7.5630   42.6350   49.4090 C   0  0  0  0  0  0  0  0  0  0  0  0
    8.1690   44.0390   49.3150 C   0  0  0  0  0  0  0  0  0  0  0  0
    7.4960   45.0000   50.3010 C   0  0  0  0  0  0  0  0  0  0  0  0
    5.9770   45.0480   50.0800 C   0  0  0  0  0  0  0  0  0  0  0  0
    3.0690   44.6810   54.1220 C   0  0  0  0  0  0  0  0  0  0  0  0
    1.8960   44.0440   54.1840 N   0  0  0  0  0  0  0  0  0  0  0  0
    1.2700   44.6250   55.2390 C   0  0  0  0  0  0  0  0  0  0  0  0
    2.0050   45.6030   55.8410 N   0  0  0  0  0  0  0  0  0  0  0  0
    3.1290   45.6060   55.1050 C   0  0  0  0  0  0  0  0  0  0  0  0
    4.2100   46.4050   55.2800 N   0  0  0  0  0  0  0  0  0  0  0  0
    7.5970   47.8910   52.5560 C   0  0  0  0  0  0  0  0  0  0  0  0
    8.7130   47.8730   51.7140 C   0  0  0  0  0  0  0  0  0  0  0  0
   10.6827   47.0428   51.3512 H   0  0  0  0  0  0  0  0  0  0  0  0
   10.6555   45.6328   53.4141 H   0  0  0  0  0  0  0  0  0  0  0  0
    8.6746   45.6688   54.9266 H   0  0  0  0  0  0  0  0  0  0  0  0
    6.4990   47.6470   55.4730 H   0  0  0  0  0  0  0  0  0  0  0  0
    6.1404   43.4112   52.1324 H   0  0  0  0  0  0  0  0  0  0  0  0
    5.2151   41.9894   51.5273 H   0  0  0  0  0  0  0  0  0  0  0  0
    4.2858   43.7544   49.7952 H   0  0  0  0  0  0  0  0  0  0  0  0
    5.6403   41.6602   49.3354 H   0  0  0  0  0  0  0  0  0  0  0  0
    5.8705   43.0214   48.1510 H   0  0  0  0  0  0  0  0  0  0  0  0
    7.7651   42.2227   50.4086 H   0  0  0  0  0  0  0  0  0  0  0  0
    8.0192   42.0050   48.6312 H   0  0  0  0  0  0  0  0  0  0  0  0
    9.2431   43.9824   49.5455 H   0  0  0  0  0  0  0  0  0  0  0  0
    8.0108   44.4192   48.2950 H   0  0  0  0  0  0  0  0  0  0  0  0
    7.6988   44.6610   51.3276 H   0  0  0  0  0  0  0  0  0  0  0  0
    7.9039   46.0085   50.1381 H   0  0  0  0  0  0  0  0  0  0  0  0
    5.5265   45.6776   50.8614 H   0  0  0  0  0  0  0  0  0  0  0  0
    5.7981   45.4599   49.0758 H   0  0  0  0  0  0  0  0  0  0  0  0
    1.5410   43.2770   53.5700 H   0  0  0  0  0  0  0  0  0  0  0  0
    0.2643   44.3342   55.5766 H   0  0  0  0  0  0  0  0  0  0  0  0
    6.7436   48.5440   52.3206 H   0  0  0  0  0  0  0  0  0  0  0  0
    8.7290   48.5001   50.8104 H   0  0  0  0  0  0  0  0  0  0  0  0
  1  2  2  0
  2  3  1  0
  3  4  2  0
  4  5  1  0
  5  6  1  0
  6  7  2  0
  7  8  1  0
  8  9  1  0
  9 10  1  0
 10 11  1  0
 11 12  1  0
 12 13  1  0
 13 14  1  0
 14 15  1  0
 15 16  1  0
  8 17  2  0
 17 18  1  0
 18 19  1  0
 19 20  2  0
 20 21  1  0
 21 22  2  0
  4 23  1  0
 23 24  2  0
 24  1  1  0
 22  6  1  0
 16 11  1  0
 21 17  1  0
  1 25  1  0
  2 26  1  0
  3 27  1  0
  5 28  1  0
 10 29  1  0
 10 30  1  0
 11 31  1  0
 12 32  1  0
 12 33  1  0
 13 34  1  0
 13 35  1  0
 14 36  1  0
 14 37  1  0
 15 38  1  0
 15 39  1  0
 16 40  1  0
 16 41  1  0
 18 42  1  0
 19 43  1  0
 23 44  1  0
 24 45  1  0
M  END
>  <meeko>  (3) 
{"is_sidechain": [false], "free_energy": -9.12, "intermolecular_energy": -11.26, "internal_energy": -1.123}

$$$$
ligand_0_conformer_2_docked
     RDKit          3D

 45 48  0  0  0  0  0  0  0  0999 V2000
   -1.3430   44.1670   53.4260 C   0  0  0  0  0  0  0  0  0  0  0  0
   -0.3330   44.4510   54.3490 C   0  0  0  0  0  0  0  0  0  0  0  0
    0.9170   43.8360   54.2320 C   0  0  0  0  0  0  0  0  0  0  0  0
    1.1740   42.9430   53.1800 C   0  0  0  0  0  0  0  0  0  0  0  0
    2.4630   42.3130   53.0880 N   0  0  0  0  0  0  0  0  0  0  0  0
    3.5590   42.8380   52.3280 C   0  0  0  0  0  0  0  0  0  0  0  0
    4.0800   44.0770   52.6150 N   0  0  0  0  0  0  0  0  0  0  0  0
    5.1350   44.5930   51.9170 C   0  0  0  0  0  0  0  0  0  0  0  0
    5.6470   45.8610   52.2000 O   0  0  0  0  0  0  0  0  0  0  0  0
    6.5940   46.0860   53.2420 C   0  0  0  0  0  0  0  0  0  0  0  0
    7.4460   47.3300   52.9220 C   0  0  0  0  0  0  0  0  0  0  0  0
    8.0270   47.2730   51.4920 C   0  0  0  0  0  0  0  0  0  0  0  0
    9.1760   46.2610   51.3670 C   0  0  0  0  0  0  0  0  0  0  0  0
   10.2770   46.5440   52.3930 C   0  0  0  0  0  0  0  0  0  0  0  0
    9.7170   46.5500   53.8200 C   0  0  0  0  0  0  0  0  0  0  0  0
    8.5680   47.5600   53.9610 C   0  0  0  0  0  0  0  0  0  0  0  0
    5.6770   43.8100   50.9120 C   0  0  0  0  0  0  0  0  0  0  0  0
    6.6970   44.0550   50.0830 N   0  0  0  0  0  0  0  0  0  0  0  0
    6.7690   42.9330   49.3230 C   0  0  0  0  0  0  0  0  0  0  0  0
    5.8340   41.9940   49.6420 N   0  0  0  0  0  0  0  0  0  0  0  0
    5.1670   42.5870   50.6460 C   0  0  0  0  0  0  0  0  0  0  0  0
    4.1180   42.0770   51.3360 N   0  0  0  0  0  0  0  0  0  0  0  0
    0.1420   42.6420   52.2690 C   0  0  0  0  0  0  0  0  0  0  0  0
   -1.1060   43.2600   52.3890 C   0  0  0  0  0  0  0  0  0  0  0  0
   -2.3239   44.6568   53.5154 H   0  0  0  0  0  0  0  0  0  0  0  0
   -0.5218   45.1596   55.1689 H   0  0  0  0  0  0  0  0  0  0  0  0
    1.7041   44.0533   54.9690 H   0  0  0  0  0  0  0  0  0  0  0  0
    2.6460   41.4730   53.6830 H   0  0  0  0  0  0  0  0  0  0  0  0
    6.0605   46.2443   54.1909 H   0  0  0  0  0  0  0  0  0  0  0  0
    7.2531   45.2093   53.3257 H   0  0  0  0  0  0  0  0  0  0  0  0
    6.7653   48.1921   52.9794 H   0  0  0  0  0  0  0  0  0  0  0  0
    7.2253   46.9850   50.7961 H   0  0  0  0  0  0  0  0  0  0  0  0
    8.4293   48.2686   51.2533 H   0  0  0  0  0  0  0  0  0  0  0  0
    8.7816   45.2478   51.5341 H   0  0  0  0  0  0  0  0  0  0  0  0
    9.6083   46.3475   50.3592 H   0  0  0  0  0  0  0  0  0  0  0  0
   11.0497   45.7651   52.3141 H   0  0  0  0  0  0  0  0  0  0  0  0
   10.7030   47.5359   52.1819 H   0  0  0  0  0  0  0  0  0  0  0  0
    9.3429   45.5445   54.0630 H   0  0  0  0  0  0  0  0  0  0  0  0
   10.5232   46.8407   54.5096 H   0  0  0  0  0  0  0  0  0  0  0  0
    8.1390   47.4676   54.9697 H   0  0  0  0  0  0  0  0  0  0  0  0
    8.9827   48.5641   53.7881 H   0  0  0  0  0  0  0  0  0  0  0  0
    7.3000   44.9060   50.0310 H   0  0  0  0  0  0  0  0  0  0  0  0
    7.5124   42.7943   48.5242 H   0  0  0  0  0  0  0  0  0  0  0  0
    0.3192   41.9178   51.4602 H   0  0  0  0  0  0  0  0  0  0  0  0
   -1.9032   43.0322   51.6661 H   0  0  0  0  0  0  0  0  0  0  0  0
  1  2  2  0
  2  3  1  0
  3  4  2  0
  4  5  1  0
  5  6  1  0
  6  7  2  0
  7  8  1  0
  8  9  1  0
  9 10  1  0
 10 11  1  0
 11 12  1  0
 12 13  1  0
 13 14  1  0
 14 15  1  0
 15 16  1  0
  8 17  2  0
 17 18  1  0
 18 19  1  0
 19 20  2  0
 20 21  1  0
 21 22  2  0
  4 23  1  0
 23 24  2  0
 24  1  1  0
 22  6  1  0
 16 11  1  0
 21 17  1  0
  1 25  1  0
  2 26  1  0
  3 27  1  0
  5 28  1  0
 10 29  1  0
 10 30  1  0
 11 31  1  0
 12 32  1  0
 12 33  1  0
 13 34  1  0
 13 35  1  0
 14 36  1  0
 14 37  1  0
 15 38  1  0
 15 39  1  0
 16 40  1  0
 16 41  1  0
 18 42  1  0
 19 43  1  0
 23 44  1  0
 24 45  1  0
M  END
>  <meeko>  (4) 
{"is_sidechain": [false], "free_energy": -9.001, "intermolecular_energy": -11.523, "internal_energy": -0.707}

$$$$
ligand_0_conformer_2_docked
     RDKit          3D

 45 48  0  0  0  0  0  0  0  0999 V2000
   10.3700   46.8420   52.8140 C   0  0  0  0  0  0  0  0  0  0  0  0
    9.8830   47.0030   54.1140 C   0  0  0  0  0  0  0  0  0  0  0  0
    8.5300   47.2830   54.3260 C   0  0  0  0  0  0  0  0  0  0  0  0
    7.6470   47.3890   53.2390 C   0  0  0  0  0  0  0  0  0  0  0  0
    6.2620   47.6910   53.4810 N   0  0  0  0  0  0  0  0  0  0  0  0
    5.2210   46.7050   53.5140 C   0  0  0  0  0  0  0  0  0  0  0  0
    5.1330   45.7480   52.5330 N   0  0  0  0  0  0  0  0  0  0  0  0
    4.1610   44.7870   52.5510 C   0  0  0  0  0  0  0  0  0  0  0  0
    4.0640   43.8280   51.5410 O   0  0  0  0  0  0  0  0  0  0  0  0
    5.1110   43.6010   50.6010 C   0  0  0  0  0  0  0  0  0  0  0  0
    5.5590   42.1270   50.6540 C   0  0  0  0  0  0  0  0  0  0  0  0
    6.3790   41.7330   49.4060 C   0  0  0  0  0  0  0  0  0  0  0  0
    5.5030   41.5840   48.1520 C   0  0  0  0  0  0  0  0  0  0  0  0
    4.3610   40.5920   48.3910 C   0  0  0  0  0  0  0  0  0  0  0  0
    3.5110   41.0060   49.5970 C   0  0  0  0  0  0  0  0  0  0  0  0
    4.3730   41.1560   50.8590 C   0  0  0  0  0  0  0  0  0  0  0  0
    3.2700   44.8030   53.6110 C   0  0  0  0  0  0  0  0  0  0  0  0
    2.2380   43.9980   53.8830 N   0  0  0  0  0  0  0  0  0  0  0  0
    1.7410   44.4940   55.0440 C   0  0  0  0  0  0  0  0  0  0  0  0
    2.4200   45.5790   55.5110 N   0  0  0  0  0  0  0  0  0  0  0  0
    3.3740   45.7410   54.5790 C   0  0  0  0  0  0  0  0  0  0  0  0
    4.3350   46.6960   54.5590 N   0  0  0  0  0  0  0  0  0  0  0  0
    8.1510   47.2510   51.9310 C   0  0  0  0  0  0  0  0  0  0  0  0
    9.5050   46.9690   51.7240 C   0  0  0  0  0  0  0  0  0  0  0  0
   11.4337   46.6154   52.6489 H   0  0  0  0  0  0  0  0  0  0  0  0
   10.5654   46.9092   54.9716 H   0  0  0  0  0  0  0  0  0  0  0  0
    8.1545   47.4212   55.3506 H   0  0  0  0  0  0  0  0  0  0  0  0
    6.0090   48.6710   53.7410 H   0  0  0  0  0  0  0  0  0  0  0  0
    4.7487   43.8351   49.5891 H   0  0  0  0  0  0  0  0  0  0  0  0
    5.9658   44.2467   50.8508 H   0  0  0  0  0  0  0  0  0  0  0  0
    6.2121   42.0362   51.5345 H   0  0  0  0  0  0  0  0  0  0  0  0
    7.1337   42.5111   49.2192 H   0  0  0  0  0  0  0  0  0  0  0  0
    6.8464   40.7576   49.6062 H   0  0  0  0  0  0  0  0  0  0  0  0
    5.0782   42.5648   47.8921 H   0  0  0  0  0  0  0  0  0  0  0  0
    6.1296   41.2039   47.3317 H   0  0  0  0  0  0  0  0  0  0  0  0
    3.7220   40.5581   47.4963 H   0  0  0  0  0  0  0  0  0  0  0  0
    4.7960   39.6024   48.5945 H   0  0  0  0  0  0  0  0  0  0  0  0
    3.0235   41.9677   49.3791 H   0  0  0  0  0  0  0  0  0  0  0  0
    2.7603   40.2229   49.7791 H   0  0  0  0  0  0  0  0  0  0  0  0
    3.7412   41.5380   51.6744 H   0  0  0  0  0  0  0  0  0  0  0  0
    4.7889   40.1664   51.0993 H   0  0  0  0  0  0  0  0  0  0  0  0
    1.8950   43.1780   53.3350 H   0  0  0  0  0  0  0  0  0  0  0  0
    0.8714   44.0608   55.5599 H   0  0  0  0  0  0  0  0  0  0  0  0
    7.4771   47.3655   51.0692 H   0  0  0  0  0  0  0  0  0  0  0  0
    9.8899   46.8469   50.7008 H   0  0  0  0  0  0  0  0  0  0  0  0
  1  2  2  0
  2  3  1  0
  3  4  2  0
  4  5  1  0
  5  6  1  0
  6  7  2  0
  7  8  1  0
  8  9  1  0
  9 10  1  0
 10 11  1  0
 11 12  1  0
 12 13  1  0
 13 14  1  0
 14 15  1  0
 15 16  1  0
  8 17  2  0
 17 18  1  0
 18 19  1  0
 19 20  2  0
 20 21  1  0
 21 22  2  0
  4 23  1  0
 23 24  2  0
 24  1  1  0
 22  6  1  0
 16 11  1  0
 21 17  1  0
  1 25  1  0
  2 26  1  0
  3 27  1  0
  5 28  1  0
 10 29  1  0
 10 30  1  0
 11 31  1  0
 12 32  1  0
 12 33  1  0
 13 34  1  0
 13 35  1  0
 14 36  1  0
 14 37  1  0
 15 38  1  0
 15 39  1  0
 16 40  1  0
 16 41  1  0
 18 42  1  0
 19 43  1  0
 23 44  1  0
 24 45  1  0
M  END
>  <meeko>  (5) 
{"is_sidechain": [false], "free_energy": -8.734, "intermolecular_energy": -11.29, "internal_energy": -0.596}

$$$$
