MODEL 1
REMARK VINA RESULT:    -8.364      0.000      0.000
REMARK INTER + INTRA:         -12.599
REMARK INTER:                 -11.297
REMARK INTRA:                  -1.302
REMARK UNBOUND:                -1.302
REMARK SMILES COc1ccc(-c2nc(CCNC(=O)c3cncc(F)c3)co2)cc1
REMARK SMILES IDX 10 1 9 2 7 3 8 4 23 5 22 6 6 7 3 8 4 9 25 10 5 11 24 12 2 13
REMARK SMILES IDX 1 14 11 15 12 16 13 17 14 18 15 20 16 21 21 22 17 23 19 24
REMARK SMILES IDX 18 25 20 26
REMARK H PARENT 12 19
ROOT
ATOM      1  C   UNL     1       0.943  43.975  54.349  1.00  0.00     0.081 C 
ENDROOT
BRANCH   1   2
ATOM      2  C   UNL     1       1.935  44.967  53.820  1.00  0.00     0.081 A 
ATOM      3  C   UNL     1       3.738  45.970  53.364  1.00  0.00     0.226 A 
ATOM      4  N   UNL     1       3.257  44.922  54.068  1.00  0.00    -0.214 NA
ATOM      5  O   UNL     1       2.792  46.622  52.721  1.00  0.00    -0.444 OA
ATOM      6  C   UNL     1       1.658  46.022  52.980  1.00  0.00     0.221 A 
BRANCH   3   7
ATOM      7  C   UNL     1       5.168  46.335  53.309  1.00  0.00     0.037 A 
ATOM      8  C   UNL     1       7.910  46.984  53.196  1.00  0.00     0.118 A 
ATOM      9  C   UNL     1       7.174  46.786  52.010  1.00  0.00     0.047 A 
ATOM     10  C   UNL     1       7.261  46.864  54.431  1.00  0.00     0.047 A 
ATOM     11  C   UNL     1       5.815  46.462  52.069  1.00  0.00     0.017 A 
ATOM     12  C   UNL     1       5.901  46.545  54.490  1.00  0.00     0.017 A 
BRANCH   8  13
ATOM     13  O   UNL     1       9.277  47.295  53.188  1.00  0.00    -0.497 OA
ATOM     14  C   UNL     1      10.119  47.248  54.338  1.00  0.00     0.278 C 
ENDBRANCH   8  13
ENDBRANCH   3   7
ENDBRANCH   1   2
BRANCH   1  15
ATOM     15  C   UNL     1       1.018  42.649  53.585  1.00  0.00     0.122 C 
BRANCH  15  16
ATOM     16  N   UNL     1       2.294  42.502  52.885  1.00  0.00    -0.352 N 
ATOM     17  C   UNL     1       2.378  42.634  51.458  1.00  0.00     0.252 C 
ATOM     18  O   UNL     1       1.397  43.106  50.820  1.00  0.00    -0.269 OA
ATOM     19  H   UNL     1       3.164  42.328  53.434  1.00  0.00     0.163 HD
BRANCH  17  20
ATOM     20  C   UNL     1       3.600  42.235  50.721  1.00  0.00     0.061 A 
ATOM     21  C   UNL     1       3.620  41.100  49.889  1.00  0.00     0.125 A 
ATOM     22  C   UNL     1       4.768  43.011  50.815  1.00  0.00     0.056 A 
ATOM     23  N   UNL     1       4.751  40.766  49.209  1.00  0.00    -0.261 NA
ATOM     24  C   UNL     1       5.915  42.642  50.109  1.00  0.00     0.142 A 
ATOM     25  C   UNL     1       5.888  41.501  49.304  1.00  0.00     0.150 A 
ATOM     26  F   UNL     1       7.044  43.384  50.204  1.00  0.00    -0.205 F 
ENDBRANCH  17  20
ENDBRANCH  15  16
ENDBRANCH   1  15
TORSDOF 6
ENDMDL
MODEL 2
REMARK VINA RESULT:    -8.091      2.972      6.840
REMARK INTER + INTRA:         -12.231
REMARK INTER:                 -11.311
REMARK INTRA:                  -0.920
REMARK UNBOUND:                -1.302
REMARK SMILES COc1ccc(-c2nc(CCNC(=O)c3cncc(F)c3)co2)cc1
REMARK SMILES IDX 10 1 9 2 7 3 8 4 23 5 22 6 6 7 3 8 4 9 25 10 5 11 24 12 2 13
REMARK SMILES IDX 1 14 11 15 12 16 13 17 14 18 15 20 16 21 21 22 17 23 19 24
REMARK SMILES IDX 18 25 20 26
REMARK H PARENT 12 19
ROOT
ATOM      1  C   UNL     1       6.985  43.365  48.732  1.00  0.00     0.081 C 
ENDROOT
BRANCH   1   2
ATOM      2  C   UNL     1       6.037  43.070  49.855  1.00  0.00     0.081 A 
ATOM      3  C   UNL     1       4.762  43.279  51.526  1.00  0.00     0.226 A 
ATOM      4  N   UNL     1       5.617  43.982  50.751  1.00  0.00    -0.214 NA
ATOM      5  O   UNL     1       4.651  42.024  51.146  1.00  0.00    -0.444 OA
ATOM      6  C   UNL     1       5.429  41.861  50.105  1.00  0.00     0.221 A 
BRANCH   3   7
ATOM      7  C   UNL     1       4.021  43.858  52.665  1.00  0.00     0.037 A 
ATOM      8  C   UNL     1       2.589  45.001  54.809  1.00  0.00     0.118 A 
ATOM      9  C   UNL     1       1.937  44.163  53.881  1.00  0.00     0.047 A 
ATOM     10  C   UNL     1       3.958  45.252  54.659  1.00  0.00     0.047 A 
ATOM     11  C   UNL     1       2.649  43.600  52.817  1.00  0.00     0.017 A 
ATOM     12  C   UNL     1       4.671  44.685  53.598  1.00  0.00     0.017 A 
BRANCH   8  13
ATOM     13  O   UNL     1       1.914  45.601  55.882  1.00  0.00    -0.497 OA
ATOM     14  C   UNL     1       0.729  45.081  56.479  1.00  0.00     0.278 C 
ENDBRANCH   8  13
ENDBRANCH   3   7
ENDBRANCH   1   2
BRANCH   1  15
ATOM     15  C   UNL     1       8.358  43.797  49.259  1.00  0.00     0.122 C 
BRANCH  15  16
ATOM     16  N   UNL     1       8.255  44.961  50.138  1.00  0.00    -0.352 N 
ATOM     17  C   UNL     1       9.354  45.364  50.969  1.00  0.00     0.252 C 
ATOM     18  O   UNL     1      10.494  44.859  50.778  1.00  0.00    -0.269 OA
ATOM     19  H   UNL     1       7.378  45.527  50.141  1.00  0.00     0.163 HD
BRANCH  17  20
ATOM     20  C   UNL     1       9.176  46.370  52.043  1.00  0.00     0.061 A 
ATOM     21  C   UNL     1       8.163  47.345  51.978  1.00  0.00     0.125 A 
ATOM     22  C   UNL     1      10.007  46.351  53.176  1.00  0.00     0.056 A 
ATOM     23  N   UNL     1       8.011  48.247  52.985  1.00  0.00    -0.261 NA
ATOM     24  C   UNL     1       9.829  47.290  54.193  1.00  0.00     0.142 A 
ATOM     25  C   UNL     1       8.817  48.243  54.077  1.00  0.00     0.150 A 
ATOM     26  F   UNL     1      10.635  47.277  55.283  1.00  0.00    -0.205 F 
ENDBRANCH  17  20
ENDBRANCH  15  16
ENDBRANCH   1  15
TORSDOF 6
ENDMDL
MODEL 3
REMARK VINA RESULT:    -7.906      2.586      6.530
REMARK INTER + INTRA:         -11.982
REMARK INTER:                 -11.032
REMARK INTRA:                  -0.950
REMARK UNBOUND:                -1.302
REMARK SMILES COc1ccc(-c2nc(CCNC(=O)c3cncc(F)c3)co2)cc1
REMARK SMILES IDX 10 1 9 2 7 3 8 4 23 5 22 6 6 7 3 8 4 9 25 10 5 11 24 12 2 13
REMARK SMILES IDX 1 14 11 15 12 16 13 17 14 18 15 20 16 21 21 22 17 23 19 24
REMARK SMILES IDX 18 25 20 26
REMARK H PARENT 12 19
ROOT
ATOM      1  C   UNL     1       6.291  41.509  49.766  1.00  0.00     0.081 C 
ENDROOT
BRANCH   1   2
ATOM      2  C   UNL     1       4.925  41.710  50.349  1.00  0.00     0.081 A 
ATOM      3  C   UNL     1       3.321  42.399  51.539  1.00  0.00     0.226 A 
ATOM      4  N   UNL     1       4.662  42.496  51.410  1.00  0.00    -0.214 NA
ATOM      5  O   UNL     1       2.781  41.615  50.629  1.00  0.00    -0.444 OA
ATOM      6  C   UNL     1       3.752  41.173  49.869  1.00  0.00     0.221 A 
BRANCH   3   7
ATOM      7  C   UNL     1       2.542  43.105  52.577  1.00  0.00     0.037 A 
ATOM      8  C   UNL     1       1.082  44.429  54.593  1.00  0.00     0.118 A 
ATOM      9  C   UNL     1       2.370  44.876  54.235  1.00  0.00     0.047 A 
ATOM     10  C   UNL     1       0.532  43.326  53.930  1.00  0.00     0.047 A 
ATOM     11  C   UNL     1       3.093  44.216  53.236  1.00  0.00     0.017 A 
ATOM     12  C   UNL     1       1.253  42.668  52.928  1.00  0.00     0.017 A 
BRANCH   8  13
ATOM     13  O   UNL     1       0.325  45.048  55.599  1.00  0.00    -0.497 OA
ATOM     14  C   UNL     1       0.876  45.624  56.781  1.00  0.00     0.278 C 
ENDBRANCH   8  13
ENDBRANCH   3   7
ENDBRANCH   1   2
BRANCH   1  15
ATOM     15  C   UNL     1       6.721  42.713  48.920  1.00  0.00     0.122 C 
BRANCH  15  16
ATOM     16  N   UNL     1       6.774  43.939  49.718  1.00  0.00    -0.352 N 
ATOM     17  C   UNL     1       8.026  44.572  50.022  1.00  0.00     0.252 C 
ATOM     18  O   UNL     1       9.069  44.210  49.414  1.00  0.00    -0.269 OA
ATOM     19  H   UNL     1       5.886  44.377  50.046  1.00  0.00     0.163 HD
BRANCH  17  20
ATOM     20  C   UNL     1       8.113  45.652  51.033  1.00  0.00     0.061 A 
ATOM     21  C   UNL     1       6.982  46.400  51.411  1.00  0.00     0.125 A 
ATOM     22  C   UNL     1       9.336  45.934  51.665  1.00  0.00     0.056 A 
ATOM     23  N   UNL     1       7.086  47.375  52.355  1.00  0.00    -0.261 NA
ATOM     24  C   UNL     1       9.414  46.942  52.627  1.00  0.00     0.142 A 
ATOM     25  C   UNL     1       8.266  47.662  52.961  1.00  0.00     0.150 A 
ATOM     26  F   UNL     1      10.595  47.220  53.232  1.00  0.00    -0.205 F 
ENDBRANCH  17  20
ENDBRANCH  15  16
ENDBRANCH   1  15
TORSDOF 6
ENDMDL
MODEL 4
REMARK VINA RESULT:    -7.865      2.482      6.964
REMARK INTER + INTRA:         -11.926
REMARK INTER:                 -10.918
REMARK INTRA:                  -1.008
REMARK UNBOUND:                -1.302
REMARK SMILES COc1ccc(-c2nc(CCNC(=O)c3cncc(F)c3)co2)cc1
REMARK SMILES IDX 10 1 9 2 7 3 8 4 23 5 22 6 6 7 3 8 4 9 25 10 5 11 24 12 2 13
REMARK SMILES IDX 1 14 11 15 12 16 13 17 14 18 15 20 16 21 21 22 17 23 19 24
REMARK SMILES IDX 18 25 20 26
REMARK H PARENT 12 19
ROOT
ATOM      1  C   UNL     1       7.654  43.452  48.959  1.00  0.00     0.081 C 
ENDROOT
BRANCH   1   2
ATOM      2  C   UNL     1       6.512  42.853  49.725  1.00  0.00     0.081 A 
ATOM      3  C   UNL     1       4.695  42.608  50.774  1.00  0.00     0.226 A 
ATOM      4  N   UNL     1       5.473  43.557  50.210  1.00  0.00    -0.214 NA
ATOM      5  O   UNL     1       5.204  41.400  50.652  1.00  0.00    -0.444 OA
ATOM      6  C   UNL     1       6.334  41.516  50.000  1.00  0.00     0.221 A 
BRANCH   3   7
ATOM      7  C   UNL     1       3.408  42.890  51.442  1.00  0.00     0.037 A 
ATOM      8  C   UNL     1       0.946  43.471  52.686  1.00  0.00     0.118 A 
ATOM      9  C   UNL     1       0.977  42.822  51.436  1.00  0.00     0.047 A 
ATOM     10  C   UNL     1       2.152  43.817  53.308  1.00  0.00     0.047 A 
ATOM     11  C   UNL     1       2.199  42.537  50.820  1.00  0.00     0.017 A 
ATOM     12  C   UNL     1       3.374  43.528  52.694  1.00  0.00     0.017 A 
BRANCH   8  13
ATOM     13  O   UNL     1      -0.255  43.792  53.336  1.00  0.00    -0.497 OA
ATOM     14  C   UNL     1      -0.345  44.602  54.507  1.00  0.00     0.278 C 
ENDBRANCH   8  13
ENDBRANCH   3   7
ENDBRANCH   1   2
BRANCH   1  15
ATOM     15  C   UNL     1       8.253  44.652  49.699  1.00  0.00     0.122 C 
BRANCH  15  16
ATOM     16  N   UNL     1       7.237  45.374  50.466  1.00  0.00    -0.352 N 
ATOM     17  C   UNL     1       7.565  46.027  51.702  1.00  0.00     0.252 C 
ATOM     18  O   UNL     1       8.775  46.183  52.020  1.00  0.00    -0.269 OA
ATOM     19  H   UNL     1       6.264  45.440  50.095  1.00  0.00     0.163 HD
BRANCH  17  20
ATOM     20  C   UNL     1       6.506  46.531  52.607  1.00  0.00     0.061 A 
ATOM     21  C   UNL     1       6.786  46.894  53.938  1.00  0.00     0.125 A 
ATOM     22  C   UNL     1       5.190  46.689  52.139  1.00  0.00     0.056 A 
ATOM     23  N   UNL     1       5.798  47.370  54.744  1.00  0.00    -0.261 NA
ATOM     24  C   UNL     1       4.196  47.177  52.989  1.00  0.00     0.142 A 
ATOM     25  C   UNL     1       4.522  47.513  54.304  1.00  0.00     0.150 A 
ATOM     26  F   UNL     1       2.925  47.323  52.541  1.00  0.00    -0.205 F 
ENDBRANCH  17  20
ENDBRANCH  15  16
ENDBRANCH   1  15
TORSDOF 6
ENDMDL
MODEL 5
REMARK VINA RESULT:    -7.702      2.353      5.635
REMARK INTER + INTRA:         -11.705
REMARK INTER:                 -10.346
REMARK INTRA:                  -1.359
REMARK UNBOUND:                -1.302
REMARK SMILES COc1ccc(-c2nc(CCNC(=O)c3cncc(F)c3)co2)cc1
REMARK SMILES IDX 10 1 9 2 7 3 8 4 23 5 22 6 6 7 3 8 4 9 25 10 5 11 24 12 2 13
REMARK SMILES IDX 1 14 11 15 12 16 13 17 14 18 15 20 16 21 21 22 17 23 19 24
REMARK SMILES IDX 18 25 20 26
REMARK H PARENT 12 19
ROOT
ATOM      1  C   UNL     1       7.717  47.583  52.175  1.00  0.00     0.081 C 
ENDROOT
BRANCH   1   2
ATOM      2  C   UNL     1       6.677  47.092  53.137  1.00  0.00     0.081 A 
ATOM      3  C   UNL     1       4.867  46.381  53.960  1.00  0.00     0.226 A 
ATOM      4  N   UNL     1       5.401  46.825  52.802  1.00  0.00    -0.214 NA
ATOM      5  O   UNL     1       5.739  46.367  54.947  1.00  0.00    -0.444 OA
ATOM      6  C   UNL     1       6.877  46.800  54.467  1.00  0.00     0.221 A 
BRANCH   3   7
ATOM      7  C   UNL     1       3.463  45.944  54.103  1.00  0.00     0.037 A 
ATOM      8  C   UNL     1       0.797  45.062  54.366  1.00  0.00     0.118 A 
ATOM      9  C   UNL     1       1.694  44.956  55.448  1.00  0.00     0.047 A 
ATOM     10  C   UNL     1       1.243  45.618  53.161  1.00  0.00     0.047 A 
ATOM     11  C   UNL     1       3.016  45.392  55.314  1.00  0.00     0.017 A 
ATOM     12  C   UNL     1       2.563  46.059  53.028  1.00  0.00     0.017 A 
BRANCH   8  13
ATOM     13  O   UNL     1      -0.533  44.624  54.446  1.00  0.00    -0.497 OA
ATOM     14  C   UNL     1      -1.210  43.915  53.412  1.00  0.00     0.278 C 
ENDBRANCH   8  13
ENDBRANCH   3   7
ENDBRANCH   1   2
BRANCH   1  15
ATOM     15  C   UNL     1       8.098  46.498  51.162  1.00  0.00     0.122 C 
BRANCH  15  16
ATOM     16  N   UNL     1       7.246  45.316  51.295  1.00  0.00    -0.352 N 
ATOM     17  C   UNL     1       7.115  44.372  50.221  1.00  0.00     0.252 C 
ATOM     18  O   UNL     1       7.909  44.429  49.243  1.00  0.00    -0.269 OA
ATOM     19  H   UNL     1       6.749  45.139  52.195  1.00  0.00     0.163 HD
BRANCH  17  20
ATOM     20  C   UNL     1       6.067  43.324  50.245  1.00  0.00     0.061 A 
ATOM     21  C   UNL     1       6.109  42.220  49.372  1.00  0.00     0.125 A 
ATOM     22  C   UNL     1       5.015  43.396  51.174  1.00  0.00     0.056 A 
ATOM     23  N   UNL     1       5.144  41.263  49.427  1.00  0.00    -0.261 NA
ATOM     24  C   UNL     1       4.036  42.401  51.205  1.00  0.00     0.142 A 
ATOM     25  C   UNL     1       4.117  41.332  50.312  1.00  0.00     0.150 A 
ATOM     26  F   UNL     1       3.017  42.473  52.095  1.00  0.00    -0.205 F 
ENDBRANCH  17  20
ENDBRANCH  15  16
ENDBRANCH   1  15
TORSDOF 6
ENDMDL
