ligand_9_conformer_1_docked
     RDKit          3D

 53 56  0  0  0  0  0  0  0  0999 V2000
    9.9440   46.7950   52.4030 C   0  0  0  0  0  0  0  0  0  0  0  0
    9.6830   47.0700   53.7490 C   0  0  0  0  0  0  0  0  0  0  0  0
    8.3920   46.9060   54.2600 C   0  0  0  0  0  0  0  0  0  0  0  0
    7.3480   46.4650   53.4280 C   0  0  0  0  0  0  0  0  0  0  0  0
    5.9940   46.2480   53.9780 C   0  0  0  0  0  0  0  0  0  0  0  0
    5.7470   45.5930   55.1300 N   0  0  0  0  0  0  0  0  0  0  0  0
    4.4530   45.5630   55.2280 O   0  0  0  0  0  0  0  0  0  0  0  0
    3.9160   46.1560   54.1890 C   0  0  0  0  0  0  0  0  0  0  0  0
    2.4270   46.3000   53.9790 C   0  0  0  0  0  0  0  0  0  0  0  0
    1.6700   45.1130   54.5960 C   0  0  0  0  0  0  0  0  0  0  0  0
    1.9190   43.7890   53.8380 C   0  0  0  0  0  0  0  0  0  0  0  0
    2.5460   43.9960   52.5090 N   0  0  0  0  0  0  0  0  0  0  0  0
    2.5690   42.7390   51.7130 C   0  0  0  0  0  0  0  0  0  0  0  0
    4.0160   42.2440   51.4760 C   0  0  2  0  0  0  0  0  0  0  0  0
    5.0570   43.3870   51.7020 C   0  0  0  0  0  0  0  0  0  0  0  0
    5.4960   44.1330   50.4320 C   0  0  0  0  0  0  0  0  0  0  0  0
    6.6140   43.4340   49.6240 C   0  0  0  0  0  0  0  0  0  0  0  0
    6.2040   42.1520   48.8830 C   0  0  0  0  0  0  0  0  0  0  0  0
    5.5050   41.1620   49.7160 N   0  0  0  0  0  0  0  0  0  0  0  0
    4.1280   41.5060   50.1120 C   0  0  0  0  0  0  0  0  0  0  0  0
    1.8660   45.0830   51.7760 C   0  0  0  0  0  0  0  0  0  0  0  0
    2.0380   46.4420   52.4890 C   0  0  0  0  0  0  0  0  0  0  0  0
    4.8610   46.6260   53.3520 N   0  0  0  0  0  0  0  0  0  0  0  0
    7.6210   46.1920   52.0740 C   0  0  0  0  0  0  0  0  0  0  0  0
    8.9140   46.3580   51.5670 C   0  0  0  0  0  0  0  0  0  0  0  0
   10.9605   46.9228   52.0026 H   0  0  0  0  0  0  0  0  0  0  0  0
   10.4943   47.4157   54.4065 H   0  0  0  0  0  0  0  0  0  0  0  0
    8.1919   47.1234   55.3196 H   0  0  0  0  0  0  0  0  0  0  0  0
    2.1368   47.2315   54.4870 H   0  0  0  0  0  0  0  0  0  0  0  0
    1.9988   44.9892   55.6384 H   0  0  0  0  0  0  0  0  0  0  0  0
    0.5945   45.3353   54.5329 H   0  0  0  0  0  0  0  0  0  0  0  0
    2.5830   43.1561   54.4451 H   0  0  0  0  0  0  0  0  0  0  0  0
    0.9410   43.3135   53.6722 H   0  0  0  0  0  0  0  0  0  0  0  0
    2.0099   41.9623   52.2553 H   0  0  0  0  0  0  0  0  0  0  0  0
    2.1090   42.9417   50.7346 H   0  0  0  0  0  0  0  0  0  0  0  0
    4.2733   41.4895   52.2340 H   0  0  0  0  0  0  0  0  0  0  0  0
    4.6128   44.1204   52.3911 H   0  0  0  0  0  0  0  0  0  0  0  0
    5.9611   42.9023   52.0991 H   0  0  0  0  0  0  0  0  0  0  0  0
    4.6181   44.2419   49.7782 H   0  0  0  0  0  0  0  0  0  0  0  0
    5.9103   45.0958   50.7656 H   0  0  0  0  0  0  0  0  0  0  0  0
    6.9884   44.1499   48.8775 H   0  0  0  0  0  0  0  0  0  0  0  0
    7.3664   43.1230   50.3637 H   0  0  0  0  0  0  0  0  0  0  0  0
    5.5392   42.4329   48.0528 H   0  0  0  0  0  0  0  0  0  0  0  0
    7.1358   41.6744   48.5459 H   0  0  0  0  0  0  0  0  0  0  0  0
    5.4740   40.2540   49.1950 H   0  0  0  0  0  0  0  0  0  0  0  0
    3.6983   42.1542   49.3341 H   0  0  0  0  0  0  0  0  0  0  0  0
    3.5875   40.5547   50.2251 H   0  0  0  0  0  0  0  0  0  0  0  0
    2.2931   45.1536   50.7647 H   0  0  0  0  0  0  0  0  0  0  0  0
    0.7918   44.8501   51.7327 H   0  0  0  0  0  0  0  0  0  0  0  0
    2.8265   47.0103   51.9739 H   0  0  0  0  0  0  0  0  0  0  0  0
    1.0671   46.9577   52.4510 H   0  0  0  0  0  0  0  0  0  0  0  0
    6.8135   45.8465   51.4117 H   0  0  0  0  0  0  0  0  0  0  0  0
    9.1200   46.1440   50.5079 H   0  0  0  0  0  0  0  0  0  0  0  0
  1  2  2  0
  2  3  1  0
  3  4  2  0
  4  5  1  0
  5  6  2  0
  6  7  1  0
  7  8  1  0
  8  9  1  0
  9 10  1  0
 10 11  1  0
 11 12  1  0
 12 13  1  0
 13 14  1  0
 14 15  1  0
 15 16  1  0
 16 17  1  0
 17 18  1  0
 18 19  1  0
 19 20  1  0
 12 21  1  0
 21 22  1  0
  8 23  2  0
  4 24  1  0
 24 25  2  0
 25  1  1  0
 23  5  1  0
 22  9  1  0
 20 14  1  0
  1 26  1  0
  2 27  1  0
  3 28  1  0
  9 29  1  0
 10 30  1  0
 10 31  1  0
 11 32  1  0
 11 33  1  0
 13 34  1  0
 13 35  1  0
 14 36  1  1
 15 37  1  0
 15 38  1  0
 16 39  1  0
 16 40  1  0
 17 41  1  0
 17 42  1  0
 18 43  1  0
 18 44  1  0
 19 45  1  0
 20 46  1  0
 20 47  1  0
 21 48  1  0
 21 49  1  0
 22 50  1  0
 22 51  1  0
 24 52  1  0
 25 53  1  0
M  END
>  <meeko>  (1) 
{"is_sidechain": [false], "free_energy": -7.199, "intermolecular_energy": -11.408, "internal_energy": -0.814}

$$$$
ligand_9_conformer_1_docked
     RDKit          3D

 53 56  0  0  0  0  0  0  0  0999 V2000
    1.2080   45.6400   53.7270 C   0  0  0  0  0  0  0  0  0  0  0  0
    1.9370   46.2490   52.7010 C   0  0  0  0  0  0  0  0  0  0  0  0
    3.3030   46.4960   52.8630 C   0  0  0  0  0  0  0  0  0  0  0  0
    3.9550   46.1340   54.0550 C   0  0  0  0  0  0  0  0  0  0  0  0
    5.4080   46.3530   54.2090 C   0  0  0  0  0  0  0  0  0  0  0  0
    6.1800   45.6870   55.0910 N   0  0  0  0  0  0  0  0  0  0  0  0
    7.3630   46.2050   54.9610 O   0  0  0  0  0  0  0  0  0  0  0  0
    7.3340   47.1510   54.0540 C   0  0  0  0  0  0  0  0  0  0  0  0
    8.5410   47.9670   53.6520 C   0  0  0  0  0  0  0  0  0  0  0  0
    8.3570   48.5590   52.2460 C   0  0  0  0  0  0  0  0  0  0  0  0
    8.3860   47.4810   51.1390 C   0  0  0  0  0  0  0  0  0  0  0  0
    8.9090   46.1780   51.6170 N   0  0  0  0  0  0  0  0  0  0  0  0
    9.1360   45.2320   50.4910 C   0  0  0  0  0  0  0  0  0  0  0  0
    7.7990   44.7000   49.9200 C   0  0  2  0  0  0  0  0  0  0  0  0
    6.7050   44.5880   51.0300 C   0  0  0  0  0  0  0  0  0  0  0  0
    5.3500   44.0360   50.5620 C   0  0  0  0  0  0  0  0  0  0  0  0
    5.2810   42.4950   50.4520 C   0  0  0  0  0  0  0  0  0  0  0  0
    6.0740   41.8720   49.2860 C   0  0  0  0  0  0  0  0  0  0  0  0
    6.8160   42.8470   48.4750 N   0  0  0  0  0  0  0  0  0  0  0  0
    8.0330   43.4070   49.0880 C   0  0  0  0  0  0  0  0  0  0  0  0
   10.1400   46.3720   52.4110 C   0  0  0  0  0  0  0  0  0  0  0  0
    9.8600   47.1640   53.7070 C   0  0  0  0  0  0  0  0  0  0  0  0
    6.1020   47.2880   53.5280 N   0  0  0  0  0  0  0  0  0  0  0  0
    3.2130   45.5230   55.0830 C   0  0  0  0  0  0  0  0  0  0  0  0
    1.8450   45.2780   54.9170 C   0  0  0  0  0  0  0  0  0  0  0  0
    0.1330   45.4458   53.5975 H   0  0  0  0  0  0  0  0  0  0  0  0
    1.4346   46.5341   51.7649 H   0  0  0  0  0  0  0  0  0  0  0  0
    3.8715   46.9765   52.0531 H   0  0  0  0  0  0  0  0  0  0  0  0
    8.6189   48.7786   54.3904 H   0  0  0  0  0  0  0  0  0  0  0  0
    7.3883   49.0786   52.2065 H   0  0  0  0  0  0  0  0  0  0  0  0
    9.1946   49.2479   52.0623 H   0  0  0  0  0  0  0  0  0  0  0  0
    7.3618   47.3328   50.7662 H   0  0  0  0  0  0  0  0  0  0  0  0
    9.0615   47.8380   50.3477 H   0  0  0  0  0  0  0  0  0  0  0  0
    9.6844   45.7522   49.6919 H   0  0  0  0  0  0  0  0  0  0  0  0
    9.7148   44.3766   50.8696 H   0  0  0  0  0  0  0  0  0  0  0  0
    7.3885   45.4315   49.2083 H   0  0  0  0  0  0  0  0  0  0  0  0
    7.0881   43.9244   51.8192 H   0  0  0  0  0  0  0  0  0  0  0  0
    6.5131   45.6153   51.3731 H   0  0  0  0  0  0  0  0  0  0  0  0
    4.5815   44.3628   51.2780 H   0  0  0  0  0  0  0  0  0  0  0  0
    5.1905   44.4266   49.5461 H   0  0  0  0  0  0  0  0  0  0  0  0
    5.6700   42.0715   51.3897 H   0  0  0  0  0  0  0  0  0  0  0  0
    4.2251   42.2551   50.2585 H   0  0  0  0  0  0  0  0  0  0  0  0
    6.7930   41.1518   49.7034 H   0  0  0  0  0  0  0  0  0  0  0  0
    5.3377   41.4001   48.6187 H   0  0  0  0  0  0  0  0  0  0  0  0
    7.0900   42.3880   47.5740 H   0  0  0  0  0  0  0  0  0  0  0  0
    8.4653   42.6443   49.7524 H   0  0  0  0  0  0  0  0  0  0  0  0
    8.7016   43.6844   48.2597 H   0  0  0  0  0  0  0  0  0  0  0  0
   10.5530   45.3875   52.6761 H   0  0  0  0  0  0  0  0  0  0  0  0
   10.8549   46.9465   51.8037 H   0  0  0  0  0  0  0  0  0  0  0  0
    9.8036   46.4546   54.5458 H   0  0  0  0  0  0  0  0  0  0  0  0
   10.6796   47.8866   53.8341 H   0  0  0  0  0  0  0  0  0  0  0  0
    3.7105   45.2366   56.0213 H   0  0  0  0  0  0  0  0  0  0  0  0
    1.2706   44.7999   55.7242 H   0  0  0  0  0  0  0  0  0  0  0  0
  1  2  2  0
  2  3  1  0
  3  4  2  0
  4  5  1  0
  5  6  2  0
  6  7  1  0
  7  8  1  0
  8  9  1  0
  9 10  1  0
 10 11  1  0
 11 12  1  0
 12 13  1  0
 13 14  1  0
 14 15  1  0
 15 16  1  0
 16 17  1  0
 17 18  1  0
 18 19  1  0
 19 20  1  0
 12 21  1  0
 21 22  1  0
  8 23  2  0
  4 24  1  0
 24 25  2  0
 25  1  1  0
 23  5  1  0
 22  9  1  0
 20 14  1  0
  1 26  1  0
  2 27  1  0
  3 28  1  0
  9 29  1  0
 10 30  1  0
 10 31  1  0
 11 32  1  0
 11 33  1  0
 13 34  1  0
 13 35  1  0
 14 36  1  6
 15 37  1  0
 15 38  1  0
 16 39  1  0
 16 40  1  0
 17 41  1  0
 17 42  1  0
 18 43  1  0
 18 44  1  0
 19 45  1  0
 20 46  1  0
 20 47  1  0
 21 48  1  0
 21 49  1  0
 22 50  1  0
 22 51  1  0
 24 52  1  0
 25 53  1  0
M  END
>  <meeko>  (2) 
{"is_sidechain": [false], "free_energy": -6.835, "intermolecular_energy": -11.135, "internal_energy": -0.51}

$$$$
ligand_9_conformer_1_docked
     RDKit          3D

 53 56  0  0  0  0  0  0  0  0999 V2000
    4.1490   41.5150   50.0210 C   0  0  0  0  0  0  0  0  0  0  0  0
    5.1720   41.3930   49.0760 C   0  0  0  0  0  0  0  0  0  0  0  0
    6.2780   42.2470   49.1260 C   0  0  0  0  0  0  0  0  0  0  0  0
    6.3710   43.2330   50.1250 C   0  0  0  0  0  0  0  0  0  0  0  0
    7.5600   44.1050   50.2060 C   0  0  0  0  0  0  0  0  0  0  0  0
    8.7820   43.7540   49.7570 N   0  0  0  0  0  0  0  0  0  0  0  0
    9.5520   44.7520   50.0650 O   0  0  0  0  0  0  0  0  0  0  0  0
    8.8560   45.6750   50.6830 C   0  0  0  0  0  0  0  0  0  0  0  0
    9.4400   46.9740   51.1870 C   0  0  0  0  0  0  0  0  0  0  0  0
   10.1670   46.7660   52.5250 C   0  0  0  0  0  0  0  0  0  0  0  0
    9.1960   46.4440   53.6840 C   0  0  0  0  0  0  0  0  0  0  0  0
    7.7810   46.7310   53.3470 N   0  0  0  0  0  0  0  0  0  0  0  0
    6.9010   46.6280   54.5430 C   0  0  0  0  0  0  0  0  0  0  0  0
    5.4920   46.1080   54.1670 C   0  0  2  0  0  0  0  0  0  0  0  0
    4.4910   47.2840   53.9320 C   0  0  0  0  0  0  0  0  0  0  0  0
    3.2150   46.9140   53.1600 C   0  0  0  0  0  0  0  0  0  0  0  0
    3.0390   45.4030   52.8840 C   0  0  0  0  0  0  0  0  0  0  0  0
    2.8180   44.5000   54.1200 C   0  0  0  0  0  0  0  0  0  0  0  0
    3.5550   44.9230   55.3200 N   0  0  0  0  0  0  0  0  0  0  0  0
    5.0180   45.0260   55.1790 C   0  0  0  0  0  0  0  0  0  0  0  0
    7.6580   48.0550   52.7030 C   0  0  0  0  0  0  0  0  0  0  0  0
    8.3840   48.0920   51.3400 C   0  0  0  0  0  0  0  0  0  0  0  0
    7.5620   45.3170   50.7970 N   0  0  0  0  0  0  0  0  0  0  0  0
    5.3340   43.3480   51.0710 C   0  0  0  0  0  0  0  0  0  0  0  0
    4.2300   42.4920   51.0160 C   0  0  0  0  0  0  0  0  0  0  0  0
    3.2802   40.8415   49.9810 H   0  0  0  0  0  0  0  0  0  0  0  0
    5.1067   40.6241   48.2921 H   0  0  0  0  0  0  0  0  0  0  0  0
    7.0800   42.1473   48.3798 H   0  0  0  0  0  0  0  0  0  0  0  0
   10.1586   47.3012   50.4212 H   0  0  0  0  0  0  0  0  0  0  0  0
   10.8746   45.9309   52.4156 H   0  0  0  0  0  0  0  0  0  0  0  0
   10.6836   47.7048   52.7735 H   0  0  0  0  0  0  0  0  0  0  0  0
    9.2881   45.3765   53.9329 H   0  0  0  0  0  0  0  0  0  0  0  0
    9.4704   47.0871   54.5332 H   0  0  0  0  0  0  0  0  0  0  0  0
    7.3575   45.9340   55.2641 H   0  0  0  0  0  0  0  0  0  0  0  0
    6.7934   47.6317   54.9801 H   0  0  0  0  0  0  0  0  0  0  0  0
    5.5384   45.5941   53.1955 H   0  0  0  0  0  0  0  0  0  0  0  0
    4.1919   47.6775   54.9147 H   0  0  0  0  0  0  0  0  0  0  0  0
    5.0231   48.0170   53.3079 H   0  0  0  0  0  0  0  0  0  0  0  0
    2.3493   47.2581   53.7450 H   0  0  0  0  0  0  0  0  0  0  0  0
    3.2959   47.4008   52.1769 H   0  0  0  0  0  0  0  0  0  0  0  0
    2.1690   45.2828   52.2217 H   0  0  0  0  0  0  0  0  0  0  0  0
    3.9928   45.0724   52.4471 H   0  0  0  0  0  0  0  0  0  0  0  0
    1.7441   44.4993   54.3581 H   0  0  0  0  0  0  0  0  0  0  0  0
    3.1983   43.5030   53.8528 H   0  0  0  0  0  0  0  0  0  0  0  0
    3.1920   45.8590   55.6190 H   0  0  0  0  0  0  0  0  0  0  0  0
    5.4424   45.2676   56.1647 H   0  0  0  0  0  0  0  0  0  0  0  0
    5.3644   44.0578   54.7883 H   0  0  0  0  0  0  0  0  0  0  0  0
    6.5924   48.2786   52.5464 H   0  0  0  0  0  0  0  0  0  0  0  0
    8.1228   48.8034   53.3617 H   0  0  0  0  0  0  0  0  0  0  0  0
    7.6360   47.9792   50.5414 H   0  0  0  0  0  0  0  0  0  0  0  0
    8.9125   49.0545   51.2751 H   0  0  0  0  0  0  0  0  0  0  0  0
    5.3930   44.1152   51.8571 H   0  0  0  0  0  0  0  0  0  0  0  0
    3.4235   42.5881   51.7578 H   0  0  0  0  0  0  0  0  0  0  0  0
  1  2  2  0
  2  3  1  0
  3  4  2  0
  4  5  1  0
  5  6  2  0
  6  7  1  0
  7  8  1  0
  8  9  1  0
  9 10  1  0
 10 11  1  0
 11 12  1  0
 12 13  1  0
 13 14  1  0
 14 15  1  0
 15 16  1  0
 16 17  1  0
 17 18  1  0
 18 19  1  0
 19 20  1  0
 12 21  1  0
 21 22  1  0
  8 23  2  0
  4 24  1  0
 24 25  2  0
 25  1  1  0
 23  5  1  0
 22  9  1  0
 20 14  1  0
  1 26  1  0
  2 27  1  0
  3 28  1  0
  9 29  1  0
 10 30  1  0
 10 31  1  0
 11 32  1  0
 11 33  1  0
 13 34  1  0
 13 35  1  0
 14 36  1  6
 15 37  1  0
 15 38  1  0
 16 39  1  0
 16 40  1  0
 17 41  1  0
 17 42  1  0
 18 43  1  0
 18 44  1  0
 19 45  1  0
 20 46  1  0
 20 47  1  0
 21 48  1  0
 21 49  1  0
 22 50  1  0
 22 51  1  0
 24 52  1  0
 25 53  1  0
M  END
>  <meeko>  (3) 
{"is_sidechain": [false], "free_energy": -6.458, "intermolecular_energy": -11.196, "internal_energy": 0.148}

$$$$
ligand_9_conformer_1_docked
     RDKit          3D

 53 56  0  0  0  0  0  0  0  0999 V2000
   10.2610   47.1650   53.7250 C   0  0  0  0  0  0  0  0  0  0  0  0
   10.2860   46.5560   52.4660 C   0  0  0  0  0  0  0  0  0  0  0  0
    9.0990   46.1040   51.8830 C   0  0  0  0  0  0  0  0  0  0  0  0
    7.8730   46.2570   52.5550 C   0  0  0  0  0  0  0  0  0  0  0  0
    6.6130   45.8200   51.9200 C   0  0  0  0  0  0  0  0  0  0  0  0
    6.4990   44.7150   51.1560 N   0  0  0  0  0  0  0  0  0  0  0  0
    5.2690   44.7180   50.7420 O   0  0  0  0  0  0  0  0  0  0  0  0
    4.6470   45.7720   51.2100 C   0  0  0  0  0  0  0  0  0  0  0  0
    3.1980   46.0910   50.9220 C   0  0  0  0  0  0  0  0  0  0  0  0
    2.6350   47.0700   51.9640 C   0  0  0  0  0  0  0  0  0  0  0  0
    2.4920   46.4300   53.3650 C   0  0  0  0  0  0  0  0  0  0  0  0
    2.6030   44.9520   53.3370 N   0  0  0  0  0  0  0  0  0  0  0  0
    2.2410   44.3500   54.6480 C   0  0  0  0  0  0  0  0  0  0  0  0
    0.7400   44.5500   54.9700 C   0  0  2  0  0  0  0  0  0  0  0  0
    0.5300   45.0510   56.4350 C   0  0  0  0  0  0  0  0  0  0  0  0
   -0.9350   45.2140   56.8680 C   0  0  0  0  0  0  0  0  0  0  0  0
   -1.8880   45.7080   55.7560 C   0  0  0  0  0  0  0  0  0  0  0  0
   -2.1260   44.7170   54.5960 C   0  0  0  0  0  0  0  0  0  0  0  0
   -1.5250   43.3960   54.8320 N   0  0  0  0  0  0  0  0  0  0  0  0
   -0.0780   43.2870   54.5780 C   0  0  0  0  0  0  0  0  0  0  0  0
    1.7830   44.3890   52.2440 C   0  0  0  0  0  0  0  0  0  0  0  0
    2.3030   44.8320   50.8590 C   0  0  0  0  0  0  0  0  0  0  0  0
    5.4600   46.5170   51.9840 N   0  0  0  0  0  0  0  0  0  0  0  0
    7.8590   46.8690   53.8220 C   0  0  0  0  0  0  0  0  0  0  0  0
    9.0490   47.3200   54.4020 C   0  0  0  0  0  0  0  0  0  0  0  0
   11.1958   47.5219   54.1820 H   0  0  0  0  0  0  0  0  0  0  0  0
   11.2410   46.4327   51.9342 H   0  0  0  0  0  0  0  0  0  0  0  0
    9.1237   45.6258   50.8927 H   0  0  0  0  0  0  0  0  0  0  0  0
    3.1819   46.5581   49.9262 H   0  0  0  0  0  0  0  0  0  0  0  0
    3.3126   47.9333   52.0385 H   0  0  0  0  0  0  0  0  0  0  0  0
    1.6306   47.3702   51.6307 H   0  0  0  0  0  0  0  0  0  0  0  0
    3.2837   46.8294   54.0160 H   0  0  0  0  0  0  0  0  0  0  0  0
    1.4888   46.6791   53.7414 H   0  0  0  0  0  0  0  0  0  0  0  0
    2.4597   43.2723   54.6189 H   0  0  0  0  0  0  0  0  0  0  0  0
    2.8310   44.8487   55.4311 H   0  0  0  0  0  0  0  0  0  0  0  0
    0.3362   45.3610   54.3461 H   0  0  0  0  0  0  0  0  0  0  0  0
    1.0067   44.3280   57.1133 H   0  0  0  0  0  0  0  0  0  0  0  0
    0.9748   46.0560   56.4801 H   0  0  0  0  0  0  0  0  0  0  0  0
   -1.2982   44.2376   57.2212 H   0  0  0  0  0  0  0  0  0  0  0  0
   -0.9428   45.9883   57.6493 H   0  0  0  0  0  0  0  0  0  0  0  0
   -2.8615   45.9295   56.2177 H   0  0  0  0  0  0  0  0  0  0  0  0
   -1.3998   46.5860   55.3079 H   0  0  0  0  0  0  0  0  0  0  0  0
   -3.2103   44.5892   54.4619 H   0  0  0  0  0  0  0  0  0  0  0  0
   -1.6467   45.1396   53.7007 H   0  0  0  0  0  0  0  0  0  0  0  0
   -1.7000   43.1270   55.8290 H   0  0  0  0  0  0  0  0  0  0  0  0
    0.3091   42.4338   55.1544 H   0  0  0  0  0  0  0  0  0  0  0  0
    0.0414   43.1603   53.4919 H   0  0  0  0  0  0  0  0  0  0  0  0
    1.8145   43.2910   52.3029 H   0  0  0  0  0  0  0  0  0  0  0  0
    0.7535   44.7586   52.3600 H   0  0  0  0  0  0  0  0  0  0  0  0
    2.8880   44.0079   50.4246 H   0  0  0  0  0  0  0  0  0  0  0  0
    1.4261   45.0831   50.2442 H   0  0  0  0  0  0  0  0  0  0  0  0
    6.9071   46.9933   54.3591 H   0  0  0  0  0  0  0  0  0  0  0  0
    9.0305   47.7975   55.3928 H   0  0  0  0  0  0  0  0  0  0  0  0
  1  2  2  0
  2  3  1  0
  3  4  2  0
  4  5  1  0
  5  6  2  0
  6  7  1  0
  7  8  1  0
  8  9  1  0
  9 10  1  0
 10 11  1  0
 11 12  1  0
 12 13  1  0
 13 14  1  0
 14 15  1  0
 15 16  1  0
 16 17  1  0
 17 18  1  0
 18 19  1  0
 19 20  1  0
 12 21  1  0
 21 22  1  0
  8 23  2  0
  4 24  1  0
 24 25  2  0
 25  1  1  0
 23  5  1  0
 22  9  1  0
 20 14  1  0
  1 26  1  0
  2 27  1  0
  3 28  1  0
  9 29  1  0
 10 30  1  0
 10 31  1  0
 11 32  1  0
 11 33  1  0
 13 34  1  0
 13 35  1  0
 14 36  1  6
 15 37  1  0
 15 38  1  0
 16 39  1  0
 16 40  1  0
 17 41  1  0
 17 42  1  0
 18 43  1  0
 18 44  1  0
 19 45  1  0
 20 46  1  0
 20 47  1  0
 21 48  1  0
 21 49  1  0
 22 50  1  0
 22 51  1  0
 24 52  1  0
 25 53  1  0
M  END
>  <meeko>  (4) 
{"is_sidechain": [false], "free_energy": -6.044, "intermolecular_energy": -10.514, "internal_energy": 0.123}

$$$$
ligand_9_conformer_1_docked
     RDKit          3D

 53 56  0  0  0  0  0  0  0  0999 V2000
    8.2450   44.7410   49.7250 C   0  0  0  0  0  0  0  0  0  0  0  0
    8.0080   43.4210   49.3290 C   0  0  0  0  0  0  0  0  0  0  0  0
    6.8020   42.7960   49.6590 C   0  0  0  0  0  0  0  0  0  0  0  0
    5.8190   43.4880   50.3890 C   0  0  0  0  0  0  0  0  0  0  0  0
    4.5260   42.8440   50.6990 C   0  0  0  0  0  0  0  0  0  0  0  0
    4.2610   41.5420   50.4700 N   0  0  0  0  0  0  0  0  0  0  0  0
    3.0190   41.3870   50.8140 O   0  0  0  0  0  0  0  0  0  0  0  0
    2.5280   42.5300   51.2260 C   0  0  0  0  0  0  0  0  0  0  0  0
    1.1040   42.7130   51.6990 C   0  0  0  0  0  0  0  0  0  0  0  0
    0.5300   44.0500   51.2050 C   0  0  0  0  0  0  0  0  0  0  0  0
    1.1940   45.2700   51.8850 C   0  0  0  0  0  0  0  0  0  0  0  0
    1.9830   44.9010   53.0850 N   0  0  0  0  0  0  0  0  0  0  0  0
    2.4220   46.1030   53.8430 C   0  0  0  0  0  0  0  0  0  0  0  0
    3.9510   46.0930   54.0870 C   0  0  2  0  0  0  0  0  0  0  0  0
    4.3260   45.2340   55.3370 C   0  0  0  0  0  0  0  0  0  0  0  0
    5.8320   45.0330   55.5660 C   0  0  0  0  0  0  0  0  0  0  0  0
    6.7120   45.2400   54.3110 C   0  0  0  0  0  0  0  0  0  0  0  0
    6.8550   46.7070   53.8220 C   0  0  0  0  0  0  0  0  0  0  0  0
    5.9320   47.6440   54.4790 N   0  0  0  0  0  0  0  0  0  0  0  0
    4.5160   47.5420   54.0850 C   0  0  0  0  0  0  0  0  0  0  0  0
    1.2210   43.9720   53.9450 C   0  0  0  0  0  0  0  0  0  0  0  0
    0.9620   42.6250   53.2350 C   0  0  0  0  0  0  0  0  0  0  0  0
    3.4550   43.5060   51.1820 N   0  0  0  0  0  0  0  0  0  0  0  0
    6.0680   44.8160   50.7850 C   0  0  0  0  0  0  0  0  0  0  0  0
    7.2770   45.4370   50.4530 C   0  0  0  0  0  0  0  0  0  0  0  0
    9.1941   45.2315   49.4631 H   0  0  0  0  0  0  0  0  0  0  0  0
    8.7717   42.8737   48.7570 H   0  0  0  0  0  0  0  0  0  0  0  0
    6.6208   41.7572   49.3460 H   0  0  0  0  0  0  0  0  0  0  0  0
    0.5305   41.8801   51.2661 H   0  0  0  0  0  0  0  0  0  0  0  0
    0.6894   44.1220   50.1190 H   0  0  0  0  0  0  0  0  0  0  0  0
   -0.5398   44.0678   51.4602 H   0  0  0  0  0  0  0  0  0  0  0  0
    1.8638   45.7551   51.1597 H   0  0  0  0  0  0  0  0  0  0  0  0
    0.3894   45.9447   52.2127 H   0  0  0  0  0  0  0  0  0  0  0  0
    2.1575   47.0036   53.2694 H   0  0  0  0  0  0  0  0  0  0  0  0
    1.9166   46.0984   54.8200 H   0  0  0  0  0  0  0  0  0  0  0  0
    4.4527   45.5859   53.2497 H   0  0  0  0  0  0  0  0  0  0  0  0
    3.9097   45.7287   56.2269 H   0  0  0  0  0  0  0  0  0  0  0  0
    3.9091   44.2325   55.1548 H   0  0  0  0  0  0  0  0  0  0  0  0
    6.1596   45.7477   56.3354 H   0  0  0  0  0  0  0  0  0  0  0  0
    5.9623   43.9827   55.8658 H   0  0  0  0  0  0  0  0  0  0  0  0
    7.7190   44.8600   54.5382 H   0  0  0  0  0  0  0  0  0  0  0  0
    6.2044   44.7013   53.4973 H   0  0  0  0  0  0  0  0  0  0  0  0
    7.8850   47.0394   54.0188 H   0  0  0  0  0  0  0  0  0  0  0  0
    6.6084   46.7129   52.7500 H   0  0  0  0  0  0  0  0  0  0  0  0
    5.9920   47.4970   55.5140 H   0  0  0  0  0  0  0  0  0  0  0  0
    3.9197   48.1447   54.7858 H   0  0  0  0  0  0  0  0  0  0  0  0
    4.4522   47.9022   53.0476 H   0  0  0  0  0  0  0  0  0  0  0  0
    1.7937   43.7862   54.8656 H   0  0  0  0  0  0  0  0  0  0  0  0
    0.2490   44.4333   54.1742 H   0  0  0  0  0  0  0  0  0  0  0  0
    1.6845   41.8860   53.6117 H   0  0  0  0  0  0  0  0  0  0  0  0
   -0.0762   42.3336   53.4525 H   0  0  0  0  0  0  0  0  0  0  0  0
    5.3084   45.3679   51.3581 H   0  0  0  0  0  0  0  0  0  0  0  0
    7.4655   46.4746   50.7656 H   0  0  0  0  0  0  0  0  0  0  0  0
  1  2  2  0
  2  3  1  0
  3  4  2  0
  4  5  1  0
  5  6  2  0
  6  7  1  0
  7  8  1  0
  8  9  1  0
  9 10  1  0
 10 11  1  0
 11 12  1  0
 12 13  1  0
 13 14  1  0
 14 15  1  0
 15 16  1  0
 16 17  1  0
 17 18  1  0
 18 19  1  0
 19 20  1  0
 12 21  1  0
 21 22  1  0
  8 23  2  0
  4 24  1  0
 24 25  2  0
 25  1  1  0
 23  5  1  0
 22  9  1  0
 20 14  1  0
  1 26  1  0
  2 27  1  0
  3 28  1  0
  9 29  1  0
 10 30  1  0
 10 31  1  0
 11 32  1  0
 11 33  1  0
 13 34  1  0
 13 35  1  0
 14 36  1  6
 15 37  1  0
 15 38  1  0
 16 39  1  0
 16 40  1  0
 17 41  1  0
 17 42  1  0
 18 43  1  0
 18 44  1  0
 19 45  1  0
 20 46  1  0
 20 47  1  0
 21 48  1  0
 21 49  1  0
 22 50  1  0
 22 51  1  0
 24 52  1  0
 25 53  1  0
M  END
>  <meeko>  (5) 
{"is_sidechain": [false], "free_energy": -5.98, "intermolecular_energy": -10.706, "internal_energy": 0.417}

$$$$
