ligand_72_conformer_4_docked
     RDKit          3D

 54 56  0  0  0  0  0  0  0  0999 V2000
   10.7770   47.5900   56.0230 C   0  0  0  0  0  0  0  0  0  0  0  0
   10.6360   47.4610   54.6120 O   0  0  0  0  0  0  0  0  0  0  0  0
    9.4160   47.2460   53.9560 C   0  0  0  0  0  0  0  0  0  0  0  0
    9.3100   47.2070   52.5520 C   0  0  0  0  0  0  0  0  0  0  0  0
    8.0690   46.9920   51.9440 C   0  0  0  0  0  0  0  0  0  0  0  0
    6.9130   46.8190   52.7230 C   0  0  0  0  0  0  0  0  0  0  0  0
    5.5730   46.5860   52.0520 C   0  0  2  0  0  0  0  0  0  0  0  0
    4.6100   46.0140   53.0010 N   0  0  0  0  0  0  0  0  0  0  0  0
    3.2960   46.5700   53.1720 C   0  0  0  0  0  0  0  0  0  0  0  0
    3.0180   47.6770   52.6360 O   0  0  0  0  0  0  0  0  0  0  0  0
    2.2480   45.8340   53.9280 C   0  0  0  0  0  0  0  0  0  0  0  0
    2.1260   46.0500   55.3130 C   0  0  0  0  0  0  0  0  0  0  0  0
    1.2120   45.3170   56.0730 C   0  0  0  0  0  0  0  0  0  0  0  0
    0.4180   44.3460   55.4670 C   0  0  0  0  0  0  0  0  0  0  0  0
    0.5210   44.1160   54.0940 C   0  0  0  0  0  0  0  0  0  0  0  0
    1.4120   44.8650   53.3120 C   0  0  0  0  0  0  0  0  0  0  0  0
    1.4220   44.5710   51.5320 S   0  0  0  0  0  0  0  0  0  0  0  0
    1.8410   42.7960   51.6500 C   0  0  0  0  0  0  0  0  0  0  0  0
    3.3300   42.5870   51.6150 C   0  0  0  0  0  0  0  0  0  0  0  0
    4.0200   43.0240   52.5730 O   0  0  0  0  0  0  0  0  0  0  0  0
    3.9800   41.9290   50.5120 N   0  0  0  0  0  0  0  0  0  0  0  0
    5.4220   41.9140   50.3480 C   0  0  0  0  0  0  0  0  0  0  0  0
    5.6740   41.2910   48.9830 C   0  0  0  0  0  0  0  0  0  0  0  0
    4.3880   40.5540   48.6210 C   0  0  0  0  0  0  0  0  0  0  0  0
    3.2920   41.2000   49.4580 C   0  0  0  0  0  0  0  0  0  0  0  0
    5.7190   45.6920   50.8100 C   0  0  0  0  0  0  0  0  0  0  0  0
    4.4830   45.3630   50.2810 F   0  0  0  0  0  0  0  0  0  0  0  0
    6.3970   44.5300   51.1370 F   0  0  0  0  0  0  0  0  0  0  0  0
    7.0260   46.8500   54.1240 C   0  0  0  0  0  0  0  0  0  0  0  0
    8.2650   47.0640   54.7310 C   0  0  0  0  0  0  0  0  0  0  0  0
   10.0551   46.9295   56.5255 H   0  0  0  0  0  0  0  0  0  0  0  0
   11.7987   47.3074   56.3168 H   0  0  0  0  0  0  0  0  0  0  0  0
   10.5862   48.6327   56.3168 H   0  0  0  0  0  0  0  0  0  0  0  0
   10.2072   47.3463   51.9310 H   0  0  0  0  0  0  0  0  0  0  0  0
    7.9976   46.9581   50.8468 H   0  0  0  0  0  0  0  0  0  0  0  0
    5.1885   47.5607   51.7171 H   0  0  0  0  0  0  0  0  0  0  0  0
    4.8790   45.1660   53.5510 H   0  0  0  0  0  0  0  0  0  0  0  0
    2.7581   46.8052   55.8030 H   0  0  0  0  0  0  0  0  0  0  0  0
    1.1189   45.5068   57.1525 H   0  0  0  0  0  0  0  0  0  0  0  0
   -0.2906   43.7601   56.0708 H   0  0  0  0  0  0  0  0  0  0  0  0
   -0.1014   43.3415   53.6220 H   0  0  0  0  0  0  0  0  0  0  0  0
    1.4442   42.3953   52.5945 H   0  0  0  0  0  0  0  0  0  0  0  0
    1.3949   42.2741   50.7905 H   0  0  0  0  0  0  0  0  0  0  0  0
    5.8227   42.9379   50.3823 H   0  0  0  0  0  0  0  0  0  0  0  0
    5.9163   41.3472   51.1508 H   0  0  0  0  0  0  0  0  0  0  0  0
    5.8907   42.0719   48.2392 H   0  0  0  0  0  0  0  0  0  0  0  0
    6.5395   40.6123   49.0003 H   0  0  0  0  0  0  0  0  0  0  0  0
    4.1694   40.6683   47.5490 H   0  0  0  0  0  0  0  0  0  0  0  0
    4.4686   39.4754   48.8212 H   0  0  0  0  0  0  0  0  0  0  0  0
    2.6947   41.8886   48.8423 H   0  0  0  0  0  0  0  0  0  0  0  0
    2.5993   40.4505   49.8682 H   0  0  0  0  0  0  0  0  0  0  0  0
    6.2868   46.2565   50.0557 H   0  0  0  0  0  0  0  0  0  0  0  0
    6.1311   46.7045   54.7469 H   0  0  0  0  0  0  0  0  0  0  0  0
    8.3371   47.0898   55.8283 H   0  0  0  0  0  0  0  0  0  0  0  0
  1  2  1  0
  2  3  1  0
  3  4  2  0
  4  5  1  0
  5  6  2  0
  6  7  1  0
  7  8  1  0
  8  9  1  0
  9 10  2  0
  9 11  1  0
 11 12  2  0
 12 13  1  0
 13 14  2  0
 14 15  1  0
 15 16  2  0
 16 17  1  0
 17 18  1  0
 18 19  1  0
 19 20  2  0
 19 21  1  0
 21 22  1  0
 22 23  1  0
 23 24  1  0
 24 25  1  0
  7 26  1  0
 26 27  1  0
 26 28  1  0
  6 29  1  0
 29 30  2  0
 30  3  1  0
 16 11  1  0
 25 21  1  0
  1 31  1  0
  1 32  1  0
  1 33  1  0
  4 34  1  0
  5 35  1  0
  7 36  1  6
  8 37  1  0
 12 38  1  0
 13 39  1  0
 14 40  1  0
 15 41  1  0
 18 42  1  0
 18 43  1  0
 22 44  1  0
 22 45  1  0
 23 46  1  0
 23 47  1  0
 24 48  1  0
 24 49  1  0
 25 50  1  0
 25 51  1  0
 26 52  1  0
 29 53  1  0
 30 54  1  0
M  END
>  <meeko>  (1) 
{"is_sidechain": [false], "free_energy": -8.39, "intermolecular_energy": -12.313, "internal_energy": -1.833}

$$$$
ligand_72_conformer_4_docked
     RDKit          3D

 54 56  0  0  0  0  0  0  0  0999 V2000
   -1.2950   43.0780   50.6730 C   0  0  0  0  0  0  0  0  0  0  0  0
    0.1220   43.0200   50.5580 O   0  0  0  0  0  0  0  0  0  0  0  0
    1.0140   43.6780   51.4180 C   0  0  0  0  0  0  0  0  0  0  0  0
    1.1030   43.3750   52.7900 C   0  0  0  0  0  0  0  0  0  0  0  0
    2.0060   44.0620   53.6060 C   0  0  0  0  0  0  0  0  0  0  0  0
    2.8300   45.0660   53.0720 C   0  0  0  0  0  0  0  0  0  0  0  0
    3.8050   45.8050   53.9700 C   0  0  2  0  0  0  0  0  0  0  0  0
    5.1780   45.6650   53.4670 N   0  0  0  0  0  0  0  0  0  0  0  0
    6.0340   46.8040   53.2830 C   0  0  0  0  0  0  0  0  0  0  0  0
    5.5500   47.9650   53.3780 O   0  0  0  0  0  0  0  0  0  0  0  0
    7.4900   46.6320   53.0340 C   0  0  0  0  0  0  0  0  0  0  0  0
    8.4000   46.9220   54.0680 C   0  0  0  0  0  0  0  0  0  0  0  0
    9.7770   46.8540   53.8480 C   0  0  0  0  0  0  0  0  0  0  0  0
   10.2690   46.5140   52.5900 C   0  0  0  0  0  0  0  0  0  0  0  0
    9.3850   46.2220   51.5500 C   0  0  0  0  0  0  0  0  0  0  0  0
    8.0000   46.2550   51.7630 C   0  0  0  0  0  0  0  0  0  0  0  0
    6.9250   45.7770   50.3940 S   0  0  0  0  0  0  0  0  0  0  0  0
    6.5480   44.1090   51.0420 C   0  0  0  0  0  0  0  0  0  0  0  0
    6.6030   43.0780   49.9490 C   0  0  0  0  0  0  0  0  0  0  0  0
    7.6240   43.0370   49.2120 O   0  0  0  0  0  0  0  0  0  0  0  0
    5.5160   42.1640   49.7110 N   0  0  0  0  0  0  0  0  0  0  0  0
    5.4490   41.3180   48.5340 C   0  0  0  0  0  0  0  0  0  0  0  0
    4.0760   40.6610   48.5780 C   0  0  0  0  0  0  0  0  0  0  0  0
    3.5970   40.8030   50.0190 C   0  0  0  0  0  0  0  0  0  0  0  0
    4.3870   41.9650   50.6060 C   0  0  0  0  0  0  0  0  0  0  0  0
    3.7000   45.3210   55.4250 C   0  0  0  0  0  0  0  0  0  0  0  0
    2.8820   46.1520   56.1710 F   0  0  0  0  0  0  0  0  0  0  0  0
    4.9560   45.2800   56.0060 F   0  0  0  0  0  0  0  0  0  0  0  0
    2.7430   45.3590   51.7000 C   0  0  0  0  0  0  0  0  0  0  0  0
    1.8410   44.6720   50.8850 C   0  0  0  0  0  0  0  0  0  0  0  0
   -1.5764   43.0895   51.7363 H   0  0  0  0  0  0  0  0  0  0  0  0
   -1.6653   43.9921   50.1858 H   0  0  0  0  0  0  0  0  0  0  0  0
   -1.7388   42.1973   50.1858 H   0  0  0  0  0  0  0  0  0  0  0  0
    0.4592   42.5944   53.2215 H   0  0  0  0  0  0  0  0  0  0  0  0
    2.0719   43.8142   54.6757 H   0  0  0  0  0  0  0  0  0  0  0  0
    3.5386   46.8722   53.9551 H   0  0  0  0  0  0  0  0  0  0  0  0
    5.5500   44.7100   53.2600 H   0  0  0  0  0  0  0  0  0  0  0  0
    8.0217   47.2056   55.0612 H   0  0  0  0  0  0  0  0  0  0  0  0
   10.4752   47.0695   54.6702 H   0  0  0  0  0  0  0  0  0  0  0  0
   11.3545   46.4756   52.4161 H   0  0  0  0  0  0  0  0  0  0  0  0
    9.7783   45.9640   50.5556 H   0  0  0  0  0  0  0  0  0  0  0  0
    7.2841   43.8501   51.8174 H   0  0  0  0  0  0  0  0  0  0  0  0
    5.5313   44.1190   51.4617 H   0  0  0  0  0  0  0  0  0  0  0  0
    5.5564   41.9218   47.6208 H   0  0  0  0  0  0  0  0  0  0  0  0
    6.2568   40.5714   48.5235 H   0  0  0  0  0  0  0  0  0  0  0  0
    3.3843   41.1715   47.8918 H   0  0  0  0  0  0  0  0  0  0  0  0
    4.1200   39.6069   48.2666 H   0  0  0  0  0  0  0  0  0  0  0  0
    2.5191   41.0208   50.0447 H   0  0  0  0  0  0  0  0  0  0  0  0
    3.7540   39.8766   50.5910 H   0  0  0  0  0  0  0  0  0  0  0  0
    3.7645   42.8710   50.6457 H   0  0  0  0  0  0  0  0  0  0  0  0
    4.7158   41.7546   51.6344 H   0  0  0  0  0  0  0  0  0  0  0  0
    3.2619   44.3121   55.4114 H   0  0  0  0  0  0  0  0  0  0  0  0
    3.3901   46.1350   51.2652 H   0  0  0  0  0  0  0  0  0  0  0  0
    1.7803   44.9148   49.8139 H   0  0  0  0  0  0  0  0  0  0  0  0
  1  2  1  0
  2  3  1  0
  3  4  2  0
  4  5  1  0
  5  6  2  0
  6  7  1  0
  7  8  1  0
  8  9  1  0
  9 10  2  0
  9 11  1  0
 11 12  2  0
 12 13  1  0
 13 14  2  0
 14 15  1  0
 15 16  2  0
 16 17  1  0
 17 18  1  0
 18 19  1  0
 19 20  2  0
 19 21  1  0
 21 22  1  0
 22 23  1  0
 23 24  1  0
 24 25  1  0
  7 26  1  0
 26 27  1  0
 26 28  1  0
  6 29  1  0
 29 30  2  0
 30  3  1  0
 16 11  1  0
 25 21  1  0
  1 31  1  0
  1 32  1  0
  1 33  1  0
  4 34  1  0
  5 35  1  0
  7 36  1  1
  8 37  1  0
 12 38  1  0
 13 39  1  0
 14 40  1  0
 15 41  1  0
 18 42  1  0
 18 43  1  0
 22 44  1  0
 22 45  1  0
 23 46  1  0
 23 47  1  0
 24 48  1  0
 24 49  1  0
 25 50  1  0
 25 51  1  0
 26 52  1  0
 29 53  1  0
 30 54  1  0
M  END
>  <meeko>  (2) 
{"is_sidechain": [false], "free_energy": -8.245, "intermolecular_energy": -12.523, "internal_energy": -1.411}

$$$$
ligand_72_conformer_4_docked
     RDKit          3D

 54 56  0  0  0  0  0  0  0  0999 V2000
   -3.1020   43.5070   57.4640 C   0  0  0  0  0  0  0  0  0  0  0  0
   -2.6530   43.3120   56.1280 O   0  0  0  0  0  0  0  0  0  0  0  0
   -1.4350   43.7930   55.6250 C   0  0  0  0  0  0  0  0  0  0  0  0
   -0.9290   43.4030   54.3700 C   0  0  0  0  0  0  0  0  0  0  0  0
    0.2910   43.9090   53.9140 C   0  0  0  0  0  0  0  0  0  0  0  0
    1.0320   44.8060   54.7010 C   0  0  0  0  0  0  0  0  0  0  0  0
    2.3550   45.3470   54.1950 C   0  0  2  0  0  0  0  0  0  0  0  0
    3.0790   44.3190   53.4370 N   0  0  0  0  0  0  0  0  0  0  0  0
    3.0780   44.2990   52.0000 C   0  0  0  0  0  0  0  0  0  0  0  0
    2.2960   45.0630   51.3710 O   0  0  0  0  0  0  0  0  0  0  0  0
    4.0180   43.4270   51.2480 C   0  0  0  0  0  0  0  0  0  0  0  0
    3.7930   42.0380   51.2250 C   0  0  0  0  0  0  0  0  0  0  0  0
    4.6990   41.1770   50.6020 C   0  0  0  0  0  0  0  0  0  0  0  0
    5.8510   41.6850   50.0060 C   0  0  0  0  0  0  0  0  0  0  0  0
    6.0930   43.0590   50.0160 C   0  0  0  0  0  0  0  0  0  0  0  0
    5.1790   43.9400   50.6100 C   0  0  0  0  0  0  0  0  0  0  0  0
    5.5200   45.7080   50.5010 S   0  0  0  0  0  0  0  0  0  0  0  0
    6.2820   45.8420   52.1570 C   0  0  0  0  0  0  0  0  0  0  0  0
    7.7660   46.0630   52.0540 C   0  0  0  0  0  0  0  0  0  0  0  0
    8.3570   45.6950   51.0040 O   0  0  0  0  0  0  0  0  0  0  0  0
    8.5230   46.6550   53.1260 N   0  0  0  0  0  0  0  0  0  0  0  0
    9.9740   46.6730   53.1430 C   0  0  0  0  0  0  0  0  0  0  0  0
   10.3620   47.2110   54.5130 C   0  0  0  0  0  0  0  0  0  0  0  0
    9.1170   47.9100   55.0510 C   0  0  0  0  0  0  0  0  0  0  0  0
    7.9440   47.3080   54.2900 C   0  0  0  0  0  0  0  0  0  0  0  0
    3.2150   45.8870   55.3490 C   0  0  0  0  0  0  0  0  0  0  0  0
    3.8600   47.0580   54.9890 F   0  0  0  0  0  0  0  0  0  0  0  0
    4.1590   44.9460   55.7210 F   0  0  0  0  0  0  0  0  0  0  0  0
    0.5180   45.2000   55.9490 C   0  0  0  0  0  0  0  0  0  0  0  0
   -0.7020   44.6940   56.4050 C   0  0  0  0  0  0  0  0  0  0  0  0
   -2.3245   43.1693   58.1651 H   0  0  0  0  0  0  0  0  0  0  0  0
   -3.3065   44.5750   57.6299 H   0  0  0  0  0  0  0  0  0  0  0  0
   -4.0221   42.9274   57.6299 H   0  0  0  0  0  0  0  0  0  0  0  0
   -1.4966   42.6970   53.7460 H   0  0  0  0  0  0  0  0  0  0  0  0
    0.6746   43.6021   52.9298 H   0  0  0  0  0  0  0  0  0  0  0  0
    2.1406   46.1874   53.5184 H   0  0  0  0  0  0  0  0  0  0  0  0
    3.6290   43.5960   53.9550 H   0  0  0  0  0  0  0  0  0  0  0  0
    2.8926   41.6255   51.7036 H   0  0  0  0  0  0  0  0  0  0  0  0
    4.5024   40.0949   50.5819 H   0  0  0  0  0  0  0  0  0  0  0  0
    6.5696   41.0032   49.5277 H   0  0  0  0  0  0  0  0  0  0  0  0
    7.0094   43.4544   49.5535 H   0  0  0  0  0  0  0  0  0  0  0  0
    5.8291   46.6888   52.6934 H   0  0  0  0  0  0  0  0  0  0  0  0
    6.1057   44.9016   52.6998 H   0  0  0  0  0  0  0  0  0  0  0  0
   10.3720   45.6572   53.0028 H   0  0  0  0  0  0  0  0  0  0  0  0
   10.3823   47.2938   52.3319 H   0  0  0  0  0  0  0  0  0  0  0  0
   10.6569   46.3868   55.1791 H   0  0  0  0  0  0  0  0  0  0  0  0
   11.2183   47.8986   54.4510 H   0  0  0  0  0  0  0  0  0  0  0  0
    9.0095   47.7249   56.1300 H   0  0  0  0  0  0  0  0  0  0  0  0
    9.1728   49.0000   54.9140 H   0  0  0  0  0  0  0  0  0  0  0  0
    7.4153   46.5753   54.9174 H   0  0  0  0  0  0  0  0  0  0  0  0
    7.2104   48.0753   54.0019 H   0  0  0  0  0  0  0  0  0  0  0  0
    2.5441   46.0984   56.1947 H   0  0  0  0  0  0  0  0  0  0  0  0
    1.0805   45.9119   56.5710 H   0  0  0  0  0  0  0  0  0  0  0  0
   -1.0895   45.0068   57.3858 H   0  0  0  0  0  0  0  0  0  0  0  0
  1  2  1  0
  2  3  1  0
  3  4  2  0
  4  5  1  0
  5  6  2  0
  6  7  1  0
  7  8  1  0
  8  9  1  0
  9 10  2  0
  9 11  1  0
 11 12  2  0
 12 13  1  0
 13 14  2  0
 14 15  1  0
 15 16  2  0
 16 17  1  0
 17 18  1  0
 18 19  1  0
 19 20  2  0
 19 21  1  0
 21 22  1  0
 22 23  1  0
 23 24  1  0
 24 25  1  0
  7 26  1  0
 26 27  1  0
 26 28  1  0
  6 29  1  0
 29 30  2  0
 30  3  1  0
 16 11  1  0
 25 21  1  0
  1 31  1  0
  1 32  1  0
  1 33  1  0
  4 34  1  0
  5 35  1  0
  7 36  1  6
  8 37  1  0
 12 38  1  0
 13 39  1  0
 14 40  1  0
 15 41  1  0
 18 42  1  0
 18 43  1  0
 22 44  1  0
 22 45  1  0
 23 46  1  0
 23 47  1  0
 24 48  1  0
 24 49  1  0
 25 50  1  0
 25 51  1  0
 26 52  1  0
 29 53  1  0
 30 54  1  0
M  END
>  <meeko>  (3) 
{"is_sidechain": [false], "free_energy": -8.171, "intermolecular_energy": -12.72, "internal_energy": -1.106}

$$$$
ligand_72_conformer_4_docked
     RDKit          3D

 54 56  0  0  0  0  0  0  0  0999 V2000
   -0.0660   47.2080   58.4850 C   0  0  0  0  0  0  0  0  0  0  0  0
    0.8970   46.2350   58.0980 O   0  0  0  0  0  0  0  0  0  0  0  0
    0.8970   45.5690   56.8640 C   0  0  0  0  0  0  0  0  0  0  0  0
    2.0420   45.4880   56.0480 C   0  0  0  0  0  0  0  0  0  0  0  0
    1.9910   44.8150   54.8240 C   0  0  0  0  0  0  0  0  0  0  0  0
    0.7970   44.2170   54.3890 C   0  0  0  0  0  0  0  0  0  0  0  0
    0.7540   43.4890   53.0580 C   0  0  2  0  0  0  0  0  0  0  0  0
    2.1060   43.1030   52.6350 N   0  0  0  0  0  0  0  0  0  0  0  0
    2.3980   42.7460   51.2740 C   0  0  0  0  0  0  0  0  0  0  0  0
    1.4500   42.5810   50.4600 O   0  0  0  0  0  0  0  0  0  0  0  0
    3.8030   42.6180   50.8040 C   0  0  0  0  0  0  0  0  0  0  0  0
    4.2780   41.3540   50.4060 C   0  0  0  0  0  0  0  0  0  0  0  0
    5.6140   41.1760   50.0380 C   0  0  0  0  0  0  0  0  0  0  0  0
    6.4990   42.2500   50.0770 C   0  0  0  0  0  0  0  0  0  0  0  0
    6.0490   43.5120   50.4670 C   0  0  0  0  0  0  0  0  0  0  0  0
    4.7050   43.7140   50.8090 C   0  0  0  0  0  0  0  0  0  0  0  0
    4.1830   45.3930   51.2150 S   0  0  0  0  0  0  0  0  0  0  0  0
    5.8720   46.0890   51.2900 C   0  0  0  0  0  0  0  0  0  0  0  0
    6.2750   46.3810   52.7090 C   0  0  0  0  0  0  0  0  0  0  0  0
    5.3840   46.3830   53.5980 O   0  0  0  0  0  0  0  0  0  0  0  0
    7.6380   46.6790   53.0660 N   0  0  0  0  0  0  0  0  0  0  0  0
    8.0120   47.1800   54.3760 C   0  0  0  0  0  0  0  0  0  0  0  0
    9.4880   47.5360   54.2730 C   0  0  0  0  0  0  0  0  0  0  0  0
   10.0080   46.7940   53.0460 C   0  0  0  0  0  0  0  0  0  0  0  0
    8.7840   46.5060   52.1880 C   0  0  0  0  0  0  0  0  0  0  0  0
    0.0630   44.3400   51.9800 C   0  0  0  0  0  0  0  0  0  0  0  0
    0.3410   45.6850   52.1480 F   0  0  0  0  0  0  0  0  0  0  0  0
   -1.3080   44.1500   52.0290 F   0  0  0  0  0  0  0  0  0  0  0  0
   -0.3410   44.2920   55.2100 C   0  0  0  0  0  0  0  0  0  0  0  0
   -0.2890   44.9640   56.4340 C   0  0  0  0  0  0  0  0  0  0  0  0
   -0.1157   47.2583   59.5827 H   0  0  0  0  0  0  0  0  0  0  0  0
    0.2249   48.1908   58.0858 H   0  0  0  0  0  0  0  0  0  0  0  0
   -1.0518   46.9272   58.0858 H   0  0  0  0  0  0  0  0  0  0  0  0
    2.9815   45.9569   56.3757 H   0  0  0  0  0  0  0  0  0  0  0  0
    2.8926   44.7533   54.1969 H   0  0  0  0  0  0  0  0  0  0  0  0
    0.1598   42.5730   53.1915 H   0  0  0  0  0  0  0  0  0  0  0  0
    2.8810   43.1110   53.3370 H   0  0  0  0  0  0  0  0  0  0  0  0
    3.5893   40.4965   50.3845 H   0  0  0  0  0  0  0  0  0  0  0  0
    5.9674   40.1851   49.7167 H   0  0  0  0  0  0  0  0  0  0  0  0
    7.5535   42.1037   49.8002 H   0  0  0  0  0  0  0  0  0  0  0  0
    6.7547   44.3549   50.5063 H   0  0  0  0  0  0  0  0  0  0  0  0
    6.5784   45.3650   50.8577 H   0  0  0  0  0  0  0  0  0  0  0  0
    5.8872   47.0308   50.7218 H   0  0  0  0  0  0  0  0  0  0  0  0
    7.4191   48.0711   54.6298 H   0  0  0  0  0  0  0  0  0  0  0  0
    7.8274   46.4352   55.1641 H   0  0  0  0  0  0  0  0  0  0  0  0
    9.6126   48.6215   54.1459 H   0  0  0  0  0  0  0  0  0  0  0  0
   10.0381   47.2518   55.1822 H   0  0  0  0  0  0  0  0  0  0  0  0
   10.7242   47.4205   52.4941 H   0  0  0  0  0  0  0  0  0  0  0  0
   10.5348   45.8693   53.3243 H   0  0  0  0  0  0  0  0  0  0  0  0
    8.7316   47.2114   51.3456 H   0  0  0  0  0  0  0  0  0  0  0  0
    8.8178   45.4934   51.7596 H   0  0  0  0  0  0  0  0  0  0  0  0
    0.4502   44.0192   51.0017 H   0  0  0  0  0  0  0  0  0  0  0  0
   -1.2796   43.8182   54.8867 H   0  0  0  0  0  0  0  0  0  0  0  0
   -1.1884   45.0178   57.0650 H   0  0  0  0  0  0  0  0  0  0  0  0
  1  2  1  0
  2  3  1  0
  3  4  2  0
  4  5  1  0
  5  6  2  0
  6  7  1  0
  7  8  1  0
  8  9  1  0
  9 10  2  0
  9 11  1  0
 11 12  2  0
 12 13  1  0
 13 14  2  0
 14 15  1  0
 15 16  2  0
 16 17  1  0
 17 18  1  0
 18 19  1  0
 19 20  2  0
 19 21  1  0
 21 22  1  0
 22 23  1  0
 23 24  1  0
 24 25  1  0
  7 26  1  0
 26 27  1  0
 26 28  1  0
  6 29  1  0
 29 30  2  0
 30  3  1  0
 16 11  1  0
 25 21  1  0
  1 31  1  0
  1 32  1  0
  1 33  1  0
  4 34  1  0
  5 35  1  0
  7 36  1  1
  8 37  1  0
 12 38  1  0
 13 39  1  0
 14 40  1  0
 15 41  1  0
 18 42  1  0
 18 43  1  0
 22 44  1  0
 22 45  1  0
 23 46  1  0
 23 47  1  0
 24 48  1  0
 24 49  1  0
 25 50  1  0
 25 51  1  0
 26 52  1  0
 29 53  1  0
 30 54  1  0
M  END
>  <meeko>  (4) 
{"is_sidechain": [false], "free_energy": -7.831, "intermolecular_energy": -12.685, "internal_energy": -0.643}

$$$$
ligand_72_conformer_4_docked
     RDKit          3D

 54 56  0  0  0  0  0  0  0  0999 V2000
   11.0580   47.5420   56.3810 C   0  0  0  0  0  0  0  0  0  0  0  0
    9.8960   47.9830   55.6880 O   0  0  0  0  0  0  0  0  0  0  0  0
    9.4180   47.4100   54.5000 C   0  0  0  0  0  0  0  0  0  0  0  0
    8.0570   47.1090   54.3000 C   0  0  0  0  0  0  0  0  0  0  0  0
    7.6310   46.5360   53.0990 C   0  0  0  0  0  0  0  0  0  0  0  0
    8.5530   46.2470   52.0790 C   0  0  0  0  0  0  0  0  0  0  0  0
    8.0780   45.6240   50.7800 C   0  0  2  0  0  0  0  0  0  0  0  0
    7.1180   44.5440   51.0440 N   0  0  0  0  0  0  0  0  0  0  0  0
    5.7170   44.6920   50.7580 C   0  0  0  0  0  0  0  0  0  0  0  0
    5.2660   45.8280   50.4460 O   0  0  0  0  0  0  0  0  0  0  0  0
    4.8060   43.5180   50.7770 C   0  0  0  0  0  0  0  0  0  0  0  0
    5.2270   42.3170   50.1740 C   0  0  0  0  0  0  0  0  0  0  0  0
    4.3680   41.2180   50.0970 C   0  0  0  0  0  0  0  0  0  0  0  0
    3.0730   41.3040   50.6030 C   0  0  0  0  0  0  0  0  0  0  0  0
    2.6370   42.4840   51.2060 C   0  0  0  0  0  0  0  0  0  0  0  0
    3.4960   43.5860   51.3200 C   0  0  0  0  0  0  0  0  0  0  0  0
    2.8860   45.0430   52.1930 S   0  0  0  0  0  0  0  0  0  0  0  0
    3.4740   44.5180   53.8420 C   0  0  0  0  0  0  0  0  0  0  0  0
    2.8020   45.3050   54.9330 C   0  0  0  0  0  0  0  0  0  0  0  0
    3.4620   46.2040   55.5180 O   0  0  0  0  0  0  0  0  0  0  0  0
    1.4460   45.0400   55.3370 N   0  0  0  0  0  0  0  0  0  0  0  0
    0.8550   45.6270   56.5260 C   0  0  0  0  0  0  0  0  0  0  0  0
   -0.5000   44.9520   56.6860 C   0  0  0  0  0  0  0  0  0  0  0  0
   -0.8220   44.3420   55.3250 C   0  0  0  0  0  0  0  0  0  0  0  0
    0.5150   44.1880   54.6140 C   0  0  0  0  0  0  0  0  0  0  0  0
    9.2600   45.1160   49.9400 C   0  0  0  0  0  0  0  0  0  0  0  0
    8.8220   44.4470   48.8100 F   0  0  0  0  0  0  0  0  0  0  0  0
   10.0490   44.2630   50.6940 F   0  0  0  0  0  0  0  0  0  0  0  0
    9.9090   46.5570   52.2800 C   0  0  0  0  0  0  0  0  0  0  0  0
   10.3340   47.1300   53.4810 C   0  0  0  0  0  0  0  0  0  0  0  0
   10.8852   47.6076   57.4654 H   0  0  0  0  0  0  0  0  0  0  0  0
   11.2748   46.4991   56.1067 H   0  0  0  0  0  0  0  0  0  0  0  0
   11.9122   48.1785   56.1067 H   0  0  0  0  0  0  0  0  0  0  0  0
    7.3260   47.3259   55.0928 H   0  0  0  0  0  0  0  0  0  0  0  0
    6.5649   46.3093   52.9508 H   0  0  0  0  0  0  0  0  0  0  0  0
    7.5671   46.4045   50.1971 H   0  0  0  0  0  0  0  0  0  0  0  0
    7.4660   43.6360   51.4280 H   0  0  0  0  0  0  0  0  0  0  0  0
    6.2431   42.2435   49.7592 H   0  0  0  0  0  0  0  0  0  0  0  0
    4.7153   40.2819   49.6354 H   0  0  0  0  0  0  0  0  0  0  0  0
    2.3943   40.4417   50.5271 H   0  0  0  0  0  0  0  0  0  0  0  0
    1.6104   42.5503   51.5954 H   0  0  0  0  0  0  0  0  0  0  0  0
    3.2503   43.4498   53.9797 H   0  0  0  0  0  0  0  0  0  0  0  0
    4.5578   44.6969   53.8994 H   0  0  0  0  0  0  0  0  0  0  0  0
    1.4870   45.4324   57.4050 H   0  0  0  0  0  0  0  0  0  0  0  0
    0.7574   46.7189   56.4352 H   0  0  0  0  0  0  0  0  0  0  0  0
   -0.4490   44.1674   57.4553 H   0  0  0  0  0  0  0  0  0  0  0  0
   -1.2739   45.6663   57.0036 H   0  0  0  0  0  0  0  0  0  0  0  0
   -1.3052   43.3616   55.4491 H   0  0  0  0  0  0  0  0  0  0  0  0
   -1.5156   44.9743   54.7513 H   0  0  0  0  0  0  0  0  0  0  0  0
    0.8487   43.1404   54.6474 H   0  0  0  0  0  0  0  0  0  0  0  0
    0.4456   44.4711   53.5533 H   0  0  0  0  0  0  0  0  0  0  0  0
    9.8479   45.9914   49.6270 H   0  0  0  0  0  0  0  0  0  0  0  0
   10.6408   46.3469   51.4860 H   0  0  0  0  0  0  0  0  0  0  0  0
   11.3991   47.3632   53.6266 H   0  0  0  0  0  0  0  0  0  0  0  0
  1  2  1  0
  2  3  1  0
  3  4  2  0
  4  5  1  0
  5  6  2  0
  6  7  1  0
  7  8  1  0
  8  9  1  0
  9 10  2  0
  9 11  1  0
 11 12  2  0
 12 13  1  0
 13 14  2  0
 14 15  1  0
 15 16  2  0
 16 17  1  0
 17 18  1  0
 18 19  1  0
 19 20  2  0
 19 21  1  0
 21 22  1  0
 22 23  1  0
 23 24  1  0
 24 25  1  0
  7 26  1  0
 26 27  1  0
 26 28  1  0
  6 29  1  0
 29 30  2  0
 30  3  1  0
 16 11  1  0
 25 21  1  0
  1 31  1  0
  1 32  1  0
  1 33  1  0
  4 34  1  0
  5 35  1  0
  7 36  1  6
  8 37  1  0
 12 38  1  0
 13 39  1  0
 14 40  1  0
 15 41  1  0
 18 42  1  0
 18 43  1  0
 22 44  1  0
 22 45  1  0
 23 46  1  0
 23 47  1  0
 24 48  1  0
 24 49  1  0
 25 50  1  0
 25 51  1  0
 26 52  1  0
 29 53  1  0
 30 54  1  0
M  END
>  <meeko>  (5) 
{"is_sidechain": [false], "free_energy": -7.774, "intermolecular_energy": -12.832, "internal_energy": -0.411}

$$$$
