ligand_63_conformer_5_docked
     RDKit          3D

 56 57  0  0  0  0  0  0  0  0999 V2000
   -3.1090   43.2300   57.8170 C   0  0  0  0  0  0  0  0  0  0  0  0
   -2.8650   43.8960   56.5830 O   0  0  0  0  0  0  0  0  0  0  0  0
   -1.5890   44.1840   56.0760 C   0  0  0  0  0  0  0  0  0  0  0  0
   -0.7460   45.0100   56.8290 C   0  0  0  0  0  0  0  0  0  0  0  0
    0.5440   45.3200   56.3840 C   0  0  0  0  0  0  0  0  0  0  0  0
    1.3440   46.1470   57.1850 O   0  0  0  0  0  0  0  0  0  0  0  0
    0.8930   46.8080   58.3620 C   0  0  0  0  0  0  0  0  0  0  0  0
    0.9950   44.7900   55.1590 C   0  0  0  0  0  0  0  0  0  0  0  0
    0.1600   43.9700   54.3940 C   0  0  0  0  0  0  0  0  0  0  0  0
    0.7580   43.2920   52.8830 S   0  0  0  0  0  0  0  0  0  0  0  0
   -0.1390   42.1860   52.3980 O   0  0  0  0  0  0  0  0  0  0  0  0
    0.7880   44.3720   51.8390 O   0  0  0  0  0  0  0  0  0  0  0  0
    2.3610   42.6650   53.1090 N   0  0  0  0  0  0  0  0  0  0  0  0
    3.5250   43.2470   52.4940 C   0  0  0  0  0  0  0  0  0  0  0  0
    4.2710   44.2360   53.1610 C   0  0  0  0  0  0  0  0  0  0  0  0
    5.4200   44.7810   52.5790 C   0  0  0  0  0  0  0  0  0  0  0  0
    6.3660   45.9950   53.4350 S   0  0  0  0  0  0  0  0  0  0  0  0
    5.8600   47.3470   53.0150 O   0  0  0  0  0  0  0  0  0  0  0  0
    6.1540   45.8720   54.9180 O   0  0  0  0  0  0  0  0  0  0  0  0
    8.0720   45.9090   53.0610 N   0  0  0  0  0  0  0  0  0  0  0  0
    8.8320   47.1840   53.0150 C   0  0  0  0  0  0  0  0  0  0  0  0
   10.2500   46.8380   52.5180 C   0  0  0  0  0  0  0  0  0  0  0  0
    8.9590   47.8310   54.4140 C   0  0  0  0  0  0  0  0  0  0  0  0
    8.2200   48.1950   52.0200 C   0  0  0  0  0  0  0  0  0  0  0  0
    5.8210   44.3540   51.3100 C   0  0  0  0  0  0  0  0  0  0  0  0
    5.0760   43.3930   50.6240 C   0  0  0  0  0  0  0  0  0  0  0  0
    3.9230   42.8320   51.2070 C   0  0  0  0  0  0  0  0  0  0  0  0
    3.1600   41.8550   50.5440 O   0  0  0  0  0  0  0  0  0  0  0  0
    3.7010   40.8370   49.7090 C   0  0  0  0  0  0  0  0  0  0  0  0
   -1.1320   43.6700   54.8500 C   0  0  0  0  0  0  0  0  0  0  0  0
   -2.8625   43.9027   58.6517 H   0  0  0  0  0  0  0  0  0  0  0  0
   -4.1698   42.9453   57.8765 H   0  0  0  0  0  0  0  0  0  0  0  0
   -2.4832   42.3273   57.8765 H   0  0  0  0  0  0  0  0  0  0  0  0
   -1.1030   45.4214   57.7847 H   0  0  0  0  0  0  0  0  0  0  0  0
    1.2602   46.2698   59.2483 H   0  0  0  0  0  0  0  0  0  0  0  0
    1.2770   47.8387   58.3737 H   0  0  0  0  0  0  0  0  0  0  0  0
   -0.2068   46.8263   58.3737 H   0  0  0  0  0  0  0  0  0  0  0  0
    2.0093   45.0225   54.8026 H   0  0  0  0  0  0  0  0  0  0  0  0
    2.4760   41.9180   53.8290 H   0  0  0  0  0  0  0  0  0  0  0  0
    3.9465   44.5849   54.1525 H   0  0  0  0  0  0  0  0  0  0  0  0
    8.5110   45.2590   53.7540 H   0  0  0  0  0  0  0  0  0  0  0  0
   10.9120   46.6765   53.3816 H   0  0  0  0  0  0  0  0  0  0  0  0
   10.2119   45.9228   51.9089 H   0  0  0  0  0  0  0  0  0  0  0  0
   10.6377   47.6679   51.9089 H   0  0  0  0  0  0  0  0  0  0  0  0
    8.8084   47.0638   55.1878 H   0  0  0  0  0  0  0  0  0  0  0  0
    9.9608   48.2717   54.5246 H   0  0  0  0  0  0  0  0  0  0  0  0
    8.1981   48.6177   54.5246 H   0  0  0  0  0  0  0  0  0  0  0  0
    7.7289   49.0064   52.5772 H   0  0  0  0  0  0  0  0  0  0  0  0
    9.0160   48.6144   51.3872 H   0  0  0  0  0  0  0  0  0  0  0  0
    7.4794   47.6841   51.3872 H   0  0  0  0  0  0  0  0  0  0  0  0
    6.7266   44.7765   50.8502 H   0  0  0  0  0  0  0  0  0  0  0  0
    5.3918   43.0715   49.6206 H   0  0  0  0  0  0  0  0  0  0  0  0
    4.1258   40.0376   50.3338 H   0  0  0  0  0  0  0  0  0  0  0  0
    2.9045   40.4219   49.0740 H   0  0  0  0  0  0  0  0  0  0  0  0
    4.4907   41.2649   49.0740 H   0  0  0  0  0  0  0  0  0  0  0  0
   -1.7909   43.0294   54.2454 H   0  0  0  0  0  0  0  0  0  0  0  0
  1  2  1  0
  2  3  1  0
  3  4  2  0
  4  5  1  0
  5  6  1  0
  6  7  1  0
  5  8  2  0
  8  9  1  0
  9 10  1  0
 10 11  2  0
 10 12  2  0
 10 13  1  0
 13 14  1  0
 14 15  2  0
 15 16  1  0
 16 17  1  0
 17 18  2  0
 17 19  2  0
 17 20  1  0
 20 21  1  0
 21 22  1  0
 21 23  1  0
 21 24  1  0
 16 25  2  0
 25 26  1  0
 26 27  2  0
 27 28  1  0
 28 29  1  0
  9 30  2  0
 30  3  1  0
 27 14  1  0
  1 31  1  0
  1 32  1  0
  1 33  1  0
  4 34  1  0
  7 35  1  0
  7 36  1  0
  7 37  1  0
  8 38  1  0
 13 39  1  0
 15 40  1  0
 20 41  1  0
 22 42  1  0
 22 43  1  0
 22 44  1  0
 23 45  1  0
 23 46  1  0
 23 47  1  0
 24 48  1  0
 24 49  1  0
 24 50  1  0
 25 51  1  0
 26 52  1  0
 29 53  1  0
 29 54  1  0
 29 55  1  0
 30 56  1  0
M  END
>  <meeko>  (1) 
{"is_sidechain": [false], "free_energy": -8.448, "intermolecular_energy": -12.893, "internal_energy": -0.387}

$$$$
ligand_63_conformer_5_docked
     RDKit          3D

 56 57  0  0  0  0  0  0  0  0999 V2000
    0.8450   46.8080   58.3160 C   0  0  0  0  0  0  0  0  0  0  0  0
    1.3510   46.0780   57.2040 O   0  0  0  0  0  0  0  0  0  0  0  0
    0.5740   45.2490   56.3800 C   0  0  0  0  0  0  0  0  0  0  0  0
   -0.7290   44.9420   56.7860 C   0  0  0  0  0  0  0  0  0  0  0  0
   -1.5580   44.1360   55.9990 C   0  0  0  0  0  0  0  0  0  0  0  0
   -2.8570   43.8680   56.4550 O   0  0  0  0  0  0  0  0  0  0  0  0
   -3.1590   43.1760   57.6610 C   0  0  0  0  0  0  0  0  0  0  0  0
   -1.0670   43.6270   54.7810 C   0  0  0  0  0  0  0  0  0  0  0  0
    0.2360   43.9200   54.3670 C   0  0  0  0  0  0  0  0  0  0  0  0
    0.8160   43.3010   52.8230 S   0  0  0  0  0  0  0  0  0  0  0  0
   -0.1100   42.2440   52.2870 O   0  0  0  0  0  0  0  0  0  0  0  0
    0.8730   44.4300   51.8330 O   0  0  0  0  0  0  0  0  0  0  0  0
    2.4020   42.6230   53.0150 N   0  0  0  0  0  0  0  0  0  0  0  0
    3.5820   43.2090   52.4350 C   0  0  0  0  0  0  0  0  0  0  0  0
    4.2840   44.2260   53.1060 C   0  0  0  0  0  0  0  0  0  0  0  0
    5.4470   44.7760   52.5580 C   0  0  0  0  0  0  0  0  0  0  0  0
    6.3360   46.0270   53.4210 S   0  0  0  0  0  0  0  0  0  0  0  0
    5.8920   47.3580   52.8810 O   0  0  0  0  0  0  0  0  0  0  0  0
    5.9960   45.9960   54.8860 O   0  0  0  0  0  0  0  0  0  0  0  0
    8.0670   45.8990   53.2030 N   0  0  0  0  0  0  0  0  0  0  0  0
    8.8420   47.1600   53.0900 C   0  0  0  0  0  0  0  0  0  0  0  0
   10.2520   46.7720   52.6010 C   0  0  0  0  0  0  0  0  0  0  0  0
    8.9880   47.8720   54.4550 C   0  0  0  0  0  0  0  0  0  0  0  0
    8.2360   48.1300   52.0530 C   0  0  0  0  0  0  0  0  0  0  0  0
    5.9070   44.3240   51.3190 C   0  0  0  0  0  0  0  0  0  0  0  0
    5.2080   43.3330   50.6280 C   0  0  0  0  0  0  0  0  0  0  0  0
    4.0400   42.7670   51.1770 C   0  0  0  0  0  0  0  0  0  0  0  0
    3.3220   41.7610   50.5080 O   0  0  0  0  0  0  0  0  0  0  0  0
    3.8700   40.9010   49.5160 C   0  0  0  0  0  0  0  0  0  0  0  0
    1.0580   44.7270   55.1670 C   0  0  0  0  0  0  0  0  0  0  0  0
    1.1763   46.3301   59.2497 H   0  0  0  0  0  0  0  0  0  0  0  0
    1.2220   47.8407   58.2789 H   0  0  0  0  0  0  0  0  0  0  0  0
   -0.2543   46.8174   58.2789 H   0  0  0  0  0  0  0  0  0  0  0  0
   -1.1074   45.3406   57.7388 H   0  0  0  0  0  0  0  0  0  0  0  0
   -2.8852   43.8033   58.5221 H   0  0  0  0  0  0  0  0  0  0  0  0
   -4.2358   42.9541   57.6966 H   0  0  0  0  0  0  0  0  0  0  0  0
   -2.5895   42.2356   57.6966 H   0  0  0  0  0  0  0  0  0  0  0  0
   -1.7120   42.9957   54.1522 H   0  0  0  0  0  0  0  0  0  0  0  0
    2.4970   41.8340   53.6920 H   0  0  0  0  0  0  0  0  0  0  0  0
    3.9136   44.5936   54.0743 H   0  0  0  0  0  0  0  0  0  0  0  0
    8.4390   45.3230   53.9930 H   0  0  0  0  0  0  0  0  0  0  0  0
   10.9044   46.5925   53.4683 H   0  0  0  0  0  0  0  0  0  0  0  0
   10.1904   45.8574   51.9929 H   0  0  0  0  0  0  0  0  0  0  0  0
   10.6670   47.5893   51.9929 H   0  0  0  0  0  0  0  0  0  0  0  0
    8.8387   47.1441   55.2661 H   0  0  0  0  0  0  0  0  0  0  0  0
    9.9944   48.3088   54.5349 H   0  0  0  0  0  0  0  0  0  0  0  0
    8.2347   48.6696   54.5349 H   0  0  0  0  0  0  0  0  0  0  0  0
    7.7230   48.9512   52.5750 H   0  0  0  0  0  0  0  0  0  0  0  0
    9.0383   48.5409   51.4226 H   0  0  0  0  0  0  0  0  0  0  0  0
    7.5149   47.5891   51.4226 H   0  0  0  0  0  0  0  0  0  0  0  0
    6.8238   44.7507   50.8861 H   0  0  0  0  0  0  0  0  0  0  0  0
    5.5715   42.9913   49.6476 H   0  0  0  0  0  0  0  0  0  0  0  0
    4.3998   40.0695   50.0037 H   0  0  0  0  0  0  0  0  0  0  0  0
    3.0595   40.5016   48.8886 H   0  0  0  0  0  0  0  0  0  0  0  0
    4.5744   41.4669   48.8886 H   0  0  0  0  0  0  0  0  0  0  0  0
    2.0852   44.9526   54.8445 H   0  0  0  0  0  0  0  0  0  0  0  0
  1  2  1  0
  2  3  1  0
  3  4  2  0
  4  5  1  0
  5  6  1  0
  6  7  1  0
  5  8  2  0
  8  9  1  0
  9 10  1  0
 10 11  2  0
 10 12  2  0
 10 13  1  0
 13 14  1  0
 14 15  2  0
 15 16  1  0
 16 17  1  0
 17 18  2  0
 17 19  2  0
 17 20  1  0
 20 21  1  0
 21 22  1  0
 21 23  1  0
 21 24  1  0
 16 25  2  0
 25 26  1  0
 26 27  2  0
 27 28  1  0
 28 29  1  0
  9 30  2  0
 30  3  1  0
 27 14  1  0
  1 31  1  0
  1 32  1  0
  1 33  1  0
  4 34  1  0
  7 35  1  0
  7 36  1  0
  7 37  1  0
  8 38  1  0
 13 39  1  0
 15 40  1  0
 20 41  1  0
 22 42  1  0
 22 43  1  0
 22 44  1  0
 23 45  1  0
 23 46  1  0
 23 47  1  0
 24 48  1  0
 24 49  1  0
 24 50  1  0
 25 51  1  0
 26 52  1  0
 29 53  1  0
 29 54  1  0
 29 55  1  0
 30 56  1  0
M  END
>  <meeko>  (2) 
{"is_sidechain": [false], "free_energy": -8.397, "intermolecular_energy": -12.93, "internal_energy": -0.272}

$$$$
ligand_63_conformer_5_docked
     RDKit          3D

 56 57  0  0  0  0  0  0  0  0999 V2000
    2.3740   37.7850   47.0710 C   0  0  0  0  0  0  0  0  0  0  0  0
    2.2860   39.2060   47.0650 O   0  0  0  0  0  0  0  0  0  0  0  0
    3.3930   40.0680   47.0470 C   0  0  0  0  0  0  0  0  0  0  0  0
    3.8970   40.4760   45.8060 C   0  0  0  0  0  0  0  0  0  0  0  0
    4.9880   41.3480   45.7240 C   0  0  0  0  0  0  0  0  0  0  0  0
    5.4440   41.7260   44.4530 O   0  0  0  0  0  0  0  0  0  0  0  0
    5.7150   40.8170   43.3920 C   0  0  0  0  0  0  0  0  0  0  0  0
    5.5840   41.8180   46.9100 C   0  0  0  0  0  0  0  0  0  0  0  0
    5.0940   41.4130   48.1560 C   0  0  0  0  0  0  0  0  0  0  0  0
    5.8340   42.0420   49.6250 S   0  0  0  0  0  0  0  0  0  0  0  0
    6.9180   41.1220   50.1160 O   0  0  0  0  0  0  0  0  0  0  0  0
    6.4460   43.3820   49.3300 O   0  0  0  0  0  0  0  0  0  0  0  0
    4.6320   42.2180   50.8650 N   0  0  0  0  0  0  0  0  0  0  0  0
    4.3480   43.4720   51.5100 C   0  0  0  0  0  0  0  0  0  0  0  0
    5.3660   44.1910   52.1630 C   0  0  0  0  0  0  0  0  0  0  0  0
    5.1000   45.4250   52.7650 C   0  0  0  0  0  0  0  0  0  0  0  0
    6.3870   46.3320   53.5520 S   0  0  0  0  0  0  0  0  0  0  0  0
    6.0820   47.7950   53.3850 O   0  0  0  0  0  0  0  0  0  0  0  0
    6.4070   46.0400   55.0270 O   0  0  0  0  0  0  0  0  0  0  0  0
    7.9590   46.0170   52.8550 N   0  0  0  0  0  0  0  0  0  0  0  0
    8.9160   47.1510   52.7720 C   0  0  0  0  0  0  0  0  0  0  0  0
   10.2150   46.5910   52.1590 C   0  0  0  0  0  0  0  0  0  0  0  0
    9.2530   47.7240   54.1680 C   0  0  0  0  0  0  0  0  0  0  0  0
    8.4080   48.2780   51.8470 C   0  0  0  0  0  0  0  0  0  0  0  0
    3.8010   45.9410   52.7350 C   0  0  0  0  0  0  0  0  0  0  0  0
    2.7750   45.2280   52.1140 C   0  0  0  0  0  0  0  0  0  0  0  0
    3.0370   43.9890   51.4970 C   0  0  0  0  0  0  0  0  0  0  0  0
    2.0250   43.2540   50.8560 O   0  0  0  0  0  0  0  0  0  0  0  0
    0.8510   42.7660   51.4960 C   0  0  0  0  0  0  0  0  0  0  0  0
    4.0020   40.5350   48.2250 C   0  0  0  0  0  0  0  0  0  0  0  0
    2.3964   37.4234   48.1096 H   0  0  0  0  0  0  0  0  0  0  0  0
    1.5004   37.3613   46.5540 H   0  0  0  0  0  0  0  0  0  0  0  0
    3.2932   37.4724   46.5540 H   0  0  0  0  0  0  0  0  0  0  0  0
    3.4284   40.1056   44.8823 H   0  0  0  0  0  0  0  0  0  0  0  0
    6.0057   39.8419   43.8099 H   0  0  0  0  0  0  0  0  0  0  0  0
    4.8137   40.6967   42.7730 H   0  0  0  0  0  0  0  0  0  0  0  0
    6.5351   41.2099   42.7730 H   0  0  0  0  0  0  0  0  0  0  0  0
    6.4395   42.5074   46.8564 H   0  0  0  0  0  0  0  0  0  0  0  0
    4.0130   41.3960   51.0380 H   0  0  0  0  0  0  0  0  0  0  0  0
    6.3845   43.7771   52.2005 H   0  0  0  0  0  0  0  0  0  0  0  0
    8.3890   45.2300   53.3950 H   0  0  0  0  0  0  0  0  0  0  0  0
   10.9026   46.2946   52.9648 H   0  0  0  0  0  0  0  0  0  0  0  0
    9.9791   45.7147   51.5374 H   0  0  0  0  0  0  0  0  0  0  0  0
   10.6902   47.3642   51.5374 H   0  0  0  0  0  0  0  0  0  0  0  0
    8.8582   47.0528   54.9449 H   0  0  0  0  0  0  0  0  0  0  0  0
   10.3444   47.8081   54.2761 H   0  0  0  0  0  0  0  0  0  0  0  0
    8.7961   48.7188   54.2761 H   0  0  0  0  0  0  0  0  0  0  0  0
    8.0320   49.1121   52.4577 H   0  0  0  0  0  0  0  0  0  0  0  0
    9.2338   48.6315   51.2121 H   0  0  0  0  0  0  0  0  0  0  0  0
    7.5962   47.8933   51.2121 H   0  0  0  0  0  0  0  0  0  0  0  0
    3.5869   46.9132   53.2030 H   0  0  0  0  0  0  0  0  0  0  0  0
    1.7537   45.6365   52.1061 H   0  0  0  0  0  0  0  0  0  0  0  0
    0.9792   42.8193   52.5872 H   0  0  0  0  0  0  0  0  0  0  0  0
   -0.0115   43.3801   51.1977 H   0  0  0  0  0  0  0  0  0  0  0  0
    0.6780   41.7214   51.1977 H   0  0  0  0  0  0  0  0  0  0  0  0
    3.6208   40.2107   49.2045 H   0  0  0  0  0  0  0  0  0  0  0  0
  1  2  1  0
  2  3  1  0
  3  4  2  0
  4  5  1  0
  5  6  1  0
  6  7  1  0
  5  8  2  0
  8  9  1  0
  9 10  1  0
 10 11  2  0
 10 12  2  0
 10 13  1  0
 13 14  1  0
 14 15  2  0
 15 16  1  0
 16 17  1  0
 17 18  2  0
 17 19  2  0
 17 20  1  0
 20 21  1  0
 21 22  1  0
 21 23  1  0
 21 24  1  0
 16 25  2  0
 25 26  1  0
 26 27  2  0
 27 28  1  0
 28 29  1  0
  9 30  2  0
 30  3  1  0
 27 14  1  0
  1 31  1  0
  1 32  1  0
  1 33  1  0
  4 34  1  0
  7 35  1  0
  7 36  1  0
  7 37  1  0
  8 38  1  0
 13 39  1  0
 15 40  1  0
 20 41  1  0
 22 42  1  0
 22 43  1  0
 22 44  1  0
 23 45  1  0
 23 46  1  0
 23 47  1  0
 24 48  1  0
 24 49  1  0
 24 50  1  0
 25 51  1  0
 26 52  1  0
 29 53  1  0
 29 54  1  0
 29 55  1  0
 30 56  1  0
M  END
>  <meeko>  (3) 
{"is_sidechain": [false], "free_energy": -8.305, "intermolecular_energy": -12.938, "internal_energy": -0.124}

$$$$
ligand_63_conformer_5_docked
     RDKit          3D

 56 57  0  0  0  0  0  0  0  0999 V2000
   -1.9970   44.4630   56.2320 C   0  0  0  0  0  0  0  0  0  0  0  0
   -0.6840   44.8930   56.5700 O   0  0  0  0  0  0  0  0  0  0  0  0
    0.4170   44.8340   55.7020 C   0  0  0  0  0  0  0  0  0  0  0  0
    1.5930   45.4970   56.0730 C   0  0  0  0  0  0  0  0  0  0  0  0
    2.7290   45.4600   55.2570 C   0  0  0  0  0  0  0  0  0  0  0  0
    3.8790   46.1380   55.6850 O   0  0  0  0  0  0  0  0  0  0  0  0
    5.1730   45.9650   55.1180 C   0  0  0  0  0  0  0  0  0  0  0  0
    2.6830   44.7440   54.0450 C   0  0  0  0  0  0  0  0  0  0  0  0
    1.5120   44.0830   53.6590 C   0  0  0  0  0  0  0  0  0  0  0  0
    1.4890   43.1660   52.1560 S   0  0  0  0  0  0  0  0  0  0  0  0
    0.2760   42.2780   52.0880 O   0  0  0  0  0  0  0  0  0  0  0  0
    1.4430   44.1230   50.9990 O   0  0  0  0  0  0  0  0  0  0  0  0
    2.9180   42.1870   52.0370 N   0  0  0  0  0  0  0  0  0  0  0  0
    4.1080   42.6160   51.3520 C   0  0  0  0  0  0  0  0  0  0  0  0
    4.6940   43.8620   51.6400 C   0  0  0  0  0  0  0  0  0  0  0  0
    5.8680   44.2690   50.9970 C   0  0  0  0  0  0  0  0  0  0  0  0
    6.6110   45.8160   51.3880 S   0  0  0  0  0  0  0  0  0  0  0  0
    7.2720   46.3320   50.1410 O   0  0  0  0  0  0  0  0  0  0  0  0
    5.5610   46.8140   51.7910 O   0  0  0  0  0  0  0  0  0  0  0  0
    7.8280   45.6840   52.6380 N   0  0  0  0  0  0  0  0  0  0  0  0
    8.8920   46.7190   52.6750 C   0  0  0  0  0  0  0  0  0  0  0  0
    9.3700   46.8110   54.1380 C   0  0  0  0  0  0  0  0  0  0  0  0
    8.3590   48.1100   52.2580 C   0  0  0  0  0  0  0  0  0  0  0  0
   10.1090   46.3390   51.8060 C   0  0  0  0  0  0  0  0  0  0  0  0
    6.4550   43.4360   50.0410 C   0  0  0  0  0  0  0  0  0  0  0  0
    5.8720   42.2080   49.7250 C   0  0  0  0  0  0  0  0  0  0  0  0
    4.6940   41.7870   50.3740 C   0  0  0  0  0  0  0  0  0  0  0  0
    4.0910   40.5510   50.0830 O   0  0  0  0  0  0  0  0  0  0  0  0
    3.5060   40.2130   48.8300 C   0  0  0  0  0  0  0  0  0  0  0  0
    0.3790   44.1310   54.4840 C   0  0  0  0  0  0  0  0  0  0  0  0
   -2.5697   44.2755   57.1523 H   0  0  0  0  0  0  0  0  0  0  0  0
   -2.4979   45.2440   55.6412 H   0  0  0  0  0  0  0  0  0  0  0  0
   -1.9388   43.5370   55.6412 H   0  0  0  0  0  0  0  0  0  0  0  0
    1.6243   46.0554   57.0202 H   0  0  0  0  0  0  0  0  0  0  0  0
    5.9158   45.8657   55.9232 H   0  0  0  0  0  0  0  0  0  0  0  0
    5.1826   45.0576   54.4963 H   0  0  0  0  0  0  0  0  0  0  0  0
    5.4206   46.8380   54.4963 H   0  0  0  0  0  0  0  0  0  0  0  0
    3.5722   44.7043   53.3987 H   0  0  0  0  0  0  0  0  0  0  0  0
    2.9360   41.3120   52.6070 H   0  0  0  0  0  0  0  0  0  0  0  0
    4.2230   44.5251   52.3806 H   0  0  0  0  0  0  0  0  0  0  0  0
    7.3290   45.6550   53.5580 H   0  0  0  0  0  0  0  0  0  0  0  0
    8.5174   46.6469   54.8133 H   0  0  0  0  0  0  0  0  0  0  0  0
   10.1366   46.0439   54.3222 H   0  0  0  0  0  0  0  0  0  0  0  0
    9.7971   47.8078   54.3222 H   0  0  0  0  0  0  0  0  0  0  0  0
    8.1326   48.7008   53.1579 H   0  0  0  0  0  0  0  0  0  0  0  0
    9.1214   48.6306   51.6598 H   0  0  0  0  0  0  0  0  0  0  0  0
    7.4440   47.9878   51.6598 H   0  0  0  0  0  0  0  0  0  0  0  0
   10.9558   46.0746   52.4565 H   0  0  0  0  0  0  0  0  0  0  0  0
    9.8517   45.4784   51.1710 H   0  0  0  0  0  0  0  0  0  0  0  0
   10.3871   47.1931   51.1710 H   0  0  0  0  0  0  0  0  0  0  0  0
    7.3803   43.7494   49.5354 H   0  0  0  0  0  0  0  0  0  0  0  0
    6.3356   41.5637   48.9634 H   0  0  0  0  0  0  0  0  0  0  0  0
    2.5649   39.6693   48.9995 H   0  0  0  0  0  0  0  0  0  0  0  0
    3.3012   41.1320   48.2612 H   0  0  0  0  0  0  0  0  0  0  0  0
    4.1998   39.5766   48.2612 H   0  0  0  0  0  0  0  0  0  0  0  0
   -0.5437   43.6166   54.1774 H   0  0  0  0  0  0  0  0  0  0  0  0
  1  2  1  0
  2  3  1  0
  3  4  2  0
  4  5  1  0
  5  6  1  0
  6  7  1  0
  5  8  2  0
  8  9  1  0
  9 10  1  0
 10 11  2  0
 10 12  2  0
 10 13  1  0
 13 14  1  0
 14 15  2  0
 15 16  1  0
 16 17  1  0
 17 18  2  0
 17 19  2  0
 17 20  1  0
 20 21  1  0
 21 22  1  0
 21 23  1  0
 21 24  1  0
 16 25  2  0
 25 26  1  0
 26 27  2  0
 27 28  1  0
 28 29  1  0
  9 30  2  0
 30  3  1  0
 27 14  1  0
  1 31  1  0
  1 32  1  0
  1 33  1  0
  4 34  1  0
  7 35  1  0
  7 36  1  0
  7 37  1  0
  8 38  1  0
 13 39  1  0
 15 40  1  0
 20 41  1  0
 22 42  1  0
 22 43  1  0
 22 44  1  0
 23 45  1  0
 23 46  1  0
 23 47  1  0
 24 48  1  0
 24 49  1  0
 24 50  1  0
 25 51  1  0
 26 52  1  0
 29 53  1  0
 29 54  1  0
 29 55  1  0
 30 56  1  0
M  END
>  <meeko>  (4) 
{"is_sidechain": [false], "free_energy": -8.208, "intermolecular_energy": -12.624, "internal_energy": -0.29}

$$$$
ligand_63_conformer_5_docked
     RDKit          3D

 56 57  0  0  0  0  0  0  0  0999 V2000
    9.8270   47.1220   53.3820 C   0  0  0  0  0  0  0  0  0  0  0  0
    8.6810   47.7070   52.7740 O   0  0  0  0  0  0  0  0  0  0  0  0
    7.5880   46.9790   52.2790 C   0  0  0  0  0  0  0  0  0  0  0  0
    7.8260   46.0080   51.2990 C   0  0  0  0  0  0  0  0  0  0  0  0
    6.7800   45.2380   50.7790 C   0  0  0  0  0  0  0  0  0  0  0  0
    7.0810   44.2760   49.8040 O   0  0  0  0  0  0  0  0  0  0  0  0
    8.3680   44.0920   49.2260 C   0  0  0  0  0  0  0  0  0  0  0  0
    5.4700   45.4490   51.2510 C   0  0  0  0  0  0  0  0  0  0  0  0
    5.2170   46.4220   52.2240 C   0  0  0  0  0  0  0  0  0  0  0  0
    3.5760   46.6430   52.8240 S   0  0  0  0  0  0  0  0  0  0  0  0
    3.4880   46.2960   54.2850 O   0  0  0  0  0  0  0  0  0  0  0  0
    3.1830   48.0830   52.6520 O   0  0  0  0  0  0  0  0  0  0  0  0
    2.4790   45.6360   51.9330 N   0  0  0  0  0  0  0  0  0  0  0  0
    1.5660   44.7200   52.5640 C   0  0  0  0  0  0  0  0  0  0  0  0
    0.2520   45.1150   52.8740 C   0  0  0  0  0  0  0  0  0  0  0  0
   -0.6470   44.2170   53.4600 C   0  0  0  0  0  0  0  0  0  0  0  0
   -2.2990   44.7110   53.8160 S   0  0  0  0  0  0  0  0  0  0  0  0
   -2.8330   45.4240   52.6050 O   0  0  0  0  0  0  0  0  0  0  0  0
   -3.1660   43.5050   54.0500 O   0  0  0  0  0  0  0  0  0  0  0  0
   -2.4000   45.7990   55.1810 N   0  0  0  0  0  0  0  0  0  0  0  0
   -1.7940   45.3560   56.4620 C   0  0  0  0  0  0  0  0  0  0  0  0
   -2.3880   46.2510   57.5680 C   0  0  0  0  0  0  0  0  0  0  0  0
   -0.2580   45.5420   56.4690 C   0  0  0  0  0  0  0  0  0  0  0  0
   -2.1490   43.8920   56.8010 C   0  0  0  0  0  0  0  0  0  0  0  0
   -0.2290   42.9180   53.7590 C   0  0  0  0  0  0  0  0  0  0  0  0
    1.0800   42.5190   53.4800 C   0  0  0  0  0  0  0  0  0  0  0  0
    1.9890   43.4140   52.8830 C   0  0  0  0  0  0  0  0  0  0  0  0
    3.3080   43.0360   52.5820 O   0  0  0  0  0  0  0  0  0  0  0  0
    3.6810   42.2060   51.4870 C   0  0  0  0  0  0  0  0  0  0  0  0
    6.2750   47.1880   52.7350 C   0  0  0  0  0  0  0  0  0  0  0  0
    9.7276   47.1727   54.4763 H   0  0  0  0  0  0  0  0  0  0  0  0
    9.9112   46.0706   53.0698 H   0  0  0  0  0  0  0  0  0  0  0  0
   10.7279   47.6705   53.0698 H   0  0  0  0  0  0  0  0  0  0  0  0
    8.8507   45.8481   50.9323 H   0  0  0  0  0  0  0  0  0  0  0  0
    9.1167   43.9850   50.0247 H   0  0  0  0  0  0  0  0  0  0  0  0
    8.3640   43.1853   48.6032 H   0  0  0  0  0  0  0  0  0  0  0  0
    8.6183   44.9635   48.6032 H   0  0  0  0  0  0  0  0  0  0  0  0
    4.6412   44.8455   50.8525 H   0  0  0  0  0  0  0  0  0  0  0  0
    2.4030   45.8170   50.9070 H   0  0  0  0  0  0  0  0  0  0  0  0
   -0.0728   46.1425   52.6530 H   0  0  0  0  0  0  0  0  0  0  0  0
   -1.9770   46.7100   54.8850 H   0  0  0  0  0  0  0  0  0  0  0  0
   -2.1179   45.8440   58.5536 H   0  0  0  0  0  0  0  0  0  0  0  0
   -1.9866   47.2704   57.4698 H   0  0  0  0  0  0  0  0  0  0  0  0
   -3.4833   46.2771   57.4698 H   0  0  0  0  0  0  0  0  0  0  0  0
    0.1013   45.5855   57.5077 H   0  0  0  0  0  0  0  0  0  0  0  0
    0.2163   44.6947   55.9521 H   0  0  0  0  0  0  0  0  0  0  0  0
    0.0004   46.4780   55.9521 H   0  0  0  0  0  0  0  0  0  0  0  0
   -2.1796   43.7656   57.8933 H   0  0  0  0  0  0  0  0  0  0  0  0
   -3.1330   43.6454   56.3756 H   0  0  0  0  0  0  0  0  0  0  0  0
   -1.3873   43.2221   56.3756 H   0  0  0  0  0  0  0  0  0  0  0  0
   -0.9332   42.2070   54.2157 H   0  0  0  0  0  0  0  0  0  0  0  0
    1.4037   41.4975   53.7285 H   0  0  0  0  0  0  0  0  0  0  0  0
    4.1040   41.2647   51.8678 H   0  0  0  0  0  0  0  0  0  0  0  0
    2.7944   41.9879   50.8736 H   0  0  0  0  0  0  0  0  0  0  0  0
    4.4328   42.7242   50.8736 H   0  0  0  0  0  0  0  0  0  0  0  0
    6.0761   47.9564   53.4966 H   0  0  0  0  0  0  0  0  0  0  0  0
  1  2  1  0
  2  3  1  0
  3  4  2  0
  4  5  1  0
  5  6  1  0
  6  7  1  0
  5  8  2  0
  8  9  1  0
  9 10  1  0
 10 11  2  0
 10 12  2  0
 10 13  1  0
 13 14  1  0
 14 15  2  0
 15 16  1  0
 16 17  1  0
 17 18  2  0
 17 19  2  0
 17 20  1  0
 20 21  1  0
 21 22  1  0
 21 23  1  0
 21 24  1  0
 16 25  2  0
 25 26  1  0
 26 27  2  0
 27 28  1  0
 28 29  1  0
  9 30  2  0
 30  3  1  0
 27 14  1  0
  1 31  1  0
  1 32  1  0
  1 33  1  0
  4 34  1  0
  7 35  1  0
  7 36  1  0
  7 37  1  0
  8 38  1  0
 13 39  1  0
 15 40  1  0
 20 41  1  0
 22 42  1  0
 22 43  1  0
 22 44  1  0
 23 45  1  0
 23 46  1  0
 23 47  1  0
 24 48  1  0
 24 49  1  0
 24 50  1  0
 25 51  1  0
 26 52  1  0
 29 53  1  0
 29 54  1  0
 29 55  1  0
 30 56  1  0
M  END
>  <meeko>  (5) 
{"is_sidechain": [false], "free_energy": -8.137, "intermolecular_energy": -11.967, "internal_energy": -0.839}

$$$$
