ligand_50_conformer_2_docked
     RDKit          3D

 42 45  0  0  0  0  0  0  0  0999 V2000
    4.3210   42.6030   51.2180 C   0  0  0  0  0  0  0  0  0  0  0  0
    4.2660   43.6550   52.2740 C   0  0  0  0  0  0  0  0  0  0  0  0
    3.1180   43.8340   52.9980 N   0  0  0  0  0  0  0  0  0  0  0  0
    2.9950   44.8110   53.9480 C   0  0  0  0  0  0  0  0  0  0  0  0
    1.7520   44.9430   54.6690 N   0  0  0  0  0  0  0  0  0  0  0  0
    0.4720   45.3200   54.0940 C   0  0  0  0  0  0  0  0  0  0  0  0
   -0.5670   45.0340   55.1700 C   0  0  0  0  0  0  0  0  0  0  0  0
    0.2110   44.9600   56.4910 C   0  0  2  0  0  0  0  0  0  0  0  0
    0.1680   46.2980   57.2540 C   0  0  0  0  0  0  0  0  0  0  0  0
    1.3750   46.5250   57.9300 O   0  0  0  0  0  0  0  0  0  0  0  0
    1.6430   44.6000   56.0800 C   0  0  0  0  0  0  0  0  0  0  0  0
    4.1140   45.6350   54.1560 C   0  0  0  0  0  0  0  0  0  0  0  0
    4.4120   46.7180   54.9680 C   0  0  0  0  0  0  0  0  0  0  0  0
    5.6750   47.1290   54.6980 N   0  0  0  0  0  0  0  0  0  0  0  0
    6.1860   46.3400   53.7590 N   0  0  0  0  0  0  0  0  0  0  0  0
    7.5110   46.4990   53.2170 C   0  0  0  0  0  0  0  0  0  0  0  0
    7.7550   46.3820   51.8350 C   0  0  0  0  0  0  0  0  0  0  0  0
    9.0500   46.5300   51.3300 C   0  0  0  0  0  0  0  0  0  0  0  0
   10.1150   46.7870   52.1960 C   0  0  0  0  0  0  0  0  0  0  0  0
    9.8880   46.8890   53.5700 C   0  0  0  0  0  0  0  0  0  0  0  0
    8.5950   46.7400   54.0800 C   0  0  0  0  0  0  0  0  0  0  0  0
    5.2480   45.4350   53.4250 C   0  0  0  0  0  0  0  0  0  0  0  0
    5.3380   44.4750   52.4740 N   0  0  0  0  0  0  0  0  0  0  0  0
    4.3729   41.6112   51.6909 H   0  0  0  0  0  0  0  0  0  0  0  0
    3.4184   42.6641   50.5922 H   0  0  0  0  0  0  0  0  0  0  0  0
    5.2123   42.7579   50.5922 H   0  0  0  0  0  0  0  0  0  0  0  0
    0.4691   46.3886   53.8333 H   0  0  0  0  0  0  0  0  0  0  0  0
    0.2627   44.7604   53.1704 H   0  0  0  0  0  0  0  0  0  0  0  0
   -1.3116   45.8427   55.2085 H   0  0  0  0  0  0  0  0  0  0  0  0
   -1.1134   44.1008   54.9683 H   0  0  0  0  0  0  0  0  0  0  0  0
   -0.2229   44.2196   57.1792 H   0  0  0  0  0  0  0  0  0  0  0  0
   -0.0039   47.1157   56.5386 H   0  0  0  0  0  0  0  0  0  0  0  0
   -0.6468   46.2569   57.9918 H   0  0  0  0  0  0  0  0  0  0  0  0
    1.9900   46.9540   57.2780 H   0  0  0  0  0  0  0  0  0  0  0  0
    2.3677   45.1788   56.6715 H   0  0  0  0  0  0  0  0  0  0  0  0
    1.8574   43.5353   56.2543 H   0  0  0  0  0  0  0  0  0  0  0  0
    3.7355   47.1692   55.7088 H   0  0  0  0  0  0  0  0  0  0  0  0
    6.9213   46.1728   51.1486 H   0  0  0  0  0  0  0  0  0  0  0  0
    9.2305   46.4439   50.2483 H   0  0  0  0  0  0  0  0  0  0  0  0
   11.1324   46.9090   51.7959 H   0  0  0  0  0  0  0  0  0  0  0  0
   10.7279   47.0869   54.2521 H   0  0  0  0  0  0  0  0  0  0  0  0
    8.4241   46.8118   55.1643 H   0  0  0  0  0  0  0  0  0  0  0  0
  1  2  1  0
  2  3  2  0
  3  4  1  0
  4  5  1  0
  5  6  1  0
  6  7  1  0
  7  8  1  0
  8  9  1  0
  9 10  1  0
  8 11  1  0
  4 12  2  0
 12 13  1  0
 13 14  2  0
 14 15  1  0
 15 16  1  0
 16 17  2  0
 17 18  1  0
 18 19  2  0
 19 20  1  0
 20 21  2  0
 15 22  1  0
 22 23  2  0
 23  2  1  0
 11  5  1  0
 22 12  1  0
 21 16  1  0
  1 24  1  0
  1 25  1  0
  1 26  1  0
  6 27  1  0
  6 28  1  0
  7 29  1  0
  7 30  1  0
  8 31  1  1
  9 32  1  0
  9 33  1  0
 10 34  1  0
 11 35  1  0
 11 36  1  0
 13 37  1  0
 17 38  1  0
 18 39  1  0
 19 40  1  0
 20 41  1  0
 21 42  1  0
M  END
>  <meeko>  (1) 
{"is_sidechain": [false], "free_energy": -8.707, "intermolecular_energy": -10.488, "internal_energy": -0.366}

$$$$
ligand_50_conformer_2_docked
     RDKit          3D

 42 45  0  0  0  0  0  0  0  0999 V2000
    4.5950   42.5100   51.0610 C   0  0  0  0  0  0  0  0  0  0  0  0
    4.4380   43.5710   52.1000 C   0  0  0  0  0  0  0  0  0  0  0  0
    3.2390   43.7240   52.7430 N   0  0  0  0  0  0  0  0  0  0  0  0
    3.0260   44.7060   53.6710 C   0  0  0  0  0  0  0  0  0  0  0  0
    1.7330   44.8100   54.3050 N   0  0  0  0  0  0  0  0  0  0  0  0
    1.4930   44.9280   55.7330 C   0  0  0  0  0  0  0  0  0  0  0  0
    0.0240   45.3030   55.8770 C   0  0  0  0  0  0  0  0  0  0  0  0
   -0.6380   44.9110   54.5500 C   0  0  2  0  0  0  0  0  0  0  0  0
   -1.3120   43.5280   54.6360 C   0  0  0  0  0  0  0  0  0  0  0  0
   -0.6230   42.5890   53.8540 O   0  0  0  0  0  0  0  0  0  0  0  0
    0.5050   44.9110   53.5300 C   0  0  0  0  0  0  0  0  0  0  0  0
    4.1050   45.5620   53.9460 C   0  0  0  0  0  0  0  0  0  0  0  0
    4.3180   46.6600   54.7650 C   0  0  0  0  0  0  0  0  0  0  0  0
    5.5840   47.1030   54.5770 N   0  0  0  0  0  0  0  0  0  0  0  0
    6.1800   46.3200   53.6830 N   0  0  0  0  0  0  0  0  0  0  0  0
    7.5340   46.5100   53.2320 C   0  0  0  0  0  0  0  0  0  0  0  0
    7.8790   46.3660   51.8740 C   0  0  0  0  0  0  0  0  0  0  0  0
    9.2010   46.5460   51.4580 C   0  0  0  0  0  0  0  0  0  0  0  0
   10.1930   46.8620   52.3880 C   0  0  0  0  0  0  0  0  0  0  0  0
    9.8650   46.9920   53.7390 C   0  0  0  0  0  0  0  0  0  0  0  0
    8.5450   46.8110   54.1610 C   0  0  0  0  0  0  0  0  0  0  0  0
    5.2910   45.3860   53.2960 C   0  0  0  0  0  0  0  0  0  0  0  0
    5.4720   44.4210   52.3640 N   0  0  0  0  0  0  0  0  0  0  0  0
    4.7392   41.5357   51.5508 H   0  0  0  0  0  0  0  0  0  0  0  0
    3.6923   42.4749   50.4334 H   0  0  0  0  0  0  0  0  0  0  0  0
    5.4692   42.7379   50.4334 H   0  0  0  0  0  0  0  0  0  0  0  0
    1.6951   43.9707   56.2358 H   0  0  0  0  0  0  0  0  0  0  0  0
    2.1501   45.6806   56.1932 H   0  0  0  0  0  0  0  0  0  0  0  0
   -0.4327   44.7502   56.7112 H   0  0  0  0  0  0  0  0  0  0  0  0
   -0.1017   46.3745   56.0918 H   0  0  0  0  0  0  0  0  0  0  0  0
   -1.4422   45.6084   54.2729 H   0  0  0  0  0  0  0  0  0  0  0  0
   -1.3146   43.1925   55.6836 H   0  0  0  0  0  0  0  0  0  0  0  0
   -2.3418   43.6134   54.2589 H   0  0  0  0  0  0  0  0  0  0  0  0
   -0.9890   42.6610   52.9340 H   0  0  0  0  0  0  0  0  0  0  0  0
    0.4104   44.0518   52.8497 H   0  0  0  0  0  0  0  0  0  0  0  0
    0.4927   45.8198   52.9104 H   0  0  0  0  0  0  0  0  0  0  0  0
    3.5809   47.0988   55.4535 H   0  0  0  0  0  0  0  0  0  0  0  0
    7.1036   46.1105   51.1368 H   0  0  0  0  0  0  0  0  0  0  0  0
    9.4607   46.4384   50.3945 H   0  0  0  0  0  0  0  0  0  0  0  0
   11.2317   47.0084   52.0569 H   0  0  0  0  0  0  0  0  0  0  0  0
   10.6471   47.2374   54.4726 H   0  0  0  0  0  0  0  0  0  0  0  0
    8.2954   46.9048   55.2282 H   0  0  0  0  0  0  0  0  0  0  0  0
  1  2  1  0
  2  3  2  0
  3  4  1  0
  4  5  1  0
  5  6  1  0
  6  7  1  0
  7  8  1  0
  8  9  1  0
  9 10  1  0
  8 11  1  0
  4 12  2  0
 12 13  1  0
 13 14  2  0
 14 15  1  0
 15 16  1  0
 16 17  2  0
 17 18  1  0
 18 19  2  0
 19 20  1  0
 20 21  2  0
 15 22  1  0
 22 23  2  0
 23  2  1  0
 11  5  1  0
 22 12  1  0
 21 16  1  0
  1 24  1  0
  1 25  1  0
  1 26  1  0
  6 27  1  0
  6 28  1  0
  7 29  1  0
  7 30  1  0
  8 31  1  6
  9 32  1  0
  9 33  1  0
 10 34  1  0
 11 35  1  0
 11 36  1  0
 13 37  1  0
 17 38  1  0
 18 39  1  0
 19 40  1  0
 20 41  1  0
 21 42  1  0
M  END
>  <meeko>  (2) 
{"is_sidechain": [false], "free_energy": -8.664, "intermolecular_energy": -10.557, "internal_energy": -0.246}

$$$$
ligand_50_conformer_2_docked
     RDKit          3D

 42 45  0  0  0  0  0  0  0  0999 V2000
    5.0780   42.2430   50.5100 C   0  0  0  0  0  0  0  0  0  0  0  0
    4.6290   43.3200   51.4390 C   0  0  0  0  0  0  0  0  0  0  0  0
    3.3090   43.4090   51.7920 N   0  0  0  0  0  0  0  0  0  0  0  0
    2.8330   44.4010   52.6050 C   0  0  0  0  0  0  0  0  0  0  0  0
    1.4270   44.4340   52.9310 N   0  0  0  0  0  0  0  0  0  0  0  0
    0.4350   45.3080   52.3270 C   0  0  0  0  0  0  0  0  0  0  0  0
   -0.9180   44.7700   52.7740 C   0  0  0  0  0  0  0  0  0  0  0  0
   -0.6350   43.9020   54.0070 C   0  0  2  0  0  0  0  0  0  0  0  0
   -0.8690   44.6800   55.3170 C   0  0  0  0  0  0  0  0  0  0  0  0
   -1.7920   45.7180   55.1200 O   0  0  0  0  0  0  0  0  0  0  0  0
    0.8330   43.4870   53.8620 C   0  0  0  0  0  0  0  0  0  0  0  0
    3.7690   45.3390   53.0730 C   0  0  0  0  0  0  0  0  0  0  0  0
    3.7250   46.4730   53.8680 C   0  0  0  0  0  0  0  0  0  0  0  0
    4.9720   46.9970   53.9460 N   0  0  0  0  0  0  0  0  0  0  0  0
    5.7990   46.2310   53.2430 N   0  0  0  0  0  0  0  0  0  0  0  0
    7.2050   46.5020   53.0950 C   0  0  0  0  0  0  0  0  0  0  0  0
    8.0330   46.7060   54.2160 C   0  0  0  0  0  0  0  0  0  0  0  0
    9.3940   46.9780   54.0500 C   0  0  0  0  0  0  0  0  0  0  0  0
    9.9430   47.0580   52.7680 C   0  0  0  0  0  0  0  0  0  0  0  0
    9.1280   46.8730   51.6490 C   0  0  0  0  0  0  0  0  0  0  0  0
    7.7670   46.6020   51.8090 C   0  0  0  0  0  0  0  0  0  0  0  0
    5.0790   45.2270   52.7110 C   0  0  0  0  0  0  0  0  0  0  0  0
    5.5230   44.2480   51.8870 N   0  0  0  0  0  0  0  0  0  0  0  0
    5.4369   41.3820   51.0930 H   0  0  0  0  0  0  0  0  0  0  0  0
    4.2351   41.9307   49.8759 H   0  0  0  0  0  0  0  0  0  0  0  0
    5.8931   42.6219   49.8759 H   0  0  0  0  0  0  0  0  0  0  0  0
    0.5710   46.3418   52.6774 H   0  0  0  0  0  0  0  0  0  0  0  0
    0.5227   45.3237   51.2306 H   0  0  0  0  0  0  0  0  0  0  0  0
   -1.5925   45.5987   53.0354 H   0  0  0  0  0  0  0  0  0  0  0  0
   -1.4083   44.1930   51.9761 H   0  0  0  0  0  0  0  0  0  0  0  0
   -1.3094   43.0346   54.0596 H   0  0  0  0  0  0  0  0  0  0  0  0
   -1.2581   43.9912   56.0813 H   0  0  0  0  0  0  0  0  0  0  0  0
    0.0867   45.1146   55.6454 H   0  0  0  0  0  0  0  0  0  0  0  0
   -2.5340   45.3400   54.5790 H   0  0  0  0  0  0  0  0  0  0  0  0
    1.3424   43.5374   54.8356 H   0  0  0  0  0  0  0  0  0  0  0  0
    0.9255   42.4528   53.4988 H   0  0  0  0  0  0  0  0  0  0  0  0
    2.8267   46.8803   54.3550 H   0  0  0  0  0  0  0  0  0  0  0  0
    7.6060   46.6509   55.2283 H   0  0  0  0  0  0  0  0  0  0  0  0
   10.0345   47.1295   54.9314 H   0  0  0  0  0  0  0  0  0  0  0  0
   11.0155   47.2664   52.6400 H   0  0  0  0  0  0  0  0  0  0  0  0
    9.5589   46.9409   50.6392 H   0  0  0  0  0  0  0  0  0  0  0  0
    7.1298   46.4657   50.9228 H   0  0  0  0  0  0  0  0  0  0  0  0
  1  2  1  0
  2  3  2  0
  3  4  1  0
  4  5  1  0
  5  6  1  0
  6  7  1  0
  7  8  1  0
  8  9  1  0
  9 10  1  0
  8 11  1  0
  4 12  2  0
 12 13  1  0
 13 14  2  0
 14 15  1  0
 15 16  1  0
 16 17  2  0
 17 18  1  0
 18 19  2  0
 19 20  1  0
 20 21  2  0
 15 22  1  0
 22 23  2  0
 23  2  1  0
 11  5  1  0
 22 12  1  0
 21 16  1  0
  1 24  1  0
  1 25  1  0
  1 26  1  0
  6 27  1  0
  6 28  1  0
  7 29  1  0
  7 30  1  0
  8 31  1  1
  9 32  1  0
  9 33  1  0
 10 34  1  0
 11 35  1  0
 11 36  1  0
 13 37  1  0
 17 38  1  0
 18 39  1  0
 19 40  1  0
 20 41  1  0
 21 42  1  0
M  END
>  <meeko>  (3) 
{"is_sidechain": [false], "free_energy": -8.477, "intermolecular_energy": -10.111, "internal_energy": -0.467}

$$$$
ligand_50_conformer_2_docked
     RDKit          3D

 42 45  0  0  0  0  0  0  0  0999 V2000
    5.8740   42.1020   49.9800 C   0  0  0  0  0  0  0  0  0  0  0  0
    5.4680   43.2720   50.8130 C   0  0  0  0  0  0  0  0  0  0  0  0
    6.3920   44.2260   51.1440 N   0  0  0  0  0  0  0  0  0  0  0  0
    6.0870   45.2970   51.9400 C   0  0  0  0  0  0  0  0  0  0  0  0
    7.1150   46.2610   52.2510 N   0  0  0  0  0  0  0  0  0  0  0  0
    7.9630   46.9400   51.2860 C   0  0  0  0  0  0  0  0  0  0  0  0
    8.6610   48.0520   52.0580 C   0  0  0  0  0  0  0  0  0  0  0  0
    8.5540   47.6630   53.5390 C   0  0  2  0  0  0  0  0  0  0  0  0
    9.8290   46.9530   54.0340 C   0  0  0  0  0  0  0  0  0  0  0  0
   10.1110   47.3070   55.3620 O   0  0  0  0  0  0  0  0  0  0  0  0
    7.3380   46.7340   53.6090 C   0  0  0  0  0  0  0  0  0  0  0  0
    4.7650   45.3800   52.4080 C   0  0  0  0  0  0  0  0  0  0  0  0
    4.0540   46.2470   53.2230 C   0  0  0  0  0  0  0  0  0  0  0  0
    2.7860   45.7850   53.3460 N   0  0  0  0  0  0  0  0  0  0  0  0
    2.6690   44.6720   52.6300 N   0  0  0  0  0  0  0  0  0  0  0  0
    1.4540   43.9030   52.5440 C   0  0  0  0  0  0  0  0  0  0  0  0
    1.1530   42.9040   53.4910 C   0  0  0  0  0  0  0  0  0  0  0  0
   -0.0270   42.1610   53.3840 C   0  0  0  0  0  0  0  0  0  0  0  0
   -0.9130   42.3990   52.3300 C   0  0  0  0  0  0  0  0  0  0  0  0
   -0.6160   43.3760   51.3780 C   0  0  0  0  0  0  0  0  0  0  0  0
    0.5620   44.1200   51.4790 C   0  0  0  0  0  0  0  0  0  0  0  0
    3.8620   44.4190   52.0610 C   0  0  0  0  0  0  0  0  0  0  0  0
    4.1920   43.3560   51.2900 N   0  0  0  0  0  0  0  0  0  0  0  0
    6.1635   41.2677   50.6359 H   0  0  0  0  0  0  0  0  0  0  0  0
    5.0304   41.7935   49.3451 H   0  0  0  0  0  0  0  0  0  0  0  0
    6.7274   42.3824   49.3451 H   0  0  0  0  0  0  0  0  0  0  0  0
    8.7026   46.2415   50.8675 H   0  0  0  0  0  0  0  0  0  0  0  0
    7.3793   47.3371   50.4425 H   0  0  0  0  0  0  0  0  0  0  0  0
    9.7163   48.1240   51.7560 H   0  0  0  0  0  0  0  0  0  0  0  0
    8.2007   49.0317   51.8622 H   0  0  0  0  0  0  0  0  0  0  0  0
    8.4421   48.5448   54.1870 H   0  0  0  0  0  0  0  0  0  0  0  0
    9.6823   45.8645   53.9740 H   0  0  0  0  0  0  0  0  0  0  0  0
   10.6734   47.2604   53.3996 H   0  0  0  0  0  0  0  0  0  0  0  0
    9.7350   46.5880   55.9340 H   0  0  0  0  0  0  0  0  0  0  0  0
    7.5426   45.8867   54.2799 H   0  0  0  0  0  0  0  0  0  0  0  0
    6.4542   47.2567   54.0035 H   0  0  0  0  0  0  0  0  0  0  0  0
    4.4528   47.1586   53.6920 H   0  0  0  0  0  0  0  0  0  0  0  0
    1.8500   42.7074   54.3190 H   0  0  0  0  0  0  0  0  0  0  0  0
   -0.2582   41.3875   54.1312 H   0  0  0  0  0  0  0  0  0  0  0  0
   -1.8432   41.8173   52.2505 H   0  0  0  0  0  0  0  0  0  0  0  0
   -1.3116   43.5605   50.5460 H   0  0  0  0  0  0  0  0  0  0  0  0
    0.7935   44.8814   50.7196 H   0  0  0  0  0  0  0  0  0  0  0  0
  1  2  1  0
  2  3  2  0
  3  4  1  0
  4  5  1  0
  5  6  1  0
  6  7  1  0
  7  8  1  0
  8  9  1  0
  9 10  1  0
  8 11  1  0
  4 12  2  0
 12 13  1  0
 13 14  2  0
 14 15  1  0
 15 16  1  0
 16 17  2  0
 17 18  1  0
 18 19  2  0
 19 20  1  0
 20 21  2  0
 15 22  1  0
 22 23  2  0
 23  2  1  0
 11  5  1  0
 22 12  1  0
 21 16  1  0
  1 24  1  0
  1 25  1  0
  1 26  1  0
  6 27  1  0
  6 28  1  0
  7 29  1  0
  7 30  1  0
  8 31  1  1
  9 32  1  0
  9 33  1  0
 10 34  1  0
 11 35  1  0
 11 36  1  0
 13 37  1  0
 17 38  1  0
 18 39  1  0
 19 40  1  0
 20 41  1  0
 21 42  1  0
M  END
>  <meeko>  (4) 
{"is_sidechain": [false], "free_energy": -8.129, "intermolecular_energy": -9.734, "internal_energy": -0.425}

$$$$
ligand_50_conformer_2_docked
     RDKit          3D

 42 45  0  0  0  0  0  0  0  0999 V2000
    4.0090   41.3070   50.5360 C   0  0  0  0  0  0  0  0  0  0  0  0
    3.3810   42.4960   51.1820 C   0  0  0  0  0  0  0  0  0  0  0  0
    4.1580   43.3890   51.8700 N   0  0  0  0  0  0  0  0  0  0  0  0
    3.6310   44.4720   52.5180 C   0  0  0  0  0  0  0  0  0  0  0  0
    4.5130   45.3680   53.2280 N   0  0  0  0  0  0  0  0  0  0  0  0
    4.2470   46.7670   53.5210 C   0  0  0  0  0  0  0  0  0  0  0  0
    5.3130   47.1900   54.5230 C   0  0  0  0  0  0  0  0  0  0  0  0
    6.4380   46.1540   54.3980 C   0  0  2  0  0  0  0  0  0  0  0  0
    7.5670   46.6480   53.4730 C   0  0  0  0  0  0  0  0  0  0  0  0
    7.3410   47.9750   53.0770 O   0  0  0  0  0  0  0  0  0  0  0  0
    5.7560   44.9060   53.8270 C   0  0  0  0  0  0  0  0  0  0  0  0
    2.2380   44.6370   52.4450 C   0  0  0  0  0  0  0  0  0  0  0  0
    1.3180   45.5430   52.9500 C   0  0  0  0  0  0  0  0  0  0  0  0
    0.0770   45.1620   52.5620 N   0  0  0  0  0  0  0  0  0  0  0  0
    0.1810   44.0610   51.8240 N   0  0  0  0  0  0  0  0  0  0  0  0
   -0.9480   43.3710   51.2570 C   0  0  0  0  0  0  0  0  0  0  0  0
   -1.5240   43.7880   50.0410 C   0  0  0  0  0  0  0  0  0  0  0  0
   -2.6270   43.1100   49.5120 C   0  0  0  0  0  0  0  0  0  0  0  0
   -3.1710   42.0170   50.1910 C   0  0  0  0  0  0  0  0  0  0  0  0
   -2.6170   41.6050   51.4050 C   0  0  0  0  0  0  0  0  0  0  0  0
   -1.5160   42.2800   51.9390 C   0  0  0  0  0  0  0  0  0  0  0  0
    1.4850   43.7370   51.7500 C   0  0  0  0  0  0  0  0  0  0  0  0
    2.0260   42.6590   51.1350 N   0  0  0  0  0  0  0  0  0  0  0  0
    4.3731   40.6176   51.3120 H   0  0  0  0  0  0  0  0  0  0  0  0
    3.2643   40.7938   49.9098 H   0  0  0  0  0  0  0  0  0  0  0  0
    4.8527   41.6328   49.9098 H   0  0  0  0  0  0  0  0  0  0  0  0
    4.3210   47.3712   52.6048 H   0  0  0  0  0  0  0  0  0  0  0  0
    3.2332   46.9113   53.9227 H   0  0  0  0  0  0  0  0  0  0  0  0
    5.6890   48.1950   54.2810 H   0  0  0  0  0  0  0  0  0  0  0  0
    4.9128   47.2319   55.5468 H   0  0  0  0  0  0  0  0  0  0  0  0
    6.9218   45.9570   55.3661 H   0  0  0  0  0  0  0  0  0  0  0  0
    8.5250   46.5901   54.0104 H   0  0  0  0  0  0  0  0  0  0  0  0
    7.5924   46.0115   52.5762 H   0  0  0  0  0  0  0  0  0  0  0  0
    7.7350   48.5530   53.7820 H   0  0  0  0  0  0  0  0  0  0  0  0
    6.3955   44.4353   53.0658 H   0  0  0  0  0  0  0  0  0  0  0  0
    5.5721   44.1538   54.6083 H   0  0  0  0  0  0  0  0  0  0  0  0
    1.5560   46.4244   53.5636 H   0  0  0  0  0  0  0  0  0  0  0  0
   -1.1040   44.6516   49.5046 H   0  0  0  0  0  0  0  0  0  0  0  0
   -3.0673   43.4382   48.5589 H   0  0  0  0  0  0  0  0  0  0  0  0
   -4.0347   41.4815   49.7699 H   0  0  0  0  0  0  0  0  0  0  0  0
   -3.0482   40.7473   51.9420 H   0  0  0  0  0  0  0  0  0  0  0  0
   -1.0904   41.9555   52.9000 H   0  0  0  0  0  0  0  0  0  0  0  0
  1  2  1  0
  2  3  2  0
  3  4  1  0
  4  5  1  0
  5  6  1  0
  6  7  1  0
  7  8  1  0
  8  9  1  0
  9 10  1  0
  8 11  1  0
  4 12  2  0
 12 13  1  0
 13 14  2  0
 14 15  1  0
 15 16  1  0
 16 17  2  0
 17 18  1  0
 18 19  2  0
 19 20  1  0
 20 21  2  0
 15 22  1  0
 22 23  2  0
 23  2  1  0
 11  5  1  0
 22 12  1  0
 21 16  1  0
  1 24  1  0
  1 25  1  0
  1 26  1  0
  6 27  1  0
  6 28  1  0
  7 29  1  0
  7 30  1  0
  8 31  1  1
  9 32  1  0
  9 33  1  0
 10 34  1  0
 11 35  1  0
 11 36  1  0
 13 37  1  0
 17 38  1  0
 18 39  1  0
 19 40  1  0
 20 41  1  0
 21 42  1  0
M  END
>  <meeko>  (5) 
{"is_sidechain": [false], "free_energy": -6.297, "intermolecular_energy": -7.636, "internal_energy": -0.315}

$$$$
