ligand_62_conformer_3_docked
     RDKit          3D

 45 47  0  0  0  0  0  0  0  0999 V2000
   -3.9800   43.8730   53.3400 C   0  0  0  0  0  0  0  0  0  0  0  0
   -2.5850   43.4710   53.5700 N   0  0  0  0  0  0  0  0  0  0  0  0
   -1.7410   44.6070   53.9820 C   0  0  0  0  0  0  0  0  0  0  0  0
   -0.4620   44.5740   53.1470 C   0  0  0  0  0  0  0  0  0  0  0  0
   -0.4760   43.2100   52.4500 C   0  0  2  0  0  0  0  0  0  0  0  0
    0.2120   42.1590   53.3520 C   0  0  0  0  0  0  0  0  0  0  0  0
    0.2310   43.2130   51.0650 C   0  0  0  0  0  0  0  0  0  0  0  0
    1.0510   44.4060   50.8360 N   0  0  0  0  0  0  0  0  0  0  0  0
    2.4220   44.5060   51.2470 C   0  0  0  0  0  0  0  0  0  0  0  0
    2.9850   43.5320   51.8170 O   0  0  0  0  0  0  0  0  0  0  0  0
    3.1550   45.7110   50.9790 N   0  0  0  0  0  0  0  0  0  0  0  0
    4.4260   46.0300   51.5720 C   0  0  0  0  0  0  0  0  0  0  0  0
    5.6260   45.5090   51.0560 C   0  0  0  0  0  0  0  0  0  0  0  0
    6.8470   45.8130   51.6650 C   0  0  0  0  0  0  0  0  0  0  0  0
    6.8900   46.6290   52.8070 C   0  0  0  0  0  0  0  0  0  0  0  0
    8.1830   46.9470   53.4450 C   0  0  0  0  0  0  0  0  0  0  0  0
    8.3010   47.4950   54.6750 N   0  0  0  0  0  0  0  0  0  0  0  0
    9.6320   47.6040   54.8420 C   0  0  0  0  0  0  0  0  0  0  0  0
   10.2700   47.1250   53.7220 C   0  0  0  0  0  0  0  0  0  0  0  0
    9.3500   46.7280   52.8790 O   0  0  0  0  0  0  0  0  0  0  0  0
    5.6880   47.1290   53.3340 C   0  0  0  0  0  0  0  0  0  0  0  0
    4.4670   46.8240   52.7250 C   0  0  0  0  0  0  0  0  0  0  0  0
   -1.9750   42.9030   52.3610 C   0  0  0  0  0  0  0  0  0  0  0  0
   -4.4839   44.0182   54.3069 H   0  0  0  0  0  0  0  0  0  0  0  0
   -4.0013   44.8138   52.7705 H   0  0  0  0  0  0  0  0  0  0  0  0
   -4.4987   43.0878   52.7705 H   0  0  0  0  0  0  0  0  0  0  0  0
   -2.2762   45.5520   53.8074 H   0  0  0  0  0  0  0  0  0  0  0  0
   -1.4996   44.5344   55.0527 H   0  0  0  0  0  0  0  0  0  0  0  0
   -0.4637   45.3866   52.4056 H   0  0  0  0  0  0  0  0  0  0  0  0
    0.4375   44.7120   53.7650 H   0  0  0  0  0  0  0  0  0  0  0  0
    0.0438   42.4159   54.4083 H   0  0  0  0  0  0  0  0  0  0  0  0
   -0.2107   41.1648   53.1447 H   0  0  0  0  0  0  0  0  0  0  0  0
    1.2922   42.1487   53.1447 H   0  0  0  0  0  0  0  0  0  0  0  0
    0.8790   42.3264   51.0017 H   0  0  0  0  0  0  0  0  0  0  0  0
   -0.5564   43.2062   50.2969 H   0  0  0  0  0  0  0  0  0  0  0  0
    0.6300   45.2080   50.3160 H   0  0  0  0  0  0  0  0  0  0  0  0
    2.7720   46.3610   50.2550 H   0  0  0  0  0  0  0  0  0  0  0  0
    5.6037   44.8591   50.1688 H   0  0  0  0  0  0  0  0  0  0  0  0
    7.7811   45.4100   51.2465 H   0  0  0  0  0  0  0  0  0  0  0  0
   10.1307   48.0118   55.7336 H   0  0  0  0  0  0  0  0  0  0  0  0
   11.3576   47.0829   53.5628 H   0  0  0  0  0  0  0  0  0  0  0  0
    5.7073   47.7646   54.2316 H   0  0  0  0  0  0  0  0  0  0  0  0
    3.5312   47.2107   53.1548 H   0  0  0  0  0  0  0  0  0  0  0  0
   -2.4063   43.3682   51.4623 H   0  0  0  0  0  0  0  0  0  0  0  0
   -2.1578   41.8205   52.2920 H   0  0  0  0  0  0  0  0  0  0  0  0
  1  2  1  0
  2  3  1  0
  3  4  1  0
  4  5  1  0
  5  6  1  1
  5  7  1  0
  7  8  1  0
  8  9  1  0
  9 10  2  0
  9 11  1  0
 11 12  1  0
 12 13  2  0
 13 14  1  0
 14 15  2  0
 15 16  1  0
 16 17  2  0
 17 18  1  0
 18 19  2  0
 19 20  1  0
 15 21  1  0
 21 22  2  0
  5 23  1  0
 23  2  1  0
 22 12  1  0
 20 16  1  0
  1 24  1  0
  1 25  1  0
  1 26  1  0
  3 27  1  0
  3 28  1  0
  4 29  1  0
  4 30  1  0
  6 31  1  0
  6 32  1  0
  6 33  1  0
  7 34  1  0
  7 35  1  0
  8 36  1  0
 11 37  1  0
 13 38  1  0
 14 39  1  0
 18 40  1  0
 19 41  1  0
 21 42  1  0
 22 43  1  0
 23 44  1  0
 23 45  1  0
M  END
>  <meeko>  (1) 
{"is_sidechain": [false], "free_energy": -7.739, "intermolecular_energy": -9.549, "internal_energy": -0.445}

$$$$
ligand_62_conformer_3_docked
     RDKit          3D

 45 47  0  0  0  0  0  0  0  0999 V2000
   10.7620   45.6520   51.6160 C   0  0  0  0  0  0  0  0  0  0  0  0
    9.9440   46.7980   52.0370 N   0  0  0  0  0  0  0  0  0  0  0  0
    9.9140   46.9480   53.5030 C   0  0  0  0  0  0  0  0  0  0  0  0
    8.4610   47.1550   53.9290 C   0  0  0  0  0  0  0  0  0  0  0  0
    7.6970   47.4100   52.6260 C   0  0  2  0  0  0  0  0  0  0  0  0
    7.7070   48.9230   52.3070 C   0  0  0  0  0  0  0  0  0  0  0  0
    6.2210   46.9220   52.6660 C   0  0  0  0  0  0  0  0  0  0  0  0
    6.0940   45.4620   52.6800 N   0  0  0  0  0  0  0  0  0  0  0  0
    5.7660   44.6920   51.5150 C   0  0  0  0  0  0  0  0  0  0  0  0
    5.5920   45.2650   50.4050 O   0  0  0  0  0  0  0  0  0  0  0  0
    5.6660   43.2630   51.6160 N   0  0  0  0  0  0  0  0  0  0  0  0
    5.0880   42.4220   50.6030 C   0  0  0  0  0  0  0  0  0  0  0  0
    3.7860   41.9100   50.7320 C   0  0  0  0  0  0  0  0  0  0  0  0
    3.2550   41.0730   49.7460 C   0  0  0  0  0  0  0  0  0  0  0  0
    4.0200   40.7220   48.6220 C   0  0  0  0  0  0  0  0  0  0  0  0
    3.4540   39.8380   47.5840 C   0  0  0  0  0  0  0  0  0  0  0  0
    2.8110   38.6800   47.8500 N   0  0  0  0  0  0  0  0  0  0  0  0
    2.4750   38.2210   46.6300 C   0  0  0  0  0  0  0  0  0  0  0  0
    2.9200   39.1050   45.6760 C   0  0  0  0  0  0  0  0  0  0  0  0
    3.5200   40.0900   46.2950 O   0  0  0  0  0  0  0  0  0  0  0  0
    5.3300   41.2170   48.5060 C   0  0  0  0  0  0  0  0  0  0  0  0
    5.8600   42.0530   49.4930 C   0  0  0  0  0  0  0  0  0  0  0  0
    8.5500   46.6640   51.5940 C   0  0  0  0  0  0  0  0  0  0  0  0
   11.1387   45.1243   52.5046 H   0  0  0  0  0  0  0  0  0  0  0  0
   10.1488   44.9652   51.0141 H   0  0  0  0  0  0  0  0  0  0  0  0
   11.6108   46.0088   51.0141 H   0  0  0  0  0  0  0  0  0  0  0  0
   10.3167   46.0417   53.9789 H   0  0  0  0  0  0  0  0  0  0  0  0
   10.5277   47.8074   53.8110 H   0  0  0  0  0  0  0  0  0  0  0  0
    8.0748   46.2574   54.4341 H   0  0  0  0  0  0  0  0  0  0  0  0
    8.3540   47.9876   54.6399 H   0  0  0  0  0  0  0  0  0  0  0  0
    7.7108   49.4957   53.2461 H   0  0  0  0  0  0  0  0  0  0  0  0
    8.6068   49.1689   51.7240 H   0  0  0  0  0  0  0  0  0  0  0  0
    6.8105   49.1807   51.7240 H   0  0  0  0  0  0  0  0  0  0  0  0
    5.7451   47.3227   53.5732 H   0  0  0  0  0  0  0  0  0  0  0  0
    5.7332   47.2830   51.7485 H   0  0  0  0  0  0  0  0  0  0  0  0
    6.2880   44.9540   53.5720 H   0  0  0  0  0  0  0  0  0  0  0  0
    6.1050   42.8040   52.4460 H   0  0  0  0  0  0  0  0  0  0  0  0
    3.1812   42.1691   51.6135 H   0  0  0  0  0  0  0  0  0  0  0  0
    2.2305   40.6866   49.8515 H   0  0  0  0  0  0  0  0  0  0  0  0
    1.9306   37.2866   46.4284 H   0  0  0  0  0  0  0  0  0  0  0  0
    2.7944   39.0030   44.5880 H   0  0  0  0  0  0  0  0  0  0  0  0
    5.9420   40.9450   47.6334 H   0  0  0  0  0  0  0  0  0  0  0  0
    6.8911   42.4242   49.3977 H   0  0  0  0  0  0  0  0  0  0  0  0
    8.2623   45.6029   51.5576 H   0  0  0  0  0  0  0  0  0  0  0  0
    8.4097   47.0784   50.5847 H   0  0  0  0  0  0  0  0  0  0  0  0
  1  2  1  0
  2  3  1  0
  3  4  1  0
  4  5  1  0
  5  6  1  6
  5  7  1  0
  7  8  1  0
  8  9  1  0
  9 10  2  0
  9 11  1  0
 11 12  1  0
 12 13  2  0
 13 14  1  0
 14 15  2  0
 15 16  1  0
 16 17  2  0
 17 18  1  0
 18 19  2  0
 19 20  1  0
 15 21  1  0
 21 22  2  0
  5 23  1  0
 23  2  1  0
 22 12  1  0
 20 16  1  0
  1 24  1  0
  1 25  1  0
  1 26  1  0
  3 27  1  0
  3 28  1  0
  4 29  1  0
  4 30  1  0
  6 31  1  0
  6 32  1  0
  6 33  1  0
  7 34  1  0
  7 35  1  0
  8 36  1  0
 11 37  1  0
 13 38  1  0
 14 39  1  0
 18 40  1  0
 19 41  1  0
 21 42  1  0
 22 43  1  0
 23 44  1  0
 23 45  1  0
M  END
>  <meeko>  (2) 
{"is_sidechain": [false], "free_energy": -7.539, "intermolecular_energy": -9.401, "internal_energy": -0.346}

$$$$
ligand_62_conformer_3_docked
     RDKit          3D

 45 47  0  0  0  0  0  0  0  0999 V2000
   -3.3320   47.9250   56.4960 C   0  0  0  0  0  0  0  0  0  0  0  0
   -2.8690   46.5510   56.7400 N   0  0  0  0  0  0  0  0  0  0  0  0
   -1.5840   46.5200   57.4640 C   0  0  0  0  0  0  0  0  0  0  0  0
   -0.6610   45.5350   56.7470 C   0  0  0  0  0  0  0  0  0  0  0  0
   -1.5650   44.7870   55.7630 C   0  0  2  0  0  0  0  0  0  0  0  0
   -2.1740   43.5460   56.4580 C   0  0  0  0  0  0  0  0  0  0  0  0
   -0.8280   44.3210   54.4750 C   0  0  0  0  0  0  0  0  0  0  0  0
    0.0180   45.3620   53.8830 N   0  0  0  0  0  0  0  0  0  0  0  0
    1.4490   45.2760   53.8330 C   0  0  0  0  0  0  0  0  0  0  0  0
    2.0390   44.2600   54.2920 O   0  0  0  0  0  0  0  0  0  0  0  0
    2.2010   46.3390   53.2300 N   0  0  0  0  0  0  0  0  0  0  0  0
    3.6250   46.4940   53.3610 C   0  0  0  0  0  0  0  0  0  0  0  0
    4.2140   46.8500   54.5860 C   0  0  0  0  0  0  0  0  0  0  0  0
    5.5990   47.0190   54.6820 C   0  0  0  0  0  0  0  0  0  0  0  0
    6.4170   46.8500   53.5530 C   0  0  0  0  0  0  0  0  0  0  0  0
    7.8780   47.0300   53.6610 C   0  0  0  0  0  0  0  0  0  0  0  0
    8.4990   47.5070   54.7620 N   0  0  0  0  0  0  0  0  0  0  0  0
    9.7990   47.5000   54.4160 C   0  0  0  0  0  0  0  0  0  0  0  0
    9.9230   47.0240   53.1320 C   0  0  0  0  0  0  0  0  0  0  0  0
    8.7220   46.7440   52.6930 O   0  0  0  0  0  0  0  0  0  0  0  0
    5.8240   46.5170   52.3240 C   0  0  0  0  0  0  0  0  0  0  0  0
    4.4390   46.3480   52.2290 C   0  0  0  0  0  0  0  0  0  0  0  0
   -2.6700   45.8120   55.4870 C   0  0  0  0  0  0  0  0  0  0  0  0
   -3.5024   48.4307   57.4579 H   0  0  0  0  0  0  0  0  0  0  0  0
   -2.5689   48.4729   55.9238 H   0  0  0  0  0  0  0  0  0  0  0  0
   -4.2711   47.8993   55.9238 H   0  0  0  0  0  0  0  0  0  0  0  0
   -1.1316   47.5227   57.4645 H   0  0  0  0  0  0  0  0  0  0  0  0
   -1.7406   46.2069   58.5068 H   0  0  0  0  0  0  0  0  0  0  0  0
    0.1343   46.0720   56.2094 H   0  0  0  0  0  0  0  0  0  0  0  0
   -0.1612   44.8517   57.4494 H   0  0  0  0  0  0  0  0  0  0  0  0
   -2.1131   43.6701   57.5493 H   0  0  0  0  0  0  0  0  0  0  0  0
   -3.2272   43.4385   56.1594 H   0  0  0  0  0  0  0  0  0  0  0  0
   -1.6146   42.6471   56.1594 H   0  0  0  0  0  0  0  0  0  0  0  0
   -0.1945   43.4580   54.7279 H   0  0  0  0  0  0  0  0  0  0  0  0
   -1.5985   44.0656   53.7326 H   0  0  0  0  0  0  0  0  0  0  0  0
   -0.4440   46.1890   53.4430 H   0  0  0  0  0  0  0  0  0  0  0  0
    1.6900   47.0000   52.6020 H   0  0  0  0  0  0  0  0  0  0  0  0
    3.5822   46.9966   55.4745 H   0  0  0  0  0  0  0  0  0  0  0  0
    6.0508   47.2862   55.6487 H   0  0  0  0  0  0  0  0  0  0  0  0
   10.6310   47.8238   55.0585 H   0  0  0  0  0  0  0  0  0  0  0  0
   10.8628   46.9006   52.5738 H   0  0  0  0  0  0  0  0  0  0  0  0
    6.4529   46.3883   51.4307 H   0  0  0  0  0  0  0  0  0  0  0  0
    3.9849   46.0986   51.2587 H   0  0  0  0  0  0  0  0  0  0  0  0
   -2.3610   46.4985   54.6849 H   0  0  0  0  0  0  0  0  0  0  0  0
   -3.5986   45.3207   55.1608 H   0  0  0  0  0  0  0  0  0  0  0  0
  1  2  1  0
  2  3  1  0
  3  4  1  0
  4  5  1  0
  5  6  1  1
  5  7  1  0
  7  8  1  0
  8  9  1  0
  9 10  2  0
  9 11  1  0
 11 12  1  0
 12 13  2  0
 13 14  1  0
 14 15  2  0
 15 16  1  0
 16 17  2  0
 17 18  1  0
 18 19  2  0
 19 20  1  0
 15 21  1  0
 21 22  2  0
  5 23  1  0
 23  2  1  0
 22 12  1  0
 20 16  1  0
  1 24  1  0
  1 25  1  0
  1 26  1  0
  3 27  1  0
  3 28  1  0
  4 29  1  0
  4 30  1  0
  6 31  1  0
  6 32  1  0
  6 33  1  0
  7 34  1  0
  7 35  1  0
  8 36  1  0
 11 37  1  0
 13 38  1  0
 14 39  1  0
 18 40  1  0
 19 41  1  0
 21 42  1  0
 22 43  1  0
 23 44  1  0
 23 45  1  0
M  END
>  <meeko>  (3) 
{"is_sidechain": [false], "free_energy": -7.445, "intermolecular_energy": -9.151, "internal_energy": -0.48}

$$$$
ligand_62_conformer_3_docked
     RDKit          3D

 45 47  0  0  0  0  0  0  0  0999 V2000
   -2.9690   43.9960   49.0970 C   0  0  0  0  0  0  0  0  0  0  0  0
   -2.4420   43.2960   50.2770 N   0  0  0  0  0  0  0  0  0  0  0  0
   -3.4870   43.0490   51.2870 C   0  0  0  0  0  0  0  0  0  0  0  0
   -2.9370   43.4670   52.6500 C   0  0  0  0  0  0  0  0  0  0  0  0
   -1.4390   43.6880   52.4240 C   0  0  2  0  0  0  0  0  0  0  0  0
   -0.6790   42.3590   52.6450 C   0  0  0  0  0  0  0  0  0  0  0  0
   -0.8230   44.7710   53.3550 C   0  0  0  0  0  0  0  0  0  0  0  0
    0.1150   45.6620   52.6660 N   0  0  0  0  0  0  0  0  0  0  0  0
    1.5340   45.4440   52.6470 C   0  0  0  0  0  0  0  0  0  0  0  0
    2.0280   44.4380   53.2240 O   0  0  0  0  0  0  0  0  0  0  0  0
    2.3810   46.3650   51.9430 N   0  0  0  0  0  0  0  0  0  0  0  0
    3.8120   46.4070   52.0770 C   0  0  0  0  0  0  0  0  0  0  0  0
    4.4280   47.0660   53.1550 C   0  0  0  0  0  0  0  0  0  0  0  0
    5.8220   47.1150   53.2500 C   0  0  0  0  0  0  0  0  0  0  0  0
    6.6240   46.5200   52.2630 C   0  0  0  0  0  0  0  0  0  0  0  0
    8.0960   46.5750   52.3690 C   0  0  0  0  0  0  0  0  0  0  0  0
    8.7560   47.2120   53.3620 N   0  0  0  0  0  0  0  0  0  0  0  0
   10.0510   47.0040   53.0600 C   0  0  0  0  0  0  0  0  0  0  0  0
   10.1330   46.2570   51.9080 C   0  0  0  0  0  0  0  0  0  0  0  0
    8.9120   46.0100   51.5070 O   0  0  0  0  0  0  0  0  0  0  0  0
    6.0070   45.8810   51.1740 C   0  0  0  0  0  0  0  0  0  0  0  0
    4.6130   45.8330   51.0800 C   0  0  0  0  0  0  0  0  0  0  0  0
   -1.3830   44.0680   50.9400 C   0  0  0  0  0  0  0  0  0  0  0  0
   -3.6013   44.8358   49.4209 H   0  0  0  0  0  0  0  0  0  0  0  0
   -2.1325   44.3782   48.4935 H   0  0  0  0  0  0  0  0  0  0  0  0
   -3.5676   43.2978   48.4935 H   0  0  0  0  0  0  0  0  0  0  0  0
   -4.3831   43.6408   51.0489 H   0  0  0  0  0  0  0  0  0  0  0  0
   -3.7633   41.9843   51.2974 H   0  0  0  0  0  0  0  0  0  0  0  0
   -3.4172   44.3956   52.9921 H   0  0  0  0  0  0  0  0  0  0  0  0
   -3.1300   42.7085   53.4229 H   0  0  0  0  0  0  0  0  0  0  0  0
   -0.5724   42.1726   53.7238 H   0  0  0  0  0  0  0  0  0  0  0  0
   -1.2417   41.5338   52.1842 H   0  0  0  0  0  0  0  0  0  0  0  0
    0.3176   42.4255   52.1842 H   0  0  0  0  0  0  0  0  0  0  0  0
   -1.6397   45.3787   53.7719 H   0  0  0  0  0  0  0  0  0  0  0  0
   -0.2572   44.2444   54.1377 H   0  0  0  0  0  0  0  0  0  0  0  0
   -0.2690   46.4720   52.1310 H   0  0  0  0  0  0  0  0  0  0  0  0
    1.9340   46.9940   51.2380 H   0  0  0  0  0  0  0  0  0  0  0  0
    3.8099   47.5458   53.9281 H   0  0  0  0  0  0  0  0  0  0  0  0
    6.2937   47.6232   54.1039 H   0  0  0  0  0  0  0  0  0  0  0  0
   10.9082   47.3730   53.6423 H   0  0  0  0  0  0  0  0  0  0  0  0
   11.0581   45.9267   51.4130 H   0  0  0  0  0  0  0  0  0  0  0  0
    6.6243   45.4160   50.3912 H   0  0  0  0  0  0  0  0  0  0  0  0
    4.1409   45.3409   50.2169 H   0  0  0  0  0  0  0  0  0  0  0  0
   -1.5628   45.1461   50.8158 H   0  0  0  0  0  0  0  0  0  0  0  0
   -0.3961   43.8467   50.5074 H   0  0  0  0  0  0  0  0  0  0  0  0
  1  2  1  0
  2  3  1  0
  3  4  1  0
  4  5  1  0
  5  6  1  6
  5  7  1  0
  7  8  1  0
  8  9  1  0
  9 10  2  0
  9 11  1  0
 11 12  1  0
 12 13  2  0
 13 14  1  0
 14 15  2  0
 15 16  1  0
 16 17  2  0
 17 18  1  0
 18 19  2  0
 19 20  1  0
 15 21  1  0
 21 22  2  0
  5 23  1  0
 23  2  1  0
 22 12  1  0
 20 16  1  0
  1 24  1  0
  1 25  1  0
  1 26  1  0
  3 27  1  0
  3 28  1  0
  4 29  1  0
  4 30  1  0
  6 31  1  0
  6 32  1  0
  6 33  1  0
  7 34  1  0
  7 35  1  0
  8 36  1  0
 11 37  1  0
 13 38  1  0
 14 39  1  0
 18 40  1  0
 19 41  1  0
 21 42  1  0
 22 43  1  0
 23 44  1  0
 23 45  1  0
M  END
>  <meeko>  (4) 
{"is_sidechain": [false], "free_energy": -7.29, "intermolecular_energy": -8.905, "internal_energy": -0.535}

$$$$
ligand_62_conformer_3_docked
     RDKit          3D

 45 47  0  0  0  0  0  0  0  0999 V2000
    9.6990   44.5830   50.4850 C   0  0  0  0  0  0  0  0  0  0  0  0
    9.4260   45.9100   51.0560 N   0  0  0  0  0  0  0  0  0  0  0  0
   10.4160   46.2860   52.0810 C   0  0  0  0  0  0  0  0  0  0  0  0
    9.6600   46.8160   53.2980 C   0  0  0  0  0  0  0  0  0  0  0  0
    8.2180   47.0030   52.8200 C   0  0  2  0  0  0  0  0  0  0  0  0
    8.0470   48.4220   52.2290 C   0  0  0  0  0  0  0  0  0  0  0  0
    7.1600   46.8040   53.9430 C   0  0  0  0  0  0  0  0  0  0  0  0
    6.4740   45.5110   53.8700 N   0  0  0  0  0  0  0  0  0  0  0  0
    5.2240   45.3230   53.1900 C   0  0  0  0  0  0  0  0  0  0  0  0
    4.6720   46.2920   52.6010 O   0  0  0  0  0  0  0  0  0  0  0  0
    4.6230   44.0200   53.1620 N   0  0  0  0  0  0  0  0  0  0  0  0
    3.2660   43.7670   52.7570 C   0  0  0  0  0  0  0  0  0  0  0  0
    2.1840   44.0360   53.6130 C   0  0  0  0  0  0  0  0  0  0  0  0
    0.8760   43.7580   53.2060 C   0  0  0  0  0  0  0  0  0  0  0  0
    0.6270   43.1930   51.9450 C   0  0  0  0  0  0  0  0  0  0  0  0
   -0.7570   42.9020   51.5210 C   0  0  0  0  0  0  0  0  0  0  0  0
   -1.7450   42.5430   52.3710 N   0  0  0  0  0  0  0  0  0  0  0  0
   -2.8090   42.3820   51.5630 C   0  0  0  0  0  0  0  0  0  0  0  0
   -2.4370   42.6450   50.2660 C   0  0  0  0  0  0  0  0  0  0  0  0
   -1.1660   42.9610   50.2730 O   0  0  0  0  0  0  0  0  0  0  0  0
    1.7120   42.9040   51.1010 C   0  0  0  0  0  0  0  0  0  0  0  0
    3.0190   43.1820   51.5080 C   0  0  0  0  0  0  0  0  0  0  0  0
    8.1060   45.9660   51.6970 C   0  0  0  0  0  0  0  0  0  0  0  0
    9.8483   43.8575   51.2983 H   0  0  0  0  0  0  0  0  0  0  0  0
    8.8468   44.2683   49.8648 H   0  0  0  0  0  0  0  0  0  0  0  0
   10.6062   44.6303   49.8648 H   0  0  0  0  0  0  0  0  0  0  0  0
   11.0108   45.4056   52.3657 H   0  0  0  0  0  0  0  0  0  0  0  0
   11.0966   47.0564   51.6895 H   0  0  0  0  0  0  0  0  0  0  0  0
    9.7021   46.0915   54.1246 H   0  0  0  0  0  0  0  0  0  0  0  0
   10.0937   47.7531   53.6772 H   0  0  0  0  0  0  0  0  0  0  0  0
    7.9590   49.1519   53.0473 H   0  0  0  0  0  0  0  0  0  0  0  0
    8.9219   48.6691   51.6097 H   0  0  0  0  0  0  0  0  0  0  0  0
    7.1385   48.4542   51.6097 H   0  0  0  0  0  0  0  0  0  0  0  0
    7.6665   46.8761   54.9168 H   0  0  0  0  0  0  0  0  0  0  0  0
    6.3969   47.5857   53.8141 H   0  0  0  0  0  0  0  0  0  0  0  0
    6.9340   44.6770   54.2990 H   0  0  0  0  0  0  0  0  0  0  0  0
    5.2320   43.2000   53.3830 H   0  0  0  0  0  0  0  0  0  0  0  0
    2.3675   44.4674   54.6081 H   0  0  0  0  0  0  0  0  0  0  0  0
    0.0354   43.9836   53.8787 H   0  0  0  0  0  0  0  0  0  0  0  0
   -3.8172   42.0866   51.8889 H   0  0  0  0  0  0  0  0  0  0  0  0
   -3.0894   42.5984   49.3815 H   0  0  0  0  0  0  0  0  0  0  0  0
    1.5312   42.4557   50.1129 H   0  0  0  0  0  0  0  0  0  0  0  0
    3.8609   42.9398   50.8428 H   0  0  0  0  0  0  0  0  0  0  0  0
    7.8418   44.9821   52.1118 H   0  0  0  0  0  0  0  0  0  0  0  0
    7.3221   46.2402   50.9757 H   0  0  0  0  0  0  0  0  0  0  0  0
  1  2  1  0
  2  3  1  0
  3  4  1  0
  4  5  1  0
  5  6  1  6
  5  7  1  0
  7  8  1  0
  8  9  1  0
  9 10  2  0
  9 11  1  0
 11 12  1  0
 12 13  2  0
 13 14  1  0
 14 15  2  0
 15 16  1  0
 16 17  2  0
 17 18  1  0
 18 19  2  0
 19 20  1  0
 15 21  1  0
 21 22  2  0
  5 23  1  0
 23  2  1  0
 22 12  1  0
 20 16  1  0
  1 24  1  0
  1 25  1  0
  1 26  1  0
  3 27  1  0
  3 28  1  0
  4 29  1  0
  4 30  1  0
  6 31  1  0
  6 32  1  0
  6 33  1  0
  7 34  1  0
  7 35  1  0
  8 36  1  0
 11 37  1  0
 13 38  1  0
 14 39  1  0
 18 40  1  0
 19 41  1  0
 21 42  1  0
 22 43  1  0
 23 44  1  0
 23 45  1  0
M  END
>  <meeko>  (5) 
{"is_sidechain": [false], "free_energy": -7.237, "intermolecular_energy": -9.015, "internal_energy": -0.359}

$$$$
