MODEL 1
REMARK VINA RESULT:    -8.764      0.000      0.000
REMARK INTER + INTRA:         -11.310
REMARK INTER:                 -10.814
REMARK INTRA:                  -0.496
REMARK UNBOUND:                -0.496
REMARK SMILES C[C@@H](NCc1nc2sc3c(c2c(=O)[nH]1)CCC3)c1cc(Br)cs1
REMARK SMILES IDX 3 1 2 3 1 4 18 5 19 6 23 7 20 8 22 9 21 10 4 11 5 12 6 13
REMARK SMILES IDX 14 14 7 15 12 16 8 17 11 18 13 19 9 20 10 21 17 22 15 23
REMARK SMILES IDX 16 24
REMARK H PARENT 3 2 14 25
ROOT
ATOM      1  N   UNL     1       2.465  44.600  51.187  1.00  0.00    -0.302 NA
ATOM      2  H   UNL     1       1.465  44.453  50.918  1.00  0.00     0.123 HD
ENDROOT
BRANCH   1   3
ATOM      3  C   UNL     1       2.730  43.927  52.476  1.00  0.00     0.091 C 
ATOM      4  C   UNL     1       2.908  42.428  52.240  1.00  0.00     0.030 C 
BRANCH   3   5
ATOM      5  C   UNL     1       1.625  44.171  53.475  1.00  0.00     0.022 A 
ATOM      6  C   UNL     1       1.783  44.758  54.725  1.00  0.00     0.032 A 
ATOM      7  S   UNL     1      -0.006  43.808  53.261  1.00  0.00    -0.146 S 
ATOM      8  C   UNL     1       0.582  44.875  55.433  1.00  0.00     0.029 A 
ATOM      9  C   UNL     1      -0.525  44.387  54.752  1.00  0.00     0.080 A 
ATOM     10  Br  UNL     1       0.474  45.644  57.175  1.00  0.00    -0.050 Br
ENDBRANCH   3   5
ENDBRANCH   1   3
BRANCH   1  11
ATOM     11  C   UNL     1       2.723  46.047  51.235  1.00  0.00     0.157 C 
BRANCH  11  12
ATOM     12  C   UNL     1       4.088  46.325  51.793  1.00  0.00     0.124 A 
ATOM     13  N   UNL     1       5.190  45.963  51.071  1.00  0.00    -0.222 NA
ATOM     14  N   UNL     1       4.231  46.898  53.033  1.00  0.00    -0.309 N 
ATOM     15  C   UNL     1       6.420  46.188  51.590  1.00  0.00     0.131 A 
ATOM     16  C   UNL     1       5.465  47.130  53.571  1.00  0.00     0.259 A 
ATOM     17  S   UNL     1       7.910  45.818  50.870  1.00  0.00    -0.120 S 
ATOM     18  C   UNL     1       6.591  46.769  52.835  1.00  0.00     0.080 A 
ATOM     19  O   UNL     1       5.574  47.657  54.710  1.00  0.00    -0.269 OA
ATOM     20  C   UNL     1       8.766  46.426  52.195  1.00  0.00     0.011 A 
ATOM     21  C   UNL     1       7.940  46.893  53.156  1.00  0.00    -0.019 A 
ATOM     22  C   UNL     1      10.194  46.544  52.528  1.00  0.00     0.047 C 
ATOM     23  C   UNL     1       8.672  47.419  54.325  1.00  0.00     0.038 C 
ATOM     24  C   UNL     1      10.157  47.202  53.931  1.00  0.00     0.010 C 
ATOM     25  H   UNL     1       3.381  47.160  53.583  1.00  0.00     0.171 HD
ENDBRANCH  11  12
ENDBRANCH   1  11
TORSDOF 4
ENDMDL
MODEL 2
REMARK VINA RESULT:    -8.636      1.666      1.890
REMARK INTER + INTRA:         -11.152
REMARK INTER:                 -10.641
REMARK INTRA:                  -0.511
REMARK UNBOUND:                -0.496
REMARK SMILES C[C@@H](NCc1nc2sc3c(c2c(=O)[nH]1)CCC3)c1cc(Br)cs1
REMARK SMILES IDX 3 1 2 3 1 4 18 5 19 6 23 7 20 8 22 9 21 10 4 11 5 12 6 13
REMARK SMILES IDX 14 14 7 15 12 16 8 17 11 18 13 19 9 20 10 21 17 22 15 23
REMARK SMILES IDX 16 24
REMARK H PARENT 3 2 14 25
ROOT
ATOM      1  N   UNL     1       2.218  42.372  53.054  1.00  0.00    -0.302 NA
ATOM      2  H   UNL     1       2.328  41.358  53.290  1.00  0.00     0.123 HD
ENDROOT
BRANCH   1   3
ATOM      3  C   UNL     1       0.791  42.666  52.814  1.00  0.00     0.091 C 
ATOM      4  C   UNL     1       0.633  43.343  51.452  1.00  0.00     0.030 C 
BRANCH   3   5
ATOM      5  C   UNL     1       0.205  43.535  53.900  1.00  0.00     0.022 A 
ATOM      6  C   UNL     1       0.929  44.186  54.891  1.00  0.00     0.032 A 
ATOM      7  S   UNL     1      -1.427  43.904  54.105  1.00  0.00    -0.146 S 
ATOM      8  C   UNL     1       0.126  44.939  55.756  1.00  0.00     0.029 A 
ATOM      9  C   UNL     1      -1.229  44.889  55.454  1.00  0.00     0.080 A 
ATOM     10  Br  UNL     1       0.830  45.948  57.212  1.00  0.00    -0.050 Br
ENDBRANCH   3   5
ENDBRANCH   1   3
BRANCH   1  11
ATOM     11  C   UNL     1       3.066  42.669  51.890  1.00  0.00     0.157 C 
BRANCH  11  12
ATOM     12  C   UNL     1       4.162  43.624  52.261  1.00  0.00     0.124 A 
ATOM     13  N   UNL     1       5.038  44.041  51.300  1.00  0.00    -0.222 NA
ATOM     14  N   UNL     1       4.311  44.042  53.561  1.00  0.00    -0.309 N 
ATOM     15  C   UNL     1       6.043  44.880  51.644  1.00  0.00     0.131 A 
ATOM     16  C   UNL     1       5.322  44.886  53.925  1.00  0.00     0.259 A 
ATOM     17  S   UNL     1       7.234  45.514  50.616  1.00  0.00    -0.120 S 
ATOM     18  C   UNL     1       6.213  45.319  52.946  1.00  0.00     0.080 A 
ATOM     19  O   UNL     1       5.442  45.258  55.123  1.00  0.00    -0.269 OA
ATOM     20  C   UNL     1       7.959  46.363  51.886  1.00  0.00     0.011 A 
ATOM     21  C   UNL     1       7.314  46.165  53.056  1.00  0.00    -0.019 A 
ATOM     22  C   UNL     1       9.129  47.248  51.993  1.00  0.00     0.047 C 
ATOM     23  C   UNL     1       7.939  46.892  54.178  1.00  0.00     0.038 C 
ATOM     24  C   UNL     1       9.134  47.614  53.500  1.00  0.00     0.010 C 
ATOM     25  H   UNL     1       3.644  43.707  54.293  1.00  0.00     0.171 HD
ENDBRANCH  11  12
ENDBRANCH   1  11
TORSDOF 4
ENDMDL
MODEL 3
REMARK VINA RESULT:    -8.481      1.338      1.559
REMARK INTER + INTRA:         -10.960
REMARK INTER:                 -10.592
REMARK INTRA:                  -0.368
REMARK UNBOUND:                -0.496
REMARK SMILES C[C@@H](NCc1nc2sc3c(c2c(=O)[nH]1)CCC3)c1cc(Br)cs1
REMARK SMILES IDX 3 1 2 3 1 4 18 5 19 6 23 7 20 8 22 9 21 10 4 11 5 12 6 13
REMARK SMILES IDX 14 14 7 15 12 16 8 17 11 18 13 19 9 20 10 21 17 22 15 23
REMARK SMILES IDX 16 24
REMARK H PARENT 3 2 14 25
ROOT
ATOM      1  N   UNL     1       1.472  45.869  52.510  1.00  0.00    -0.302 NA
ATOM      2  H   UNL     1       1.789  46.602  53.187  1.00  0.00     0.123 HD
ENDROOT
BRANCH   1   3
ATOM      3  C   UNL     1       1.358  44.574  53.210  1.00  0.00     0.091 C 
ATOM      4  C   UNL     1       0.554  43.599  52.350  1.00  0.00     0.030 C 
BRANCH   3   5
ATOM      5  C   UNL     1       0.719  44.722  54.569  1.00  0.00     0.022 A 
ATOM      6  C   UNL     1      -0.582  44.354  54.893  1.00  0.00     0.032 A 
ATOM      7  S   UNL     1       1.459  45.331  55.954  1.00  0.00    -0.146 S 
ATOM      8  C   UNL     1      -0.902  44.589  56.235  1.00  0.00     0.029 A 
ATOM      9  C   UNL     1       0.136  45.138  56.975  1.00  0.00     0.080 A 
ATOM     10  Br  UNL     1      -2.610  44.185  56.981  1.00  0.00    -0.050 Br
ENDBRANCH   3   5
ENDBRANCH   1   3
BRANCH   1  11
ATOM     11  C   UNL     1       2.424  45.832  51.390  1.00  0.00     0.157 C 
BRANCH  11  12
ATOM     12  C   UNL     1       3.811  46.154  51.862  1.00  0.00     0.124 A 
ATOM     13  N   UNL     1       4.879  45.782  51.095  1.00  0.00    -0.222 NA
ATOM     14  N   UNL     1       4.010  46.778  53.069  1.00  0.00    -0.309 N 
ATOM     15  C   UNL     1       6.131  46.048  51.537  1.00  0.00     0.131 A 
ATOM     16  C   UNL     1       5.267  47.051  53.530  1.00  0.00     0.259 A 
ATOM     17  S   UNL     1       7.586  45.674  50.751  1.00  0.00    -0.120 S 
ATOM     18  C   UNL     1       6.358  46.679  52.748  1.00  0.00     0.080 A 
ATOM     19  O   UNL     1       5.428  47.624  54.641  1.00  0.00    -0.269 OA
ATOM     20  C   UNL     1       8.501  46.347  52.003  1.00  0.00     0.011 A 
ATOM     21  C   UNL     1       7.720  46.838  52.989  1.00  0.00    -0.019 A 
ATOM     22  C   UNL     1       9.943  46.501  52.253  1.00  0.00     0.047 C 
ATOM     23  C   UNL     1       8.504  47.421  54.096  1.00  0.00     0.038 C 
ATOM     24  C   UNL     1       9.970  47.213  53.630  1.00  0.00     0.010 C 
ATOM     25  H   UNL     1       3.187  47.047  53.655  1.00  0.00     0.171 HD
ENDBRANCH  11  12
ENDBRANCH   1  11
TORSDOF 4
ENDMDL
MODEL 4
REMARK VINA RESULT:    -8.082      2.130      2.681
REMARK INTER + INTRA:         -10.468
REMARK INTER:                 -10.023
REMARK INTRA:                  -0.446
REMARK UNBOUND:                -0.496
REMARK SMILES C[C@@H](NCc1nc2sc3c(c2c(=O)[nH]1)CCC3)c1cc(Br)cs1
REMARK SMILES IDX 3 1 2 3 1 4 18 5 19 6 23 7 20 8 22 9 21 10 4 11 5 12 6 13
REMARK SMILES IDX 14 14 7 15 12 16 8 17 11 18 13 19 9 20 10 21 17 22 15 23
REMARK SMILES IDX 16 24
REMARK H PARENT 3 2 14 25
ROOT
ATOM      1  N   UNL     1       2.343  43.073  53.079  1.00  0.00    -0.302 NA
ATOM      2  H   UNL     1       2.698  42.089  53.042  1.00  0.00     0.123 HD
ENDROOT
BRANCH   1   3
ATOM      3  C   UNL     1       0.879  43.058  53.275  1.00  0.00     0.091 C 
ATOM      4  C   UNL     1       0.189  43.496  51.983  1.00  0.00     0.030 C 
BRANCH   3   5
ATOM      5  C   UNL     1       0.456  43.946  54.420  1.00  0.00     0.022 A 
ATOM      6  C   UNL     1      -0.842  44.083  54.896  1.00  0.00     0.032 A 
ATOM      7  S   UNL     1       1.470  44.914  55.354  1.00  0.00    -0.146 S 
ATOM      8  C   UNL     1      -0.940  44.962  55.982  1.00  0.00     0.029 A 
ATOM      9  C   UNL     1       0.272  45.519  56.367  1.00  0.00     0.080 A 
ATOM     10  Br  UNL     1      -2.589  45.353  56.856  1.00  0.00    -0.050 Br
ENDBRANCH   3   5
ENDBRANCH   1   3
BRANCH   1  11
ATOM     11  C   UNL     1       2.747  43.757  51.841  1.00  0.00     0.157 C 
BRANCH  11  12
ATOM     12  C   UNL     1       4.118  44.349  51.985  1.00  0.00     0.124 A 
ATOM     13  N   UNL     1       4.443  45.007  53.137  1.00  0.00    -0.222 NA
ATOM     14  N   UNL     1       5.023  44.269  50.955  1.00  0.00    -0.309 N 
ATOM     15  C   UNL     1       5.671  45.566  53.251  1.00  0.00     0.131 A 
ATOM     16  C   UNL     1       6.265  44.829  51.055  1.00  0.00     0.259 A 
ATOM     17  S   UNL     1       6.276  46.424  54.584  1.00  0.00    -0.120 S 
ATOM     18  C   UNL     1       6.603  45.495  52.230  1.00  0.00     0.080 A 
ATOM     19  O   UNL     1       7.081  44.745  50.098  1.00  0.00    -0.269 OA
ATOM     20  C   UNL     1       7.756  46.692  53.811  1.00  0.00     0.011 A 
ATOM     21  C   UNL     1       7.784  46.146  52.577  1.00  0.00    -0.019 A 
ATOM     22  C   UNL     1       8.996  47.389  54.183  1.00  0.00     0.047 C 
ATOM     23  C   UNL     1       9.067  46.378  51.884  1.00  0.00     0.038 C 
ATOM     24  C   UNL     1       9.881  47.192  52.926  1.00  0.00     0.010 C 
ATOM     25  H   UNL     1       4.761  43.774  50.072  1.00  0.00     0.171 HD
ENDBRANCH  11  12
ENDBRANCH   1  11
TORSDOF 4
ENDMDL
MODEL 5
REMARK VINA RESULT:    -8.064      2.105      2.816
REMARK INTER + INTRA:         -10.446
REMARK INTER:                 -10.113
REMARK INTRA:                  -0.334
REMARK UNBOUND:                -0.496
REMARK SMILES C[C@@H](NCc1nc2sc3c(c2c(=O)[nH]1)CCC3)c1cc(Br)cs1
REMARK SMILES IDX 3 1 2 3 1 4 18 5 19 6 23 7 20 8 22 9 21 10 4 11 5 12 6 13
REMARK SMILES IDX 14 14 7 15 12 16 8 17 11 18 13 19 9 20 10 21 17 22 15 23
REMARK SMILES IDX 16 24
REMARK H PARENT 3 2 14 25
ROOT
ATOM      1  N   UNL     1       2.137  46.111  53.955  1.00  0.00    -0.302 NA
ATOM      2  H   UNL     1       2.918  45.625  54.453  1.00  0.00     0.123 HD
ENDROOT
BRANCH   1   3
ATOM      3  C   UNL     1       1.074  45.135  53.639  1.00  0.00     0.091 C 
ATOM      4  C   UNL     1       0.723  44.340  54.897  1.00  0.00     0.030 C 
BRANCH   3   5
ATOM      5  C   UNL     1       1.483  44.199  52.527  1.00  0.00     0.022 A 
ATOM      6  C   UNL     1       2.674  43.486  52.470  1.00  0.00     0.032 A 
ATOM      7  S   UNL     1       0.569  43.819  51.163  1.00  0.00    -0.146 S 
ATOM      8  C   UNL     1       2.778  42.680  51.329  1.00  0.00     0.029 A 
ATOM      9  C   UNL     1       1.678  42.750  50.486  1.00  0.00     0.080 A 
ATOM     10  Br  UNL     1       4.294  41.580  50.971  1.00  0.00    -0.050 Br
ENDBRANCH   3   5
ENDBRANCH   1   3
BRANCH   1  11
ATOM     11  C   UNL     1       2.688  46.763  52.757  1.00  0.00     0.157 C 
BRANCH  11  12
ATOM     12  C   UNL     1       4.188  46.757  52.793  1.00  0.00     0.124 A 
ATOM     13  N   UNL     1       4.879  46.273  51.719  1.00  0.00    -0.222 NA
ATOM     14  N   UNL     1       4.860  47.196  53.908  1.00  0.00    -0.309 N 
ATOM     15  C   UNL     1       6.231  46.242  51.766  1.00  0.00     0.131 A 
ATOM     16  C   UNL     1       6.224  47.169  53.971  1.00  0.00     0.259 A 
ATOM     17  S   UNL     1       7.277  45.683  50.553  1.00  0.00    -0.120 S 
ATOM     18  C   UNL     1       6.933  46.682  52.875  1.00  0.00     0.080 A 
ATOM     19  O   UNL     1       6.822  47.575  55.003  1.00  0.00    -0.269 OA
ATOM     20  C   UNL     1       8.641  46.026  51.492  1.00  0.00     0.011 A 
ATOM     21  C   UNL     1       8.307  46.548  52.692  1.00  0.00    -0.019 A 
ATOM     22  C   UNL     1      10.090  45.872  51.293  1.00  0.00     0.047 C 
ATOM     23  C   UNL     1       9.486  46.845  53.530  1.00  0.00     0.038 C 
ATOM     24  C   UNL     1      10.671  46.410  52.626  1.00  0.00     0.010 C 
ATOM     25  H   UNL     1       4.322  47.553  54.730  1.00  0.00     0.171 HD
ENDBRANCH  11  12
ENDBRANCH   1  11
TORSDOF 4
ENDMDL
