MODEL 1
REMARK VINA RESULT:    -9.625      0.000      0.000
REMARK INTER + INTRA:         -14.031
REMARK INTER:                 -13.283
REMARK INTRA:                  -0.749
REMARK UNBOUND:                -0.749
REMARK SMILES Cc1cccc(C[C@@H](CO)NC(=O)c2c[nH]nc2-c2cccc(Cl)c2)c1
REMARK SMILES IDX 11 1 12 2 13 3 8 5 7 6 6 7 2 8 3 9 26 10 4 11 5 12 1 13 9 14
REMARK SMILES IDX 10 15 14 17 15 18 18 19 16 20 17 21 19 23 20 24 25 25 21 26
REMARK SMILES IDX 23 27 22 28 24 29
REMARK H PARENT 11 4 10 16 16 22
ROOT
ATOM      1  N   UNL     1       4.626  45.950  52.979  1.00  0.00    -0.347 N 
ATOM      2  C   UNL     1       4.372  44.618  53.456  1.00  0.00     0.255 C 
ATOM      3  O   UNL     1       5.020  44.167  54.440  1.00  0.00    -0.269 OA
ATOM      4  H   UNL     1       4.148  46.285  52.114  1.00  0.00     0.164 HD
ENDROOT
BRANCH   1   5
ATOM      5  C   UNL     1       5.457  46.909  53.719  1.00  0.00     0.112 C 
BRANCH   5   6
ATOM      6  C   UNL     1       6.334  47.719  52.746  1.00  0.00     0.062 C 
BRANCH   6   7
ATOM      7  C   UNL     1       7.792  47.355  52.878  1.00  0.00    -0.046 A 
ATOM      8  C   UNL     1       9.829  47.237  54.212  1.00  0.00    -0.051 A 
ATOM      9  C   UNL     1      10.519  46.729  53.101  1.00  0.00     0.003 A 
ATOM     10  C   UNL     1       8.461  47.528  54.100  1.00  0.00     0.007 A 
ATOM     11  C   UNL     1       9.855  46.541  51.886  1.00  0.00     0.001 A 
ATOM     12  C   UNL     1       8.498  46.854  51.772  1.00  0.00     0.004 A 
ATOM     13  C   UNL     1      10.529  47.404  55.527  1.00  0.00     0.044 C 
ENDBRANCH   6   7
ENDBRANCH   5   6
BRANCH   5  14
ATOM     14  C   UNL     1       4.560  47.850  54.541  1.00  0.00     0.181 C 
BRANCH  14  15
ATOM     15  O   UNL     1       4.226  48.988  53.793  1.00  0.00    -0.394 OA
ATOM     16  H   UNL     1       3.378  49.340  54.170  1.00  0.00     0.210 HD
ENDBRANCH  14  15
ENDBRANCH   5  14
ENDBRANCH   1   5
BRANCH   2  17
ATOM     17  C   UNL     1       3.300  43.786  52.873  1.00  0.00     0.085 A 
ATOM     18  C   UNL     1       2.009  43.707  53.355  1.00  0.00     0.119 A 
ATOM     19  C   UNL     1       3.282  43.031  51.704  1.00  0.00     0.105 A 
ATOM     20  N   UNL     1       1.279  42.962  52.507  1.00  0.00    -0.284 N 
ATOM     21  N   UNL     1       2.039  42.548  51.507  1.00  0.00    -0.175 NA
ATOM     22  H   UNL     1       0.264  42.740  52.605  1.00  0.00     0.189 HD
BRANCH  19  23
ATOM     23  C   UNL     1       4.417  42.677  50.831  1.00  0.00     0.004 A 
ATOM     24  C   UNL     1       4.432  41.456  50.138  1.00  0.00     0.010 A 
ATOM     25  C   UNL     1       5.462  43.593  50.636  1.00  0.00     0.031 A 
ATOM     26  C   UNL     1       5.495  41.143  49.286  1.00  0.00     0.002 A 
ATOM     27  C   UNL     1       6.529  43.275  49.787  1.00  0.00     0.041 A 
ATOM     28  C   UNL     1       6.546  42.049  49.115  1.00  0.00     0.020 A 
ATOM     29  Cl  UNL     1       7.841  44.416  49.562  1.00  0.00    -0.084 Cl
ENDBRANCH  19  23
ENDBRANCH   2  17
TORSDOF 7
ENDMDL
MODEL 2
REMARK VINA RESULT:    -9.119      2.435      3.703
REMARK INTER + INTRA:         -13.333
REMARK INTER:                 -13.019
REMARK INTRA:                  -0.313
REMARK UNBOUND:                -0.749
REMARK SMILES Cc1cccc(C[C@@H](CO)NC(=O)c2c[nH]nc2-c2cccc(Cl)c2)c1
REMARK SMILES IDX 11 1 12 2 13 3 8 5 7 6 6 7 2 8 3 9 26 10 4 11 5 12 1 13 9 14
REMARK SMILES IDX 10 15 14 17 15 18 18 19 16 20 17 21 19 23 20 24 25 25 21 26
REMARK SMILES IDX 23 27 22 28 24 29
REMARK H PARENT 11 4 10 16 16 22
ROOT
ATOM      1  N   UNL     1       5.102  45.014  53.203  1.00  0.00    -0.347 N 
ATOM      2  C   UNL     1       4.771  44.867  51.811  1.00  0.00     0.255 C 
ATOM      3  O   UNL     1       4.616  45.889  51.089  1.00  0.00    -0.269 OA
ATOM      4  H   UNL     1       5.145  44.169  53.813  1.00  0.00     0.164 HD
ENDROOT
BRANCH   1   5
ATOM      5  C   UNL     1       5.487  46.304  53.791  1.00  0.00     0.112 C 
BRANCH   5   6
ATOM      6  C   UNL     1       6.230  47.165  52.754  1.00  0.00     0.062 C 
BRANCH   6   7
ATOM      7  C   UNL     1       7.725  46.982  52.847  1.00  0.00    -0.046 A 
ATOM      8  C   UNL     1       9.798  47.137  54.120  1.00  0.00    -0.051 A 
ATOM      9  C   UNL     1      10.513  46.693  52.997  1.00  0.00     0.003 A 
ATOM     10  C   UNL     1       8.402  47.259  54.045  1.00  0.00     0.007 A 
ATOM     11  C   UNL     1       9.843  46.403  51.806  1.00  0.00     0.001 A 
ATOM     12  C   UNL     1       8.454  46.548  51.728  1.00  0.00     0.004 A 
ATOM     13  C   UNL     1      10.509  47.411  55.411  1.00  0.00     0.044 C 
ENDBRANCH   6   7
ENDBRANCH   5   6
BRANCH   5  14
ATOM     14  C   UNL     1       4.236  47.039  54.301  1.00  0.00     0.181 C 
BRANCH  14  15
ATOM     15  O   UNL     1       4.583  48.294  54.822  1.00  0.00    -0.394 OA
ATOM     16  H   UNL     1       4.456  48.953  54.090  1.00  0.00     0.210 HD
ENDBRANCH  14  15
ENDBRANCH   5  14
ENDBRANCH   1   5
BRANCH   2  17
ATOM     17  C   UNL     1       4.694  43.535  51.179  1.00  0.00     0.085 A 
ATOM     18  C   UNL     1       5.722  42.927  50.485  1.00  0.00     0.119 A 
ATOM     19  C   UNL     1       3.690  42.572  51.228  1.00  0.00     0.105 A 
ATOM     20  N   UNL     1       5.343  41.678  50.165  1.00  0.00    -0.284 N 
ATOM     21  N   UNL     1       4.118  41.454  50.607  1.00  0.00    -0.175 NA
ATOM     22  H   UNL     1       5.919  40.977  49.649  1.00  0.00     0.189 HD
BRANCH  19  23
ATOM     23  C   UNL     1       2.320  42.711  51.754  1.00  0.00     0.004 A 
ATOM     24  C   UNL     1       2.077  42.665  53.136  1.00  0.00     0.010 A 
ATOM     25  C   UNL     1       1.254  42.957  50.875  1.00  0.00     0.031 A 
ATOM     26  C   UNL     1       0.778  42.832  53.628  1.00  0.00     0.002 A 
ATOM     27  C   UNL     1      -0.046  43.117  51.369  1.00  0.00     0.041 A 
ATOM     28  C   UNL     1      -0.283  43.051  52.746  1.00  0.00     0.020 A 
ATOM     29  Cl  UNL     1      -1.376  43.406  50.264  1.00  0.00    -0.084 Cl
ENDBRANCH  19  23
ENDBRANCH   2  17
TORSDOF 7
ENDMDL
MODEL 3
REMARK VINA RESULT:    -8.887      1.689      2.049
REMARK INTER + INTRA:         -13.013
REMARK INTER:                 -12.415
REMARK INTRA:                  -0.598
REMARK UNBOUND:                -0.749
REMARK SMILES Cc1cccc(C[C@@H](CO)NC(=O)c2c[nH]nc2-c2cccc(Cl)c2)c1
REMARK SMILES IDX 11 1 12 2 13 3 8 5 7 6 6 7 2 8 3 9 26 10 4 11 5 12 1 13 9 14
REMARK SMILES IDX 10 15 14 17 15 18 18 19 16 20 17 21 19 23 20 24 25 25 21 26
REMARK SMILES IDX 23 27 22 28 24 29
REMARK H PARENT 11 4 10 16 16 22
ROOT
ATOM      1  N   UNL     1       4.117  45.623  54.366  1.00  0.00    -0.347 N 
ATOM      2  C   UNL     1       2.944  45.526  53.539  1.00  0.00     0.255 C 
ATOM      3  O   UNL     1       2.641  46.473  52.764  1.00  0.00    -0.269 OA
ATOM      4  H   UNL     1       4.314  44.874  55.066  1.00  0.00     0.164 HD
ENDROOT
BRANCH   1   5
ATOM      5  C   UNL     1       5.117  46.686  54.198  1.00  0.00     0.112 C 
BRANCH   5   6
ATOM      6  C   UNL     1       5.619  46.724  52.744  1.00  0.00     0.062 C 
BRANCH   6   7
ATOM      7  C   UNL     1       7.123  46.630  52.671  1.00  0.00    -0.046 A 
ATOM      8  C   UNL     1       9.312  46.966  53.688  1.00  0.00    -0.051 A 
ATOM      9  C   UNL     1       9.922  46.507  52.510  1.00  0.00     0.003 A 
ATOM     10  C   UNL     1       7.913  47.005  53.769  1.00  0.00     0.007 A 
ATOM     11  C   UNL     1       9.141  46.119  51.419  1.00  0.00     0.001 A 
ATOM     12  C   UNL     1       7.747  46.182  51.496  1.00  0.00     0.004 A 
ATOM     13  C   UNL     1      10.146  47.347  54.874  1.00  0.00     0.044 C 
ENDBRANCH   6   7
ENDBRANCH   5   6
BRANCH   5  14
ATOM     14  C   UNL     1       4.506  48.042  54.590  1.00  0.00     0.181 C 
BRANCH  14  15
ATOM     15  O   UNL     1       4.241  48.809  53.447  1.00  0.00    -0.394 OA
ATOM     16  H   UNL     1       4.152  49.751  53.748  1.00  0.00     0.210 HD
ENDBRANCH  14  15
ENDBRANCH   5  14
ENDBRANCH   1   5
BRANCH   2  17
ATOM     17  C   UNL     1       2.126  44.297  53.511  1.00  0.00     0.085 A 
ATOM     18  C   UNL     1       0.996  44.081  54.274  1.00  0.00     0.119 A 
ATOM     19  C   UNL     1       2.201  43.185  52.678  1.00  0.00     0.105 A 
ATOM     20  N   UNL     1       0.438  42.918  53.896  1.00  0.00    -0.284 N 
ATOM     21  N   UNL     1       1.159  42.368  52.933  1.00  0.00    -0.175 NA
ATOM     22  H   UNL     1      -0.434  42.501  54.288  1.00  0.00     0.189 HD
BRANCH  19  23
ATOM     23  C   UNL     1       3.271  42.830  51.727  1.00  0.00     0.004 A 
ATOM     24  C   UNL     1       4.523  43.462  51.790  1.00  0.00     0.010 A 
ATOM     25  C   UNL     1       3.063  41.806  50.790  1.00  0.00     0.031 A 
ATOM     26  C   UNL     1       5.542  43.095  50.906  1.00  0.00     0.002 A 
ATOM     27  C   UNL     1       4.083  41.444  49.902  1.00  0.00     0.041 A 
ATOM     28  C   UNL     1       5.321  42.092  49.959  1.00  0.00     0.020 A 
ATOM     29  Cl  UNL     1       3.811  40.177  48.721  1.00  0.00    -0.084 Cl
ENDBRANCH  19  23
ENDBRANCH   2  17
TORSDOF 7
ENDMDL
MODEL 4
REMARK VINA RESULT:    -8.749      1.857      6.616
REMARK INTER + INTRA:         -12.823
REMARK INTER:                 -12.325
REMARK INTRA:                  -0.498
REMARK UNBOUND:                -0.749
REMARK SMILES Cc1cccc(C[C@@H](CO)NC(=O)c2c[nH]nc2-c2cccc(Cl)c2)c1
REMARK SMILES IDX 11 1 12 2 13 3 8 5 7 6 6 7 2 8 3 9 26 10 4 11 5 12 1 13 9 14
REMARK SMILES IDX 10 15 14 17 15 18 18 19 16 20 17 21 19 23 20 24 25 25 21 26
REMARK SMILES IDX 23 27 22 28 24 29
REMARK H PARENT 11 4 10 16 16 22
ROOT
ATOM      1  N   UNL     1       3.936  43.947  52.570  1.00  0.00    -0.347 N 
ATOM      2  C   UNL     1       4.361  45.260  52.166  1.00  0.00     0.255 C 
ATOM      3  O   UNL     1       4.319  45.590  50.950  1.00  0.00    -0.269 OA
ATOM      4  H   UNL     1       4.054  43.652  53.563  1.00  0.00     0.164 HD
ENDROOT
BRANCH   1   5
ATOM      5  C   UNL     1       3.239  43.028  51.660  1.00  0.00     0.112 C 
BRANCH   5   6
ATOM      6  C   UNL     1       4.061  41.741  51.466  1.00  0.00     0.062 C 
BRANCH   6   7
ATOM      7  C   UNL     1       4.469  41.552  50.026  1.00  0.00    -0.046 A 
ATOM      8  C   UNL     1       4.092  40.549  47.837  1.00  0.00    -0.051 A 
ATOM      9  C   UNL     1       5.263  41.159  47.363  1.00  0.00     0.003 A 
ATOM     10  C   UNL     1       3.689  40.766  49.163  1.00  0.00     0.007 A 
ATOM     11  C   UNL     1       6.035  41.954  48.213  1.00  0.00     0.001 A 
ATOM     12  C   UNL     1       5.643  42.150  49.540  1.00  0.00     0.004 A 
ATOM     13  C   UNL     1       3.240  39.727  46.916  1.00  0.00     0.044 C 
ENDBRANCH   6   7
ENDBRANCH   5   6
BRANCH   5  14
ATOM     14  C   UNL     1       1.846  42.696  52.221  1.00  0.00     0.181 C 
BRANCH  14  15
ATOM     15  O   UNL     1       1.944  42.265  53.552  1.00  0.00    -0.394 OA
ATOM     16  H   UNL     1       2.797  42.626  53.908  1.00  0.00     0.210 HD
ENDBRANCH  14  15
ENDBRANCH   5  14
ENDBRANCH   1   5
BRANCH   2  17
ATOM     17  C   UNL     1       4.770  46.272  53.161  1.00  0.00     0.085 A 
ATOM     18  C   UNL     1       3.929  46.862  54.082  1.00  0.00     0.119 A 
ATOM     19  C   UNL     1       6.035  46.756  53.485  1.00  0.00     0.105 A 
ATOM     20  N   UNL     1       4.663  47.630  54.905  1.00  0.00    -0.284 N 
ATOM     21  N   UNL     1       5.936  47.574  54.552  1.00  0.00    -0.175 NA
ATOM     22  H   UNL     1       4.300  48.189  55.708  1.00  0.00     0.189 HD
BRANCH  19  23
ATOM     23  C   UNL     1       7.304  46.544  52.764  1.00  0.00     0.004 A 
ATOM     24  C   UNL     1       8.500  47.103  53.242  1.00  0.00     0.010 A 
ATOM     25  C   UNL     1       7.333  45.725  51.625  1.00  0.00     0.031 A 
ATOM     26  C   UNL     1       9.703  46.869  52.570  1.00  0.00     0.002 A 
ATOM     27  C   UNL     1       8.538  45.497  50.950  1.00  0.00     0.041 A 
ATOM     28  C   UNL     1       9.722  46.072  51.423  1.00  0.00     0.020 A 
ATOM     29  Cl  UNL     1       8.565  44.487  49.517  1.00  0.00    -0.084 Cl
ENDBRANCH  19  23
ENDBRANCH   2  17
TORSDOF 7
ENDMDL
MODEL 5
REMARK VINA RESULT:    -8.705      3.464      5.058
REMARK INTER + INTRA:         -12.761
REMARK INTER:                 -12.101
REMARK INTRA:                  -0.660
REMARK UNBOUND:                -0.749
REMARK SMILES Cc1cccc(C[C@@H](CO)NC(=O)c2c[nH]nc2-c2cccc(Cl)c2)c1
REMARK SMILES IDX 11 1 12 2 13 3 8 5 7 6 6 7 2 8 3 9 26 10 4 11 5 12 1 13 9 14
REMARK SMILES IDX 10 15 14 17 15 18 18 19 16 20 17 21 19 23 20 24 25 25 21 26
REMARK SMILES IDX 23 27 22 28 24 29
REMARK H PARENT 11 4 10 16 16 22
ROOT
ATOM      1  N   UNL     1       3.916  45.705  52.744  1.00  0.00    -0.347 N 
ATOM      2  C   UNL     1       3.281  44.416  52.680  1.00  0.00     0.255 C 
ATOM      3  O   UNL     1       3.860  43.404  53.160  1.00  0.00    -0.269 OA
ATOM      4  H   UNL     1       3.470  46.521  52.270  1.00  0.00     0.164 HD
ENDROOT
BRANCH   1   5
ATOM      5  C   UNL     1       5.124  45.951  53.543  1.00  0.00     0.112 C 
BRANCH   5   6
ATOM      6  C   UNL     1       5.852  47.209  53.037  1.00  0.00     0.062 C 
BRANCH   6   7
ATOM      7  C   UNL     1       7.347  47.008  52.994  1.00  0.00    -0.046 A 
ATOM      8  C   UNL     1       9.527  47.134  54.075  1.00  0.00    -0.051 A 
ATOM      9  C   UNL     1      10.133  46.685  52.891  1.00  0.00     0.003 A 
ATOM     10  C   UNL     1       8.133  47.273  54.126  1.00  0.00     0.007 A 
ATOM     11  C   UNL     1       9.355  46.407  51.765  1.00  0.00     0.001 A 
ATOM     12  C   UNL     1       7.967  46.569  51.814  1.00  0.00     0.004 A 
ATOM     13  C   UNL     1      10.356  47.396  55.297  1.00  0.00     0.044 C 
ENDBRANCH   6   7
ENDBRANCH   5   6
BRANCH   5  14
ATOM     14  C   UNL     1       4.745  46.110  55.025  1.00  0.00     0.181 C 
BRANCH  14  15
ATOM     15  O   UNL     1       4.757  44.865  55.670  1.00  0.00    -0.394 OA
ATOM     16  H   UNL     1       5.643  44.456  55.488  1.00  0.00     0.210 HD
ENDBRANCH  14  15
ENDBRANCH   5  14
ENDBRANCH   1   5
BRANCH   2  17
ATOM     17  C   UNL     1       1.916  44.261  52.138  1.00  0.00     0.085 A 
ATOM     18  C   UNL     1       1.613  44.025  50.812  1.00  0.00     0.119 A 
ATOM     19  C   UNL     1       0.690  44.187  52.794  1.00  0.00     0.105 A 
ATOM     20  N   UNL     1       0.291  43.810  50.705  1.00  0.00    -0.284 N 
ATOM     21  N   UNL     1      -0.276  43.907  51.896  1.00  0.00    -0.175 NA
ATOM     22  H   UNL     1      -0.226  43.593  49.825  1.00  0.00     0.189 HD
BRANCH  19  23
ATOM     23  C   UNL     1       0.397  44.466  54.212  1.00  0.00     0.004 A 
ATOM     24  C   UNL     1       1.292  45.215  54.993  1.00  0.00     0.010 A 
ATOM     25  C   UNL     1      -0.815  44.038  54.773  1.00  0.00     0.031 A 
ATOM     26  C   UNL     1       0.990  45.503  56.327  1.00  0.00     0.002 A 
ATOM     27  C   UNL     1      -1.113  44.323  56.111  1.00  0.00     0.041 A 
ATOM     28  C   UNL     1      -0.207  45.053  56.888  1.00  0.00     0.020 A 
ATOM     29  Cl  UNL     1      -2.622  43.769  56.812  1.00  0.00    -0.084 Cl
ENDBRANCH  19  23
ENDBRANCH   2  17
TORSDOF 7
ENDMDL
