MODEL 1
REMARK VINA RESULT:    -8.650      0.000      0.000
REMARK INTER + INTRA:         -10.297
REMARK INTER:                 -10.168
REMARK INTRA:                  -0.129
REMARK UNBOUND:                -0.129
REMARK SMILES CC1(C)NC(=O)C[C@H]1C(=O)N1CCC[C@]1(C)c1ccccc1
REMARK SMILES IDX 9 1 10 2 8 3 2 4 4 5 5 6 7 7 6 8 1 9 3 10 11 12 12 13 15 14
REMARK SMILES IDX 13 15 14 16 16 17 17 18 18 19 22 20 19 21 21 22 20 23
REMARK H PARENT 4 11
ROOT
ATOM      1  C   UNL     1       6.457  46.611  52.927  1.00  0.00     0.229 C 
ATOM      2  O   UNL     1       6.205  47.843  52.827  1.00  0.00    -0.274 OA
ENDROOT
BRANCH   1   3
ATOM      3  C   UNL     1       7.903  46.170  53.106  1.00  0.00     0.113 C 
ATOM      4  C   UNL     1       8.946  47.072  52.342  1.00  0.00     0.046 C 
ATOM      5  N   UNL     1       9.518  47.928  53.370  1.00  0.00    -0.350 N 
ATOM      6  C   UNL     1       9.175  47.439  54.647  1.00  0.00     0.221 C 
ATOM      7  C   UNL     1       8.302  46.248  54.599  1.00  0.00     0.116 C 
ATOM      8  O   UNL     1       9.611  47.950  55.712  1.00  0.00    -0.275 OA
ATOM      9  C   UNL     1       8.352  47.943  51.217  1.00  0.00     0.035 C 
ATOM     10  C   UNL     1      10.067  46.194  51.755  1.00  0.00     0.035 C 
ATOM     11  H   UNL     1      10.222  48.682  53.198  1.00  0.00     0.164 HD
ENDBRANCH   1   3
BRANCH   1  12
ATOM     12  N   UNL     1       5.377  45.653  52.840  1.00  0.00    -0.333 N 
ATOM     13  C   UNL     1       4.775  45.015  54.001  1.00  0.00     0.120 C 
ATOM     14  C   UNL     1       4.800  45.181  51.575  1.00  0.00     0.065 C 
ATOM     15  C   UNL     1       3.920  43.881  53.457  1.00  0.00     0.024 C 
ATOM     16  C   UNL     1       3.659  44.230  51.997  1.00  0.00     0.035 C 
ATOM     17  C   UNL     1       4.214  46.391  50.809  1.00  0.00     0.040 C 
BRANCH  14  18
ATOM     18  C   UNL     1       5.847  44.402  50.762  1.00  0.00    -0.023 A 
ATOM     19  C   UNL     1       6.935  45.050  50.132  1.00  0.00     0.006 A 
ATOM     20  C   UNL     1       5.682  43.017  50.539  1.00  0.00     0.006 A 
ATOM     21  C   UNL     1       7.852  44.325  49.366  1.00  0.00     0.000 A 
ATOM     22  C   UNL     1       6.603  42.299  49.773  1.00  0.00     0.000 A 
ATOM     23  C   UNL     1       7.690  42.950  49.192  1.00  0.00     0.000 A 
ENDBRANCH  14  18
ENDBRANCH   1  12
TORSDOF 3
ENDMDL
MODEL 2
REMARK VINA RESULT:    -8.384      2.721      5.839
REMARK INTER + INTRA:          -9.984
REMARK INTER:                  -9.826
REMARK INTRA:                  -0.158
REMARK UNBOUND:                -0.129
REMARK SMILES CC1(C)NC(=O)C[C@H]1C(=O)N1CCC[C@]1(C)c1ccccc1
REMARK SMILES IDX 9 1 10 2 8 3 2 4 4 5 5 6 7 7 6 8 1 9 3 10 11 12 12 13 15 14
REMARK SMILES IDX 13 15 14 16 16 17 17 18 18 19 22 20 19 21 21 22 20 23
REMARK H PARENT 4 11
ROOT
ATOM      1  C   UNL     1       4.584  44.737  52.039  1.00  0.00     0.229 C 
ATOM      2  O   UNL     1       5.102  44.783  50.889  1.00  0.00    -0.274 OA
ENDROOT
BRANCH   1   3
ATOM      3  C   UNL     1       3.893  43.456  52.482  1.00  0.00     0.113 C 
ATOM      4  C   UNL     1       2.423  43.301  51.934  1.00  0.00     0.046 C 
ATOM      5  N   UNL     1       2.536  42.363  50.828  1.00  0.00    -0.350 N 
ATOM      6  C   UNL     1       3.798  41.733  50.862  1.00  0.00     0.221 C 
ATOM      7  C   UNL     1       4.664  42.224  51.953  1.00  0.00     0.116 C 
ATOM      8  O   UNL     1       4.123  40.816  50.063  1.00  0.00    -0.275 OA
ATOM      9  C   UNL     1       1.772  44.607  51.437  1.00  0.00     0.035 C 
ATOM     10  C   UNL     1       1.523  42.676  53.017  1.00  0.00     0.035 C 
ATOM     11  H   UNL     1       1.747  42.065  50.211  1.00  0.00     0.164 HD
ENDBRANCH   1   3
BRANCH   1  12
ATOM     12  N   UNL     1       4.636  45.905  52.891  1.00  0.00    -0.333 N 
ATOM     13  C   UNL     1       3.677  46.997  52.815  1.00  0.00     0.120 C 
ATOM     14  C   UNL     1       5.686  46.144  53.891  1.00  0.00     0.065 C 
ATOM     15  C   UNL     1       4.266  48.127  53.644  1.00  0.00     0.024 C 
ATOM     16  C   UNL     1       5.280  47.469  54.573  1.00  0.00     0.035 C 
ATOM     17  C   UNL     1       5.661  44.995  54.927  1.00  0.00     0.040 C 
BRANCH  14  18
ATOM     18  C   UNL     1       7.053  46.312  53.208  1.00  0.00    -0.023 A 
ATOM     19  C   UNL     1       8.263  46.051  53.891  1.00  0.00     0.006 A 
ATOM     20  C   UNL     1       7.130  46.838  51.900  1.00  0.00     0.006 A 
ATOM     21  C   UNL     1       9.495  46.249  53.260  1.00  0.00     0.000 A 
ATOM     22  C   UNL     1       8.364  47.032  51.276  1.00  0.00     0.000 A 
ATOM     23  C   UNL     1       9.546  46.732  51.953  1.00  0.00     0.000 A 
ENDBRANCH  14  18
ENDBRANCH   1  12
TORSDOF 3
ENDMDL
MODEL 3
REMARK VINA RESULT:    -8.123      2.382      5.465
REMARK INTER + INTRA:          -9.677
REMARK INTER:                  -9.262
REMARK INTRA:                  -0.415
REMARK UNBOUND:                -0.129
REMARK SMILES CC1(C)NC(=O)C[C@H]1C(=O)N1CCC[C@]1(C)c1ccccc1
REMARK SMILES IDX 9 1 10 2 8 3 2 4 4 5 5 6 7 7 6 8 1 9 3 10 11 12 12 13 15 14
REMARK SMILES IDX 13 15 14 16 16 17 17 18 18 19 22 20 19 21 21 22 20 23
REMARK H PARENT 4 11
ROOT
ATOM      1  C   UNL     1       4.463  44.500  53.094  1.00  0.00     0.229 C 
ATOM      2  O   UNL     1       5.023  44.180  54.179  1.00  0.00    -0.274 OA
ENDROOT
BRANCH   1   3
ATOM      3  C   UNL     1       3.101  45.177  53.144  1.00  0.00     0.113 C 
ATOM      4  C   UNL     1       1.888  44.171  53.192  1.00  0.00     0.046 C 
ATOM      5  N   UNL     1       1.469  44.163  54.586  1.00  0.00    -0.350 N 
ATOM      6  C   UNL     1       2.067  45.240  55.272  1.00  0.00     0.221 C 
ATOM      7  C   UNL     1       2.979  46.035  54.425  1.00  0.00     0.116 C 
ATOM      8  O   UNL     1       1.807  45.510  56.474  1.00  0.00    -0.275 OA
ATOM      9  C   UNL     1       2.217  42.733  52.745  1.00  0.00     0.035 C 
ATOM     10  C   UNL     1       0.727  44.708  52.334  1.00  0.00     0.035 C 
ATOM     11  H   UNL     1       0.707  43.566  54.978  1.00  0.00     0.164 HD
ENDBRANCH   1   3
BRANCH   1  12
ATOM     12  N   UNL     1       5.112  44.191  51.839  1.00  0.00    -0.333 N 
ATOM     13  C   UNL     1       5.326  42.835  51.358  1.00  0.00     0.120 C 
ATOM     14  C   UNL     1       5.670  45.205  50.935  1.00  0.00     0.065 C 
ATOM     15  C   UNL     1       6.291  42.955  50.189  1.00  0.00     0.024 C 
ATOM     16  C   UNL     1       6.193  44.402  49.724  1.00  0.00     0.035 C 
ATOM     17  C   UNL     1       4.533  46.152  50.481  1.00  0.00     0.040 C 
BRANCH  14  18
ATOM     18  C   UNL     1       6.838  45.944  51.607  1.00  0.00    -0.023 A 
ATOM     19  C   UNL     1       6.625  46.918  52.609  1.00  0.00     0.006 A 
ATOM     20  C   UNL     1       8.160  45.736  51.156  1.00  0.00     0.006 A 
ATOM     21  C   UNL     1       7.702  47.605  53.179  1.00  0.00     0.000 A 
ATOM     22  C   UNL     1       9.231  46.425  51.730  1.00  0.00     0.000 A 
ATOM     23  C   UNL     1       9.004  47.353  52.744  1.00  0.00     0.000 A 
ENDBRANCH  14  18
ENDBRANCH   1  12
TORSDOF 3
ENDMDL
MODEL 4
REMARK VINA RESULT:    -8.052      2.601      5.533
REMARK INTER + INTRA:          -9.593
REMARK INTER:                  -9.451
REMARK INTRA:                  -0.142
REMARK UNBOUND:                -0.129
REMARK SMILES CC1(C)NC(=O)C[C@H]1C(=O)N1CCC[C@]1(C)c1ccccc1
REMARK SMILES IDX 9 1 10 2 8 3 2 4 4 5 5 6 7 7 6 8 1 9 3 10 11 12 12 13 15 14
REMARK SMILES IDX 13 15 14 16 16 17 17 18 18 19 22 20 19 21 21 22 20 23
REMARK H PARENT 4 11
ROOT
ATOM      1  C   UNL     1       4.557  45.275  51.384  1.00  0.00     0.229 C 
ATOM      2  O   UNL     1       5.517  45.317  50.566  1.00  0.00    -0.274 OA
ENDROOT
BRANCH   1   3
ATOM      3  C   UNL     1       3.420  44.296  51.132  1.00  0.00     0.113 C 
ATOM      4  C   UNL     1       3.794  42.793  51.423  1.00  0.00     0.046 C 
ATOM      5  N   UNL     1       3.196  42.506  52.718  1.00  0.00    -0.350 N 
ATOM      6  C   UNL     1       2.286  43.527  53.062  1.00  0.00     0.221 C 
ATOM      7  C   UNL     1       2.227  44.614  52.064  1.00  0.00     0.116 C 
ATOM      8  O   UNL     1       1.571  43.482  54.098  1.00  0.00    -0.275 OA
ATOM      9  C   UNL     1       5.306  42.497  51.476  1.00  0.00     0.035 C 
ATOM     10  C   UNL     1       3.143  41.877  50.369  1.00  0.00     0.035 C 
ATOM     11  H   UNL     1       3.287  41.601  53.232  1.00  0.00     0.164 HD
ENDBRANCH   1   3
BRANCH   1  12
ATOM     12  N   UNL     1       4.548  46.174  52.517  1.00  0.00    -0.333 N 
ATOM     13  C   UNL     1       3.580  47.248  52.683  1.00  0.00     0.120 C 
ATOM     14  C   UNL     1       5.539  46.136  53.601  1.00  0.00     0.065 C 
ATOM     15  C   UNL     1       4.109  48.115  53.814  1.00  0.00     0.024 C 
ATOM     16  C   UNL     1       5.081  47.231  54.588  1.00  0.00     0.035 C 
ATOM     17  C   UNL     1       5.475  44.752  54.291  1.00  0.00     0.040 C 
BRANCH  14  18
ATOM     18  C   UNL     1       6.939  46.478  53.063  1.00  0.00    -0.023 A 
ATOM     19  C   UNL     1       8.074  45.704  53.396  1.00  0.00     0.006 A 
ATOM     20  C   UNL     1       7.136  47.650  52.300  1.00  0.00     0.006 A 
ATOM     21  C   UNL     1       9.342  46.058  52.926  1.00  0.00     0.000 A 
ATOM     22  C   UNL     1       8.406  47.997  51.834  1.00  0.00     0.000 A 
ATOM     23  C   UNL     1       9.507  47.200  52.141  1.00  0.00     0.000 A 
ENDBRANCH  14  18
ENDBRANCH   1  12
TORSDOF 3
ENDMDL
MODEL 5
REMARK VINA RESULT:    -7.942      2.108      5.445
REMARK INTER + INTRA:          -9.464
REMARK INTER:                  -9.545
REMARK INTRA:                   0.081
REMARK UNBOUND:                -0.129
REMARK SMILES CC1(C)NC(=O)C[C@H]1C(=O)N1CCC[C@]1(C)c1ccccc1
REMARK SMILES IDX 9 1 10 2 8 3 2 4 4 5 5 6 7 7 6 8 1 9 3 10 11 12 12 13 15 14
REMARK SMILES IDX 13 15 14 16 16 17 17 18 18 19 22 20 19 21 21 22 20 23
REMARK H PARENT 4 11
ROOT
ATOM      1  C   UNL     1       5.205  44.445  53.604  1.00  0.00     0.229 C 
ATOM      2  O   UNL     1       6.049  44.510  54.539  1.00  0.00    -0.274 OA
ENDROOT
BRANCH   1   3
ATOM      3  C   UNL     1       3.744  44.193  53.950  1.00  0.00     0.113 C 
ATOM      4  C   UNL     1       2.987  45.466  54.491  1.00  0.00     0.046 C 
ATOM      5  N   UNL     1       2.203  45.939  53.360  1.00  0.00    -0.350 N 
ATOM      6  C   UNL     1       2.169  44.950  52.353  1.00  0.00     0.221 C 
ATOM      7  C   UNL     1       2.966  43.752  52.688  1.00  0.00     0.116 C 
ATOM      8  O   UNL     1       1.490  45.074  51.300  1.00  0.00    -0.275 OA
ATOM      9  C   UNL     1       3.899  46.601  54.995  1.00  0.00     0.035 C 
ATOM     10  C   UNL     1       2.022  45.060  55.621  1.00  0.00     0.035 C 
ATOM     11  H   UNL     1       1.608  46.797  53.361  1.00  0.00     0.164 HD
ENDBRANCH   1   3
BRANCH   1  12
ATOM     12  N   UNL     1       5.647  44.580  52.233  1.00  0.00    -0.333 N 
ATOM     13  C   UNL     1       5.712  43.469  51.297  1.00  0.00     0.120 C 
ATOM     14  C   UNL     1       6.126  45.840  51.648  1.00  0.00     0.065 C 
ATOM     15  C   UNL     1       6.503  43.976  50.102  1.00  0.00     0.024 C 
ATOM     16  C   UNL     1       6.422  45.496  50.172  1.00  0.00     0.035 C 
ATOM     17  C   UNL     1       4.991  46.890  51.722  1.00  0.00     0.040 C 
BRANCH  14  18
ATOM     18  C   UNL     1       7.419  46.299  52.341  1.00  0.00    -0.023 A 
ATOM     19  C   UNL     1       8.693  45.876  51.896  1.00  0.00     0.006 A 
ATOM     20  C   UNL     1       7.353  47.080  53.516  1.00  0.00     0.006 A 
ATOM     21  C   UNL     1       9.853  46.277  52.567  1.00  0.00     0.000 A 
ATOM     22  C   UNL     1       8.516  47.477  54.180  1.00  0.00     0.000 A 
ATOM     23  C   UNL     1       9.765  47.082  53.703  1.00  0.00     0.000 A 
ENDBRANCH  14  18
ENDBRANCH   1  12
TORSDOF 3
ENDMDL
