ligand_96_conformer_5_docked
     RDKit          3D

 40 42  0  0  0  0  0  0  0  0999 V2000
    0.2050   42.7670   54.0940 C   0  0  0  0  0  0  0  0  0  0  0  0
    0.4560   44.2800   54.1220 C   0  0  0  0  0  0  0  0  0  0  0  0
   -0.0950   44.9180   52.8320 C   0  0  0  0  0  0  0  0  0  0  0  0
    0.9330   44.9260   51.7360 C   0  0  0  0  0  0  0  0  0  0  0  0
    0.8670   44.0590   50.8230 O   0  0  0  0  0  0  0  0  0  0  0  0
    2.0000   45.8840   51.7520 N   0  0  0  0  0  0  0  0  0  0  0  0
    3.1310   45.8120   50.8310 C   0  0  0  0  0  0  0  0  0  0  0  0
    4.4110   46.0860   51.5700 C   0  0  0  0  0  0  0  0  0  0  0  0
    4.4070   46.8730   52.7310 C   0  0  0  0  0  0  0  0  0  0  0  0
    5.6060   47.1810   53.3810 C   0  0  0  0  0  0  0  0  0  0  0  0
    6.8350   46.7100   52.8790 C   0  0  0  0  0  0  0  0  0  0  0  0
    8.0840   47.0240   53.5300 N   0  0  0  0  0  0  0  0  0  0  0  0
    9.3370   46.7950   53.0880 C   0  0  0  0  0  0  0  0  0  0  0  0
   10.2560   47.2290   53.9700 N   0  0  0  0  0  0  0  0  0  0  0  0
    9.4940   47.7290   54.9640 C   0  0  0  0  0  0  0  0  0  0  0  0
    8.1780   47.6110   54.7100 N   0  0  0  0  0  0  0  0  0  0  0  0
    6.8300   45.9260   51.7100 C   0  0  0  0  0  0  0  0  0  0  0  0
    5.6300   45.6230   51.0600 C   0  0  0  0  0  0  0  0  0  0  0  0
    1.8460   44.5110   54.1980 O   0  0  0  0  0  0  0  0  0  0  0  0
    2.0960   44.9280   55.5030 C   0  0  0  0  0  0  0  0  0  0  0  0
    0.7710   45.2860   56.1050 C   0  0  0  0  0  0  0  0  0  0  0  0
   -0.2160   44.8290   55.2350 O   0  0  0  0  0  0  0  0  0  0  0  0
    0.1419   42.3867   55.1242 H   0  0  0  0  0  0  0  0  0  0  0  0
   -0.7395   42.5617   53.5688 H   0  0  0  0  0  0  0  0  0  0  0  0
    1.0326   42.2677   53.5688 H   0  0  0  0  0  0  0  0  0  0  0  0
   -0.9709   44.3438   52.4957 H   0  0  0  0  0  0  0  0  0  0  0  0
   -0.3697   45.9598   53.0536 H   0  0  0  0  0  0  0  0  0  0  0  0
    2.0140   46.6170   52.4970 H   0  0  0  0  0  0  0  0  0  0  0  0
    3.1751   44.8073   50.3854 H   0  0  0  0  0  0  0  0  0  0  0  0
    3.0017   46.5647   50.0393 H   0  0  0  0  0  0  0  0  0  0  0  0
    3.4549   47.2502   53.1325 H   0  0  0  0  0  0  0  0  0  0  0  0
    5.5894   47.7966   54.2925 H   0  0  0  0  0  0  0  0  0  0  0  0
    9.5775   46.3144   52.1282 H   0  0  0  0  0  0  0  0  0  0  0  0
    9.9024   48.1822   55.8793 H   0  0  0  0  0  0  0  0  0  0  0  0
    7.7798   45.5480   51.3038 H   0  0  0  0  0  0  0  0  0  0  0  0
    5.6435   45.0170   50.1421 H   0  0  0  0  0  0  0  0  0  0  0  0
    2.5654   44.1153   56.0768 H   0  0  0  0  0  0  0  0  0  0  0  0
    2.7814   45.7882   55.5178 H   0  0  0  0  0  0  0  0  0  0  0  0
    0.6606   44.8025   57.0869 H   0  0  0  0  0  0  0  0  0  0  0  0
    0.6898   46.3734   56.2495 H   0  0  0  0  0  0  0  0  0  0  0  0
  1  2  1  0
  2  3  1  0
  3  4  1  0
  4  5  2  0
  4  6  1  0
  6  7  1  0
  7  8  1  0
  8  9  2  0
  9 10  1  0
 10 11  2  0
 11 12  1  0
 12 13  1  0
 13 14  2  0
 14 15  1  0
 15 16  2  0
 11 17  1  0
 17 18  2  0
  2 19  1  0
 19 20  1  0
 20 21  1  0
 21 22  1  0
 22  2  1  0
 18  8  1  0
 16 12  1  0
  1 23  1  0
  1 24  1  0
  1 25  1  0
  3 26  1  0
  3 27  1  0
  6 28  1  0
  7 29  1  0
  7 30  1  0
  9 31  1  0
 10 32  1  0
 13 33  1  0
 15 34  1  0
 17 35  1  0
 18 36  1  0
 20 37  1  0
 20 38  1  0
 21 39  1  0
 21 40  1  0
M  END
>  <meeko>  (1) 
{"is_sidechain": [false], "free_energy": -7.38, "intermolecular_energy": -9.537, "internal_energy": -0.931}

$$$$
ligand_96_conformer_5_docked
     RDKit          3D

 40 42  0  0  0  0  0  0  0  0999 V2000
   -1.3930   43.8290   54.3070 C   0  0  0  0  0  0  0  0  0  0  0  0
   -0.0570   43.7870   53.5560 C   0  0  0  0  0  0  0  0  0  0  0  0
   -0.0880   42.6550   52.5110 C   0  0  0  0  0  0  0  0  0  0  0  0
    1.1190   42.6930   51.6180 C   0  0  0  0  0  0  0  0  0  0  0  0
    0.9840   43.0400   50.4140 O   0  0  0  0  0  0  0  0  0  0  0  0
    2.4040   42.2980   52.1200 N   0  0  0  0  0  0  0  0  0  0  0  0
    3.5650   42.1240   51.2520 C   0  0  0  0  0  0  0  0  0  0  0  0
    4.5040   43.2850   51.4140 C   0  0  0  0  0  0  0  0  0  0  0  0
    5.4450   43.5840   50.4170 C   0  0  0  0  0  0  0  0  0  0  0  0
    6.3610   44.6230   50.5980 C   0  0  0  0  0  0  0  0  0  0  0  0
    6.3580   45.3840   51.7830 C   0  0  0  0  0  0  0  0  0  0  0  0
    7.3010   46.4560   51.9930 N   0  0  0  0  0  0  0  0  0  0  0  0
    7.1290   47.5960   52.6930 C   0  0  0  0  0  0  0  0  0  0  0  0
    8.2380   48.3590   52.6680 N   0  0  0  0  0  0  0  0  0  0  0  0
    9.0830   47.6230   51.9180 C   0  0  0  0  0  0  0  0  0  0  0  0
    8.5290   46.4690   51.5030 N   0  0  0  0  0  0  0  0  0  0  0  0
    5.4150   45.0740   52.7800 C   0  0  0  0  0  0  0  0  0  0  0  0
    4.5020   44.0320   52.5990 C   0  0  0  0  0  0  0  0  0  0  0  0
    0.9790   43.5380   54.4810 O   0  0  0  0  0  0  0  0  0  0  0  0
    1.6520   44.7470   54.6390 C   0  0  0  0  0  0  0  0  0  0  0  0
    1.2170   45.6370   53.5130 C   0  0  0  0  0  0  0  0  0  0  0  0
    0.1300   45.0210   52.8970 O   0  0  0  0  0  0  0  0  0  0  0  0
   -1.2048   43.8231   55.3908 H   0  0  0  0  0  0  0  0  0  0  0  0
   -1.9382   44.7447   54.0345 H   0  0  0  0  0  0  0  0  0  0  0  0
   -1.9946   42.9493   54.0345 H   0  0  0  0  0  0  0  0  0  0  0  0
   -0.1149   41.6875   53.0336 H   0  0  0  0  0  0  0  0  0  0  0  0
   -0.9829   42.7889   51.8855 H   0  0  0  0  0  0  0  0  0  0  0  0
    2.5000   42.0490   53.1310 H   0  0  0  0  0  0  0  0  0  0  0  0
    4.0858   41.1935   51.5219 H   0  0  0  0  0  0  0  0  0  0  0  0
    3.2299   42.0730   50.2055 H   0  0  0  0  0  0  0  0  0  0  0  0
    5.4615   42.9966   49.4871 H   0  0  0  0  0  0  0  0  0  0  0  0
    7.0917   44.8489   49.8074 H   0  0  0  0  0  0  0  0  0  0  0  0
    6.2010   47.8677   53.2174 H   0  0  0  0  0  0  0  0  0  0  0  0
   10.1101   47.9313   51.6729 H   0  0  0  0  0  0  0  0  0  0  0  0
    5.3963   45.6582   53.7119 H   0  0  0  0  0  0  0  0  0  0  0  0
    3.7770   43.7967   53.3921 H   0  0  0  0  0  0  0  0  0  0  0  0
    1.3893   45.2030   55.6050 H   0  0  0  0  0  0  0  0  0  0  0  0
    2.7415   44.5965   54.6240 H   0  0  0  0  0  0  0  0  0  0  0  0
    0.9205   46.6215   53.9039 H   0  0  0  0  0  0  0  0  0  0  0  0
    2.0374   45.7888   52.7962 H   0  0  0  0  0  0  0  0  0  0  0  0
  1  2  1  0
  2  3  1  0
  3  4  1  0
  4  5  2  0
  4  6  1  0
  6  7  1  0
  7  8  1  0
  8  9  2  0
  9 10  1  0
 10 11  2  0
 11 12  1  0
 12 13  1  0
 13 14  2  0
 14 15  1  0
 15 16  2  0
 11 17  1  0
 17 18  2  0
  2 19  1  0
 19 20  1  0
 20 21  1  0
 21 22  1  0
 22  2  1  0
 18  8  1  0
 16 12  1  0
  1 23  1  0
  1 24  1  0
  1 25  1  0
  3 26  1  0
  3 27  1  0
  6 28  1  0
  7 29  1  0
  7 30  1  0
  9 31  1  0
 10 32  1  0
 13 33  1  0
 15 34  1  0
 17 35  1  0
 18 36  1  0
 20 37  1  0
 20 38  1  0
 21 39  1  0
 21 40  1  0
M  END
>  <meeko>  (2) 
{"is_sidechain": [false], "free_energy": -7.374, "intermolecular_energy": -9.512, "internal_energy": -0.948}

$$$$
ligand_96_conformer_5_docked
     RDKit          3D

 40 42  0  0  0  0  0  0  0  0999 V2000
    9.8730   47.5230   54.7570 C   0  0  0  0  0  0  0  0  0  0  0  0
    8.8890   47.1360   53.6470 C   0  0  0  0  0  0  0  0  0  0  0  0
    9.6290   47.0860   52.2960 C   0  0  0  0  0  0  0  0  0  0  0  0
    9.0420   46.0490   51.3820 C   0  0  0  0  0  0  0  0  0  0  0  0
    9.8060   45.2150   50.8240 O   0  0  0  0  0  0  0  0  0  0  0  0
    7.6320   46.0340   51.1140 N   0  0  0  0  0  0  0  0  0  0  0  0
    7.0390   45.1840   50.0860 C   0  0  0  0  0  0  0  0  0  0  0  0
    5.6870   44.7060   50.5340 C   0  0  0  0  0  0  0  0  0  0  0  0
    4.6580   45.6230   50.7940 C   0  0  0  0  0  0  0  0  0  0  0  0
    3.4210   45.1820   51.2720 C   0  0  0  0  0  0  0  0  0  0  0  0
    3.1900   43.8130   51.5050 C   0  0  0  0  0  0  0  0  0  0  0  0
    1.9230   43.3380   52.0080 N   0  0  0  0  0  0  0  0  0  0  0  0
    1.5570   43.1320   53.2900 C   0  0  0  0  0  0  0  0  0  0  0  0
    0.2900   42.6850   53.3730 N   0  0  0  0  0  0  0  0  0  0  0  0
   -0.0870   42.6320   52.0790 C   0  0  0  0  0  0  0  0  0  0  0  0
    0.8920   43.0240   51.2430 N   0  0  0  0  0  0  0  0  0  0  0  0
    4.2290   42.9000   51.2480 C   0  0  0  0  0  0  0  0  0  0  0  0
    5.4660   43.3430   50.7730 C   0  0  0  0  0  0  0  0  0  0  0  0
    7.8690   48.1100   53.5820 O   0  0  0  0  0  0  0  0  0  0  0  0
    6.7360   47.5170   54.1340 C   0  0  0  0  0  0  0  0  0  0  0  0
    7.0060   46.0440   54.2030 C   0  0  0  0  0  0  0  0  0  0  0  0
    8.3610   45.8590   53.9350 O   0  0  0  0  0  0  0  0  0  0  0  0
    9.4095   47.3407   55.7378 H   0  0  0  0  0  0  0  0  0  0  0  0
   10.7865   46.9172   54.6648 H   0  0  0  0  0  0  0  0  0  0  0  0
   10.1290   48.5888   54.6648 H   0  0  0  0  0  0  0  0  0  0  0  0
    9.5555   48.0711   51.8121 H   0  0  0  0  0  0  0  0  0  0  0  0
   10.6789   46.8202   52.4885 H   0  0  0  0  0  0  0  0  0  0  0  0
    7.0130   46.7110   51.6150 H   0  0  0  0  0  0  0  0  0  0  0  0
    6.9321   45.7591   49.1544 H   0  0  0  0  0  0  0  0  0  0  0  0
    7.6914   44.3151   49.9143 H   0  0  0  0  0  0  0  0  0  0  0  0
    4.8257   46.6962   50.6205 H   0  0  0  0  0  0  0  0  0  0  0  0
    2.6209   45.9110   51.4679 H   0  0  0  0  0  0  0  0  0  0  0  0
    2.2107   43.3070   54.1572 H   0  0  0  0  0  0  0  0  0  0  0  0
   -1.0827   42.3051   51.7447 H   0  0  0  0  0  0  0  0  0  0  0  0
    4.0658   41.8263   51.4228 H   0  0  0  0  0  0  0  0  0  0  0  0
    6.2713   42.6175   50.5855 H   0  0  0  0  0  0  0  0  0  0  0  0
    6.5535   47.9159   55.1428 H   0  0  0  0  0  0  0  0  0  0  0  0
    5.8449   47.7261   53.5238 H   0  0  0  0  0  0  0  0  0  0  0  0
    6.7652   45.6636   55.2067 H   0  0  0  0  0  0  0  0  0  0  0  0
    6.3867   45.4996   53.4749 H   0  0  0  0  0  0  0  0  0  0  0  0
  1  2  1  0
  2  3  1  0
  3  4  1  0
  4  5  2  0
  4  6  1  0
  6  7  1  0
  7  8  1  0
  8  9  2  0
  9 10  1  0
 10 11  2  0
 11 12  1  0
 12 13  1  0
 13 14  2  0
 14 15  1  0
 15 16  2  0
 11 17  1  0
 17 18  2  0
  2 19  1  0
 19 20  1  0
 20 21  1  0
 21 22  1  0
 22  2  1  0
 18  8  1  0
 16 12  1  0
  1 23  1  0
  1 24  1  0
  1 25  1  0
  3 26  1  0
  3 27  1  0
  6 28  1  0
  7 29  1  0
  7 30  1  0
  9 31  1  0
 10 32  1  0
 13 33  1  0
 15 34  1  0
 17 35  1  0
 18 36  1  0
 20 37  1  0
 20 38  1  0
 21 39  1  0
 21 40  1  0
M  END
>  <meeko>  (3) 
{"is_sidechain": [false], "free_energy": -7.22, "intermolecular_energy": -9.595, "internal_energy": -0.667}

$$$$
ligand_96_conformer_5_docked
     RDKit          3D

 40 42  0  0  0  0  0  0  0  0999 V2000
    9.0660   48.0420   54.8040 C   0  0  0  0  0  0  0  0  0  0  0  0
    8.2660   47.3960   53.6670 C   0  0  0  0  0  0  0  0  0  0  0  0
    6.9240   46.8720   54.2130 C   0  0  0  0  0  0  0  0  0  0  0  0
    6.4330   45.6880   53.4290 C   0  0  0  0  0  0  0  0  0  0  0  0
    6.2220   44.5980   54.0250 O   0  0  0  0  0  0  0  0  0  0  0  0
    6.2450   45.7870   52.0100 N   0  0  0  0  0  0  0  0  0  0  0  0
    5.9650   44.6240   51.1740 C   0  0  0  0  0  0  0  0  0  0  0  0
    4.5100   44.2630   51.2700 C   0  0  0  0  0  0  0  0  0  0  0  0
    3.5200   45.2270   51.0310 C   0  0  0  0  0  0  0  0  0  0  0  0
    2.1680   44.9070   51.1840 C   0  0  0  0  0  0  0  0  0  0  0  0
    1.7780   43.6140   51.5830 C   0  0  0  0  0  0  0  0  0  0  0  0
    0.3880   43.2650   51.7560 N   0  0  0  0  0  0  0  0  0  0  0  0
   -0.1480   42.3640   52.6030 C   0  0  0  0  0  0  0  0  0  0  0  0
   -1.4880   42.3130   52.4820 N   0  0  0  0  0  0  0  0  0  0  0  0
   -1.7300   43.2280   51.5210 C   0  0  0  0  0  0  0  0  0  0  0  0
   -0.6030   43.8110   51.0730 N   0  0  0  0  0  0  0  0  0  0  0  0
    2.7780   42.6530   51.8260 C   0  0  0  0  0  0  0  0  0  0  0  0
    4.1290   42.9770   51.6760 C   0  0  0  0  0  0  0  0  0  0  0  0
    9.0090   46.3160   53.1430 O   0  0  0  0  0  0  0  0  0  0  0  0
    9.4980   46.7470   51.9120 C   0  0  0  0  0  0  0  0  0  0  0  0
    8.7320   47.9840   51.5490 C   0  0  0  0  0  0  0  0  0  0  0  0
    8.0160   48.3730   52.6790 O   0  0  0  0  0  0  0  0  0  0  0  0
    8.6589   47.7133   55.7716 H   0  0  0  0  0  0  0  0  0  0  0  0
   10.1208   47.7394   54.7281 H   0  0  0  0  0  0  0  0  0  0  0  0
    8.9923   49.1369   54.7281 H   0  0  0  0  0  0  0  0  0  0  0  0
    7.0577   46.5741   55.2634 H   0  0  0  0  0  0  0  0  0  0  0  0
    6.1788   47.6763   54.1249 H   0  0  0  0  0  0  0  0  0  0  0  0
    6.3910   46.7100   51.5410 H   0  0  0  0  0  0  0  0  0  0  0  0
    6.2144   44.8579   50.1285 H   0  0  0  0  0  0  0  0  0  0  0  0
    6.5722   43.7747   51.5204 H   0  0  0  0  0  0  0  0  0  0  0  0
    3.8094   46.2420   50.7210 H   0  0  0  0  0  0  0  0  0  0  0  0
    1.4016   45.6721   50.9910 H   0  0  0  0  0  0  0  0  0  0  0  0
    0.4351   41.7486   53.3039 H   0  0  0  0  0  0  0  0  0  0  0  0
   -2.7353   43.4703   51.1458 H   0  0  0  0  0  0  0  0  0  0  0  0
    2.4929   41.6371   52.1370 H   0  0  0  0  0  0  0  0  0  0  0  0
    4.8986   42.2175   51.8780 H   0  0  0  0  0  0  0  0  0  0  0  0
   10.5711   46.9757   51.9901 H   0  0  0  0  0  0  0  0  0  0  0  0
    9.3756   45.9683   51.1448 H   0  0  0  0  0  0  0  0  0  0  0  0
    9.4265   48.7828   51.2497 H   0  0  0  0  0  0  0  0  0  0  0  0
    8.0535   47.7890   50.7054 H   0  0  0  0  0  0  0  0  0  0  0  0
  1  2  1  0
  2  3  1  0
  3  4  1  0
  4  5  2  0
  4  6  1  0
  6  7  1  0
  7  8  1  0
  8  9  2  0
  9 10  1  0
 10 11  2  0
 11 12  1  0
 12 13  1  0
 13 14  2  0
 14 15  1  0
 15 16  2  0
 11 17  1  0
 17 18  2  0
  2 19  1  0
 19 20  1  0
 20 21  1  0
 21 22  1  0
 22  2  1  0
 18  8  1  0
 16 12  1  0
  1 23  1  0
  1 24  1  0
  1 25  1  0
  3 26  1  0
  3 27  1  0
  6 28  1  0
  7 29  1  0
  7 30  1  0
  9 31  1  0
 10 32  1  0
 13 33  1  0
 15 34  1  0
 17 35  1  0
 18 36  1  0
 20 37  1  0
 20 38  1  0
 21 39  1  0
 21 40  1  0
M  END
>  <meeko>  (4) 
{"is_sidechain": [false], "free_energy": -7.199, "intermolecular_energy": -9.379, "internal_energy": -0.854}

$$$$
ligand_96_conformer_5_docked
     RDKit          3D

 40 42  0  0  0  0  0  0  0  0999 V2000
   -1.1120   44.1400   55.2500 C   0  0  0  0  0  0  0  0  0  0  0  0
   -0.2920   43.8770   53.9820 C   0  0  0  0  0  0  0  0  0  0  0  0
    1.2030   44.1050   54.2770 C   0  0  0  0  0  0  0  0  0  0  0  0
    1.9950   44.2930   53.0140 C   0  0  0  0  0  0  0  0  0  0  0  0
    2.7400   43.3610   52.6090 O   0  0  0  0  0  0  0  0  0  0  0  0
    1.9340   45.5370   52.3000 N   0  0  0  0  0  0  0  0  0  0  0  0
    2.8280   45.8460   51.1880 C   0  0  0  0  0  0  0  0  0  0  0  0
    4.1970   46.1820   51.7100 C   0  0  0  0  0  0  0  0  0  0  0  0
    5.3390   45.6150   51.1270 C   0  0  0  0  0  0  0  0  0  0  0  0
    6.6070   45.8770   51.6530 C   0  0  0  0  0  0  0  0  0  0  0  0
    6.7580   46.7120   52.7780 C   0  0  0  0  0  0  0  0  0  0  0  0
    8.0570   46.9880   53.3420 N   0  0  0  0  0  0  0  0  0  0  0  0
    9.2670   46.8430   52.7650 C   0  0  0  0  0  0  0  0  0  0  0  0
   10.2570   47.2050   53.6020 N   0  0  0  0  0  0  0  0  0  0  0  0
    9.5830   47.5730   54.7100 C   0  0  0  0  0  0  0  0  0  0  0  0
    8.2510   47.4470   54.5660 N   0  0  0  0  0  0  0  0  0  0  0  0
    5.6060   47.2730   53.3600 C   0  0  0  0  0  0  0  0  0  0  0  0
    4.3390   47.0060   52.8340 C   0  0  0  0  0  0  0  0  0  0  0  0
   -0.7090   44.7740   52.9740 O   0  0  0  0  0  0  0  0  0  0  0  0
   -1.4550   44.0210   52.0720 C   0  0  0  0  0  0  0  0  0  0  0  0
   -1.1730   42.5790   52.3740 C   0  0  0  0  0  0  0  0  0  0  0  0
   -0.4880   42.5370   53.5860 O   0  0  0  0  0  0  0  0  0  0  0  0
   -0.4912   43.9409   56.1360 H   0  0  0  0  0  0  0  0  0  0  0  0
   -1.4423   45.1892   55.2620 H   0  0  0  0  0  0  0  0  0  0  0  0
   -1.9909   43.4787   55.2620 H   0  0  0  0  0  0  0  0  0  0  0  0
    1.3102   45.0036   54.9024 H   0  0  0  0  0  0  0  0  0  0  0  0
    1.5902   43.2158   54.7961 H   0  0  0  0  0  0  0  0  0  0  0  0
    1.2820   46.2830   52.6340 H   0  0  0  0  0  0  0  0  0  0  0  0
    2.8959   44.9736   50.5214 H   0  0  0  0  0  0  0  0  0  0  0  0
    2.4305   46.7084   50.6328 H   0  0  0  0  0  0  0  0  0  0  0  0
    5.2363   44.9595   50.2496 H   0  0  0  0  0  0  0  0  0  0  0  0
    7.4950   45.4274   51.1847 H   0  0  0  0  0  0  0  0  0  0  0  0
    9.4250   46.4755   51.7403 H   0  0  0  0  0  0  0  0  0  0  0  0
   10.0674   47.9356   55.6286 H   0  0  0  0  0  0  0  0  0  0  0  0
    5.7038   47.9284   54.2380 H   0  0  0  0  0  0  0  0  0  0  0  0
    3.4477   47.4456   53.3055 H   0  0  0  0  0  0  0  0  0  0  0  0
   -2.5272   44.2318   52.1985 H   0  0  0  0  0  0  0  0  0  0  0  0
   -1.1852   44.2671   51.0344 H   0  0  0  0  0  0  0  0  0  0  0  0
   -2.1167   42.0197   52.4552 H   0  0  0  0  0  0  0  0  0  0  0  0
   -0.5745   42.1225   51.5719 H   0  0  0  0  0  0  0  0  0  0  0  0
  1  2  1  0
  2  3  1  0
  3  4  1  0
  4  5  2  0
  4  6  1  0
  6  7  1  0
  7  8  1  0
  8  9  2  0
  9 10  1  0
 10 11  2  0
 11 12  1  0
 12 13  1  0
 13 14  2  0
 14 15  1  0
 15 16  2  0
 11 17  1  0
 17 18  2  0
  2 19  1  0
 19 20  1  0
 20 21  1  0
 21 22  1  0
 22  2  1  0
 18  8  1  0
 16 12  1  0
  1 23  1  0
  1 24  1  0
  1 25  1  0
  3 26  1  0
  3 27  1  0
  6 28  1  0
  7 29  1  0
  7 30  1  0
  9 31  1  0
 10 32  1  0
 13 33  1  0
 15 34  1  0
 17 35  1  0
 18 36  1  0
 20 37  1  0
 20 38  1  0
 21 39  1  0
 21 40  1  0
M  END
>  <meeko>  (5) 
{"is_sidechain": [false], "free_energy": -7.197, "intermolecular_energy": -9.422, "internal_energy": -0.809}

$$$$
