ligand_87_conformer_1_docked
     RDKit          3D

 42 46  0  0  0  0  0  0  0  0999 V2000
   -2.7950   45.0060   56.7970 C   0  0  0  0  0  0  0  0  0  0  0  0
   -1.7020   45.8220   57.1010 C   0  0  0  0  0  0  0  0  0  0  0  0
   -0.5040   45.6820   56.3950 C   0  0  0  0  0  0  0  0  0  0  0  0
   -0.3900   44.7190   55.3780 C   0  0  0  0  0  0  0  0  0  0  0  0
   -1.5000   43.9070   55.0670 C   0  0  0  0  0  0  0  0  0  0  0  0
   -2.6940   44.0490   55.7830 C   0  0  0  0  0  0  0  0  0  0  0  0
   -1.4110   42.9360   54.0630 O   0  0  0  0  0  0  0  0  0  0  0  0
   -0.3020   42.8620   53.1690 C   0  0  0  0  0  0  0  0  0  0  0  0
    1.0000   43.2150   53.8960 C   0  0  0  0  0  0  0  0  0  0  0  0
    0.9010   44.5820   54.6030 C   0  0  1  0  0  0  0  0  0  0  0  0
    1.0080   45.6730   53.6320 N   0  0  0  0  0  0  0  0  0  0  0  0
    2.1180   45.7860   52.7360 C   0  0  0  0  0  0  0  0  0  0  0  0
    1.9920   45.8810   51.4000 N   0  0  0  0  0  0  0  0  0  0  0  0
    3.2250   45.9740   50.9250 N   0  0  0  0  0  0  0  0  0  0  0  0
    4.0490   45.9310   51.9910 C   0  0  0  0  0  0  0  0  0  0  0  0
    5.5150   46.0080   51.9200 C   0  0  0  0  0  0  0  0  0  0  0  0
    6.2100   45.5890   50.7750 C   0  0  0  0  0  0  0  0  0  0  0  0
    7.6040   45.6780   50.7410 C   0  0  0  0  0  0  0  0  0  0  0  0
    8.2970   46.1830   51.8480 C   0  0  0  0  0  0  0  0  0  0  0  0
    9.6960   46.2870   51.8480 C   0  0  0  0  0  0  0  0  0  0  0  0
   10.3570   46.8010   52.9680 C   0  0  0  0  0  0  0  0  0  0  0  0
    9.6290   47.2100   54.0900 C   0  0  0  0  0  0  0  0  0  0  0  0
    8.2350   47.1080   54.0990 C   0  0  0  0  0  0  0  0  0  0  0  0
    7.5630   46.5960   52.9820 C   0  0  0  0  0  0  0  0  0  0  0  0
    6.2070   46.4970   52.9860 N   0  0  0  0  0  0  0  0  0  0  0  0
    3.3740   45.8140   53.1100 O   0  0  0  0  0  0  0  0  0  0  0  0
   -3.7358   45.1168   57.3562 H   0  0  0  0  0  0  0  0  0  0  0  0
   -1.7847   46.5760   57.8976 H   0  0  0  0  0  0  0  0  0  0  0  0
    0.3529   46.3281   56.6363 H   0  0  0  0  0  0  0  0  0  0  0  0
   -3.5549   43.4062   55.5474 H   0  0  0  0  0  0  0  0  0  0  0  0
   -0.2273   41.8400   52.7691 H   0  0  0  0  0  0  0  0  0  0  0  0
   -0.4574   43.5800   52.3503 H   0  0  0  0  0  0  0  0  0  0  0  0
    1.2118   42.4392   54.6465 H   0  0  0  0  0  0  0  0  0  0  0  0
    1.8070   43.2701   53.1505 H   0  0  0  0  0  0  0  0  0  0  0  0
    1.7380   44.6413   55.3143 H   0  0  0  0  0  0  0  0  0  0  0  0
    0.3360   46.4720   53.6760 H   0  0  0  0  0  0  0  0  0  0  0  0
    5.6601   45.1925   49.9087 H   0  0  0  0  0  0  0  0  0  0  0  0
    8.1557   45.3522   49.8468 H   0  0  0  0  0  0  0  0  0  0  0  0
   10.2722   45.9647   50.9682 H   0  0  0  0  0  0  0  0  0  0  0  0
   11.4539   46.8840   52.9666 H   0  0  0  0  0  0  0  0  0  0  0  0
   10.1550   47.6131   54.9679 H   0  0  0  0  0  0  0  0  0  0  0  0
    7.6657   47.4299   54.9835 H   0  0  0  0  0  0  0  0  0  0  0  0
  1  2  2  0
  2  3  1  0
  3  4  2  0
  4  5  1  0
  5  6  2  0
  5  7  1  0
  7  8  1  0
  8  9  1  0
  9 10  1  0
 10 11  1  0
 11 12  1  0
 12 13  2  0
 13 14  1  0
 14 15  2  0
 15 16  1  0
 16 17  2  0
 17 18  1  0
 18 19  2  0
 19 20  1  0
 20 21  2  0
 21 22  1  0
 22 23  2  0
 23 24  1  0
 24 25  2  0
 15 26  1  0
  6  1  1  0
 26 12  1  0
 10  4  1  0
 25 16  1  0
 24 19  1  0
  1 27  1  0
  2 28  1  0
  3 29  1  0
  6 30  1  0
  8 31  1  0
  8 32  1  0
  9 33  1  0
  9 34  1  0
 10 35  1  1
 11 36  1  0
 17 37  1  0
 18 38  1  0
 20 39  1  0
 21 40  1  0
 22 41  1  0
 23 42  1  0
M  END
>  <meeko>  (1) 
{"is_sidechain": [false], "free_energy": -9.923, "intermolecular_energy": -11.663, "internal_energy": -0.554}

$$$$
ligand_87_conformer_1_docked
     RDKit          3D

 42 46  0  0  0  0  0  0  0  0999 V2000
    9.9370   47.2050   53.7250 C   0  0  0  0  0  0  0  0  0  0  0  0
    8.7820   47.4210   54.4820 C   0  0  0  0  0  0  0  0  0  0  0  0
    7.5350   47.0270   53.9880 C   0  0  0  0  0  0  0  0  0  0  0  0
    7.4350   46.4160   52.7260 C   0  0  0  0  0  0  0  0  0  0  0  0
    8.6040   46.1890   51.9720 C   0  0  0  0  0  0  0  0  0  0  0  0
    9.8480   46.5920   52.4720 C   0  0  0  0  0  0  0  0  0  0  0  0
    8.5310   45.5870   50.7110 O   0  0  0  0  0  0  0  0  0  0  0  0
    7.3360   44.9820   50.2230 C   0  0  0  0  0  0  0  0  0  0  0  0
    6.1060   45.7780   50.6730 C   0  0  0  0  0  0  0  0  0  0  0  0
    6.0870   45.9740   52.2020 C   0  0  1  0  0  0  0  0  0  0  0  0
    5.6810   44.7380   52.8740 N   0  0  0  0  0  0  0  0  0  0  0  0
    4.3040   44.4000   53.0740 C   0  0  0  0  0  0  0  0  0  0  0  0
    3.6210   43.5580   52.2770 N   0  0  0  0  0  0  0  0  0  0  0  0
    2.3970   43.4950   52.7810 N   0  0  0  0  0  0  0  0  0  0  0  0
    2.3880   44.3000   53.8620 C   0  0  0  0  0  0  0  0  0  0  0  0
    1.2230   44.5240   54.7300 C   0  0  0  0  0  0  0  0  0  0  0  0
    1.3700   45.0520   56.0220 C   0  0  0  0  0  0  0  0  0  0  0  0
    0.2410   45.2530   56.8190 C   0  0  0  0  0  0  0  0  0  0  0  0
   -1.0270   44.9260   56.3260 C   0  0  0  0  0  0  0  0  0  0  0  0
   -2.1830   45.1150   57.0990 C   0  0  0  0  0  0  0  0  0  0  0  0
   -3.4360   44.7820   56.5740 C   0  0  0  0  0  0  0  0  0  0  0  0
   -3.5420   44.2590   55.2810 C   0  0  0  0  0  0  0  0  0  0  0  0
   -2.3950   44.0660   54.5050 C   0  0  0  0  0  0  0  0  0  0  0  0
   -1.1360   44.3970   55.0210 C   0  0  0  0  0  0  0  0  0  0  0  0
   -0.0190   44.2120   54.2680 N   0  0  0  0  0  0  0  0  0  0  0  0
    3.5590   44.8610   54.0480 O   0  0  0  0  0  0  0  0  0  0  0  0
   10.9166   47.5176   54.1156 H   0  0  0  0  0  0  0  0  0  0  0  0
    8.8544   47.9021   55.4686 H   0  0  0  0  0  0  0  0  0  0  0  0
    6.6291   47.1956   54.5888 H   0  0  0  0  0  0  0  0  0  0  0  0
   10.7581   46.4257   51.8770 H   0  0  0  0  0  0  0  0  0  0  0  0
    7.3671   44.9553   49.1238 H   0  0  0  0  0  0  0  0  0  0  0  0
    7.2649   43.9611   50.6264 H   0  0  0  0  0  0  0  0  0  0  0  0
    6.1213   46.7645   50.1865 H   0  0  0  0  0  0  0  0  0  0  0  0
    5.2064   45.2135   50.3866 H   0  0  0  0  0  0  0  0  0  0  0  0
    5.3558   46.7665   52.4196 H   0  0  0  0  0  0  0  0  0  0  0  0
    6.4010   44.1470   53.3480 H   0  0  0  0  0  0  0  0  0  0  0  0
    2.3694   45.3062   56.4049 H   0  0  0  0  0  0  0  0  0  0  0  0
    0.3483   45.6675   57.8322 H   0  0  0  0  0  0  0  0  0  0  0  0
   -2.1038   45.5246   58.1168 H   0  0  0  0  0  0  0  0  0  0  0  0
   -4.3415   44.9320   57.1803 H   0  0  0  0  0  0  0  0  0  0  0  0
   -4.5301   43.9989   54.8737 H   0  0  0  0  0  0  0  0  0  0  0  0
   -2.4817   43.6540   53.4888 H   0  0  0  0  0  0  0  0  0  0  0  0
  1  2  2  0
  2  3  1  0
  3  4  2  0
  4  5  1  0
  5  6  2  0
  5  7  1  0
  7  8  1  0
  8  9  1  0
  9 10  1  0
 10 11  1  0
 11 12  1  0
 12 13  2  0
 13 14  1  0
 14 15  2  0
 15 16  1  0
 16 17  2  0
 17 18  1  0
 18 19  2  0
 19 20  1  0
 20 21  2  0
 21 22  1  0
 22 23  2  0
 23 24  1  0
 24 25  2  0
 15 26  1  0
  6  1  1  0
 26 12  1  0
 10  4  1  0
 25 16  1  0
 24 19  1  0
  1 27  1  0
  2 28  1  0
  3 29  1  0
  6 30  1  0
  8 31  1  0
  8 32  1  0
  9 33  1  0
  9 34  1  0
 10 35  1  6
 11 36  1  0
 17 37  1  0
 18 38  1  0
 20 39  1  0
 21 40  1  0
 22 41  1  0
 23 42  1  0
M  END
>  <meeko>  (2) 
{"is_sidechain": [false], "free_energy": -9.473, "intermolecular_energy": -11.207, "internal_energy": -0.48}

$$$$
ligand_87_conformer_1_docked
     RDKit          3D

 42 46  0  0  0  0  0  0  0  0999 V2000
   -0.5730   45.5390   56.2960 C   0  0  0  0  0  0  0  0  0  0  0  0
    0.7720   45.2030   56.1150 C   0  0  0  0  0  0  0  0  0  0  0  0
    1.1420   44.3110   55.1050 C   0  0  0  0  0  0  0  0  0  0  0  0
    0.1660   43.7460   54.2670 C   0  0  0  0  0  0  0  0  0  0  0  0
   -1.1870   44.0980   54.4450 C   0  0  0  0  0  0  0  0  0  0  0  0
   -1.5510   44.9870   55.4630 C   0  0  0  0  0  0  0  0  0  0  0  0
   -2.1800   43.5450   53.6280 O   0  0  0  0  0  0  0  0  0  0  0  0
   -1.8720   42.7900   52.4580 C   0  0  0  0  0  0  0  0  0  0  0  0
   -0.6170   41.9380   52.6820 C   0  0  0  0  0  0  0  0  0  0  0  0
    0.5710   42.7960   53.1620 C   0  0  1  0  0  0  0  0  0  0  0  0
    1.1410   43.5550   52.0470 N   0  0  0  0  0  0  0  0  0  0  0  0
    2.5370   43.5170   51.7370 C   0  0  0  0  0  0  0  0  0  0  0  0
    3.1340   42.4860   51.1100 N   0  0  0  0  0  0  0  0  0  0  0  0
    4.4110   42.8190   50.9990 N   0  0  0  0  0  0  0  0  0  0  0  0
    4.5380   44.0370   51.5630 C   0  0  0  0  0  0  0  0  0  0  0  0
    5.7970   44.7910   51.6550 C   0  0  0  0  0  0  0  0  0  0  0  0
    6.6380   44.9380   50.5420 C   0  0  0  0  0  0  0  0  0  0  0  0
    7.8270   45.6620   50.6650 C   0  0  0  0  0  0  0  0  0  0  0  0
    8.1700   46.2340   51.8950 C   0  0  0  0  0  0  0  0  0  0  0  0
    9.3560   46.9680   52.0540 C   0  0  0  0  0  0  0  0  0  0  0  0
    9.6670   47.5300   53.2960 C   0  0  0  0  0  0  0  0  0  0  0  0
    8.8020   47.3620   54.3820 C   0  0  0  0  0  0  0  0  0  0  0  0
    7.6190   46.6310   54.2330 C   0  0  0  0  0  0  0  0  0  0  0  0
    7.2980   46.0650   52.9930 C   0  0  0  0  0  0  0  0  0  0  0  0
    6.1490   45.3550   52.8440 N   0  0  0  0  0  0  0  0  0  0  0  0
    3.3880   44.4720   52.0210 O   0  0  0  0  0  0  0  0  0  0  0  0
   -0.8621   46.2382   57.0944 H   0  0  0  0  0  0  0  0  0  0  0  0
    1.5403   45.6416   56.7688 H   0  0  0  0  0  0  0  0  0  0  0  0
    2.2015   44.0502   54.9655 H   0  0  0  0  0  0  0  0  0  0  0  0
   -2.6087   45.2520   55.6080 H   0  0  0  0  0  0  0  0  0  0  0  0
   -2.7193   42.1303   52.2197 H   0  0  0  0  0  0  0  0  0  0  0  0
   -1.6858   43.4848   51.6258 H   0  0  0  0  0  0  0  0  0  0  0  0
   -0.8353   41.1731   53.4417 H   0  0  0  0  0  0  0  0  0  0  0  0
   -0.3412   41.4719   51.7246 H   0  0  0  0  0  0  0  0  0  0  0  0
    1.3292   42.1066   53.5618 H   0  0  0  0  0  0  0  0  0  0  0  0
    0.5500   44.2540   51.5440 H   0  0  0  0  0  0  0  0  0  0  0  0
    6.3631   44.4859   49.5776 H   0  0  0  0  0  0  0  0  0  0  0  0
    8.4917   45.7819   49.7968 H   0  0  0  0  0  0  0  0  0  0  0  0
   10.0398   47.1009   51.2026 H   0  0  0  0  0  0  0  0  0  0  0  0
   10.5957   48.1065   53.4194 H   0  0  0  0  0  0  0  0  0  0  0  0
    9.0529   47.8062   55.3565 H   0  0  0  0  0  0  0  0  0  0  0  0
    6.9411   46.5007   55.0894 H   0  0  0  0  0  0  0  0  0  0  0  0
  1  2  2  0
  2  3  1  0
  3  4  2  0
  4  5  1  0
  5  6  2  0
  5  7  1  0
  7  8  1  0
  8  9  1  0
  9 10  1  0
 10 11  1  0
 11 12  1  0
 12 13  2  0
 13 14  1  0
 14 15  2  0
 15 16  1  0
 16 17  2  0
 17 18  1  0
 18 19  2  0
 19 20  1  0
 20 21  2  0
 21 22  1  0
 22 23  2  0
 23 24  1  0
 24 25  2  0
 15 26  1  0
  6  1  1  0
 26 12  1  0
 10  4  1  0
 25 16  1  0
 24 19  1  0
  1 27  1  0
  2 28  1  0
  3 29  1  0
  6 30  1  0
  8 31  1  0
  8 32  1  0
  9 33  1  0
  9 34  1  0
 10 35  1  1
 11 36  1  0
 17 37  1  0
 18 38  1  0
 20 39  1  0
 21 40  1  0
 22 41  1  0
 23 42  1  0
M  END
>  <meeko>  (3) 
{"is_sidechain": [false], "free_energy": -9.452, "intermolecular_energy": -11.107, "internal_energy": -0.556}

$$$$
ligand_87_conformer_1_docked
     RDKit          3D

 42 46  0  0  0  0  0  0  0  0999 V2000
   -3.8200   43.4270   50.8010 C   0  0  0  0  0  0  0  0  0  0  0  0
   -3.4440   44.7720   50.7340 C   0  0  0  0  0  0  0  0  0  0  0  0
   -2.2780   45.2070   51.3690 C   0  0  0  0  0  0  0  0  0  0  0  0
   -1.4780   44.2960   52.0800 C   0  0  0  0  0  0  0  0  0  0  0  0
   -1.8540   42.9390   52.1340 C   0  0  0  0  0  0  0  0  0  0  0  0
   -3.0280   42.5130   51.5000 C   0  0  0  0  0  0  0  0  0  0  0  0
   -1.0780   42.0130   52.8400 O   0  0  0  0  0  0  0  0  0  0  0  0
    0.2180   42.3300   53.3440 C   0  0  0  0  0  0  0  0  0  0  0  0
    0.2630   43.7800   53.8400 C   0  0  0  0  0  0  0  0  0  0  0  0
   -0.2060   44.7660   52.7500 C   0  0  1  0  0  0  0  0  0  0  0  0
    0.8390   44.9530   51.7420 N   0  0  0  0  0  0  0  0  0  0  0  0
    2.0350   45.6910   52.0150 C   0  0  0  0  0  0  0  0  0  0  0  0
    2.0470   46.8890   52.6270 N   0  0  0  0  0  0  0  0  0  0  0  0
    3.3210   47.2440   52.7040 N   0  0  0  0  0  0  0  0  0  0  0  0
    4.0290   46.2480   52.1360 C   0  0  0  0  0  0  0  0  0  0  0  0
    5.4940   46.2270   52.0100 C   0  0  0  0  0  0  0  0  0  0  0  0
    6.1180   45.6980   50.8700 C   0  0  0  0  0  0  0  0  0  0  0  0
    7.5120   45.6950   50.7840 C   0  0  0  0  0  0  0  0  0  0  0  0
    8.2760   46.2210   51.8330 C   0  0  0  0  0  0  0  0  0  0  0  0
    9.6790   46.2350   51.7790 C   0  0  0  0  0  0  0  0  0  0  0  0
   10.4120   46.7710   52.8420 C   0  0  0  0  0  0  0  0  0  0  0  0
    9.7530   47.2920   53.9610 C   0  0  0  0  0  0  0  0  0  0  0  0
    8.3560   47.2800   54.0230 C   0  0  0  0  0  0  0  0  0  0  0  0
    7.6130   46.7460   52.9640 C   0  0  0  0  0  0  0  0  0  0  0  0
    6.2540   46.7340   53.0200 N   0  0  0  0  0  0  0  0  0  0  0  0
    3.2440   45.2880   51.7090 O   0  0  0  0  0  0  0  0  0  0  0  0
   -4.7404   43.0883   50.3028 H   0  0  0  0  0  0  0  0  0  0  0  0
   -4.0676   45.4892   50.1801 H   0  0  0  0  0  0  0  0  0  0  0  0
   -1.9852   46.2658   51.3123 H   0  0  0  0  0  0  0  0  0  0  0  0
   -3.3272   41.4558   51.5527 H   0  0  0  0  0  0  0  0  0  0  0  0
    0.4566   41.6546   54.1788 H   0  0  0  0  0  0  0  0  0  0  0  0
    0.9532   42.2085   52.5349 H   0  0  0  0  0  0  0  0  0  0  0  0
   -0.3936   43.8782   54.7171 H   0  0  0  0  0  0  0  0  0  0  0  0
    1.3037   44.0232   54.1003 H   0  0  0  0  0  0  0  0  0  0  0  0
   -0.4125   45.7258   53.2462 H   0  0  0  0  0  0  0  0  0  0  0  0
    0.6610   44.6650   50.7530 H   0  0  0  0  0  0  0  0  0  0  0  0
    5.5125   45.2878   50.0484 H   0  0  0  0  0  0  0  0  0  0  0  0
    8.0086   45.2804   49.8943 H   0  0  0  0  0  0  0  0  0  0  0  0
   10.2006   45.8249   50.9017 H   0  0  0  0  0  0  0  0  0  0  0  0
   11.5111   46.7832   52.7985 H   0  0  0  0  0  0  0  0  0  0  0  0
   10.3354   47.7122   54.7942 H   0  0  0  0  0  0  0  0  0  0  0  0
    7.8411   47.6903   54.9042 H   0  0  0  0  0  0  0  0  0  0  0  0
  1  2  2  0
  2  3  1  0
  3  4  2  0
  4  5  1  0
  5  6  2  0
  5  7  1  0
  7  8  1  0
  8  9  1  0
  9 10  1  0
 10 11  1  0
 11 12  1  0
 12 13  2  0
 13 14  1  0
 14 15  2  0
 15 16  1  0
 16 17  2  0
 17 18  1  0
 18 19  2  0
 19 20  1  0
 20 21  2  0
 21 22  1  0
 22 23  2  0
 23 24  1  0
 24 25  2  0
 15 26  1  0
  6  1  1  0
 26 12  1  0
 10  4  1  0
 25 16  1  0
 24 19  1  0
  1 27  1  0
  2 28  1  0
  3 29  1  0
  6 30  1  0
  8 31  1  0
  8 32  1  0
  9 33  1  0
  9 34  1  0
 10 35  1  1
 11 36  1  0
 17 37  1  0
 18 38  1  0
 20 39  1  0
 21 40  1  0
 22 41  1  0
 23 42  1  0
M  END
>  <meeko>  (4) 
{"is_sidechain": [false], "free_energy": -9.392, "intermolecular_energy": -11.109, "internal_energy": -0.484}

$$$$
ligand_87_conformer_1_docked
     RDKit          3D

 42 46  0  0  0  0  0  0  0  0999 V2000
   -3.6540   43.9820   55.2380 C   0  0  0  0  0  0  0  0  0  0  0  0
   -3.1350   44.0660   53.9420 C   0  0  0  0  0  0  0  0  0  0  0  0
   -1.7940   44.4050   53.7440 C   0  0  0  0  0  0  0  0  0  0  0  0
   -0.9600   44.6660   54.8450 C   0  0  0  0  0  0  0  0  0  0  0  0
   -1.4850   44.5670   56.1500 C   0  0  0  0  0  0  0  0  0  0  0  0
   -2.8310   44.2330   56.3390 C   0  0  0  0  0  0  0  0  0  0  0  0
   -0.6770   44.8270   57.2620 O   0  0  0  0  0  0  0  0  0  0  0  0
    0.7370   44.9830   57.1590 C   0  0  0  0  0  0  0  0  0  0  0  0
    1.1050   45.7110   55.8620 C   0  0  0  0  0  0  0  0  0  0  0  0
    0.4960   45.0140   54.6280 C   0  0  1  0  0  0  0  0  0  0  0  0
    1.2470   43.8000   54.3010 N   0  0  0  0  0  0  0  0  0  0  0  0
    2.3540   43.8140   53.3940 C   0  0  0  0  0  0  0  0  0  0  0  0
    2.4230   43.0480   52.2900 N   0  0  0  0  0  0  0  0  0  0  0  0
    3.5790   43.3430   51.7160 N   0  0  0  0  0  0  0  0  0  0  0  0
    4.1650   44.2750   52.4940 C   0  0  0  0  0  0  0  0  0  0  0  0
    5.4710   44.8920   52.2220 C   0  0  0  0  0  0  0  0  0  0  0  0
    6.0200   44.8920   50.9310 C   0  0  0  0  0  0  0  0  0  0  0  0
    7.2640   45.4890   50.7090 C   0  0  0  0  0  0  0  0  0  0  0  0
    7.9520   46.0810   51.7730 C   0  0  0  0  0  0  0  0  0  0  0  0
    9.2030   46.6900   51.5860 C   0  0  0  0  0  0  0  0  0  0  0  0
    9.8630   47.2770   52.6710 C   0  0  0  0  0  0  0  0  0  0  0  0
    9.2810   47.2580   53.9430 C   0  0  0  0  0  0  0  0  0  0  0  0
    8.0370   46.6520   54.1380 C   0  0  0  0  0  0  0  0  0  0  0  0
    7.3680   46.0630   53.0590 C   0  0  0  0  0  0  0  0  0  0  0  0
    6.1570   45.4740   53.2450 N   0  0  0  0  0  0  0  0  0  0  0  0
    3.4160   44.5690   53.5300 O   0  0  0  0  0  0  0  0  0  0  0  0
   -4.7109   43.7181   55.3907 H   0  0  0  0  0  0  0  0  0  0  0  0
   -3.7838   43.8648   53.0768 H   0  0  0  0  0  0  0  0  0  0  0  0
   -1.3896   44.4678   52.7230 H   0  0  0  0  0  0  0  0  0  0  0  0
   -3.2421   44.1679   57.3572 H   0  0  0  0  0  0  0  0  0  0  0  0
    1.0999   45.5674   58.0173 H   0  0  0  0  0  0  0  0  0  0  0  0
    1.2046   43.9873   57.1523 H   0  0  0  0  0  0  0  0  0  0  0  0
    0.7271   46.7428   55.9121 H   0  0  0  0  0  0  0  0  0  0  0  0
    2.2001   45.6986   55.7590 H   0  0  0  0  0  0  0  0  0  0  0  0
    0.5600   45.7218   53.7884 H   0  0  0  0  0  0  0  0  0  0  0  0
    0.8910   42.8710   54.6200 H   0  0  0  0  0  0  0  0  0  0  0  0
    5.4743   44.4247   50.0980 H   0  0  0  0  0  0  0  0  0  0  0  0
    7.7010   45.4932   49.6996 H   0  0  0  0  0  0  0  0  0  0  0  0
    9.6639   46.7056   50.5873 H   0  0  0  0  0  0  0  0  0  0  0  0
   10.8427   47.7550   52.5234 H   0  0  0  0  0  0  0  0  0  0  0  0
    9.8042   47.7215   54.7923 H   0  0  0  0  0  0  0  0  0  0  0  0
    7.5834   46.6379   55.1400 H   0  0  0  0  0  0  0  0  0  0  0  0
  1  2  2  0
  2  3  1  0
  3  4  2  0
  4  5  1  0
  5  6  2  0
  5  7  1  0
  7  8  1  0
  8  9  1  0
  9 10  1  0
 10 11  1  0
 11 12  1  0
 12 13  2  0
 13 14  1  0
 14 15  2  0
 15 16  1  0
 16 17  2  0
 17 18  1  0
 18 19  2  0
 19 20  1  0
 20 21  2  0
 21 22  1  0
 22 23  2  0
 23 24  1  0
 24 25  2  0
 15 26  1  0
  6  1  1  0
 26 12  1  0
 10  4  1  0
 25 16  1  0
 24 19  1  0
  1 27  1  0
  2 28  1  0
  3 29  1  0
  6 30  1  0
  8 31  1  0
  8 32  1  0
  9 33  1  0
  9 34  1  0
 10 35  1  6
 11 36  1  0
 17 37  1  0
 18 38  1  0
 20 39  1  0
 21 40  1  0
 22 41  1  0
 23 42  1  0
M  END
>  <meeko>  (5) 
{"is_sidechain": [false], "free_energy": -9.264, "intermolecular_energy": -10.95, "internal_energy": -0.492}

$$$$
