MODEL 1
REMARK VINA RESULT:    -8.732      0.000      0.000
REMARK INTER + INTRA:         -10.788
REMARK INTER:                 -10.264
REMARK INTRA:                  -0.524
REMARK UNBOUND:                -0.524
REMARK SMILES CN1CCc2ccc(NC(=O)CN3CCCNC3=O)cc2C1=O
REMARK SMILES IDX 9 1 10 2 11 3 8 5 2 6 3 7 22 8 4 9 21 10 23 11 5 12 20 13
REMARK SMILES IDX 6 14 7 15 1 16 12 17 13 18 14 19 18 20 15 21 17 22 19 23
REMARK SMILES IDX 16 24
REMARK H PARENT 9 4 17 25
ROOT
ATOM      1  N   UNL     1       3.947  45.214  51.285  1.00  0.00    -0.325 N 
ATOM      2  C   UNL     1       3.293  43.963  51.545  1.00  0.00     0.244 C 
ATOM      3  O   UNL     1       3.928  42.998  52.047  1.00  0.00    -0.273 OA
ATOM      4  H   UNL     1       3.349  46.052  51.111  1.00  0.00     0.169 HD
ENDROOT
BRANCH   1   5
ATOM      5  C   UNL     1       5.369  45.411  51.375  1.00  0.00     0.042 A 
ATOM      6  N   UNL     1       9.268  47.210  53.841  1.00  0.00    -0.341 N 
ATOM      7  C   UNL     1       9.983  47.265  52.560  1.00  0.00     0.124 C 
ATOM      8  C   UNL     1       7.880  46.831  53.847  1.00  0.00     0.253 C 
ATOM      9  C   UNL     1       9.636  46.047  51.696  1.00  0.00     0.058 C 
ATOM     10  C   UNL     1       7.291  46.226  52.634  1.00  0.00     0.045 A 
ATOM     11  O   UNL     1       7.179  46.999  54.882  1.00  0.00    -0.269 OA
ATOM     12  C   UNL     1       8.142  45.879  51.565  1.00  0.00    -0.033 A 
ATOM     13  C   UNL     1       5.910  46.000  52.527  1.00  0.00     0.040 A 
ATOM     14  C   UNL     1       7.598  45.295  50.411  1.00  0.00     0.007 A 
ATOM     15  C   UNL     1       6.222  45.076  50.310  1.00  0.00     0.026 A 
ATOM     16  C   UNL     1       9.935  47.582  55.091  1.00  0.00     0.147 C 
ENDBRANCH   1   5
BRANCH   2  17
ATOM     17  C   UNL     1       1.821  43.818  51.298  1.00  0.00     0.221 C 
BRANCH  17  18
ATOM     18  N   UNL     1       1.070  44.070  52.534  1.00  0.00    -0.315 N 
ATOM     19  C   UNL     1       0.629  42.927  53.346  1.00  0.00     0.124 C 
ATOM     20  C   UNL     1       0.974  45.401  53.079  1.00  0.00     0.317 C 
ATOM     21  C   UNL     1      -0.543  43.310  54.254  1.00  0.00     0.043 C 
ATOM     22  N   UNL     1       0.298  45.619  54.322  1.00  0.00    -0.338 N 
ATOM     23  O   UNL     1       1.457  46.386  52.456  1.00  0.00    -0.249 OA
ATOM     24  C   UNL     1      -0.163  44.499  55.137  1.00  0.00     0.119 C 
ATOM     25  H   UNL     1       0.240  46.587  54.711  1.00  0.00     0.165 HD
ENDBRANCH  17  18
ENDBRANCH   2  17
TORSDOF 3
ENDMDL
MODEL 2
REMARK VINA RESULT:    -8.535      1.689      2.339
REMARK INTER + INTRA:         -10.556
REMARK INTER:                 -10.075
REMARK INTRA:                  -0.481
REMARK UNBOUND:                -0.524
REMARK SMILES CN1CCc2ccc(NC(=O)CN3CCCNC3=O)cc2C1=O
REMARK SMILES IDX 9 1 10 2 11 3 8 5 2 6 3 7 22 8 4 9 21 10 23 11 5 12 20 13
REMARK SMILES IDX 6 14 7 15 1 16 12 17 13 18 14 19 18 20 15 21 17 22 19 23
REMARK SMILES IDX 16 24
REMARK H PARENT 9 4 17 25
ROOT
ATOM      1  N   UNL     1       3.176  43.542  53.099  1.00  0.00    -0.325 N 
ATOM      2  C   UNL     1       1.893  44.186  53.107  1.00  0.00     0.244 C 
ATOM      3  O   UNL     1       1.708  45.257  52.470  1.00  0.00    -0.273 OA
ATOM      4  H   UNL     1       3.228  42.549  53.418  1.00  0.00     0.169 HD
ENDROOT
BRANCH   1   5
ATOM      5  C   UNL     1       4.371  44.137  52.561  1.00  0.00     0.042 A 
ATOM      6  N   UNL     1       8.258  47.148  53.143  1.00  0.00    -0.341 N 
ATOM      7  C   UNL     1       8.290  47.299  51.682  1.00  0.00     0.124 C 
ATOM      8  C   UNL     1       7.187  46.397  53.741  1.00  0.00     0.253 C 
ATOM      9  C   UNL     1       7.965  45.966  50.997  1.00  0.00     0.058 C 
ATOM     10  C   UNL     1       6.327  45.556  52.883  1.00  0.00     0.045 A 
ATOM     11  O   UNL     1       6.995  46.445  54.987  1.00  0.00    -0.269 OA
ATOM     12  C   UNL     1       6.682  45.376  51.531  1.00  0.00    -0.033 A 
ATOM     13  C   UNL     1       5.167  44.944  53.386  1.00  0.00     0.040 A 
ATOM     14  C   UNL     1       5.881  44.573  50.707  1.00  0.00     0.007 A 
ATOM     15  C   UNL     1       4.727  43.969  51.213  1.00  0.00     0.026 A 
ATOM     16  C   UNL     1       9.268  47.792  53.987  1.00  0.00     0.147 C 
ENDBRANCH   1   5
BRANCH   2  17
ATOM     17  C   UNL     1       0.733  43.543  53.807  1.00  0.00     0.221 C 
BRANCH  17  18
ATOM     18  N   UNL     1       0.254  44.405  54.895  1.00  0.00    -0.315 N 
ATOM     19  C   UNL     1       1.221  44.920  55.876  1.00  0.00     0.124 C 
ATOM     20  C   UNL     1      -1.084  44.943  54.873  1.00  0.00     0.317 C 
ATOM     21  C   UNL     1       0.527  45.324  57.180  1.00  0.00     0.043 C 
ATOM     22  N   UNL     1      -1.512  45.838  55.905  1.00  0.00    -0.338 N 
ATOM     23  O   UNL     1      -1.895  44.610  53.967  1.00  0.00    -0.249 OA
ATOM     24  C   UNL     1      -0.573  46.349  56.900  1.00  0.00     0.119 C 
ATOM     25  H   UNL     1      -2.481  46.227  55.877  1.00  0.00     0.165 HD
ENDBRANCH  17  18
ENDBRANCH   2  17
TORSDOF 3
ENDMDL
MODEL 3
REMARK VINA RESULT:    -8.057      1.743      2.659
REMARK INTER + INTRA:          -9.994
REMARK INTER:                  -9.484
REMARK INTRA:                  -0.509
REMARK UNBOUND:                -0.524
REMARK SMILES CN1CCc2ccc(NC(=O)CN3CCCNC3=O)cc2C1=O
REMARK SMILES IDX 9 1 10 2 11 3 8 5 2 6 3 7 22 8 4 9 21 10 23 11 5 12 20 13
REMARK SMILES IDX 6 14 7 15 1 16 12 17 13 18 14 19 18 20 15 21 17 22 19 23
REMARK SMILES IDX 16 24
REMARK H PARENT 9 4 17 25
ROOT
ATOM      1  N   UNL     1       2.885  44.229  53.401  1.00  0.00    -0.325 N 
ATOM      2  C   UNL     1       1.867  45.144  53.832  1.00  0.00     0.244 C 
ATOM      3  O   UNL     1       1.922  46.363  53.514  1.00  0.00    -0.273 OA
ATOM      4  H   UNL     1       2.682  43.207  53.462  1.00  0.00     0.169 HD
ENDROOT
BRANCH   1   5
ATOM      5  C   UNL     1       4.114  44.632  52.771  1.00  0.00     0.042 A 
ATOM      6  N   UNL     1       8.436  47.036  53.023  1.00  0.00    -0.341 N 
ATOM      7  C   UNL     1       8.387  47.162  51.561  1.00  0.00     0.124 C 
ATOM      8  C   UNL     1       7.309  46.461  53.708  1.00  0.00     0.253 C 
ATOM      9  C   UNL     1       7.821  45.885  50.928  1.00  0.00     0.058 C 
ATOM     10  C   UNL     1       6.276  45.747  52.929  1.00  0.00     0.045 A 
ATOM     11  O   UNL     1       7.213  46.552  54.963  1.00  0.00    -0.269 OA
ATOM     12  C   UNL     1       6.506  45.500  51.560  1.00  0.00    -0.033 A 
ATOM     13  C   UNL     1       5.077  45.322  53.522  1.00  0.00     0.040 A 
ATOM     14  C   UNL     1       5.539  44.815  50.810  1.00  0.00     0.007 A 
ATOM     15  C   UNL     1       4.347  44.397  51.405  1.00  0.00     0.026 A 
ATOM     16  C   UNL     1       9.585  47.532  53.783  1.00  0.00     0.147 C 
ENDBRANCH   1   5
BRANCH   2  17
ATOM     17  C   UNL     1       0.679  44.643  54.598  1.00  0.00     0.221 C 
BRANCH  17  18
ATOM     18  N   UNL     1      -0.294  44.032  53.684  1.00  0.00    -0.315 N 
ATOM     19  C   UNL     1      -1.275  44.893  53.007  1.00  0.00     0.124 C 
ATOM     20  C   UNL     1      -0.147  42.661  53.261  1.00  0.00     0.317 C 
ATOM     21  C   UNL     1      -2.495  44.089  52.547  1.00  0.00     0.043 C 
ATOM     22  N   UNL     1      -1.065  42.102  52.316  1.00  0.00    -0.338 N 
ATOM     23  O   UNL     1       0.767  41.936  53.738  1.00  0.00    -0.249 OA
ATOM     24  C   UNL     1      -2.058  42.935  51.643  1.00  0.00     0.119 C 
ATOM     25  H   UNL     1      -0.946  41.110  52.011  1.00  0.00     0.165 HD
ENDBRANCH  17  18
ENDBRANCH   2  17
TORSDOF 3
ENDMDL
MODEL 4
REMARK VINA RESULT:    -7.641      2.273      3.533
REMARK INTER + INTRA:          -9.506
REMARK INTER:                  -9.381
REMARK INTRA:                  -0.124
REMARK UNBOUND:                -0.524
REMARK SMILES CN1CCc2ccc(NC(=O)CN3CCCNC3=O)cc2C1=O
REMARK SMILES IDX 9 1 10 2 11 3 8 5 2 6 3 7 22 8 4 9 21 10 23 11 5 12 20 13
REMARK SMILES IDX 6 14 7 15 1 16 12 17 13 18 14 19 18 20 15 21 17 22 19 23
REMARK SMILES IDX 16 24
REMARK H PARENT 9 4 17 25
ROOT
ATOM      1  N   UNL     1       2.142  42.544  52.178  1.00  0.00    -0.325 N 
ATOM      2  C   UNL     1       1.109  43.523  51.988  1.00  0.00     0.244 C 
ATOM      3  O   UNL     1       1.224  44.413  51.103  1.00  0.00    -0.273 OA
ATOM      4  H   UNL     1       1.909  41.689  52.730  1.00  0.00     0.169 HD
ENDROOT
BRANCH   1   5
ATOM      5  C   UNL     1       3.434  42.606  51.551  1.00  0.00     0.042 A 
ATOM      6  N   UNL     1       7.569  45.146  50.566  1.00  0.00    -0.341 N 
ATOM      7  C   UNL     1       7.737  44.303  49.375  1.00  0.00     0.124 C 
ATOM      8  C   UNL     1       6.376  45.002  51.357  1.00  0.00     0.253 C 
ATOM      9  C   UNL     1       7.325  42.858  49.676  1.00  0.00     0.058 C 
ATOM     10  C   UNL     1       5.502  43.830  51.139  1.00  0.00     0.045 A 
ATOM     11  O   UNL     1       6.088  45.859  52.237  1.00  0.00    -0.269 OA
ATOM     12  C   UNL     1       5.946  42.799  50.287  1.00  0.00    -0.033 A 
ATOM     13  C   UNL     1       4.245  43.731  51.756  1.00  0.00     0.040 A 
ATOM     14  C   UNL     1       5.131  41.677  50.078  1.00  0.00     0.007 A 
ATOM     15  C   UNL     1       3.880  41.586  50.693  1.00  0.00     0.026 A 
ATOM     16  C   UNL     1       8.570  46.155  50.921  1.00  0.00     0.147 C 
ENDBRANCH   1   5
BRANCH   2  17
ATOM     17  C   UNL     1      -0.158  43.446  52.785  1.00  0.00     0.221 C 
BRANCH  17  18
ATOM     18  N   UNL     1       0.015  44.113  54.081  1.00  0.00    -0.315 N 
ATOM     19  C   UNL     1       1.138  45.044  54.260  1.00  0.00     0.124 C 
ATOM     20  C   UNL     1      -1.022  44.057  55.082  1.00  0.00     0.317 C 
ATOM     21  C   UNL     1       1.482  45.221  55.742  1.00  0.00     0.043 C 
ATOM     22  N   UNL     1      -0.867  44.771  56.313  1.00  0.00    -0.338 N 
ATOM     23  O   UNL     1      -2.057  43.361  54.897  1.00  0.00    -0.249 OA
ATOM     24  C   UNL     1       0.250  45.688  56.519  1.00  0.00     0.119 C 
ATOM     25  H   UNL     1      -1.627  44.730  57.029  1.00  0.00     0.165 HD
ENDBRANCH  17  18
ENDBRANCH   2  17
TORSDOF 3
ENDMDL
MODEL 5
REMARK VINA RESULT:    -7.446      2.370      3.281
REMARK INTER + INTRA:          -9.276
REMARK INTER:                  -8.872
REMARK INTRA:                  -0.404
REMARK UNBOUND:                -0.524
REMARK SMILES CN1CCc2ccc(NC(=O)CN3CCCNC3=O)cc2C1=O
REMARK SMILES IDX 9 1 10 2 11 3 8 5 2 6 3 7 22 8 4 9 21 10 23 11 5 12 20 13
REMARK SMILES IDX 6 14 7 15 1 16 12 17 13 18 14 19 18 20 15 21 17 22 19 23
REMARK SMILES IDX 16 24
REMARK H PARENT 9 4 17 25
ROOT
ATOM      1  N   UNL     1       2.450  42.308  52.407  1.00  0.00    -0.325 N 
ATOM      2  C   UNL     1       1.157  42.674  51.902  1.00  0.00     0.244 C 
ATOM      3  O   UNL     1       1.032  43.157  50.744  1.00  0.00    -0.273 OA
ATOM      4  H   UNL     1       2.490  41.690  53.247  1.00  0.00     0.169 HD
ENDROOT
BRANCH   1   5
ATOM      5  C   UNL     1       3.690  42.635  51.754  1.00  0.00     0.042 A 
ATOM      6  N   UNL     1       7.443  45.795  51.087  1.00  0.00    -0.341 N 
ATOM      7  C   UNL     1       7.639  45.195  49.761  1.00  0.00     0.124 C 
ATOM      8  C   UNL     1       6.321  45.372  51.882  1.00  0.00     0.253 C 
ATOM      9  C   UNL     1       7.414  43.679  49.817  1.00  0.00     0.058 C 
ATOM     10  C   UNL     1       5.576  44.156  51.492  1.00  0.00     0.045 A 
ATOM     11  O   UNL     1       5.987  46.024  52.909  1.00  0.00    -0.269 OA
ATOM     12  C   UNL     1       6.087  43.349  50.456  1.00  0.00    -0.033 A 
ATOM     13  C   UNL     1       4.376  43.800  52.126  1.00  0.00     0.040 A 
ATOM     14  C   UNL     1       5.396  42.187  50.081  1.00  0.00     0.007 A 
ATOM     15  C   UNL     1       4.200  41.839  50.714  1.00  0.00     0.026 A 
ATOM     16  C   UNL     1       8.340  46.843  51.579  1.00  0.00     0.147 C 
ENDBRANCH   1   5
BRANCH   2  17
ATOM     17  C   UNL     1      -0.073  42.405  52.716  1.00  0.00     0.221 C 
BRANCH  17  18
ATOM     18  N   UNL     1      -1.060  43.474  52.516  1.00  0.00    -0.315 N 
ATOM     19  C   UNL     1      -2.242  43.207  51.685  1.00  0.00     0.124 C 
ATOM     20  C   UNL     1      -1.010  44.678  53.307  1.00  0.00     0.317 C 
ATOM     21  C   UNL     1      -2.853  44.507  51.155  1.00  0.00     0.043 C 
ATOM     22  N   UNL     1      -2.020  45.680  53.148  1.00  0.00    -0.338 N 
ATOM     23  O   UNL     1      -0.067  44.874  54.121  1.00  0.00    -0.249 OA
ATOM     24  C   UNL     1      -3.195  45.443  52.315  1.00  0.00     0.119 C 
ATOM     25  H   UNL     1      -1.979  46.546  53.731  1.00  0.00     0.165 HD
ENDBRANCH  17  18
ENDBRANCH   2  17
TORSDOF 3
ENDMDL
