MODEL 1
REMARK VINA RESULT:    -9.095      0.000      0.000
REMARK INTER + INTRA:         -12.361
REMARK INTER:                 -11.754
REMARK INTRA:                  -0.607
REMARK UNBOUND:                -0.607
REMARK SMILES Cc1cc(NC(=O)NC2CCN([C@@H](C)c3ccccc3)CC2)nn1-c1ccc(F)cc1F
REMARK SMILES IDX 5 1 6 2 7 3 8 4 4 7 2 8 3 9 24 10 23 11 1 12 25 13 26 14
REMARK SMILES IDX 31 15 27 16 30 17 28 18 32 19 29 20 9 21 10 22 22 23 11 24
REMARK SMILES IDX 21 25 12 26 13 27 14 28 15 29 16 30 20 31 17 32 19 33 18 34
REMARK H PARENT 5 5 8 6
ROOT
ATOM      1  N   UNL     1       0.833  44.521  55.997  1.00  0.00    -0.291 N 
ATOM      2  C   UNL     1       1.265  44.701  54.640  1.00  0.00     0.320 C 
ATOM      3  O   UNL     1       0.534  45.312  53.812  1.00  0.00    -0.248 OA
ATOM      4  N   UNL     1       2.518  44.145  54.217  1.00  0.00    -0.335 N 
ATOM      5  H   UNL     1       1.357  43.840  56.592  1.00  0.00     0.173 HD
ATOM      6  H   UNL     1       3.110  43.662  54.931  1.00  0.00     0.165 HD
ENDROOT
BRANCH   1   7
ATOM      7  C   UNL     1      -0.309  45.164  56.578  1.00  0.00     0.156 A 
ATOM      8  C   UNL     1      -2.305  45.641  57.307  1.00  0.00     0.043 A 
ATOM      9  C   UNL     1      -1.555  44.599  56.803  1.00  0.00     0.072 A 
ATOM     10  N   UNL     1      -1.528  46.748  57.381  1.00  0.00    -0.233 N 
ATOM     11  N   UNL     1      -0.318  46.465  56.922  1.00  0.00    -0.150 NA
ATOM     12  C   UNL     1      -3.756  45.558  57.670  1.00  0.00     0.067 C 
BRANCH  10  13
ATOM     13  C   UNL     1      -1.898  48.054  57.856  1.00  0.00     0.101 A 
ATOM     14  C   UNL     1      -2.810  48.846  57.133  1.00  0.00     0.034 A 
ATOM     15  C   UNL     1      -1.389  48.535  59.076  1.00  0.00     0.151 A 
ATOM     16  C   UNL     1      -3.185  50.104  57.611  1.00  0.00     0.041 A 
ATOM     17  C   UNL     1      -1.766  49.797  59.547  1.00  0.00     0.080 A 
ATOM     18  C   UNL     1      -2.661  50.582  58.815  1.00  0.00     0.126 A 
ATOM     19  F   UNL     1      -0.512  47.792  59.796  1.00  0.00    -0.205 F 
ATOM     20  F   UNL     1      -3.027  51.803  59.277  1.00  0.00    -0.207 F 
ENDBRANCH  10  13
ENDBRANCH   1   7
BRANCH   4  21
ATOM     21  C   UNL     1       2.991  44.243  52.831  1.00  0.00     0.086 C 
ATOM     22  C   UNL     1       4.378  43.580  52.677  1.00  0.00     0.040 C 
ATOM     23  C   UNL     1       3.011  45.723  52.390  1.00  0.00     0.040 C 
ATOM     24  C   UNL     1       5.499  44.617  52.812  1.00  0.00     0.087 C 
ATOM     25  C   UNL     1       4.057  45.962  51.292  1.00  0.00     0.087 C 
ATOM     26  N   UNL     1       5.448  45.633  51.727  1.00  0.00    -0.296 NA
BRANCH  26  27
ATOM     27  C   UNL     1       6.244  46.855  52.043  1.00  0.00     0.083 C 
ATOM     28  C   UNL     1       5.939  47.416  53.447  1.00  0.00     0.030 C 
BRANCH  27  29
ATOM     29  C   UNL     1       7.732  46.555  51.985  1.00  0.00    -0.031 A 
ATOM     30  C   UNL     1       8.610  47.095  52.943  1.00  0.00     0.005 A 
ATOM     31  C   UNL     1       8.255  45.768  50.945  1.00  0.00     0.005 A 
ATOM     32  C   UNL     1       9.980  46.829  52.874  1.00  0.00     0.000 A 
ATOM     33  C   UNL     1       9.628  45.507  50.878  1.00  0.00     0.000 A 
ATOM     34  C   UNL     1      10.489  46.034  51.843  1.00  0.00     0.000 A 
ENDBRANCH  27  29
ENDBRANCH  26  27
ENDBRANCH   4  21
TORSDOF 5
ENDMDL
MODEL 2
REMARK VINA RESULT:    -8.933      1.653      2.244
REMARK INTER + INTRA:         -12.151
REMARK INTER:                 -11.982
REMARK INTRA:                  -0.169
REMARK UNBOUND:                -0.607
REMARK SMILES Cc1cc(NC(=O)NC2CCN([C@@H](C)c3ccccc3)CC2)nn1-c1ccc(F)cc1F
REMARK SMILES IDX 5 1 6 2 7 3 8 4 4 7 2 8 3 9 24 10 23 11 1 12 25 13 26 14
REMARK SMILES IDX 31 15 27 16 30 17 28 18 32 19 29 20 9 21 10 22 22 23 11 24
REMARK SMILES IDX 21 25 12 26 13 27 14 28 15 29 16 30 20 31 17 32 19 33 18 34
REMARK H PARENT 5 5 8 6
ROOT
ATOM      1  N   UNL     1      -0.224  44.575  53.166  1.00  0.00    -0.291 N 
ATOM      2  C   UNL     1       1.109  44.846  52.708  1.00  0.00     0.320 C 
ATOM      3  O   UNL     1       1.935  45.435  53.458  1.00  0.00    -0.248 OA
ATOM      4  N   UNL     1       1.486  44.479  51.373  1.00  0.00    -0.335 N 
ATOM      5  H   UNL     1      -0.935  44.280  52.459  1.00  0.00     0.173 HD
ATOM      6  H   UNL     1       0.786  43.974  50.784  1.00  0.00     0.165 HD
ENDROOT
BRANCH   1   7
ATOM      7  C   UNL     1      -0.668  44.741  54.520  1.00  0.00     0.156 A 
ATOM      8  C   UNL     1      -1.652  44.516  56.449  1.00  0.00     0.043 A 
ATOM      9  C   UNL     1      -1.459  43.866  55.247  1.00  0.00     0.072 A 
ATOM     10  N   UNL     1      -0.996  45.700  56.421  1.00  0.00    -0.233 N 
ATOM     11  N   UNL     1      -0.411  45.849  55.241  1.00  0.00    -0.150 NA
ATOM     12  C   UNL     1      -2.491  44.000  57.579  1.00  0.00     0.067 C 
BRANCH  10  13
ATOM     13  C   UNL     1      -0.920  46.690  57.461  1.00  0.00     0.101 A 
ATOM     14  C   UNL     1      -2.003  47.554  57.706  1.00  0.00     0.034 A 
ATOM     15  C   UNL     1       0.222  46.772  58.278  1.00  0.00     0.151 A 
ATOM     16  C   UNL     1      -1.934  48.498  58.734  1.00  0.00     0.041 A 
ATOM     17  C   UNL     1       0.287  47.722  59.303  1.00  0.00     0.080 A 
ATOM     18  C   UNL     1      -0.789  48.585  59.530  1.00  0.00     0.126 A 
ATOM     19  F   UNL     1       1.279  45.950  58.067  1.00  0.00    -0.205 F 
ATOM     20  F   UNL     1      -0.724  49.503  60.528  1.00  0.00    -0.207 F 
ENDBRANCH  10  13
ENDBRANCH   1   7
BRANCH   4  21
ATOM     21  C   UNL     1       2.814  44.780  50.824  1.00  0.00     0.086 C 
ATOM     22  C   UNL     1       3.834  43.692  51.232  1.00  0.00     0.040 C 
ATOM     23  C   UNL     1       3.262  46.185  51.281  1.00  0.00     0.040 C 
ATOM     24  C   UNL     1       4.598  44.103  52.494  1.00  0.00     0.087 C 
ATOM     25  C   UNL     1       4.792  46.293  51.327  1.00  0.00     0.087 C 
ATOM     26  N   UNL     1       5.420  45.323  52.272  1.00  0.00    -0.296 NA
BRANCH  26  27
ATOM     27  C   UNL     1       5.844  45.973  53.547  1.00  0.00     0.083 C 
ATOM     28  C   UNL     1       5.710  45.037  54.765  1.00  0.00     0.030 C 
BRANCH  27  29
ATOM     29  C   UNL     1       7.297  46.412  53.467  1.00  0.00    -0.031 A 
ATOM     30  C   UNL     1       8.094  46.056  52.363  1.00  0.00     0.005 A 
ATOM     31  C   UNL     1       7.873  47.145  54.519  1.00  0.00     0.005 A 
ATOM     32  C   UNL     1       9.433  46.449  52.304  1.00  0.00     0.000 A 
ATOM     33  C   UNL     1       9.216  47.533  54.456  1.00  0.00     0.000 A 
ATOM     34  C   UNL     1       9.994  47.189  53.348  1.00  0.00     0.000 A 
ENDBRANCH  27  29
ENDBRANCH  26  27
ENDBRANCH   4  21
TORSDOF 5
ENDMDL
MODEL 3
REMARK VINA RESULT:    -8.576      4.000      5.510
REMARK INTER + INTRA:         -11.689
REMARK INTER:                 -11.650
REMARK INTRA:                  -0.039
REMARK UNBOUND:                -0.607
REMARK SMILES Cc1cc(NC(=O)NC2CCN([C@@H](C)c3ccccc3)CC2)nn1-c1ccc(F)cc1F
REMARK SMILES IDX 5 1 6 2 7 3 8 4 4 7 2 8 3 9 24 10 23 11 1 12 25 13 26 14
REMARK SMILES IDX 31 15 27 16 30 17 28 18 32 19 29 20 9 21 10 22 22 23 11 24
REMARK SMILES IDX 21 25 12 26 13 27 14 28 15 29 16 30 20 31 17 32 19 33 18 34
REMARK H PARENT 5 5 8 6
ROOT
ATOM      1  N   UNL     1       0.796  45.371  56.257  1.00  0.00    -0.291 N 
ATOM      2  C   UNL     1       2.063  45.401  55.581  1.00  0.00     0.320 C 
ATOM      3  O   UNL     1       2.195  44.862  54.448  1.00  0.00    -0.248 OA
ATOM      4  N   UNL     1       3.192  46.011  56.222  1.00  0.00    -0.335 N 
ATOM      5  H   UNL     1       0.773  45.637  57.267  1.00  0.00     0.173 HD
ATOM      6  H   UNL     1       3.045  46.467  57.151  1.00  0.00     0.165 HD
ENDROOT
BRANCH   1   7
ATOM      7  C   UNL     1      -0.434  44.942  55.658  1.00  0.00     0.156 A 
ATOM      8  C   UNL     1      -2.443  44.180  55.305  1.00  0.00     0.043 A 
ATOM      9  C   UNL     1      -1.592  44.566  56.320  1.00  0.00     0.072 A 
ATOM     10  N   UNL     1      -1.812  44.338  54.117  1.00  0.00    -0.233 N 
ATOM     11  N   UNL     1      -0.583  44.784  54.329  1.00  0.00    -0.150 NA
ATOM     12  C   UNL     1      -3.825  43.637  55.504  1.00  0.00     0.067 C 
BRANCH  10  13
ATOM     13  C   UNL     1      -2.329  44.067  52.803  1.00  0.00     0.101 A 
ATOM     14  C   UNL     1      -3.243  44.948  52.198  1.00  0.00     0.034 A 
ATOM     15  C   UNL     1      -1.887  42.939  52.087  1.00  0.00     0.151 A 
ATOM     16  C   UNL     1      -3.724  44.692  50.910  1.00  0.00     0.041 A 
ATOM     17  C   UNL     1      -2.374  42.686  50.800  1.00  0.00     0.080 A 
ATOM     18  C   UNL     1      -3.293  43.561  50.213  1.00  0.00     0.126 A 
ATOM     19  F   UNL     1      -1.003  42.074  52.644  1.00  0.00    -0.205 F 
ATOM     20  F   UNL     1      -3.761  43.315  48.964  1.00  0.00    -0.207 F 
ENDBRANCH  10  13
ENDBRANCH   1   7
BRANCH   4  21
ATOM     21  C   UNL     1       4.527  46.024  55.612  1.00  0.00     0.086 C 
ATOM     22  C   UNL     1       4.687  47.240  54.671  1.00  0.00     0.040 C 
ATOM     23  C   UNL     1       4.775  44.691  54.872  1.00  0.00     0.040 C 
ATOM     24  C   UNL     1       4.362  46.859  53.223  1.00  0.00     0.087 C 
ATOM     25  C   UNL     1       5.775  44.871  53.722  1.00  0.00     0.087 C 
ATOM     26  N   UNL     1       5.311  45.845  52.689  1.00  0.00    -0.296 NA
BRANCH  26  27
ATOM     27  C   UNL     1       4.800  45.165  51.463  1.00  0.00     0.083 C 
ATOM     28  C   UNL     1       4.010  46.116  50.542  1.00  0.00     0.030 C 
BRANCH  27  29
ATOM     29  C   UNL     1       5.949  44.593  50.650  1.00  0.00    -0.031 A 
ATOM     30  C   UNL     1       7.126  45.338  50.448  1.00  0.00     0.005 A 
ATOM     31  C   UNL     1       5.832  43.325  50.053  1.00  0.00     0.005 A 
ATOM     32  C   UNL     1       8.172  44.812  49.685  1.00  0.00     0.000 A 
ATOM     33  C   UNL     1       6.881  42.805  49.288  1.00  0.00     0.000 A 
ATOM     34  C   UNL     1       8.051  43.546  49.107  1.00  0.00     0.000 A 
ENDBRANCH  27  29
ENDBRANCH  26  27
ENDBRANCH   4  21
TORSDOF 5
ENDMDL
MODEL 4
REMARK VINA RESULT:    -8.152      3.360      9.831
REMARK INTER + INTRA:         -11.141
REMARK INTER:                 -11.399
REMARK INTRA:                   0.258
REMARK UNBOUND:                -0.607
REMARK SMILES Cc1cc(NC(=O)NC2CCN([C@@H](C)c3ccccc3)CC2)nn1-c1ccc(F)cc1F
REMARK SMILES IDX 5 1 6 2 7 3 8 4 4 7 2 8 3 9 24 10 23 11 1 12 25 13 26 14
REMARK SMILES IDX 31 15 27 16 30 17 28 18 32 19 29 20 9 21 10 22 22 23 11 24
REMARK SMILES IDX 21 25 12 26 13 27 14 28 15 29 16 30 20 31 17 32 19 33 18 34
REMARK H PARENT 5 5 8 6
ROOT
ATOM      1  N   UNL     1       2.340  46.387  52.082  1.00  0.00    -0.291 N 
ATOM      2  C   UNL     1       1.334  45.369  52.198  1.00  0.00     0.320 C 
ATOM      3  O   UNL     1       1.593  44.176  51.878  1.00  0.00    -0.248 OA
ATOM      4  N   UNL     1       0.017  45.723  52.642  1.00  0.00    -0.335 N 
ATOM      5  H   UNL     1       2.037  47.385  52.154  1.00  0.00     0.173 HD
ATOM      6  H   UNL     1      -0.161  46.715  52.920  1.00  0.00     0.165 HD
ENDROOT
BRANCH   1   7
ATOM      7  C   UNL     1       3.725  46.134  51.812  1.00  0.00     0.156 A 
ATOM      8  C   UNL     1       5.604  45.362  51.027  1.00  0.00     0.043 A 
ATOM      9  C   UNL     1       4.241  45.317  50.818  1.00  0.00     0.072 A 
ATOM     10  N   UNL     1       5.862  46.173  52.081  1.00  0.00    -0.233 N 
ATOM     11  N   UNL     1       4.719  46.630  52.572  1.00  0.00    -0.150 NA
ATOM     12  C   UNL     1       6.620  44.597  50.235  1.00  0.00     0.067 C 
BRANCH  10  13
ATOM     13  C   UNL     1       7.143  46.512  52.639  1.00  0.00     0.101 A 
ATOM     14  C   UNL     1       8.226  46.835  51.801  1.00  0.00     0.034 A 
ATOM     15  C   UNL     1       7.314  46.571  54.034  1.00  0.00     0.151 A 
ATOM     16  C   UNL     1       9.462  47.187  52.349  1.00  0.00     0.041 A 
ATOM     17  C   UNL     1       8.555  46.920  54.577  1.00  0.00     0.080 A 
ATOM     18  C   UNL     1       9.629  47.226  53.735  1.00  0.00     0.126 A 
ATOM     19  F   UNL     1       6.287  46.268  54.867  1.00  0.00    -0.205 F 
ATOM     20  F   UNL     1      10.830  47.568  54.265  1.00  0.00    -0.207 F 
ENDBRANCH  10  13
ENDBRANCH   1   7
BRANCH   4  21
ATOM     21  C   UNL     1      -1.072  44.742  52.727  1.00  0.00     0.086 C 
ATOM     22  C   UNL     1      -2.442  45.451  52.817  1.00  0.00     0.040 C 
ATOM     23  C   UNL     1      -0.834  43.801  53.928  1.00  0.00     0.040 C 
ATOM     24  C   UNL     1      -2.881  45.611  54.276  1.00  0.00     0.087 C 
ATOM     25  C   UNL     1      -2.157  43.237  54.463  1.00  0.00     0.087 C 
ATOM     26  N   UNL     1      -3.096  44.296  54.938  1.00  0.00    -0.296 NA
BRANCH  26  27
ATOM     27  C   UNL     1      -3.124  44.398  56.427  1.00  0.00     0.083 C 
ATOM     28  C   UNL     1      -2.954  43.031  57.120  1.00  0.00     0.030 C 
BRANCH  27  29
ATOM     29  C   UNL     1      -2.009  45.303  56.924  1.00  0.00    -0.031 A 
ATOM     30  C   UNL     1      -0.674  44.858  56.931  1.00  0.00     0.005 A 
ATOM     31  C   UNL     1      -2.306  46.583  57.423  1.00  0.00     0.005 A 
ATOM     32  C   UNL     1       0.344  45.689  57.404  1.00  0.00     0.000 A 
ATOM     33  C   UNL     1      -1.283  47.410  57.899  1.00  0.00     0.000 A 
ATOM     34  C   UNL     1       0.041  46.965  57.886  1.00  0.00     0.000 A 
ENDBRANCH  27  29
ENDBRANCH  26  27
ENDBRANCH   4  21
TORSDOF 5
ENDMDL
MODEL 5
REMARK VINA RESULT:    -8.054      8.447     11.787
REMARK INTER + INTRA:         -11.015
REMARK INTER:                 -10.235
REMARK INTRA:                  -0.780
REMARK UNBOUND:                -0.607
REMARK SMILES Cc1cc(NC(=O)NC2CCN([C@@H](C)c3ccccc3)CC2)nn1-c1ccc(F)cc1F
REMARK SMILES IDX 5 1 6 2 7 3 8 4 4 7 2 8 3 9 24 10 23 11 1 12 25 13 26 14
REMARK SMILES IDX 31 15 27 16 30 17 28 18 32 19 29 20 9 21 10 22 22 23 11 24
REMARK SMILES IDX 21 25 12 26 13 27 14 28 15 29 16 30 20 31 17 32 19 33 18 34
REMARK H PARENT 5 5 8 6
ROOT
ATOM      1  N   UNL     1       3.415  39.740  47.046  1.00  0.00    -0.291 N 
ATOM      2  C   UNL     1       3.654  40.017  48.435  1.00  0.00     0.320 C 
ATOM      3  O   UNL     1       3.147  39.284  49.328  1.00  0.00    -0.248 OA
ATOM      4  N   UNL     1       4.439  41.159  48.804  1.00  0.00    -0.335 N 
ATOM      5  H   UNL     1       3.670  40.476  46.349  1.00  0.00     0.173 HD
ATOM      6  H   UNL     1       4.862  41.735  48.041  1.00  0.00     0.165 HD
ENDROOT
BRANCH   1   7
ATOM      7  C   UNL     1       2.792  38.548  46.550  1.00  0.00     0.156 A 
ATOM      8  C   UNL     1       2.309  36.737  45.442  1.00  0.00     0.043 A 
ATOM      9  C   UNL     1       3.319  37.659  45.627  1.00  0.00     0.072 A 
ATOM     10  N   UNL     1       1.258  37.070  46.228  1.00  0.00    -0.233 N 
ATOM     11  N   UNL     1       1.542  38.182  46.891  1.00  0.00    -0.150 NA
ATOM     12  C   UNL     1       2.365  35.582  44.489  1.00  0.00     0.067 C 
BRANCH  10  13
ATOM     13  C   UNL     1       0.002  36.382  46.358  1.00  0.00     0.101 A 
ATOM     14  C   UNL     1      -1.075  36.693  45.508  1.00  0.00     0.034 A 
ATOM     15  C   UNL     1      -0.147  35.354  47.307  1.00  0.00     0.151 A 
ATOM     16  C   UNL     1      -2.286  36.005  45.622  1.00  0.00     0.041 A 
ATOM     17  C   UNL     1      -1.363  34.671  47.419  1.00  0.00     0.080 A 
ATOM     18  C   UNL     1      -2.432  34.997  46.579  1.00  0.00     0.126 A 
ATOM     19  F   UNL     1       0.875  35.031  48.137  1.00  0.00    -0.205 F 
ATOM     20  F   UNL     1      -3.608  34.330  46.687  1.00  0.00    -0.207 F 
ENDBRANCH  10  13
ENDBRANCH   1   7
BRANCH   4  21
ATOM     21  C   UNL     1       4.671  41.530  50.205  1.00  0.00     0.086 C 
ATOM     22  C   UNL     1       3.391  42.127  50.833  1.00  0.00     0.040 C 
ATOM     23  C   UNL     1       5.863  42.509  50.295  1.00  0.00     0.040 C 
ATOM     24  C   UNL     1       3.398  43.657  50.743  1.00  0.00     0.087 C 
ATOM     25  C   UNL     1       5.748  43.413  51.530  1.00  0.00     0.087 C 
ATOM     26  N   UNL     1       4.513  44.253  51.528  1.00  0.00    -0.296 NA
BRANCH  26  27
ATOM     27  C   UNL     1       4.794  45.668  51.147  1.00  0.00     0.083 C 
ATOM     28  C   UNL     1       3.637  46.622  51.507  1.00  0.00     0.030 C 
BRANCH  27  29
ATOM     29  C   UNL     1       6.040  46.176  51.854  1.00  0.00    -0.031 A 
ATOM     30  C   UNL     1       6.004  46.504  53.222  1.00  0.00     0.005 A 
ATOM     31  C   UNL     1       7.234  46.364  51.137  1.00  0.00     0.005 A 
ATOM     32  C   UNL     1       7.149  46.985  53.863  1.00  0.00     0.000 A 
ATOM     33  C   UNL     1       8.376  46.850  51.782  1.00  0.00     0.000 A 
ATOM     34  C   UNL     1       8.335  47.157  53.144  1.00  0.00     0.000 A 
ENDBRANCH  27  29
ENDBRANCH  26  27
ENDBRANCH   4  21
TORSDOF 5
ENDMDL
