MODEL 1
REMARK VINA RESULT:    -8.643      0.000      0.000
REMARK INTER + INTRA:         -11.931
REMARK INTER:                 -11.169
REMARK INTRA:                  -0.762
REMARK UNBOUND:                -0.762
REMARK SMILES C[C@H](NC(=O)c1ccc(Oc2ccc(Cl)cc2)cc1)[C@@H]1CCNC1
REMARK SMILES IDX 6 1 7 2 8 3 9 4 18 5 19 6 4 7 3 8 5 9 2 11 1 12 20 13 21 14
REMARK SMILES IDX 24 15 22 16 23 17 10 19 11 20 12 21 17 22 13 23 16 24 14 25
REMARK SMILES IDX 15 26
REMARK H PARENT 3 10 23 18
ROOT
ATOM      1  C   UNL     1       3.460  43.913  51.264  1.00  0.00     0.040 A 
ATOM      2  C   UNL     1       4.706  43.265  51.198  1.00  0.00     0.017 A 
ATOM      3  C   UNL     1       5.887  44.007  51.096  1.00  0.00     0.048 A 
ATOM      4  C   UNL     1       5.846  45.404  51.059  1.00  0.00     0.127 A 
ATOM      5  C   UNL     1       4.602  46.056  51.095  1.00  0.00     0.048 A 
ATOM      6  C   UNL     1       3.420  45.317  51.201  1.00  0.00     0.017 A 
ENDROOT
BRANCH   1   7
ATOM      7  C   UNL     1       2.212  43.118  51.359  1.00  0.00     0.251 C 
ATOM      8  N   UNL     1       1.338  43.251  52.493  1.00  0.00    -0.349 N 
ATOM      9  O   UNL     1       1.924  42.306  50.437  1.00  0.00    -0.269 OA
ATOM     10  H   UNL     1       1.719  43.678  53.364  1.00  0.00     0.164 HD
BRANCH   8  11
ATOM     11  C   UNL     1      -0.046  42.755  52.497  1.00  0.00     0.083 C 
ATOM     12  C   UNL     1      -0.163  41.551  53.436  1.00  0.00     0.031 C 
BRANCH  11  13
ATOM     13  C   UNL     1      -1.055  43.877  52.867  1.00  0.00     0.026 C 
ATOM     14  C   UNL     1      -2.400  43.727  52.156  1.00  0.00     0.022 C 
ATOM     15  C   UNL     1      -0.589  45.303  52.540  1.00  0.00     0.086 C 
ATOM     16  C   UNL     1      -2.589  45.024  51.386  1.00  0.00     0.081 C 
ATOM     17  N   UNL     1      -1.734  46.034  52.002  1.00  0.00    -0.316 NA
ATOM     18  H   UNL     1      -2.259  46.445  52.809  1.00  0.00     0.122 HD
ENDBRANCH  11  13
ENDBRANCH   8  11
ENDBRANCH   1   7
BRANCH   4  19
ATOM     19  O   UNL     1       7.051  46.110  50.932  1.00  0.00    -0.457 OA
BRANCH  19  20
ATOM     20  C   UNL     1       7.919  46.431  51.986  1.00  0.00     0.127 A 
ATOM     21  C   UNL     1       7.371  46.776  53.228  1.00  0.00     0.048 A 
ATOM     22  C   UNL     1       9.317  46.462  51.817  1.00  0.00     0.048 A 
ATOM     23  C   UNL     1       8.204  47.113  54.300  1.00  0.00     0.024 A 
ATOM     24  C   UNL     1      10.148  46.797  52.890  1.00  0.00     0.024 A 
ATOM     25  C   UNL     1       9.593  47.121  54.133  1.00  0.00     0.041 A 
ATOM     26  Cl  UNL     1      10.636  47.535  55.482  1.00  0.00    -0.084 Cl
ENDBRANCH  19  20
ENDBRANCH   4  19
TORSDOF 5
ENDMDL
MODEL 2
REMARK VINA RESULT:    -8.536      1.418      2.075
REMARK INTER + INTRA:         -11.794
REMARK INTER:                 -11.028
REMARK INTRA:                  -0.766
REMARK UNBOUND:                -0.762
REMARK SMILES C[C@H](NC(=O)c1ccc(Oc2ccc(Cl)cc2)cc1)[C@@H]1CCNC1
REMARK SMILES IDX 6 1 7 2 8 3 9 4 18 5 19 6 4 7 3 8 5 9 2 11 1 12 20 13 21 14
REMARK SMILES IDX 24 15 22 16 23 17 10 19 11 20 12 21 17 22 13 23 16 24 14 25
REMARK SMILES IDX 15 26
REMARK H PARENT 3 10 23 18
ROOT
ATOM      1  C   UNL     1       3.365  44.123  51.279  1.00  0.00     0.040 A 
ATOM      2  C   UNL     1       3.543  45.516  51.217  1.00  0.00     0.017 A 
ATOM      3  C   UNL     1       4.821  46.062  51.061  1.00  0.00     0.048 A 
ATOM      4  C   UNL     1       5.941  45.230  50.963  1.00  0.00     0.127 A 
ATOM      5  C   UNL     1       5.772  43.838  51.054  1.00  0.00     0.048 A 
ATOM      6  C   UNL     1       4.495  43.289  51.207  1.00  0.00     0.017 A 
ENDROOT
BRANCH   1   7
ATOM      7  C   UNL     1       2.008  43.553  51.458  1.00  0.00     0.251 C 
ATOM      8  N   UNL     1       1.422  43.442  52.766  1.00  0.00    -0.349 N 
ATOM      9  O   UNL     1       1.369  43.148  50.448  1.00  0.00    -0.269 OA
ATOM     10  H   UNL     1       2.051  43.491  53.597  1.00  0.00     0.164 HD
BRANCH   8  11
ATOM     11  C   UNL     1      -0.012  43.202  52.981  1.00  0.00     0.083 C 
ATOM     12  C   UNL     1      -0.227  41.780  53.509  1.00  0.00     0.031 C 
BRANCH  11  13
ATOM     13  C   UNL     1      -0.637  44.269  53.922  1.00  0.00     0.026 C 
ATOM     14  C   UNL     1       0.404  45.193  54.552  1.00  0.00     0.022 C 
ATOM     15  C   UNL     1      -1.435  43.703  55.105  1.00  0.00     0.086 C 
ATOM     16  C   UNL     1       0.219  45.036  56.052  1.00  0.00     0.081 C 
ATOM     17  N   UNL     1      -1.125  44.513  56.280  1.00  0.00    -0.316 NA
ATOM     18  H   UNL     1      -1.785  45.327  56.291  1.00  0.00     0.122 HD
ENDBRANCH  11  13
ENDBRANCH   8  11
ENDBRANCH   1   7
BRANCH   4  19
ATOM     19  O   UNL     1       7.207  45.818  50.832  1.00  0.00    -0.457 OA
BRANCH  19  20
ATOM     20  C   UNL     1       8.033  46.215  51.894  1.00  0.00     0.127 A 
ATOM     21  C   UNL     1       7.441  46.540  53.121  1.00  0.00     0.048 A 
ATOM     22  C   UNL     1       9.427  46.342  51.746  1.00  0.00     0.048 A 
ATOM     23  C   UNL     1       8.230  46.952  54.200  1.00  0.00     0.024 A 
ATOM     24  C   UNL     1      10.215  46.752  52.826  1.00  0.00     0.024 A 
ATOM     25  C   UNL     1       9.618  47.055  54.055  1.00  0.00     0.041 A 
ATOM     26  Cl  UNL     1      10.606  47.562  55.413  1.00  0.00    -0.084 Cl
ENDBRANCH  19  20
ENDBRANCH   4  19
TORSDOF 5
ENDMDL
MODEL 3
REMARK VINA RESULT:    -8.052      2.502      3.283
REMARK INTER + INTRA:         -11.167
REMARK INTER:                 -10.334
REMARK INTRA:                  -0.834
REMARK UNBOUND:                -0.762
REMARK SMILES C[C@H](NC(=O)c1ccc(Oc2ccc(Cl)cc2)cc1)[C@@H]1CCNC1
REMARK SMILES IDX 6 1 7 2 8 3 9 4 18 5 19 6 4 7 3 8 5 9 2 11 1 12 20 13 21 14
REMARK SMILES IDX 24 15 22 16 23 17 10 19 11 20 12 21 17 22 13 23 16 24 14 25
REMARK SMILES IDX 15 26
REMARK H PARENT 3 10 23 18
ROOT
ATOM      1  C   UNL     1       2.399  45.889  54.167  1.00  0.00     0.040 A 
ATOM      2  C   UNL     1       3.449  45.925  55.101  1.00  0.00     0.017 A 
ATOM      3  C   UNL     1       4.617  46.643  54.829  1.00  0.00     0.048 A 
ATOM      4  C   UNL     1       4.759  47.338  53.624  1.00  0.00     0.127 A 
ATOM      5  C   UNL     1       3.725  47.282  52.674  1.00  0.00     0.048 A 
ATOM      6  C   UNL     1       2.554  46.568  52.944  1.00  0.00     0.017 A 
ENDROOT
BRANCH   1   7
ATOM      7  C   UNL     1       1.169  45.114  54.457  1.00  0.00     0.251 C 
ATOM      8  N   UNL     1      -0.041  45.347  53.716  1.00  0.00    -0.349 N 
ATOM      9  O   UNL     1       1.185  44.250  55.376  1.00  0.00    -0.269 OA
ATOM     10  H   UNL     1      -0.133  46.241  53.186  1.00  0.00     0.164 HD
BRANCH   8  11
ATOM     11  C   UNL     1      -1.174  44.411  53.722  1.00  0.00     0.083 C 
ATOM     12  C   UNL     1      -2.491  45.190  53.790  1.00  0.00     0.031 C 
BRANCH  11  13
ATOM     13  C   UNL     1      -1.131  43.451  52.501  1.00  0.00     0.026 C 
ATOM     14  C   UNL     1       0.020  42.449  52.569  1.00  0.00     0.022 C 
ATOM     15  C   UNL     1      -0.979  44.142  51.138  1.00  0.00     0.086 C 
ATOM     16  C   UNL     1       0.824  42.681  51.301  1.00  0.00     0.081 C 
ATOM     17  N   UNL     1      -0.048  43.348  50.339  1.00  0.00    -0.316 NA
ATOM     18  H   UNL     1      -0.601  42.609  49.845  1.00  0.00     0.122 HD
ENDBRANCH  11  13
ENDBRANCH   8  11
ENDBRANCH   1   7
BRANCH   4  19
ATOM     19  O   UNL     1       5.956  48.027  53.380  1.00  0.00    -0.457 OA
BRANCH  19  20
ATOM     20  C   UNL     1       7.136  47.454  52.882  1.00  0.00     0.127 A 
ATOM     21  C   UNL     1       7.052  46.591  51.782  1.00  0.00     0.048 A 
ATOM     22  C   UNL     1       8.387  47.683  53.484  1.00  0.00     0.048 A 
ATOM     23  C   UNL     1       8.205  45.992  51.264  1.00  0.00     0.024 A 
ATOM     24  C   UNL     1       9.539  47.085  52.964  1.00  0.00     0.024 A 
ATOM     25  C   UNL     1       9.450  46.241  51.852  1.00  0.00     0.041 A 
ATOM     26  Cl  UNL     1      10.895  45.495  51.195  1.00  0.00    -0.084 Cl
ENDBRANCH  19  20
ENDBRANCH   4  19
TORSDOF 5
ENDMDL
MODEL 4
REMARK VINA RESULT:    -8.019      2.687      3.316
REMARK INTER + INTRA:         -11.125
REMARK INTER:                 -10.401
REMARK INTRA:                  -0.725
REMARK UNBOUND:                -0.762
REMARK SMILES C[C@H](NC(=O)c1ccc(Oc2ccc(Cl)cc2)cc1)[C@@H]1CCNC1
REMARK SMILES IDX 6 1 7 2 8 3 9 4 18 5 19 6 4 7 3 8 5 9 2 11 1 12 20 13 21 14
REMARK SMILES IDX 24 15 22 16 23 17 10 19 11 20 12 21 17 22 13 23 16 24 14 25
REMARK SMILES IDX 15 26
REMARK H PARENT 3 10 23 18
ROOT
ATOM      1  C   UNL     1       2.374  45.433  52.621  1.00  0.00     0.040 A 
ATOM      2  C   UNL     1       2.847  46.693  52.212  1.00  0.00     0.017 A 
ATOM      3  C   UNL     1       4.191  46.869  51.873  1.00  0.00     0.048 A 
ATOM      4  C   UNL     1       5.086  45.796  51.935  1.00  0.00     0.127 A 
ATOM      5  C   UNL     1       4.625  44.542  52.371  1.00  0.00     0.048 A 
ATOM      6  C   UNL     1       3.280  44.362  52.707  1.00  0.00     0.017 A 
ENDROOT
BRANCH   1   7
ATOM      7  C   UNL     1       0.949  45.257  52.992  1.00  0.00     0.251 C 
ATOM      8  N   UNL     1       0.583  44.669  54.252  1.00  0.00    -0.349 N 
ATOM      9  O   UNL     1       0.050  45.617  52.183  1.00  0.00    -0.269 OA
ATOM     10  H   UNL     1       1.300  44.112  54.766  1.00  0.00     0.164 HD
BRANCH   8  11
ATOM     11  C   UNL     1      -0.772  44.765  54.815  1.00  0.00     0.083 C 
ATOM     12  C   UNL     1      -1.594  43.540  54.403  1.00  0.00     0.031 C 
BRANCH  11  13
ATOM     13  C   UNL     1      -0.740  44.948  56.358  1.00  0.00     0.026 C 
ATOM     14  C   UNL     1      -1.734  45.996  56.856  1.00  0.00     0.022 C 
ATOM     15  C   UNL     1       0.617  45.382  56.932  1.00  0.00     0.086 C 
ATOM     16  C   UNL     1      -0.893  47.020  57.598  1.00  0.00     0.081 C 
ATOM     17  N   UNL     1       0.362  46.377  57.971  1.00  0.00    -0.316 NA
ATOM     18  H   UNL     1       0.203  45.865  58.871  1.00  0.00     0.122 HD
ENDBRANCH  11  13
ENDBRANCH   8  11
ENDBRANCH   1   7
BRANCH   4  19
ATOM     19  O   UNL     1       6.431  46.021  51.609  1.00  0.00    -0.457 OA
BRANCH  19  20
ATOM     20  C   UNL     1       7.434  46.401  52.513  1.00  0.00     0.127 A 
ATOM     21  C   UNL     1       8.770  46.348  52.098  1.00  0.00     0.048 A 
ATOM     22  C   UNL     1       7.137  46.786  53.835  1.00  0.00     0.048 A 
ATOM     23  C   UNL     1       9.799  46.709  52.976  1.00  0.00     0.024 A 
ATOM     24  C   UNL     1       8.166  47.148  54.710  1.00  0.00     0.024 A 
ATOM     25  C   UNL     1       9.497  47.112  54.281  1.00  0.00     0.041 A 
ATOM     26  Cl  UNL     1      10.788  47.572  55.376  1.00  0.00    -0.084 Cl
ENDBRANCH  19  20
ENDBRANCH   4  19
TORSDOF 5
ENDMDL
MODEL 5
REMARK VINA RESULT:    -7.862      5.244      8.904
REMARK INTER + INTRA:         -10.921
REMARK INTER:                 -10.171
REMARK INTRA:                  -0.750
REMARK UNBOUND:                -0.762
REMARK SMILES C[C@H](NC(=O)c1ccc(Oc2ccc(Cl)cc2)cc1)[C@@H]1CCNC1
REMARK SMILES IDX 6 1 7 2 8 3 9 4 18 5 19 6 4 7 3 8 5 9 2 11 1 12 20 13 21 14
REMARK SMILES IDX 24 15 22 16 23 17 10 19 11 20 12 21 17 22 13 23 16 24 14 25
REMARK SMILES IDX 15 26
REMARK H PARENT 3 10 23 18
ROOT
ATOM      1  C   UNL     1       5.210  43.882  51.237  1.00  0.00     0.040 A 
ATOM      2  C   UNL     1       4.210  42.899  51.335  1.00  0.00     0.017 A 
ATOM      3  C   UNL     1       4.197  41.811  50.458  1.00  0.00     0.048 A 
ATOM      4  C   UNL     1       5.178  41.684  49.469  1.00  0.00     0.127 A 
ATOM      5  C   UNL     1       6.162  42.679  49.348  1.00  0.00     0.048 A 
ATOM      6  C   UNL     1       6.181  43.766  50.227  1.00  0.00     0.017 A 
ENDROOT
BRANCH   1   7
ATOM      7  C   UNL     1       5.209  45.040  52.164  1.00  0.00     0.251 C 
ATOM      8  N   UNL     1       6.444  45.618  52.621  1.00  0.00    -0.349 N 
ATOM      9  O   UNL     1       4.110  45.511  52.565  1.00  0.00    -0.269 OA
ATOM     10  H   UNL     1       7.317  45.054  52.535  1.00  0.00     0.164 HD
BRANCH   8  11
ATOM     11  C   UNL     1       6.518  46.940  53.259  1.00  0.00     0.083 C 
ATOM     12  C   UNL     1       6.188  46.817  54.749  1.00  0.00     0.031 C 
BRANCH  11  13
ATOM     13  C   UNL     1       7.900  47.612  53.026  1.00  0.00     0.026 C 
ATOM     14  C   UNL     1       8.670  47.003  51.855  1.00  0.00     0.022 C 
ATOM     15  C   UNL     1       8.865  47.541  54.218  1.00  0.00     0.086 C 
ATOM     16  C   UNL     1       9.985  46.528  52.449  1.00  0.00     0.081 C 
ATOM     17  N   UNL     1      10.200  47.260  53.694  1.00  0.00    -0.316 NA
ATOM     18  H   UNL     1      10.647  48.175  53.452  1.00  0.00     0.122 HD
ENDBRANCH  11  13
ENDBRANCH   8  11
ENDBRANCH   1   7
BRANCH   4  19
ATOM     19  O   UNL     1       5.115  40.590  48.593  1.00  0.00    -0.457 OA
BRANCH  19  20
ATOM     20  C   UNL     1       4.376  40.545  47.402  1.00  0.00     0.127 A 
ATOM     21  C   UNL     1       3.326  39.625  47.296  1.00  0.00     0.048 A 
ATOM     22  C   UNL     1       4.690  41.362  46.299  1.00  0.00     0.048 A 
ATOM     23  C   UNL     1       2.573  39.542  46.119  1.00  0.00     0.024 A 
ATOM     24  C   UNL     1       3.936  41.280  45.125  1.00  0.00     0.024 A 
ATOM     25  C   UNL     1       2.875  40.372  45.034  1.00  0.00     0.041 A 
ATOM     26  Cl  UNL     1       1.924  40.273  43.563  1.00  0.00    -0.084 Cl
ENDBRANCH  19  20
ENDBRANCH   4  19
TORSDOF 5
ENDMDL
