MODEL 1
REMARK VINA RESULT:    -8.377      0.000      0.000
REMARK INTER + INTRA:         -10.867
REMARK INTER:                 -10.336
REMARK INTRA:                  -0.532
REMARK UNBOUND:                -0.532
REMARK SMILES Cc1cccc(N(C)C(=O)c2cc(C)n(C(C)(C)C)n2)c1C
REMARK SMILES IDX 9 1 10 2 11 3 13 4 12 5 15 6 20 7 14 8 16 9 17 10 18 11
REMARK SMILES IDX 19 12 7 13 8 14 6 15 5 16 21 17 4 18 2 19 3 20 22 21 1 22
REMARK H PARENT
ROOT
ATOM      1  C   UNL     1       5.266  45.152  54.007  1.00  0.00     0.278 C 
ATOM      2  O   UNL     1       5.752  44.628  55.046  1.00  0.00    -0.267 OA
ENDROOT
BRANCH   1   3
ATOM      3  C   UNL     1       4.153  44.465  53.319  1.00  0.00     0.151 A 
ATOM      4  C   UNL     1       2.972  43.237  51.955  1.00  0.00     0.037 A 
ATOM      5  C   UNL     1       4.268  43.631  52.226  1.00  0.00     0.059 A 
ATOM      6  N   UNL     1       2.134  43.796  52.873  1.00  0.00    -0.264 N 
ATOM      7  N   UNL     1       2.863  44.549  53.686  1.00  0.00    -0.167 NA
ATOM      8  C   UNL     1       2.608  42.292  50.849  1.00  0.00     0.066 C 
BRANCH   6   9
ATOM      9  C   UNL     1       0.653  43.739  52.967  1.00  0.00     0.055 C 
ATOM     10  C   UNL     1       0.167  44.634  54.133  1.00  0.00     0.036 C 
ATOM     11  C   UNL     1       0.161  42.301  53.245  1.00  0.00     0.036 C 
ATOM     12  C   UNL     1       0.035  44.274  51.663  1.00  0.00     0.036 C 
ENDBRANCH   6   9
ENDBRANCH   1   3
BRANCH   1  13
ATOM     13  N   UNL     1       5.789  46.410  53.531  1.00  0.00    -0.310 N 
ATOM     14  C   UNL     1       4.885  47.546  53.339  1.00  0.00     0.153 C 
BRANCH  13  15
ATOM     15  C   UNL     1       7.206  46.657  53.512  1.00  0.00     0.047 A 
ATOM     16  C   UNL     1       7.799  47.276  54.619  1.00  0.00     0.026 A 
ATOM     17  C   UNL     1       8.002  46.263  52.409  1.00  0.00    -0.024 A 
ATOM     18  C   UNL     1       9.169  47.525  54.640  1.00  0.00     0.002 A 
ATOM     19  C   UNL     1       9.391  46.558  52.420  1.00  0.00    -0.046 A 
ATOM     20  C   UNL     1       9.960  47.171  53.548  1.00  0.00     0.004 A 
ATOM     21  C   UNL     1       7.377  45.556  51.230  1.00  0.00     0.047 C 
ATOM     22  C   UNL     1      10.287  46.178  51.269  1.00  0.00     0.044 C 
ENDBRANCH  13  15
ENDBRANCH   1  13
TORSDOF 4
ENDMDL
MODEL 2
REMARK VINA RESULT:    -8.099      0.849      2.002
REMARK INTER + INTRA:         -10.524
REMARK INTER:                 -10.102
REMARK INTRA:                  -0.422
REMARK UNBOUND:                -0.532
REMARK SMILES Cc1cccc(N(C)C(=O)c2cc(C)n(C(C)(C)C)n2)c1C
REMARK SMILES IDX 9 1 10 2 11 3 13 4 12 5 15 6 20 7 14 8 16 9 17 10 18 11
REMARK SMILES IDX 19 12 7 13 8 14 6 15 5 16 21 17 4 18 2 19 3 20 22 21 1 22
REMARK H PARENT
ROOT
ATOM      1  C   UNL     1       5.186  45.314  54.305  1.00  0.00     0.278 C 
ATOM      2  O   UNL     1       5.959  44.575  54.972  1.00  0.00    -0.267 OA
ENDROOT
BRANCH   1   3
ATOM      3  C   UNL     1       3.744  44.991  54.275  1.00  0.00     0.151 A 
ATOM      4  C   UNL     1       1.628  44.805  54.775  1.00  0.00     0.037 A 
ATOM      5  C   UNL     1       2.824  45.302  55.254  1.00  0.00     0.059 A 
ATOM      6  N   UNL     1       1.835  44.251  53.547  1.00  0.00    -0.264 N 
ATOM      7  N   UNL     1       3.126  44.359  53.263  1.00  0.00    -0.167 NA
ATOM      8  C   UNL     1       0.324  44.937  55.505  1.00  0.00     0.066 C 
BRANCH   6   9
ATOM      9  C   UNL     1       0.890  43.526  52.660  1.00  0.00     0.055 C 
ATOM     10  C   UNL     1       1.638  43.010  51.407  1.00  0.00     0.036 C 
ATOM     11  C   UNL     1      -0.250  44.449  52.177  1.00  0.00     0.036 C 
ATOM     12  C   UNL     1       0.314  42.310  53.409  1.00  0.00     0.036 C 
ENDBRANCH   6   9
ENDBRANCH   1   3
BRANCH   1  13
ATOM     13  N   UNL     1       5.719  46.461  53.610  1.00  0.00    -0.310 N 
ATOM     14  C   UNL     1       4.825  47.553  53.218  1.00  0.00     0.153 C 
BRANCH  13  15
ATOM     15  C   UNL     1       7.138  46.687  53.546  1.00  0.00     0.047 A 
ATOM     16  C   UNL     1       7.768  47.340  54.612  1.00  0.00     0.026 A 
ATOM     17  C   UNL     1       7.900  46.241  52.438  1.00  0.00    -0.024 A 
ATOM     18  C   UNL     1       9.141  47.570  54.588  1.00  0.00     0.002 A 
ATOM     19  C   UNL     1       9.293  46.516  52.402  1.00  0.00    -0.046 A 
ATOM     20  C   UNL     1       9.899  47.163  53.492  1.00  0.00     0.004 A 
ATOM     21  C   UNL     1       7.235  45.498  51.304  1.00  0.00     0.047 C 
ATOM     22  C   UNL     1      10.153  46.080  51.244  1.00  0.00     0.044 C 
ENDBRANCH  13  15
ENDBRANCH   1  13
TORSDOF 4
ENDMDL
MODEL 3
REMARK VINA RESULT:    -7.851      1.545      2.975
REMARK INTER + INTRA:         -10.219
REMARK INTER:                  -9.620
REMARK INTRA:                  -0.598
REMARK UNBOUND:                -0.532
REMARK SMILES Cc1cccc(N(C)C(=O)c2cc(C)n(C(C)(C)C)n2)c1C
REMARK SMILES IDX 9 1 10 2 11 3 13 4 12 5 15 6 20 7 14 8 16 9 17 10 18 11
REMARK SMILES IDX 19 12 7 13 8 14 6 15 5 16 21 17 4 18 2 19 3 20 22 21 1 22
REMARK H PARENT
ROOT
ATOM      1  C   UNL     1       4.282  46.409  54.415  1.00  0.00     0.278 C 
ATOM      2  O   UNL     1       4.387  47.655  54.581  1.00  0.00    -0.267 OA
ENDROOT
BRANCH   1   3
ATOM      3  C   UNL     1       2.932  45.813  54.345  1.00  0.00     0.151 A 
ATOM      4  C   UNL     1       0.935  45.083  54.839  1.00  0.00     0.037 A 
ATOM      5  C   UNL     1       2.046  45.688  55.394  1.00  0.00     0.059 A 
ATOM      6  N   UNL     1       1.152  44.889  53.508  1.00  0.00    -0.264 N 
ATOM      7  N   UNL     1       2.373  45.324  53.225  1.00  0.00    -0.167 NA
ATOM      8  C   UNL     1      -0.310  44.767  55.613  1.00  0.00     0.066 C 
BRANCH   6   9
ATOM      9  C   UNL     1       0.300  44.215  52.495  1.00  0.00     0.055 C 
ATOM     10  C   UNL     1      -0.991  45.040  52.264  1.00  0.00     0.036 C 
ATOM     11  C   UNL     1      -0.124  42.805  52.962  1.00  0.00     0.036 C 
ATOM     12  C   UNL     1       1.060  44.131  51.159  1.00  0.00     0.036 C 
ENDBRANCH   6   9
ENDBRANCH   1   3
BRANCH   1  13
ATOM     13  N   UNL     1       5.473  45.605  54.276  1.00  0.00    -0.310 N 
ATOM     14  C   UNL     1       5.738  44.530  55.234  1.00  0.00     0.153 C 
BRANCH  13  15
ATOM     15  C   UNL     1       6.252  45.648  53.069  1.00  0.00     0.047 A 
ATOM     16  C   UNL     1       5.752  45.026  51.918  1.00  0.00     0.026 A 
ATOM     17  C   UNL     1       7.494  46.327  53.023  1.00  0.00    -0.024 A 
ATOM     18  C   UNL     1       6.475  45.053  50.728  1.00  0.00     0.002 A 
ATOM     19  C   UNL     1       8.245  46.315  51.818  1.00  0.00    -0.046 A 
ATOM     20  C   UNL     1       7.713  45.691  50.678  1.00  0.00     0.004 A 
ATOM     21  C   UNL     1       8.020  47.039  54.248  1.00  0.00     0.047 C 
ATOM     22  C   UNL     1       9.580  47.006  51.713  1.00  0.00     0.044 C 
ENDBRANCH  13  15
ENDBRANCH   1  13
TORSDOF 4
ENDMDL
MODEL 4
REMARK VINA RESULT:    -7.814      1.238      7.111
REMARK INTER + INTRA:         -10.174
REMARK INTER:                  -9.549
REMARK INTRA:                  -0.624
REMARK UNBOUND:                -0.532
REMARK SMILES Cc1cccc(N(C)C(=O)c2cc(C)n(C(C)(C)C)n2)c1C
REMARK SMILES IDX 9 1 10 2 11 3 13 4 12 5 15 6 20 7 14 8 16 9 17 10 18 11
REMARK SMILES IDX 19 12 7 13 8 14 6 15 5 16 21 17 4 18 2 19 3 20 22 21 1 22
REMARK H PARENT
ROOT
ATOM      1  C   UNL     1       4.815  45.557  54.463  1.00  0.00     0.278 C 
ATOM      2  O   UNL     1       4.703  44.937  55.556  1.00  0.00    -0.267 OA
ENDROOT
BRANCH   1   3
ATOM      3  C   UNL     1       6.143  46.076  54.075  1.00  0.00     0.151 A 
ATOM      4  C   UNL     1       8.103  47.037  54.085  1.00  0.00     0.037 A 
ATOM      5  C   UNL     1       7.006  46.782  54.886  1.00  0.00     0.059 A 
ATOM      6  N   UNL     1       7.901  46.475  52.861  1.00  0.00    -0.264 N 
ATOM      7  N   UNL     1       6.702  45.907  52.864  1.00  0.00    -0.167 NA
ATOM      8  C   UNL     1       9.322  47.770  54.560  1.00  0.00     0.066 C 
BRANCH   6   9
ATOM      9  C   UNL     1       8.744  46.532  51.639  1.00  0.00     0.055 C 
ATOM     10  C   UNL     1       8.128  45.636  50.536  1.00  0.00     0.036 C 
ATOM     11  C   UNL     1      10.173  46.016  51.916  1.00  0.00     0.036 C 
ATOM     12  C   UNL     1       8.788  47.977  51.113  1.00  0.00     0.036 C 
ENDBRANCH   6   9
ENDBRANCH   1   3
BRANCH   1  13
ATOM     13  N   UNL     1       3.659  45.723  53.615  1.00  0.00    -0.310 N 
ATOM     14  C   UNL     1       3.292  47.060  53.143  1.00  0.00     0.153 C 
BRANCH  13  15
ATOM     15  C   UNL     1       3.032  44.587  52.997  1.00  0.00     0.047 A 
ATOM     16  C   UNL     1       3.598  44.051  51.834  1.00  0.00     0.026 A 
ATOM     17  C   UNL     1       1.874  43.995  53.559  1.00  0.00    -0.024 A 
ATOM     18  C   UNL     1       3.022  42.946  51.211  1.00  0.00     0.002 A 
ATOM     19  C   UNL     1       1.269  42.895  52.896  1.00  0.00    -0.046 A 
ATOM     20  C   UNL     1       1.866  42.373  51.736  1.00  0.00     0.004 A 
ATOM     21  C   UNL     1       1.283  44.540  54.838  1.00  0.00     0.047 C 
ATOM     22  C   UNL     1       0.028  42.233  53.437  1.00  0.00     0.044 C 
ENDBRANCH  13  15
ENDBRANCH   1  13
TORSDOF 4
ENDMDL
MODEL 5
REMARK VINA RESULT:    -7.781      1.690      7.121
REMARK INTER + INTRA:         -10.133
REMARK INTER:                  -9.793
REMARK INTRA:                  -0.340
REMARK UNBOUND:                -0.532
REMARK SMILES Cc1cccc(N(C)C(=O)c2cc(C)n(C(C)(C)C)n2)c1C
REMARK SMILES IDX 9 1 10 2 11 3 13 4 12 5 15 6 20 7 14 8 16 9 17 10 18 11
REMARK SMILES IDX 19 12 7 13 8 14 6 15 5 16 21 17 4 18 2 19 3 20 22 21 1 22
REMARK H PARENT
ROOT
ATOM      1  C   UNL     1       3.867  46.314  53.228  1.00  0.00     0.278 C 
ATOM      2  O   UNL     1       3.063  47.238  52.929  1.00  0.00    -0.267 OA
ENDROOT
BRANCH   1   3
ATOM      3  C   UNL     1       5.167  46.247  52.528  1.00  0.00     0.151 A 
ATOM      4  C   UNL     1       6.782  45.735  51.153  1.00  0.00     0.037 A 
ATOM      5  C   UNL     1       5.467  45.439  51.452  1.00  0.00     0.059 A 
ATOM      6  N   UNL     1       7.226  46.703  52.004  1.00  0.00    -0.264 N 
ATOM      7  N   UNL     1       6.239  46.994  52.841  1.00  0.00    -0.167 NA
ATOM      8  C   UNL     1       7.536  45.104  50.020  1.00  0.00     0.066 C 
BRANCH   6   9
ATOM      9  C   UNL     1       8.577  47.304  52.137  1.00  0.00     0.055 C 
ATOM     10  C   UNL     1       8.741  48.457  51.115  1.00  0.00     0.036 C 
ATOM     11  C   UNL     1       9.686  46.267  51.852  1.00  0.00     0.036 C 
ATOM     12  C   UNL     1       8.741  47.890  53.551  1.00  0.00     0.036 C 
ENDBRANCH   6   9
ENDBRANCH   1   3
BRANCH   1  13
ATOM     13  N   UNL     1       3.511  45.364  54.255  1.00  0.00    -0.310 N 
ATOM     14  C   UNL     1       4.430  45.120  55.368  1.00  0.00     0.153 C 
BRANCH  13  15
ATOM     15  C   UNL     1       2.166  44.866  54.361  1.00  0.00     0.047 A 
ATOM     16  C   UNL     1       1.296  45.460  55.284  1.00  0.00     0.026 A 
ATOM     17  C   UNL     1       1.709  43.811  53.534  1.00  0.00    -0.024 A 
ATOM     18  C   UNL     1      -0.016  45.010  55.410  1.00  0.00     0.002 A 
ATOM     19  C   UNL     1       0.383  43.330  53.698  1.00  0.00    -0.046 A 
ATOM     20  C   UNL     1      -0.470  43.952  54.625  1.00  0.00     0.004 A 
ATOM     21  C   UNL     1       2.628  43.194  52.506  1.00  0.00     0.047 C 
ATOM     22  C   UNL     1      -0.155  42.199  52.859  1.00  0.00     0.044 C 
ENDBRANCH  13  15
ENDBRANCH   1  13
TORSDOF 4
ENDMDL
