MODEL 1
REMARK VINA RESULT:    -8.967      0.000      0.000
REMARK INTER + INTRA:         -10.842
REMARK INTER:                 -10.540
REMARK INTRA:                  -0.302
REMARK UNBOUND:                -0.302
REMARK SMILES N#Cc1ccsc1S(=O)(=O)Nc1cccc2c1NC(=O)C2
REMARK SMILES IDX 11 1 8 3 9 4 10 5 7 6 1 7 2 8 3 9 4 10 5 11 6 12 12 13 13 14
REMARK SMILES IDX 17 15 14 16 18 17 16 18 15 19 19 20 21 21 20 22
REMARK H PARENT 11 2 18 23
ROOT
ATOM      1  N   UNL     1       6.275  46.037  51.162  1.00  0.00    -0.277 N 
ATOM      2  H   UNL     1       5.875  46.813  50.590  1.00  0.00     0.180 HD
ENDROOT
BRANCH   1   3
ATOM      3  S   UNL     1       5.150  45.046  52.035  1.00  0.00     0.272 S 
ATOM      4  O   UNL     1       5.675  44.797  53.422  1.00  0.00    -0.200 OA
ATOM      5  O   UNL     1       3.829  45.755  52.129  1.00  0.00    -0.200 OA
BRANCH   3   6
ATOM      6  C   UNL     1       4.954  43.500  51.221  1.00  0.00     0.158 A 
ATOM      7  N   UNL     1       1.964  42.938  53.079  1.00  0.00    -0.192 NA
ATOM      8  C   UNL     1       2.839  42.779  52.339  1.00  0.00     0.101 C 
ATOM      9  C   UNL     1       3.929  42.582  51.421  1.00  0.00     0.083 A 
ATOM     10  C   UNL     1       4.061  41.425  50.641  1.00  0.00     0.032 A 
ATOM     11  C   UNL     1       5.190  41.432  49.829  1.00  0.00     0.068 A 
ATOM     12  S   UNL     1       6.020  42.874  50.084  1.00  0.00    -0.129 S 
ENDBRANCH   3   6
ENDBRANCH   1   3
BRANCH   1  13
ATOM     13  C   UNL     1       7.698  45.937  51.336  1.00  0.00     0.073 A 
ATOM     14  C   UNL     1       8.508  45.221  50.427  1.00  0.00     0.029 A 
ATOM     15  C   UNL     1       8.335  46.560  52.420  1.00  0.00     0.069 A 
ATOM     16  C   UNL     1       9.899  45.133  50.620  1.00  0.00     0.003 A 
ATOM     17  N   UNL     1       7.718  47.298  53.464  1.00  0.00    -0.324 N 
ATOM     18  C   UNL     1       9.701  46.469  52.607  1.00  0.00    -0.013 A 
ATOM     19  C   UNL     1      10.505  45.759  51.719  1.00  0.00     0.006 A 
ATOM     20  C   UNL     1       8.786  47.674  54.324  1.00  0.00     0.228 C 
ATOM     21  C   UNL     1      10.121  47.187  53.849  1.00  0.00     0.138 C 
ATOM     22  O   UNL     1       8.613  48.343  55.377  1.00  0.00    -0.274 OA
ATOM     23  H   UNL     1       6.702  47.485  53.612  1.00  0.00     0.170 HD
ENDBRANCH   1  13
TORSDOF 3
ENDMDL
MODEL 2
REMARK VINA RESULT:    -8.811      2.191      3.691
REMARK INTER + INTRA:         -10.659
REMARK INTER:                  -9.879
REMARK INTRA:                  -0.780
REMARK UNBOUND:                -0.302
REMARK SMILES N#Cc1ccsc1S(=O)(=O)Nc1cccc2c1NC(=O)C2
REMARK SMILES IDX 11 1 8 3 9 4 10 5 7 6 1 7 2 8 3 9 4 10 5 11 6 12 12 13 13 14
REMARK SMILES IDX 17 15 14 16 18 17 16 18 15 19 19 20 21 21 20 22
REMARK H PARENT 11 2 18 23
ROOT
ATOM      1  N   UNL     1       5.976  46.802  52.259  1.00  0.00    -0.277 N 
ATOM      2  H   UNL     1       5.528  47.420  51.548  1.00  0.00     0.180 HD
ENDROOT
BRANCH   1   3
ATOM      3  S   UNL     1       4.930  46.067  53.432  1.00  0.00     0.272 S 
ATOM      4  O   UNL     1       5.635  44.904  54.073  1.00  0.00    -0.200 OA
ATOM      5  O   UNL     1       4.584  47.076  54.491  1.00  0.00    -0.200 OA
BRANCH   3   6
ATOM      6  C   UNL     1       3.468  45.480  52.651  1.00  0.00     0.158 A 
ATOM      7  N   UNL     1       5.430  43.130  50.823  1.00  0.00    -0.192 NA
ATOM      8  C   UNL     1       4.518  43.726  51.213  1.00  0.00     0.101 C 
ATOM      9  C   UNL     1       3.386  44.471  51.699  1.00  0.00     0.083 A 
ATOM     10  C   UNL     1       2.080  44.246  51.241  1.00  0.00     0.032 A 
ATOM     11  C   UNL     1       1.137  45.079  51.831  1.00  0.00     0.068 A 
ATOM     12  S   UNL     1       1.928  46.092  52.918  1.00  0.00    -0.129 S 
ENDBRANCH   3   6
ENDBRANCH   1   3
BRANCH   1  13
ATOM     13  C   UNL     1       7.409  46.728  52.341  1.00  0.00     0.073 A 
ATOM     14  C   UNL     1       8.136  47.457  53.307  1.00  0.00     0.029 A 
ATOM     15  C   UNL     1       8.137  45.915  51.458  1.00  0.00     0.069 A 
ATOM     16  C   UNL     1       9.540  47.372  53.365  1.00  0.00     0.003 A 
ATOM     17  N   UNL     1       7.619  45.128  50.397  1.00  0.00    -0.324 N 
ATOM     18  C   UNL     1       9.515  45.836  51.517  1.00  0.00    -0.013 A 
ATOM     19  C   UNL     1      10.240  46.557  52.463  1.00  0.00     0.006 A 
ATOM     20  C   UNL     1       8.762  44.539  49.788  1.00  0.00     0.228 C 
ATOM     21  C   UNL     1      10.046  44.934  50.449  1.00  0.00     0.138 C 
ATOM     22  O   UNL     1       8.687  43.772  48.792  1.00  0.00    -0.274 OA
ATOM     23  H   UNL     1       6.627  45.034  50.084  1.00  0.00     0.170 HD
ENDBRANCH   1  13
TORSDOF 3
ENDMDL
MODEL 3
REMARK VINA RESULT:    -8.780      2.008      6.491
REMARK INTER + INTRA:         -10.622
REMARK INTER:                 -10.214
REMARK INTRA:                  -0.408
REMARK UNBOUND:                -0.302
REMARK SMILES N#Cc1ccsc1S(=O)(=O)Nc1cccc2c1NC(=O)C2
REMARK SMILES IDX 11 1 8 3 9 4 10 5 7 6 1 7 2 8 3 9 4 10 5 11 6 12 12 13 13 14
REMARK SMILES IDX 17 15 14 16 18 17 16 18 15 19 19 20 21 21 20 22
REMARK H PARENT 11 2 18 23
ROOT
ATOM      1  N   UNL     1       5.226  46.024  51.778  1.00  0.00    -0.277 N 
ATOM      2  H   UNL     1       5.352  46.455  50.837  1.00  0.00     0.180 HD
ENDROOT
BRANCH   1   3
ATOM      3  S   UNL     1       6.299  46.553  53.035  1.00  0.00     0.272 S 
ATOM      4  O   UNL     1       6.017  47.993  53.359  1.00  0.00    -0.200 OA
ATOM      5  O   UNL     1       6.075  45.719  54.265  1.00  0.00    -0.200 OA
BRANCH   3   6
ATOM      6  C   UNL     1       7.968  46.411  52.500  1.00  0.00     0.158 A 
ATOM      7  N   UNL     1       9.002  48.322  55.327  1.00  0.00    -0.192 NA
ATOM      8  C   UNL     1       9.041  47.710  54.346  1.00  0.00     0.101 C 
ATOM      9  C   UNL     1       9.087  46.949  53.124  1.00  0.00     0.083 A 
ATOM     10  C   UNL     1      10.282  46.688  52.441  1.00  0.00     0.032 A 
ATOM     11  C   UNL     1      10.104  45.946  51.279  1.00  0.00     0.068 A 
ATOM     12  S   UNL     1       8.462  45.619  51.104  1.00  0.00    -0.129 S 
ENDBRANCH   3   6
ENDBRANCH   1   3
BRANCH   1  13
ATOM     13  C   UNL     1       4.317  44.923  51.944  1.00  0.00     0.073 A 
ATOM     14  C   UNL     1       3.105  45.062  52.657  1.00  0.00     0.029 A 
ATOM     15  C   UNL     1       4.604  43.665  51.392  1.00  0.00     0.069 A 
ATOM     16  C   UNL     1       2.232  43.968  52.810  1.00  0.00     0.003 A 
ATOM     17  N   UNL     1       5.769  43.295  50.670  1.00  0.00    -0.324 N 
ATOM     18  C   UNL     1       3.745  42.594  51.546  1.00  0.00    -0.013 A 
ATOM     19  C   UNL     1       2.552  42.721  52.253  1.00  0.00     0.006 A 
ATOM     20  C   UNL     1       5.589  41.916  50.373  1.00  0.00     0.228 C 
ATOM     21  C   UNL     1       4.298  41.367  50.896  1.00  0.00     0.138 C 
ATOM     22  O   UNL     1       6.441  41.237  49.740  1.00  0.00    -0.274 OA
ATOM     23  H   UNL     1       6.606  43.878  50.448  1.00  0.00     0.170 HD
ENDBRANCH   1  13
TORSDOF 3
ENDMDL
MODEL 4
REMARK VINA RESULT:    -8.762      1.902      2.729
REMARK INTER + INTRA:         -10.602
REMARK INTER:                  -9.987
REMARK INTRA:                  -0.614
REMARK UNBOUND:                -0.302
REMARK SMILES N#Cc1ccsc1S(=O)(=O)Nc1cccc2c1NC(=O)C2
REMARK SMILES IDX 11 1 8 3 9 4 10 5 7 6 1 7 2 8 3 9 4 10 5 11 6 12 12 13 13 14
REMARK SMILES IDX 17 15 14 16 18 17 16 18 15 19 19 20 21 21 20 22
REMARK H PARENT 11 2 18 23
ROOT
ATOM      1  N   UNL     1       5.250  46.156  52.447  1.00  0.00    -0.277 N 
ATOM      2  H   UNL     1       4.564  46.718  51.899  1.00  0.00     0.180 HD
ENDROOT
BRANCH   1   3
ATOM      3  S   UNL     1       4.719  45.546  53.982  1.00  0.00     0.272 S 
ATOM      4  O   UNL     1       5.739  44.579  54.515  1.00  0.00    -0.200 OA
ATOM      5  O   UNL     1       4.573  46.689  54.948  1.00  0.00    -0.200 OA
BRANCH   3   6
ATOM      6  C   UNL     1       3.186  44.705  53.798  1.00  0.00     0.158 A 
ATOM      7  N   UNL     1       4.618  42.737  51.192  1.00  0.00    -0.192 NA
ATOM      8  C   UNL     1       3.852  43.162  51.948  1.00  0.00     0.101 C 
ATOM      9  C   UNL     1       2.900  43.694  52.887  1.00  0.00     0.083 A 
ATOM     10  C   UNL     1       1.577  43.239  52.963  1.00  0.00     0.032 A 
ATOM     11  C   UNL     1       0.822  43.892  53.931  1.00  0.00     0.068 A 
ATOM     12  S   UNL     1       1.801  45.034  54.688  1.00  0.00    -0.129 S 
ENDBRANCH   3   6
ENDBRANCH   1   3
BRANCH   1  13
ATOM     13  C   UNL     1       6.613  46.062  52.002  1.00  0.00     0.073 A 
ATOM     14  C   UNL     1       6.959  45.400  50.803  1.00  0.00     0.029 A 
ATOM     15  C   UNL     1       7.654  46.637  52.749  1.00  0.00     0.069 A 
ATOM     16  C   UNL     1       8.302  45.317  50.390  1.00  0.00     0.003 A 
ATOM     17  N   UNL     1       7.540  47.315  53.990  1.00  0.00    -0.324 N 
ATOM     18  C   UNL     1       8.971  46.551  52.340  1.00  0.00    -0.013 A 
ATOM     19  C   UNL     1       9.321  45.894  51.163  1.00  0.00     0.006 A 
ATOM     20  C   UNL     1       8.875  47.659  54.340  1.00  0.00     0.228 C 
ATOM     21  C   UNL     1       9.881  47.210  53.326  1.00  0.00     0.138 C 
ATOM     22  O   UNL     1       9.167  48.272  55.401  1.00  0.00    -0.274 OA
ATOM     23  H   UNL     1       6.682  47.484  54.560  1.00  0.00     0.170 HD
ENDBRANCH   1  13
TORSDOF 3
ENDMDL
MODEL 5
REMARK VINA RESULT:    -8.720      2.412      3.429
REMARK INTER + INTRA:         -10.552
REMARK INTER:                  -9.879
REMARK INTRA:                  -0.673
REMARK UNBOUND:                -0.302
REMARK SMILES N#Cc1ccsc1S(=O)(=O)Nc1cccc2c1NC(=O)C2
REMARK SMILES IDX 11 1 8 3 9 4 10 5 7 6 1 7 2 8 3 9 4 10 5 11 6 12 12 13 13 14
REMARK SMILES IDX 17 15 14 16 18 17 16 18 15 19 19 20 21 21 20 22
REMARK H PARENT 11 2 18 23
ROOT
ATOM      1  N   UNL     1       5.328  46.376  52.011  1.00  0.00    -0.277 N 
ATOM      2  H   UNL     1       5.006  47.314  52.331  1.00  0.00     0.180 HD
ENDROOT
BRANCH   1   3
ATOM      3  S   UNL     1       4.167  45.088  52.058  1.00  0.00     0.272 S 
ATOM      4  O   UNL     1       3.298  45.153  50.833  1.00  0.00    -0.200 OA
ATOM      5  O   UNL     1       4.887  43.769  52.079  1.00  0.00    -0.200 OA
BRANCH   3   6
ATOM      6  C   UNL     1       3.148  45.248  53.482  1.00  0.00     0.158 A 
ATOM      7  N   UNL     1       6.065  45.209  55.532  1.00  0.00    -0.192 NA
ATOM      8  C   UNL     1       4.955  45.251  55.209  1.00  0.00     0.101 C 
ATOM      9  C   UNL     1       3.575  45.302  54.804  1.00  0.00     0.083 A 
ATOM     10  C   UNL     1       2.521  45.405  55.722  1.00  0.00     0.032 A 
ATOM     11  C   UNL     1       1.267  45.429  55.123  1.00  0.00     0.068 A 
ATOM     12  S   UNL     1       1.471  45.322  53.455  1.00  0.00    -0.129 S 
ENDBRANCH   3   6
ENDBRANCH   1   3
BRANCH   1  13
ATOM     13  C   UNL     1       6.719  46.159  51.721  1.00  0.00     0.073 A 
ATOM     14  C   UNL     1       7.136  45.433  50.582  1.00  0.00     0.029 A 
ATOM     15  C   UNL     1       7.717  46.672  52.564  1.00  0.00     0.069 A 
ATOM     16  C   UNL     1       8.504  45.230  50.322  1.00  0.00     0.003 A 
ATOM     17  N   UNL     1       7.527  47.397  53.769  1.00  0.00    -0.324 N 
ATOM     18  C   UNL     1       9.059  46.468  52.305  1.00  0.00    -0.013 A 
ATOM     19  C   UNL     1       9.478  45.748  51.189  1.00  0.00     0.006 A 
ATOM     20  C   UNL     1       8.841  47.644  54.256  1.00  0.00     0.228 C 
ATOM     21  C   UNL     1       9.910  47.083  53.369  1.00  0.00     0.138 C 
ATOM     22  O   UNL     1       9.066  48.266  55.328  1.00  0.00    -0.274 OA
ATOM     23  H   UNL     1       6.630  47.652  54.237  1.00  0.00     0.170 HD
ENDBRANCH   1  13
TORSDOF 3
ENDMDL
