ligand_43_conformer_2_docked
     RDKit          3D

 55 58  0  0  0  0  0  0  0  0999 V2000
    7.0470   42.7950   49.4170 C   0  0  0  0  0  0  0  0  0  0  0  0
    6.4910   41.4420   49.8440 C   0  0  0  0  0  0  0  0  0  0  0  0
    5.0170   41.5310   50.0820 C   0  0  0  0  0  0  0  0  0  0  0  0
    4.1030   40.8450   49.3690 N   0  0  0  0  0  0  0  0  0  0  0  0
    2.9570   41.2380   49.8360 O   0  0  0  0  0  0  0  0  0  0  0  0
    3.1460   42.1260   50.7830 C   0  0  0  0  0  0  0  0  0  0  0  0
    2.0570   42.7950   51.5240 C   0  0  0  0  0  0  0  0  0  0  0  0
    0.8700   43.1450   50.8680 C   0  0  0  0  0  0  0  0  0  0  0  0
   -0.1530   43.7930   51.5590 C   0  0  0  0  0  0  0  0  0  0  0  0
   -0.0080   44.1140   52.9190 C   0  0  0  0  0  0  0  0  0  0  0  0
   -1.1220   44.8440   53.6220 C   0  0  0  0  0  0  0  0  0  0  0  0
    1.1840   43.7600   53.5970 C   0  0  0  0  0  0  0  0  0  0  0  0
    1.3590   44.0840   54.9940 N   0  0  0  0  0  0  0  0  0  0  0  0
    2.0870   45.2620   55.4720 C   0  0  0  0  0  0  0  0  0  0  0  0
    3.3210   45.4950   54.6410 C   0  0  0  0  0  0  0  0  0  0  0  0
    3.2970   46.4280   53.5930 C   0  0  0  0  0  0  0  0  0  0  0  0
    4.4270   46.6220   52.7940 C   0  0  0  0  0  0  0  0  0  0  0  0
    5.5960   45.8800   53.0270 C   0  0  0  0  0  0  0  0  0  0  0  0
    6.7930   46.0750   52.1850 C   0  0  0  0  0  0  0  0  0  0  0  0
    6.6750   46.0040   50.9310 O   0  0  0  0  0  0  0  0  0  0  0  0
    8.0800   46.3650   52.7600 N   0  0  0  0  0  0  0  0  0  0  0  0
    9.3090   46.3230   51.9850 C   0  0  0  0  0  0  0  0  0  0  0  0
   10.4090   46.7780   52.9360 C   0  0  0  0  0  0  0  0  0  0  0  0
    9.6950   47.5100   54.0680 C   0  0  0  0  0  0  0  0  0  0  0  0
    8.2680   46.9790   54.0660 C   0  0  0  0  0  0  0  0  0  0  0  0
    5.6320   44.9730   54.0970 C   0  0  0  0  0  0  0  0  0  0  0  0
    4.5010   44.7780   54.8960 C   0  0  0  0  0  0  0  0  0  0  0  0
    2.2010   43.0940   52.8870 C   0  0  0  0  0  0  0  0  0  0  0  0
    4.4570   42.3620   50.9840 N   0  0  0  0  0  0  0  0  0  0  0  0
    7.2912   43.3894   50.3098 H   0  0  0  0  0  0  0  0  0  0  0  0
    7.9563   42.6448   48.8165 H   0  0  0  0  0  0  0  0  0  0  0  0
    6.2948   43.3275   48.8165 H   0  0  0  0  0  0  0  0  0  0  0  0
    6.6855   40.7046   49.0513 H   0  0  0  0  0  0  0  0  0  0  0  0
    6.9836   41.1346   50.7783 H   0  0  0  0  0  0  0  0  0  0  0  0
    0.7442   42.9072   49.8014 H   0  0  0  0  0  0  0  0  0  0  0  0
   -1.0832   44.0556   51.0339 H   0  0  0  0  0  0  0  0  0  0  0  0
   -0.9883   44.7564   54.7103 H   0  0  0  0  0  0  0  0  0  0  0  0
   -1.1034   45.9056   53.3346 H   0  0  0  0  0  0  0  0  0  0  0  0
   -2.0880   44.4032   53.3346 H   0  0  0  0  0  0  0  0  0  0  0  0
    0.8840   43.5030   55.7200 H   0  0  0  0  0  0  0  0  0  0  0  0
    1.4330   46.1438   55.4033 H   0  0  0  0  0  0  0  0  0  0  0  0
    2.3890   45.0930   56.5161 H   0  0  0  0  0  0  0  0  0  0  0  0
    2.3837   47.0098   53.3994 H   0  0  0  0  0  0  0  0  0  0  0  0
    4.4005   47.3597   51.9785 H   0  0  0  0  0  0  0  0  0  0  0  0
    9.5056   45.2999   51.6320 H   0  0  0  0  0  0  0  0  0  0  0  0
    9.2503   46.9651   51.0938 H   0  0  0  0  0  0  0  0  0  0  0  0
   10.9612   45.9109   53.3274 H   0  0  0  0  0  0  0  0  0  0  0  0
   11.1419   47.4247   52.4313 H   0  0  0  0  0  0  0  0  0  0  0  0
   10.1825   47.2962   55.0306 H   0  0  0  0  0  0  0  0  0  0  0  0
    9.7227   48.6006   53.9275 H   0  0  0  0  0  0  0  0  0  0  0  0
    8.1348   46.2332   54.8635 H   0  0  0  0  0  0  0  0  0  0  0  0
    7.5359   47.7795   54.2483 H   0  0  0  0  0  0  0  0  0  0  0  0
    6.5546   44.4125   54.3084 H   0  0  0  0  0  0  0  0  0  0  0  0
    4.5360   44.0595   55.7282 H   0  0  0  0  0  0  0  0  0  0  0  0
    3.1241   42.8032   53.4098 H   0  0  0  0  0  0  0  0  0  0  0  0
  1  2  1  0
  2  3  1  0
  3  4  2  0
  4  5  1  0
  5  6  1  0
  6  7  1  0
  7  8  2  0
  8  9  1  0
  9 10  2  0
 10 11  1  0
 10 12  1  0
 12 13  1  0
 13 14  1  0
 14 15  1  0
 15 16  2  0
 16 17  1  0
 17 18  2  0
 18 19  1  0
 19 20  2  0
 19 21  1  0
 21 22  1  0
 22 23  1  0
 23 24  1  0
 24 25  1  0
 18 26  1  0
 26 27  2  0
 12 28  2  0
  6 29  2  0
 29  3  1  0
 28  7  1  0
 27 15  1  0
 25 21  1  0
  1 30  1  0
  1 31  1  0
  1 32  1  0
  2 33  1  0
  2 34  1  0
  8 35  1  0
  9 36  1  0
 11 37  1  0
 11 38  1  0
 11 39  1  0
 13 40  1  0
 14 41  1  0
 14 42  1  0
 16 43  1  0
 17 44  1  0
 22 45  1  0
 22 46  1  0
 23 47  1  0
 23 48  1  0
 24 49  1  0
 24 50  1  0
 25 51  1  0
 25 52  1  0
 26 53  1  0
 27 54  1  0
 28 55  1  0
M  END
>  <meeko>  (1) 
{"is_sidechain": [false], "free_energy": -9.675, "intermolecular_energy": -13.069, "internal_energy": -1.063}

$$$$
ligand_43_conformer_2_docked
     RDKit          3D

 55 58  0  0  0  0  0  0  0  0999 V2000
   12.0060   47.0210   56.8260 C   0  0  0  0  0  0  0  0  0  0  0  0
   10.9090   48.0780   56.7900 C   0  0  0  0  0  0  0  0  0  0  0  0
   10.0520   47.9050   55.5760 C   0  0  0  0  0  0  0  0  0  0  0  0
    8.9270   48.6110   55.3490 N   0  0  0  0  0  0  0  0  0  0  0  0
    8.4530   48.1300   54.2410 O   0  0  0  0  0  0  0  0  0  0  0  0
    9.2350   47.1710   53.8040 C   0  0  0  0  0  0  0  0  0  0  0  0
    8.9880   46.3940   52.5720 C   0  0  0  0  0  0  0  0  0  0  0  0
   10.0640   45.8820   51.8360 C   0  0  0  0  0  0  0  0  0  0  0  0
    9.8370   45.1630   50.6630 C   0  0  0  0  0  0  0  0  0  0  0  0
    8.5300   44.9480   50.1950 C   0  0  0  0  0  0  0  0  0  0  0  0
    8.3280   44.1950   48.9070 C   0  0  0  0  0  0  0  0  0  0  0  0
    7.4320   45.4530   50.9330 C   0  0  0  0  0  0  0  0  0  0  0  0
    6.0790   45.2500   50.4700 N   0  0  0  0  0  0  0  0  0  0  0  0
    5.4180   43.9430   50.4310 C   0  0  0  0  0  0  0  0  0  0  0  0
    4.1410   43.9710   51.2280 C   0  0  0  0  0  0  0  0  0  0  0  0
    3.7570   42.8500   51.9800 C   0  0  0  0  0  0  0  0  0  0  0  0
    2.5540   42.8540   52.6910 C   0  0  0  0  0  0  0  0  0  0  0  0
    1.7130   43.9780   52.6550 C   0  0  0  0  0  0  0  0  0  0  0  0
    0.4390   43.9910   53.4000 C   0  0  0  0  0  0  0  0  0  0  0  0
   -0.5480   43.3610   52.9300 O   0  0  0  0  0  0  0  0  0  0  0  0
    0.3040   44.6850   54.6540 N   0  0  0  0  0  0  0  0  0  0  0  0
   -0.9840   44.9170   55.2840 C   0  0  0  0  0  0  0  0  0  0  0  0
   -0.6750   45.5890   56.6150 C   0  0  0  0  0  0  0  0  0  0  0  0
    0.7930   45.2830   56.8970 C   0  0  0  0  0  0  0  0  0  0  0  0
    1.4180   44.9820   55.5420 C   0  0  0  0  0  0  0  0  0  0  0  0
    2.1140   45.1120   51.9330 C   0  0  0  0  0  0  0  0  0  0  0  0
    3.3170   45.1080   51.2200 C   0  0  0  0  0  0  0  0  0  0  0  0
    7.6790   46.1650   52.1230 C   0  0  0  0  0  0  0  0  0  0  0  0
   10.2830   46.9750   54.6280 N   0  0  0  0  0  0  0  0  0  0  0  0
   12.2523   46.7837   57.8715 H   0  0  0  0  0  0  0  0  0  0  0  0
   11.6556   46.1114   56.3163 H   0  0  0  0  0  0  0  0  0  0  0  0
   12.9020   47.4049   56.3163 H   0  0  0  0  0  0  0  0  0  0  0  0
   10.2844   47.9818   57.6903 H   0  0  0  0  0  0  0  0  0  0  0  0
   11.3760   49.0734   56.7560 H   0  0  0  0  0  0  0  0  0  0  0  0
   11.0938   46.0480   52.1852 H   0  0  0  0  0  0  0  0  0  0  0  0
   10.6904   44.7599   50.0981 H   0  0  0  0  0  0  0  0  0  0  0  0
    8.0489   43.1547   49.1304 H   0  0  0  0  0  0  0  0  0  0  0  0
    7.5263   44.6728   48.3248 H   0  0  0  0  0  0  0  0  0  0  0  0
    9.2612   44.2074   48.3248 H   0  0  0  0  0  0  0  0  0  0  0  0
    5.4930   46.0760   50.2150 H   0  0  0  0  0  0  0  0  0  0  0  0
    5.1868   43.6858   49.3868 H   0  0  0  0  0  0  0  0  0  0  0  0
    6.0922   43.1915   50.8677 H   0  0  0  0  0  0  0  0  0  0  0  0
    4.4068   41.9630   52.0099 H   0  0  0  0  0  0  0  0  0  0  0  0
    2.2644   41.9724   53.2817 H   0  0  0  0  0  0  0  0  0  0  0  0
   -1.6049   45.5741   54.6574 H   0  0  0  0  0  0  0  0  0  0  0  0
   -1.5438   43.9802   55.4218 H   0  0  0  0  0  0  0  0  0  0  0  0
   -0.8341   46.6751   56.5431 H   0  0  0  0  0  0  0  0  0  0  0  0
   -1.3296   45.2210   57.4188 H   0  0  0  0  0  0  0  0  0  0  0  0
    1.2835   46.1512   57.3614 H   0  0  0  0  0  0  0  0  0  0  0  0
    0.9056   44.4386   57.5929 H   0  0  0  0  0  0  0  0  0  0  0  0
    1.9789   45.8544   55.1756 H   0  0  0  0  0  0  0  0  0  0  0  0
    2.1279   44.1436   55.5986 H   0  0  0  0  0  0  0  0  0  0  0  0
    1.4783   46.0097   51.9277 H   0  0  0  0  0  0  0  0  0  0  0  0
    3.6191   45.9993   50.6505 H   0  0  0  0  0  0  0  0  0  0  0  0
    6.8312   46.5479   52.7100 H   0  0  0  0  0  0  0  0  0  0  0  0
  1  2  1  0
  2  3  1  0
  3  4  2  0
  4  5  1  0
  5  6  1  0
  6  7  1  0
  7  8  2  0
  8  9  1  0
  9 10  2  0
 10 11  1  0
 10 12  1  0
 12 13  1  0
 13 14  1  0
 14 15  1  0
 15 16  2  0
 16 17  1  0
 17 18  2  0
 18 19  1  0
 19 20  2  0
 19 21  1  0
 21 22  1  0
 22 23  1  0
 23 24  1  0
 24 25  1  0
 18 26  1  0
 26 27  2  0
 12 28  2  0
  6 29  2  0
 29  3  1  0
 28  7  1  0
 27 15  1  0
 25 21  1  0
  1 30  1  0
  1 31  1  0
  1 32  1  0
  2 33  1  0
  2 34  1  0
  8 35  1  0
  9 36  1  0
 11 37  1  0
 11 38  1  0
 11 39  1  0
 13 40  1  0
 14 41  1  0
 14 42  1  0
 16 43  1  0
 17 44  1  0
 22 45  1  0
 22 46  1  0
 23 47  1  0
 23 48  1  0
 24 49  1  0
 24 50  1  0
 25 51  1  0
 25 52  1  0
 26 53  1  0
 27 54  1  0
 28 55  1  0
M  END
>  <meeko>  (2) 
{"is_sidechain": [false], "free_energy": -9.286, "intermolecular_energy": -12.989, "internal_energy": -0.616}

$$$$
ligand_43_conformer_2_docked
     RDKit          3D

 55 58  0  0  0  0  0  0  0  0999 V2000
   -1.4850   49.5050   59.8770 C   0  0  0  0  0  0  0  0  0  0  0  0
   -0.4300   48.5410   60.4070 C   0  0  0  0  0  0  0  0  0  0  0  0
    0.0040   47.5960   59.3320 C   0  0  0  0  0  0  0  0  0  0  0  0
    1.2830   47.2160   59.1450 N   0  0  0  0  0  0  0  0  0  0  0  0
    1.2510   46.4540   58.0950 O   0  0  0  0  0  0  0  0  0  0  0  0
    0.0210   46.3690   57.6460 C   0  0  0  0  0  0  0  0  0  0  0  0
   -0.3790   45.5930   56.4540 C   0  0  0  0  0  0  0  0  0  0  0  0
   -1.7030   45.1620   56.3060 C   0  0  0  0  0  0  0  0  0  0  0  0
   -2.0800   44.4140   55.1920 C   0  0  0  0  0  0  0  0  0  0  0  0
   -1.1400   44.0720   54.2060 C   0  0  0  0  0  0  0  0  0  0  0  0
   -1.5800   43.2350   53.0340 C   0  0  0  0  0  0  0  0  0  0  0  0
    0.2010   44.5070   54.3380 C   0  0  0  0  0  0  0  0  0  0  0  0
    1.1870   44.1640   53.3410 N   0  0  0  0  0  0  0  0  0  0  0  0
    1.4380   44.9580   52.1350 C   0  0  0  0  0  0  0  0  0  0  0  0
    2.9170   45.1220   51.9060 C   0  0  0  0  0  0  0  0  0  0  0  0
    3.3810   45.9390   50.8640 C   0  0  0  0  0  0  0  0  0  0  0  0
    4.7510   46.0650   50.6220 C   0  0  0  0  0  0  0  0  0  0  0  0
    5.6790   45.3700   51.4140 C   0  0  0  0  0  0  0  0  0  0  0  0
    7.1280   45.4930   51.1630 C   0  0  0  0  0  0  0  0  0  0  0  0
    7.6030   45.0310   50.0890 O   0  0  0  0  0  0  0  0  0  0  0  0
    8.0040   46.1460   52.1010 N   0  0  0  0  0  0  0  0  0  0  0  0
    9.4510   46.0720   52.0000 C   0  0  0  0  0  0  0  0  0  0  0  0
    9.9860   46.9620   53.1140 C   0  0  0  0  0  0  0  0  0  0  0  0
    8.8270   47.8750   53.5010 C   0  0  0  0  0  0  0  0  0  0  0  0
    7.5640   47.1460   53.0630 C   0  0  0  0  0  0  0  0  0  0  0  0
    5.2170   44.5800   52.4780 C   0  0  0  0  0  0  0  0  0  0  0  0
    3.8460   44.4530   52.7200 C   0  0  0  0  0  0  0  0  0  0  0  0
    0.5620   45.2740   55.4640 C   0  0  0  0  0  0  0  0  0  0  0  0
   -0.8300   47.0910   58.4020 N   0  0  0  0  0  0  0  0  0  0  0  0
   -2.0050   49.9802   60.7219 H   0  0  0  0  0  0  0  0  0  0  0  0
   -0.9998   50.2783   59.2633 H   0  0  0  0  0  0  0  0  0  0  0  0
   -2.2115   48.9522   59.2633 H   0  0  0  0  0  0  0  0  0  0  0  0
    0.4406   49.1145   60.7579 H   0  0  0  0  0  0  0  0  0  0  0  0
   -0.8621   47.9618   61.2364 H   0  0  0  0  0  0  0  0  0  0  0  0
   -2.4496   45.4151   57.0731 H   0  0  0  0  0  0  0  0  0  0  0  0
   -3.1250   44.0880   55.0838 H   0  0  0  0  0  0  0  0  0  0  0  0
   -2.0627   42.3168   53.3999 H   0  0  0  0  0  0  0  0  0  0  0  0
   -2.2943   43.8063   52.4230 H   0  0  0  0  0  0  0  0  0  0  0  0
   -0.7044   42.9705   52.4230 H   0  0  0  0  0  0  0  0  0  0  0  0
    1.8220   43.3500   53.5030 H   0  0  0  0  0  0  0  0  0  0  0  0
    0.9923   44.4487   51.2678 H   0  0  0  0  0  0  0  0  0  0  0  0
    0.9872   45.9529   52.2656 H   0  0  0  0  0  0  0  0  0  0  0  0
    2.6620   46.4833   50.2341 H   0  0  0  0  0  0  0  0  0  0  0  0
    5.1049   46.7125   49.8062 H   0  0  0  0  0  0  0  0  0  0  0  0
    9.7930   45.0358   52.1389 H   0  0  0  0  0  0  0  0  0  0  0  0
    9.8070   46.3988   51.0118 H   0  0  0  0  0  0  0  0  0  0  0  0
   10.2994   46.3532   53.9749 H   0  0  0  0  0  0  0  0  0  0  0  0
   10.8661   47.5364   52.7892 H   0  0  0  0  0  0  0  0  0  0  0  0
    8.8163   48.0413   54.5883 H   0  0  0  0  0  0  0  0  0  0  0  0
    8.9116   48.8627   53.0242 H   0  0  0  0  0  0  0  0  0  0  0  0
    7.0806   46.6632   53.9251 H   0  0  0  0  0  0  0  0  0  0  0  0
    6.8266   47.8353   52.6257 H   0  0  0  0  0  0  0  0  0  0  0  0
    5.9374   44.0580   53.1249 H   0  0  0  0  0  0  0  0  0  0  0  0
    3.4929   43.8260   53.5520 H   0  0  0  0  0  0  0  0  0  0  0  0
    1.5982   45.6281   55.5681 H   0  0  0  0  0  0  0  0  0  0  0  0
  1  2  1  0
  2  3  1  0
  3  4  2  0
  4  5  1  0
  5  6  1  0
  6  7  1  0
  7  8  2  0
  8  9  1  0
  9 10  2  0
 10 11  1  0
 10 12  1  0
 12 13  1  0
 13 14  1  0
 14 15  1  0
 15 16  2  0
 16 17  1  0
 17 18  2  0
 18 19  1  0
 19 20  2  0
 19 21  1  0
 21 22  1  0
 22 23  1  0
 23 24  1  0
 24 25  1  0
 18 26  1  0
 26 27  2  0
 12 28  2  0
  6 29  2  0
 29  3  1  0
 28  7  1  0
 27 15  1  0
 25 21  1  0
  1 30  1  0
  1 31  1  0
  1 32  1  0
  2 33  1  0
  2 34  1  0
  8 35  1  0
  9 36  1  0
 11 37  1  0
 11 38  1  0
 11 39  1  0
 13 40  1  0
 14 41  1  0
 14 42  1  0
 16 43  1  0
 17 44  1  0
 22 45  1  0
 22 46  1  0
 23 47  1  0
 23 48  1  0
 24 49  1  0
 24 50  1  0
 25 51  1  0
 25 52  1  0
 26 53  1  0
 27 54  1  0
 28 55  1  0
M  END
>  <meeko>  (3) 
{"is_sidechain": [false], "free_energy": -8.919, "intermolecular_energy": -12.356, "internal_energy": -0.754}

$$$$
ligand_43_conformer_2_docked
     RDKit          3D

 55 58  0  0  0  0  0  0  0  0999 V2000
    5.4310   41.5550   49.5670 C   0  0  0  0  0  0  0  0  0  0  0  0
    6.1470   42.3460   48.4790 C   0  0  0  0  0  0  0  0  0  0  0  0
    7.0640   43.3610   49.0850 C   0  0  0  0  0  0  0  0  0  0  0  0
    8.2720   43.6730   48.5780 N   0  0  0  0  0  0  0  0  0  0  0  0
    8.7680   44.5350   49.4120 O   0  0  0  0  0  0  0  0  0  0  0  0
    7.9200   44.7430   50.3910 C   0  0  0  0  0  0  0  0  0  0  0  0
    8.1670   45.6570   51.5250 C   0  0  0  0  0  0  0  0  0  0  0  0
    9.4010   46.3070   51.6490 C   0  0  0  0  0  0  0  0  0  0  0  0
    9.6450   47.1560   52.7280 C   0  0  0  0  0  0  0  0  0  0  0  0
    8.6640   47.3660   53.7110 C   0  0  0  0  0  0  0  0  0  0  0  0
    8.9780   48.2640   54.8790 C   0  0  0  0  0  0  0  0  0  0  0  0
    7.4090   46.7210   53.5950 C   0  0  0  0  0  0  0  0  0  0  0  0
    6.3860   46.9160   54.5960 N   0  0  0  0  0  0  0  0  0  0  0  0
    5.0970   47.5590   54.3300 C   0  0  0  0  0  0  0  0  0  0  0  0
    4.1810   46.6230   53.5860 C   0  0  0  0  0  0  0  0  0  0  0  0
    3.6550   46.9970   52.3400 C   0  0  0  0  0  0  0  0  0  0  0  0
    2.7740   46.1500   51.6620 C   0  0  0  0  0  0  0  0  0  0  0  0
    2.4010   44.9190   52.2240 C   0  0  0  0  0  0  0  0  0  0  0  0
    1.4690   44.0180   51.5180 C   0  0  0  0  0  0  0  0  0  0  0  0
    1.9340   43.0220   50.8990 O   0  0  0  0  0  0  0  0  0  0  0  0
    0.0460   44.2390   51.5360 N   0  0  0  0  0  0  0  0  0  0  0  0
   -0.8670   43.5220   50.6630 C   0  0  0  0  0  0  0  0  0  0  0  0
   -2.2630   43.9800   51.0650 C   0  0  0  0  0  0  0  0  0  0  0  0
   -2.1120   44.5770   52.4610 C   0  0  0  0  0  0  0  0  0  0  0  0
   -0.6480   44.9760   52.5820 C   0  0  0  0  0  0  0  0  0  0  0  0
    2.9550   44.5290   53.4530 C   0  0  0  0  0  0  0  0  0  0  0  0
    3.8350   45.3770   54.1320 C   0  0  0  0  0  0  0  0  0  0  0  0
    7.1750   45.8770   52.4920 C   0  0  0  0  0  0  0  0  0  0  0  0
    6.8000   44.0080   50.2380 N   0  0  0  0  0  0  0  0  0  0  0  0
    5.7556   41.9136   50.5549 H   0  0  0  0  0  0  0  0  0  0  0  0
    4.3444   41.6929   49.4657 H   0  0  0  0  0  0  0  0  0  0  0  0
    5.6761   40.4875   49.4657 H   0  0  0  0  0  0  0  0  0  0  0  0
    6.7335   41.6549   47.8558 H   0  0  0  0  0  0  0  0  0  0  0  0
    5.3965   42.8664   47.8659 H   0  0  0  0  0  0  0  0  0  0  0  0
   10.1821   46.1471   50.8912 H   0  0  0  0  0  0  0  0  0  0  0  0
   10.6159   47.6666   52.8101 H   0  0  0  0  0  0  0  0  0  0  0  0
    8.7890   47.7235   55.8182 H   0  0  0  0  0  0  0  0  0  0  0  0
   10.0349   48.5657   54.8358 H   0  0  0  0  0  0  0  0  0  0  0  0
    8.3393   49.1586   54.8358 H   0  0  0  0  0  0  0  0  0  0  0  0
    6.5200   46.5180   55.5520 H   0  0  0  0  0  0  0  0  0  0  0  0
    4.6290   47.8395   55.2852 H   0  0  0  0  0  0  0  0  0  0  0  0
    5.2676   48.4533   53.7127 H   0  0  0  0  0  0  0  0  0  0  0  0
    3.9376   47.9622   51.8944 H   0  0  0  0  0  0  0  0  0  0  0  0
    2.3710   46.4495   50.6833 H   0  0  0  0  0  0  0  0  0  0  0  0
   -0.6687   43.7731   49.6106 H   0  0  0  0  0  0  0  0  0  0  0  0
   -0.7523   42.4324   50.7608 H   0  0  0  0  0  0  0  0  0  0  0  0
   -2.6359   44.7386   50.3611 H   0  0  0  0  0  0  0  0  0  0  0  0
   -2.9835   43.1489   51.0532 H   0  0  0  0  0  0  0  0  0  0  0  0
   -2.7603   45.4585   52.5734 H   0  0  0  0  0  0  0  0  0  0  0  0
   -2.4035   43.8603   53.2429 H   0  0  0  0  0  0  0  0  0  0  0  0
   -0.5314   46.0593   52.4305 H   0  0  0  0  0  0  0  0  0  0  0  0
   -0.2442   44.7455   53.5789 H   0  0  0  0  0  0  0  0  0  0  0  0
    2.6955   43.5509   53.8843 H   0  0  0  0  0  0  0  0  0  0  0  0
    4.2582   45.0663   55.0986 H   0  0  0  0  0  0  0  0  0  0  0  0
    6.1982   45.3822   52.3871 H   0  0  0  0  0  0  0  0  0  0  0  0
  1  2  1  0
  2  3  1  0
  3  4  2  0
  4  5  1  0
  5  6  1  0
  6  7  1  0
  7  8  2  0
  8  9  1  0
  9 10  2  0
 10 11  1  0
 10 12  1  0
 12 13  1  0
 13 14  1  0
 14 15  1  0
 15 16  2  0
 16 17  1  0
 17 18  2  0
 18 19  1  0
 19 20  2  0
 19 21  1  0
 21 22  1  0
 22 23  1  0
 23 24  1  0
 24 25  1  0
 18 26  1  0
 26 27  2  0
 12 28  2  0
  6 29  2  0
 29  3  1  0
 28  7  1  0
 27 15  1  0
 25 21  1  0
  1 30  1  0
  1 31  1  0
  1 32  1  0
  2 33  1  0
  2 34  1  0
  8 35  1  0
  9 36  1  0
 11 37  1  0
 11 38  1  0
 11 39  1  0
 13 40  1  0
 14 41  1  0
 14 42  1  0
 16 43  1  0
 17 44  1  0
 22 45  1  0
 22 46  1  0
 23 47  1  0
 23 48  1  0
 24 49  1  0
 24 50  1  0
 25 51  1  0
 25 52  1  0
 26 53  1  0
 27 54  1  0
 28 55  1  0
M  END
>  <meeko>  (4) 
{"is_sidechain": [false], "free_energy": -8.872, "intermolecular_energy": -11.91, "internal_energy": -1.137}

$$$$
ligand_43_conformer_2_docked
     RDKit          3D

 55 58  0  0  0  0  0  0  0  0999 V2000
   10.1020   47.1570   54.2410 C   0  0  0  0  0  0  0  0  0  0  0  0
    9.6890   47.1600   52.7740 C   0  0  0  0  0  0  0  0  0  0  0  0
    8.2010   47.0860   52.6470 C   0  0  0  0  0  0  0  0  0  0  0  0
    7.3650   48.0430   53.0940 N   0  0  0  0  0  0  0  0  0  0  0  0
    6.1750   47.5820   52.8530 O   0  0  0  0  0  0  0  0  0  0  0  0
    6.2640   46.3990   52.2940 C   0  0  0  0  0  0  0  0  0  0  0  0
    5.1020   45.5770   51.8980 C   0  0  0  0  0  0  0  0  0  0  0  0
    3.8240   46.1460   51.8430 C   0  0  0  0  0  0  0  0  0  0  0  0
    2.7210   45.3700   51.4870 C   0  0  0  0  0  0  0  0  0  0  0  0
    2.8710   44.0060   51.1890 C   0  0  0  0  0  0  0  0  0  0  0  0
    1.6510   43.1930   50.8410 C   0  0  0  0  0  0  0  0  0  0  0  0
    4.1590   43.4180   51.2330 C   0  0  0  0  0  0  0  0  0  0  0  0
    4.3380   42.0160   50.9360 N   0  0  0  0  0  0  0  0  0  0  0  0
    5.4510   41.4870   50.1430 C   0  0  0  0  0  0  0  0  0  0  0  0
    5.0150   41.2260   48.7250 C   0  0  0  0  0  0  0  0  0  0  0  0
    5.7250   41.7930   47.6560 C   0  0  0  0  0  0  0  0  0  0  0  0
    5.3030   41.5860   46.3390 C   0  0  0  0  0  0  0  0  0  0  0  0
    4.1600   40.8160   46.0740 C   0  0  0  0  0  0  0  0  0  0  0  0
    3.7050   40.5950   44.6870 C   0  0  0  0  0  0  0  0  0  0  0  0
    2.6400   41.1500   44.2990 O   0  0  0  0  0  0  0  0  0  0  0  0
    4.4560   39.7830   43.7660 N   0  0  0  0  0  0  0  0  0  0  0  0
    3.9190   39.3540   42.4850 C   0  0  0  0  0  0  0  0  0  0  0  0
    5.0510   38.6060   41.7960 C   0  0  0  0  0  0  0  0  0  0  0  0
    6.3270   39.0470   42.5070 C   0  0  0  0  0  0  0  0  0  0  0  0
    5.8850   39.5340   43.8800 C   0  0  0  0  0  0  0  0  0  0  0  0
    3.4700   40.2200   47.1410 C   0  0  0  0  0  0  0  0  0  0  0  0
    3.8910   40.4270   48.4580 C   0  0  0  0  0  0  0  0  0  0  0  0
    5.2630   44.2200   51.5810 C   0  0  0  0  0  0  0  0  0  0  0  0
    7.5480   46.0210   52.1400 N   0  0  0  0  0  0  0  0  0  0  0  0
    9.2031   47.1635   54.8750 H   0  0  0  0  0  0  0  0  0  0  0  0
   10.6940   46.2545   54.4534 H   0  0  0  0  0  0  0  0  0  0  0  0
   10.7070   48.0508   54.4534 H   0  0  0  0  0  0  0  0  0  0  0  0
   10.0469   48.0855   52.2994 H   0  0  0  0  0  0  0  0  0  0  0  0
   10.1316   46.2832   52.2788 H   0  0  0  0  0  0  0  0  0  0  0  0
    3.6890   47.2112   52.0819 H   0  0  0  0  0  0  0  0  0  0  0  0
    1.7235   45.8312   51.4392 H   0  0  0  0  0  0  0  0  0  0  0  0
    1.1548   42.8623   51.7654 H   0  0  0  0  0  0  0  0  0  0  0  0
    0.9557   43.8090   50.2518 H   0  0  0  0  0  0  0  0  0  0  0  0
    1.9518   42.3142   50.2518 H   0  0  0  0  0  0  0  0  0  0  0  0
    3.6940   41.3140   51.3620 H   0  0  0  0  0  0  0  0  0  0  0  0
    6.2724   42.2187   50.1398 H   0  0  0  0  0  0  0  0  0  0  0  0
    5.7866   40.5400   50.5907 H   0  0  0  0  0  0  0  0  0  0  0  0
    6.6182   42.4035   47.8549 H   0  0  0  0  0  0  0  0  0  0  0  0
    5.8697   42.0288   45.5067 H   0  0  0  0  0  0  0  0  0  0  0  0
    3.0548   38.6899   42.6340 H   0  0  0  0  0  0  0  0  0  0  0  0
    3.5698   40.2067   41.8841 H   0  0  0  0  0  0  0  0  0  0  0  0
    4.9109   37.5197   41.8972 H   0  0  0  0  0  0  0  0  0  0  0  0
    5.0883   38.8266   40.7190 H   0  0  0  0  0  0  0  0  0  0  0  0
    7.0232   38.2011   42.6057 H   0  0  0  0  0  0  0  0  0  0  0  0
    6.8533   39.8338   41.9467 H   0  0  0  0  0  0  0  0  0  0  0  0
    6.0811   38.7649   44.6416 H   0  0  0  0  0  0  0  0  0  0  0  0
    6.4322   40.4376   44.1868 H   0  0  0  0  0  0  0  0  0  0  0  0
    2.5934   39.5867   46.9400 H   0  0  0  0  0  0  0  0  0  0  0  0
    3.3397   39.9622   49.2887 H   0  0  0  0  0  0  0  0  0  0  0  0
    6.2686   43.7748   51.6047 H   0  0  0  0  0  0  0  0  0  0  0  0
  1  2  1  0
  2  3  1  0
  3  4  2  0
  4  5  1  0
  5  6  1  0
  6  7  1  0
  7  8  2  0
  8  9  1  0
  9 10  2  0
 10 11  1  0
 10 12  1  0
 12 13  1  0
 13 14  1  0
 14 15  1  0
 15 16  2  0
 16 17  1  0
 17 18  2  0
 18 19  1  0
 19 20  2  0
 19 21  1  0
 21 22  1  0
 22 23  1  0
 23 24  1  0
 24 25  1  0
 18 26  1  0
 26 27  2  0
 12 28  2  0
  6 29  2  0
 29  3  1  0
 28  7  1  0
 27 15  1  0
 25 21  1  0
  1 30  1  0
  1 31  1  0
  1 32  1  0
  2 33  1  0
  2 34  1  0
  8 35  1  0
  9 36  1  0
 11 37  1  0
 11 38  1  0
 11 39  1  0
 13 40  1  0
 14 41  1  0
 14 42  1  0
 16 43  1  0
 17 44  1  0
 22 45  1  0
 22 46  1  0
 23 47  1  0
 23 48  1  0
 24 49  1  0
 24 50  1  0
 25 51  1  0
 25 52  1  0
 26 53  1  0
 27 54  1  0
 28 55  1  0
M  END
>  <meeko>  (5) 
{"is_sidechain": [false], "free_energy": -8.71, "intermolecular_energy": -12.084, "internal_energy": -0.743}

$$$$
