MODEL 1
REMARK VINA RESULT:   -11.398      0.000      0.000
REMARK INTER + INTRA:         -13.237
REMARK INTER:                 -13.397
REMARK INTRA:                   0.160
REMARK UNBOUND:                 0.160
REMARK SMILES O=c1[nH]c(CN2CCC(c3nc4ccccc4[nH]3)CC2)nc2c1oc1ccccc12
REMARK SMILES IDX 6 1 7 2 8 3 9 4 19 5 20 6 5 7 4 8 1 9 2 10 3 11 23 12 24 13
REMARK SMILES IDX 22 14 21 15 25 16 30 17 26 18 29 19 27 20 28 21 10 23 11 24
REMARK SMILES IDX 18 25 12 26 17 27 13 28 16 29 14 30 15 31
REMARK H PARENT 3 22 18 32
ROOT
ATOM      1  N   UNL     1       1.813  44.586  53.166  1.00  0.00    -0.296 NA
ATOM      2  C   UNL     1       2.010  45.063  54.561  1.00  0.00     0.086 C 
ATOM      3  C   UNL     1       3.434  45.577  54.812  1.00  0.00     0.027 C 
ATOM      4  C   UNL     1       3.747  46.786  53.904  1.00  0.00     0.058 C 
ATOM      5  C   UNL     1       2.993  46.714  52.555  1.00  0.00     0.027 C 
ATOM      6  C   UNL     1       2.684  45.263  52.167  1.00  0.00     0.086 C 
ENDROOT
BRANCH   1   7
ATOM      7  C   UNL     1       1.938  43.115  53.078  1.00  0.00     0.159 C 
BRANCH   7   8
ATOM      8  C   UNL     1       2.929  42.721  52.020  1.00  0.00     0.124 A 
ATOM      9  O   UNL     1       3.351  40.243  49.523  1.00  0.00    -0.265 OA
ATOM     10  C   UNL     1       3.568  41.258  50.239  1.00  0.00     0.294 A 
ATOM     11  N   UNL     1       2.695  41.620  51.228  1.00  0.00    -0.306 N 
ATOM     12  C   UNL     1       4.698  42.038  50.047  1.00  0.00     0.218 A 
ATOM     13  O   UNL     1       5.672  41.901  49.169  1.00  0.00    -0.449 OA
ATOM     14  C   UNL     1       4.902  43.130  50.843  1.00  0.00     0.124 A 
ATOM     15  N   UNL     1       4.043  43.491  51.823  1.00  0.00    -0.229 NA
ATOM     16  C   UNL     1       6.509  42.900  49.389  1.00  0.00     0.137 A 
ATOM     17  C   UNL     1       6.074  43.701  50.428  1.00  0.00     0.047 A 
ATOM     18  C   UNL     1       7.693  43.182  48.711  1.00  0.00     0.048 A 
ATOM     19  C   UNL     1       6.781  44.821  50.854  1.00  0.00     0.014 A 
ATOM     20  C   UNL     1       8.434  44.309  49.118  1.00  0.00     0.004 A 
ATOM     21  C   UNL     1       7.981  45.122  50.183  1.00  0.00     0.001 A 
ATOM     22  H   UNL     1       1.833  41.047  51.382  1.00  0.00     0.171 HD
ENDBRANCH   7   8
ENDBRANCH   1   7
BRANCH   4  23
ATOM     23  C   UNL     1       5.233  46.908  53.695  1.00  0.00     0.110 A 
ATOM     24  N   UNL     1       5.789  47.737  52.768  1.00  0.00    -0.233 NA
ATOM     25  N   UNL     1       6.144  46.186  54.395  1.00  0.00    -0.342 N 
ATOM     26  C   UNL     1       7.105  47.509  52.918  1.00  0.00     0.089 A 
ATOM     27  C   UNL     1       7.321  46.581  53.891  1.00  0.00     0.065 A 
ATOM     28  C   UNL     1       8.157  48.095  52.217  1.00  0.00     0.030 A 
ATOM     29  C   UNL     1       8.600  46.159  54.247  1.00  0.00     0.028 A 
ATOM     30  C   UNL     1       9.466  47.696  52.547  1.00  0.00     0.002 A 
ATOM     31  C   UNL     1       9.687  46.731  53.558  1.00  0.00     0.002 A 
ATOM     32  H   UNL     1       5.972  45.485  55.149  1.00  0.00     0.168 HD
ENDBRANCH   4  23
TORSDOF 3
ENDMDL
MODEL 2
REMARK VINA RESULT:   -11.058      2.797      5.856
REMARK INTER + INTRA:         -12.838
REMARK INTER:                 -12.471
REMARK INTRA:                  -0.367
REMARK UNBOUND:                 0.160
REMARK SMILES O=c1[nH]c(CN2CCC(c3nc4ccccc4[nH]3)CC2)nc2c1oc1ccccc12
REMARK SMILES IDX 6 1 7 2 8 3 9 4 19 5 20 6 5 7 4 8 1 9 2 10 3 11 23 12 24 13
REMARK SMILES IDX 22 14 21 15 25 16 30 17 26 18 29 19 27 20 28 21 10 23 11 24
REMARK SMILES IDX 18 25 12 26 17 27 13 28 16 29 14 30 15 31
REMARK H PARENT 3 22 18 32
ROOT
ATOM      1  N   UNL     1       3.464  43.155  51.216  1.00  0.00    -0.296 NA
ATOM      2  C   UNL     1       2.942  44.543  51.324  1.00  0.00     0.086 C 
ATOM      3  C   UNL     1       3.981  45.522  51.888  1.00  0.00     0.027 C 
ATOM      4  C   UNL     1       5.212  45.605  50.959  1.00  0.00     0.058 C 
ATOM      5  C   UNL     1       5.474  44.275  50.214  1.00  0.00     0.027 C 
ATOM      6  C   UNL     1       4.936  43.077  51.007  1.00  0.00     0.086 C 
ENDROOT
BRANCH   1   7
ATOM      7  C   UNL     1       3.041  42.329  52.366  1.00  0.00     0.159 C 
BRANCH   7   8
ATOM      8  C   UNL     1       1.693  42.759  52.871  1.00  0.00     0.124 A 
ATOM      9  O   UNL     1      -1.738  42.186  52.193  1.00  0.00    -0.265 OA
ATOM     10  C   UNL     1      -0.693  42.627  52.742  1.00  0.00     0.294 A 
ATOM     11  N   UNL     1       0.546  42.274  52.282  1.00  0.00    -0.306 N 
ATOM     12  C   UNL     1      -0.765  43.485  53.829  1.00  0.00     0.218 A 
ATOM     13  O   UNL     1      -1.826  43.961  54.451  1.00  0.00    -0.449 OA
ATOM     14  C   UNL     1       0.388  43.945  54.399  1.00  0.00     0.124 A 
ATOM     15  N   UNL     1       1.615  43.600  53.947  1.00  0.00    -0.229 NA
ATOM     16  C   UNL     1      -1.368  44.730  55.424  1.00  0.00     0.137 A 
ATOM     17  C   UNL     1       0.014  44.755  55.436  1.00  0.00     0.047 A 
ATOM     18  C   UNL     1      -2.108  45.452  56.357  1.00  0.00     0.048 A 
ATOM     19  C   UNL     1       0.739  45.491  56.368  1.00  0.00     0.014 A 
ATOM     20  C   UNL     1      -1.404  46.209  57.314  1.00  0.00     0.004 A 
ATOM     21  C   UNL     1       0.010  46.229  57.318  1.00  0.00     0.001 A 
ATOM     22  H   UNL     1       0.621  41.621  51.467  1.00  0.00     0.171 HD
ENDBRANCH   7   8
ENDBRANCH   1   7
BRANCH   4  23
ATOM     23  C   UNL     1       6.424  46.042  51.739  1.00  0.00     0.110 A 
ATOM     24  N   UNL     1       7.692  45.964  51.250  1.00  0.00    -0.233 NA
ATOM     25  N   UNL     1       6.357  46.530  53.004  1.00  0.00    -0.342 N 
ATOM     26  C   UNL     1       8.432  46.432  52.270  1.00  0.00     0.089 A 
ATOM     27  C   UNL     1       7.635  46.772  53.321  1.00  0.00     0.065 A 
ATOM     28  C   UNL     1       9.817  46.577  52.322  1.00  0.00     0.030 A 
ATOM     29  C   UNL     1       8.150  47.284  54.510  1.00  0.00     0.028 A 
ATOM     30  C   UNL     1      10.377  47.093  53.507  1.00  0.00     0.002 A 
ATOM     31  C   UNL     1       9.546  47.444  54.597  1.00  0.00     0.002 A 
ATOM     32  H   UNL     1       5.509  46.680  53.595  1.00  0.00     0.168 HD
ENDBRANCH   4  23
TORSDOF 3
ENDMDL
MODEL 3
REMARK VINA RESULT:   -10.753      3.977      7.114
REMARK INTER + INTRA:         -12.479
REMARK INTER:                 -11.982
REMARK INTRA:                  -0.496
REMARK UNBOUND:                 0.160
REMARK SMILES O=c1[nH]c(CN2CCC(c3nc4ccccc4[nH]3)CC2)nc2c1oc1ccccc12
REMARK SMILES IDX 6 1 7 2 8 3 9 4 19 5 20 6 5 7 4 8 1 9 2 10 3 11 23 12 24 13
REMARK SMILES IDX 22 14 21 15 25 16 30 17 26 18 29 19 27 20 28 21 10 23 11 24
REMARK SMILES IDX 18 25 12 26 17 27 13 28 16 29 14 30 15 31
REMARK H PARENT 3 22 18 32
ROOT
ATOM      1  N   UNL     1       2.203  44.639  52.790  1.00  0.00    -0.296 NA
ATOM      2  C   UNL     1       2.098  46.119  52.902  1.00  0.00     0.086 C 
ATOM      3  C   UNL     1       3.466  46.795  53.065  1.00  0.00     0.027 C 
ATOM      4  C   UNL     1       4.358  46.527  51.832  1.00  0.00     0.058 C 
ATOM      5  C   UNL     1       4.052  45.159  51.176  1.00  0.00     0.027 C 
ATOM      6  C   UNL     1       3.484  44.166  52.198  1.00  0.00     0.086 C 
ENDROOT
BRANCH   1   7
ATOM      7  C   UNL     1       1.935  43.981  54.086  1.00  0.00     0.159 C 
BRANCH   7   8
ATOM      8  C   UNL     1       0.684  44.521  54.716  1.00  0.00     0.124 A 
ATOM      9  O   UNL     1      -2.831  44.321  54.311  1.00  0.00    -0.265 OA
ATOM     10  C   UNL     1      -1.705  44.633  54.785  1.00  0.00     0.294 A 
ATOM     11  N   UNL     1      -0.550  44.178  54.210  1.00  0.00    -0.306 N 
ATOM     12  C   UNL     1      -1.602  45.448  55.902  1.00  0.00     0.218 A 
ATOM     13  O   UNL     1      -2.555  46.001  56.627  1.00  0.00    -0.449 OA
ATOM     14  C   UNL     1      -0.365  45.767  56.388  1.00  0.00     0.124 A 
ATOM     15  N   UNL     1       0.780  45.320  55.823  1.00  0.00    -0.229 NA
ATOM     16  C   UNL     1      -1.943  46.678  57.583  1.00  0.00     0.137 A 
ATOM     17  C   UNL     1      -0.569  46.565  57.479  1.00  0.00     0.047 A 
ATOM     18  C   UNL     1      -2.528  47.431  58.599  1.00  0.00     0.048 A 
ATOM     19  C   UNL     1       0.300  47.186  58.371  1.00  0.00     0.014 A 
ATOM     20  C   UNL     1      -1.675  48.074  59.518  1.00  0.00     0.004 A 
ATOM     21  C   UNL     1      -0.270  47.953  59.403  1.00  0.00     0.001 A 
ATOM     22  H   UNL     1      -0.609  43.555  53.371  1.00  0.00     0.171 HD
ENDBRANCH   7   8
ENDBRANCH   1   7
BRANCH   4  23
ATOM     23  C   UNL     1       5.812  46.640  52.208  1.00  0.00     0.110 A 
ATOM     24  N   UNL     1       6.240  47.243  53.351  1.00  0.00    -0.233 NA
ATOM     25  N   UNL     1       6.820  46.173  51.428  1.00  0.00    -0.342 N 
ATOM     26  C   UNL     1       7.577  47.130  53.262  1.00  0.00     0.089 A 
ATOM     27  C   UNL     1       7.926  46.489  52.112  1.00  0.00     0.065 A 
ATOM     28  C   UNL     1       8.532  47.579  54.171  1.00  0.00     0.030 A 
ATOM     29  C   UNL     1       9.255  46.243  51.772  1.00  0.00     0.028 A 
ATOM     30  C   UNL     1       9.888  47.349  53.864  1.00  0.00     0.002 A 
ATOM     31  C   UNL     1      10.247  46.684  52.668  1.00  0.00     0.002 A 
ATOM     32  H   UNL     1       6.751  45.681  50.509  1.00  0.00     0.168 HD
ENDBRANCH   4  23
TORSDOF 3
ENDMDL
MODEL 4
REMARK VINA RESULT:   -10.472      2.861      5.997
REMARK INTER + INTRA:         -12.148
REMARK INTER:                 -12.458
REMARK INTRA:                   0.309
REMARK UNBOUND:                 0.160
REMARK SMILES O=c1[nH]c(CN2CCC(c3nc4ccccc4[nH]3)CC2)nc2c1oc1ccccc12
REMARK SMILES IDX 6 1 7 2 8 3 9 4 19 5 20 6 5 7 4 8 1 9 2 10 3 11 23 12 24 13
REMARK SMILES IDX 22 14 21 15 25 16 30 17 26 18 29 19 27 20 28 21 10 23 11 24
REMARK SMILES IDX 18 25 12 26 17 27 13 28 16 29 14 30 15 31
REMARK H PARENT 3 22 18 32
ROOT
ATOM      1  N   UNL     1       3.538  43.264  50.931  1.00  0.00    -0.296 NA
ATOM      2  C   UNL     1       3.062  44.673  50.893  1.00  0.00     0.086 C 
ATOM      3  C   UNL     1       4.069  45.652  51.511  1.00  0.00     0.027 C 
ATOM      4  C   UNL     1       5.399  45.634  50.726  1.00  0.00     0.058 C 
ATOM      5  C   UNL     1       5.690  44.250  50.100  1.00  0.00     0.027 C 
ATOM      6  C   UNL     1       5.019  43.125  50.899  1.00  0.00     0.086 C 
ENDROOT
BRANCH   1   7
ATOM      7  C   UNL     1       2.954  42.530  52.074  1.00  0.00     0.159 C 
BRANCH   7   8
ATOM      8  C   UNL     1       2.774  43.434  53.260  1.00  0.00     0.124 A 
ATOM      9  O   UNL     1       4.726  45.465  55.410  1.00  0.00    -0.265 OA
ATOM     10  C   UNL     1       3.723  44.907  54.890  1.00  0.00     0.294 A 
ATOM     11  N   UNL     1       3.864  44.056  53.828  1.00  0.00    -0.306 N 
ATOM     12  C   UNL     1       2.445  45.136  55.377  1.00  0.00     0.218 A 
ATOM     13  O   UNL     1       2.054  45.907  56.373  1.00  0.00    -0.449 OA
ATOM     14  C   UNL     1       1.381  44.512  54.789  1.00  0.00     0.124 A 
ATOM     15  N   UNL     1       1.515  43.669  53.740  1.00  0.00    -0.229 NA
ATOM     16  C   UNL     1       0.739  45.788  56.436  1.00  0.00     0.137 A 
ATOM     17  C   UNL     1       0.265  44.925  55.465  1.00  0.00     0.047 A 
ATOM     18  C   UNL     1      -0.129  46.412  57.328  1.00  0.00     0.048 A 
ATOM     19  C   UNL     1      -1.087  44.634  55.322  1.00  0.00     0.014 A 
ATOM     20  C   UNL     1      -1.506  46.137  57.211  1.00  0.00     0.004 A 
ATOM     21  C   UNL     1      -1.981  45.253  56.215  1.00  0.00     0.001 A 
ATOM     22  H   UNL     1       4.820  43.876  53.442  1.00  0.00     0.171 HD
ENDBRANCH   7   8
ENDBRANCH   1   7
BRANCH   4  23
ATOM     23  C   UNL     1       6.531  46.082  51.613  1.00  0.00     0.110 A 
ATOM     24  N   UNL     1       7.838  46.037  51.232  1.00  0.00    -0.233 NA
ATOM     25  N   UNL     1       6.348  46.546  52.875  1.00  0.00    -0.342 N 
ATOM     26  C   UNL     1       8.479  46.503  52.318  1.00  0.00     0.089 A 
ATOM     27  C   UNL     1       7.589  46.809  53.303  1.00  0.00     0.065 A 
ATOM     28  C   UNL     1       9.851  46.676  52.488  1.00  0.00     0.030 A 
ATOM     29  C   UNL     1       7.992  47.311  54.539  1.00  0.00     0.028 A 
ATOM     30  C   UNL     1      10.298  47.182  53.724  1.00  0.00     0.002 A 
ATOM     31  C   UNL     1       9.372  47.498  54.745  1.00  0.00     0.002 A 
ATOM     32  H   UNL     1       5.451  46.669  53.395  1.00  0.00     0.168 HD
ENDBRANCH   4  23
TORSDOF 3
ENDMDL
MODEL 5
REMARK VINA RESULT:   -10.412      3.291      6.149
REMARK INTER + INTRA:         -12.078
REMARK INTER:                 -11.624
REMARK INTRA:                  -0.453
REMARK UNBOUND:                 0.160
REMARK SMILES O=c1[nH]c(CN2CCC(c3nc4ccccc4[nH]3)CC2)nc2c1oc1ccccc12
REMARK SMILES IDX 6 1 7 2 8 3 9 4 19 5 20 6 5 7 4 8 1 9 2 10 3 11 23 12 24 13
REMARK SMILES IDX 22 14 21 15 25 16 30 17 26 18 29 19 27 20 28 21 10 23 11 24
REMARK SMILES IDX 18 25 12 26 17 27 13 28 16 29 14 30 15 31
REMARK H PARENT 3 22 18 32
ROOT
ATOM      1  N   UNL     1       1.621  43.416  52.024  1.00  0.00    -0.296 NA
ATOM      2  C   UNL     1       0.632  42.543  52.712  1.00  0.00     0.086 C 
ATOM      3  C   UNL     1       0.217  43.091  54.084  1.00  0.00     0.027 C 
ATOM      4  C   UNL     1      -0.466  44.469  53.937  1.00  0.00     0.058 C 
ATOM      5  C   UNL     1       0.079  45.265  52.728  1.00  0.00     0.027 C 
ATOM      6  C   UNL     1       1.518  44.854  52.392  1.00  0.00     0.086 C 
ENDROOT
BRANCH   1   7
ATOM      7  C   UNL     1       2.999  42.913  52.205  1.00  0.00     0.159 C 
BRANCH   7   8
ATOM      8  C   UNL     1       3.859  43.934  52.894  1.00  0.00     0.124 A 
ATOM      9  O   UNL     1       4.047  45.634  55.998  1.00  0.00    -0.265 OA
ATOM     10  C   UNL     1       4.337  45.254  54.832  1.00  0.00     0.294 A 
ATOM     11  N   UNL     1       3.553  44.348  54.172  1.00  0.00    -0.306 N 
ATOM     12  C   UNL     1       5.459  45.743  54.181  1.00  0.00     0.218 A 
ATOM     13  O   UNL     1       6.362  46.608  54.601  1.00  0.00    -0.449 OA
ATOM     14  C   UNL     1       5.743  45.311  52.916  1.00  0.00     0.124 A 
ATOM     15  N   UNL     1       4.971  44.416  52.258  1.00  0.00    -0.229 NA
ATOM     16  C   UNL     1       7.233  46.740  53.615  1.00  0.00     0.137 A 
ATOM     17  C   UNL     1       6.892  45.948  52.535  1.00  0.00     0.047 A 
ATOM     18  C   UNL     1       8.368  47.546  53.586  1.00  0.00     0.048 A 
ATOM     19  C   UNL     1       7.652  45.907  51.370  1.00  0.00     0.014 A 
ATOM     20  C   UNL     1       9.160  47.529  52.421  1.00  0.00     0.004 A 
ATOM     21  C   UNL     1       8.803  46.716  51.320  1.00  0.00     0.001 A 
ATOM     22  H   UNL     1       2.706  43.962  54.651  1.00  0.00     0.171 HD
ENDBRANCH   7   8
ENDBRANCH   1   7
BRANCH   4  23
ATOM     23  C   UNL     1      -0.330  45.255  55.215  1.00  0.00     0.110 A 
ATOM     24  N   UNL     1       0.808  45.269  55.963  1.00  0.00    -0.233 NA
ATOM     25  N   UNL     1      -1.336  45.998  55.742  1.00  0.00    -0.342 N 
ATOM     26  C   UNL     1       0.475  46.065  56.994  1.00  0.00     0.089 A 
ATOM     27  C   UNL     1      -0.808  46.503  56.863  1.00  0.00     0.065 A 
ATOM     28  C   UNL     1       1.270  46.434  58.077  1.00  0.00     0.030 A 
ATOM     29  C   UNL     1      -1.406  47.343  57.800  1.00  0.00     0.028 A 
ATOM     30  C   UNL     1       0.703  47.284  59.046  1.00  0.00     0.002 A 
ATOM     31  C   UNL     1      -0.631  47.736  58.908  1.00  0.00     0.002 A 
ATOM     32  H   UNL     1      -2.299  46.142  55.364  1.00  0.00     0.168 HD
ENDBRANCH   4  23
TORSDOF 3
ENDMDL
