ligand_44_conformer_2_docked
     RDKit          3D

 47 50  0  0  0  0  0  0  0  0999 V2000
    4.6700   42.3730   50.8200 C   0  0  0  0  0  0  0  0  0  0  0  0
    5.6720   43.3710   50.9710 O   0  0  0  0  0  0  0  0  0  0  0  0
    5.5720   44.4010   51.9110 C   0  0  0  0  0  0  0  0  0  0  0  0
    5.6000   44.1440   53.1460 O   0  0  0  0  0  0  0  0  0  0  0  0
    5.4620   45.8230   51.4330 C   0  0  2  0  0  0  0  0  0  0  0  0
    6.7760   46.3130   50.8150 C   0  0  0  0  0  0  0  0  0  0  0  0
    7.8150   46.5440   51.8690 C   0  0  0  0  0  0  0  0  0  0  0  0
    9.1720   46.3120   51.5890 C   0  0  0  0  0  0  0  0  0  0  0  0
   10.1420   46.5610   52.5630 C   0  0  0  0  0  0  0  0  0  0  0  0
    9.7670   47.0580   53.8130 C   0  0  0  0  0  0  0  0  0  0  0  0
    8.4210   47.3060   54.0920 C   0  0  0  0  0  0  0  0  0  0  0  0
    7.4350   47.0450   53.1260 C   0  0  0  0  0  0  0  0  0  0  0  0
    5.9910   47.3600   53.4380 C   0  0  0  0  0  0  0  0  0  0  0  0
    5.0220   46.7070   52.5330 N   0  0  0  0  0  0  0  0  0  0  0  0
    3.6150   46.8560   52.8360 C   0  0  0  0  0  0  0  0  0  0  0  0
    2.9930   47.8800   52.4420 O   0  0  0  0  0  0  0  0  0  0  0  0
    2.8750   45.8320   53.6600 C   0  0  1  0  0  0  0  0  0  0  0  0
    1.3450   45.9310   53.6270 C   0  0  0  0  0  0  0  0  0  0  0  0
    2.0520   44.8000   52.8860 C   0  0  0  0  0  0  0  0  0  0  0  0
    1.9930   44.8590   51.3500 C   0  0  0  0  0  0  0  0  0  0  0  0
    0.8890   43.9170   50.8610 C   0  0  0  0  0  0  0  0  0  0  0  0
    1.0620   42.6130   51.3870 O   0  0  0  0  0  0  0  0  0  0  0  0
    0.8480   42.6180   52.7890 C   0  0  0  0  0  0  0  0  0  0  0  0
    1.9460   43.4060   53.5100 C   0  0  0  0  0  0  0  0  0  0  0  0
    4.3337   42.0380   51.8123 H   0  0  0  0  0  0  0  0  0  0  0  0
    3.8169   42.7909   50.2655 H   0  0  0  0  0  0  0  0  0  0  0  0
    5.0845   41.5182   50.2655 H   0  0  0  0  0  0  0  0  0  0  0  0
    4.7002   45.8562   50.6402 H   0  0  0  0  0  0  0  0  0  0  0  0
    7.1444   45.5558   50.1073 H   0  0  0  0  0  0  0  0  0  0  0  0
    6.5852   47.2651   50.2982 H   0  0  0  0  0  0  0  0  0  0  0  0
    9.4714   45.9334   50.6006 H   0  0  0  0  0  0  0  0  0  0  0  0
   11.2023   46.3654   52.3451 H   0  0  0  0  0  0  0  0  0  0  0  0
   10.5322   47.2543   54.5785 H   0  0  0  0  0  0  0  0  0  0  0  0
    8.1313   47.7081   55.0740 H   0  0  0  0  0  0  0  0  0  0  0  0
    5.7798   47.0305   54.4660 H   0  0  0  0  0  0  0  0  0  0  0  0
    5.8672   48.4450   53.3058 H   0  0  0  0  0  0  0  0  0  0  0  0
    3.6414   45.7814   54.4474 H   0  0  0  0  0  0  0  0  0  0  0  0
    0.7602   45.7138   54.5330 H   0  0  0  0  0  0  0  0  0  0  0  0
    0.6220   46.7115   53.3473 H   0  0  0  0  0  0  0  0  0  0  0  0
    1.7710   45.8871   51.0279 H   0  0  0  0  0  0  0  0  0  0  0  0
    2.9607   44.5513   50.9271 H   0  0  0  0  0  0  0  0  0  0  0  0
   -0.0868   44.3084   51.1844 H   0  0  0  0  0  0  0  0  0  0  0  0
    0.9381   43.8607   49.7635 H   0  0  0  0  0  0  0  0  0  0  0  0
   -0.1264   43.0817   53.0023 H   0  0  0  0  0  0  0  0  0  0  0  0
    0.8682   41.5791   53.1499 H   0  0  0  0  0  0  0  0  0  0  0  0
    1.6939   43.4978   54.5768 H   0  0  0  0  0  0  0  0  0  0  0  0
    2.9070   42.8803   53.4097 H   0  0  0  0  0  0  0  0  0  0  0  0
  1  2  1  0
  2  3  1  0
  3  4  2  0
  3  5  1  0
  5  6  1  0
  6  7  1  0
  7  8  2  0
  8  9  1  0
  9 10  2  0
 10 11  1  0
 11 12  2  0
 12 13  1  0
 13 14  1  0
 14 15  1  0
 15 16  2  0
 15 17  1  0
 17 18  1  0
 18 19  1  0
 19 20  1  0
 20 21  1  0
 21 22  1  0
 22 23  1  0
 23 24  1  0
 14  5  1  0
 19 17  1  0
 12  7  1  0
 24 19  1  0
  1 25  1  0
  1 26  1  0
  1 27  1  0
  5 28  1  6
  6 29  1  0
  6 30  1  0
  8 31  1  0
  9 32  1  0
 10 33  1  0
 11 34  1  0
 13 35  1  0
 13 36  1  0
 17 37  1  1
 18 38  1  0
 18 39  1  0
 20 40  1  0
 20 41  1  0
 21 42  1  0
 21 43  1  0
 23 44  1  0
 23 45  1  0
 24 46  1  0
 24 47  1  0
M  END
>  <meeko>  (1) 
{"is_sidechain": [false], "free_energy": -8.758, "intermolecular_energy": -10.806, "internal_energy": -0.174}

$$$$
ligand_44_conformer_2_docked
     RDKit          3D

 47 50  0  0  0  0  0  0  0  0999 V2000
    3.0700   47.4530   52.3720 C   0  0  0  0  0  0  0  0  0  0  0  0
    4.0700   47.0210   53.2860 O   0  0  0  0  0  0  0  0  0  0  0  0
    3.8860   45.9310   54.1420 C   0  0  0  0  0  0  0  0  0  0  0  0
    2.9800   45.9540   55.0210 O   0  0  0  0  0  0  0  0  0  0  0  0
    4.7610   44.7180   53.9850 C   0  0  2  0  0  0  0  0  0  0  0  0
    6.1650   44.9580   54.5530 C   0  0  0  0  0  0  0  0  0  0  0  0
    6.9530   45.8800   53.6750 C   0  0  0  0  0  0  0  0  0  0  0  0
    7.8870   46.7670   54.2350 C   0  0  0  0  0  0  0  0  0  0  0  0
    8.6460   47.6010   53.4110 C   0  0  0  0  0  0  0  0  0  0  0  0
    8.4890   47.5440   52.0240 C   0  0  0  0  0  0  0  0  0  0  0  0
    7.5730   46.6540   51.4600 C   0  0  0  0  0  0  0  0  0  0  0  0
    6.7940   45.8200   52.2790 C   0  0  0  0  0  0  0  0  0  0  0  0
    5.8400   44.8380   51.6430 C   0  0  0  0  0  0  0  0  0  0  0  0
    4.8200   44.3020   52.5670 N   0  0  0  0  0  0  0  0  0  0  0  0
    3.7910   43.4490   52.0110 C   0  0  0  0  0  0  0  0  0  0  0  0
    3.9460   42.1970   52.0130 O   0  0  0  0  0  0  0  0  0  0  0  0
    2.5480   44.0240   51.3800 C   0  0  1  0  0  0  0  0  0  0  0  0
    1.4630   43.0080   51.0020 C   0  0  0  0  0  0  0  0  0  0  0  0
    1.2600   43.9300   52.2010 C   0  0  0  0  0  0  0  0  0  0  0  0
    1.2770   43.2530   53.5820 C   0  0  0  0  0  0  0  0  0  0  0  0
   -0.1670   43.0350   54.0440 C   0  0  0  0  0  0  0  0  0  0  0  0
   -0.9040   44.2450   53.9980 O   0  0  0  0  0  0  0  0  0  0  0  0
   -1.0810   44.6600   52.6540 C   0  0  0  0  0  0  0  0  0  0  0  0
    0.2530   45.0690   52.0220 C   0  0  0  0  0  0  0  0  0  0  0  0
    2.2002   47.8288   52.9308 H   0  0  0  0  0  0  0  0  0  0  0  0
    3.4743   48.2567   51.7391 H   0  0  0  0  0  0  0  0  0  0  0  0
    2.7619   46.6077   51.7391 H   0  0  0  0  0  0  0  0  0  0  0  0
    4.3122   43.8991   54.5663 H   0  0  0  0  0  0  0  0  0  0  0  0
    6.0756   45.4048   55.5542 H   0  0  0  0  0  0  0  0  0  0  0  0
    6.6898   43.9927   54.6050 H   0  0  0  0  0  0  0  0  0  0  0  0
    8.0211   46.8049   55.3261 H   0  0  0  0  0  0  0  0  0  0  0  0
    9.3676   48.3030   53.8543 H   0  0  0  0  0  0  0  0  0  0  0  0
    9.0876   48.2009   51.3757 H   0  0  0  0  0  0  0  0  0  0  0  0
    7.4606   46.6056   50.3668 H   0  0  0  0  0  0  0  0  0  0  0  0
    5.3233   45.3455   50.8151 H   0  0  0  0  0  0  0  0  0  0  0  0
    6.4438   43.9822   51.3068 H   0  0  0  0  0  0  0  0  0  0  0  0
    3.0797   44.8347   50.8603 H   0  0  0  0  0  0  0  0  0  0  0  0
    0.8671   43.1539   50.0890 H   0  0  0  0  0  0  0  0  0  0  0  0
    1.4376   41.9196   50.8448 H   0  0  0  0  0  0  0  0  0  0  0  0
    1.7929   42.2840   53.5121 H   0  0  0  0  0  0  0  0  0  0  0  0
    1.8076   43.8911   54.3040 H   0  0  0  0  0  0  0  0  0  0  0  0
   -0.6474   42.2961   53.3858 H   0  0  0  0  0  0  0  0  0  0  0  0
   -0.1515   42.6738   55.0829 H   0  0  0  0  0  0  0  0  0  0  0  0
   -1.5128   43.8298   52.0757 H   0  0  0  0  0  0  0  0  0  0  0  0
   -1.7537   45.5303   52.6432 H   0  0  0  0  0  0  0  0  0  0  0  0
    0.1076   45.2674   50.9499 H   0  0  0  0  0  0  0  0  0  0  0  0
    0.6314   45.9794   52.5099 H   0  0  0  0  0  0  0  0  0  0  0  0
  1  2  1  0
  2  3  1  0
  3  4  2  0
  3  5  1  0
  5  6  1  0
  6  7  1  0
  7  8  2  0
  8  9  1  0
  9 10  2  0
 10 11  1  0
 11 12  2  0
 12 13  1  0
 13 14  1  0
 14 15  1  0
 15 16  2  0
 15 17  1  0
 17 18  1  0
 18 19  1  0
 19 20  1  0
 20 21  1  0
 21 22  1  0
 22 23  1  0
 23 24  1  0
 14  5  1  0
 19 17  1  0
 12  7  1  0
 24 19  1  0
  1 25  1  0
  1 26  1  0
  1 27  1  0
  5 28  1  1
  6 29  1  0
  6 30  1  0
  8 31  1  0
  9 32  1  0
 10 33  1  0
 11 34  1  0
 13 35  1  0
 13 36  1  0
 17 37  1  6
 18 38  1  0
 18 39  1  0
 20 40  1  0
 20 41  1  0
 21 42  1  0
 21 43  1  0
 23 44  1  0
 23 45  1  0
 24 46  1  0
 24 47  1  0
M  END
>  <meeko>  (2) 
{"is_sidechain": [false], "free_energy": -8.224, "intermolecular_energy": -10.312, "internal_energy": -0.009}

$$$$
ligand_44_conformer_2_docked
     RDKit          3D

 47 50  0  0  0  0  0  0  0  0999 V2000
    6.0320   44.2030   50.2040 C   0  0  0  0  0  0  0  0  0  0  0  0
    5.0810   45.2600   50.1570 O   0  0  0  0  0  0  0  0  0  0  0  0
    4.1520   45.4810   51.1780 C   0  0  0  0  0  0  0  0  0  0  0  0
    3.0490   46.0430   50.9300 O   0  0  0  0  0  0  0  0  0  0  0  0
    4.4690   45.0130   52.5720 C   0  0  2  0  0  0  0  0  0  0  0  0
    3.8490   43.6400   52.8600 C   0  0  0  0  0  0  0  0  0  0  0  0
    2.3640   43.7410   53.0230 C   0  0  0  0  0  0  0  0  0  0  0  0
    1.5310   42.6880   52.6100 C   0  0  0  0  0  0  0  0  0  0  0  0
    0.1500   42.7700   52.7960 C   0  0  0  0  0  0  0  0  0  0  0  0
   -0.4080   43.8950   53.4080 C   0  0  0  0  0  0  0  0  0  0  0  0
    0.4160   44.9390   53.8350 C   0  0  0  0  0  0  0  0  0  0  0  0
    1.8050   44.8740   53.6410 C   0  0  0  0  0  0  0  0  0  0  0  0
    2.6770   45.9970   54.1490 C   0  0  0  0  0  0  0  0  0  0  0  0
    4.0360   46.0170   53.5670 N   0  0  0  0  0  0  0  0  0  0  0  0
    4.8960   47.1310   53.9050 C   0  0  0  0  0  0  0  0  0  0  0  0
    4.5900   48.2950   53.5280 O   0  0  0  0  0  0  0  0  0  0  0  0
    6.1850   46.9300   54.6600 C   0  0  1  0  0  0  0  0  0  0  0  0
    6.8770   45.5780   54.4450 C   0  0  0  0  0  0  0  0  0  0  0  0
    7.4600   46.8410   53.8190 C   0  0  0  0  0  0  0  0  0  0  0  0
    7.3780   46.9330   52.2860 C   0  0  0  0  0  0  0  0  0  0  0  0
    8.7300   46.5270   51.6920 C   0  0  0  0  0  0  0  0  0  0  0  0
    9.7850   47.2810   52.2650 O   0  0  0  0  0  0  0  0  0  0  0  0
    9.9450   46.9390   53.6310 C   0  0  0  0  0  0  0  0  0  0  0  0
    8.7380   47.3920   54.4580 C   0  0  0  0  0  0  0  0  0  0  0  0
    6.2542   43.9560   51.2526 H   0  0  0  0  0  0  0  0  0  0  0  0
    5.6209   43.3171   49.6978 H   0  0  0  0  0  0  0  0  0  0  0  0
    6.9562   44.5186   49.6978 H   0  0  0  0  0  0  0  0  0  0  0  0
    5.5602   44.8987   52.6512 H   0  0  0  0  0  0  0  0  0  0  0  0
    4.0730   42.9623   52.0230 H   0  0  0  0  0  0  0  0  0  0  0  0
    4.2772   43.2535   53.7966 H   0  0  0  0  0  0  0  0  0  0  0  0
    1.9685   41.7957   52.1384 H   0  0  0  0  0  0  0  0  0  0  0  0
   -0.4995   41.9481   52.4604 H   0  0  0  0  0  0  0  0  0  0  0  0
   -1.4964   43.9587   53.5537 H   0  0  0  0  0  0  0  0  0  0  0  0
   -0.0264   45.8180   54.3266 H   0  0  0  0  0  0  0  0  0  0  0  0
    2.1850   46.9514   53.9103 H   0  0  0  0  0  0  0  0  0  0  0  0
    2.7977   45.8401   55.2310 H   0  0  0  0  0  0  0  0  0  0  0  0
    5.8703   47.5209   55.5328 H   0  0  0  0  0  0  0  0  0  0  0  0
    7.3977   45.0876   55.2807 H   0  0  0  0  0  0  0  0  0  0  0  0
    6.5624   44.5951   54.0642 H   0  0  0  0  0  0  0  0  0  0  0  0
    6.5940   46.2555   51.9168 H   0  0  0  0  0  0  0  0  0  0  0  0
    7.1335   47.9629   51.9868 H   0  0  0  0  0  0  0  0  0  0  0  0
    8.9032   45.4588   51.8894 H   0  0  0  0  0  0  0  0  0  0  0  0
    8.7090   46.7211   50.6095 H   0  0  0  0  0  0  0  0  0  0  0  0
   10.0509   45.8476   53.7180 H   0  0  0  0  0  0  0  0  0  0  0  0
   10.8421   47.4464   54.0154 H   0  0  0  0  0  0  0  0  0  0  0  0
    8.8307   47.0101   55.4854 H   0  0  0  0  0  0  0  0  0  0  0  0
    8.6965   48.4909   54.4834 H   0  0  0  0  0  0  0  0  0  0  0  0
  1  2  1  0
  2  3  1  0
  3  4  2  0
  3  5  1  0
  5  6  1  0
  6  7  1  0
  7  8  2  0
  8  9  1  0
  9 10  2  0
 10 11  1  0
 11 12  2  0
 12 13  1  0
 13 14  1  0
 14 15  1  0
 15 16  2  0
 15 17  1  0
 17 18  1  0
 18 19  1  0
 19 20  1  0
 20 21  1  0
 21 22  1  0
 22 23  1  0
 23 24  1  0
 14  5  1  0
 19 17  1  0
 12  7  1  0
 24 19  1  0
  1 25  1  0
  1 26  1  0
  1 27  1  0
  5 28  1  6
  6 29  1  0
  6 30  1  0
  8 31  1  0
  9 32  1  0
 10 33  1  0
 11 34  1  0
 13 35  1  0
 13 36  1  0
 17 37  1  1
 18 38  1  0
 18 39  1  0
 20 40  1  0
 20 41  1  0
 21 42  1  0
 21 43  1  0
 23 44  1  0
 23 45  1  0
 24 46  1  0
 24 47  1  0
M  END
>  <meeko>  (3) 
{"is_sidechain": [false], "free_energy": -7.731, "intermolecular_energy": -9.988, "internal_energy": 0.275}

$$$$
ligand_44_conformer_2_docked
     RDKit          3D

 47 50  0  0  0  0  0  0  0  0999 V2000
    0.8170   45.3290   56.6370 C   0  0  0  0  0  0  0  0  0  0  0  0
    1.0750   45.4460   55.2430 O   0  0  0  0  0  0  0  0  0  0  0  0
    2.3680   45.5500   54.7230 C   0  0  0  0  0  0  0  0  0  0  0  0
    3.3320   44.9590   55.2840 O   0  0  0  0  0  0  0  0  0  0  0  0
    2.5930   46.3500   53.4700 C   0  0  2  0  0  0  0  0  0  0  0  0
    1.7720   45.8030   52.2970 C   0  0  0  0  0  0  0  0  0  0  0  0
    2.3350   44.5060   51.8020 C   0  0  0  0  0  0  0  0  0  0  0  0
    1.4830   43.5120   51.2910 C   0  0  0  0  0  0  0  0  0  0  0  0
    2.0140   42.3180   50.7980 C   0  0  0  0  0  0  0  0  0  0  0  0
    3.3960   42.1150   50.7970 C   0  0  0  0  0  0  0  0  0  0  0  0
    4.2490   43.1060   51.2880 C   0  0  0  0  0  0  0  0  0  0  0  0
    3.7260   44.3050   51.8000 C   0  0  0  0  0  0  0  0  0  0  0  0
    4.6710   45.3760   52.2890 C   0  0  0  0  0  0  0  0  0  0  0  0
    4.0330   46.4020   53.1390 N   0  0  0  0  0  0  0  0  0  0  0  0
    4.8900   47.3960   53.7510 C   0  0  0  0  0  0  0  0  0  0  0  0
    4.6430   48.6220   53.5870 O   0  0  0  0  0  0  0  0  0  0  0  0
    6.1100   47.0030   54.5450 C   0  0  1  0  0  0  0  0  0  0  0  0
    6.7100   45.6330   54.2060 C   0  0  0  0  0  0  0  0  0  0  0  0
    7.4260   46.9080   53.7690 C   0  0  0  0  0  0  0  0  0  0  0  0
    7.4480   47.1840   52.2570 C   0  0  0  0  0  0  0  0  0  0  0  0
    8.8010   46.7390   51.6920 C   0  0  0  0  0  0  0  0  0  0  0  0
    9.8710   47.3320   52.4080 O   0  0  0  0  0  0  0  0  0  0  0  0
    9.9180   46.8220   53.7300 C   0  0  0  0  0  0  0  0  0  0  0  0
    8.6980   47.2740   54.5390 C   0  0  0  0  0  0  0  0  0  0  0  0
    1.6761   45.7186   57.2029 H   0  0  0  0  0  0  0  0  0  0  0  0
   -0.0832   45.9069   56.8931 H   0  0  0  0  0  0  0  0  0  0  0  0
    0.6586   44.2710   56.8931 H   0  0  0  0  0  0  0  0  0  0  0  0
    2.2458   47.3768   53.6574 H   0  0  0  0  0  0  0  0  0  0  0  0
    0.7357   45.6414   52.6285 H   0  0  0  0  0  0  0  0  0  0  0  0
    1.8062   46.5343   51.4760 H   0  0  0  0  0  0  0  0  0  0  0  0
    0.3952   43.6748   51.2793 H   0  0  0  0  0  0  0  0  0  0  0  0
    1.3435   41.5370   50.4103 H   0  0  0  0  0  0  0  0  0  0  0  0
    3.8129   41.1738   50.4092 H   0  0  0  0  0  0  0  0  0  0  0  0
    5.3373   42.9466   51.2737 H   0  0  0  0  0  0  0  0  0  0  0  0
    5.4691   44.8926   52.8715 H   0  0  0  0  0  0  0  0  0  0  0  0
    5.0507   45.8951   51.3966 H   0  0  0  0  0  0  0  0  0  0  0  0
    5.7861   47.5123   55.4647 H   0  0  0  0  0  0  0  0  0  0  0  0
    7.1381   45.0076   55.0033 H   0  0  0  0  0  0  0  0  0  0  0  0
    6.3467   44.7304   53.6929 H   0  0  0  0  0  0  0  0  0  0  0  0
    6.6399   46.6212   51.7669 H   0  0  0  0  0  0  0  0  0  0  0  0
    7.3013   48.2583   52.0716 H   0  0  0  0  0  0  0  0  0  0  0  0
    8.8801   45.6445   51.7683 H   0  0  0  0  0  0  0  0  0  0  0  0
    8.8636   47.0579   50.6411 H   0  0  0  0  0  0  0  0  0  0  0  0
    9.9359   45.7228   53.6907 H   0  0  0  0  0  0  0  0  0  0  0  0
   10.8245   47.2060   54.2207 H   0  0  0  0  0  0  0  0  0  0  0  0
    8.6958   46.7690   55.5162 H   0  0  0  0  0  0  0  0  0  0  0  0
    8.7379   48.3621   54.6951 H   0  0  0  0  0  0  0  0  0  0  0  0
  1  2  1  0
  2  3  1  0
  3  4  2  0
  3  5  1  0
  5  6  1  0
  6  7  1  0
  7  8  2  0
  8  9  1  0
  9 10  2  0
 10 11  1  0
 11 12  2  0
 12 13  1  0
 13 14  1  0
 14 15  1  0
 15 16  2  0
 15 17  1  0
 17 18  1  0
 18 19  1  0
 19 20  1  0
 20 21  1  0
 21 22  1  0
 22 23  1  0
 23 24  1  0
 14  5  1  0
 19 17  1  0
 12  7  1  0
 24 19  1  0
  1 25  1  0
  1 26  1  0
  1 27  1  0
  5 28  1  1
  6 29  1  0
  6 30  1  0
  8 31  1  0
  9 32  1  0
 10 33  1  0
 11 34  1  0
 13 35  1  0
 13 36  1  0
 17 37  1  1
 18 38  1  0
 18 39  1  0
 20 40  1  0
 20 41  1  0
 21 42  1  0
 21 43  1  0
 23 44  1  0
 23 45  1  0
 24 46  1  0
 24 47  1  0
M  END
>  <meeko>  (4) 
{"is_sidechain": [false], "free_energy": -7.705, "intermolecular_energy": -10.358, "internal_energy": 0.677}

$$$$
ligand_44_conformer_2_docked
     RDKit          3D

 47 50  0  0  0  0  0  0  0  0999 V2000
    2.1500   45.3800   55.6720 C   0  0  0  0  0  0  0  0  0  0  0  0
    2.6190   44.6270   54.5590 O   0  0  0  0  0  0  0  0  0  0  0  0
    3.8120   44.9290   53.8960 C   0  0  0  0  0  0  0  0  0  0  0  0
    4.9250   44.6280   54.4100 O   0  0  0  0  0  0  0  0  0  0  0  0
    3.7540   45.5910   52.5460 C   0  0  2  0  0  0  0  0  0  0  0  0
    2.8350   44.8290   51.5850 C   0  0  0  0  0  0  0  0  0  0  0  0
    3.4630   43.5430   51.1420 C   0  0  0  0  0  0  0  0  0  0  0  0
    2.6650   42.4170   50.8820 C   0  0  0  0  0  0  0  0  0  0  0  0
    3.2500   41.2290   50.4350 C   0  0  0  0  0  0  0  0  0  0  0  0
    4.6300   41.1630   50.2320 C   0  0  0  0  0  0  0  0  0  0  0  0
    5.4270   42.2840   50.4750 C   0  0  0  0  0  0  0  0  0  0  0  0
    4.8520   43.4790   50.9370 C   0  0  0  0  0  0  0  0  0  0  0  0
    5.7310   44.6880   51.1530 C   0  0  0  0  0  0  0  0  0  0  0  0
    5.1130   45.7420   51.9840 N   0  0  0  0  0  0  0  0  0  0  0  0
    5.9310   46.8810   52.3430 C   0  0  0  0  0  0  0  0  0  0  0  0
    5.4300   47.8290   53.0080 O   0  0  0  0  0  0  0  0  0  0  0  0
    7.3680   46.9900   51.8980 C   0  0  1  0  0  0  0  0  0  0  0  0
    8.0180   48.3670   52.0810 C   0  0  0  0  0  0  0  0  0  0  0  0
    8.4080   47.2110   52.9990 C   0  0  0  0  0  0  0  0  0  0  0  0
    7.9600   47.3350   54.4650 C   0  0  0  0  0  0  0  0  0  0  0  0
    9.1400   47.8370   55.3020 C   0  0  0  0  0  0  0  0  0  0  0  0
   10.2840   47.0220   55.1090 O   0  0  0  0  0  0  0  0  0  0  0  0
   10.7730   47.1710   53.7870 C   0  0  0  0  0  0  0  0  0  0  0  0
    9.7880   46.5920   52.7670 C   0  0  0  0  0  0  0  0  0  0  0  0
    2.4579   44.8856   56.6051 H   0  0  0  0  0  0  0  0  0  0  0  0
    2.5772   46.3930   55.6355 H   0  0  0  0  0  0  0  0  0  0  0  0
    1.0524   45.4434   55.6355 H   0  0  0  0  0  0  0  0  0  0  0  0
    3.3235   46.5946   52.6782 H   0  0  0  0  0  0  0  0  0  0  0  0
    1.8859   44.6080   52.0953 H   0  0  0  0  0  0  0  0  0  0  0  0
    2.6610   45.4559   50.6980 H   0  0  0  0  0  0  0  0  0  0  0  0
    1.5764   42.4702   51.0306 H   0  0  0  0  0  0  0  0  0  0  0  0
    2.6232   40.3457   50.2430 H   0  0  0  0  0  0  0  0  0  0  0  0
    5.0897   40.2275   49.8805 H   0  0  0  0  0  0  0  0  0  0  0  0
    6.5122   42.2304   50.3034 H   0  0  0  0  0  0  0  0  0  0  0  0
    6.6573   44.3581   51.6460 H   0  0  0  0  0  0  0  0  0  0  0  0
    5.9116   45.1302   50.1621 H   0  0  0  0  0  0  0  0  0  0  0  0
    7.2576   46.2785   51.0664 H   0  0  0  0  0  0  0  0  0  0  0  0
    8.7332   48.7412   51.3337 H   0  0  0  0  0  0  0  0  0  0  0  0
    7.6432   49.3897   52.2346 H   0  0  0  0  0  0  0  0  0  0  0  0
    7.1257   48.0483   54.5374 H   0  0  0  0  0  0  0  0  0  0  0  0
    7.6279   46.3549   54.8380 H   0  0  0  0  0  0  0  0  0  0  0  0
    9.3790   48.8686   55.0041 H   0  0  0  0  0  0  0  0  0  0  0  0
    8.8574   47.7978   56.3644 H   0  0  0  0  0  0  0  0  0  0  0  0
   10.9207   48.2406   53.5769 H   0  0  0  0  0  0  0  0  0  0  0  0
   11.7246   46.6258   53.7026 H   0  0  0  0  0  0  0  0  0  0  0  0
   10.1311   46.8272   51.7487 H   0  0  0  0  0  0  0  0  0  0  0  0
    9.7298   45.5000   52.8856 H   0  0  0  0  0  0  0  0  0  0  0  0
  1  2  1  0
  2  3  1  0
  3  4  2  0
  3  5  1  0
  5  6  1  0
  6  7  1  0
  7  8  2  0
  8  9  1  0
  9 10  2  0
 10 11  1  0
 11 12  2  0
 12 13  1  0
 13 14  1  0
 14 15  1  0
 15 16  2  0
 15 17  1  0
 17 18  1  0
 18 19  1  0
 19 20  1  0
 20 21  1  0
 21 22  1  0
 22 23  1  0
 23 24  1  0
 14  5  1  0
 19 17  1  0
 12  7  1  0
 24 19  1  0
  1 25  1  0
  1 26  1  0
  1 27  1  0
  5 28  1  1
  6 29  1  0
  6 30  1  0
  8 31  1  0
  9 32  1  0
 10 33  1  0
 11 34  1  0
 13 35  1  0
 13 36  1  0
 17 37  1  6
 18 38  1  0
 18 39  1  0
 20 40  1  0
 20 41  1  0
 21 42  1  0
 21 43  1  0
 23 44  1  0
 23 45  1  0
 24 46  1  0
 24 47  1  0
M  END
>  <meeko>  (5) 
{"is_sidechain": [false], "free_energy": -7.678, "intermolecular_energy": -9.878, "internal_energy": 0.23}

$$$$
