ligand_19_conformer_3_docked
     RDKit          3D

 47 50  0  0  0  0  0  0  0  0999 V2000
    8.7710   48.2970   55.0670 O   0  0  0  0  0  0  0  0  0  0  0  0
    9.0360   47.7390   53.9710 C   0  0  0  0  0  0  0  0  0  0  0  0
   10.1580   46.8000   53.7730 C   0  0  0  0  0  0  0  0  0  0  0  0
   10.0820   46.4670   52.2740 C   0  0  0  0  0  0  0  0  0  0  0  0
    8.8130   47.1590   51.7110 C   0  0  1  0  0  0  0  0  0  0  0  0
    7.7890   46.1580   51.2220 C   0  0  0  0  0  0  0  0  0  0  0  0
    8.1290   45.2330   50.2230 C   0  0  0  0  0  0  0  0  0  0  0  0
    7.1980   44.2860   49.7910 C   0  0  0  0  0  0  0  0  0  0  0  0
    5.9180   44.2560   50.3470 C   0  0  0  0  0  0  0  0  0  0  0  0
    5.5510   45.1800   51.3360 C   0  0  0  0  0  0  0  0  0  0  0  0
    4.2340   45.1130   51.9110 N   0  0  0  0  0  0  0  0  0  0  0  0
    3.9380   44.4740   53.1650 C   0  0  0  0  0  0  0  0  0  0  0  0
    4.8730   44.1930   53.9650 O   0  0  0  0  0  0  0  0  0  0  0  0
    2.5380   44.1780   53.5400 C   0  0  0  0  0  0  0  0  0  0  0  0
    1.8600   44.9630   54.4880 C   0  0  0  0  0  0  0  0  0  0  0  0
    0.5410   44.6510   54.8210 C   0  0  0  0  0  0  0  0  0  0  0  0
   -0.0940   43.5520   54.2230 C   0  0  0  0  0  0  0  0  0  0  0  0
   -1.4230   43.2070   54.5110 O   0  0  0  0  0  0  0  0  0  0  0  0
   -2.2930   43.9390   55.3320 C   0  0  0  0  0  0  0  0  0  0  0  0
   -2.3960   43.5900   56.6850 C   0  0  0  0  0  0  0  0  0  0  0  0
   -3.2410   44.3060   57.5390 C   0  0  0  0  0  0  0  0  0  0  0  0
   -3.9790   45.3860   57.0480 C   0  0  0  0  0  0  0  0  0  0  0  0
   -3.8680   45.7560   55.7050 C   0  0  0  0  0  0  0  0  0  0  0  0
   -3.0250   45.0400   54.8480 C   0  0  0  0  0  0  0  0  0  0  0  0
    0.6090   42.8070   53.2740 C   0  0  0  0  0  0  0  0  0  0  0  0
    1.8930   43.1280   52.9630 N   0  0  0  0  0  0  0  0  0  0  0  0
    6.5010   46.1140   51.7870 C   0  0  0  0  0  0  0  0  0  0  0  0
    8.2700   47.9440   52.8060 N   0  0  0  0  0  0  0  0  0  0  0  0
   11.1181   47.2753   54.0226 H   0  0  0  0  0  0  0  0  0  0  0  0
   10.0917   45.9094   54.4152 H   0  0  0  0  0  0  0  0  0  0  0  0
   10.9771   46.8454   51.7586 H   0  0  0  0  0  0  0  0  0  0  0  0
   10.0333   45.3791   52.1189 H   0  0  0  0  0  0  0  0  0  0  0  0
    9.0680   47.7812   50.8405 H   0  0  0  0  0  0  0  0  0  0  0  0
    9.1346   45.2540   49.7776 H   0  0  0  0  0  0  0  0  0  0  0  0
    7.4741   43.5617   49.0105 H   0  0  0  0  0  0  0  0  0  0  0  0
    5.1923   43.5025   50.0071 H   0  0  0  0  0  0  0  0  0  0  0  0
    3.4680   45.6340   51.4280 H   0  0  0  0  0  0  0  0  0  0  0  0
    2.3648   45.8166   54.9639 H   0  0  0  0  0  0  0  0  0  0  0  0
   -0.0013   45.2674   55.5531 H   0  0  0  0  0  0  0  0  0  0  0  0
   -1.8084   42.7473   57.0782 H   0  0  0  0  0  0  0  0  0  0  0  0
   -3.3246   44.0188   58.5975 H   0  0  0  0  0  0  0  0  0  0  0  0
   -4.6477   45.9453   57.7189 H   0  0  0  0  0  0  0  0  0  0  0  0
   -4.4439   46.6110   55.3212 H   0  0  0  0  0  0  0  0  0  0  0  0
   -2.9339   45.3382   53.7931 H   0  0  0  0  0  0  0  0  0  0  0  0
    0.1215   41.9562   52.7756 H   0  0  0  0  0  0  0  0  0  0  0  0
    6.2344   46.8173   52.5897 H   0  0  0  0  0  0  0  0  0  0  0  0
    7.4350   48.5680   52.7400 H   0  0  0  0  0  0  0  0  0  0  0  0
  1  2  2  0
  2  3  1  0
  3  4  1  0
  4  5  1  0
  5  6  1  0
  6  7  2  0
  7  8  1  0
  8  9  2  0
  9 10  1  0
 10 11  1  0
 11 12  1  0
 12 13  2  0
 12 14  1  0
 14 15  2  0
 15 16  1  0
 16 17  2  0
 17 18  1  0
 18 19  1  0
 19 20  2  0
 20 21  1  0
 21 22  2  0
 22 23  1  0
 23 24  2  0
 17 25  1  0
 25 26  2  0
 10 27  2  0
  5 28  1  0
 28  2  1  0
 27  6  1  0
 26 14  1  0
 24 19  1  0
  3 29  1  0
  3 30  1  0
  4 31  1  0
  4 32  1  0
  5 33  1  6
  7 34  1  0
  8 35  1  0
  9 36  1  0
 11 37  1  0
 15 38  1  0
 16 39  1  0
 20 40  1  0
 21 41  1  0
 22 42  1  0
 23 43  1  0
 24 44  1  0
 25 45  1  0
 27 46  1  0
 28 47  1  0
M  END
>  <meeko>  (1) 
{"is_sidechain": [false], "free_energy": -9.626, "intermolecular_energy": -12.44, "internal_energy": -0.841}

$$$$
ligand_19_conformer_3_docked
     RDKit          3D

 47 50  0  0  0  0  0  0  0  0999 V2000
    0.4210   46.5910   58.1640 O   0  0  0  0  0  0  0  0  0  0  0  0
   -0.6360   46.2700   57.5610 C   0  0  0  0  0  0  0  0  0  0  0  0
   -1.7530   47.1990   57.3020 C   0  0  0  0  0  0  0  0  0  0  0  0
   -2.8010   46.3110   56.6110 C   0  0  0  0  0  0  0  0  0  0  0  0
   -2.1570   44.9170   56.4010 C   0  0  1  0  0  0  0  0  0  0  0  0
   -1.9970   44.5800   54.9350 C   0  0  0  0  0  0  0  0  0  0  0  0
   -3.0860   44.0780   54.2040 C   0  0  0  0  0  0  0  0  0  0  0  0
   -2.9520   43.7950   52.8430 C   0  0  0  0  0  0  0  0  0  0  0  0
   -1.7320   44.0060   52.1990 C   0  0  0  0  0  0  0  0  0  0  0  0
   -0.6270   44.4930   52.9120 C   0  0  0  0  0  0  0  0  0  0  0  0
    0.6130   44.7240   52.2200 N   0  0  0  0  0  0  0  0  0  0  0  0
    1.8070   43.9520   52.4330 C   0  0  0  0  0  0  0  0  0  0  0  0
    1.7410   42.8420   53.0310 O   0  0  0  0  0  0  0  0  0  0  0  0
    3.1090   44.4330   51.9230 C   0  0  0  0  0  0  0  0  0  0  0  0
    3.2030   45.6240   51.1850 C   0  0  0  0  0  0  0  0  0  0  0  0
    4.4490   46.0460   50.7150 C   0  0  0  0  0  0  0  0  0  0  0  0
    5.5930   45.2740   50.9680 C   0  0  0  0  0  0  0  0  0  0  0  0
    6.8690   45.6620   50.5330 O   0  0  0  0  0  0  0  0  0  0  0  0
    7.8910   46.1600   51.3540 C   0  0  0  0  0  0  0  0  0  0  0  0
    7.5620   47.0810   52.3570 C   0  0  0  0  0  0  0  0  0  0  0  0
    8.5510   47.5880   53.2060 C   0  0  0  0  0  0  0  0  0  0  0  0
    9.8760   47.1670   53.0660 C   0  0  0  0  0  0  0  0  0  0  0  0
   10.2120   46.2330   52.0820 C   0  0  0  0  0  0  0  0  0  0  0  0
    9.2250   45.7260   51.2300 C   0  0  0  0  0  0  0  0  0  0  0  0
    5.4600   44.1050   51.7200 C   0  0  0  0  0  0  0  0  0  0  0  0
    4.2380   43.7130   52.1700 N   0  0  0  0  0  0  0  0  0  0  0  0
   -0.7730   44.8010   54.2760 C   0  0  0  0  0  0  0  0  0  0  0  0
   -0.8590   44.9760   57.0500 N   0  0  0  0  0  0  0  0  0  0  0  0
   -2.1463   47.6136   58.2419 H   0  0  0  0  0  0  0  0  0  0  0  0
   -1.4578   48.0673   56.6947 H   0  0  0  0  0  0  0  0  0  0  0  0
   -3.6952   46.2209   57.2452 H   0  0  0  0  0  0  0  0  0  0  0  0
   -3.1080   46.7473   55.6490 H   0  0  0  0  0  0  0  0  0  0  0  0
   -2.7977   44.1300   56.8254 H   0  0  0  0  0  0  0  0  0  0  0  0
   -4.0496   43.9068   54.7061 H   0  0  0  0  0  0  0  0  0  0  0  0
   -3.8106   43.4046   52.2769 H   0  0  0  0  0  0  0  0  0  0  0  0
   -1.6365   43.7888   51.1249 H   0  0  0  0  0  0  0  0  0  0  0  0
    0.6160   45.4390   51.4580 H   0  0  0  0  0  0  0  0  0  0  0  0
    2.3020   46.2203   50.9785 H   0  0  0  0  0  0  0  0  0  0  0  0
    4.5333   46.9838   50.1464 H   0  0  0  0  0  0  0  0  0  0  0  0
    6.5186   47.4077   52.4776 H   0  0  0  0  0  0  0  0  0  0  0  0
    8.2857   48.3186   53.9844 H   0  0  0  0  0  0  0  0  0  0  0  0
   10.6545   47.5706   53.7301 H   0  0  0  0  0  0  0  0  0  0  0  0
   11.2539   45.8961   51.9774 H   0  0  0  0  0  0  0  0  0  0  0  0
    9.4917   44.9861   50.4609 H   0  0  0  0  0  0  0  0  0  0  0  0
    6.3482   43.4981   51.9496 H   0  0  0  0  0  0  0  0  0  0  0  0
    0.0780   45.2189   54.8339 H   0  0  0  0  0  0  0  0  0  0  0  0
   -0.1900   44.1780   57.1280 H   0  0  0  0  0  0  0  0  0  0  0  0
  1  2  2  0
  2  3  1  0
  3  4  1  0
  4  5  1  0
  5  6  1  0
  6  7  2  0
  7  8  1  0
  8  9  2  0
  9 10  1  0
 10 11  1  0
 11 12  1  0
 12 13  2  0
 12 14  1  0
 14 15  2  0
 15 16  1  0
 16 17  2  0
 17 18  1  0
 18 19  1  0
 19 20  2  0
 20 21  1  0
 21 22  2  0
 22 23  1  0
 23 24  2  0
 17 25  1  0
 25 26  2  0
 10 27  2  0
  5 28  1  0
 28  2  1  0
 27  6  1  0
 26 14  1  0
 24 19  1  0
  3 29  1  0
  3 30  1  0
  4 31  1  0
  4 32  1  0
  5 33  1  1
  7 34  1  0
  8 35  1  0
  9 36  1  0
 11 37  1  0
 15 38  1  0
 16 39  1  0
 20 40  1  0
 21 41  1  0
 22 42  1  0
 23 43  1  0
 24 44  1  0
 25 45  1  0
 27 46  1  0
 28 47  1  0
M  END
>  <meeko>  (2) 
{"is_sidechain": [false], "free_energy": -8.653, "intermolecular_energy": -11.146, "internal_energy": -0.878}

$$$$
ligand_19_conformer_3_docked
     RDKit          3D

 47 50  0  0  0  0  0  0  0  0999 V2000
   -3.1780   42.4200   57.4520 O   0  0  0  0  0  0  0  0  0  0  0  0
   -2.8290   43.3140   56.6370 C   0  0  0  0  0  0  0  0  0  0  0  0
   -1.6620   44.1960   56.8300 C   0  0  0  0  0  0  0  0  0  0  0  0
   -1.7180   45.1320   55.6110 C   0  0  0  0  0  0  0  0  0  0  0  0
   -2.8760   44.6390   54.7050 C   0  0  1  0  0  0  0  0  0  0  0  0
   -2.3780   44.1450   53.3640 C   0  0  0  0  0  0  0  0  0  0  0  0
   -3.2400   43.4450   52.5060 C   0  0  0  0  0  0  0  0  0  0  0  0
   -2.7950   43.0150   51.2540 C   0  0  0  0  0  0  0  0  0  0  0  0
   -1.4850   43.2750   50.8480 C   0  0  0  0  0  0  0  0  0  0  0  0
   -0.6010   43.9600   51.6950 C   0  0  0  0  0  0  0  0  0  0  0  0
    0.7370   44.2370   51.2440 N   0  0  0  0  0  0  0  0  0  0  0  0
    1.9190   43.7060   51.8670 C   0  0  0  0  0  0  0  0  0  0  0  0
    1.8280   42.7340   52.6670 O   0  0  0  0  0  0  0  0  0  0  0  0
    3.2490   44.2690   51.5470 C   0  0  0  0  0  0  0  0  0  0  0  0
    3.3960   45.6170   51.1810 C   0  0  0  0  0  0  0  0  0  0  0  0
    4.6670   46.1130   50.8810 C   0  0  0  0  0  0  0  0  0  0  0  0
    5.7830   45.2640   50.9330 C   0  0  0  0  0  0  0  0  0  0  0  0
    7.0810   45.7170   50.6580 O   0  0  0  0  0  0  0  0  0  0  0  0
    7.9870   46.2150   51.6070 C   0  0  0  0  0  0  0  0  0  0  0  0
    9.3550   45.9760   51.4220 C   0  0  0  0  0  0  0  0  0  0  0  0
   10.2900   46.4700   52.3370 C   0  0  0  0  0  0  0  0  0  0  0  0
    9.8640   47.2180   53.4380 C   0  0  0  0  0  0  0  0  0  0  0  0
    8.5030   47.4800   53.6200 C   0  0  0  0  0  0  0  0  0  0  0  0
    7.5650   46.9850   52.7070 C   0  0  0  0  0  0  0  0  0  0  0  0
    5.5960   43.9340   51.3170 C   0  0  0  0  0  0  0  0  0  0  0  0
    4.3500   43.4710   51.6060 N   0  0  0  0  0  0  0  0  0  0  0  0
   -1.0620   44.4140   52.9440 C   0  0  0  0  0  0  0  0  0  0  0  0
   -3.5200   43.5590   55.4330 N   0  0  0  0  0  0  0  0  0  0  0  0
   -1.7491   44.7648   57.7675 H   0  0  0  0  0  0  0  0  0  0  0  0
   -0.7136   43.6437   56.9045 H   0  0  0  0  0  0  0  0  0  0  0  0
   -1.9090   46.1648   55.9377 H   0  0  0  0  0  0  0  0  0  0  0  0
   -0.7631   45.1186   55.0651 H   0  0  0  0  0  0  0  0  0  0  0  0
   -3.5701   45.4639   54.4865 H   0  0  0  0  0  0  0  0  0  0  0  0
   -4.2724   43.2337   52.8215 H   0  0  0  0  0  0  0  0  0  0  0  0
   -3.4785   42.4701   50.5862 H   0  0  0  0  0  0  0  0  0  0  0  0
   -1.1435   42.9405   49.8573 H   0  0  0  0  0  0  0  0  0  0  0  0
    0.8470   44.7850   50.3610 H   0  0  0  0  0  0  0  0  0  0  0  0
    2.5173   46.2769   51.1310 H   0  0  0  0  0  0  0  0  0  0  0  0
    4.7931   47.1700   50.6038 H   0  0  0  0  0  0  0  0  0  0  0  0
    9.6957   45.3961   50.5516 H   0  0  0  0  0  0  0  0  0  0  0  0
   11.3616   46.2697   52.1901 H   0  0  0  0  0  0  0  0  0  0  0  0
   10.5994   47.6004   54.1611 H   0  0  0  0  0  0  0  0  0  0  0  0
    8.1689   48.0761   54.4820 H   0  0  0  0  0  0  0  0  0  0  0  0
    6.4953   47.1982   52.8494 H   0  0  0  0  0  0  0  0  0  0  0  0
    6.4607   43.2576   51.3860 H   0  0  0  0  0  0  0  0  0  0  0  0
   -0.3873   44.9849   53.5989 H   0  0  0  0  0  0  0  0  0  0  0  0
   -4.3680   43.0420   55.1130 H   0  0  0  0  0  0  0  0  0  0  0  0
  1  2  2  0
  2  3  1  0
  3  4  1  0
  4  5  1  0
  5  6  1  0
  6  7  2  0
  7  8  1  0
  8  9  2  0
  9 10  1  0
 10 11  1  0
 11 12  1  0
 12 13  2  0
 12 14  1  0
 14 15  2  0
 15 16  1  0
 16 17  2  0
 17 18  1  0
 18 19  1  0
 19 20  2  0
 20 21  1  0
 21 22  2  0
 22 23  1  0
 23 24  2  0
 17 25  1  0
 25 26  2  0
 10 27  2  0
  5 28  1  0
 28  2  1  0
 27  6  1  0
 26 14  1  0
 24 19  1  0
  3 29  1  0
  3 30  1  0
  4 31  1  0
  4 32  1  0
  5 33  1  6
  7 34  1  0
  8 35  1  0
  9 36  1  0
 11 37  1  0
 15 38  1  0
 16 39  1  0
 20 40  1  0
 21 41  1  0
 22 42  1  0
 23 43  1  0
 24 44  1  0
 25 45  1  0
 27 46  1  0
 28 47  1  0
M  END
>  <meeko>  (3) 
{"is_sidechain": [false], "free_energy": -8.557, "intermolecular_energy": -11.08, "internal_energy": -0.82}

$$$$
ligand_19_conformer_3_docked
     RDKit          3D

 47 50  0  0  0  0  0  0  0  0999 V2000
   -1.1310   49.4230   59.5580 O   0  0  0  0  0  0  0  0  0  0  0  0
   -1.9470   48.7080   58.9200 C   0  0  0  0  0  0  0  0  0  0  0  0
   -2.9270   49.2360   57.9520 C   0  0  0  0  0  0  0  0  0  0  0  0
   -3.7080   47.9850   57.5170 C   0  0  0  0  0  0  0  0  0  0  0  0
   -3.0310   46.7630   58.1900 C   0  0  1  0  0  0  0  0  0  0  0  0
   -2.4220   45.8210   57.1750 C   0  0  0  0  0  0  0  0  0  0  0  0
   -3.0620   44.6110   56.8630 C   0  0  0  0  0  0  0  0  0  0  0  0
   -2.5200   43.7520   55.9040 C   0  0  0  0  0  0  0  0  0  0  0  0
   -1.3340   44.0900   55.2490 C   0  0  0  0  0  0  0  0  0  0  0  0
   -0.6700   45.2860   55.5550 C   0  0  0  0  0  0  0  0  0  0  0  0
    0.5380   45.6230   54.8500 N   0  0  0  0  0  0  0  0  0  0  0  0
    1.8600   45.3560   55.3490 C   0  0  0  0  0  0  0  0  0  0  0  0
    2.0200   44.5470   56.3050 O   0  0  0  0  0  0  0  0  0  0  0  0
    3.0380   45.9950   54.7250 C   0  0  0  0  0  0  0  0  0  0  0  0
    4.3280   45.8040   55.2460 C   0  0  0  0  0  0  0  0  0  0  0  0
    5.4170   46.4270   54.6340 C   0  0  0  0  0  0  0  0  0  0  0  0
    5.2180   47.2500   53.5140 C   0  0  0  0  0  0  0  0  0  0  0  0
    6.2790   47.8840   52.8530 O   0  0  0  0  0  0  0  0  0  0  0  0
    7.5940   47.4010   52.7760 C   0  0  0  0  0  0  0  0  0  0  0  0
    7.9550   46.6040   51.6820 C   0  0  0  0  0  0  0  0  0  0  0  0
    9.2610   46.1180   51.5610 C   0  0  0  0  0  0  0  0  0  0  0  0
   10.2180   46.4360   52.5280 C   0  0  0  0  0  0  0  0  0  0  0  0
    9.8740   47.2480   53.6120 C   0  0  0  0  0  0  0  0  0  0  0  0
    8.5680   47.7350   53.7360 C   0  0  0  0  0  0  0  0  0  0  0  0
    3.9210   47.4010   53.0170 C   0  0  0  0  0  0  0  0  0  0  0  0
    2.8750   46.7840   53.6280 N   0  0  0  0  0  0  0  0  0  0  0  0
   -1.2330   46.1600   56.5020 C   0  0  0  0  0  0  0  0  0  0  0  0
   -2.0010   47.3060   59.0570 N   0  0  0  0  0  0  0  0  0  0  0  0
   -3.5936   49.9705   58.4276 H   0  0  0  0  0  0  0  0  0  0  0  0
   -2.4566   49.7632   57.1089 H   0  0  0  0  0  0  0  0  0  0  0  0
   -4.7555   48.0625   57.8436 H   0  0  0  0  0  0  0  0  0  0  0  0
   -3.6996   47.8813   56.4219 H   0  0  0  0  0  0  0  0  0  0  0  0
   -3.7722   46.1712   58.7471 H   0  0  0  0  0  0  0  0  0  0  0  0
   -3.9956   44.3378   57.3766 H   0  0  0  0  0  0  0  0  0  0  0  0
   -3.0289   42.8067   55.6642 H   0  0  0  0  0  0  0  0  0  0  0  0
   -0.9181   43.4134   54.4880 H   0  0  0  0  0  0  0  0  0  0  0  0
    0.4430   46.0050   53.8810 H   0  0  0  0  0  0  0  0  0  0  0  0
    4.4793   45.1677   56.1304 H   0  0  0  0  0  0  0  0  0  0  0  0
    6.4318   46.2730   55.0295 H   0  0  0  0  0  0  0  0  0  0  0  0
    7.2070   46.3589   50.9136 H   0  0  0  0  0  0  0  0  0  0  0  0
    9.5348   45.4851   50.7040 H   0  0  0  0  0  0  0  0  0  0  0  0
   11.2428   46.0470   52.4360 H   0  0  0  0  0  0  0  0  0  0  0  0
   10.6304   47.5045   54.3684 H   0  0  0  0  0  0  0  0  0  0  0  0
    8.3017   48.3806   54.5859 H   0  0  0  0  0  0  0  0  0  0  0  0
    3.7453   48.0225   52.1265 H   0  0  0  0  0  0  0  0  0  0  0  0
   -0.7391   47.1186   56.7191 H   0  0  0  0  0  0  0  0  0  0  0  0
   -1.3900   46.7420   59.6890 H   0  0  0  0  0  0  0  0  0  0  0  0
  1  2  2  0
  2  3  1  0
  3  4  1  0
  4  5  1  0
  5  6  1  0
  6  7  2  0
  7  8  1  0
  8  9  2  0
  9 10  1  0
 10 11  1  0
 11 12  1  0
 12 13  2  0
 12 14  1  0
 14 15  2  0
 15 16  1  0
 16 17  2  0
 17 18  1  0
 18 19  1  0
 19 20  2  0
 20 21  1  0
 21 22  2  0
 22 23  1  0
 23 24  2  0
 17 25  1  0
 25 26  2  0
 10 27  2  0
  5 28  1  0
 28  2  1  0
 27  6  1  0
 26 14  1  0
 24 19  1  0
  3 29  1  0
  3 30  1  0
  4 31  1  0
  4 32  1  0
  5 33  1  1
  7 34  1  0
  8 35  1  0
  9 36  1  0
 11 37  1  0
 15 38  1  0
 16 39  1  0
 20 40  1  0
 21 41  1  0
 22 42  1  0
 23 43  1  0
 24 44  1  0
 25 45  1  0
 27 46  1  0
 28 47  1  0
M  END
>  <meeko>  (4) 
{"is_sidechain": [false], "free_energy": -8.387, "intermolecular_energy": -10.799, "internal_energy": -0.88}

$$$$
ligand_19_conformer_3_docked
     RDKit          3D

 47 50  0  0  0  0  0  0  0  0999 V2000
   10.2730   47.3100   54.7890 O   0  0  0  0  0  0  0  0  0  0  0  0
    9.6020   47.0470   53.7570 C   0  0  0  0  0  0  0  0  0  0  0  0
   10.1710   46.4550   52.5310 C   0  0  0  0  0  0  0  0  0  0  0  0
    8.9700   46.4020   51.5720 C   0  0  0  0  0  0  0  0  0  0  0  0
    7.7230   46.8680   52.3670 C   0  0  1  0  0  0  0  0  0  0  0  0
    6.6990   45.7650   52.5160 C   0  0  0  0  0  0  0  0  0  0  0  0
    6.1530   45.4750   53.7770 C   0  0  0  0  0  0  0  0  0  0  0  0
    5.1850   44.4790   53.9150 C   0  0  0  0  0  0  0  0  0  0  0  0
    4.7540   43.7590   52.7990 C   0  0  0  0  0  0  0  0  0  0  0  0
    5.2960   44.0210   51.5320 C   0  0  0  0  0  0  0  0  0  0  0  0
    4.8180   43.2820   50.3940 N   0  0  0  0  0  0  0  0  0  0  0  0
    5.5120   42.1640   49.8150 C   0  0  0  0  0  0  0  0  0  0  0  0
    6.4340   41.5920   50.4600 O   0  0  0  0  0  0  0  0  0  0  0  0
    5.1260   41.6540   48.4810 C   0  0  0  0  0  0  0  0  0  0  0  0
    5.7990   42.0760   47.3210 C   0  0  0  0  0  0  0  0  0  0  0  0
    5.4040   41.5770   46.0780 C   0  0  0  0  0  0  0  0  0  0  0  0
    4.3340   40.6740   45.9910 C   0  0  0  0  0  0  0  0  0  0  0  0
    3.9100   40.1320   44.7690 O   0  0  0  0  0  0  0  0  0  0  0  0
    4.6470   39.2400   43.9760 C   0  0  0  0  0  0  0  0  0  0  0  0
    5.6310   39.7530   43.1210 C   0  0  0  0  0  0  0  0  0  0  0  0
    6.3980   38.8950   42.3270 C   0  0  0  0  0  0  0  0  0  0  0  0
    6.1950   37.5140   42.3920 C   0  0  0  0  0  0  0  0  0  0  0  0
    5.2300   36.9890   43.2560 C   0  0  0  0  0  0  0  0  0  0  0  0
    4.4610   37.8460   44.0510 C   0  0  0  0  0  0  0  0  0  0  0  0
    3.7020   40.2670   47.1680 C   0  0  0  0  0  0  0  0  0  0  0  0
    4.1030   40.7640   48.3690 N   0  0  0  0  0  0  0  0  0  0  0  0
    6.2520   45.0430   51.3930 C   0  0  0  0  0  0  0  0  0  0  0  0
    8.2150   47.2810   53.6700 N   0  0  0  0  0  0  0  0  0  0  0  0
   10.9728   47.0882   52.1234 H   0  0  0  0  0  0  0  0  0  0  0  0
   10.6287   45.4694   52.7018 H   0  0  0  0  0  0  0  0  0  0  0  0
    9.1422   47.0711   50.7160 H   0  0  0  0  0  0  0  0  0  0  0  0
    8.8260   45.3825   51.1849 H   0  0  0  0  0  0  0  0  0  0  0  0
    7.2121   47.6857   51.8376 H   0  0  0  0  0  0  0  0  0  0  0  0
    6.4902   46.0361   54.6610 H   0  0  0  0  0  0  0  0  0  0  0  0
    4.7604   44.2606   54.9060 H   0  0  0  0  0  0  0  0  0  0  0  0
    3.9845   42.9814   52.9141 H   0  0  0  0  0  0  0  0  0  0  0  0
    3.8700   43.5220   50.0240 H   0  0  0  0  0  0  0  0  0  0  0  0
    6.6299   42.7934   47.3920 H   0  0  0  0  0  0  0  0  0  0  0  0
    5.9324   41.8923   45.1662 H   0  0  0  0  0  0  0  0  0  0  0  0
    5.8015   40.8387   43.0740 H   0  0  0  0  0  0  0  0  0  0  0  0
    7.1615   39.3073   41.6509 H   0  0  0  0  0  0  0  0  0  0  0  0
    6.7949   36.8399   41.7630 H   0  0  0  0  0  0  0  0  0  0  0  0
    5.0749   35.9014   43.3111 H   0  0  0  0  0  0  0  0  0  0  0  0
    3.7086   37.4295   44.7369 H   0  0  0  0  0  0  0  0  0  0  0  0
    2.8764   39.5414   47.1236 H   0  0  0  0  0  0  0  0  0  0  0  0
    6.6544   45.2806   50.3972 H   0  0  0  0  0  0  0  0  0  0  0  0
    7.6270   47.6910   54.4300 H   0  0  0  0  0  0  0  0  0  0  0  0
  1  2  2  0
  2  3  1  0
  3  4  1  0
  4  5  1  0
  5  6  1  0
  6  7  2  0
  7  8  1  0
  8  9  2  0
  9 10  1  0
 10 11  1  0
 11 12  1  0
 12 13  2  0
 12 14  1  0
 14 15  2  0
 15 16  1  0
 16 17  2  0
 17 18  1  0
 18 19  1  0
 19 20  2  0
 20 21  1  0
 21 22  2  0
 22 23  1  0
 23 24  2  0
 17 25  1  0
 25 26  2  0
 10 27  2  0
  5 28  1  0
 28  2  1  0
 27  6  1  0
 26 14  1  0
 24 19  1  0
  3 29  1  0
  3 30  1  0
  4 31  1  0
  4 32  1  0
  5 33  1  6
  7 34  1  0
  8 35  1  0
  9 36  1  0
 11 37  1  0
 15 38  1  0
 16 39  1  0
 20 40  1  0
 21 41  1  0
 22 42  1  0
 23 43  1  0
 24 44  1  0
 25 45  1  0
 27 46  1  0
 28 47  1  0
M  END
>  <meeko>  (5) 
{"is_sidechain": [false], "free_energy": -8.361, "intermolecular_energy": -10.842, "internal_energy": -0.803}

$$$$
