ligand_66_conformer_5_docked
     RDKit          3D

 42 43  0  0  0  0  0  0  0  0999 V2000
    5.4080   42.1770   50.3310 C   0  0  0  0  0  0  0  0  0  0  0  0
    4.2380   41.2040   50.4610 C   0  0  0  0  0  0  0  0  0  0  0  0
    2.9330   41.9190   50.8340 C   0  0  0  0  0  0  0  0  0  0  0  0
    3.1620   43.3280   51.1560 N   0  0  0  0  0  0  0  0  0  0  0  0
    2.0830   44.2710   51.1940 C   0  0  0  0  0  0  0  0  0  0  0  0
    0.9070   43.8880   50.9470 O   0  0  0  0  0  0  0  0  0  0  0  0
    2.3630   45.7080   51.5790 C   0  0  0  0  0  0  0  0  0  0  0  0
    3.6400   46.2290   50.8870 C   0  0  0  0  0  0  0  0  0  0  0  0
    4.9100   45.6930   51.5530 C   0  0  0  0  0  0  0  0  0  0  0  0
    4.8670   45.9960   52.9870 N   0  0  0  0  0  0  0  0  0  0  0  0
    5.6890   47.0430   53.5370 C   0  0  0  0  0  0  0  0  0  0  0  0
    5.1550   47.9370   54.2500 O   0  0  0  0  0  0  0  0  0  0  0  0
    7.1500   47.0840   53.2910 C   0  0  0  0  0  0  0  0  0  0  0  0
    7.6610   47.0130   51.9820 C   0  0  0  0  0  0  0  0  0  0  0  0
    9.0390   47.0430   51.7580 C   0  0  0  0  0  0  0  0  0  0  0  0
    9.9230   47.1340   52.8360 C   0  0  0  0  0  0  0  0  0  0  0  0
    9.4290   47.1930   54.1420 C   0  0  0  0  0  0  0  0  0  0  0  0
   10.5400   47.3030   55.4950 Cl  0  0  0  0  0  0  0  0  0  0  0  0
    8.0490   47.1640   54.3710 C   0  0  0  0  0  0  0  0  0  0  0  0
    3.7300   45.4710   53.7470 C   0  0  0  0  0  0  0  0  0  0  0  0
    2.4110   45.9400   53.1110 C   0  0  0  0  0  0  0  0  0  0  0  0
    5.7568   42.4670   51.3331 H   0  0  0  0  0  0  0  0  0  0  0  0
    6.2292   41.6918   49.7831 H   0  0  0  0  0  0  0  0  0  0  0  0
    5.0807   43.0729   49.7831 H   0  0  0  0  0  0  0  0  0  0  0  0
    4.0975   40.6875   49.5000 H   0  0  0  0  0  0  0  0  0  0  0  0
    4.4765   40.4921   51.2650 H   0  0  0  0  0  0  0  0  0  0  0  0
    2.2364   41.8558   49.9850 H   0  0  0  0  0  0  0  0  0  0  0  0
    2.5142   41.4270   51.7243 H   0  0  0  0  0  0  0  0  0  0  0  0
    4.1290   43.6670   51.3630 H   0  0  0  0  0  0  0  0  0  0  0  0
    1.5067   46.2953   51.2161 H   0  0  0  0  0  0  0  0  0  0  0  0
    3.6291   45.9104   49.8342 H   0  0  0  0  0  0  0  0  0  0  0  0
    3.6489   47.3259   50.9696 H   0  0  0  0  0  0  0  0  0  0  0  0
    4.9697   44.6041   51.4087 H   0  0  0  0  0  0  0  0  0  0  0  0
    5.7931   46.1683   51.1011 H   0  0  0  0  0  0  0  0  0  0  0  0
    6.9705   46.9333   51.1295 H   0  0  0  0  0  0  0  0  0  0  0  0
    9.4293   46.9949   50.7307 H   0  0  0  0  0  0  0  0  0  0  0  0
   11.0080   47.1592   52.6568 H   0  0  0  0  0  0  0  0  0  0  0  0
    7.6645   47.2040   55.4008 H   0  0  0  0  0  0  0  0  0  0  0  0
    3.7657   44.3716   53.7431 H   0  0  0  0  0  0  0  0  0  0  0  0
    3.7844   45.8423   54.7810 H   0  0  0  0  0  0  0  0  0  0  0  0
    1.5813   45.3871   53.5757 H   0  0  0  0  0  0  0  0  0  0  0  0
    2.3288   47.0233   53.2832 H   0  0  0  0  0  0  0  0  0  0  0  0
  1  2  1  0
  2  3  1  0
  3  4  1  0
  4  5  1  0
  5  6  2  0
  5  7  1  0
  7  8  1  0
  8  9  1  0
  9 10  1  0
 10 11  1  0
 11 12  2  0
 11 13  1  0
 13 14  2  0
 14 15  1  0
 15 16  2  0
 16 17  1  0
 17 18  1  0
 17 19  2  0
 10 20  1  0
 20 21  1  0
 21  7  1  0
 19 13  1  0
  1 22  1  0
  1 23  1  0
  1 24  1  0
  2 25  1  0
  2 26  1  0
  3 27  1  0
  3 28  1  0
  4 29  1  0
  7 30  1  0
  8 31  1  0
  8 32  1  0
  9 33  1  0
  9 34  1  0
 14 35  1  0
 15 36  1  0
 16 37  1  0
 19 38  1  0
 20 39  1  0
 20 40  1  0
 21 41  1  0
 21 42  1  0
M  END
>  <meeko>  (1) 
{"is_sidechain": [false], "free_energy": -8.843, "intermolecular_energy": -10.91, "internal_energy": 0.323}

$$$$
ligand_66_conformer_5_docked
     RDKit          3D

 42 43  0  0  0  0  0  0  0  0999 V2000
    9.9490   47.1330   54.1970 C   0  0  0  0  0  0  0  0  0  0  0  0
    9.8770   46.6830   52.7390 C   0  0  0  0  0  0  0  0  0  0  0  0
    8.8880   47.5270   51.9240 C   0  0  0  0  0  0  0  0  0  0  0  0
    7.7660   46.7240   51.4370 N   0  0  0  0  0  0  0  0  0  0  0  0
    6.4670   46.8130   52.0360 C   0  0  0  0  0  0  0  0  0  0  0  0
    6.2760   47.5990   53.0050 O   0  0  0  0  0  0  0  0  0  0  0  0
    5.3250   45.9980   51.4670 C   0  0  0  0  0  0  0  0  0  0  0  0
    3.9630   46.6220   51.8330 C   0  0  0  0  0  0  0  0  0  0  0  0
    3.5780   46.3380   53.2880 C   0  0  0  0  0  0  0  0  0  0  0  0
    3.6350   44.8930   53.5290 N   0  0  0  0  0  0  0  0  0  0  0  0
    2.4230   44.1230   53.6420 C   0  0  0  0  0  0  0  0  0  0  0  0
    2.2810   43.0880   52.9330 O   0  0  0  0  0  0  0  0  0  0  0  0
    1.3460   44.5160   54.5810 C   0  0  0  0  0  0  0  0  0  0  0  0
    0.0010   44.2180   54.2980 C   0  0  0  0  0  0  0  0  0  0  0  0
   -1.0100   44.6000   55.1840 C   0  0  0  0  0  0  0  0  0  0  0  0
   -0.6920   45.2900   56.3560 C   0  0  0  0  0  0  0  0  0  0  0  0
    0.6400   45.6030   56.6430 C   0  0  0  0  0  0  0  0  0  0  0  0
    1.0380   46.4740   58.1130 Cl  0  0  0  0  0  0  0  0  0  0  0  0
    1.6550   45.2220   55.7590 C   0  0  0  0  0  0  0  0  0  0  0  0
    4.9160   44.2260   53.2870 C   0  0  0  0  0  0  0  0  0  0  0  0
    5.3870   44.4970   51.8490 C   0  0  0  0  0  0  0  0  0  0  0  0
    9.8099   46.2636   54.8564 H   0  0  0  0  0  0  0  0  0  0  0  0
   10.9313   47.5878   54.3923 H   0  0  0  0  0  0  0  0  0  0  0  0
    9.1576   47.8716   54.3923 H   0  0  0  0  0  0  0  0  0  0  0  0
   10.8767   46.7749   52.2894 H   0  0  0  0  0  0  0  0  0  0  0  0
    9.5271   45.6403   52.7226 H   0  0  0  0  0  0  0  0  0  0  0  0
    8.4986   48.3346   52.5613 H   0  0  0  0  0  0  0  0  0  0  0  0
    9.4215   47.9354   51.0530 H   0  0  0  0  0  0  0  0  0  0  0  0
    7.9010   46.0660   50.6370 H   0  0  0  0  0  0  0  0  0  0  0  0
    5.4381   46.0303   50.3733 H   0  0  0  0  0  0  0  0  0  0  0  0
    4.0194   47.7107   51.6859 H   0  0  0  0  0  0  0  0  0  0  0  0
    3.1967   46.1737   51.1835 H   0  0  0  0  0  0  0  0  0  0  0  0
    4.2804   46.8512   53.9612 H   0  0  0  0  0  0  0  0  0  0  0  0
    2.5584   46.7043   53.4785 H   0  0  0  0  0  0  0  0  0  0  0  0
   -0.2569   43.6808   53.3734 H   0  0  0  0  0  0  0  0  0  0  0  0
   -2.0586   44.3567   54.9578 H   0  0  0  0  0  0  0  0  0  0  0  0
   -1.4894   45.5871   57.0531 H   0  0  0  0  0  0  0  0  0  0  0  0
    2.7011   45.4757   55.9858 H   0  0  0  0  0  0  0  0  0  0  0  0
    5.6659   44.6100   53.9943 H   0  0  0  0  0  0  0  0  0  0  0  0
    4.7908   43.1422   53.4275 H   0  0  0  0  0  0  0  0  0  0  0  0
    6.4267   44.1521   51.7493 H   0  0  0  0  0  0  0  0  0  0  0  0
    4.7096   43.9558   51.1721 H   0  0  0  0  0  0  0  0  0  0  0  0
  1  2  1  0
  2  3  1  0
  3  4  1  0
  4  5  1  0
  5  6  2  0
  5  7  1  0
  7  8  1  0
  8  9  1  0
  9 10  1  0
 10 11  1  0
 11 12  2  0
 11 13  1  0
 13 14  2  0
 14 15  1  0
 15 16  2  0
 16 17  1  0
 17 18  1  0
 17 19  2  0
 10 20  1  0
 20 21  1  0
 21  7  1  0
 19 13  1  0
  1 22  1  0
  1 23  1  0
  1 24  1  0
  2 25  1  0
  2 26  1  0
  3 27  1  0
  3 28  1  0
  4 29  1  0
  7 30  1  0
  8 31  1  0
  8 32  1  0
  9 33  1  0
  9 34  1  0
 14 35  1  0
 15 36  1  0
 16 37  1  0
 19 38  1  0
 20 39  1  0
 20 40  1  0
 21 41  1  0
 21 42  1  0
M  END
>  <meeko>  (2) 
{"is_sidechain": [false], "free_energy": -8.555, "intermolecular_energy": -10.179, "internal_energy": -0.055}

$$$$
ligand_66_conformer_5_docked
     RDKit          3D

 42 43  0  0  0  0  0  0  0  0999 V2000
   -1.2200   45.0330   56.9650 C   0  0  0  0  0  0  0  0  0  0  0  0
   -0.4020   44.7180   55.7130 C   0  0  0  0  0  0  0  0  0  0  0  0
    1.0460   45.2100   55.8320 C   0  0  0  0  0  0  0  0  0  0  0  0
    1.9180   44.5620   54.8520 N   0  0  0  0  0  0  0  0  0  0  0  0
    2.0090   45.0370   53.5020 C   0  0  0  0  0  0  0  0  0  0  0  0
    1.3270   46.0360   53.1420 O   0  0  0  0  0  0  0  0  0  0  0  0
    2.9620   44.3640   52.5380 C   0  0  0  0  0  0  0  0  0  0  0  0
    4.3180   44.0720   53.2120 C   0  0  0  0  0  0  0  0  0  0  0  0
    5.1750   45.3340   53.3410 C   0  0  0  0  0  0  0  0  0  0  0  0
    5.3100   45.9630   52.0240 N   0  0  0  0  0  0  0  0  0  0  0  0
    6.5470   45.8700   51.2930 C   0  0  0  0  0  0  0  0  0  0  0  0
    6.5300   45.4640   50.0980 O   0  0  0  0  0  0  0  0  0  0  0  0
    7.8380   46.2530   51.9130 C   0  0  0  0  0  0  0  0  0  0  0  0
    9.0570   45.8200   51.3610 C   0  0  0  0  0  0  0  0  0  0  0  0
   10.2700   46.1770   51.9560 C   0  0  0  0  0  0  0  0  0  0  0  0
   10.2790   46.9610   53.1120 C   0  0  0  0  0  0  0  0  0  0  0  0
    9.0740   47.3870   53.6780 C   0  0  0  0  0  0  0  0  0  0  0  0
    9.0880   48.3680   55.1320 Cl  0  0  0  0  0  0  0  0  0  0  0  0
    7.8580   47.0320   53.0850 C   0  0  0  0  0  0  0  0  0  0  0  0
    4.0740   46.3530   51.3410 C   0  0  0  0  0  0  0  0  0  0  0  0
    3.1420   45.1370   51.2060 C   0  0  0  0  0  0  0  0  0  0  0  0
   -0.6234   44.8033   57.8602 H   0  0  0  0  0  0  0  0  0  0  0  0
   -1.4899   46.0994   56.9680 H   0  0  0  0  0  0  0  0  0  0  0  0
   -2.1354   44.4231   56.9680 H   0  0  0  0  0  0  0  0  0  0  0  0
   -0.3952   43.6290   55.5583 H   0  0  0  0  0  0  0  0  0  0  0  0
   -0.8683   45.2384   54.8634 H   0  0  0  0  0  0  0  0  0  0  0  0
    1.0683   46.2971   55.6657 H   0  0  0  0  0  0  0  0  0  0  0  0
    1.4129   44.9585   56.8380 H   0  0  0  0  0  0  0  0  0  0  0  0
    2.4920   43.7330   55.1280 H   0  0  0  0  0  0  0  0  0  0  0  0
    2.4970   43.4053   52.2646 H   0  0  0  0  0  0  0  0  0  0  0  0
    4.1350   43.6622   54.2163 H   0  0  0  0  0  0  0  0  0  0  0  0
    4.8632   43.3525   52.5834 H   0  0  0  0  0  0  0  0  0  0  0  0
    4.6925   46.0366   54.0363 H   0  0  0  0  0  0  0  0  0  0  0  0
    6.1701   45.0666   53.7260 H   0  0  0  0  0  0  0  0  0  0  0  0
    9.0556   45.1962   50.4550 H   0  0  0  0  0  0  0  0  0  0  0  0
   11.2190   45.8401   51.5134 H   0  0  0  0  0  0  0  0  0  0  0  0
   11.2350   47.2433   53.5772 H   0  0  0  0  0  0  0  0  0  0  0  0
    6.9117   47.3636   53.5373 H   0  0  0  0  0  0  0  0  0  0  0  0
    3.5679   47.1372   51.9232 H   0  0  0  0  0  0  0  0  0  0  0  0
    4.3197   46.7330   50.3384 H   0  0  0  0  0  0  0  0  0  0  0  0
    2.1557   45.4867   50.8670 H   0  0  0  0  0  0  0  0  0  0  0  0
    3.6022   44.4470   50.4835 H   0  0  0  0  0  0  0  0  0  0  0  0
  1  2  1  0
  2  3  1  0
  3  4  1  0
  4  5  1  0
  5  6  2  0
  5  7  1  0
  7  8  1  0
  8  9  1  0
  9 10  1  0
 10 11  1  0
 11 12  2  0
 11 13  1  0
 13 14  2  0
 14 15  1  0
 15 16  2  0
 16 17  1  0
 17 18  1  0
 17 19  2  0
 10 20  1  0
 20 21  1  0
 21  7  1  0
 19 13  1  0
  1 22  1  0
  1 23  1  0
  1 24  1  0
  2 25  1  0
  2 26  1  0
  3 27  1  0
  3 28  1  0
  4 29  1  0
  7 30  1  0
  8 31  1  0
  8 32  1  0
  9 33  1  0
  9 34  1  0
 14 35  1  0
 15 36  1  0
 16 37  1  0
 19 38  1  0
 20 39  1  0
 20 40  1  0
 21 41  1  0
 21 42  1  0
M  END
>  <meeko>  (3) 
{"is_sidechain": [false], "free_energy": -8.272, "intermolecular_energy": -9.796, "internal_energy": -0.089}

$$$$
ligand_66_conformer_5_docked
     RDKit          3D

 42 43  0  0  0  0  0  0  0  0999 V2000
   -0.2530   43.0760   54.0400 C   0  0  0  0  0  0  0  0  0  0  0  0
   -0.5620   42.1910   52.8330 C   0  0  0  0  0  0  0  0  0  0  0  0
    0.1860   42.6510   51.5750 C   0  0  0  0  0  0  0  0  0  0  0  0
    0.6480   44.0340   51.6960 N   0  0  0  0  0  0  0  0  0  0  0  0
    1.9800   44.4130   51.3280 C   0  0  0  0  0  0  0  0  0  0  0  0
    2.7800   43.5420   50.8870 O   0  0  0  0  0  0  0  0  0  0  0  0
    2.3970   45.8650   51.4260 C   0  0  0  0  0  0  0  0  0  0  0  0
    3.7440   46.1040   50.7130 C   0  0  0  0  0  0  0  0  0  0  0  0
    4.9270   45.5990   51.5440 C   0  0  0  0  0  0  0  0  0  0  0  0
    4.8680   46.1980   52.8810 N   0  0  0  0  0  0  0  0  0  0  0  0
    5.7760   47.2530   53.2510 C   0  0  0  0  0  0  0  0  0  0  0  0
    5.3150   48.3230   53.7360 O   0  0  0  0  0  0  0  0  0  0  0  0
    7.2400   47.1010   53.0820 C   0  0  0  0  0  0  0  0  0  0  0  0
    7.7910   46.7810   51.8280 C   0  0  0  0  0  0  0  0  0  0  0  0
    9.1720   46.6300   51.6780 C   0  0  0  0  0  0  0  0  0  0  0  0
   10.0170   46.7870   52.7780 C   0  0  0  0  0  0  0  0  0  0  0  0
    9.4820   47.0920   54.0340 C   0  0  0  0  0  0  0  0  0  0  0  0
   10.5460   47.2840   55.4150 Cl  0  0  0  0  0  0  0  0  0  0  0  0
    8.1000   47.2450   54.1870 C   0  0  0  0  0  0  0  0  0  0  0  0
    3.6570   45.9540   53.6690 C   0  0  0  0  0  0  0  0  0  0  0  0
    2.4170   46.4060   52.8790 C   0  0  0  0  0  0  0  0  0  0  0  0
   -0.4489   42.5150   54.9657 H   0  0  0  0  0  0  0  0  0  0  0  0
    0.8041   43.3789   54.0115 H   0  0  0  0  0  0  0  0  0  0  0  0
   -0.8918   43.9711   54.0115 H   0  0  0  0  0  0  0  0  0  0  0  0
   -0.2643   41.1578   53.0650 H   0  0  0  0  0  0  0  0  0  0  0  0
   -1.6410   42.2588   52.6300 H   0  0  0  0  0  0  0  0  0  0  0  0
    1.0563   41.9967   51.4184 H   0  0  0  0  0  0  0  0  0  0  0  0
   -0.5078   42.5943   50.7233 H   0  0  0  0  0  0  0  0  0  0  0  0
    0.0030   44.7720   52.0610 H   0  0  0  0  0  0  0  0  0  0  0  0
    1.6206   46.4440   50.9045 H   0  0  0  0  0  0  0  0  0  0  0  0
    3.7349   45.5747   49.7488 H   0  0  0  0  0  0  0  0  0  0  0  0
    3.8662   47.1877   50.5691 H   0  0  0  0  0  0  0  0  0  0  0  0
    4.8757   44.5035   51.6291 H   0  0  0  0  0  0  0  0  0  0  0  0
    5.8703   45.8818   51.0538 H   0  0  0  0  0  0  0  0  0  0  0  0
    7.1298   46.6486   50.9589 H   0  0  0  0  0  0  0  0  0  0  0  0
    9.5939   46.3870   50.6916 H   0  0  0  0  0  0  0  0  0  0  0  0
   11.1041   46.6708   52.6571 H   0  0  0  0  0  0  0  0  0  0  0  0
    7.6826   47.4794   55.1774 H   0  0  0  0  0  0  0  0  0  0  0  0
    3.5765   44.8795   53.8904 H   0  0  0  0  0  0  0  0  0  0  0  0
    3.7154   46.5243   54.6078 H   0  0  0  0  0  0  0  0  0  0  0  0
    1.5180   46.0452   53.4003 H   0  0  0  0  0  0  0  0  0  0  0  0
    2.4442   47.5042   52.8220 H   0  0  0  0  0  0  0  0  0  0  0  0
  1  2  1  0
  2  3  1  0
  3  4  1  0
  4  5  1  0
  5  6  2  0
  5  7  1  0
  7  8  1  0
  8  9  1  0
  9 10  1  0
 10 11  1  0
 11 12  2  0
 11 13  1  0
 13 14  2  0
 14 15  1  0
 15 16  2  0
 16 17  1  0
 17 18  1  0
 17 19  2  0
 10 20  1  0
 20 21  1  0
 21  7  1  0
 19 13  1  0
  1 22  1  0
  1 23  1  0
  1 24  1  0
  2 25  1  0
  2 26  1  0
  3 27  1  0
  3 28  1  0
  4 29  1  0
  7 30  1  0
  8 31  1  0
  8 32  1  0
  9 33  1  0
  9 34  1  0
 14 35  1  0
 15 36  1  0
 16 37  1  0
 19 38  1  0
 20 39  1  0
 20 40  1  0
 21 41  1  0
 21 42  1  0
M  END
>  <meeko>  (4) 
{"is_sidechain": [false], "free_energy": -8.253, "intermolecular_energy": -9.955, "internal_energy": 0.095}

$$$$
ligand_66_conformer_5_docked
     RDKit          3D

 42 43  0  0  0  0  0  0  0  0999 V2000
    2.1260   42.7920   51.4610 C   0  0  0  0  0  0  0  0  0  0  0  0
    0.9390   42.7000   52.4190 C   0  0  0  0  0  0  0  0  0  0  0  0
    0.7860   43.9670   53.2700 C   0  0  0  0  0  0  0  0  0  0  0  0
    1.5380   45.0890   52.7090 N   0  0  0  0  0  0  0  0  0  0  0  0
    2.3170   45.9590   53.5410 C   0  0  0  0  0  0  0  0  0  0  0  0
    2.3610   45.7590   54.7870 O   0  0  0  0  0  0  0  0  0  0  0  0
    3.1160   47.0770   52.9090 C   0  0  0  0  0  0  0  0  0  0  0  0
    3.8980   46.5720   51.6780 C   0  0  0  0  0  0  0  0  0  0  0  0
    5.1390   45.7710   52.0800 C   0  0  0  0  0  0  0  0  0  0  0  0
    5.9580   46.5750   52.9920 N   0  0  0  0  0  0  0  0  0  0  0  0
    7.1810   47.1820   52.5350 C   0  0  0  0  0  0  0  0  0  0  0  0
    7.3660   48.4160   52.7240 O   0  0  0  0  0  0  0  0  0  0  0  0
    8.2290   46.3830   51.8570 C   0  0  0  0  0  0  0  0  0  0  0  0
    9.5690   46.4500   52.2790 C   0  0  0  0  0  0  0  0  0  0  0  0
   10.5540   45.7010   51.6300 C   0  0  0  0  0  0  0  0  0  0  0  0
   10.2160   44.8860   50.5480 C   0  0  0  0  0  0  0  0  0  0  0  0
    8.8890   44.8190   50.1110 C   0  0  0  0  0  0  0  0  0  0  0  0
    8.4670   43.7980   48.7490 Cl  0  0  0  0  0  0  0  0  0  0  0  0
    7.9000   45.5670   50.7590 C   0  0  0  0  0  0  0  0  0  0  0  0
    5.3230   47.0310   54.2320 C   0  0  0  0  0  0  0  0  0  0  0  0
    4.0420   47.8180   53.9080 C   0  0  0  0  0  0  0  0  0  0  0  0
    3.0590   42.8643   52.0391 H   0  0  0  0  0  0  0  0  0  0  0  0
    2.1561   41.8935   50.8271 H   0  0  0  0  0  0  0  0  0  0  0  0
    2.0173   43.6844   50.8271 H   0  0  0  0  0  0  0  0  0  0  0  0
    0.0201   42.5534   51.8324 H   0  0  0  0  0  0  0  0  0  0  0  0
    1.1169   41.8540   53.0992 H   0  0  0  0  0  0  0  0  0  0  0  0
   -0.2788   44.2390   53.3163 H   0  0  0  0  0  0  0  0  0  0  0  0
    1.1827   43.7559   54.2740 H   0  0  0  0  0  0  0  0  0  0  0  0
    1.5140   45.2730   51.6800 H   0  0  0  0  0  0  0  0  0  0  0  0
    2.3837   47.8257   52.5725 H   0  0  0  0  0  0  0  0  0  0  0  0
    3.2386   45.9286   51.0771 H   0  0  0  0  0  0  0  0  0  0  0  0
    4.2295   47.4482   51.1014 H   0  0  0  0  0  0  0  0  0  0  0  0
    4.8305   44.8431   52.5839 H   0  0  0  0  0  0  0  0  0  0  0  0
    5.7235   45.5205   51.1825 H   0  0  0  0  0  0  0  0  0  0  0  0
    9.8434   47.0964   53.1257 H   0  0  0  0  0  0  0  0  0  0  0  0
   11.5980   45.7536   51.9723 H   0  0  0  0  0  0  0  0  0  0  0  0
   10.9931   44.2967   50.0393 H   0  0  0  0  0  0  0  0  0  0  0  0
    6.8588   45.5168   50.4079 H   0  0  0  0  0  0  0  0  0  0  0  0
    5.0679   46.1593   54.8526 H   0  0  0  0  0  0  0  0  0  0  0  0
    6.0207   47.6847   54.7759 H   0  0  0  0  0  0  0  0  0  0  0  0
    3.4871   47.9859   54.8428 H   0  0  0  0  0  0  0  0  0  0  0  0
    4.3459   48.7646   53.4372 H   0  0  0  0  0  0  0  0  0  0  0  0
  1  2  1  0
  2  3  1  0
  3  4  1  0
  4  5  1  0
  5  6  2  0
  5  7  1  0
  7  8  1  0
  8  9  1  0
  9 10  1  0
 10 11  1  0
 11 12  2  0
 11 13  1  0
 13 14  2  0
 14 15  1  0
 15 16  2  0
 16 17  1  0
 17 18  1  0
 17 19  2  0
 10 20  1  0
 20 21  1  0
 21  7  1  0
 19 13  1  0
  1 22  1  0
  1 23  1  0
  1 24  1  0
  2 25  1  0
  2 26  1  0
  3 27  1  0
  3 28  1  0
  4 29  1  0
  7 30  1  0
  8 31  1  0
  8 32  1  0
  9 33  1  0
  9 34  1  0
 14 35  1  0
 15 36  1  0
 16 37  1  0
 19 38  1  0
 20 39  1  0
 20 40  1  0
 21 41  1  0
 21 42  1  0
M  END
>  <meeko>  (5) 
{"is_sidechain": [false], "free_energy": -8.104, "intermolecular_energy": -9.546, "internal_energy": -0.129}

$$$$
