ligand_89_conformer_1_docked
     RDKit          3D

 51 54  0  0  0  0  0  0  0  0999 V2000
    1.4920   43.1910   51.2120 O   0  0  0  0  0  0  0  0  0  0  0  0
    1.8190   42.8260   52.3730 C   0  0  0  0  0  0  0  0  0  0  0  0
    0.7500   42.4700   53.3700 C   0  0  0  0  0  0  0  0  0  0  0  0
   -0.0170   43.6940   53.9170 C   0  0  1  0  0  0  0  0  0  0  0  0
   -1.4170   43.3310   54.4960 C   0  0  0  0  0  0  0  0  0  0  0  0
   -1.9820   44.4440   55.4220 C   0  0  1  0  0  0  0  0  0  0  0  0
   -1.6440   44.1710   56.8950 C   0  0  0  0  0  0  0  0  0  0  0  0
   -0.3300   44.9050   57.1140 C   0  0  0  0  0  0  0  0  0  0  0  0
   -0.0200   45.5270   55.7450 C   0  0  1  0  0  0  0  0  0  0  0  0
    0.8460   44.5700   54.8760 C   0  0  0  0  0  0  0  0  0  0  0  0
   -1.3180   45.7060   55.0970 N   0  0  0  0  0  0  0  0  0  0  0  0
    3.2030   42.7320   52.7360 N   0  0  0  0  0  0  0  0  0  0  0  0
    4.2370   43.5150   52.1200 C   0  0  0  0  0  0  0  0  0  0  0  0
    4.5820   44.7850   52.6160 C   0  0  0  0  0  0  0  0  0  0  0  0
    5.6210   45.5140   52.0320 C   0  0  0  0  0  0  0  0  0  0  0  0
    6.3360   44.9840   50.9410 C   0  0  0  0  0  0  0  0  0  0  0  0
    7.3820   45.6860   50.3210 O   0  0  0  0  0  0  0  0  0  0  0  0
    8.7410   45.6560   50.7500 C   0  0  0  0  0  0  0  0  0  0  0  0
    8.8780   46.4810   51.9960 C   0  0  0  0  0  0  0  0  0  0  0  0
    9.7410   46.0770   53.0260 C   0  0  0  0  0  0  0  0  0  0  0  0
    9.8950   46.8750   54.1600 C   0  0  0  0  0  0  0  0  0  0  0  0
    9.1910   48.0800   54.2500 C   0  0  0  0  0  0  0  0  0  0  0  0
    8.3710   48.4670   53.2360 N   0  0  0  0  0  0  0  0  0  0  0  0
    8.2050   47.7070   52.1210 C   0  0  0  0  0  0  0  0  0  0  0  0
    5.9980   43.7120   50.4540 C   0  0  0  0  0  0  0  0  0  0  0  0
    6.8700   43.0160   49.0960 Cl  0  0  0  0  0  0  0  0  0  0  0  0
    4.9640   42.9800   51.0480 C   0  0  0  0  0  0  0  0  0  0  0  0
    0.0292   41.7975   52.8819 H   0  0  0  0  0  0  0  0  0  0  0  0
    1.2520   41.9948   54.2257 H   0  0  0  0  0  0  0  0  0  0  0  0
   -0.2254   44.3326   53.0460 H   0  0  0  0  0  0  0  0  0  0  0  0
   -2.1160   43.1781   53.6605 H   0  0  0  0  0  0  0  0  0  0  0  0
   -1.3040   42.4182   55.0993 H   0  0  0  0  0  0  0  0  0  0  0  0
   -3.0715   44.4766   55.2738 H   0  0  0  0  0  0  0  0  0  0  0  0
   -2.4284   44.5681   57.5561 H   0  0  0  0  0  0  0  0  0  0  0  0
   -1.5712   43.0968   57.1203 H   0  0  0  0  0  0  0  0  0  0  0  0
   -0.4409   45.6849   57.8818 H   0  0  0  0  0  0  0  0  0  0  0  0
    0.4720   44.2411   57.4690 H   0  0  0  0  0  0  0  0  0  0  0  0
    0.5387   46.4675   55.8604 H   0  0  0  0  0  0  0  0  0  0  0  0
    1.5422   45.1723   54.2739 H   0  0  0  0  0  0  0  0  0  0  0  0
    1.3835   43.8930   55.5563 H   0  0  0  0  0  0  0  0  0  0  0  0
   -1.8280   46.4860   55.5760 H   0  0  0  0  0  0  0  0  0  0  0  0
    3.4730   42.0520   53.4830 H   0  0  0  0  0  0  0  0  0  0  0  0
    4.0304   45.2070   53.4690 H   0  0  0  0  0  0  0  0  0  0  0  0
    5.8818   46.5071   52.4266 H   0  0  0  0  0  0  0  0  0  0  0  0
    9.0386   44.6181   50.9603 H   0  0  0  0  0  0  0  0  0  0  0  0
    9.3891   46.0644   49.9606 H   0  0  0  0  0  0  0  0  0  0  0  0
   10.2960   45.1313   52.9394 H   0  0  0  0  0  0  0  0  0  0  0  0
   10.5632   46.5596   54.9749 H   0  0  0  0  0  0  0  0  0  0  0  0
    9.3004   48.7153   55.1413 H   0  0  0  0  0  0  0  0  0  0  0  0
    7.5418   48.0534   51.3147 H   0  0  0  0  0  0  0  0  0  0  0  0
    4.7197   41.9762   50.6704 H   0  0  0  0  0  0  0  0  0  0  0  0
  1  2  2  0
  2  3  1  0
  3  4  1  0
  4  5  1  0
  5  6  1  0
  6  7  1  0
  7  8  1  0
  8  9  1  0
  9 10  1  0
  9 11  1  0
  2 12  1  0
 12 13  1  0
 13 14  2  0
 14 15  1  0
 15 16  2  0
 16 17  1  0
 17 18  1  0
 18 19  1  0
 19 20  2  0
 20 21  1  0
 21 22  2  0
 22 23  1  0
 23 24  2  0
 16 25  1  0
 25 26  1  0
 25 27  2  0
 10  4  1  0
 27 13  1  0
 11  6  1  0
 24 19  1  0
  3 28  1  0
  3 29  1  0
  4 30  1  6
  5 31  1  0
  5 32  1  0
  6 33  1  1
  7 34  1  0
  7 35  1  0
  8 36  1  0
  8 37  1  0
  9 38  1  1
 10 39  1  0
 10 40  1  0
 11 41  1  0
 12 42  1  0
 14 43  1  0
 15 44  1  0
 18 45  1  0
 18 46  1  0
 20 47  1  0
 21 48  1  0
 22 49  1  0
 24 50  1  0
 27 51  1  0
M  END
>  <meeko>  (1) 
{"is_sidechain": [false], "free_energy": -9.058, "intermolecular_energy": -12.236, "internal_energy": -0.605}

$$$$
ligand_89_conformer_1_docked
     RDKit          3D

 51 54  0  0  0  0  0  0  0  0999 V2000
    3.6430   45.6800   51.9620 O   0  0  0  0  0  0  0  0  0  0  0  0
    4.5580   45.3270   52.7540 C   0  0  0  0  0  0  0  0  0  0  0  0
    4.9360   46.2230   53.9020 C   0  0  0  0  0  0  0  0  0  0  0  0
    6.1670   47.1100   53.6120 C   0  0  1  0  0  0  0  0  0  0  0  0
    7.3420   46.8710   54.6080 C   0  0  0  0  0  0  0  0  0  0  0  0
    8.6950   47.4140   54.0670 C   0  0  1  0  0  0  0  0  0  0  0  0
    9.4900   46.3150   53.3460 C   0  0  0  0  0  0  0  0  0  0  0  0
    9.0620   46.4460   51.8910 C   0  0  0  0  0  0  0  0  0  0  0  0
    8.0500   47.6000   51.9050 C   0  0  1  0  0  0  0  0  0  0  0  0
    6.6000   47.0750   52.1150 C   0  0  0  0  0  0  0  0  0  0  0  0
    8.4200   48.4290   53.0510 N   0  0  0  0  0  0  0  0  0  0  0  0
    5.2200   44.0680   52.5730 N   0  0  0  0  0  0  0  0  0  0  0  0
    5.3460   43.4160   51.3000 C   0  0  0  0  0  0  0  0  0  0  0  0
    6.3540   43.7800   50.3920 C   0  0  0  0  0  0  0  0  0  0  0  0
    6.4900   43.1040   49.1760 C   0  0  0  0  0  0  0  0  0  0  0  0
    5.6170   42.0490   48.8490 C   0  0  0  0  0  0  0  0  0  0  0  0
    5.7140   41.3480   47.6360 O   0  0  0  0  0  0  0  0  0  0  0  0
    5.6660   41.9520   46.3470 C   0  0  0  0  0  0  0  0  0  0  0  0
    4.8160   41.1070   45.4420 C   0  0  0  0  0  0  0  0  0  0  0  0
    3.4960   40.7900   45.7970 C   0  0  0  0  0  0  0  0  0  0  0  0
    2.7020   40.0410   44.9270 C   0  0  0  0  0  0  0  0  0  0  0  0
    3.2320   39.6260   43.7020 C   0  0  0  0  0  0  0  0  0  0  0  0
    4.5070   39.9560   43.3640 N   0  0  0  0  0  0  0  0  0  0  0  0
    5.3010   40.6840   44.1950 C   0  0  0  0  0  0  0  0  0  0  0  0
    4.6170   41.6790   49.7610 C   0  0  0  0  0  0  0  0  0  0  0  0
    3.5110   40.3640   49.3890 Cl  0  0  0  0  0  0  0  0  0  0  0  0
    4.4920   42.3510   50.9820 C   0  0  0  0  0  0  0  0  0  0  0  0
    4.0813   46.8771   54.1292 H   0  0  0  0  0  0  0  0  0  0  0  0
    5.1990   45.5712   54.7481 H   0  0  0  0  0  0  0  0  0  0  0  0
    5.8431   48.1449   53.7965 H   0  0  0  0  0  0  0  0  0  0  0  0
    7.1108   47.3789   55.5560 H   0  0  0  0  0  0  0  0  0  0  0  0
    7.4477   45.7852   54.7489 H   0  0  0  0  0  0  0  0  0  0  0  0
    9.2631   47.8033   54.9248 H   0  0  0  0  0  0  0  0  0  0  0  0
   10.5721   46.4817   53.4519 H   0  0  0  0  0  0  0  0  0  0  0  0
    9.2954   45.3131   53.7562 H   0  0  0  0  0  0  0  0  0  0  0  0
    9.9227   46.6883   51.2504 H   0  0  0  0  0  0  0  0  0  0  0  0
    8.6369   45.5145   51.4889 H   0  0  0  0  0  0  0  0  0  0  0  0
    8.0702   48.1475   50.9511 H   0  0  0  0  0  0  0  0  0  0  0  0
    5.9092   47.7024   51.5326 H   0  0  0  0  0  0  0  0  0  0  0  0
    6.5708   46.0272   51.7816 H   0  0  0  0  0  0  0  0  0  0  0  0
    9.3140   48.9300   52.8280 H   0  0  0  0  0  0  0  0  0  0  0  0
    5.6270   43.5990   53.4140 H   0  0  0  0  0  0  0  0  0  0  0  0
    7.0411   44.6026   50.6395 H   0  0  0  0  0  0  0  0  0  0  0  0
    7.2824   43.3976   48.4717 H   0  0  0  0  0  0  0  0  0  0  0  0
    5.2306   42.9590   46.4276 H   0  0  0  0  0  0  0  0  0  0  0  0
    6.6830   42.0301   45.9353 H   0  0  0  0  0  0  0  0  0  0  0  0
    3.0875   41.1313   46.7596 H   0  0  0  0  0  0  0  0  0  0  0  0
    1.6696   39.7800   45.2026 H   0  0  0  0  0  0  0  0  0  0  0  0
    2.6168   39.0316   43.0105 H   0  0  0  0  0  0  0  0  0  0  0  0
    6.3256   40.9416   43.8887 H   0  0  0  0  0  0  0  0  0  0  0  0
    3.7170   42.0408   51.6983 H   0  0  0  0  0  0  0  0  0  0  0  0
  1  2  2  0
  2  3  1  0
  3  4  1  0
  4  5  1  0
  5  6  1  0
  6  7  1  0
  7  8  1  0
  8  9  1  0
  9 10  1  0
  9 11  1  0
  2 12  1  0
 12 13  1  0
 13 14  2  0
 14 15  1  0
 15 16  2  0
 16 17  1  0
 17 18  1  0
 18 19  1  0
 19 20  2  0
 20 21  1  0
 21 22  2  0
 22 23  1  0
 23 24  2  0
 16 25  1  0
 25 26  1  0
 25 27  2  0
 10  4  1  0
 27 13  1  0
 11  6  1  0
 24 19  1  0
  3 28  1  0
  3 29  1  0
  4 30  1  1
  5 31  1  0
  5 32  1  0
  6 33  1  1
  7 34  1  0
  7 35  1  0
  8 36  1  0
  8 37  1  0
  9 38  1  6
 10 39  1  0
 10 40  1  0
 11 41  1  0
 12 42  1  0
 14 43  1  0
 15 44  1  0
 18 45  1  0
 18 46  1  0
 20 47  1  0
 21 48  1  0
 22 49  1  0
 24 50  1  0
 27 51  1  0
M  END
>  <meeko>  (2) 
{"is_sidechain": [false], "free_energy": -8.606, "intermolecular_energy": -11.255, "internal_energy": -0.973}

$$$$
ligand_89_conformer_1_docked
     RDKit          3D

 51 54  0  0  0  0  0  0  0  0999 V2000
    3.5400   45.9090   52.2590 O   0  0  0  0  0  0  0  0  0  0  0  0
    4.2240   45.2180   53.0600 C   0  0  0  0  0  0  0  0  0  0  0  0
    5.6810   44.9730   52.7750 C   0  0  0  0  0  0  0  0  0  0  0  0
    6.5400   46.2550   52.8020 C   0  0  1  0  0  0  0  0  0  0  0  0
    7.2930   46.4600   54.1510 C   0  0  0  0  0  0  0  0  0  0  0  0
    8.4680   47.4710   54.0260 C   0  0  1  0  0  0  0  0  0  0  0  0
    9.7970   46.7520   53.7480 C   0  0  0  0  0  0  0  0  0  0  0  0
    9.8920   46.7290   52.2300 C   0  0  0  0  0  0  0  0  0  0  0  0
    8.6050   47.4250   51.7660 C   0  0  1  0  0  0  0  0  0  0  0  0
    7.4560   46.3980   51.5490 C   0  0  0  0  0  0  0  0  0  0  0  0
    8.2320   48.3210   52.8600 N   0  0  0  0  0  0  0  0  0  0  0  0
    3.6220   44.6850   54.2470 N   0  0  0  0  0  0  0  0  0  0  0  0
    2.2220   44.3860   54.3590 C   0  0  0  0  0  0  0  0  0  0  0  0
    1.3890   45.1130   55.2260 C   0  0  0  0  0  0  0  0  0  0  0  0
    0.0200   44.8390   55.2880 C   0  0  0  0  0  0  0  0  0  0  0  0
   -0.5400   43.8310   54.4810 C   0  0  0  0  0  0  0  0  0  0  0  0
   -1.9080   43.5190   54.5170 O   0  0  0  0  0  0  0  0  0  0  0  0
   -2.9580   44.4590   54.3070 C   0  0  0  0  0  0  0  0  0  0  0  0
   -2.9680   44.8680   52.8630 C   0  0  0  0  0  0  0  0  0  0  0  0
   -3.1880   43.9170   51.8550 C   0  0  0  0  0  0  0  0  0  0  0  0
   -3.2390   44.3170   50.5190 C   0  0  0  0  0  0  0  0  0  0  0  0
   -3.0800   45.6690   50.2030 C   0  0  0  0  0  0  0  0  0  0  0  0
   -2.8850   46.5820   51.1920 N   0  0  0  0  0  0  0  0  0  0  0  0
   -2.8310   46.2170   52.5010 C   0  0  0  0  0  0  0  0  0  0  0  0
    0.2910   43.1130   53.6070 C   0  0  0  0  0  0  0  0  0  0  0  0
   -0.3730   41.8500   52.5800 Cl  0  0  0  0  0  0  0  0  0  0  0  0
    1.6590   43.3980   53.5400 C   0  0  0  0  0  0  0  0  0  0  0  0
    6.0712   44.2770   53.5321 H   0  0  0  0  0  0  0  0  0  0  0  0
    5.7459   44.5626   51.7565 H   0  0  0  0  0  0  0  0  0  0  0  0
    5.8303   47.0932   52.7410 H   0  0  0  0  0  0  0  0  0  0  0  0
    6.5806   46.8371   54.8995 H   0  0  0  0  0  0  0  0  0  0  0  0
    7.7158   45.4895   54.4501 H   0  0  0  0  0  0  0  0  0  0  0  0
    8.5226   48.0346   54.9690 H   0  0  0  0  0  0  0  0  0  0  0  0
   10.6406   47.3070   54.1843 H   0  0  0  0  0  0  0  0  0  0  0  0
    9.8345   45.7454   54.1900 H   0  0  0  0  0  0  0  0  0  0  0  0
   10.7800   47.2793   51.8856 H   0  0  0  0  0  0  0  0  0  0  0  0
    9.9905   45.7100   51.8277 H   0  0  0  0  0  0  0  0  0  0  0  0
    8.7671   47.9491   50.8125 H   0  0  0  0  0  0  0  0  0  0  0  0
    6.8419   46.7299   50.6989 H   0  0  0  0  0  0  0  0  0  0  0  0
    7.9156   45.4173   51.3568 H   0  0  0  0  0  0  0  0  0  0  0  0
    8.9110   49.1200   52.8850 H   0  0  0  0  0  0  0  0  0  0  0  0
    4.2340   44.5120   55.0760 H   0  0  0  0  0  0  0  0  0  0  0  0
    1.8173   45.9031   55.8602 H   0  0  0  0  0  0  0  0  0  0  0  0
   -0.6229   45.4139   55.9708 H   0  0  0  0  0  0  0  0  0  0  0  0
   -3.9226   43.9981   54.5662 H   0  0  0  0  0  0  0  0  0  0  0  0
   -2.7973   45.3428   54.9419 H   0  0  0  0  0  0  0  0  0  0  0  0
   -3.3202   42.8570   52.1177 H   0  0  0  0  0  0  0  0  0  0  0  0
   -3.4027   43.5758   49.7229 H   0  0  0  0  0  0  0  0  0  0  0  0
   -3.1126   45.9952   49.1530 H   0  0  0  0  0  0  0  0  0  0  0  0
   -2.6796   46.9809   53.2778 H   0  0  0  0  0  0  0  0  0  0  0  0
    2.2982   42.8418   52.8385 H   0  0  0  0  0  0  0  0  0  0  0  0
  1  2  2  0
  2  3  1  0
  3  4  1  0
  4  5  1  0
  5  6  1  0
  6  7  1  0
  7  8  1  0
  8  9  1  0
  9 10  1  0
  9 11  1  0
  2 12  1  0
 12 13  1  0
 13 14  2  0
 14 15  1  0
 15 16  2  0
 16 17  1  0
 17 18  1  0
 18 19  1  0
 19 20  2  0
 20 21  1  0
 21 22  2  0
 22 23  1  0
 23 24  2  0
 16 25  1  0
 25 26  1  0
 25 27  2  0
 10  4  1  0
 27 13  1  0
 11  6  1  0
 24 19  1  0
  3 28  1  0
  3 29  1  0
  4 30  1  6
  5 31  1  0
  5 32  1  0
  6 33  1  1
  7 34  1  0
  7 35  1  0
  8 36  1  0
  8 37  1  0
  9 38  1  6
 10 39  1  0
 10 40  1  0
 11 41  1  0
 12 42  1  0
 14 43  1  0
 15 44  1  0
 18 45  1  0
 18 46  1  0
 20 47  1  0
 21 48  1  0
 22 49  1  0
 24 50  1  0
 27 51  1  0
M  END
>  <meeko>  (3) 
{"is_sidechain": [false], "free_energy": -8.49, "intermolecular_energy": -11.036, "internal_energy": -1.037}

$$$$
ligand_89_conformer_1_docked
     RDKit          3D

 51 54  0  0  0  0  0  0  0  0999 V2000
    1.7990   44.2680   51.9620 O   0  0  0  0  0  0  0  0  0  0  0  0
    2.5760   44.0630   52.9330 C   0  0  0  0  0  0  0  0  0  0  0  0
    2.4580   44.9080   54.1720 C   0  0  0  0  0  0  0  0  0  0  0  0
    3.6210   45.9080   54.3500 C   0  0  1  0  0  0  0  0  0  0  0  0
    4.8720   45.2780   55.0340 C   0  0  0  0  0  0  0  0  0  0  0  0
    6.1570   46.1250   54.8130 C   0  0  1  0  0  0  0  0  0  0  0  0
    6.9530   45.6270   53.5980 C   0  0  0  0  0  0  0  0  0  0  0  0
    6.4220   46.4620   52.4420 C   0  0  0  0  0  0  0  0  0  0  0  0
    5.3580   47.3580   53.0910 C   0  0  1  0  0  0  0  0  0  0  0  0
    3.9530   46.6910   53.0430 C   0  0  0  0  0  0  0  0  0  0  0  0
    5.7650   47.4960   54.4880 N   0  0  0  0  0  0  0  0  0  0  0  0
    3.5540   43.0160   52.8650 N   0  0  0  0  0  0  0  0  0  0  0  0
    4.1140   42.5360   51.6330 C   0  0  0  0  0  0  0  0  0  0  0  0
    3.4690   41.5420   50.8790 C   0  0  0  0  0  0  0  0  0  0  0  0
    4.0060   41.1190   49.6600 C   0  0  0  0  0  0  0  0  0  0  0  0
    5.1990   41.6860   49.1730 C   0  0  0  0  0  0  0  0  0  0  0  0
    5.7750   41.2860   47.9570 O   0  0  0  0  0  0  0  0  0  0  0  0
    5.6350   41.9880   46.7260 C   0  0  0  0  0  0  0  0  0  0  0  0
    4.8540   41.1400   45.7640 C   0  0  0  0  0  0  0  0  0  0  0  0
    3.5400   40.7510   46.0620 C   0  0  0  0  0  0  0  0  0  0  0  0
    2.8090   39.9990   45.1410 C   0  0  0  0  0  0  0  0  0  0  0  0
    3.3980   39.6520   43.9220 C   0  0  0  0  0  0  0  0  0  0  0  0
    4.6670   40.0500   43.6400 N   0  0  0  0  0  0  0  0  0  0  0  0
    5.3990   40.7820   44.5210 C   0  0  0  0  0  0  0  0  0  0  0  0
    5.8360   42.6870   49.9230 C   0  0  0  0  0  0  0  0  0  0  0  0
    7.3250   43.4220   49.3460 Cl  0  0  0  0  0  0  0  0  0  0  0  0
    5.2900   43.1160   51.1370 C   0  0  0  0  0  0  0  0  0  0  0  0
    1.5168   45.4749   54.1182 H   0  0  0  0  0  0  0  0  0  0  0  0
    2.4853   44.2242   55.0332 H   0  0  0  0  0  0  0  0  0  0  0  0
    3.2592   46.6663   55.0600 H   0  0  0  0  0  0  0  0  0  0  0  0
    4.6820   45.1995   56.1146 H   0  0  0  0  0  0  0  0  0  0  0  0
    5.0397   44.2894   54.5818 H   0  0  0  0  0  0  0  0  0  0  0  0
    6.7624   46.0532   55.7286 H   0  0  0  0  0  0  0  0  0  0  0  0
    8.0305   45.7968   53.7403 H   0  0  0  0  0  0  0  0  0  0  0  0
    6.8350   44.5465   53.4288 H   0  0  0  0  0  0  0  0  0  0  0  0
    7.2245   47.0678   51.9960 H   0  0  0  0  0  0  0  0  0  0  0  0
    6.0170   45.8464   51.6253 H   0  0  0  0  0  0  0  0  0  0  0  0
    5.2859   48.3210   52.5642 H   0  0  0  0  0  0  0  0  0  0  0  0
    3.1948   47.4747   52.8986 H   0  0  0  0  0  0  0  0  0  0  0  0
    3.9522   45.9708   52.2115 H   0  0  0  0  0  0  0  0  0  0  0  0
    6.6160   48.1070   54.5320 H   0  0  0  0  0  0  0  0  0  0  0  0
    3.8700   42.5770   53.7590 H   0  0  0  0  0  0  0  0  0  0  0  0
    2.5356   41.0937   51.2501 H   0  0  0  0  0  0  0  0  0  0  0  0
    3.4937   40.3388   49.0779 H   0  0  0  0  0  0  0  0  0  0  0  0
    5.1018   42.9343   46.9000 H   0  0  0  0  0  0  0  0  0  0  0  0
    6.6289   42.2045   46.3073 H   0  0  0  0  0  0  0  0  0  0  0  0
    3.0855   41.0385   47.0215 H   0  0  0  0  0  0  0  0  0  0  0  0
    1.7810   39.6830   45.3720 H   0  0  0  0  0  0  0  0  0  0  0  0
    2.8339   39.0559   43.1896 H   0  0  0  0  0  0  0  0  0  0  0  0
    6.4207   41.0945   44.2592 H   0  0  0  0  0  0  0  0  0  0  0  0
    5.7871   43.9147   51.7071 H   0  0  0  0  0  0  0  0  0  0  0  0
  1  2  2  0
  2  3  1  0
  3  4  1  0
  4  5  1  0
  5  6  1  0
  6  7  1  0
  7  8  1  0
  8  9  1  0
  9 10  1  0
  9 11  1  0
  2 12  1  0
 12 13  1  0
 13 14  2  0
 14 15  1  0
 15 16  2  0
 16 17  1  0
 17 18  1  0
 18 19  1  0
 19 20  2  0
 20 21  1  0
 21 22  2  0
 22 23  1  0
 23 24  2  0
 16 25  1  0
 25 26  1  0
 25 27  2  0
 10  4  1  0
 27 13  1  0
 11  6  1  0
 24 19  1  0
  3 28  1  0
  3 29  1  0
  4 30  1  1
  5 31  1  0
  5 32  1  0
  6 33  1  1
  7 34  1  0
  7 35  1  0
  8 36  1  0
  8 37  1  0
  9 38  1  6
 10 39  1  0
 10 40  1  0
 11 41  1  0
 12 42  1  0
 14 43  1  0
 15 44  1  0
 18 45  1  0
 18 46  1  0
 20 47  1  0
 21 48  1  0
 22 49  1  0
 24 50  1  0
 27 51  1  0
M  END
>  <meeko>  (4) 
{"is_sidechain": [false], "free_energy": -8.389, "intermolecular_energy": -10.85, "internal_energy": -1.086}

$$$$
ligand_89_conformer_1_docked
     RDKit          3D

 51 54  0  0  0  0  0  0  0  0999 V2000
    1.5300   45.0720   56.0580 O   0  0  0  0  0  0  0  0  0  0  0  0
    0.6430   45.1610   55.1670 C   0  0  0  0  0  0  0  0  0  0  0  0
   -0.7580   44.7000   55.4630 C   0  0  0  0  0  0  0  0  0  0  0  0
   -1.3740   43.8370   54.3400 C   0  0  1  0  0  0  0  0  0  0  0  0
   -2.1920   44.6680   53.3070 C   0  0  0  0  0  0  0  0  0  0  0  0
   -2.4260   43.8970   51.9770 C   0  0  1  0  0  0  0  0  0  0  0  0
   -1.3490   44.2370   50.9360 C   0  0  0  0  0  0  0  0  0  0  0  0
   -0.2790   43.1770   51.1540 C   0  0  0  0  0  0  0  0  0  0  0  0
   -0.8270   42.3280   52.3090 C   0  0  1  0  0  0  0  0  0  0  0  0
   -0.3430   42.8680   53.6850 C   0  0  0  0  0  0  0  0  0  0  0  0
   -2.2810   42.4650   52.2350 N   0  0  0  0  0  0  0  0  0  0  0  0
    0.9630   45.7160   53.8840 N   0  0  0  0  0  0  0  0  0  0  0  0
    2.2810   45.6800   53.3130 C   0  0  0  0  0  0  0  0  0  0  0  0
    3.1150   46.8110   53.3350 C   0  0  0  0  0  0  0  0  0  0  0  0
    4.4100   46.7450   52.8150 C   0  0  0  0  0  0  0  0  0  0  0  0
    4.8950   45.5430   52.2650 C   0  0  0  0  0  0  0  0  0  0  0  0
    6.1870   45.4350   51.7270 O   0  0  0  0  0  0  0  0  0  0  0  0
    7.0200   46.5420   51.3940 C   0  0  0  0  0  0  0  0  0  0  0  0
    8.0130   46.7560   52.4990 C   0  0  0  0  0  0  0  0  0  0  0  0
    9.3840   46.5710   52.2700 C   0  0  0  0  0  0  0  0  0  0  0  0
   10.3020   46.8170   53.2930 C   0  0  0  0  0  0  0  0  0  0  0  0
    9.8390   47.2580   54.5350 C   0  0  0  0  0  0  0  0  0  0  0  0
    8.5070   47.4500   54.7380 N   0  0  0  0  0  0  0  0  0  0  0  0
    7.5950   47.2170   53.7580 C   0  0  0  0  0  0  0  0  0  0  0  0
    4.0650   44.4120   52.2540 C   0  0  0  0  0  0  0  0  0  0  0  0
    4.6360   42.8920   51.5790 Cl  0  0  0  0  0  0  0  0  0  0  0  0
    2.7720   44.4790   52.7860 C   0  0  0  0  0  0  0  0  0  0  0  0
   -0.7406   44.1059   56.3886 H   0  0  0  0  0  0  0  0  0  0  0  0
   -1.3816   45.6013   55.5568 H   0  0  0  0  0  0  0  0  0  0  0  0
   -2.1128   43.1870   54.8317 H   0  0  0  0  0  0  0  0  0  0  0  0
   -3.1688   44.9164   53.7477 H   0  0  0  0  0  0  0  0  0  0  0  0
   -1.6134   45.5736   53.0720 H   0  0  0  0  0  0  0  0  0  0  0  0
   -3.4241   44.1722   51.6054 H   0  0  0  0  0  0  0  0  0  0  0  0
   -1.7576   44.1763   49.9165 H   0  0  0  0  0  0  0  0  0  0  0  0
   -0.9605   45.2601   51.0473 H   0  0  0  0  0  0  0  0  0  0  0  0
   -0.1440   42.5659   50.2494 H   0  0  0  0  0  0  0  0  0  0  0  0
    0.7068   43.6105   51.3780 H   0  0  0  0  0  0  0  0  0  0  0  0
   -0.4852   41.2859   52.2236 H   0  0  0  0  0  0  0  0  0  0  0  0
   -0.1802   42.0159   54.3613 H   0  0  0  0  0  0  0  0  0  0  0  0
    0.5862   43.4319   53.5157 H   0  0  0  0  0  0  0  0  0  0  0  0
   -2.6260   41.9370   51.3980 H   0  0  0  0  0  0  0  0  0  0  0  0
    0.1990   46.1760   53.3400 H   0  0  0  0  0  0  0  0  0  0  0  0
    2.7458   47.7541   53.7643 H   0  0  0  0  0  0  0  0  0  0  0  0
    5.0540   47.6366   52.8353 H   0  0  0  0  0  0  0  0  0  0  0  0
    7.5529   46.3332   50.4546 H   0  0  0  0  0  0  0  0  0  0  0  0
    6.4049   47.4451   51.2670 H   0  0  0  0  0  0  0  0  0  0  0  0
    9.7363   46.2321   51.2846 H   0  0  0  0  0  0  0  0  0  0  0  0
   11.3781   46.6652   53.1227 H   0  0  0  0  0  0  0  0  0  0  0  0
   10.5521   47.4504   55.3502 H   0  0  0  0  0  0  0  0  0  0  0  0
    6.5260   47.3900   53.9514 H   0  0  0  0  0  0  0  0  0  0  0  0
    2.1365   43.5811   52.7902 H   0  0  0  0  0  0  0  0  0  0  0  0
  1  2  2  0
  2  3  1  0
  3  4  1  0
  4  5  1  0
  5  6  1  0
  6  7  1  0
  7  8  1  0
  8  9  1  0
  9 10  1  0
  9 11  1  0
  2 12  1  0
 12 13  1  0
 13 14  2  0
 14 15  1  0
 15 16  2  0
 16 17  1  0
 17 18  1  0
 18 19  1  0
 19 20  2  0
 20 21  1  0
 21 22  2  0
 22 23  1  0
 23 24  2  0
 16 25  1  0
 25 26  1  0
 25 27  2  0
 10  4  1  0
 27 13  1  0
 11  6  1  0
 24 19  1  0
  3 28  1  0
  3 29  1  0
  4 30  1  1
  5 31  1  0
  5 32  1  0
  6 33  1  6
  7 34  1  0
  7 35  1  0
  8 36  1  0
  8 37  1  0
  9 38  1  6
 10 39  1  0
 10 40  1  0
 11 41  1  0
 12 42  1  0
 14 43  1  0
 15 44  1  0
 18 45  1  0
 18 46  1  0
 20 47  1  0
 21 48  1  0
 22 49  1  0
 24 50  1  0
 27 51  1  0
M  END
>  <meeko>  (5) 
{"is_sidechain": [false], "free_energy": -8.234, "intermolecular_energy": -11.087, "internal_energy": -0.64}

$$$$
