ligand_48_conformer_3_docked
     RDKit          3D

 52 55  0  0  0  0  0  0  0  0999 V2000
    8.2300   48.6760   52.8200 C   0  0  0  0  0  0  0  0  0  0  0  0
    8.6220   47.2970   53.3630 C   0  0  0  0  0  0  0  0  0  0  0  0
    9.8600   47.3930   54.2650 C   0  0  0  0  0  0  0  0  0  0  0  0
    8.8560   46.3440   52.2160 C   0  0  0  0  0  0  0  0  0  0  0  0
   10.0760   46.0430   51.7140 N   0  0  0  0  0  0  0  0  0  0  0  0
    9.8950   45.2330   50.6760 N   0  0  0  0  0  0  0  0  0  0  0  0
    8.5650   45.0660   50.5580 C   0  0  0  0  0  0  0  0  0  0  0  0
    7.9030   44.2920   49.6150 C   0  0  0  0  0  0  0  0  0  0  0  0
    6.5030   44.2320   49.6930 C   0  0  0  0  0  0  0  0  0  0  0  0
    5.8010   44.9360   50.7000 C   0  0  0  0  0  0  0  0  0  0  0  0
    4.3730   44.7780   50.8050 N   0  0  0  0  0  0  0  0  0  0  0  0
    3.4740   45.8720   51.0360 C   0  0  0  0  0  0  0  0  0  0  0  0
    3.4120   46.8060   50.1960 O   0  0  0  0  0  0  0  0  0  0  0  0
    2.6300   45.9060   52.2120 N   0  0  0  0  0  0  0  0  0  0  0  0
    1.2090   45.5250   52.0940 C   0  0  0  0  0  0  0  0  0  0  0  0
    0.9770   44.0080   52.1340 C   0  0  0  0  0  0  0  0  0  0  0  0
    0.9110   43.3880   53.5570 C   0  0  0  0  0  0  0  0  0  0  0  0
    0.7750   44.3300   54.7490 C   0  0  0  0  0  0  0  0  0  0  0  0
   -0.4610   44.3600   55.4250 C   0  0  0  0  0  0  0  0  0  0  0  0
   -0.6130   45.0800   56.6110 C   0  0  0  0  0  0  0  0  0  0  0  0
    0.4650   45.7820   57.1450 C   0  0  0  0  0  0  0  0  0  0  0  0
    1.6880   45.7980   56.4810 C   0  0  0  0  0  0  0  0  0  0  0  0
    1.8660   45.0690   55.2890 C   0  0  0  0  0  0  0  0  0  0  0  0
    3.1820   45.1930   54.5630 C   0  0  0  0  0  0  0  0  0  0  0  0
    3.1770   46.3340   53.5190 C   0  0  0  0  0  0  0  0  0  0  0  0
    6.5390   45.7320   51.6050 C   0  0  0  0  0  0  0  0  0  0  0  0
    7.8910   45.7460   51.4920 N   0  0  0  0  0  0  0  0  0  0  0  0
    8.0358   49.3592   53.6600 H   0  0  0  0  0  0  0  0  0  0  0  0
    9.0504   49.0747   52.2052 H   0  0  0  0  0  0  0  0  0  0  0  0
    7.3225   48.5836   52.2052 H   0  0  0  0  0  0  0  0  0  0  0  0
    7.7964   46.9102   53.9785 H   0  0  0  0  0  0  0  0  0  0  0  0
    9.5481   47.3688   55.3196 H   0  0  0  0  0  0  0  0  0  0  0  0
   10.5291   46.5440   54.0610 H   0  0  0  0  0  0  0  0  0  0  0  0
   10.3902   48.3350   54.0610 H   0  0  0  0  0  0  0  0  0  0  0  0
    8.4550   43.7461   48.8357 H   0  0  0  0  0  0  0  0  0  0  0  0
    5.9440   43.6298   48.9617 H   0  0  0  0  0  0  0  0  0  0  0  0
    3.9950   43.8120   50.9350 H   0  0  0  0  0  0  0  0  0  0  0  0
    0.6551   45.9841   52.9261 H   0  0  0  0  0  0  0  0  0  0  0  0
    0.8588   45.8804   51.1137 H   0  0  0  0  0  0  0  0  0  0  0  0
    0.0251   43.7955   51.6253 H   0  0  0  0  0  0  0  0  0  0  0  0
    1.8486   43.5520   51.6416 H   0  0  0  0  0  0  0  0  0  0  0  0
    0.0453   42.7096   53.5772 H   0  0  0  0  0  0  0  0  0  0  0  0
    1.8950   42.9159   53.6941 H   0  0  0  0  0  0  0  0  0  0  0  0
   -1.3183   43.8081   55.0121 H   0  0  0  0  0  0  0  0  0  0  0  0
   -1.5856   45.0931   57.1247 H   0  0  0  0  0  0  0  0  0  0  0  0
    0.3494   46.3254   58.0944 H   0  0  0  0  0  0  0  0  0  0  0  0
    2.5231   46.3852   56.8907 H   0  0  0  0  0  0  0  0  0  0  0  0
    3.9740   45.3925   55.2999 H   0  0  0  0  0  0  0  0  0  0  0  0
    3.3578   44.2492   54.0260 H   0  0  0  0  0  0  0  0  0  0  0  0
    2.5630   47.1615   53.9041 H   0  0  0  0  0  0  0  0  0  0  0  0
    4.2202   46.6440   53.3586 H   0  0  0  0  0  0  0  0  0  0  0  0
    6.0309   46.3243   52.3802 H   0  0  0  0  0  0  0  0  0  0  0  0
  1  2  1  0
  2  3  1  0
  2  4  1  0
  4  5  2  0
  5  6  1  0
  6  7  2  0
  7  8  1  0
  8  9  2  0
  9 10  1  0
 10 11  1  0
 11 12  1  0
 12 13  2  0
 12 14  1  0
 14 15  1  0
 15 16  1  0
 16 17  1  0
 17 18  1  0
 18 19  2  0
 19 20  1  0
 20 21  2  0
 21 22  1  0
 22 23  2  0
 23 24  1  0
 24 25  1  0
 10 26  2  0
 26 27  1  0
 27  4  1  0
 27  7  1  0
 25 14  1  0
 23 18  1  0
  1 28  1  0
  1 29  1  0
  1 30  1  0
  2 31  1  0
  3 32  1  0
  3 33  1  0
  3 34  1  0
  8 35  1  0
  9 36  1  0
 11 37  1  0
 15 38  1  0
 15 39  1  0
 16 40  1  0
 16 41  1  0
 17 42  1  0
 17 43  1  0
 19 44  1  0
 20 45  1  0
 21 46  1  0
 22 47  1  0
 24 48  1  0
 24 49  1  0
 25 50  1  0
 25 51  1  0
 26 52  1  0
M  END
>  <meeko>  (1) 
{"is_sidechain": [false], "free_energy": -6.998, "intermolecular_energy": -10.68, "internal_energy": -0.439}

$$$$
ligand_48_conformer_3_docked
     RDKit          3D

 52 55  0  0  0  0  0  0  0  0999 V2000
   -3.5500   46.3050   54.5180 C   0  0  0  0  0  0  0  0  0  0  0  0
   -2.8390   44.9510   54.4180 C   0  0  0  0  0  0  0  0  0  0  0  0
   -3.8100   43.7990   54.7100 C   0  0  0  0  0  0  0  0  0  0  0  0
   -1.6580   44.9220   55.3570 C   0  0  0  0  0  0  0  0  0  0  0  0
   -1.7610   44.9060   56.7060 N   0  0  0  0  0  0  0  0  0  0  0  0
   -0.5280   44.9530   57.2030 N   0  0  0  0  0  0  0  0  0  0  0  0
    0.3000   45.0090   56.1450 C   0  0  0  0  0  0  0  0  0  0  0  0
    1.6880   45.0640   56.1760 C   0  0  0  0  0  0  0  0  0  0  0  0
    2.3620   45.0860   54.9450 C   0  0  0  0  0  0  0  0  0  0  0  0
    1.6470   45.0510   53.7240 C   0  0  0  0  0  0  0  0  0  0  0  0
    2.3760   44.9820   52.4840 N   0  0  0  0  0  0  0  0  0  0  0  0
    3.3670   43.9810   52.2070 C   0  0  0  0  0  0  0  0  0  0  0  0
    3.0310   42.7700   52.1960 O   0  0  0  0  0  0  0  0  0  0  0  0
    4.7390   44.3500   51.9260 N   0  0  0  0  0  0  0  0  0  0  0  0
    5.2050   44.3900   50.5260 C   0  0  0  0  0  0  0  0  0  0  0  0
    6.7330   44.3280   50.3890 C   0  0  0  0  0  0  0  0  0  0  0  0
    7.4830   45.7120   50.4580 C   0  0  0  0  0  0  0  0  0  0  0  0
    8.1810   46.1140   51.7530 C   0  0  0  0  0  0  0  0  0  0  0  0
    9.5790   46.2880   51.7190 C   0  0  0  0  0  0  0  0  0  0  0  0
   10.2650   46.8020   52.8220 C   0  0  0  0  0  0  0  0  0  0  0  0
    9.5700   47.1500   53.9770 C   0  0  0  0  0  0  0  0  0  0  0  0
    8.1930   46.9560   54.0500 C   0  0  0  0  0  0  0  0  0  0  0  0
    7.4800   46.4510   52.9460 C   0  0  0  0  0  0  0  0  0  0  0  0
    6.0070   46.1750   53.1090 C   0  0  0  0  0  0  0  0  0  0  0  0
    5.6740   44.6670   53.0290 C   0  0  0  0  0  0  0  0  0  0  0  0
    0.2350   45.0300   53.7700 C   0  0  0  0  0  0  0  0  0  0  0  0
   -0.3670   45.0000   54.9860 N   0  0  0  0  0  0  0  0  0  0  0  0
   -3.6886   46.5690   55.5768 H   0  0  0  0  0  0  0  0  0  0  0  0
   -2.9407   47.0765   54.0245 H   0  0  0  0  0  0  0  0  0  0  0  0
   -4.5310   46.2413   54.0245 H   0  0  0  0  0  0  0  0  0  0  0  0
   -2.4712   44.8179   53.3899 H   0  0  0  0  0  0  0  0  0  0  0  0
   -3.9148   43.6746   55.7979 H   0  0  0  0  0  0  0  0  0  0  0  0
   -4.7923   44.0272   54.2707 H   0  0  0  0  0  0  0  0  0  0  0  0
   -3.4188   42.8695   54.2707 H   0  0  0  0  0  0  0  0  0  0  0  0
    2.2375   45.0893   57.1286 H   0  0  0  0  0  0  0  0  0  0  0  0
    3.4610   45.1311   54.9290 H   0  0  0  0  0  0  0  0  0  0  0  0
    2.3430   45.8120   51.8490 H   0  0  0  0  0  0  0  0  0  0  0  0
    4.7720   43.5326   49.9899 H   0  0  0  0  0  0  0  0  0  0  0  0
    4.8803   45.3523   50.1034 H   0  0  0  0  0  0  0  0  0  0  0  0
    7.1194   43.6936   51.2003 H   0  0  0  0  0  0  0  0  0  0  0  0
    6.9274   43.9321   49.3813 H   0  0  0  0  0  0  0  0  0  0  0  0
    8.2494   45.7024   49.6690 H   0  0  0  0  0  0  0  0  0  0  0  0
    6.6768   46.4530   50.3534 H   0  0  0  0  0  0  0  0  0  0  0  0
   10.1377   46.0154   50.8115 H   0  0  0  0  0  0  0  0  0  0  0  0
   11.3564   46.9320   52.7779 H   0  0  0  0  0  0  0  0  0  0  0  0
   10.1099   47.5792   54.8339 H   0  0  0  0  0  0  0  0  0  0  0  0
    7.6571   47.1997   54.9792 H   0  0  0  0  0  0  0  0  0  0  0  0
    5.6831   46.5562   54.0887 H   0  0  0  0  0  0  0  0  0  0  0  0
    5.4798   46.6776   52.2847 H   0  0  0  0  0  0  0  0  0  0  0  0
    6.6079   44.1075   52.8714 H   0  0  0  0  0  0  0  0  0  0  0  0
    5.1859   44.3823   53.9728 H   0  0  0  0  0  0  0  0  0  0  0  0
   -0.3604   45.0378   52.8451 H   0  0  0  0  0  0  0  0  0  0  0  0
  1  2  1  0
  2  3  1  0
  2  4  1  0
  4  5  2  0
  5  6  1  0
  6  7  2  0
  7  8  1  0
  8  9  2  0
  9 10  1  0
 10 11  1  0
 11 12  1  0
 12 13  2  0
 12 14  1  0
 14 15  1  0
 15 16  1  0
 16 17  1  0
 17 18  1  0
 18 19  2  0
 19 20  1  0
 20 21  2  0
 21 22  1  0
 22 23  2  0
 23 24  1  0
 24 25  1  0
 10 26  2  0
 26 27  1  0
 27  4  1  0
 27  7  1  0
 25 14  1  0
 23 18  1  0
  1 28  1  0
  1 29  1  0
  1 30  1  0
  2 31  1  0
  3 32  1  0
  3 33  1  0
  3 34  1  0
  8 35  1  0
  9 36  1  0
 11 37  1  0
 15 38  1  0
 15 39  1  0
 16 40  1  0
 16 41  1  0
 17 42  1  0
 17 43  1  0
 19 44  1  0
 20 45  1  0
 21 46  1  0
 22 47  1  0
 24 48  1  0
 24 49  1  0
 25 50  1  0
 25 51  1  0
 26 52  1  0
M  END
>  <meeko>  (2) 
{"is_sidechain": [false], "free_energy": -6.996, "intermolecular_energy": -10.757, "internal_energy": -0.36}

$$$$
ligand_48_conformer_3_docked
     RDKit          3D

 52 55  0  0  0  0  0  0  0  0999 V2000
   -1.6640   45.0330   57.0570 C   0  0  0  0  0  0  0  0  0  0  0  0
   -0.5860   44.5300   56.0900 C   0  0  0  0  0  0  0  0  0  0  0  0
    0.4420   45.6310   55.7940 C   0  0  0  0  0  0  0  0  0  0  0  0
   -1.2310   44.0310   54.8200 C   0  0  0  0  0  0  0  0  0  0  0  0
   -2.5370   43.6930   54.7120 N   0  0  0  0  0  0  0  0  0  0  0  0
   -2.7330   43.2350   53.4800 N   0  0  0  0  0  0  0  0  0  0  0  0
   -1.5380   43.2900   52.8650 C   0  0  0  0  0  0  0  0  0  0  0  0
   -1.2570   42.9190   51.5570 C   0  0  0  0  0  0  0  0  0  0  0  0
    0.0610   43.0900   51.1040 C   0  0  0  0  0  0  0  0  0  0  0  0
    1.0580   43.6230   51.9550 C   0  0  0  0  0  0  0  0  0  0  0  0
    2.3750   43.8700   51.4280 N   0  0  0  0  0  0  0  0  0  0  0  0
    3.5810   43.5900   52.1560 C   0  0  0  0  0  0  0  0  0  0  0  0
    3.8280   42.4070   52.5020 O   0  0  0  0  0  0  0  0  0  0  0  0
    4.5160   44.6460   52.4790 N   0  0  0  0  0  0  0  0  0  0  0  0
    4.2490   45.5180   53.6400 C   0  0  0  0  0  0  0  0  0  0  0  0
    5.3940   45.5420   54.6630 C   0  0  0  0  0  0  0  0  0  0  0  0
    6.2370   46.8320   54.6820 C   0  0  0  0  0  0  0  0  0  0  0  0
    7.4760   46.8940   53.7960 C   0  0  0  0  0  0  0  0  0  0  0  0
    8.7110   47.1850   54.4110 C   0  0  0  0  0  0  0  0  0  0  0  0
    9.9060   47.1080   53.6940 C   0  0  0  0  0  0  0  0  0  0  0  0
    9.8930   46.7410   52.3510 C   0  0  0  0  0  0  0  0  0  0  0  0
    8.6850   46.4820   51.7080 C   0  0  0  0  0  0  0  0  0  0  0  0
    7.4690   46.5410   52.4160 C   0  0  0  0  0  0  0  0  0  0  0  0
    6.1840   46.3400   51.6520 C   0  0  0  0  0  0  0  0  0  0  0  0
    5.7220   44.8650   51.6490 C   0  0  0  0  0  0  0  0  0  0  0  0
    0.7070   43.9470   53.2850 C   0  0  0  0  0  0  0  0  0  0  0  0
   -0.5840   43.7720   53.6690 N   0  0  0  0  0  0  0  0  0  0  0  0
   -1.3290   44.8767   58.0930 H   0  0  0  0  0  0  0  0  0  0  0  0
   -1.8385   46.1055   56.8859 H   0  0  0  0  0  0  0  0  0  0  0  0
   -2.5980   44.4777   56.8859 H   0  0  0  0  0  0  0  0  0  0  0  0
   -0.0474   43.6948   56.5615 H   0  0  0  0  0  0  0  0  0  0  0  0
    0.8240   46.0401   56.7409 H   0  0  0  0  0  0  0  0  0  0  0  0
    1.2758   45.2079   55.2145 H   0  0  0  0  0  0  0  0  0  0  0  0
   -0.0372   46.4338   55.2145 H   0  0  0  0  0  0  0  0  0  0  0  0
   -2.0373   42.5067   50.9004 H   0  0  0  0  0  0  0  0  0  0  0  0
    0.3220   42.8058   50.0739 H   0  0  0  0  0  0  0  0  0  0  0  0
    2.4580   44.4730   50.5780 H   0  0  0  0  0  0  0  0  0  0  0  0
    4.0859   46.5430   53.2756 H   0  0  0  0  0  0  0  0  0  0  0  0
    3.3645   45.1125   54.1531 H   0  0  0  0  0  0  0  0  0  0  0  0
    4.9578   45.4070   55.6637 H   0  0  0  0  0  0  0  0  0  0  0  0
    6.0811   44.7354   54.3676 H   0  0  0  0  0  0  0  0  0  0  0  0
    5.5769   47.6579   54.3784 H   0  0  0  0  0  0  0  0  0  0  0  0
    6.6313   46.8857   55.7075 H   0  0  0  0  0  0  0  0  0  0  0  0
    8.7330   47.4770   55.4713 H   0  0  0  0  0  0  0  0  0  0  0  0
   10.8601   47.3377   54.1910 H   0  0  0  0  0  0  0  0  0  0  0  0
   10.8391   46.6554   51.7964 H   0  0  0  0  0  0  0  0  0  0  0  0
    8.6807   46.2291   50.6375 H   0  0  0  0  0  0  0  0  0  0  0  0
    5.3983   46.9549   52.1152 H   0  0  0  0  0  0  0  0  0  0  0  0
    6.3659   46.6355   50.6082 H   0  0  0  0  0  0  0  0  0  0  0  0
    5.4964   44.5683   50.6141 H   0  0  0  0  0  0  0  0  0  0  0  0
    6.5353   44.2596   52.0757 H   0  0  0  0  0  0  0  0  0  0  0  0
    1.4590   44.3306   53.9902 H   0  0  0  0  0  0  0  0  0  0  0  0
  1  2  1  0
  2  3  1  0
  2  4  1  0
  4  5  2  0
  5  6  1  0
  6  7  2  0
  7  8  1  0
  8  9  2  0
  9 10  1  0
 10 11  1  0
 11 12  1  0
 12 13  2  0
 12 14  1  0
 14 15  1  0
 15 16  1  0
 16 17  1  0
 17 18  1  0
 18 19  2  0
 19 20  1  0
 20 21  2  0
 21 22  1  0
 22 23  2  0
 23 24  1  0
 24 25  1  0
 10 26  2  0
 26 27  1  0
 27  4  1  0
 27  7  1  0
 25 14  1  0
 23 18  1  0
  1 28  1  0
  1 29  1  0
  1 30  1  0
  2 31  1  0
  3 32  1  0
  3 33  1  0
  3 34  1  0
  8 35  1  0
  9 36  1  0
 11 37  1  0
 15 38  1  0
 15 39  1  0
 16 40  1  0
 16 41  1  0
 17 42  1  0
 17 43  1  0
 19 44  1  0
 20 45  1  0
 21 46  1  0
 22 47  1  0
 24 48  1  0
 24 49  1  0
 25 50  1  0
 25 51  1  0
 26 52  1  0
M  END
>  <meeko>  (3) 
{"is_sidechain": [false], "free_energy": -6.883, "intermolecular_energy": -11.21, "internal_energy": 0.267}

$$$$
ligand_48_conformer_3_docked
     RDKit          3D

 52 55  0  0  0  0  0  0  0  0999 V2000
   -3.7790   46.0210   53.3610 C   0  0  0  0  0  0  0  0  0  0  0  0
   -2.8070   44.8420   53.2440 C   0  0  0  0  0  0  0  0  0  0  0  0
   -3.5670   43.5130   53.1370 C   0  0  0  0  0  0  0  0  0  0  0  0
   -1.8640   44.8380   54.4220 C   0  0  0  0  0  0  0  0  0  0  0  0
   -2.2620   44.8580   55.7150 N   0  0  0  0  0  0  0  0  0  0  0  0
   -1.1700   44.9170   56.4710 N   0  0  0  0  0  0  0  0  0  0  0  0
   -0.1280   44.9450   55.6220 C   0  0  0  0  0  0  0  0  0  0  0  0
    1.2190   45.0010   55.9580 C   0  0  0  0  0  0  0  0  0  0  0  0
    2.1490   44.9900   54.9060 C   0  0  0  0  0  0  0  0  0  0  0  0
    1.7220   44.9220   53.5590 C   0  0  0  0  0  0  0  0  0  0  0  0
    2.7070   44.8200   52.5130 N   0  0  0  0  0  0  0  0  0  0  0  0
    3.7980   43.8880   52.5460 C   0  0  0  0  0  0  0  0  0  0  0  0
    3.5520   42.6550   52.5760 O   0  0  0  0  0  0  0  0  0  0  0  0
    5.1710   44.3470   52.5300 N   0  0  0  0  0  0  0  0  0  0  0  0
    5.7640   44.8960   53.7650 C   0  0  0  0  0  0  0  0  0  0  0  0
    5.3350   46.3400   54.0600 C   0  0  0  0  0  0  0  0  0  0  0  0
    6.1420   47.4330   53.3370 C   0  0  0  0  0  0  0  0  0  0  0  0
    7.4970   47.0660   52.7420 C   0  0  0  0  0  0  0  0  0  0  0  0
    8.6520   47.5570   53.3840 C   0  0  0  0  0  0  0  0  0  0  0  0
    9.9250   47.1400   52.9900 C   0  0  0  0  0  0  0  0  0  0  0  0
   10.0700   46.2260   51.9490 C   0  0  0  0  0  0  0  0  0  0  0  0
    8.9490   45.7520   51.2740 C   0  0  0  0  0  0  0  0  0  0  0  0
    7.6560   46.1500   51.6630 C   0  0  0  0  0  0  0  0  0  0  0  0
    6.4820   45.6770   50.8410 C   0  0  0  0  0  0  0  0  0  0  0  0
    5.9700   44.2870   51.2860 C   0  0  0  0  0  0  0  0  0  0  0  0
    0.3350   44.9030   53.2910 C   0  0  0  0  0  0  0  0  0  0  0  0
   -0.5220   44.9050   54.3450 N   0  0  0  0  0  0  0  0  0  0  0  0
   -3.9612   46.2420   54.4231 H   0  0  0  0  0  0  0  0  0  0  0  0
   -3.3437   46.9050   52.8720 H   0  0  0  0  0  0  0  0  0  0  0  0
   -4.7297   45.7623   52.8720 H   0  0  0  0  0  0  0  0  0  0  0  0
   -2.2168   44.9581   52.3230 H   0  0  0  0  0  0  0  0  0  0  0  0
   -3.7845   43.1327   54.1460 H   0  0  0  0  0  0  0  0  0  0  0  0
   -4.5103   43.6727   52.5942 H   0  0  0  0  0  0  0  0  0  0  0  0
   -2.9510   42.7810   52.5942 H   0  0  0  0  0  0  0  0  0  0  0  0
    1.5443   45.0520   57.0076 H   0  0  0  0  0  0  0  0  0  0  0  0
    3.2245   45.0349   55.1324 H   0  0  0  0  0  0  0  0  0  0  0  0
    2.7600   45.5940   51.8110 H   0  0  0  0  0  0  0  0  0  0  0  0
    5.4576   44.2621   54.6101 H   0  0  0  0  0  0  0  0  0  0  0  0
    6.8549   44.9046   53.6244 H   0  0  0  0  0  0  0  0  0  0  0  0
    4.2805   46.4469   53.7656 H   0  0  0  0  0  0  0  0  0  0  0  0
    5.5139   46.4941   55.1344 H   0  0  0  0  0  0  0  0  0  0  0  0
    5.5164   47.8065   52.5130 H   0  0  0  0  0  0  0  0  0  0  0  0
    6.3839   48.1565   54.1295 H   0  0  0  0  0  0  0  0  0  0  0  0
    8.5489   48.2791   54.2073 H   0  0  0  0  0  0  0  0  0  0  0  0
   10.8149   47.5340   53.5026 H   0  0  0  0  0  0  0  0  0  0  0  0
   11.0727   45.8781   51.6598 H   0  0  0  0  0  0  0  0  0  0  0  0
    9.0746   45.0597   50.4284 H   0  0  0  0  0  0  0  0  0  0  0  0
    5.6632   46.4043   50.9440 H   0  0  0  0  0  0  0  0  0  0  0  0
    6.8174   45.5914   49.7969 H   0  0  0  0  0  0  0  0  0  0  0  0
    5.3432   43.8691   50.4844 H   0  0  0  0  0  0  0  0  0  0  0  0
    6.8488   43.6558   51.4843 H   0  0  0  0  0  0  0  0  0  0  0  0
   -0.0407   44.8870   52.2573 H   0  0  0  0  0  0  0  0  0  0  0  0
  1  2  1  0
  2  3  1  0
  2  4  1  0
  4  5  2  0
  5  6  1  0
  6  7  2  0
  7  8  1  0
  8  9  2  0
  9 10  1  0
 10 11  1  0
 11 12  1  0
 12 13  2  0
 12 14  1  0
 14 15  1  0
 15 16  1  0
 16 17  1  0
 17 18  1  0
 18 19  2  0
 19 20  1  0
 20 21  2  0
 21 22  1  0
 22 23  2  0
 23 24  1  0
 24 25  1  0
 10 26  2  0
 26 27  1  0
 27  4  1  0
 27  7  1  0
 25 14  1  0
 23 18  1  0
  1 28  1  0
  1 29  1  0
  1 30  1  0
  2 31  1  0
  3 32  1  0
  3 33  1  0
  3 34  1  0
  8 35  1  0
  9 36  1  0
 11 37  1  0
 15 38  1  0
 15 39  1  0
 16 40  1  0
 16 41  1  0
 17 42  1  0
 17 43  1  0
 19 44  1  0
 20 45  1  0
 21 46  1  0
 22 47  1  0
 24 48  1  0
 24 49  1  0
 25 50  1  0
 25 51  1  0
 26 52  1  0
M  END
>  <meeko>  (4) 
{"is_sidechain": [false], "free_energy": -6.82, "intermolecular_energy": -10.784, "internal_energy": -0.063}

$$$$
ligand_48_conformer_3_docked
     RDKit          3D

 52 55  0  0  0  0  0  0  0  0999 V2000
    8.2880   48.7500   52.1510 C   0  0  0  0  0  0  0  0  0  0  0  0
    8.2330   47.3890   52.8530 C   0  0  0  0  0  0  0  0  0  0  0  0
    9.6230   46.9750   53.3580 C   0  0  0  0  0  0  0  0  0  0  0  0
    7.6620   46.3530   51.9170 C   0  0  0  0  0  0  0  0  0  0  0  0
    8.3760   45.7200   50.9570 N   0  0  0  0  0  0  0  0  0  0  0  0
    7.5390   44.9340   50.2860 N   0  0  0  0  0  0  0  0  0  0  0  0
    6.3280   45.1150   50.8430 C   0  0  0  0  0  0  0  0  0  0  0  0
    5.1410   44.4950   50.4750 C   0  0  0  0  0  0  0  0  0  0  0  0
    3.9900   44.8080   51.2160 C   0  0  0  0  0  0  0  0  0  0  0  0
    4.0470   45.7190   52.2970 C   0  0  0  0  0  0  0  0  0  0  0  0
    2.8670   45.9450   53.0900 N   0  0  0  0  0  0  0  0  0  0  0  0
    2.5470   45.1790   54.2620 C   0  0  0  0  0  0  0  0  0  0  0  0
    3.3350   45.1970   55.2420 O   0  0  0  0  0  0  0  0  0  0  0  0
    1.3270   44.4030   54.3330 N   0  0  0  0  0  0  0  0  0  0  0  0
    1.2130   43.1610   53.5440 C   0  0  0  0  0  0  0  0  0  0  0  0
    0.6990   43.3900   52.1150 C   0  0  0  0  0  0  0  0  0  0  0  0
   -0.8310   43.2760   51.9360 C   0  0  0  0  0  0  0  0  0  0  0  0
   -1.7130   44.4200   52.4240 C   0  0  0  0  0  0  0  0  0  0  0  0
   -2.4460   45.1430   51.4600 C   0  0  0  0  0  0  0  0  0  0  0  0
   -3.3870   46.1000   51.8420 C   0  0  0  0  0  0  0  0  0  0  0  0
   -3.6160   46.3540   53.1920 C   0  0  0  0  0  0  0  0  0  0  0  0
   -2.8820   45.6810   54.1650 C   0  0  0  0  0  0  0  0  0  0  0  0
   -1.9360   44.7030   53.8010 C   0  0  0  0  0  0  0  0  0  0  0  0
   -1.1060   44.0690   54.8890 C   0  0  0  0  0  0  0  0  0  0  0  0
    0.1960   44.8540   55.1740 C   0  0  0  0  0  0  0  0  0  0  0  0
    5.2830   46.3380   52.5920 C   0  0  0  0  0  0  0  0  0  0  0  0
    6.3670   45.9930   51.8510 N   0  0  0  0  0  0  0  0  0  0  0  0
    8.3203   49.5504   52.9049 H   0  0  0  0  0  0  0  0  0  0  0  0
    9.1890   48.8020   51.5221 H   0  0  0  0  0  0  0  0  0  0  0  0
    7.3942   48.8746   51.5221 H   0  0  0  0  0  0  0  0  0  0  0  0
    7.5747   47.4688   53.7306 H   0  0  0  0  0  0  0  0  0  0  0  0
    9.6280   46.9735   54.4580 H   0  0  0  0  0  0  0  0  0  0  0  0
    9.8619   45.9667   52.9889 H   0  0  0  0  0  0  0  0  0  0  0  0
   10.3747   47.6883   52.9889 H   0  0  0  0  0  0  0  0  0  0  0  0
    5.1039   43.7857   49.6350 H   0  0  0  0  0  0  0  0  0  0  0  0
    3.0308   44.3384   50.9524 H   0  0  0  0  0  0  0  0  0  0  0  0
    2.1070   46.5360   52.6820 H   0  0  0  0  0  0  0  0  0  0  0  0
    2.2066   42.6925   53.4861 H   0  0  0  0  0  0  0  0  0  0  0  0
    0.4792   42.5193   54.0536 H   0  0  0  0  0  0  0  0  0  0  0  0
    1.0031   44.3999   51.8025 H   0  0  0  0  0  0  0  0  0  0  0  0
    1.1368   42.5878   51.5028 H   0  0  0  0  0  0  0  0  0  0  0  0
   -1.0229   43.1559   50.8595 H   0  0  0  0  0  0  0  0  0  0  0  0
   -1.1125   42.4290   52.5789 H   0  0  0  0  0  0  0  0  0  0  0  0
   -2.2733   44.9496   50.3910 H   0  0  0  0  0  0  0  0  0  0  0  0
   -3.9486   46.6545   51.0758 H   0  0  0  0  0  0  0  0  0  0  0  0
   -4.3788   47.0883   53.4904 H   0  0  0  0  0  0  0  0  0  0  0  0
   -3.0423   45.9152   55.2277 H   0  0  0  0  0  0  0  0  0  0  0  0
   -1.7038   44.0304   55.8116 H   0  0  0  0  0  0  0  0  0  0  0  0
   -0.8218   43.0622   54.5489 H   0  0  0  0  0  0  0  0  0  0  0  0
    0.0144   45.9210   54.9778 H   0  0  0  0  0  0  0  0  0  0  0  0
    0.4697   44.6760   56.2244 H   0  0  0  0  0  0  0  0  0  0  0  0
    5.3644   47.0795   53.4004 H   0  0  0  0  0  0  0  0  0  0  0  0
  1  2  1  0
  2  3  1  0
  2  4  1  0
  4  5  2  0
  5  6  1  0
  6  7  2  0
  7  8  1  0
  8  9  2  0
  9 10  1  0
 10 11  1  0
 11 12  1  0
 12 13  2  0
 12 14  1  0
 14 15  1  0
 15 16  1  0
 16 17  1  0
 17 18  1  0
 18 19  2  0
 19 20  1  0
 20 21  2  0
 21 22  1  0
 22 23  2  0
 23 24  1  0
 24 25  1  0
 10 26  2  0
 26 27  1  0
 27  4  1  0
 27  7  1  0
 25 14  1  0
 23 18  1  0
  1 28  1  0
  1 29  1  0
  1 30  1  0
  2 31  1  0
  3 32  1  0
  3 33  1  0
  3 34  1  0
  8 35  1  0
  9 36  1  0
 11 37  1  0
 15 38  1  0
 15 39  1  0
 16 40  1  0
 16 41  1  0
 17 42  1  0
 17 43  1  0
 19 44  1  0
 20 45  1  0
 21 46  1  0
 22 47  1  0
 24 48  1  0
 24 49  1  0
 25 50  1  0
 25 51  1  0
 26 52  1  0
M  END
>  <meeko>  (5) 
{"is_sidechain": [false], "free_energy": -6.512, "intermolecular_energy": -9.912, "internal_energy": -0.466}

$$$$
