ligand_11_conformer_3_docked
     RDKit          3D

 40 42  0  0  0  0  0  0  0  0999 V2000
    8.1320   44.1200   49.9630 O   0  0  0  0  0  0  0  0  0  0  0  0
    6.8870   44.0450   50.1580 C   0  0  0  0  0  0  0  0  0  0  0  0
    6.2350   45.0300   50.9770 N   0  0  0  0  0  0  0  0  0  0  0  0
    6.9170   45.8340   51.9550 C   0  0  0  0  0  0  0  0  0  0  0  0
    6.5930   45.6930   53.3130 C   0  0  0  0  0  0  0  0  0  0  0  0
    7.2570   46.4480   54.2830 C   0  0  0  0  0  0  0  0  0  0  0  0
    8.2660   47.3470   53.9180 C   0  0  0  0  0  0  0  0  0  0  0  0
    8.8990   48.0830   54.9310 O   0  0  0  0  0  0  0  0  0  0  0  0
   10.2360   47.8700   55.3750 C   0  0  0  0  0  0  0  0  0  0  0  0
   10.5750   46.5360   55.2290 F   0  0  0  0  0  0  0  0  0  0  0  0
   10.3290   48.2130   56.7090 F   0  0  0  0  0  0  0  0  0  0  0  0
    8.6080   47.4780   52.5590 C   0  0  0  0  0  0  0  0  0  0  0  0
    7.9430   46.7220   51.5880 C   0  0  0  0  0  0  0  0  0  0  0  0
    6.1090   42.9710   49.4950 C   0  0  0  0  0  0  0  0  0  0  0  0
    5.1550   42.2230   50.2090 C   0  0  0  0  0  0  0  0  0  0  0  0
    4.4300   41.2090   49.5770 C   0  0  0  0  0  0  0  0  0  0  0  0
    4.6350   40.9290   48.2150 C   0  0  0  0  0  0  0  0  0  0  0  0
    3.9180   39.8760   47.5510 N   0  0  0  0  0  0  0  0  0  0  0  0
    3.2740   40.0170   46.2760 C   0  0  0  0  0  0  0  0  0  0  0  0
    3.5500   39.1590   45.2550 N   0  0  0  0  0  0  0  0  0  0  0  0
    2.9220   39.2700   44.0570 C   0  0  0  0  0  0  0  0  0  0  0  0
    1.9700   40.2680   43.8610 C   0  0  0  0  0  0  0  0  0  0  0  0
    1.6860   41.1320   44.9190 C   0  0  0  0  0  0  0  0  0  0  0  0
    2.3370   40.9880   46.1020 N   0  0  0  0  0  0  0  0  0  0  0  0
    5.6080   41.6500   47.5110 C   0  0  0  0  0  0  0  0  0  0  0  0
    6.3360   42.6640   48.1420 C   0  0  0  0  0  0  0  0  0  0  0  0
    5.2350   45.2550   50.7720 H   0  0  0  0  0  0  0  0  0  0  0  0
    5.8100   44.9824   53.6162 H   0  0  0  0  0  0  0  0  0  0  0  0
    6.9846   46.3350   55.3427 H   0  0  0  0  0  0  0  0  0  0  0  0
   10.9200   48.4882   54.7750 H   0  0  0  0  0  0  0  0  0  0  0  0
    9.4018   48.1780   52.2591 H   0  0  0  0  0  0  0  0  0  0  0  0
    8.2250   46.8231   50.5296 H   0  0  0  0  0  0  0  0  0  0  0  0
    4.9783   42.4380   51.2732 H   0  0  0  0  0  0  0  0  0  0  0  0
    3.6937   40.6259   50.1496 H   0  0  0  0  0  0  0  0  0  0  0  0
    3.9330   38.9220   47.9800 H   0  0  0  0  0  0  0  0  0  0  0  0
    3.1645   38.5726   43.2416 H   0  0  0  0  0  0  0  0  0  0  0  0
    1.4544   40.3724   42.8949 H   0  0  0  0  0  0  0  0  0  0  0  0
    0.9367   41.9278   44.7952 H   0  0  0  0  0  0  0  0  0  0  0  0
    5.8011   41.4169   46.4535 H   0  0  0  0  0  0  0  0  0  0  0  0
    7.0926   43.2260   47.5748 H   0  0  0  0  0  0  0  0  0  0  0  0
  1  2  2  0
  2  3  1  0
  3  4  1  0
  4  5  2  0
  5  6  1  0
  6  7  2  0
  7  8  1  0
  8  9  1  0
  9 10  1  0
  9 11  1  0
  7 12  1  0
 12 13  2  0
  2 14  1  0
 14 15  2  0
 15 16  1  0
 16 17  2  0
 17 18  1  0
 18 19  1  0
 19 20  2  0
 20 21  1  0
 21 22  2  0
 22 23  1  0
 23 24  2  0
 17 25  1  0
 25 26  2  0
 13  4  1  0
 26 14  1  0
 24 19  1  0
  3 27  1  0
  5 28  1  0
  6 29  1  0
  9 30  1  0
 12 31  1  0
 13 32  1  0
 15 33  1  0
 16 34  1  0
 18 35  1  0
 21 36  1  0
 22 37  1  0
 23 38  1  0
 25 39  1  0
 26 40  1  0
M  END
>  <meeko>  (1) 
{"is_sidechain": [false], "free_energy": -8.212, "intermolecular_energy": -11.093, "internal_energy": -0.56}

$$$$
ligand_11_conformer_3_docked
     RDKit          3D

 40 42  0  0  0  0  0  0  0  0999 V2000
    4.2590   43.3880   52.8570 O   0  0  0  0  0  0  0  0  0  0  0  0
    3.4840   44.0350   52.1000 C   0  0  0  0  0  0  0  0  0  0  0  0
    4.0270   45.0180   51.2010 N   0  0  0  0  0  0  0  0  0  0  0  0
    5.3040   45.6530   51.3880 C   0  0  0  0  0  0  0  0  0  0  0  0
    5.4520   46.6250   52.3880 C   0  0  0  0  0  0  0  0  0  0  0  0
    6.6880   47.2410   52.6020 C   0  0  0  0  0  0  0  0  0  0  0  0
    7.8020   46.8860   51.8330 C   0  0  0  0  0  0  0  0  0  0  0  0
    9.0190   47.5370   52.0870 O   0  0  0  0  0  0  0  0  0  0  0  0
    9.9270   47.1840   53.1260 C   0  0  0  0  0  0  0  0  0  0  0  0
    9.9030   45.8150   53.3290 F   0  0  0  0  0  0  0  0  0  0  0  0
    9.5460   47.8160   54.2930 F   0  0  0  0  0  0  0  0  0  0  0  0
    7.6630   45.8960   50.8420 C   0  0  0  0  0  0  0  0  0  0  0  0
    6.4260   45.2820   50.6270 C   0  0  0  0  0  0  0  0  0  0  0  0
    2.0320   43.7340   52.1100 C   0  0  0  0  0  0  0  0  0  0  0  0
    1.4990   42.7780   52.9930 C   0  0  0  0  0  0  0  0  0  0  0  0
    0.1300   42.4970   52.9920 C   0  0  0  0  0  0  0  0  0  0  0  0
   -0.7360   43.1740   52.1170 C   0  0  0  0  0  0  0  0  0  0  0  0
   -2.1430   42.8850   52.0810 N   0  0  0  0  0  0  0  0  0  0  0  0
   -2.7440   41.9070   51.2190 C   0  0  0  0  0  0  0  0  0  0  0  0
   -2.9150   42.1570   49.8910 N   0  0  0  0  0  0  0  0  0  0  0  0
   -3.4560   41.2260   49.0650 C   0  0  0  0  0  0  0  0  0  0  0  0
   -3.8380   39.9860   49.5730 C   0  0  0  0  0  0  0  0  0  0  0  0
   -3.6450   39.7370   50.9310 C   0  0  0  0  0  0  0  0  0  0  0  0
   -3.1010   40.6950   51.7250 N   0  0  0  0  0  0  0  0  0  0  0  0
   -0.2010   44.1020   51.2130 C   0  0  0  0  0  0  0  0  0  0  0  0
    1.1680   44.3840   51.2120 C   0  0  0  0  0  0  0  0  0  0  0  0
    3.5200   45.1980   50.3060 H   0  0  0  0  0  0  0  0  0  0  0  0
    4.5882   46.9048   53.0090 H   0  0  0  0  0  0  0  0  0  0  0  0
    6.7860   48.0112   53.3812 H   0  0  0  0  0  0  0  0  0  0  0  0
   10.9430   47.4934   52.8396 H   0  0  0  0  0  0  0  0  0  0  0  0
    8.5320   45.6043   50.2340 H   0  0  0  0  0  0  0  0  0  0  0  0
    6.3298   44.5027   49.8566 H   0  0  0  0  0  0  0  0  0  0  0  0
    2.1646   42.2474   53.6897 H   0  0  0  0  0  0  0  0  0  0  0  0
   -0.2725   41.7402   53.6814 H   0  0  0  0  0  0  0  0  0  0  0  0
   -2.7610   43.3530   52.7820 H   0  0  0  0  0  0  0  0  0  0  0  0
   -3.5927   41.4498   47.9967 H   0  0  0  0  0  0  0  0  0  0  0  0
   -4.2814   39.2216   48.9179 H   0  0  0  0  0  0  0  0  0  0  0  0
   -3.9331   38.7655   51.3590 H   0  0  0  0  0  0  0  0  0  0  0  0
   -0.8638   44.6124   50.4987 H   0  0  0  0  0  0  0  0  0  0  0  0
    1.5726   45.1208   50.5025 H   0  0  0  0  0  0  0  0  0  0  0  0
  1  2  2  0
  2  3  1  0
  3  4  1  0
  4  5  2  0
  5  6  1  0
  6  7  2  0
  7  8  1  0
  8  9  1  0
  9 10  1  0
  9 11  1  0
  7 12  1  0
 12 13  2  0
  2 14  1  0
 14 15  2  0
 15 16  1  0
 16 17  2  0
 17 18  1  0
 18 19  1  0
 19 20  2  0
 20 21  1  0
 21 22  2  0
 22 23  1  0
 23 24  2  0
 17 25  1  0
 25 26  2  0
 13  4  1  0
 26 14  1  0
 24 19  1  0
  3 27  1  0
  5 28  1  0
  6 29  1  0
  9 30  1  0
 12 31  1  0
 13 32  1  0
 15 33  1  0
 16 34  1  0
 18 35  1  0
 21 36  1  0
 22 37  1  0
 23 38  1  0
 25 39  1  0
 26 40  1  0
M  END
>  <meeko>  (2) 
{"is_sidechain": [false], "free_energy": -8.038, "intermolecular_energy": -10.561, "internal_energy": -0.856}

$$$$
ligand_11_conformer_3_docked
     RDKit          3D

 40 42  0  0  0  0  0  0  0  0999 V2000
    6.8790   41.6880   50.1640 O   0  0  0  0  0  0  0  0  0  0  0  0
    6.6420   42.2710   49.0700 C   0  0  0  0  0  0  0  0  0  0  0  0
    7.3710   43.4630   48.7270 N   0  0  0  0  0  0  0  0  0  0  0  0
    8.0230   44.3060   49.6930 C   0  0  0  0  0  0  0  0  0  0  0  0
    9.4050   44.1830   49.8950 C   0  0  0  0  0  0  0  0  0  0  0  0
   10.0640   45.0060   50.8130 C   0  0  0  0  0  0  0  0  0  0  0  0
    9.3590   45.9760   51.5330 C   0  0  0  0  0  0  0  0  0  0  0  0
   10.0680   46.7740   52.4430 O   0  0  0  0  0  0  0  0  0  0  0  0
    9.5900   47.1600   53.7290 C   0  0  0  0  0  0  0  0  0  0  0  0
    8.9140   48.3640   53.6390 F   0  0  0  0  0  0  0  0  0  0  0  0
   10.6640   47.3110   54.5840 F   0  0  0  0  0  0  0  0  0  0  0  0
    7.9750   46.1170   51.3180 C   0  0  0  0  0  0  0  0  0  0  0  0
    7.3150   45.2930   50.4010 C   0  0  0  0  0  0  0  0  0  0  0  0
    5.6540   41.6880   48.1300 C   0  0  0  0  0  0  0  0  0  0  0  0
    4.5960   40.8880   48.5990 C   0  0  0  0  0  0  0  0  0  0  0  0
    3.6720   40.3380   47.7060 C   0  0  0  0  0  0  0  0  0  0  0  0
    3.7810   40.5860   46.3260 C   0  0  0  0  0  0  0  0  0  0  0  0
    2.8580   40.0110   45.3870 N   0  0  0  0  0  0  0  0  0  0  0  0
    1.7530   40.7190   44.8050 C   0  0  0  0  0  0  0  0  0  0  0  0
    1.0650   41.6510   45.5210 N   0  0  0  0  0  0  0  0  0  0  0  0
    0.0380   42.3440   44.9660 C   0  0  0  0  0  0  0  0  0  0  0  0
   -0.3190   42.1140   43.6390 C   0  0  0  0  0  0  0  0  0  0  0  0
    0.4030   41.1680   42.9120 C   0  0  0  0  0  0  0  0  0  0  0  0
    1.4230   40.4940   43.5040 N   0  0  0  0  0  0  0  0  0  0  0  0
    4.8540   41.3540   45.8550 C   0  0  0  0  0  0  0  0  0  0  0  0
    5.7790   41.9040   46.7470 C   0  0  0  0  0  0  0  0  0  0  0  0
    7.5320   43.6650   47.7150 H   0  0  0  0  0  0  0  0  0  0  0  0
    9.9751   43.4332   49.3268 H   0  0  0  0  0  0  0  0  0  0  0  0
   11.1464   44.8897   50.9705 H   0  0  0  0  0  0  0  0  0  0  0  0
    8.9076   46.3857   54.1095 H   0  0  0  0  0  0  0  0  0  0  0  0
    7.4097   46.8793   51.8742 H   0  0  0  0  0  0  0  0  0  0  0  0
    6.2352   45.4178   50.2325 H   0  0  0  0  0  0  0  0  0  0  0  0
    4.4951   40.6938   49.6770 H   0  0  0  0  0  0  0  0  0  0  0  0
    2.8544   39.7072   48.0850 H   0  0  0  0  0  0  0  0  0  0  0  0
    3.0450   39.0430   45.0410 H   0  0  0  0  0  0  0  0  0  0  0  0
   -0.5117   43.0863   45.5633 H   0  0  0  0  0  0  0  0  0  0  0  0
   -1.1505   42.6654   43.1759 H   0  0  0  0  0  0  0  0  0  0  0  0
    0.1470   40.9680   41.8611 H   0  0  0  0  0  0  0  0  0  0  0  0
    4.9694   41.5255   44.7746 H   0  0  0  0  0  0  0  0  0  0  0  0
    6.6120   42.5112   46.3631 H   0  0  0  0  0  0  0  0  0  0  0  0
  1  2  2  0
  2  3  1  0
  3  4  1  0
  4  5  2  0
  5  6  1  0
  6  7  2  0
  7  8  1  0
  8  9  1  0
  9 10  1  0
  9 11  1  0
  7 12  1  0
 12 13  2  0
  2 14  1  0
 14 15  2  0
 15 16  1  0
 16 17  2  0
 17 18  1  0
 18 19  1  0
 19 20  2  0
 20 21  1  0
 21 22  2  0
 22 23  1  0
 23 24  2  0
 17 25  1  0
 25 26  2  0
 13  4  1  0
 26 14  1  0
 24 19  1  0
  3 27  1  0
  5 28  1  0
  6 29  1  0
  9 30  1  0
 12 31  1  0
 13 32  1  0
 15 33  1  0
 16 34  1  0
 18 35  1  0
 21 36  1  0
 22 37  1  0
 23 38  1  0
 25 39  1  0
 26 40  1  0
M  END
>  <meeko>  (3) 
{"is_sidechain": [false], "free_energy": -7.988, "intermolecular_energy": -10.617, "internal_energy": -0.733}

$$$$
ligand_11_conformer_3_docked
     RDKit          3D

 40 42  0  0  0  0  0  0  0  0999 V2000
    6.6110   41.8010   50.2340 O   0  0  0  0  0  0  0  0  0  0  0  0
    6.5210   42.3060   49.0820 C   0  0  0  0  0  0  0  0  0  0  0  0
    7.3620   43.4170   48.7250 N   0  0  0  0  0  0  0  0  0  0  0  0
    7.9790   44.2930   49.6840 C   0  0  0  0  0  0  0  0  0  0  0  0
    9.3620   44.2150   49.9010 C   0  0  0  0  0  0  0  0  0  0  0  0
    9.9870   45.0690   50.8120 C   0  0  0  0  0  0  0  0  0  0  0  0
    9.2460   46.0280   51.5120 C   0  0  0  0  0  0  0  0  0  0  0  0
    9.9220   46.8600   52.4180 O   0  0  0  0  0  0  0  0  0  0  0  0
    9.5570   47.0390   53.7830 C   0  0  0  0  0  0  0  0  0  0  0  0
    8.6120   48.0450   53.8910 F   0  0  0  0  0  0  0  0  0  0  0  0
   10.6770   47.3980   54.5070 F   0  0  0  0  0  0  0  0  0  0  0  0
    7.8600   46.1240   51.2830 C   0  0  0  0  0  0  0  0  0  0  0  0
    7.2350   45.2680   50.3720 C   0  0  0  0  0  0  0  0  0  0  0  0
    5.5860   41.7130   48.0950 C   0  0  0  0  0  0  0  0  0  0  0  0
    4.5380   40.8710   48.5090 C   0  0  0  0  0  0  0  0  0  0  0  0
    3.6650   40.3120   47.5710 C   0  0  0  0  0  0  0  0  0  0  0  0
    3.8150   40.5910   46.2020 C   0  0  0  0  0  0  0  0  0  0  0  0
    2.9450   40.0080   45.2180 N   0  0  0  0  0  0  0  0  0  0  0  0
    2.0330   38.9330   45.4840 C   0  0  0  0  0  0  0  0  0  0  0  0
    0.6950   39.1620   45.5900 N   0  0  0  0  0  0  0  0  0  0  0  0
   -0.1760   38.1450   45.8120 C   0  0  0  0  0  0  0  0  0  0  0  0
    0.2960   36.8380   45.9240 C   0  0  0  0  0  0  0  0  0  0  0  0
    1.6670   36.6150   45.7990 C   0  0  0  0  0  0  0  0  0  0  0  0
    2.5050   37.6600   45.5780 N   0  0  0  0  0  0  0  0  0  0  0  0
    4.8800   41.4010   45.7860 C   0  0  0  0  0  0  0  0  0  0  0  0
    5.7550   41.9610   46.7220 C   0  0  0  0  0  0  0  0  0  0  0  0
    7.6320   43.5260   47.7210 H   0  0  0  0  0  0  0  0  0  0  0  0
    9.9597   43.4748   49.3489 H   0  0  0  0  0  0  0  0  0  0  0  0
   11.0709   44.9873   50.9809 H   0  0  0  0  0  0  0  0  0  0  0  0
    9.1372   46.0995   54.1717 H   0  0  0  0  0  0  0  0  0  0  0  0
    7.2665   46.8761   51.8235 H   0  0  0  0  0  0  0  0  0  0  0  0
    6.1535   45.3576   50.1919 H   0  0  0  0  0  0  0  0  0  0  0  0
    4.4044   40.6508   49.5784 H   0  0  0  0  0  0  0  0  0  0  0  0
    2.8545   39.6487   47.9072 H   0  0  0  0  0  0  0  0  0  0  0  0
    2.9120   40.4450   44.2690 H   0  0  0  0  0  0  0  0  0  0  0  0
   -1.2525   38.3517   45.9034 H   0  0  0  0  0  0  0  0  0  0  0  0
   -0.3962   36.0028   46.1065 H   0  0  0  0  0  0  0  0  0  0  0  0
    2.0687   35.5941   45.8793 H   0  0  0  0  0  0  0  0  0  0  0  0
    5.0290   41.5980   44.7141 H   0  0  0  0  0  0  0  0  0  0  0  0
    6.5823   42.6008   46.3809 H   0  0  0  0  0  0  0  0  0  0  0  0
  1  2  2  0
  2  3  1  0
  3  4  1  0
  4  5  2  0
  5  6  1  0
  6  7  2  0
  7  8  1  0
  8  9  1  0
  9 10  1  0
  9 11  1  0
  7 12  1  0
 12 13  2  0
  2 14  1  0
 14 15  2  0
 15 16  1  0
 16 17  2  0
 17 18  1  0
 18 19  1  0
 19 20  2  0
 20 21  1  0
 21 22  2  0
 22 23  1  0
 23 24  2  0
 17 25  1  0
 25 26  2  0
 13  4  1  0
 26 14  1  0
 24 19  1  0
  3 27  1  0
  5 28  1  0
  6 29  1  0
  9 30  1  0
 12 31  1  0
 13 32  1  0
 15 33  1  0
 16 34  1  0
 18 35  1  0
 21 36  1  0
 22 37  1  0
 23 38  1  0
 25 39  1  0
 26 40  1  0
M  END
>  <meeko>  (4) 
{"is_sidechain": [false], "free_energy": -7.829, "intermolecular_energy": -10.435, "internal_energy": -0.7}

$$$$
ligand_11_conformer_3_docked
     RDKit          3D

 40 42  0  0  0  0  0  0  0  0999 V2000
    0.4210   45.7460   52.3480 O   0  0  0  0  0  0  0  0  0  0  0  0
    1.3480   45.0900   52.8960 C   0  0  0  0  0  0  0  0  0  0  0  0
    1.0440   44.2070   53.9900 N   0  0  0  0  0  0  0  0  0  0  0  0
   -0.1310   44.3270   54.8110 C   0  0  0  0  0  0  0  0  0  0  0  0
   -0.0750   45.0830   55.9910 C   0  0  0  0  0  0  0  0  0  0  0  0
   -1.2090   45.2310   56.7930 C   0  0  0  0  0  0  0  0  0  0  0  0
   -2.4240   44.6410   56.4250 C   0  0  0  0  0  0  0  0  0  0  0  0
   -3.5310   44.8190   57.2670 O   0  0  0  0  0  0  0  0  0  0  0  0
   -3.8230   44.0130   58.4050 C   0  0  0  0  0  0  0  0  0  0  0  0
   -3.6910   44.7640   59.5610 F   0  0  0  0  0  0  0  0  0  0  0  0
   -2.9340   42.9580   58.4530 F   0  0  0  0  0  0  0  0  0  0  0  0
   -2.4900   43.8990   55.2300 C   0  0  0  0  0  0  0  0  0  0  0  0
   -1.3550   43.7500   54.4280 C   0  0  0  0  0  0  0  0  0  0  0  0
    2.7300   45.1990   52.3690 C   0  0  0  0  0  0  0  0  0  0  0  0
    3.7890   44.4920   52.9660 C   0  0  0  0  0  0  0  0  0  0  0  0
    5.0890   44.6050   52.4650 C   0  0  0  0  0  0  0  0  0  0  0  0
    5.3550   45.4180   51.3500 C   0  0  0  0  0  0  0  0  0  0  0  0
    6.6870   45.5690   50.8340 N   0  0  0  0  0  0  0  0  0  0  0  0
    7.7970   46.0680   51.5950 C   0  0  0  0  0  0  0  0  0  0  0  0
    9.0740   45.7100   51.2870 N   0  0  0  0  0  0  0  0  0  0  0  0
   10.1290   46.2020   51.9850 C   0  0  0  0  0  0  0  0  0  0  0  0
    9.9130   47.0990   53.0300 C   0  0  0  0  0  0  0  0  0  0  0  0
    8.6020   47.4690   53.3260 C   0  0  0  0  0  0  0  0  0  0  0  0
    7.5740   46.9540   52.6040 N   0  0  0  0  0  0  0  0  0  0  0  0
    4.3070   46.1500   50.7760 C   0  0  0  0  0  0  0  0  0  0  0  0
    3.0070   46.0390   51.2760 C   0  0  0  0  0  0  0  0  0  0  0  0
    1.6490   43.3660   54.1240 H   0  0  0  0  0  0  0  0  0  0  0  0
    0.8693   45.5631   56.2872 H   0  0  0  0  0  0  0  0  0  0  0  0
   -1.1468   45.8165   57.7222 H   0  0  0  0  0  0  0  0  0  0  0  0
   -4.8541   43.6376   58.3277 H   0  0  0  0  0  0  0  0  0  0  0  0
   -3.4396   43.4343   54.9262 H   0  0  0  0  0  0  0  0  0  0  0  0
   -1.4196   43.1775   53.4909 H   0  0  0  0  0  0  0  0  0  0  0  0
    3.5928   43.8452   53.8338 H   0  0  0  0  0  0  0  0  0  0  0  0
    5.9098   44.0536   52.9470 H   0  0  0  0  0  0  0  0  0  0  0  0
    6.8850   45.2180   49.8690 H   0  0  0  0  0  0  0  0  0  0  0  0
   11.1527   45.8934   51.7265 H   0  0  0  0  0  0  0  0  0  0  0  0
   10.7568   47.5051   53.6072 H   0  0  0  0  0  0  0  0  0  0  0  0
    8.4007   48.1772   54.1433 H   0  0  0  0  0  0  0  0  0  0  0  0
    4.5093   46.8172   49.9252 H   0  0  0  0  0  0  0  0  0  0  0  0
    2.1930   46.6139   50.8104 H   0  0  0  0  0  0  0  0  0  0  0  0
  1  2  2  0
  2  3  1  0
  3  4  1  0
  4  5  2  0
  5  6  1  0
  6  7  2  0
  7  8  1  0
  8  9  1  0
  9 10  1  0
  9 11  1  0
  7 12  1  0
 12 13  2  0
  2 14  1  0
 14 15  2  0
 15 16  1  0
 16 17  2  0
 17 18  1  0
 18 19  1  0
 19 20  2  0
 20 21  1  0
 21 22  2  0
 22 23  1  0
 23 24  2  0
 17 25  1  0
 25 26  2  0
 13  4  1  0
 26 14  1  0
 24 19  1  0
  3 27  1  0
  5 28  1  0
  6 29  1  0
  9 30  1  0
 12 31  1  0
 13 32  1  0
 15 33  1  0
 16 34  1  0
 18 35  1  0
 21 36  1  0
 22 37  1  0
 23 38  1  0
 25 39  1  0
 26 40  1  0
M  END
>  <meeko>  (5) 
{"is_sidechain": [false], "free_energy": -7.537, "intermolecular_energy": -9.998, "internal_energy": -0.743}

$$$$
