ligand_44_conformer_3_docked
     RDKit          3D

 47 50  0  0  0  0  0  0  0  0999 V2000
    9.3080   47.5910   54.6150 C   0  0  0  0  0  0  0  0  0  0  0  0
    7.9110   47.3310   54.6450 O   0  0  0  0  0  0  0  0  0  0  0  0
    7.2660   46.5570   53.6750 C   0  0  0  0  0  0  0  0  0  0  0  0
    7.2370   45.3000   53.7740 O   0  0  0  0  0  0  0  0  0  0  0  0
    6.5890   47.2320   52.5140 C   0  0  1  0  0  0  0  0  0  0  0  0
    7.4310   47.0660   51.2330 C   0  0  0  0  0  0  0  0  0  0  0  0
    7.2920   45.6770   50.6830 C   0  0  0  0  0  0  0  0  0  0  0  0
    8.3950   44.9880   50.1540 C   0  0  0  0  0  0  0  0  0  0  0  0
    8.2320   43.7000   49.6370 C   0  0  0  0  0  0  0  0  0  0  0  0
    6.9690   43.1000   49.6340 C   0  0  0  0  0  0  0  0  0  0  0  0
    5.8650   43.7880   50.1480 C   0  0  0  0  0  0  0  0  0  0  0  0
    6.0250   45.0760   50.6830 C   0  0  0  0  0  0  0  0  0  0  0  0
    4.8450   45.8480   51.2090 C   0  0  0  0  0  0  0  0  0  0  0  0
    5.2150   46.7000   52.3590 N   0  0  0  0  0  0  0  0  0  0  0  0
    4.1980   47.1200   53.2990 C   0  0  0  0  0  0  0  0  0  0  0  0
    3.5530   48.1850   53.0920 O   0  0  0  0  0  0  0  0  0  0  0  0
    3.8630   46.2910   54.5130 C   0  0  2  0  0  0  0  0  0  0  0  0
    4.2290   44.8080   54.4290 C   0  0  0  0  0  0  0  0  0  0  0  0
    2.7650   45.2290   54.3500 C   0  0  0  0  0  0  0  0  0  0  0  0
    2.1010   44.9480   52.9920 C   0  0  0  0  0  0  0  0  0  0  0  0
    0.6430   45.4170   53.0450 C   0  0  0  0  0  0  0  0  0  0  0  0
   -0.0360   44.8390   54.1460 O   0  0  0  0  0  0  0  0  0  0  0  0
    0.4840   45.3460   55.3640 C   0  0  0  0  0  0  0  0  0  0  0  0
    1.9280   44.8810   55.5870 C   0  0  0  0  0  0  0  0  0  0  0  0
    9.6899   47.6621   55.6441 H   0  0  0  0  0  0  0  0  0  0  0  0
    9.8220   46.7731   54.0888 H   0  0  0  0  0  0  0  0  0  0  0  0
    9.4933   48.5391   54.0888 H   0  0  0  0  0  0  0  0  0  0  0  0
    6.5078   48.3119   52.7068 H   0  0  0  0  0  0  0  0  0  0  0  0
    7.0872   47.7891   50.4787 H   0  0  0  0  0  0  0  0  0  0  0  0
    8.4881   47.2447   51.4791 H   0  0  0  0  0  0  0  0  0  0  0  0
    9.3876   45.4621   50.1465 H   0  0  0  0  0  0  0  0  0  0  0  0
    9.0987   43.1573   49.2317 H   0  0  0  0  0  0  0  0  0  0  0  0
    6.8435   42.0858   49.2270 H   0  0  0  0  0  0  0  0  0  0  0  0
    4.8700   43.3192   50.1330 H   0  0  0  0  0  0  0  0  0  0  0  0
    4.4503   46.4867   50.4051 H   0  0  0  0  0  0  0  0  0  0  0  0
    4.0876   45.1259   51.5481 H   0  0  0  0  0  0  0  0  0  0  0  0
    4.0495   47.1090   55.2244 H   0  0  0  0  0  0  0  0  0  0  0  0
    4.7370   44.4177   53.5348 H   0  0  0  0  0  0  0  0  0  0  0  0
    4.8035   44.1139   55.0601 H   0  0  0  0  0  0  0  0  0  0  0  0
    2.6355   45.4930   52.2000 H   0  0  0  0  0  0  0  0  0  0  0  0
    2.1378   43.8702   52.7754 H   0  0  0  0  0  0  0  0  0  0  0  0
    0.6207   46.5124   53.1433 H   0  0  0  0  0  0  0  0  0  0  0  0
    0.1397   45.1032   52.1186 H   0  0  0  0  0  0  0  0  0  0  0  0
    0.4618   46.4454   55.3336 H   0  0  0  0  0  0  0  0  0  0  0  0
   -0.1351   44.9681   56.1910 H   0  0  0  0  0  0  0  0  0  0  0  0
    2.3461   45.3882   56.4690 H   0  0  0  0  0  0  0  0  0  0  0  0
    1.9454   43.7936   55.7518 H   0  0  0  0  0  0  0  0  0  0  0  0
  1  2  1  0
  2  3  1  0
  3  4  2  0
  3  5  1  0
  5  6  1  0
  6  7  1  0
  7  8  2  0
  8  9  1  0
  9 10  2  0
 10 11  1  0
 11 12  2  0
 12 13  1  0
 13 14  1  0
 14 15  1  0
 15 16  2  0
 15 17  1  0
 17 18  1  0
 18 19  1  0
 19 20  1  0
 20 21  1  0
 21 22  1  0
 22 23  1  0
 23 24  1  0
 14  5  1  0
 19 17  1  0
 12  7  1  0
 24 19  1  0
  1 25  1  0
  1 26  1  0
  1 27  1  0
  5 28  1  1
  6 29  1  0
  6 30  1  0
  8 31  1  0
  9 32  1  0
 10 33  1  0
 11 34  1  0
 13 35  1  0
 13 36  1  0
 17 37  1  1
 18 38  1  0
 18 39  1  0
 20 40  1  0
 20 41  1  0
 21 42  1  0
 21 43  1  0
 23 44  1  0
 23 45  1  0
 24 46  1  0
 24 47  1  0
M  END
>  <meeko>  (1) 
{"is_sidechain": [false], "free_energy": -8.667, "intermolecular_energy": -10.693, "internal_energy": -0.303}

$$$$
ligand_44_conformer_3_docked
     RDKit          3D

 47 50  0  0  0  0  0  0  0  0999 V2000
    5.7720   44.5750   55.2500 C   0  0  0  0  0  0  0  0  0  0  0  0
    6.3480   44.9980   54.0210 O   0  0  0  0  0  0  0  0  0  0  0  0
    6.8460   46.2910   53.8270 C   0  0  0  0  0  0  0  0  0  0  0  0
    7.6850   46.7820   54.6300 O   0  0  0  0  0  0  0  0  0  0  0  0
    6.3870   47.0940   52.6410 C   0  0  1  0  0  0  0  0  0  0  0  0
    7.4940   47.1490   51.5700 C   0  0  0  0  0  0  0  0  0  0  0  0
    7.5800   45.8470   50.8280 C   0  0  0  0  0  0  0  0  0  0  0  0
    8.8180   45.2890   50.4740 C   0  0  0  0  0  0  0  0  0  0  0  0
    8.8650   44.0820   49.7710 C   0  0  0  0  0  0  0  0  0  0  0  0
    7.6800   43.4340   49.4100 C   0  0  0  0  0  0  0  0  0  0  0  0
    6.4440   43.9940   49.7490 C   0  0  0  0  0  0  0  0  0  0  0  0
    6.3900   45.1980   50.4670 C   0  0  0  0  0  0  0  0  0  0  0  0
    5.0710   45.8360   50.8120 C   0  0  0  0  0  0  0  0  0  0  0  0
    5.1220   46.5310   52.1160 N   0  0  0  0  0  0  0  0  0  0  0  0
    3.8980   46.7690   52.8510 C   0  0  0  0  0  0  0  0  0  0  0  0
    3.9430   47.3300   53.9810 O   0  0  0  0  0  0  0  0  0  0  0  0
    2.5550   46.3900   52.2800 C   0  0  2  0  0  0  0  0  0  0  0  0
    1.4770   46.0200   53.3010 C   0  0  0  0  0  0  0  0  0  0  0  0
    2.1140   44.9280   52.4470 C   0  0  0  0  0  0  0  0  0  0  0  0
    2.9490   43.9130   53.2450 C   0  0  0  0  0  0  0  0  0  0  0  0
    3.5320   42.8780   52.2760 C   0  0  0  0  0  0  0  0  0  0  0  0
    2.5100   42.2890   51.4900 O   0  0  0  0  0  0  0  0  0  0  0  0
    1.9580   43.2490   50.6040 C   0  0  0  0  0  0  0  0  0  0  0  0
    1.1970   44.3370   51.3690 C   0  0  0  0  0  0  0  0  0  0  0  0
    6.3461   44.9966   56.0883 H   0  0  0  0  0  0  0  0  0  0  0  0
    4.7305   44.9245   55.3063 H   0  0  0  0  0  0  0  0  0  0  0  0
    5.7938   43.4767   55.3063 H   0  0  0  0  0  0  0  0  0  0  0  0
    6.1873   48.1310   52.9489 H   0  0  0  0  0  0  0  0  0  0  0  0
    7.2675   47.9561   50.8578 H   0  0  0  0  0  0  0  0  0  0  0  0
    8.4573   47.3371   52.0666 H   0  0  0  0  0  0  0  0  0  0  0  0
    9.7514   45.8016   50.7498 H   0  0  0  0  0  0  0  0  0  0  0  0
    9.8360   43.6411   49.5013 H   0  0  0  0  0  0  0  0  0  0  0  0
    7.7197   42.4829   48.8589 H   0  0  0  0  0  0  0  0  0  0  0  0
    5.5127   43.4895   49.4521 H   0  0  0  0  0  0  0  0  0  0  0  0
    4.8126   46.5650   50.0298 H   0  0  0  0  0  0  0  0  0  0  0  0
    4.3133   45.0412   50.8774 H   0  0  0  0  0  0  0  0  0  0  0  0
    2.6293   47.0838   51.4297 H   0  0  0  0  0  0  0  0  0  0  0  0
    1.6983   46.0745   54.3771 H   0  0  0  0  0  0  0  0  0  0  0  0
    0.4460   46.3507   53.4948 H   0  0  0  0  0  0  0  0  0  0  0  0
    3.7667   44.4345   53.7640 H   0  0  0  0  0  0  0  0  0  0  0  0
    2.3132   43.4104   53.9887 H   0  0  0  0  0  0  0  0  0  0  0  0
    4.2561   43.3735   51.6126 H   0  0  0  0  0  0  0  0  0  0  0  0
    4.0251   42.0876   52.8609 H   0  0  0  0  0  0  0  0  0  0  0  0
    2.7714   43.7165   50.0297 H   0  0  0  0  0  0  0  0  0  0  0  0
    1.2527   42.7377   49.9323 H   0  0  0  0  0  0  0  0  0  0  0  0
    0.8891   45.1304   50.6720 H   0  0  0  0  0  0  0  0  0  0  0  0
    0.3035   43.9020   51.8406 H   0  0  0  0  0  0  0  0  0  0  0  0
  1  2  1  0
  2  3  1  0
  3  4  2  0
  3  5  1  0
  5  6  1  0
  6  7  1  0
  7  8  2  0
  8  9  1  0
  9 10  2  0
 10 11  1  0
 11 12  2  0
 12 13  1  0
 13 14  1  0
 14 15  1  0
 15 16  2  0
 15 17  1  0
 17 18  1  0
 18 19  1  0
 19 20  1  0
 20 21  1  0
 21 22  1  0
 22 23  1  0
 23 24  1  0
 14  5  1  0
 19 17  1  0
 12  7  1  0
 24 19  1  0
  1 25  1  0
  1 26  1  0
  1 27  1  0
  5 28  1  1
  6 29  1  0
  6 30  1  0
  8 31  1  0
  9 32  1  0
 10 33  1  0
 11 34  1  0
 13 35  1  0
 13 36  1  0
 17 37  1  6
 18 38  1  0
 18 39  1  0
 20 40  1  0
 20 41  1  0
 21 42  1  0
 21 43  1  0
 23 44  1  0
 23 45  1  0
 24 46  1  0
 24 47  1  0
M  END
>  <meeko>  (2) 
{"is_sidechain": [false], "free_energy": -8.661, "intermolecular_energy": -10.211, "internal_energy": -0.778}

$$$$
ligand_44_conformer_3_docked
     RDKit          3D

 47 50  0  0  0  0  0  0  0  0999 V2000
    3.3570   46.0830   55.6470 C   0  0  0  0  0  0  0  0  0  0  0  0
    4.6480   45.4900   55.6170 O   0  0  0  0  0  0  0  0  0  0  0  0
    5.3470   45.2630   54.4270 C   0  0  0  0  0  0  0  0  0  0  0  0
    6.1420   44.2890   54.3270 O   0  0  0  0  0  0  0  0  0  0  0  0
    5.1350   46.1790   53.2530 C   0  0  1  0  0  0  0  0  0  0  0  0
    6.0530   47.4130   53.3640 C   0  0  0  0  0  0  0  0  0  0  0  0
    7.4660   47.0570   53.0070 C   0  0  0  0  0  0  0  0  0  0  0  0
    8.5540   47.5770   53.7250 C   0  0  0  0  0  0  0  0  0  0  0  0
    9.8590   47.2390   53.3590 C   0  0  0  0  0  0  0  0  0  0  0  0
   10.0850   46.3900   52.2710 C   0  0  0  0  0  0  0  0  0  0  0  0
    9.0050   45.8800   51.5440 C   0  0  0  0  0  0  0  0  0  0  0  0
    7.6910   46.2050   51.9160 C   0  0  0  0  0  0  0  0  0  0  0  0
    6.5150   45.6960   51.1260 C   0  0  0  0  0  0  0  0  0  0  0  0
    5.3460   45.4310   51.9920 N   0  0  0  0  0  0  0  0  0  0  0  0
    4.3230   44.5050   51.5560 C   0  0  0  0  0  0  0  0  0  0  0  0
    4.5430   43.2630   51.5930 O   0  0  0  0  0  0  0  0  0  0  0  0
    2.9750   44.9920   51.0850 C   0  0  2  0  0  0  0  0  0  0  0  0
    2.3480   46.1170   51.9100 C   0  0  0  0  0  0  0  0  0  0  0  0
    1.7740   44.7070   52.0000 C   0  0  0  0  0  0  0  0  0  0  0  0
    1.9400   44.0460   53.3780 C   0  0  0  0  0  0  0  0  0  0  0  0
    1.3280   42.6420   53.3340 C   0  0  0  0  0  0  0  0  0  0  0  0
   -0.0130   42.6880   52.8780 O   0  0  0  0  0  0  0  0  0  0  0  0
   -0.0540   43.0740   51.5140 C   0  0  0  0  0  0  0  0  0  0  0  0
    0.4050   44.5260   51.3340 C   0  0  0  0  0  0  0  0  0  0  0  0
    3.0438   46.2269   56.6916 H   0  0  0  0  0  0  0  0  0  0  0  0
    3.3888   47.0567   55.1363 H   0  0  0  0  0  0  0  0  0  0  0  0
    2.6390   45.4244   55.1363 H   0  0  0  0  0  0  0  0  0  0  0  0
    4.0990   46.5489   53.2516 H   0  0  0  0  0  0  0  0  0  0  0  0
    5.6930   48.1937   52.6778 H   0  0  0  0  0  0  0  0  0  0  0  0
    6.0316   47.7773   54.4017 H   0  0  0  0  0  0  0  0  0  0  0  0
    8.3790   48.2511   54.5764 H   0  0  0  0  0  0  0  0  0  0  0  0
   10.7104   47.6413   53.9276 H   0  0  0  0  0  0  0  0  0  0  0  0
   11.1136   46.1231   51.9868 H   0  0  0  0  0  0  0  0  0  0  0  0
    9.1851   45.2236   50.6799 H   0  0  0  0  0  0  0  0  0  0  0  0
    6.2378   46.4497   50.3742 H   0  0  0  0  0  0  0  0  0  0  0  0
    6.8079   44.7499   50.6474 H   0  0  0  0  0  0  0  0  0  0  0  0
    3.1943   44.8248   50.0201 H   0  0  0  0  0  0  0  0  0  0  0  0
    2.8957   46.5422   52.7640 H   0  0  0  0  0  0  0  0  0  0  0  0
    1.9338   47.1096   51.6793 H   0  0  0  0  0  0  0  0  0  0  0  0
    3.0092   43.9748   53.6266 H   0  0  0  0  0  0  0  0  0  0  0  0
    1.4311   44.6497   54.1438 H   0  0  0  0  0  0  0  0  0  0  0  0
    1.9188   42.0130   52.6519 H   0  0  0  0  0  0  0  0  0  0  0  0
    1.3389   42.2223   54.3507 H   0  0  0  0  0  0  0  0  0  0  0  0
    0.6082   42.4140   50.9344 H   0  0  0  0  0  0  0  0  0  0  0  0
   -1.0920   42.9906   51.1597 H   0  0  0  0  0  0  0  0  0  0  0  0
    0.4841   44.7568   50.2614 H   0  0  0  0  0  0  0  0  0  0  0  0
   -0.3251   45.2052   51.7984 H   0  0  0  0  0  0  0  0  0  0  0  0
  1  2  1  0
  2  3  1  0
  3  4  2  0
  3  5  1  0
  5  6  1  0
  6  7  1  0
  7  8  2  0
  8  9  1  0
  9 10  2  0
 10 11  1  0
 11 12  2  0
 12 13  1  0
 13 14  1  0
 14 15  1  0
 15 16  2  0
 15 17  1  0
 17 18  1  0
 18 19  1  0
 19 20  1  0
 20 21  1  0
 21 22  1  0
 22 23  1  0
 23 24  1  0
 14  5  1  0
 19 17  1  0
 12  7  1  0
 24 19  1  0
  1 25  1  0
  1 26  1  0
  1 27  1  0
  5 28  1  6
  6 29  1  0
  6 30  1  0
  8 31  1  0
  9 32  1  0
 10 33  1  0
 11 34  1  0
 13 35  1  0
 13 36  1  0
 17 37  1  6
 18 38  1  0
 18 39  1  0
 20 40  1  0
 20 41  1  0
 21 42  1  0
 21 43  1  0
 23 44  1  0
 23 45  1  0
 24 46  1  0
 24 47  1  0
M  END
>  <meeko>  (3) 
{"is_sidechain": [false], "free_energy": -8.512, "intermolecular_energy": -10.602, "internal_energy": -0.203}

$$$$
ligand_44_conformer_3_docked
     RDKit          3D

 47 50  0  0  0  0  0  0  0  0999 V2000
    8.4070   47.2320   54.3320 C   0  0  0  0  0  0  0  0  0  0  0  0
    7.0270   47.0160   54.5930 O   0  0  0  0  0  0  0  0  0  0  0  0
    6.2880   46.0090   53.9640 C   0  0  0  0  0  0  0  0  0  0  0  0
    6.4890   44.7960   54.2440 O   0  0  0  0  0  0  0  0  0  0  0  0
    5.2340   46.3780   52.9560 C   0  0  1  0  0  0  0  0  0  0  0  0
    5.8710   46.5940   51.5690 C   0  0  0  0  0  0  0  0  0  0  0  0
    6.2140   45.2790   50.9330 C   0  0  0  0  0  0  0  0  0  0  0  0
    7.4070   45.1060   50.2140 C   0  0  0  0  0  0  0  0  0  0  0  0
    7.6920   43.8730   49.6200 C   0  0  0  0  0  0  0  0  0  0  0  0
    6.7860   42.8140   49.7310 C   0  0  0  0  0  0  0  0  0  0  0  0
    5.5900   42.9870   50.4350 C   0  0  0  0  0  0  0  0  0  0  0  0
    5.3040   44.2180   51.0460 C   0  0  0  0  0  0  0  0  0  0  0  0
    4.0080   44.4360   51.7790 C   0  0  0  0  0  0  0  0  0  0  0  0
    4.1770   45.3400   52.9370 N   0  0  0  0  0  0  0  0  0  0  0  0
    3.2290   45.2940   54.0290 C   0  0  0  0  0  0  0  0  0  0  0  0
    3.6010   44.8920   55.1660 O   0  0  0  0  0  0  0  0  0  0  0  0
    1.8030   45.7510   53.8490 C   0  0  2  0  0  0  0  0  0  0  0  0
    0.8250   45.3300   54.9470 C   0  0  0  0  0  0  0  0  0  0  0  0
    0.7530   44.6640   53.5760 C   0  0  0  0  0  0  0  0  0  0  0  0
    1.1090   43.1680   53.5840 C   0  0  0  0  0  0  0  0  0  0  0  0
    1.0000   42.6240   52.1560 C   0  0  0  0  0  0  0  0  0  0  0  0
   -0.2720   42.9080   51.6010 O   0  0  0  0  0  0  0  0  0  0  0  0
   -0.4190   44.3040   51.4000 C   0  0  0  0  0  0  0  0  0  0  0  0
   -0.4680   45.0550   52.7350 C   0  0  0  0  0  0  0  0  0  0  0  0
    8.9513   47.3172   55.2841 H   0  0  0  0  0  0  0  0  0  0  0  0
    8.8079   46.3857   53.7549 H   0  0  0  0  0  0  0  0  0  0  0  0
    8.5301   48.1603   53.7549 H   0  0  0  0  0  0  0  0  0  0  0  0
    4.7613   47.3291   53.2423 H   0  0  0  0  0  0  0  0  0  0  0  0
    5.1601   47.1322   50.9249 H   0  0  0  0  0  0  0  0  0  0  0  0
    6.7941   47.1797   51.6908 H   0  0  0  0  0  0  0  0  0  0  0  0
    8.1174   45.9403   50.1180 H   0  0  0  0  0  0  0  0  0  0  0  0
    8.6312   43.7357   49.0640 H   0  0  0  0  0  0  0  0  0  0  0  0
    7.0140   41.8443   49.2644 H   0  0  0  0  0  0  0  0  0  0  0  0
    4.8721   42.1569   50.5101 H   0  0  0  0  0  0  0  0  0  0  0  0
    3.2770   44.8781   51.0860 H   0  0  0  0  0  0  0  0  0  0  0  0
    3.6592   43.4623   52.1536 H   0  0  0  0  0  0  0  0  0  0  0  0
    2.0811   46.6980   53.3634 H   0  0  0  0  0  0  0  0  0  0  0  0
    1.1869   44.7605   55.8157 H   0  0  0  0  0  0  0  0  0  0  0  0
    0.1072   45.8591   55.5911 H   0  0  0  0  0  0  0  0  0  0  0  0
    2.1370   43.0351   53.9522 H   0  0  0  0  0  0  0  0  0  0  0  0
    0.4171   42.6239   54.2438 H   0  0  0  0  0  0  0  0  0  0  0  0
    1.7769   43.0909   51.5328 H   0  0  0  0  0  0  0  0  0  0  0  0
    1.1342   41.5326   52.1852 H   0  0  0  0  0  0  0  0  0  0  0  0
    0.4340   44.6734   50.8118 H   0  0  0  0  0  0  0  0  0  0  0  0
   -1.3645   44.4810   50.8664 H   0  0  0  0  0  0  0  0  0  0  0  0
   -0.4549   46.1390   52.5485 H   0  0  0  0  0  0  0  0  0  0  0  0
   -1.3895   44.7913   53.2748 H   0  0  0  0  0  0  0  0  0  0  0  0
  1  2  1  0
  2  3  1  0
  3  4  2  0
  3  5  1  0
  5  6  1  0
  6  7  1  0
  7  8  2  0
  8  9  1  0
  9 10  2  0
 10 11  1  0
 11 12  2  0
 12 13  1  0
 13 14  1  0
 14 15  1  0
 15 16  2  0
 15 17  1  0
 17 18  1  0
 18 19  1  0
 19 20  1  0
 20 21  1  0
 21 22  1  0
 22 23  1  0
 23 24  1  0
 14  5  1  0
 19 17  1  0
 12  7  1  0
 24 19  1  0
  1 25  1  0
  1 26  1  0
  1 27  1  0
  5 28  1  1
  6 29  1  0
  6 30  1  0
  8 31  1  0
  9 32  1  0
 10 33  1  0
 11 34  1  0
 13 35  1  0
 13 36  1  0
 17 37  1  6
 18 38  1  0
 18 39  1  0
 20 40  1  0
 20 41  1  0
 21 42  1  0
 21 43  1  0
 23 44  1  0
 23 45  1  0
 24 46  1  0
 24 47  1  0
M  END
>  <meeko>  (4) 
{"is_sidechain": [false], "free_energy": -8.28, "intermolecular_energy": -10.182, "internal_energy": -0.337}

$$$$
ligand_44_conformer_3_docked
     RDKit          3D

 47 50  0  0  0  0  0  0  0  0999 V2000
    7.5010   44.6470   49.9810 C   0  0  0  0  0  0  0  0  0  0  0  0
    6.1740   44.9430   50.3970 O   0  0  0  0  0  0  0  0  0  0  0  0
    5.5190   44.2190   51.3980 C   0  0  0  0  0  0  0  0  0  0  0  0
    5.2970   42.9850   51.2570 O   0  0  0  0  0  0  0  0  0  0  0  0
    5.0890   44.9150   52.6600 C   0  0  1  0  0  0  0  0  0  0  0  0
    6.2500   44.9530   53.6730 C   0  0  0  0  0  0  0  0  0  0  0  0
    7.2630   45.9890   53.2830 C   0  0  0  0  0  0  0  0  0  0  0  0
    8.6390   45.7490   53.4110 C   0  0  0  0  0  0  0  0  0  0  0  0
    9.5580   46.7390   53.0520 C   0  0  0  0  0  0  0  0  0  0  0  0
    9.1080   47.9740   52.5750 C   0  0  0  0  0  0  0  0  0  0  0  0
    7.7370   48.2220   52.4580 C   0  0  0  0  0  0  0  0  0  0  0  0
    6.8090   47.2270   52.8040 C   0  0  0  0  0  0  0  0  0  0  0  0
    5.3290   47.4850   52.7190 C   0  0  0  0  0  0  0  0  0  0  0  0
    4.5810   46.2690   52.3340 N   0  0  0  0  0  0  0  0  0  0  0  0
    3.2730   46.3910   51.7270 C   0  0  0  0  0  0  0  0  0  0  0  0
    3.1690   46.4810   50.4720 O   0  0  0  0  0  0  0  0  0  0  0  0
    2.0170   46.3790   52.5620 C   0  0  2  0  0  0  0  0  0  0  0  0
    2.0930   45.5870   53.8680 C   0  0  0  0  0  0  0  0  0  0  0  0
    1.2840   45.0360   52.6980 C   0  0  0  0  0  0  0  0  0  0  0  0
    1.8480   43.7370   52.0980 C   0  0  0  0  0  0  0  0  0  0  0  0
    0.9500   43.2950   50.9380 C   0  0  0  0  0  0  0  0  0  0  0  0
   -0.4010   43.1970   51.3510 O   0  0  0  0  0  0  0  0  0  0  0  0
   -0.9170   44.4830   51.6530 C   0  0  0  0  0  0  0  0  0  0  0  0
   -0.2370   45.0770   52.8920 C   0  0  0  0  0  0  0  0  0  0  0  0
    8.1394   44.5046   50.8654 H   0  0  0  0  0  0  0  0  0  0  0  0
    7.4996   43.7271   49.3779 H   0  0  0  0  0  0  0  0  0  0  0  0
    7.8907   45.4803   49.3779 H   0  0  0  0  0  0  0  0  0  0  0  0
    4.2687   44.3553   53.1332 H   0  0  0  0  0  0  0  0  0  0  0  0
    5.8516   45.1951   54.6693 H   0  0  0  0  0  0  0  0  0  0  0  0
    6.7396   43.9680   53.6857 H   0  0  0  0  0  0  0  0  0  0  0  0
    8.9950   44.7813   53.7941 H   0  0  0  0  0  0  0  0  0  0  0  0
   10.6370   46.5463   53.1448 H   0  0  0  0  0  0  0  0  0  0  0  0
    9.8332   48.7510   52.2916 H   0  0  0  0  0  0  0  0  0  0  0  0
    7.3848   49.1985   52.0942 H   0  0  0  0  0  0  0  0  0  0  0  0
    4.9703   47.8278   53.7008 H   0  0  0  0  0  0  0  0  0  0  0  0
    5.1590   48.2499   51.9469 H   0  0  0  0  0  0  0  0  0  0  0  0
    1.7186   47.3983   52.2756 H   0  0  0  0  0  0  0  0  0  0  0  0
    3.0352   45.1009   54.1612 H   0  0  0  0  0  0  0  0  0  0  0  0
    1.8775   45.8093   54.9235 H   0  0  0  0  0  0  0  0  0  0  0  0
    2.8687   43.9139   51.7281 H   0  0  0  0  0  0  0  0  0  0  0  0
    1.8753   42.9520   52.8681 H   0  0  0  0  0  0  0  0  0  0  0  0
    1.0249   44.0314   50.1243 H   0  0  0  0  0  0  0  0  0  0  0  0
    1.2839   42.3051   50.5938 H   0  0  0  0  0  0  0  0  0  0  0  0
   -0.7443   45.1493   50.7950 H   0  0  0  0  0  0  0  0  0  0  0  0
   -1.9932   44.3866   51.8592 H   0  0  0  0  0  0  0  0  0  0  0  0
   -0.5631   46.1188   53.0273 H   0  0  0  0  0  0  0  0  0  0  0  0
   -0.5129   44.4926   53.7821 H   0  0  0  0  0  0  0  0  0  0  0  0
  1  2  1  0
  2  3  1  0
  3  4  2  0
  3  5  1  0
  5  6  1  0
  6  7  1  0
  7  8  2  0
  8  9  1  0
  9 10  2  0
 10 11  1  0
 11 12  2  0
 12 13  1  0
 13 14  1  0
 14 15  1  0
 15 16  2  0
 15 17  1  0
 17 18  1  0
 18 19  1  0
 19 20  1  0
 20 21  1  0
 21 22  1  0
 22 23  1  0
 23 24  1  0
 14  5  1  0
 19 17  1  0
 12  7  1  0
 24 19  1  0
  1 25  1  0
  1 26  1  0
  1 27  1  0
  5 28  1  1
  6 29  1  0
  6 30  1  0
  8 31  1  0
  9 32  1  0
 10 33  1  0
 11 34  1  0
 13 35  1  0
 13 36  1  0
 17 37  1  1
 18 38  1  0
 18 39  1  0
 20 40  1  0
 20 41  1  0
 21 42  1  0
 21 43  1  0
 23 44  1  0
 23 45  1  0
 24 46  1  0
 24 47  1  0
M  END
>  <meeko>  (5) 
{"is_sidechain": [false], "free_energy": -8.156, "intermolecular_energy": -9.728, "internal_energy": -0.638}

$$$$
