MODEL 1
REMARK VINA RESULT:    -7.531      0.000      0.000
REMARK INTER + INTRA:         -10.060
REMARK INTER:                  -9.292
REMARK INTRA:                  -0.768
REMARK UNBOUND:                -0.768
REMARK SMILES CN1CC[C@@](C)(CNC(=O)Nc2ccc(-c3ncco3)cc2)C1
REMARK SMILES IDX 8 1 9 2 10 3 11 4 7 7 5 8 2 9 3 10 23 11 4 12 1 13 6 14
REMARK SMILES IDX 12 15 13 16 22 17 14 18 21 19 15 20 16 21 17 22 20 23 18 24
REMARK SMILES IDX 19 25
REMARK H PARENT 8 5 11 6
ROOT
ATOM      1  N   UNL     1       0.642  44.419  50.826  1.00  0.00    -0.337 N 
ATOM      2  C   UNL     1       1.979  44.551  51.331  1.00  0.00     0.319 C 
ATOM      3  O   UNL     1       2.444  43.689  52.126  1.00  0.00    -0.249 OA
ATOM      4  N   UNL     1       2.797  45.645  50.888  1.00  0.00    -0.308 N 
ATOM      5  H   UNL     1       0.284  45.147  50.168  1.00  0.00     0.165 HD
ATOM      6  H   UNL     1       2.487  46.166  50.037  1.00  0.00     0.171 HD
ENDROOT
BRANCH   1   7
ATOM      7  C   UNL     1      -0.247  43.314  51.191  1.00  0.00     0.125 C 
BRANCH   7   8
ATOM      8  C   UNL     1      -1.249  43.711  52.314  1.00  0.00    -0.001 C 
ATOM      9  N   UNL     1      -2.523  45.456  51.274  1.00  0.00    -0.306 NA
ATOM     10  C   UNL     1      -3.342  44.237  51.195  1.00  0.00     0.085 C 
ATOM     11  C   UNL     1      -1.521  45.218  52.318  1.00  0.00     0.092 C 
ATOM     12  C   UNL     1      -2.634  43.142  51.991  1.00  0.00     0.025 C 
ATOM     13  C   UNL     1      -3.331  46.650  51.560  1.00  0.00     0.105 C 
ATOM     14  C   UNL     1      -0.752  43.221  53.690  1.00  0.00     0.014 C 
ENDBRANCH   7   8
ENDBRANCH   1   7
BRANCH   4  15
ATOM     15  C   UNL     1       4.071  45.984  51.462  1.00  0.00     0.042 A 
ATOM     16  C   UNL     1       4.114  46.738  52.642  1.00  0.00     0.027 A 
ATOM     17  C   UNL     1       5.275  45.527  50.898  1.00  0.00     0.027 A 
ATOM     18  C   UNL     1       5.340  47.065  53.232  1.00  0.00     0.016 A 
ATOM     19  C   UNL     1       6.500  45.853  51.487  1.00  0.00     0.016 A 
ATOM     20  C   UNL     1       6.543  46.628  52.657  1.00  0.00     0.037 A 
BRANCH  20  21
ATOM     21  C   UNL     1       7.835  46.976  53.284  1.00  0.00     0.225 A 
ATOM     22  N   UNL     1       7.956  47.462  54.538  1.00  0.00    -0.218 NA
ATOM     23  O   UNL     1       8.997  46.843  52.683  1.00  0.00    -0.445 OA
ATOM     24  C   UNL     1       9.284  47.629  54.683  1.00  0.00     0.154 A 
ATOM     25  C   UNL     1       9.917  47.240  53.525  1.00  0.00     0.218 A 
ENDBRANCH  20  21
ENDBRANCH   4  15
TORSDOF 4
ENDMDL
MODEL 2
REMARK VINA RESULT:    -7.110      1.444      1.934
REMARK INTER + INTRA:          -9.540
REMARK INTER:                  -9.007
REMARK INTRA:                  -0.533
REMARK UNBOUND:                -0.768
REMARK SMILES CN1CC[C@@](C)(CNC(=O)Nc2ccc(-c3ncco3)cc2)C1
REMARK SMILES IDX 8 1 9 2 10 3 11 4 7 7 5 8 2 9 3 10 23 11 4 12 1 13 6 14
REMARK SMILES IDX 12 15 13 16 22 17 14 18 21 19 15 20 16 21 17 22 20 23 18 24
REMARK SMILES IDX 19 25
REMARK H PARENT 8 5 11 6
ROOT
ATOM      1  N   UNL     1       0.559  44.072  51.114  1.00  0.00    -0.337 N 
ATOM      2  C   UNL     1       1.682  44.700  51.750  1.00  0.00     0.319 C 
ATOM      3  O   UNL     1       1.519  45.754  52.424  1.00  0.00    -0.249 OA
ATOM      4  N   UNL     1       2.980  44.096  51.652  1.00  0.00    -0.308 N 
ATOM      5  H   UNL     1       0.723  43.198  50.564  1.00  0.00     0.165 HD
ATOM      6  H   UNL     1       3.027  43.102  51.334  1.00  0.00     0.171 HD
ENDROOT
BRANCH   1   7
ATOM      7  C   UNL     1      -0.806  44.596  51.197  1.00  0.00     0.125 C 
BRANCH   7   8
ATOM      8  C   UNL     1      -1.723  43.708  52.087  1.00  0.00    -0.001 C 
ATOM      9  N   UNL     1      -1.326  44.595  54.280  1.00  0.00    -0.306 NA
ATOM     10  C   UNL     1      -2.600  45.171  53.821  1.00  0.00     0.085 C 
ATOM     11  C   UNL     1      -1.077  43.415  53.444  1.00  0.00     0.092 C 
ATOM     12  C   UNL     1      -2.967  44.504  52.496  1.00  0.00     0.025 C 
ATOM     13  C   UNL     1      -1.356  44.250  55.708  1.00  0.00     0.105 C 
ATOM     14  C   UNL     1      -2.110  42.409  51.351  1.00  0.00     0.014 C 
ENDBRANCH   7   8
ENDBRANCH   1   7
BRANCH   4  15
ATOM     15  C   UNL     1       4.199  44.726  52.083  1.00  0.00     0.042 A 
ATOM     16  C   UNL     1       4.652  44.522  53.393  1.00  0.00     0.027 A 
ATOM     17  C   UNL     1       4.979  45.495  51.202  1.00  0.00     0.027 A 
ATOM     18  C   UNL     1       5.845  45.106  53.831  1.00  0.00     0.016 A 
ATOM     19  C   UNL     1       6.171  46.078  51.638  1.00  0.00     0.016 A 
ATOM     20  C   UNL     1       6.613  45.893  52.958  1.00  0.00     0.037 A 
BRANCH  20  21
ATOM     21  C   UNL     1       7.872  46.507  53.426  1.00  0.00     0.225 A 
ATOM     22  N   UNL     1       7.970  47.274  54.533  1.00  0.00    -0.218 NA
ATOM     23  O   UNL     1       9.025  46.367  52.809  1.00  0.00    -0.445 OA
ATOM     24  C   UNL     1       9.274  47.608  54.569  1.00  0.00     0.154 A 
ATOM     25  C   UNL     1       9.915  47.038  53.494  1.00  0.00     0.218 A 
ENDBRANCH  20  21
ENDBRANCH   4  15
TORSDOF 4
ENDMDL
MODEL 3
REMARK VINA RESULT:    -6.944      2.481      9.050
REMARK INTER + INTRA:          -9.335
REMARK INTER:                  -8.599
REMARK INTRA:                  -0.737
REMARK UNBOUND:                -0.768
REMARK SMILES CN1CC[C@@](C)(CNC(=O)Nc2ccc(-c3ncco3)cc2)C1
REMARK SMILES IDX 8 1 9 2 10 3 11 4 7 7 5 8 2 9 3 10 23 11 4 12 1 13 6 14
REMARK SMILES IDX 12 15 13 16 22 17 14 18 21 19 15 20 16 21 17 22 20 23 18 24
REMARK SMILES IDX 19 25
REMARK H PARENT 8 5 11 6
ROOT
ATOM      1  N   UNL     1       6.587  45.713  54.368  1.00  0.00    -0.337 N 
ATOM      2  C   UNL     1       5.324  45.540  53.707  1.00  0.00     0.319 C 
ATOM      3  O   UNL     1       4.726  46.535  53.215  1.00  0.00    -0.249 OA
ATOM      4  N   UNL     1       4.772  44.222  53.571  1.00  0.00    -0.308 N 
ATOM      5  H   UNL     1       7.060  44.870  54.765  1.00  0.00     0.165 HD
ATOM      6  H   UNL     1       5.410  43.411  53.736  1.00  0.00     0.171 HD
ENDROOT
BRANCH   1   7
ATOM      7  C   UNL     1       7.243  47.014  54.515  1.00  0.00     0.125 C 
BRANCH   7   8
ATOM      8  C   UNL     1       8.560  47.104  53.690  1.00  0.00    -0.001 C 
ATOM      9  N   UNL     1       7.954  46.030  51.633  1.00  0.00    -0.306 NA
ATOM     10  C   UNL     1       7.887  47.479  51.384  1.00  0.00     0.085 C 
ATOM     11  C   UNL     1       8.775  45.852  52.836  1.00  0.00     0.092 C 
ATOM     12  C   UNL     1       8.423  48.195  52.623  1.00  0.00     0.025 C 
ATOM     13  C   UNL     1       8.506  45.295  50.487  1.00  0.00     0.105 C 
ATOM     14  C   UNL     1       9.766  47.376  54.613  1.00  0.00     0.014 C 
ENDBRANCH   7   8
ENDBRANCH   1   7
BRANCH   4  15
ATOM     15  C   UNL     1       3.440  43.949  53.102  1.00  0.00     0.042 A 
ATOM     16  C   UNL     1       3.265  43.270  51.888  1.00  0.00     0.027 A 
ATOM     17  C   UNL     1       2.309  44.295  53.862  1.00  0.00     0.027 A 
ATOM     18  C   UNL     1       1.981  42.973  51.420  1.00  0.00     0.016 A 
ATOM     19  C   UNL     1       1.025  43.998  53.394  1.00  0.00     0.016 A 
ATOM     20  C   UNL     1       0.850  43.339  52.166  1.00  0.00     0.037 A 
BRANCH  20  21
ATOM     21  C   UNL     1      -0.504  43.023  51.667  1.00  0.00     0.225 A 
ATOM     22  N   UNL     1      -1.475  42.469  52.425  1.00  0.00    -0.218 NA
ATOM     23  O   UNL     1      -0.898  43.253  50.434  1.00  0.00    -0.445 OA
ATOM     24  C   UNL     1      -2.514  42.364  51.575  1.00  0.00     0.154 A 
ATOM     25  C   UNL     1      -2.142  42.854  50.345  1.00  0.00     0.218 A 
ENDBRANCH  20  21
ENDBRANCH   4  15
TORSDOF 4
ENDMDL
MODEL 4
REMARK VINA RESULT:    -6.825      5.580      6.911
REMARK INTER + INTRA:          -9.188
REMARK INTER:                  -9.287
REMARK INTRA:                   0.098
REMARK UNBOUND:                -0.768
REMARK SMILES CN1CC[C@@](C)(CNC(=O)Nc2ccc(-c3ncco3)cc2)C1
REMARK SMILES IDX 8 1 9 2 10 3 11 4 7 7 5 8 2 9 3 10 23 11 4 12 1 13 6 14
REMARK SMILES IDX 12 15 13 16 22 17 14 18 21 19 15 20 16 21 17 22 20 23 18 24
REMARK SMILES IDX 19 25
REMARK H PARENT 8 5 11 6
ROOT
ATOM      1  N   UNL     1       4.473  40.428  47.278  1.00  0.00    -0.337 N 
ATOM      2  C   UNL     1       4.988  41.260  48.326  1.00  0.00     0.319 C 
ATOM      3  O   UNL     1       4.451  41.247  49.467  1.00  0.00    -0.249 OA
ATOM      4  N   UNL     1       6.146  42.072  48.081  1.00  0.00    -0.308 N 
ATOM      5  H   UNL     1       4.940  40.458  46.343  1.00  0.00     0.165 HD
ATOM      6  H   UNL     1       6.720  41.852  47.235  1.00  0.00     0.171 HD
ENDROOT
BRANCH   1   7
ATOM      7  C   UNL     1       3.323  39.538  47.453  1.00  0.00     0.125 C 
BRANCH   7   8
ATOM      8  C   UNL     1       2.623  39.209  46.102  1.00  0.00    -0.001 C 
ATOM      9  N   UNL     1       3.524  37.051  45.567  1.00  0.00    -0.306 NA
ATOM     10  C   UNL     1       2.187  36.817  46.134  1.00  0.00     0.085 C 
ATOM     11  C   UNL     1       3.560  38.458  45.152  1.00  0.00     0.092 C 
ATOM     12  C   UNL     1       1.516  38.175  46.335  1.00  0.00     0.025 C 
ATOM     13  C   UNL     1       3.819  36.147  44.447  1.00  0.00     0.105 C 
ATOM     14  C   UNL     1       2.061  40.489  45.450  1.00  0.00     0.014 C 
ENDBRANCH   7   8
ENDBRANCH   1   7
BRANCH   4  15
ATOM     15  C   UNL     1       6.635  43.078  48.985  1.00  0.00     0.042 A 
ATOM     16  C   UNL     1       7.959  43.523  48.867  1.00  0.00     0.027 A 
ATOM     17  C   UNL     1       5.798  43.669  49.947  1.00  0.00     0.027 A 
ATOM     18  C   UNL     1       8.453  44.515  49.720  1.00  0.00     0.016 A 
ATOM     19  C   UNL     1       6.291  44.661  50.800  1.00  0.00     0.016 A 
ATOM     20  C   UNL     1       7.624  45.089  50.697  1.00  0.00     0.037 A 
BRANCH  20  21
ATOM     21  C   UNL     1       8.151  46.137  51.595  1.00  0.00     0.225 A 
ATOM     22  N   UNL     1       7.429  47.197  52.019  1.00  0.00    -0.218 NA
ATOM     23  O   UNL     1       9.376  46.141  52.073  1.00  0.00    -0.445 OA
ATOM     24  C   UNL     1       8.293  47.872  52.801  1.00  0.00     0.154 A 
ATOM     25  C   UNL     1       9.495  47.205  52.825  1.00  0.00     0.218 A 
ENDBRANCH  20  21
ENDBRANCH   4  15
TORSDOF 4
ENDMDL
MODEL 5
REMARK VINA RESULT:    -6.573      2.034      2.906
REMARK INTER + INTRA:          -8.878
REMARK INTER:                  -8.332
REMARK INTRA:                  -0.546
REMARK UNBOUND:                -0.768
REMARK SMILES CN1CC[C@@](C)(CNC(=O)Nc2ccc(-c3ncco3)cc2)C1
REMARK SMILES IDX 8 1 9 2 10 3 11 4 7 7 5 8 2 9 3 10 23 11 4 12 1 13 6 14
REMARK SMILES IDX 12 15 13 16 22 17 14 18 21 19 15 20 16 21 17 22 20 23 18 24
REMARK SMILES IDX 19 25
REMARK H PARENT 8 5 11 6
ROOT
ATOM      1  N   UNL     1       0.131  44.420  52.676  1.00  0.00    -0.337 N 
ATOM      2  C   UNL     1       1.510  44.582  53.041  1.00  0.00     0.319 C 
ATOM      3  O   UNL     1       1.958  44.031  54.083  1.00  0.00    -0.249 OA
ATOM      4  N   UNL     1       2.384  45.334  52.186  1.00  0.00    -0.308 N 
ATOM      5  H   UNL     1      -0.211  44.886  51.806  1.00  0.00     0.165 HD
ATOM      6  H   UNL     1       2.056  45.533  51.214  1.00  0.00     0.171 HD
ENDROOT
BRANCH   1   7
ATOM      7  C   UNL     1      -0.820  43.635  53.466  1.00  0.00     0.125 C 
BRANCH   7   8
ATOM      8  C   UNL     1      -1.873  44.532  54.180  1.00  0.00    -0.001 C 
ATOM      9  N   UNL     1      -2.343  43.287  56.175  1.00  0.00    -0.306 NA
ATOM     10  C   UNL     1      -1.407  44.356  56.560  1.00  0.00     0.085 C 
ATOM     11  C   UNL     1      -2.934  43.693  54.895  1.00  0.00     0.092 C 
ATOM     12  C   UNL     1      -1.212  45.268  55.350  1.00  0.00     0.025 C 
ATOM     13  C   UNL     1      -3.372  43.055  57.198  1.00  0.00     0.105 C 
ATOM     14  C   UNL     1      -2.510  45.526  53.185  1.00  0.00     0.014 C 
ENDBRANCH   7   8
ENDBRANCH   1   7
BRANCH   4  15
ATOM     15  C   UNL     1       3.724  45.719  52.539  1.00  0.00     0.042 A 
ATOM     16  C   UNL     1       4.807  44.999  52.015  1.00  0.00     0.027 A 
ATOM     17  C   UNL     1       3.977  46.839  53.351  1.00  0.00     0.027 A 
ATOM     18  C   UNL     1       6.120  45.365  52.325  1.00  0.00     0.016 A 
ATOM     19  C   UNL     1       5.290  47.205  53.661  1.00  0.00     0.016 A 
ATOM     20  C   UNL     1       6.373  46.469  53.155  1.00  0.00     0.037 A 
BRANCH  20  21
ATOM     21  C   UNL     1       7.762  46.852  53.479  1.00  0.00     0.225 A 
ATOM     22  N   UNL     1       8.117  47.519  54.598  1.00  0.00    -0.218 NA
ATOM     23  O   UNL     1       8.793  46.579  52.709  1.00  0.00    -0.445 OA
ATOM     24  C   UNL     1       9.452  47.648  54.476  1.00  0.00     0.154 A 
ATOM     25  C   UNL     1       9.856  47.060  53.300  1.00  0.00     0.218 A 
ENDBRANCH  20  21
ENDBRANCH   4  15
TORSDOF 4
ENDMDL
