ligand_39_conformer_5_docked
     RDKit          3D

 49 52  0  0  0  0  0  0  0  0999 V2000
    6.3530   43.2900   50.1250 C   0  0  0  0  0  0  0  0  0  0  0  0
    7.3000   44.3850   49.9200 N   0  0  0  0  0  0  0  0  0  0  0  0
    8.4340   44.1660   49.0220 C   0  0  0  0  0  0  0  0  0  0  0  0
    7.3490   45.4680   50.8650 C   0  0  0  0  0  0  0  0  0  0  0  0
    8.5590   46.1500   51.1120 C   0  0  0  0  0  0  0  0  0  0  0  0
    8.6050   47.2190   52.0280 C   0  0  0  0  0  0  0  0  0  0  0  0
    7.4500   47.6170   52.7130 C   0  0  0  0  0  0  0  0  0  0  0  0
    6.2650   46.9300   52.4630 C   0  0  0  0  0  0  0  0  0  0  0  0
    4.7600   47.1780   53.1610 S   0  0  0  0  0  0  0  0  0  0  0  0
    3.9940   45.9290   52.3150 C   0  0  0  0  0  0  0  0  0  0  0  0
    2.5770   45.5560   52.4770 C   0  0  0  0  0  0  0  0  0  0  0  0
    1.6930   46.4360   52.3050 O   0  0  0  0  0  0  0  0  0  0  0  0
    2.2110   44.2000   52.7990 N   0  0  0  0  0  0  0  0  0  0  0  0
    0.8980   43.7550   53.3200 C   0  0  1  0  0  0  0  0  0  0  0  0
    0.5610   44.5240   54.6160 C   0  0  0  0  0  0  0  0  0  0  0  0
    1.5330   44.8110   55.6040 C   0  0  0  0  0  0  0  0  0  0  0  0
    1.1770   45.4530   56.7940 C   0  0  0  0  0  0  0  0  0  0  0  0
   -0.1520   45.7890   57.0400 C   0  0  0  0  0  0  0  0  0  0  0  0
   -1.1360   45.4680   56.1060 C   0  0  0  0  0  0  0  0  0  0  0  0
   -0.7880   44.8260   54.9140 C   0  0  0  0  0  0  0  0  0  0  0  0
   -0.2400   43.9920   52.3240 C   0  0  0  0  0  0  0  0  0  0  0  0
   -1.1780   42.8180   52.5430 C   0  0  0  0  0  0  0  0  0  0  0  0
   -0.3930   41.6980   53.0670 N   0  0  0  0  0  0  0  0  0  0  0  0
    0.9050   42.2240   53.5010 C   0  0  0  0  0  0  0  0  0  0  0  0
    4.9220   45.2990   51.4830 C   0  0  0  0  0  0  0  0  0  0  0  0
    6.1980   45.8750   51.5640 C   0  0  0  0  0  0  0  0  0  0  0  0
    6.2106   43.1254   51.2033 H   0  0  0  0  0  0  0  0  0  0  0  0
    5.3886   43.5479   49.6630 H   0  0  0  0  0  0  0  0  0  0  0  0
    6.7473   42.3729   49.6630 H   0  0  0  0  0  0  0  0  0  0  0  0
    9.3432   43.9904   49.6157 H   0  0  0  0  0  0  0  0  0  0  0  0
    8.2354   43.2896   48.3876 H   0  0  0  0  0  0  0  0  0  0  0  0
    8.5760   45.0533   48.3876 H   0  0  0  0  0  0  0  0  0  0  0  0
    9.4746   45.8442   50.5846 H   0  0  0  0  0  0  0  0  0  0  0  0
    9.5545   47.7449   52.2066 H   0  0  0  0  0  0  0  0  0  0  0  0
    7.4783   48.4508   53.4300 H   0  0  0  0  0  0  0  0  0  0  0  0
    2.8850   43.4610   52.4950 H   0  0  0  0  0  0  0  0  0  0  0  0
    2.5815   44.5254   55.4335 H   0  0  0  0  0  0  0  0  0  0  0  0
    1.9498   45.6937   57.5389 H   0  0  0  0  0  0  0  0  0  0  0  0
   -0.4252   46.3075   57.9709 H   0  0  0  0  0  0  0  0  0  0  0  0
   -2.1876   45.7202   56.3073 H   0  0  0  0  0  0  0  0  0  0  0  0
   -1.5756   44.5515   54.1968 H   0  0  0  0  0  0  0  0  0  0  0  0
   -0.7504   44.9435   52.5341 H   0  0  0  0  0  0  0  0  0  0  0  0
    0.1163   44.0583   51.2854 H   0  0  0  0  0  0  0  0  0  0  0  0
   -1.9597   43.0954   53.2655 H   0  0  0  0  0  0  0  0  0  0  0  0
   -1.6601   42.5344   51.5958 H   0  0  0  0  0  0  0  0  0  0  0  0
   -0.8920   41.2870   53.8920 H   0  0  0  0  0  0  0  0  0  0  0  0
    1.0704   41.9764   54.5599 H   0  0  0  0  0  0  0  0  0  0  0  0
    1.7120   41.7774   52.9016 H   0  0  0  0  0  0  0  0  0  0  0  0
    4.6786   44.4442   50.8349 H   0  0  0  0  0  0  0  0  0  0  0  0
  1  2  1  0
  2  3  1  0
  2  4  1  0
  4  5  2  0
  5  6  1  0
  6  7  2  0
  7  8  1  0
  8  9  1  0
  9 10  1  0
 10 11  1  0
 11 12  2  0
 11 13  1  0
 14 13  1  6
 14 15  1  0
 15 16  2  0
 16 17  1  0
 17 18  2  0
 18 19  1  0
 19 20  2  0
 14 21  1  0
 21 22  1  0
 22 23  1  0
 23 24  1  0
 10 25  2  0
 25 26  1  0
 26  4  1  0
 26  8  2  0
 24 14  1  0
 20 15  1  0
  1 27  1  0
  1 28  1  0
  1 29  1  0
  3 30  1  0
  3 31  1  0
  3 32  1  0
  5 33  1  0
  6 34  1  0
  7 35  1  0
 13 36  1  0
 16 37  1  0
 17 38  1  0
 18 39  1  0
 19 40  1  0
 20 41  1  0
 21 42  1  0
 21 43  1  0
 22 44  1  0
 22 45  1  0
 23 46  1  0
 24 47  1  0
 24 48  1  0
 25 49  1  0
M  END
>  <meeko>  (1) 
{"is_sidechain": [false], "free_energy": -8.886, "intermolecular_energy": -10.964, "internal_energy": 0.852}

$$$$
ligand_39_conformer_5_docked
     RDKit          3D

 49 52  0  0  0  0  0  0  0  0999 V2000
   -2.3110   45.0990   51.5250 C   0  0  0  0  0  0  0  0  0  0  0  0
   -1.8270   44.0440   52.4150 N   0  0  0  0  0  0  0  0  0  0  0  0
   -1.8560   42.6620   51.9350 C   0  0  0  0  0  0  0  0  0  0  0  0
   -1.7220   44.2980   53.8260 C   0  0  0  0  0  0  0  0  0  0  0  0
   -2.8620   44.2320   54.6530 C   0  0  0  0  0  0  0  0  0  0  0  0
   -2.7590   44.4670   56.0380 C   0  0  0  0  0  0  0  0  0  0  0  0
   -1.5200   44.7780   56.6140 C   0  0  0  0  0  0  0  0  0  0  0  0
   -0.4050   44.8470   55.7830 C   0  0  0  0  0  0  0  0  0  0  0  0
    1.1740   45.2250   56.2030 S   0  0  0  0  0  0  0  0  0  0  0  0
    1.7830   45.0990   54.6300 C   0  0  0  0  0  0  0  0  0  0  0  0
    3.1870   45.3430   54.2550 C   0  0  0  0  0  0  0  0  0  0  0  0
    3.8240   46.2580   54.8420 O   0  0  0  0  0  0  0  0  0  0  0  0
    3.8280   44.5290   53.2520 N   0  0  0  0  0  0  0  0  0  0  0  0
    5.0820   44.8600   52.5370 C   0  0  1  0  0  0  0  0  0  0  0  0
    5.3770   43.7830   51.4710 C   0  0  0  0  0  0  0  0  0  0  0  0
    6.2940   43.9920   50.4130 C   0  0  0  0  0  0  0  0  0  0  0  0
    6.4870   43.0170   49.4290 C   0  0  0  0  0  0  0  0  0  0  0  0
    5.7500   41.8350   49.4580 C   0  0  0  0  0  0  0  0  0  0  0  0
    4.8020   41.6300   50.4590 C   0  0  0  0  0  0  0  0  0  0  0  0
    4.6030   42.6000   51.4460 C   0  0  0  0  0  0  0  0  0  0  0  0
    5.0140   46.2160   51.8290 C   0  0  0  0  0  0  0  0  0  0  0  0
    6.4240   46.7680   51.9450 C   0  0  0  0  0  0  0  0  0  0  0  0
    7.0480   46.1810   53.1320 N   0  0  0  0  0  0  0  0  0  0  0  0
    6.2250   45.0440   53.5560 C   0  0  0  0  0  0  0  0  0  0  0  0
    0.7430   44.7670   53.7590 C   0  0  0  0  0  0  0  0  0  0  0  0
   -0.4860   44.6170   54.4170 C   0  0  0  0  0  0  0  0  0  0  0  0
   -2.6955   45.9370   52.1249 H   0  0  0  0  0  0  0  0  0  0  0  0
   -1.4844   45.4512   50.8904 H   0  0  0  0  0  0  0  0  0  0  0  0
   -3.1171   44.7022   50.8904 H   0  0  0  0  0  0  0  0  0  0  0  0
   -1.8704   41.9756   52.7944 H   0  0  0  0  0  0  0  0  0  0  0  0
   -2.7576   42.5046   51.3249 H   0  0  0  0  0  0  0  0  0  0  0  0
   -0.9618   42.4669   51.3249 H   0  0  0  0  0  0  0  0  0  0  0  0
   -3.8415   43.9946   54.2123 H   0  0  0  0  0  0  0  0  0  0  0  0
   -3.6564   44.4060   56.6712 H   0  0  0  0  0  0  0  0  0  0  0  0
   -1.4306   44.9628   57.6947 H   0  0  0  0  0  0  0  0  0  0  0  0
    3.4470   43.5630   53.1370 H   0  0  0  0  0  0  0  0  0  0  0  0
    6.8618   44.9329   50.3642 H   0  0  0  0  0  0  0  0  0  0  0  0
    7.2235   43.1840   48.6292 H   0  0  0  0  0  0  0  0  0  0  0  0
    5.9162   41.0639   48.6913 H   0  0  0  0  0  0  0  0  0  0  0  0
    4.2094   40.7034   50.4725 H   0  0  0  0  0  0  0  0  0  0  0  0
    3.8326   42.4404   52.2148 H   0  0  0  0  0  0  0  0  0  0  0  0
    4.7295   46.0913   50.7738 H   0  0  0  0  0  0  0  0  0  0  0  0
    4.2618   46.8853   52.2719 H   0  0  0  0  0  0  0  0  0  0  0  0
    7.0035   46.5010   51.0489 H   0  0  0  0  0  0  0  0  0  0  0  0
    6.3972   47.8642   52.0322 H   0  0  0  0  0  0  0  0  0  0  0  0
    8.0060   45.8380   52.8800 H   0  0  0  0  0  0  0  0  0  0  0  0
    6.8407   44.1331   53.5914 H   0  0  0  0  0  0  0  0  0  0  0  0
    5.8104   45.2316   54.5575 H   0  0  0  0  0  0  0  0  0  0  0  0
    0.8738   44.6373   52.6745 H   0  0  0  0  0  0  0  0  0  0  0  0
  1  2  1  0
  2  3  1  0
  2  4  1  0
  4  5  2  0
  5  6  1  0
  6  7  2  0
  7  8  1  0
  8  9  1  0
  9 10  1  0
 10 11  1  0
 11 12  2  0
 11 13  1  0
 14 13  1  1
 14 15  1  0
 15 16  2  0
 16 17  1  0
 17 18  2  0
 18 19  1  0
 19 20  2  0
 14 21  1  0
 21 22  1  0
 22 23  1  0
 23 24  1  0
 10 25  2  0
 25 26  1  0
 26  4  1  0
 26  8  2  0
 24 14  1  0
 20 15  1  0
  1 27  1  0
  1 28  1  0
  1 29  1  0
  3 30  1  0
  3 31  1  0
  3 32  1  0
  5 33  1  0
  6 34  1  0
  7 35  1  0
 13 36  1  0
 16 37  1  0
 17 38  1  0
 18 39  1  0
 19 40  1  0
 20 41  1  0
 21 42  1  0
 21 43  1  0
 22 44  1  0
 22 45  1  0
 23 46  1  0
 24 47  1  0
 24 48  1  0
 25 49  1  0
M  END
>  <meeko>  (2) 
{"is_sidechain": [false], "free_energy": -8.792, "intermolecular_energy": -9.875, "internal_energy": -0.121}

$$$$
ligand_39_conformer_5_docked
     RDKit          3D

 49 52  0  0  0  0  0  0  0  0999 V2000
    7.6490   47.7590   52.0020 C   0  0  0  0  0  0  0  0  0  0  0  0
    7.0140   46.4630   52.2410 N   0  0  0  0  0  0  0  0  0  0  0  0
    6.6310   46.1190   53.6100 C   0  0  0  0  0  0  0  0  0  0  0  0
    7.1420   45.4190   51.2600 C   0  0  0  0  0  0  0  0  0  0  0  0
    8.3010   45.3230   50.4620 C   0  0  0  0  0  0  0  0  0  0  0  0
    8.4340   44.2940   49.5110 C   0  0  0  0  0  0  0  0  0  0  0  0
    7.4110   43.3510   49.3380 C   0  0  0  0  0  0  0  0  0  0  0  0
    6.2710   43.4630   50.1290 C   0  0  0  0  0  0  0  0  0  0  0  0
    4.8990   42.4980   50.1060 S   0  0  0  0  0  0  0  0  0  0  0  0
    4.0880   43.3600   51.3140 C   0  0  0  0  0  0  0  0  0  0  0  0
    2.7330   43.0450   51.8000 C   0  0  0  0  0  0  0  0  0  0  0  0
    1.9910   42.3060   51.1000 O   0  0  0  0  0  0  0  0  0  0  0  0
    2.2750   43.5520   53.0700 N   0  0  0  0  0  0  0  0  0  0  0  0
    0.8660   43.6130   53.5230 C   0  0  1  0  0  0  0  0  0  0  0  0
    0.7820   44.3600   54.8720 C   0  0  0  0  0  0  0  0  0  0  0  0
   -0.4410   44.5540   55.5590 C   0  0  0  0  0  0  0  0  0  0  0  0
   -0.4870   45.2910   56.7450 C   0  0  0  0  0  0  0  0  0  0  0  0
    0.6700   45.8790   57.2530 C   0  0  0  0  0  0  0  0  0  0  0  0
    1.8750   45.7490   56.5650 C   0  0  0  0  0  0  0  0  0  0  0  0
    1.9300   45.0130   55.3780 C   0  0  0  0  0  0  0  0  0  0  0  0
   -0.0410   44.3400   52.5270 C   0  0  0  0  0  0  0  0  0  0  0  0
   -1.3660   43.6060   52.6260 C   0  0  0  0  0  0  0  0  0  0  0  0
   -1.0990   42.2360   53.0680 N   0  0  0  0  0  0  0  0  0  0  0  0
    0.2770   42.1890   53.5730 C   0  0  0  0  0  0  0  0  0  0  0  0
    4.8880   44.4240   51.7380 C   0  0  0  0  0  0  0  0  0  0  0  0
    6.1210   44.4700   51.0730 C   0  0  0  0  0  0  0  0  0  0  0  0
    7.8827   48.2360   52.9652 H   0  0  0  0  0  0  0  0  0  0  0  0
    8.5774   47.6126   51.4305 H   0  0  0  0  0  0  0  0  0  0  0  0
    6.9644   48.4029   51.4305 H   0  0  0  0  0  0  0  0  0  0  0  0
    7.2572   46.6814   54.3182 H   0  0  0  0  0  0  0  0  0  0  0  0
    5.5737   46.3766   53.7707 H   0  0  0  0  0  0  0  0  0  0  0  0
    6.7740   45.0402   53.7707 H   0  0  0  0  0  0  0  0  0  0  0  0
    9.1088   46.0595   50.5841 H   0  0  0  0  0  0  0  0  0  0  0  0
    9.3462   44.2292   48.8997 H   0  0  0  0  0  0  0  0  0  0  0  0
    7.5067   42.5439   48.5968 H   0  0  0  0  0  0  0  0  0  0  0  0
    3.0180   43.7530   53.7760 H   0  0  0  0  0  0  0  0  0  0  0  0
   -1.3665   44.1189   55.1537 H   0  0  0  0  0  0  0  0  0  0  0  0
   -1.4408   45.4077   57.2803 H   0  0  0  0  0  0  0  0  0  0  0  0
    0.6321   46.4448   58.1955 H   0  0  0  0  0  0  0  0  0  0  0  0
    2.7850   46.2267   56.9570 H   0  0  0  0  0  0  0  0  0  0  0  0
    2.8805   44.9406   54.8291 H   0  0  0  0  0  0  0  0  0  0  0  0
   -0.1589   45.3974   52.8065 H   0  0  0  0  0  0  0  0  0  0  0  0
    0.3671   44.3371   51.5055 H   0  0  0  0  0  0  0  0  0  0  0  0
   -2.0181   44.1114   53.3536 H   0  0  0  0  0  0  0  0  0  0  0  0
   -1.8696   43.5980   51.6481 H   0  0  0  0  0  0  0  0  0  0  0  0
   -1.7600   41.9930   53.8440 H   0  0  0  0  0  0  0  0  0  0  0  0
    0.2791   41.8229   54.6103 H   0  0  0  0  0  0  0  0  0  0  0  0
    0.8820   41.5092   52.9550 H   0  0  0  0  0  0  0  0  0  0  0  0
    4.5835   45.1467   52.5094 H   0  0  0  0  0  0  0  0  0  0  0  0
  1  2  1  0
  2  3  1  0
  2  4  1  0
  4  5  2  0
  5  6  1  0
  6  7  2  0
  7  8  1  0
  8  9  1  0
  9 10  1  0
 10 11  1  0
 11 12  2  0
 11 13  1  0
 14 13  1  6
 14 15  1  0
 15 16  2  0
 16 17  1  0
 17 18  2  0
 18 19  1  0
 19 20  2  0
 14 21  1  0
 21 22  1  0
 22 23  1  0
 23 24  1  0
 10 25  2  0
 25 26  1  0
 26  4  1  0
 26  8  2  0
 24 14  1  0
 20 15  1  0
  1 27  1  0
  1 28  1  0
  1 29  1  0
  3 30  1  0
  3 31  1  0
  3 32  1  0
  5 33  1  0
  6 34  1  0
  7 35  1  0
 13 36  1  0
 16 37  1  0
 17 38  1  0
 18 39  1  0
 19 40  1  0
 20 41  1  0
 21 42  1  0
 21 43  1  0
 22 44  1  0
 22 45  1  0
 23 46  1  0
 24 47  1  0
 24 48  1  0
 25 49  1  0
M  END
>  <meeko>  (3) 
{"is_sidechain": [false], "free_energy": -8.575, "intermolecular_energy": -10.059, "internal_energy": 0.331}

$$$$
ligand_39_conformer_5_docked
     RDKit          3D

 49 52  0  0  0  0  0  0  0  0999 V2000
    0.8580   42.7290   52.1410 C   0  0  0  0  0  0  0  0  0  0  0  0
    0.0970   43.9030   52.5640 N   0  0  0  0  0  0  0  0  0  0  0  0
   -0.3460   44.8510   51.5420 C   0  0  0  0  0  0  0  0  0  0  0  0
    0.1440   44.3200   53.9400 C   0  0  0  0  0  0  0  0  0  0  0  0
   -0.9600   44.1040   54.7920 C   0  0  0  0  0  0  0  0  0  0  0  0
   -0.9110   44.5000   56.1420 C   0  0  0  0  0  0  0  0  0  0  0  0
    0.2340   45.1210   56.6590 C   0  0  0  0  0  0  0  0  0  0  0  0
    1.3110   45.3330   55.8030 C   0  0  0  0  0  0  0  0  0  0  0  0
    2.7750   46.0740   56.1510 S   0  0  0  0  0  0  0  0  0  0  0  0
    3.4010   45.9140   54.5880 C   0  0  0  0  0  0  0  0  0  0  0  0
    4.7230   46.4050   54.1620 C   0  0  0  0  0  0  0  0  0  0  0  0
    5.0800   47.5640   54.5000 O   0  0  0  0  0  0  0  0  0  0  0  0
    5.6040   45.5610   53.3940 N   0  0  0  0  0  0  0  0  0  0  0  0
    6.7820   46.0130   52.6170 C   0  0  1  0  0  0  0  0  0  0  0  0
    7.0000   45.0800   51.4060 C   0  0  0  0  0  0  0  0  0  0  0  0
    8.1320   45.1820   50.5630 C   0  0  0  0  0  0  0  0  0  0  0  0
    8.2640   44.3630   49.4370 C   0  0  0  0  0  0  0  0  0  0  0  0
    7.2590   43.4550   49.1090 C   0  0  0  0  0  0  0  0  0  0  0  0
    6.1090   43.3750   49.8930 C   0  0  0  0  0  0  0  0  0  0  0  0
    5.9710   44.1910   51.0200 C   0  0  0  0  0  0  0  0  0  0  0  0
    6.6230   47.4400   52.0880 C   0  0  0  0  0  0  0  0  0  0  0  0
    8.0270   48.0170   52.1470 C   0  0  0  0  0  0  0  0  0  0  0  0
    8.7680   47.3110   53.1950 N   0  0  0  0  0  0  0  0  0  0  0  0
    8.0090   46.1070   53.5470 C   0  0  0  0  0  0  0  0  0  0  0  0
    2.4560   45.2830   53.7760 C   0  0  0  0  0  0  0  0  0  0  0  0
    1.2840   44.9500   54.4700 C   0  0  0  0  0  0  0  0  0  0  0  0
    1.2122   42.1826   53.0276 H   0  0  0  0  0  0  0  0  0  0  0  0
    0.2136   42.0719   51.5385 H   0  0  0  0  0  0  0  0  0  0  0  0
    1.7209   43.0489   51.5385 H   0  0  0  0  0  0  0  0  0  0  0  0
   -0.7638   45.7451   52.0277 H   0  0  0  0  0  0  0  0  0  0  0  0
    0.5100   45.1406   50.9148 H   0  0  0  0  0  0  0  0  0  0  0  0
   -1.1174   44.3802   50.9148 H   0  0  0  0  0  0  0  0  0  0  0  0
   -1.8668   43.6220   54.3978 H   0  0  0  0  0  0  0  0  0  0  0  0
   -1.7774   44.3208   56.7956 H   0  0  0  0  0  0  0  0  0  0  0  0
    0.2804   45.4325   57.7129 H   0  0  0  0  0  0  0  0  0  0  0  0
    5.4780   44.5310   53.5240 H   0  0  0  0  0  0  0  0  0  0  0  0
    8.9183   45.9150   50.7963 H   0  0  0  0  0  0  0  0  0  0  0  0
    9.1638   44.4358   48.8084 H   0  0  0  0  0  0  0  0  0  0  0  0
    7.3731   42.8015   48.2316 H   0  0  0  0  0  0  0  0  0  0  0  0
    5.3092   42.6691   49.6247 H   0  0  0  0  0  0  0  0  0  0  0  0
    5.0475   44.1404   51.6154 H   0  0  0  0  0  0  0  0  0  0  0  0
    6.2469   47.4334   51.0543 H   0  0  0  0  0  0  0  0  0  0  0  0
    5.9004   48.0283   52.6726 H   0  0  0  0  0  0  0  0  0  0  0  0
    8.5282   47.8771   51.1778 H   0  0  0  0  0  0  0  0  0  0  0  0
    7.9865   49.0935   52.3696 H   0  0  0  0  0  0  0  0  0  0  0  0
    9.7050   47.0310   52.8190 H   0  0  0  0  0  0  0  0  0  0  0  0
    8.6427   45.2174   53.4164 H   0  0  0  0  0  0  0  0  0  0  0  0
    7.6835   46.1599   54.5964 H   0  0  0  0  0  0  0  0  0  0  0  0
    2.6139   45.0704   52.7084 H   0  0  0  0  0  0  0  0  0  0  0  0
  1  2  1  0
  2  3  1  0
  2  4  1  0
  4  5  2  0
  5  6  1  0
  6  7  2  0
  7  8  1  0
  8  9  1  0
  9 10  1  0
 10 11  1  0
 11 12  2  0
 11 13  1  0
 14 13  1  1
 14 15  1  0
 15 16  2  0
 16 17  1  0
 17 18  2  0
 18 19  1  0
 19 20  2  0
 14 21  1  0
 21 22  1  0
 22 23  1  0
 23 24  1  0
 10 25  2  0
 25 26  1  0
 26  4  1  0
 26  8  2  0
 24 14  1  0
 20 15  1  0
  1 27  1  0
  1 28  1  0
  1 29  1  0
  3 30  1  0
  3 31  1  0
  3 32  1  0
  5 33  1  0
  6 34  1  0
  7 35  1  0
 13 36  1  0
 16 37  1  0
 17 38  1  0
 18 39  1  0
 19 40  1  0
 20 41  1  0
 21 42  1  0
 21 43  1  0
 22 44  1  0
 22 45  1  0
 23 46  1  0
 24 47  1  0
 24 48  1  0
 25 49  1  0
M  END
>  <meeko>  (4) 
{"is_sidechain": [false], "free_energy": -8.469, "intermolecular_energy": -9.636, "internal_energy": 0.039}

$$$$
ligand_39_conformer_5_docked
     RDKit          3D

 49 52  0  0  0  0  0  0  0  0999 V2000
   -2.1740   43.7920   56.4590 C   0  0  0  0  0  0  0  0  0  0  0  0
   -2.3300   44.7940   55.4050 N   0  0  0  0  0  0  0  0  0  0  0  0
   -3.0450   46.0300   55.7220 C   0  0  0  0  0  0  0  0  0  0  0  0
   -2.1610   44.4100   54.0300 C   0  0  0  0  0  0  0  0  0  0  0  0
   -3.2550   43.9270   53.2810 C   0  0  0  0  0  0  0  0  0  0  0  0
   -3.0950   43.5630   51.9300 C   0  0  0  0  0  0  0  0  0  0  0  0
   -1.8430   43.6690   51.3110 C   0  0  0  0  0  0  0  0  0  0  0  0
   -0.7720   44.1410   52.0650 C   0  0  0  0  0  0  0  0  0  0  0  0
    0.8230   44.3360   51.5840 S   0  0  0  0  0  0  0  0  0  0  0  0
    1.3660   44.8950   53.0850 C   0  0  0  0  0  0  0  0  0  0  0  0
    2.7630   45.2540   53.3890 C   0  0  0  0  0  0  0  0  0  0  0  0
    3.0010   45.9820   54.3890 O   0  0  0  0  0  0  0  0  0  0  0  0
    3.8400   44.7550   52.5710 N   0  0  0  0  0  0  0  0  0  0  0  0
    5.2220   45.2880   52.5360 C   0  0  1  0  0  0  0  0  0  0  0  0
    6.0120   44.6170   51.3910 C   0  0  0  0  0  0  0  0  0  0  0  0
    7.1160   45.2420   50.7620 C   0  0  0  0  0  0  0  0  0  0  0  0
    7.7670   44.6320   49.6860 C   0  0  0  0  0  0  0  0  0  0  0  0
    7.3130   43.4100   49.1920 C   0  0  0  0  0  0  0  0  0  0  0  0
    6.1940   42.8030   49.7590 C   0  0  0  0  0  0  0  0  0  0  0  0
    5.5380   43.4070   50.8360 C   0  0  0  0  0  0  0  0  0  0  0  0
    5.2620   46.8010   52.3110 C   0  0  0  0  0  0  0  0  0  0  0  0
    6.4550   47.2670   53.1270 C   0  0  0  0  0  0  0  0  0  0  0  0
    6.6620   46.3150   54.2200 N   0  0  0  0  0  0  0  0  0  0  0  0
    5.8790   45.1120   53.9200 C   0  0  0  0  0  0  0  0  0  0  0  0
    0.2950   44.9230   53.9820 C   0  0  0  0  0  0  0  0  0  0  0  0
   -0.9090   44.5060   53.3970 C   0  0  0  0  0  0  0  0  0  0  0  0
   -2.2499   44.2793   57.4423 H   0  0  0  0  0  0  0  0  0  0  0  0
   -2.9649   43.0334   56.3637 H   0  0  0  0  0  0  0  0  0  0  0  0
   -1.1900   43.3097   56.3637 H   0  0  0  0  0  0  0  0  0  0  0  0
   -3.1117   46.1453   56.8139 H   0  0  0  0  0  0  0  0  0  0  0  0
   -2.5031   46.8869   55.2952 H   0  0  0  0  0  0  0  0  0  0  0  0
   -4.0579   45.9874   55.2952 H   0  0  0  0  0  0  0  0  0  0  0  0
   -4.2423   43.8339   53.7570 H   0  0  0  0  0  0  0  0  0  0  0  0
   -3.9584   43.1932   51.3575 H   0  0  0  0  0  0  0  0  0  0  0  0
   -1.7094   43.3866   50.2563 H   0  0  0  0  0  0  0  0  0  0  0  0
    3.6570   43.8530   52.0770 H   0  0  0  0  0  0  0  0  0  0  0  0
    7.4657   46.2198   51.1247 H   0  0  0  0  0  0  0  0  0  0  0  0
    8.6408   45.1179   49.2273 H   0  0  0  0  0  0  0  0  0  0  0  0
    7.8376   42.9253   48.3554 H   0  0  0  0  0  0  0  0  0  0  0  0
    5.8261   41.8468   49.3585 H   0  0  0  0  0  0  0  0  0  0  0  0
    4.6393   42.9331   51.2576 H   0  0  0  0  0  0  0  0  0  0  0  0
    5.4035   47.0334   51.2452 H   0  0  0  0  0  0  0  0  0  0  0  0
    4.3268   47.2966   52.6107 H   0  0  0  0  0  0  0  0  0  0  0  0
    7.3509   47.3027   52.4897 H   0  0  0  0  0  0  0  0  0  0  0  0
    6.2697   48.2736   53.5300 H   0  0  0  0  0  0  0  0  0  0  0  0
    7.6780   46.0620   54.2650 H   0  0  0  0  0  0  0  0  0  0  0  0
    6.5398   44.2327   53.9079 H   0  0  0  0  0  0  0  0  0  0  0  0
    5.1056   44.9645   54.6882 H   0  0  0  0  0  0  0  0  0  0  0  0
    0.3865   45.2377   55.0320 H   0  0  0  0  0  0  0  0  0  0  0  0
  1  2  1  0
  2  3  1  0
  2  4  1  0
  4  5  2  0
  5  6  1  0
  6  7  2  0
  7  8  1  0
  8  9  1  0
  9 10  1  0
 10 11  1  0
 11 12  2  0
 11 13  1  0
 14 13  1  1
 14 15  1  0
 15 16  2  0
 16 17  1  0
 17 18  2  0
 18 19  1  0
 19 20  2  0
 14 21  1  0
 21 22  1  0
 22 23  1  0
 23 24  1  0
 10 25  2  0
 25 26  1  0
 26  4  1  0
 26  8  2  0
 24 14  1  0
 20 15  1  0
  1 27  1  0
  1 28  1  0
  1 29  1  0
  3 30  1  0
  3 31  1  0
  3 32  1  0
  5 33  1  0
  6 34  1  0
  7 35  1  0
 13 36  1  0
 16 37  1  0
 17 38  1  0
 18 39  1  0
 19 40  1  0
 20 41  1  0
 21 42  1  0
 21 43  1  0
 22 44  1  0
 22 45  1  0
 23 46  1  0
 24 47  1  0
 24 48  1  0
 25 49  1  0
M  END
>  <meeko>  (5) 
{"is_sidechain": [false], "free_energy": -8.457, "intermolecular_energy": -9.538, "internal_energy": -0.045}

$$$$
