ligand_68_conformer_2_docked
     RDKit          3D

 49 51  0  0  0  0  0  0  0  0999 V2000
   11.1710   47.8500   56.0630 C   0  0  0  0  0  0  0  0  0  0  0  0
    9.9590   47.6210   55.2210 C   0  0  0  0  0  0  0  0  0  0  0  0
    8.9460   48.3510   55.3860 O   0  0  0  0  0  0  0  0  0  0  0  0
    9.9240   46.5140   54.3060 N   0  0  0  0  0  0  0  0  0  0  0  0
    8.8840   46.3020   53.3370 C   0  0  0  0  0  0  0  0  0  0  0  0
    9.1530   46.3090   51.9560 C   0  0  0  0  0  0  0  0  0  0  0  0
    8.1270   46.0800   51.0350 C   0  0  0  0  0  0  0  0  0  0  0  0
    6.8200   45.8240   51.4770 C   0  0  0  0  0  0  0  0  0  0  0  0
    5.7180   45.6030   50.4770 C   0  0  0  0  0  0  0  0  0  0  0  0
    4.4320   45.4900   51.1610 N   0  0  0  0  0  0  0  0  0  0  0  0
    3.8770   44.2250   51.5500 C   0  0  0  0  0  0  0  0  0  0  0  0
    4.4480   43.1530   51.2100 O   0  0  0  0  0  0  0  0  0  0  0  0
    2.5750   44.1760   52.3110 C   0  0  0  0  0  0  0  0  0  0  0  0
    1.4810   44.9880   51.5970 C   0  0  0  0  0  0  0  0  0  0  0  0
    0.1440   44.8230   52.3350 C   0  0  0  0  0  0  0  0  0  0  0  0
    0.3070   44.9120   53.7990 N   0  0  0  0  0  0  0  0  0  0  0  0
   -0.7780   44.5480   54.6860 C   0  0  0  0  0  0  0  0  0  0  0  0
   -1.9480   43.9240   54.2100 C   0  0  0  0  0  0  0  0  0  0  0  0
   -2.9400   43.5990   55.0810 N   0  0  0  0  0  0  0  0  0  0  0  0
   -2.8280   43.8590   56.4080 C   0  0  0  0  0  0  0  0  0  0  0  0
   -1.6740   44.4730   56.8900 C   0  0  0  0  0  0  0  0  0  0  0  0
   -0.6820   44.8010   56.0230 N   0  0  0  0  0  0  0  0  0  0  0  0
    1.5780   45.4230   54.3410 C   0  0  0  0  0  0  0  0  0  0  0  0
    2.7780   44.6420   53.7750 C   0  0  0  0  0  0  0  0  0  0  0  0
    6.5530   45.8010   52.8540 C   0  0  0  0  0  0  0  0  0  0  0  0
    7.5800   46.0280   53.7750 C   0  0  0  0  0  0  0  0  0  0  0  0
   10.8940   47.7977   57.1263 H   0  0  0  0  0  0  0  0  0  0  0  0
   11.9226   47.0780   55.8415 H   0  0  0  0  0  0  0  0  0  0  0  0
   11.5891   48.8430   55.8415 H   0  0  0  0  0  0  0  0  0  0  0  0
   10.6520   45.7710   54.4160 H   0  0  0  0  0  0  0  0  0  0  0  0
   10.1766   46.4958   51.5992 H   0  0  0  0  0  0  0  0  0  0  0  0
    8.3454   46.1006   49.9571 H   0  0  0  0  0  0  0  0  0  0  0  0
    5.6850   46.4524   49.7789 H   0  0  0  0  0  0  0  0  0  0  0  0
    5.9147   44.6716   49.9257 H   0  0  0  0  0  0  0  0  0  0  0  0
    3.9020   46.3670   51.3690 H   0  0  0  0  0  0  0  0  0  0  0  0
    2.2321   43.1312   52.3399 H   0  0  0  0  0  0  0  0  0  0  0  0
    1.7635   46.0511   51.5868 H   0  0  0  0  0  0  0  0  0  0  0  0
    1.3733   44.6227   50.5650 H   0  0  0  0  0  0  0  0  0  0  0  0
   -0.5440   45.6154   52.0053 H   0  0  0  0  0  0  0  0  0  0  0  0
   -0.2550   43.8259   52.0972 H   0  0  0  0  0  0  0  0  0  0  0  0
   -2.0584   43.7008   53.1386 H   0  0  0  0  0  0  0  0  0  0  0  0
   -3.6412   43.5874   57.0972 H   0  0  0  0  0  0  0  0  0  0  0  0
   -1.5676   44.6900   57.9631 H   0  0  0  0  0  0  0  0  0  0  0  0
    1.6818   46.4846   54.0723 H   0  0  0  0  0  0  0  0  0  0  0  0
    1.5657   45.2992   55.4339 H   0  0  0  0  0  0  0  0  0  0  0  0
    3.6657   45.2904   53.8144 H   0  0  0  0  0  0  0  0  0  0  0  0
    2.8955   43.7375   54.3899 H   0  0  0  0  0  0  0  0  0  0  0  0
    5.5313   45.6035   53.2106 H   0  0  0  0  0  0  0  0  0  0  0  0
    7.3635   45.9914   54.8529 H   0  0  0  0  0  0  0  0  0  0  0  0
  1  2  1  0
  2  3  2  0
  2  4  1  0
  4  5  1  0
  5  6  2  0
  6  7  1  0
  7  8  2  0
  8  9  1  0
  9 10  1  0
 10 11  1  0
 11 12  2  0
 11 13  1  0
 13 14  1  0
 14 15  1  0
 15 16  1  0
 16 17  1  0
 17 18  2  0
 18 19  1  0
 19 20  2  0
 20 21  1  0
 21 22  2  0
 16 23  1  0
 23 24  1  0
  8 25  1  0
 25 26  2  0
 26  5  1  0
 24 13  1  0
 22 17  1  0
  1 27  1  0
  1 28  1  0
  1 29  1  0
  4 30  1  0
  6 31  1  0
  7 32  1  0
  9 33  1  0
  9 34  1  0
 10 35  1  0
 13 36  1  0
 14 37  1  0
 14 38  1  0
 15 39  1  0
 15 40  1  0
 18 41  1  0
 20 42  1  0
 21 43  1  0
 23 44  1  0
 23 45  1  0
 24 46  1  0
 24 47  1  0
 25 48  1  0
 26 49  1  0
M  END
>  <meeko>  (1) 
{"is_sidechain": [false], "free_energy": -8.322, "intermolecular_energy": -10.755, "internal_energy": -0.49}

$$$$
ligand_68_conformer_2_docked
     RDKit          3D

 49 51  0  0  0  0  0  0  0  0999 V2000
    5.4250   39.6780   41.4850 C   0  0  0  0  0  0  0  0  0  0  0  0
    5.0990   39.4690   42.9270 C   0  0  0  0  0  0  0  0  0  0  0  0
    5.4220   38.3850   43.4820 O   0  0  0  0  0  0  0  0  0  0  0  0
    4.3370   40.4580   43.6380 N   0  0  0  0  0  0  0  0  0  0  0  0
    4.1140   40.4370   45.0580 C   0  0  0  0  0  0  0  0  0  0  0  0
    3.1410   39.6020   45.6370 C   0  0  0  0  0  0  0  0  0  0  0  0
    2.9580   39.5860   47.0220 C   0  0  0  0  0  0  0  0  0  0  0  0
    3.7520   40.3910   47.8520 C   0  0  0  0  0  0  0  0  0  0  0  0
    3.5300   40.3850   49.3410 C   0  0  0  0  0  0  0  0  0  0  0  0
    4.3710   41.3950   49.9800 N   0  0  0  0  0  0  0  0  0  0  0  0
    3.8520   42.3430   50.9230 C   0  0  0  0  0  0  0  0  0  0  0  0
    2.6120   42.3970   51.1480 O   0  0  0  0  0  0  0  0  0  0  0  0
    4.7820   43.3220   51.5970 C   0  0  0  0  0  0  0  0  0  0  0  0
    3.9970   44.4010   52.3620 C   0  0  0  0  0  0  0  0  0  0  0  0
    4.9700   45.3100   53.1270 C   0  0  0  0  0  0  0  0  0  0  0  0
    6.1420   45.6760   52.3100 N   0  0  0  0  0  0  0  0  0  0  0  0
    7.2900   46.3230   52.9120 C   0  0  0  0  0  0  0  0  0  0  0  0
    7.2560   46.8130   54.2320 C   0  0  0  0  0  0  0  0  0  0  0  0
    8.3580   47.4120   54.7560 N   0  0  0  0  0  0  0  0  0  0  0  0
    9.5000   47.5470   54.0340 C   0  0  0  0  0  0  0  0  0  0  0  0
    9.5440   47.0630   52.7270 C   0  0  0  0  0  0  0  0  0  0  0  0
    8.4440   46.4660   52.2010 N   0  0  0  0  0  0  0  0  0  0  0  0
    6.1050   45.4140   50.8610 C   0  0  0  0  0  0  0  0  0  0  0  0
    5.7640   43.9410   50.5700 C   0  0  0  0  0  0  0  0  0  0  0  0
    4.7330   41.2130   47.2780 C   0  0  0  0  0  0  0  0  0  0  0  0
    4.9180   41.2270   45.8930 C   0  0  0  0  0  0  0  0  0  0  0  0
    6.3483   40.2699   41.3999 H   0  0  0  0  0  0  0  0  0  0  0  0
    5.5682   38.7029   40.9964 H   0  0  0  0  0  0  0  0  0  0  0  0
    4.5987   40.2151   40.9964 H   0  0  0  0  0  0  0  0  0  0  0  0
    3.8410   41.1850   43.0740 H   0  0  0  0  0  0  0  0  0  0  0  0
    2.5210   38.9582   44.9958 H   0  0  0  0  0  0  0  0  0  0  0  0
    2.1867   38.9383   47.4641 H   0  0  0  0  0  0  0  0  0  0  0  0
    2.4732   40.6057   49.5518 H   0  0  0  0  0  0  0  0  0  0  0  0
    3.7931   39.3940   49.7395 H   0  0  0  0  0  0  0  0  0  0  0  0
    5.3870   41.4220   49.7320 H   0  0  0  0  0  0  0  0  0  0  0  0
    5.3802   42.7733   52.3394 H   0  0  0  0  0  0  0  0  0  0  0  0
    3.4174   45.0053   51.6486 H   0  0  0  0  0  0  0  0  0  0  0  0
    3.3161   43.9157   53.0768 H   0  0  0  0  0  0  0  0  0  0  0  0
    4.4412   46.2286   53.4211 H   0  0  0  0  0  0  0  0  0  0  0  0
    5.3290   44.7582   54.0083 H   0  0  0  0  0  0  0  0  0  0  0  0
    6.3422   46.7115   54.8359 H   0  0  0  0  0  0  0  0  0  0  0  0
   10.3820   48.0335   54.4759 H   0  0  0  0  0  0  0  0  0  0  0  0
   10.4611   47.1639   52.1280 H   0  0  0  0  0  0  0  0  0  0  0  0
    5.3411   46.0571   50.3995 H   0  0  0  0  0  0  0  0  0  0  0  0
    7.0989   45.6307   50.4424 H   0  0  0  0  0  0  0  0  0  0  0  0
    5.3081   43.8795   49.5708 H   0  0  0  0  0  0  0  0  0  0  0  0
    6.7029   43.3715   50.6345 H   0  0  0  0  0  0  0  0  0  0  0  0
    5.3592   41.8492   47.9207 H   0  0  0  0  0  0  0  0  0  0  0  0
    5.7008   41.8629   45.4538 H   0  0  0  0  0  0  0  0  0  0  0  0
  1  2  1  0
  2  3  2  0
  2  4  1  0
  4  5  1  0
  5  6  2  0
  6  7  1  0
  7  8  2  0
  8  9  1  0
  9 10  1  0
 10 11  1  0
 11 12  2  0
 11 13  1  0
 13 14  1  0
 14 15  1  0
 15 16  1  0
 16 17  1  0
 17 18  2  0
 18 19  1  0
 19 20  2  0
 20 21  1  0
 21 22  2  0
 16 23  1  0
 23 24  1  0
  8 25  1  0
 25 26  2  0
 26  5  1  0
 24 13  1  0
 22 17  1  0
  1 27  1  0
  1 28  1  0
  1 29  1  0
  4 30  1  0
  6 31  1  0
  7 32  1  0
  9 33  1  0
  9 34  1  0
 10 35  1  0
 13 36  1  0
 14 37  1  0
 14 38  1  0
 15 39  1  0
 15 40  1  0
 18 41  1  0
 20 42  1  0
 21 43  1  0
 23 44  1  0
 23 45  1  0
 24 46  1  0
 24 47  1  0
 25 48  1  0
 26 49  1  0
M  END
>  <meeko>  (2) 
{"is_sidechain": [false], "free_energy": -8.013, "intermolecular_energy": -10.186, "internal_energy": -0.659}

$$$$
ligand_68_conformer_2_docked
     RDKit          3D

 49 51  0  0  0  0  0  0  0  0999 V2000
    9.1570   47.7450   51.8120 C   0  0  0  0  0  0  0  0  0  0  0  0
    8.2540   46.5640   51.9600 C   0  0  0  0  0  0  0  0  0  0  0  0
    8.1320   46.0190   53.0890 O   0  0  0  0  0  0  0  0  0  0  0  0
    7.6170   46.0030   50.8010 N   0  0  0  0  0  0  0  0  0  0  0  0
    6.6080   44.9800   50.8520 C   0  0  0  0  0  0  0  0  0  0  0  0
    5.4370   45.1400   51.6160 C   0  0  0  0  0  0  0  0  0  0  0  0
    4.4620   44.1390   51.6310 C   0  0  0  0  0  0  0  0  0  0  0  0
    4.6320   42.9710   50.8740 C   0  0  0  0  0  0  0  0  0  0  0  0
    3.5870   41.8880   50.9170 C   0  0  0  0  0  0  0  0  0  0  0  0
    2.6080   42.1750   51.9630 N   0  0  0  0  0  0  0  0  0  0  0  0
    1.3030   42.6960   51.6720 C   0  0  0  0  0  0  0  0  0  0  0  0
    1.0020   43.0240   50.4920 O   0  0  0  0  0  0  0  0  0  0  0  0
    0.3130   42.9130   52.7890 C   0  0  0  0  0  0  0  0  0  0  0  0
   -0.9070   43.7150   52.3050 C   0  0  0  0  0  0  0  0  0  0  0  0
   -1.9440   43.8190   53.4330 C   0  0  0  0  0  0  0  0  0  0  0  0
   -1.3170   44.1220   54.7340 N   0  0  0  0  0  0  0  0  0  0  0  0
   -2.0790   44.0270   55.9620 C   0  0  0  0  0  0  0  0  0  0  0  0
   -2.0130   45.0230   56.9550 C   0  0  0  0  0  0  0  0  0  0  0  0
   -2.7480   44.8920   58.0900 N   0  0  0  0  0  0  0  0  0  0  0  0
   -3.5550   43.8190   58.2910 C   0  0  0  0  0  0  0  0  0  0  0  0
   -3.6300   42.8280   57.3130 C   0  0  0  0  0  0  0  0  0  0  0  0
   -2.8950   42.9560   56.1780 N   0  0  0  0  0  0  0  0  0  0  0  0
    0.0860   44.5700   54.7570 C   0  0  0  0  0  0  0  0  0  0  0  0
    0.9980   43.5820   54.0080 C   0  0  0  0  0  0  0  0  0  0  0  0
    5.7920   42.8160   50.0990 C   0  0  0  0  0  0  0  0  0  0  0  0
    6.7650   43.8190   50.0820 C   0  0  0  0  0  0  0  0  0  0  0  0
    9.4410   48.1165   52.8077 H   0  0  0  0  0  0  0  0  0  0  0  0
   10.0609   47.4485   51.2597 H   0  0  0  0  0  0  0  0  0  0  0  0
    8.6339   48.5396   51.2597 H   0  0  0  0  0  0  0  0  0  0  0  0
    7.9760   46.2920   49.8620 H   0  0  0  0  0  0  0  0  0  0  0  0
    5.2884   46.0575   52.2043 H   0  0  0  0  0  0  0  0  0  0  0  0
    3.5555   44.2681   52.2405 H   0  0  0  0  0  0  0  0  0  0  0  0
    3.0757   41.8372   49.9444 H   0  0  0  0  0  0  0  0  0  0  0  0
    4.0745   40.9263   51.1347 H   0  0  0  0  0  0  0  0  0  0  0  0
    2.8770   41.9940   52.9570 H   0  0  0  0  0  0  0  0  0  0  0  0
   -0.0576   41.9302   53.1156 H   0  0  0  0  0  0  0  0  0  0  0  0
   -0.5861   44.7250   52.0101 H   0  0  0  0  0  0  0  0  0  0  0  0
   -1.3591   43.2024   51.4431 H   0  0  0  0  0  0  0  0  0  0  0  0
   -2.6570   44.6198   53.1873 H   0  0  0  0  0  0  0  0  0  0  0  0
   -2.4516   42.8469   53.5186 H   0  0  0  0  0  0  0  0  0  0  0  0
   -1.3691   45.9034   56.8124 H   0  0  0  0  0  0  0  0  0  0  0  0
   -4.1438   43.7323   59.2161 H   0  0  0  0  0  0  0  0  0  0  0  0
   -4.2780   41.9512   57.4592 H   0  0  0  0  0  0  0  0  0  0  0  0
    0.1554   45.5572   54.2767 H   0  0  0  0  0  0  0  0  0  0  0  0
    0.4172   44.6243   55.8045 H   0  0  0  0  0  0  0  0  0  0  0  0
    1.8853   44.1270   53.6534 H   0  0  0  0  0  0  0  0  0  0  0  0
    1.2569   42.7800   54.7149 H   0  0  0  0  0  0  0  0  0  0  0  0
    5.9356   41.9025   49.5033 H   0  0  0  0  0  0  0  0  0  0  0  0
    7.6628   43.6963   49.4584 H   0  0  0  0  0  0  0  0  0  0  0  0
  1  2  1  0
  2  3  2  0
  2  4  1  0
  4  5  1  0
  5  6  2  0
  6  7  1  0
  7  8  2  0
  8  9  1  0
  9 10  1  0
 10 11  1  0
 11 12  2  0
 11 13  1  0
 13 14  1  0
 14 15  1  0
 15 16  1  0
 16 17  1  0
 17 18  2  0
 18 19  1  0
 19 20  2  0
 20 21  1  0
 21 22  2  0
 16 23  1  0
 23 24  1  0
  8 25  1  0
 25 26  2  0
 26  5  1  0
 24 13  1  0
 22 17  1  0
  1 27  1  0
  1 28  1  0
  1 29  1  0
  4 30  1  0
  6 31  1  0
  7 32  1  0
  9 33  1  0
  9 34  1  0
 10 35  1  0
 13 36  1  0
 14 37  1  0
 14 38  1  0
 15 39  1  0
 15 40  1  0
 18 41  1  0
 20 42  1  0
 21 43  1  0
 23 44  1  0
 23 45  1  0
 24 46  1  0
 24 47  1  0
 25 48  1  0
 26 49  1  0
M  END
>  <meeko>  (3) 
{"is_sidechain": [false], "free_energy": -7.894, "intermolecular_energy": -10.158, "internal_energy": -0.533}

$$$$
ligand_68_conformer_2_docked
     RDKit          3D

 49 51  0  0  0  0  0  0  0  0999 V2000
    8.0450   48.6100   52.2550 C   0  0  0  0  0  0  0  0  0  0  0  0
    7.9520   47.1450   51.9760 C   0  0  0  0  0  0  0  0  0  0  0  0
    8.5340   46.3330   52.7430 O   0  0  0  0  0  0  0  0  0  0  0  0
    7.2880   46.6850   50.7880 N   0  0  0  0  0  0  0  0  0  0  0  0
    6.9970   45.3050   50.5100 C   0  0  0  0  0  0  0  0  0  0  0  0
    5.8300   44.6870   50.9960 C   0  0  0  0  0  0  0  0  0  0  0  0
    5.5620   43.3490   50.6930 C   0  0  0  0  0  0  0  0  0  0  0  0
    6.4440   42.6120   49.8890 C   0  0  0  0  0  0  0  0  0  0  0  0
    6.1580   41.1650   49.5900 C   0  0  0  0  0  0  0  0  0  0  0  0
    5.3790   41.0500   48.3590 N   0  0  0  0  0  0  0  0  0  0  0  0
    4.0380   40.5380   48.3420 C   0  0  0  0  0  0  0  0  0  0  0  0
    3.5290   40.0670   49.3950 O   0  0  0  0  0  0  0  0  0  0  0  0
    3.2620   40.5030   47.0490 C   0  0  0  0  0  0  0  0  0  0  0  0
    2.7670   39.0800   46.7340 C   0  0  0  0  0  0  0  0  0  0  0  0
    1.8870   39.1010   45.4760 C   0  0  0  0  0  0  0  0  0  0  0  0
    2.4640   39.9450   44.4120 N   0  0  0  0  0  0  0  0  0  0  0  0
    1.6850   40.2930   43.2410 C   0  0  0  0  0  0  0  0  0  0  0  0
    0.7000   41.2990   43.2780 C   0  0  0  0  0  0  0  0  0  0  0  0
   -0.0040   41.5930   42.1530 N   0  0  0  0  0  0  0  0  0  0  0  0
    0.2230   40.9390   40.9860 C   0  0  0  0  0  0  0  0  0  0  0  0
    1.1980   39.9440   40.9380 C   0  0  0  0  0  0  0  0  0  0  0  0
    1.9020   39.6460   42.0610 N   0  0  0  0  0  0  0  0  0  0  0  0
    3.8630   40.3890   44.5400 C   0  0  0  0  0  0  0  0  0  0  0  0
    4.1030   41.0920   45.8880 C   0  0  0  0  0  0  0  0  0  0  0  0
    7.6000   43.2310   49.3900 C   0  0  0  0  0  0  0  0  0  0  0  0
    7.8670   44.5700   49.6910 C   0  0  0  0  0  0  0  0  0  0  0  0
    8.0556   48.7762   53.3423 H   0  0  0  0  0  0  0  0  0  0  0  0
    8.9703   49.0092   51.8140 H   0  0  0  0  0  0  0  0  0  0  0  0
    7.1776   49.1230   51.8140 H   0  0  0  0  0  0  0  0  0  0  0  0
    7.0860   47.3890   50.0420 H   0  0  0  0  0  0  0  0  0  0  0  0
    5.1254   45.2594   51.6172 H   0  0  0  0  0  0  0  0  0  0  0  0
    4.6534   42.8709   51.0877 H   0  0  0  0  0  0  0  0  0  0  0  0
    7.1081   40.6236   49.4710 H   0  0  0  0  0  0  0  0  0  0  0  0
    5.5821   40.7330   50.4217 H   0  0  0  0  0  0  0  0  0  0  0  0
    5.8230   41.3510   47.4610 H   0  0  0  0  0  0  0  0  0  0  0  0
    2.3696   41.1354   47.1661 H   0  0  0  0  0  0  0  0  0  0  0  0
    3.6319   38.4221   46.5635 H   0  0  0  0  0  0  0  0  0  0  0  0
    2.1770   38.7048   47.5832 H   0  0  0  0  0  0  0  0  0  0  0  0
    1.7839   38.0733   45.0975 H   0  0  0  0  0  0  0  0  0  0  0  0
    0.9095   39.5232   45.7521 H   0  0  0  0  0  0  0  0  0  0  0  0
    0.5014   41.8441   44.2126 H   0  0  0  0  0  0  0  0  0  0  0  0
   -0.3570   41.1917   40.0862 H   0  0  0  0  0  0  0  0  0  0  0  0
    1.3955   39.4051   39.9996 H   0  0  0  0  0  0  0  0  0  0  0  0
    4.5252   39.5135   44.4691 H   0  0  0  0  0  0  0  0  0  0  0  0
    4.0768   41.1037   43.7316 H   0  0  0  0  0  0  0  0  0  0  0  0
    5.1681   40.9967   46.1460 H   0  0  0  0  0  0  0  0  0  0  0  0
    3.7965   42.1413   45.7655 H   0  0  0  0  0  0  0  0  0  0  0  0
    8.2986   42.6610   48.7599 H   0  0  0  0  0  0  0  0  0  0  0  0
    8.7674   45.0515   49.2819 H   0  0  0  0  0  0  0  0  0  0  0  0
  1  2  1  0
  2  3  2  0
  2  4  1  0
  4  5  1  0
  5  6  2  0
  6  7  1  0
  7  8  2  0
  8  9  1  0
  9 10  1  0
 10 11  1  0
 11 12  2  0
 11 13  1  0
 13 14  1  0
 14 15  1  0
 15 16  1  0
 16 17  1  0
 17 18  2  0
 18 19  1  0
 19 20  2  0
 20 21  1  0
 21 22  2  0
 16 23  1  0
 23 24  1  0
  8 25  1  0
 25 26  2  0
 26  5  1  0
 24 13  1  0
 22 17  1  0
  1 27  1  0
  1 28  1  0
  1 29  1  0
  4 30  1  0
  6 31  1  0
  7 32  1  0
  9 33  1  0
  9 34  1  0
 10 35  1  0
 13 36  1  0
 14 37  1  0
 14 38  1  0
 15 39  1  0
 15 40  1  0
 18 41  1  0
 20 42  1  0
 21 43  1  0
 23 44  1  0
 23 45  1  0
 24 46  1  0
 24 47  1  0
 25 48  1  0
 26 49  1  0
M  END
>  <meeko>  (4) 
{"is_sidechain": [false], "free_energy": -7.655, "intermolecular_energy": -9.728, "internal_energy": -0.653}

$$$$
ligand_68_conformer_2_docked
     RDKit          3D

 49 51  0  0  0  0  0  0  0  0999 V2000
   -3.4560   49.1010   59.2350 C   0  0  0  0  0  0  0  0  0  0  0  0
   -2.8820   48.3420   58.0830 C   0  0  0  0  0  0  0  0  0  0  0  0
   -2.6550   48.9440   57.0000 O   0  0  0  0  0  0  0  0  0  0  0  0
   -2.6860   46.9230   58.1890 N   0  0  0  0  0  0  0  0  0  0  0  0
   -1.9910   46.1300   57.2120 C   0  0  0  0  0  0  0  0  0  0  0  0
   -0.5960   45.9540   57.2660 C   0  0  0  0  0  0  0  0  0  0  0  0
    0.0520   45.1600   56.3150 C   0  0  0  0  0  0  0  0  0  0  0  0
   -0.6820   44.5190   55.3060 C   0  0  0  0  0  0  0  0  0  0  0  0
    0.0290   43.6870   54.2730 C   0  0  0  0  0  0  0  0  0  0  0  0
    1.4600   43.9810   54.2870 N   0  0  0  0  0  0  0  0  0  0  0  0
    2.0370   45.0320   53.5000 C   0  0  0  0  0  0  0  0  0  0  0  0
    1.3240   45.6720   52.6800 O   0  0  0  0  0  0  0  0  0  0  0  0
    3.5130   45.3290   53.6050 C   0  0  0  0  0  0  0  0  0  0  0  0
    3.9650   45.3940   55.0740 C   0  0  0  0  0  0  0  0  0  0  0  0
    5.4880   45.5850   55.1430 C   0  0  0  0  0  0  0  0  0  0  0  0
    5.9640   46.5840   54.1680 N   0  0  0  0  0  0  0  0  0  0  0  0
    7.3790   46.7400   53.9020 C   0  0  0  0  0  0  0  0  0  0  0  0
    7.9830   46.1890   52.7560 C   0  0  0  0  0  0  0  0  0  0  0  0
    9.3140   46.3630   52.5460 N   0  0  0  0  0  0  0  0  0  0  0  0
   10.0820   47.0650   53.4190 C   0  0  0  0  0  0  0  0  0  0  0  0
    9.4930   47.6170   54.5550 C   0  0  0  0  0  0  0  0  0  0  0  0
    8.1630   47.4430   54.7680 N   0  0  0  0  0  0  0  0  0  0  0  0
    4.9770   47.4540   53.5060 C   0  0  0  0  0  0  0  0  0  0  0  0
    3.8670   46.6260   52.8330 C   0  0  0  0  0  0  0  0  0  0  0  0
   -2.0750   44.6810   55.2600 C   0  0  0  0  0  0  0  0  0  0  0  0
   -2.7230   45.4720   56.2130 C   0  0  0  0  0  0  0  0  0  0  0  0
   -3.1146   48.6495   60.1782 H   0  0  0  0  0  0  0  0  0  0  0  0
   -3.1216   50.1479   59.1874 H   0  0  0  0  0  0  0  0  0  0  0  0
   -4.5544   49.0644   59.1874 H   0  0  0  0  0  0  0  0  0  0  0  0
   -3.1570   46.4260   58.9790 H   0  0  0  0  0  0  0  0  0  0  0  0
   -0.0127   46.4433   58.0600 H   0  0  0  0  0  0  0  0  0  0  0  0
    1.1443   45.0372   56.3583 H   0  0  0  0  0  0  0  0  0  0  0  0
   -0.1252   42.6209   54.4960 H   0  0  0  0  0  0  0  0  0  0  0  0
   -0.3769   43.9250   53.2787 H   0  0  0  0  0  0  0  0  0  0  0  0
    2.0800   43.3970   54.8940 H   0  0  0  0  0  0  0  0  0  0  0  0
    4.0657   44.5020   53.1353 H   0  0  0  0  0  0  0  0  0  0  0  0
    3.4681   46.2398   55.5717 H   0  0  0  0  0  0  0  0  0  0  0  0
    3.6939   44.4551   55.5789 H   0  0  0  0  0  0  0  0  0  0  0  0
    5.7585   45.9197   56.1553 H   0  0  0  0  0  0  0  0  0  0  0  0
    5.9625   44.6222   54.9024 H   0  0  0  0  0  0  0  0  0  0  0  0
    7.3797   45.6198   52.0334 H   0  0  0  0  0  0  0  0  0  0  0  0
   11.1579   47.1965   53.2313 H   0  0  0  0  0  0  0  0  0  0  0  0
   10.0999   48.1885   55.2727 H   0  0  0  0  0  0  0  0  0  0  0  0
    4.5239   48.1184   54.2565 H   0  0  0  0  0  0  0  0  0  0  0  0
    5.4933   48.0393   52.7308 H   0  0  0  0  0  0  0  0  0  0  0  0
    2.9623   47.2477   52.7623 H   0  0  0  0  0  0  0  0  0  0  0  0
    4.2416   46.3235   51.8440 H   0  0  0  0  0  0  0  0  0  0  0  0
   -2.6590   44.1839   54.4714 H   0  0  0  0  0  0  0  0  0  0  0  0
   -3.8172   45.5794   56.1791 H   0  0  0  0  0  0  0  0  0  0  0  0
  1  2  1  0
  2  3  2  0
  2  4  1  0
  4  5  1  0
  5  6  2  0
  6  7  1  0
  7  8  2  0
  8  9  1  0
  9 10  1  0
 10 11  1  0
 11 12  2  0
 11 13  1  0
 13 14  1  0
 14 15  1  0
 15 16  1  0
 16 17  1  0
 17 18  2  0
 18 19  1  0
 19 20  2  0
 20 21  1  0
 21 22  2  0
 16 23  1  0
 23 24  1  0
  8 25  1  0
 25 26  2  0
 26  5  1  0
 24 13  1  0
 22 17  1  0
  1 27  1  0
  1 28  1  0
  1 29  1  0
  4 30  1  0
  6 31  1  0
  7 32  1  0
  9 33  1  0
  9 34  1  0
 10 35  1  0
 13 36  1  0
 14 37  1  0
 14 38  1  0
 15 39  1  0
 15 40  1  0
 18 41  1  0
 20 42  1  0
 21 43  1  0
 23 44  1  0
 23 45  1  0
 24 46  1  0
 24 47  1  0
 25 48  1  0
 26 49  1  0
M  END
>  <meeko>  (5) 
{"is_sidechain": [false], "free_energy": -7.396, "intermolecular_energy": -9.318, "internal_energy": -0.73}

$$$$
