ligand_90_conformer_1_docked
     RDKit          3D

 47 49  0  0  0  0  0  0  0  0999 V2000
    1.8660   44.6290   51.2050 C   0  0  0  0  0  0  0  0  0  0  0  0
    3.0100   43.9140   51.7960 N   0  0  0  0  0  0  0  0  0  0  0  0
    3.1510   42.5970   51.1530 C   0  0  0  0  0  0  0  0  0  0  0  0
    2.8510   43.7670   53.2620 C   0  0  0  0  0  0  0  0  0  0  0  0
    2.4470   45.1160   53.8960 C   0  0  1  0  0  0  0  0  0  0  0  0
    1.2840   45.0180   54.8840 C   0  0  0  0  0  0  0  0  0  0  0  0
    0.0120   44.5270   54.5130 C   0  0  0  0  0  0  0  0  0  0  0  0
   -1.0330   44.4850   55.4410 C   0  0  0  0  0  0  0  0  0  0  0  0
   -0.8230   44.9080   56.7540 C   0  0  0  0  0  0  0  0  0  0  0  0
    0.4260   45.3960   57.1360 C   0  0  0  0  0  0  0  0  0  0  0  0
    1.4680   45.4610   56.2080 C   0  0  0  0  0  0  0  0  0  0  0  0
    3.6540   45.8010   54.4340 N   0  0  0  0  0  0  0  0  0  0  0  0
    4.6850   44.8710   54.9120 C   0  0  0  0  0  0  0  0  0  0  0  0
    4.3290   47.1090   53.4710 S   0  0  0  0  0  0  0  0  0  0  0  0
    4.7010   48.2370   54.3930 O   0  0  0  0  0  0  0  0  0  0  0  0
    3.2620   47.6200   52.5500 O   0  0  0  0  0  0  0  0  0  0  0  0
    5.7980   46.6470   52.5820 C   0  0  0  0  0  0  0  0  0  0  0  0
    5.7130   46.0120   51.3400 C   0  0  0  0  0  0  0  0  0  0  0  0
    7.2600   45.7190   50.7400 S   0  0  0  0  0  0  0  0  0  0  0  0
    8.0600   46.3580   52.0620 C   0  0  0  0  0  0  0  0  0  0  0  0
    9.4360   46.4320   52.2570 C   0  0  0  0  0  0  0  0  0  0  0  0
    9.9090   46.9720   53.4590 C   0  0  0  0  0  0  0  0  0  0  0  0
    9.0050   47.4110   54.4390 C   0  0  0  0  0  0  0  0  0  0  0  0
    7.6190   47.3270   54.2240 C   0  0  0  0  0  0  0  0  0  0  0  0
    7.1410   46.8080   53.0060 C   0  0  0  0  0  0  0  0  0  0  0  0
    1.2283   45.0276   52.0078 H   0  0  0  0  0  0  0  0  0  0  0  0
    2.2337   45.4583   50.5829 H   0  0  0  0  0  0  0  0  0  0  0  0
    1.2816   43.9351   50.5829 H   0  0  0  0  0  0  0  0  0  0  0  0
    3.2343   41.8187   51.9258 H   0  0  0  0  0  0  0  0  0  0  0  0
    2.2690   42.3986   50.5264 H   0  0  0  0  0  0  0  0  0  0  0  0
    4.0550   42.5898   50.5264 H   0  0  0  0  0  0  0  0  0  0  0  0
    2.0701   43.0205   53.4691 H   0  0  0  0  0  0  0  0  0  0  0  0
    3.8085   43.4412   53.6946 H   0  0  0  0  0  0  0  0  0  0  0  0
    2.0314   45.7520   53.1006 H   0  0  0  0  0  0  0  0  0  0  0  0
   -0.1576   44.1746   53.4849 H   0  0  0  0  0  0  0  0  0  0  0  0
   -2.0236   44.1174   55.1351 H   0  0  0  0  0  0  0  0  0  0  0  0
   -1.6418   44.8565   57.4868 H   0  0  0  0  0  0  0  0  0  0  0  0
    0.5912   45.7306   58.1708 H   0  0  0  0  0  0  0  0  0  0  0  0
    2.4446   45.8633   56.5153 H   0  0  0  0  0  0  0  0  0  0  0  0
    4.6918   44.8649   56.0120 H   0  0  0  0  0  0  0  0  0  0  0  0
    4.4662   43.8588   54.5411 H   0  0  0  0  0  0  0  0  0  0  0  0
    5.6694   45.1926   54.5411 H   0  0  0  0  0  0  0  0  0  0  0  0
    4.7760   45.7435   50.8302 H   0  0  0  0  0  0  0  0  0  0  0  0
   10.1346   46.0751   51.4859 H   0  0  0  0  0  0  0  0  0  0  0  0
   10.9917   47.0524   53.6359 H   0  0  0  0  0  0  0  0  0  0  0  0
    9.3854   47.8248   55.3846 H   0  0  0  0  0  0  0  0  0  0  0  0
    6.9149   47.6633   54.9993 H   0  0  0  0  0  0  0  0  0  0  0  0
  1  2  1  0
  2  3  1  0
  2  4  1  0
  4  5  1  0
  5  6  1  0
  6  7  2  0
  7  8  1  0
  8  9  2  0
  9 10  1  0
 10 11  2  0
  5 12  1  0
 12 13  1  0
 12 14  1  0
 14 15  2  0
 14 16  2  0
 14 17  1  0
 17 18  2  0
 18 19  1  0
 19 20  1  0
 20 21  2  0
 21 22  1  0
 22 23  2  0
 23 24  1  0
 24 25  2  0
 11  6  1  0
 25 17  1  0
 25 20  1  0
  1 26  1  0
  1 27  1  0
  1 28  1  0
  3 29  1  0
  3 30  1  0
  3 31  1  0
  4 32  1  0
  4 33  1  0
  5 34  1  6
  7 35  1  0
  8 36  1  0
  9 37  1  0
 10 38  1  0
 11 39  1  0
 13 40  1  0
 13 41  1  0
 13 42  1  0
 18 43  1  0
 21 44  1  0
 22 45  1  0
 23 46  1  0
 24 47  1  0
M  END
>  <meeko>  (1) 
{"is_sidechain": [false], "free_energy": -8.594, "intermolecular_energy": -11.609, "internal_energy": -0.763}

$$$$
ligand_90_conformer_1_docked
     RDKit          3D

 47 49  0  0  0  0  0  0  0  0999 V2000
    0.0090   42.3830   53.5650 C   0  0  0  0  0  0  0  0  0  0  0  0
    1.3190   43.0550   53.5720 N   0  0  0  0  0  0  0  0  0  0  0  0
    1.3030   44.1500   54.5560 C   0  0  0  0  0  0  0  0  0  0  0  0
    1.6670   43.5650   52.2250 C   0  0  0  0  0  0  0  0  0  0  0  0
    3.1990   43.7060   52.0840 C   0  0  1  0  0  0  0  0  0  0  0  0
    3.8310   42.7080   51.1120 C   0  0  0  0  0  0  0  0  0  0  0  0
    5.2090   42.7220   50.8000 C   0  0  0  0  0  0  0  0  0  0  0  0
    5.7390   41.8110   49.8800 C   0  0  0  0  0  0  0  0  0  0  0  0
    4.9130   40.8620   49.2770 C   0  0  0  0  0  0  0  0  0  0  0  0
    3.5510   40.8350   49.5740 C   0  0  0  0  0  0  0  0  0  0  0  0
    3.0110   41.7560   50.4750 C   0  0  0  0  0  0  0  0  0  0  0  0
    3.5510   45.1280   51.8200 N   0  0  0  0  0  0  0  0  0  0  0  0
    2.3800   45.9840   51.5940 C   0  0  0  0  0  0  0  0  0  0  0  0
    4.7270   45.8740   52.8930 S   0  0  0  0  0  0  0  0  0  0  0  0
    4.8210   45.0500   54.1470 O   0  0  0  0  0  0  0  0  0  0  0  0
    4.2170   47.2290   53.2880 O   0  0  0  0  0  0  0  0  0  0  0  0
    6.3610   45.9660   52.1980 C   0  0  0  0  0  0  0  0  0  0  0  0
    6.6150   45.5030   50.9040 C   0  0  0  0  0  0  0  0  0  0  0  0
    8.2390   45.7380   50.5210 S   0  0  0  0  0  0  0  0  0  0  0  0
    8.6520   46.3930   52.0030 C   0  0  0  0  0  0  0  0  0  0  0  0
    9.9120   46.8220   52.4110 C   0  0  0  0  0  0  0  0  0  0  0  0
   10.0580   47.3070   53.7160 C   0  0  0  0  0  0  0  0  0  0  0  0
    8.9560   47.3400   54.5850 C   0  0  0  0  0  0  0  0  0  0  0  0
    7.6930   46.9010   54.1540 C   0  0  0  0  0  0  0  0  0  0  0  0
    7.5370   46.4370   52.8350 C   0  0  0  0  0  0  0  0  0  0  0  0
   -0.3216   42.2134   54.6003 H   0  0  0  0  0  0  0  0  0  0  0  0
   -0.7250   43.0159   53.0447 H   0  0  0  0  0  0  0  0  0  0  0  0
    0.0949   41.4176   53.0447 H   0  0  0  0  0  0  0  0  0  0  0  0
    1.3091   43.7296   55.5725 H   0  0  0  0  0  0  0  0  0  0  0  0
    2.1920   44.7824   54.4154 H   0  0  0  0  0  0  0  0  0  0  0  0
    0.3959   44.7561   54.4154 H   0  0  0  0  0  0  0  0  0  0  0  0
    1.2957   42.8627   51.4641 H   0  0  0  0  0  0  0  0  0  0  0  0
    1.2026   44.5523   52.0854 H   0  0  0  0  0  0  0  0  0  0  0  0
    3.6545   43.4241   53.0448 H   0  0  0  0  0  0  0  0  0  0  0  0
    5.8705   43.4553   51.2845 H   0  0  0  0  0  0  0  0  0  0  0  0
    6.8100   41.8430   49.6313 H   0  0  0  0  0  0  0  0  0  0  0  0
    5.3361   40.1355   48.5676 H   0  0  0  0  0  0  0  0  0  0  0  0
    2.9002   40.0868   49.0978 H   0  0  0  0  0  0  0  0  0  0  0  0
    1.9323   41.7376   50.6897 H   0  0  0  0  0  0  0  0  0  0  0  0
    1.9586   46.2920   52.5623 H   0  0  0  0  0  0  0  0  0  0  0  0
    2.6820   46.8758   51.0252 H   0  0  0  0  0  0  0  0  0  0  0  0
    1.6219   45.4256   51.0252 H   0  0  0  0  0  0  0  0  0  0  0  0
    5.8666   45.0525   50.2355 H   0  0  0  0  0  0  0  0  0  0  0  0
   10.7711   46.7809   51.7253 H   0  0  0  0  0  0  0  0  0  0  0  0
   11.0395   47.6635   54.0617 H   0  0  0  0  0  0  0  0  0  0  0  0
    9.0825   47.7128   55.6122 H   0  0  0  0  0  0  0  0  0  0  0  0
    6.8343   46.9199   54.8412 H   0  0  0  0  0  0  0  0  0  0  0  0
  1  2  1  0
  2  3  1  0
  2  4  1  0
  4  5  1  0
  5  6  1  0
  6  7  2  0
  7  8  1  0
  8  9  2  0
  9 10  1  0
 10 11  2  0
  5 12  1  0
 12 13  1  0
 12 14  1  0
 14 15  2  0
 14 16  2  0
 14 17  1  0
 17 18  2  0
 18 19  1  0
 19 20  1  0
 20 21  2  0
 21 22  1  0
 22 23  2  0
 23 24  1  0
 24 25  2  0
 11  6  1  0
 25 17  1  0
 25 20  1  0
  1 26  1  0
  1 27  1  0
  1 28  1  0
  3 29  1  0
  3 30  1  0
  3 31  1  0
  4 32  1  0
  4 33  1  0
  5 34  1  1
  7 35  1  0
  8 36  1  0
  9 37  1  0
 10 38  1  0
 11 39  1  0
 13 40  1  0
 13 41  1  0
 13 42  1  0
 18 43  1  0
 21 44  1  0
 22 45  1  0
 23 46  1  0
 24 47  1  0
M  END
>  <meeko>  (2) 
{"is_sidechain": [false], "free_energy": -8.489, "intermolecular_energy": -11.538, "internal_energy": -0.692}

$$$$
ligand_90_conformer_1_docked
     RDKit          3D

 47 49  0  0  0  0  0  0  0  0999 V2000
    0.9520   43.1710   53.8260 C   0  0  0  0  0  0  0  0  0  0  0  0
    1.9930   44.2040   53.9680 N   0  0  0  0  0  0  0  0  0  0  0  0
    1.4640   45.3270   54.7600 C   0  0  0  0  0  0  0  0  0  0  0  0
    2.4670   44.6740   52.6450 C   0  0  0  0  0  0  0  0  0  0  0  0
    4.0060   44.5750   52.5600 C   0  0  1  0  0  0  0  0  0  0  0  0
    4.5100   43.4950   51.6020 C   0  0  0  0  0  0  0  0  0  0  0  0
    5.5750   43.7180   50.7000 C   0  0  0  0  0  0  0  0  0  0  0  0
    5.9830   42.7120   49.8190 C   0  0  0  0  0  0  0  0  0  0  0  0
    5.3560   41.4660   49.8370 C   0  0  0  0  0  0  0  0  0  0  0  0
    4.3040   41.2290   50.7210 C   0  0  0  0  0  0  0  0  0  0  0  0
    3.8760   42.2370   51.5890 C   0  0  0  0  0  0  0  0  0  0  0  0
    4.5840   45.9260   52.3220 N   0  0  0  0  0  0  0  0  0  0  0  0
    3.7160   46.7960   51.5180 C   0  0  0  0  0  0  0  0  0  0  0  0
    5.2650   46.7610   53.7120 S   0  0  0  0  0  0  0  0  0  0  0  0
    4.8880   46.0060   54.9550 O   0  0  0  0  0  0  0  0  0  0  0  0
    4.6340   48.1190   53.8060 O   0  0  0  0  0  0  0  0  0  0  0  0
    7.0400   46.8650   53.6750 C   0  0  0  0  0  0  0  0  0  0  0  0
    7.7430   47.4740   54.7170 C   0  0  0  0  0  0  0  0  0  0  0  0
    9.3980   47.4030   54.4100 S   0  0  0  0  0  0  0  0  0  0  0  0
    9.2460   46.6330   52.9330 C   0  0  0  0  0  0  0  0  0  0  0  0
   10.2720   46.2600   52.0690 C   0  0  0  0  0  0  0  0  0  0  0  0
    9.9300   45.6570   50.8530 C   0  0  0  0  0  0  0  0  0  0  0  0
    8.5810   45.4530   50.5200 C   0  0  0  0  0  0  0  0  0  0  0  0
    7.5600   45.8370   51.4060 C   0  0  0  0  0  0  0  0  0  0  0  0
    7.9010   46.4200   52.6400 C   0  0  0  0  0  0  0  0  0  0  0  0
    0.6220   42.8435   54.8229 H   0  0  0  0  0  0  0  0  0  0  0  0
    0.0958   43.5867   53.2745 H   0  0  0  0  0  0  0  0  0  0  0  0
    1.3610   42.3116   53.2745 H   0  0  0  0  0  0  0  0  0  0  0  0
    1.5700   45.1020   55.8315 H   0  0  0  0  0  0  0  0  0  0  0  0
    2.0259   46.2417   54.5201 H   0  0  0  0  0  0  0  0  0  0  0  0
    0.4009   45.4762   54.5201 H   0  0  0  0  0  0  0  0  0  0  0  0
    2.0193   44.0507   51.8569 H   0  0  0  0  0  0  0  0  0  0  0  0
    2.1683   45.7241   52.5106 H   0  0  0  0  0  0  0  0  0  0  0  0
    4.3768   44.2218   53.5335 H   0  0  0  0  0  0  0  0  0  0  0  0
    6.0873   44.6914   50.6911 H   0  0  0  0  0  0  0  0  0  0  0  0
    6.8012   42.9037   49.1092 H   0  0  0  0  0  0  0  0  0  0  0  0
    5.6912   40.6712   49.1544 H   0  0  0  0  0  0  0  0  0  0  0  0
    3.8099   40.2463   50.7351 H   0  0  0  0  0  0  0  0  0  0  0  0
    3.0339   42.0459   52.2704 H   0  0  0  0  0  0  0  0  0  0  0  0
    3.0983   47.4152   52.1851 H   0  0  0  0  0  0  0  0  0  0  0  0
    4.3356   47.4466   50.8833 H   0  0  0  0  0  0  0  0  0  0  0  0
    3.0640   46.1779   50.8833 H   0  0  0  0  0  0  0  0  0  0  0  0
    7.2843   47.9318   55.6058 H   0  0  0  0  0  0  0  0  0  0  0  0
   11.3249   46.4348   52.3353 H   0  0  0  0  0  0  0  0  0  0  0  0
   10.7204   45.3419   50.1559 H   0  0  0  0  0  0  0  0  0  0  0  0
    8.3213   44.9886   49.5573 H   0  0  0  0  0  0  0  0  0  0  0  0
    6.5045   45.6832   51.1372 H   0  0  0  0  0  0  0  0  0  0  0  0
  1  2  1  0
  2  3  1  0
  2  4  1  0
  4  5  1  0
  5  6  1  0
  6  7  2  0
  7  8  1  0
  8  9  2  0
  9 10  1  0
 10 11  2  0
  5 12  1  0
 12 13  1  0
 12 14  1  0
 14 15  2  0
 14 16  2  0
 14 17  1  0
 17 18  2  0
 18 19  1  0
 19 20  1  0
 20 21  2  0
 21 22  1  0
 22 23  2  0
 23 24  1  0
 24 25  2  0
 11  6  1  0
 25 17  1  0
 25 20  1  0
  1 26  1  0
  1 27  1  0
  1 28  1  0
  3 29  1  0
  3 30  1  0
  3 31  1  0
  4 32  1  0
  4 33  1  0
  5 34  1  1
  7 35  1  0
  8 36  1  0
  9 37  1  0
 10 38  1  0
 11 39  1  0
 13 40  1  0
 13 41  1  0
 13 42  1  0
 18 43  1  0
 21 44  1  0
 22 45  1  0
 23 46  1  0
 24 47  1  0
M  END
>  <meeko>  (3) 
{"is_sidechain": [false], "free_energy": -8.39, "intermolecular_energy": -11.513, "internal_energy": -0.583}

$$$$
ligand_90_conformer_1_docked
     RDKit          3D

 47 49  0  0  0  0  0  0  0  0999 V2000
    8.0570   48.3540   52.1140 C   0  0  0  0  0  0  0  0  0  0  0  0
    7.9310   47.6150   53.3830 N   0  0  0  0  0  0  0  0  0  0  0  0
    9.0820   47.9250   54.2470 C   0  0  0  0  0  0  0  0  0  0  0  0
    7.8300   46.1560   53.1460 C   0  0  0  0  0  0  0  0  0  0  0  0
    6.5340   45.8260   52.3740 C   0  0  1  0  0  0  0  0  0  0  0  0
    6.7430   44.9180   51.1610 C   0  0  0  0  0  0  0  0  0  0  0  0
    5.8160   43.9180   50.7930 C   0  0  0  0  0  0  0  0  0  0  0  0
    6.0630   43.0890   49.6950 C   0  0  0  0  0  0  0  0  0  0  0  0
    7.2210   43.2570   48.9340 C   0  0  0  0  0  0  0  0  0  0  0  0
    8.1460   44.2390   49.2840 C   0  0  0  0  0  0  0  0  0  0  0  0
    7.9170   45.0560   50.3940 C   0  0  0  0  0  0  0  0  0  0  0  0
    5.4910   45.3510   53.3240 N   0  0  0  0  0  0  0  0  0  0  0  0
    6.0430   44.8340   54.5820 C   0  0  0  0  0  0  0  0  0  0  0  0
    4.1060   46.4030   53.5840 S   0  0  0  0  0  0  0  0  0  0  0  0
    3.7590   47.0670   52.2810 O   0  0  0  0  0  0  0  0  0  0  0  0
    4.5040   47.4850   54.5430 O   0  0  0  0  0  0  0  0  0  0  0  0
    2.6540   45.5370   54.1380 C   0  0  0  0  0  0  0  0  0  0  0  0
    2.0840   45.8200   55.3820 C   0  0  0  0  0  0  0  0  0  0  0  0
    0.7200   44.8590   55.6170 S   0  0  0  0  0  0  0  0  0  0  0  0
    0.8540   44.0440   54.1630 C   0  0  0  0  0  0  0  0  0  0  0  0
    0.0210   43.0380   53.6830 C   0  0  0  0  0  0  0  0  0  0  0  0
    0.3300   42.4510   52.4500 C   0  0  0  0  0  0  0  0  0  0  0  0
    1.4630   42.8690   51.7340 C   0  0  0  0  0  0  0  0  0  0  0  0
    2.2920   43.8860   52.2360 C   0  0  0  0  0  0  0  0  0  0  0  0
    1.9700   44.4960   53.4630 C   0  0  0  0  0  0  0  0  0  0  0  0
    8.2384   49.4181   52.3258 H   0  0  0  0  0  0  0  0  0  0  0  0
    8.8987   47.9468   51.5346 H   0  0  0  0  0  0  0  0  0  0  0  0
    7.1279   48.2487   51.5346 H   0  0  0  0  0  0  0  0  0  0  0  0
    8.7810   47.8439   55.3019 H   0  0  0  0  0  0  0  0  0  0  0  0
    9.8961   47.2141   54.0423 H   0  0  0  0  0  0  0  0  0  0  0  0
    9.4289   48.9486   54.0423 H   0  0  0  0  0  0  0  0  0  0  0  0
    8.6976   45.8232   52.5573 H   0  0  0  0  0  0  0  0  0  0  0  0
    7.8105   45.6369   54.1156 H   0  0  0  0  0  0  0  0  0  0  0  0
    6.1677   46.7561   51.9149 H   0  0  0  0  0  0  0  0  0  0  0  0
    4.8916   43.7904   51.3755 H   0  0  0  0  0  0  0  0  0  0  0  0
    5.3423   42.3015   49.4297 H   0  0  0  0  0  0  0  0  0  0  0  0
    7.4032   42.6153   48.0593 H   0  0  0  0  0  0  0  0  0  0  0  0
    9.0589   44.3712   48.6847 H   0  0  0  0  0  0  0  0  0  0  0  0
    8.6620   45.8159   50.6725 H   0  0  0  0  0  0  0  0  0  0  0  0
    5.5322   45.3124   55.4306 H   0  0  0  0  0  0  0  0  0  0  0  0
    5.8913   43.7455   54.6291 H   0  0  0  0  0  0  0  0  0  0  0  0
    7.1192   45.0566   54.6291 H   0  0  0  0  0  0  0  0  0  0  0  0
    2.4681   46.5593   56.1002 H   0  0  0  0  0  0  0  0  0  0  0  0
   -0.8583   42.7121   54.2579 H   0  0  0  0  0  0  0  0  0  0  0  0
   -0.3165   41.6604   52.0413 H   0  0  0  0  0  0  0  0  0  0  0  0
    1.7039   42.3956   50.7707 H   0  0  0  0  0  0  0  0  0  0  0  0
    3.1841   44.2026   51.6756 H   0  0  0  0  0  0  0  0  0  0  0  0
  1  2  1  0
  2  3  1  0
  2  4  1  0
  4  5  1  0
  5  6  1  0
  6  7  2  0
  7  8  1  0
  8  9  2  0
  9 10  1  0
 10 11  2  0
  5 12  1  0
 12 13  1  0
 12 14  1  0
 14 15  2  0
 14 16  2  0
 14 17  1  0
 17 18  2  0
 18 19  1  0
 19 20  1  0
 20 21  2  0
 21 22  1  0
 22 23  2  0
 23 24  1  0
 24 25  2  0
 11  6  1  0
 25 17  1  0
 25 20  1  0
  1 26  1  0
  1 27  1  0
  1 28  1  0
  3 29  1  0
  3 30  1  0
  3 31  1  0
  4 32  1  0
  4 33  1  0
  5 34  1  6
  7 35  1  0
  8 36  1  0
  9 37  1  0
 10 38  1  0
 11 39  1  0
 13 40  1  0
 13 41  1  0
 13 42  1  0
 18 43  1  0
 21 44  1  0
 22 45  1  0
 23 46  1  0
 24 47  1  0
M  END
>  <meeko>  (4) 
{"is_sidechain": [false], "free_energy": -8.326, "intermolecular_energy": -10.818, "internal_energy": -1.192}

$$$$
ligand_90_conformer_1_docked
     RDKit          3D

 47 49  0  0  0  0  0  0  0  0999 V2000
    9.3940   46.3780   51.6910 C   0  0  0  0  0  0  0  0  0  0  0  0
    8.0070   46.8740   51.7030 N   0  0  0  0  0  0  0  0  0  0  0  0
    7.9840   48.2560   52.2090 C   0  0  0  0  0  0  0  0  0  0  0  0
    7.1330   46.0010   52.5220 C   0  0  0  0  0  0  0  0  0  0  0  0
    5.8180   45.7010   51.7700 C   0  0  1  0  0  0  0  0  0  0  0  0
    5.8190   44.3720   51.0150 C   0  0  0  0  0  0  0  0  0  0  0  0
    4.9010   43.3360   51.3000 C   0  0  0  0  0  0  0  0  0  0  0  0
    4.9590   42.1240   50.6060 C   0  0  0  0  0  0  0  0  0  0  0  0
    5.9120   41.9320   49.6060 C   0  0  0  0  0  0  0  0  0  0  0  0
    6.8260   42.9430   49.3120 C   0  0  0  0  0  0  0  0  0  0  0  0
    6.7880   44.1490   50.0170 C   0  0  0  0  0  0  0  0  0  0  0  0
    4.6610   45.8850   52.6880 N   0  0  0  0  0  0  0  0  0  0  0  0
    5.0050   46.6060   53.9200 C   0  0  0  0  0  0  0  0  0  0  0  0
    3.1570   46.4570   51.9780 S   0  0  0  0  0  0  0  0  0  0  0  0
    3.3470   46.5790   50.4920 O   0  0  0  0  0  0  0  0  0  0  0  0
    2.8760   47.8330   52.5060 O   0  0  0  0  0  0  0  0  0  0  0  0
    1.7850   45.3580   52.2470 C   0  0  0  0  0  0  0  0  0  0  0  0
    1.2160   44.6500   51.1840 C   0  0  0  0  0  0  0  0  0  0  0  0
   -0.0430   43.6850   51.7490 S   0  0  0  0  0  0  0  0  0  0  0  0
    0.0880   44.1790   53.3420 C   0  0  0  0  0  0  0  0  0  0  0  0
   -0.6990   43.7720   54.4160 C   0  0  0  0  0  0  0  0  0  0  0  0
   -0.4510   44.3380   55.6720 C   0  0  0  0  0  0  0  0  0  0  0  0
    0.5580   45.3010   55.8260 C   0  0  0  0  0  0  0  0  0  0  0  0
    1.3400   45.7000   54.7290 C   0  0  0  0  0  0  0  0  0  0  0  0
    1.1110   45.1140   53.4700 C   0  0  0  0  0  0  0  0  0  0  0  0
    9.7472   46.2517   52.7251 H   0  0  0  0  0  0  0  0  0  0  0  0
    9.4328   45.4103   51.1695 H   0  0  0  0  0  0  0  0  0  0  0  0
   10.0377   47.1017   51.1695 H   0  0  0  0  0  0  0  0  0  0  0  0
    7.9842   48.2438   53.3089 H   0  0  0  0  0  0  0  0  0  0  0  0
    8.8733   48.7935   51.8481 H   0  0  0  0  0  0  0  0  0  0  0  0
    7.0773   48.7636   51.8481 H   0  0  0  0  0  0  0  0  0  0  0  0
    7.6561   45.0558   52.7292 H   0  0  0  0  0  0  0  0  0  0  0  0
    6.8962   46.5156   53.4649 H   0  0  0  0  0  0  0  0  0  0  0  0
    5.7183   46.4359   50.9576 H   0  0  0  0  0  0  0  0  0  0  0  0
    4.1343   43.4847   52.0746 H   0  0  0  0  0  0  0  0  0  0  0  0
    4.2504   41.3187   50.8495 H   0  0  0  0  0  0  0  0  0  0  0  0
    5.9425   40.9836   49.0496 H   0  0  0  0  0  0  0  0  0  0  0  0
    7.5782   42.7911   48.5239 H   0  0  0  0  0  0  0  0  0  0  0  0
    7.5241   44.9342   49.7898 H   0  0  0  0  0  0  0  0  0  0  0  0
    4.7162   46.0007   54.7919 H   0  0  0  0  0  0  0  0  0  0  0  0
    6.0889   46.7920   53.9455 H   0  0  0  0  0  0  0  0  0  0  0  0
    4.4676   47.5655   53.9455 H   0  0  0  0  0  0  0  0  0  0  0  0
    1.5421   44.7138   50.1354 H   0  0  0  0  0  0  0  0  0  0  0  0
   -1.4951   43.0250   54.2810 H   0  0  0  0  0  0  0  0  0  0  0  0
   -1.0491   44.0269   56.5412 H   0  0  0  0  0  0  0  0  0  0  0  0
    0.7384   45.7477   56.8149 H   0  0  0  0  0  0  0  0  0  0  0  0
    2.1231   46.4625   54.8529 H   0  0  0  0  0  0  0  0  0  0  0  0
  1  2  1  0
  2  3  1  0
  2  4  1  0
  4  5  1  0
  5  6  1  0
  6  7  2  0
  7  8  1  0
  8  9  2  0
  9 10  1  0
 10 11  2  0
  5 12  1  0
 12 13  1  0
 12 14  1  0
 14 15  2  0
 14 16  2  0
 14 17  1  0
 17 18  2  0
 18 19  1  0
 19 20  1  0
 20 21  2  0
 21 22  1  0
 22 23  2  0
 23 24  1  0
 24 25  2  0
 11  6  1  0
 25 17  1  0
 25 20  1  0
  1 26  1  0
  1 27  1  0
  1 28  1  0
  3 29  1  0
  3 30  1  0
  3 31  1  0
  4 32  1  0
  4 33  1  0
  5 34  1  6
  7 35  1  0
  8 36  1  0
  9 37  1  0
 10 38  1  0
 11 39  1  0
 13 40  1  0
 13 41  1  0
 13 42  1  0
 18 43  1  0
 21 44  1  0
 22 45  1  0
 23 46  1  0
 24 47  1  0
M  END
>  <meeko>  (5) 
{"is_sidechain": [false], "free_energy": -8.188, "intermolecular_energy": -10.946, "internal_energy": -0.878}

$$$$
