MODEL 1
REMARK VINA RESULT:    -9.405      0.000      0.000
REMARK INTER + INTRA:         -12.304
REMARK INTER:                 -11.604
REMARK INTRA:                  -0.700
REMARK UNBOUND:                -0.700
REMARK SMILES O=C1C[C@@H](Nc2nccc(Oc3ccccc3)n2)[C@H]2CCCCN12
REMARK SMILES IDX 6 1 7 2 8 3 9 4 10 5 18 6 5 7 4 9 1 10 2 11 3 12 24 13 23 14
REMARK SMILES IDX 19 15 22 16 20 17 21 18 11 19 12 20 13 21 17 22 14 23 16 24
REMARK SMILES IDX 15 25
REMARK H PARENT 5 8
ROOT
ATOM      1  C   UNL     1       5.030  43.084  51.379  1.00  0.00     0.226 A 
ATOM      2  N   UNL     1       5.149  42.046  50.507  1.00  0.00    -0.221 NA
ATOM      3  C   UNL     1       6.059  42.079  49.500  1.00  0.00     0.121 A 
ATOM      4  C   UNL     1       6.887  43.189  49.346  1.00  0.00     0.089 A 
ATOM      5  C   UNL     1       6.751  44.253  50.240  1.00  0.00     0.224 A 
ATOM      6  N   UNL     1       5.832  44.172  51.241  1.00  0.00    -0.177 NA
ENDROOT
BRANCH   1   7
ATOM      7  N   UNL     1       4.077  43.039  52.449  1.00  0.00    -0.349 N 
ATOM      8  H   UNL     1       4.173  42.273  53.156  1.00  0.00     0.164 HD
BRANCH   7   9
ATOM      9  C   UNL     1       2.873  43.878  52.479  1.00  0.00     0.114 C 
ATOM     10  O   UNL     1       3.150  46.743  50.326  1.00  0.00    -0.275 OA
ATOM     11  C   UNL     1       3.074  45.903  51.263  1.00  0.00     0.225 C 
ATOM     12  C   UNL     1       2.631  44.502  51.085  1.00  0.00     0.127 C 
ATOM     13  N   UNL     1       3.377  46.212  52.608  1.00  0.00    -0.338 N 
ATOM     14  C   UNL     1       3.673  47.534  53.152  1.00  0.00     0.120 C 
ATOM     15  C   UNL     1       3.027  45.085  53.450  1.00  0.00     0.108 C 
ATOM     16  C   UNL     1       4.666  47.396  54.315  1.00  0.00     0.022 C 
ATOM     17  C   UNL     1       4.067  44.943  54.577  1.00  0.00     0.027 C 
ATOM     18  C   UNL     1       4.240  46.290  55.297  1.00  0.00     0.004 C 
ENDBRANCH   7   9
ENDBRANCH   1   7
BRANCH   5  19
ATOM     19  O   UNL     1       7.592  45.366  50.112  1.00  0.00    -0.439 OA
BRANCH  19  20
ATOM     20  C   UNL     1       8.193  46.052  51.178  1.00  0.00     0.129 A 
ATOM     21  C   UNL     1       9.541  45.800  51.461  1.00  0.00     0.047 A 
ATOM     22  C   UNL     1       7.499  47.013  51.938  1.00  0.00     0.047 A 
ATOM     23  C   UNL     1      10.183  46.470  52.509  1.00  0.00     0.004 A 
ATOM     24  C   UNL     1       8.143  47.682  52.984  1.00  0.00     0.004 A 
ATOM     25  C   UNL     1       9.482  47.407  53.272  1.00  0.00     0.000 A 
ENDBRANCH  19  20
ENDBRANCH   5  19
TORSDOF 4
ENDMDL
MODEL 2
REMARK VINA RESULT:    -9.303      1.671      2.375
REMARK INTER + INTRA:         -12.178
REMARK INTER:                 -11.626
REMARK INTRA:                  -0.552
REMARK UNBOUND:                -0.700
REMARK SMILES O=C1C[C@@H](Nc2nccc(Oc3ccccc3)n2)[C@H]2CCCCN12
REMARK SMILES IDX 6 1 7 2 8 3 9 4 10 5 18 6 5 7 4 9 1 10 2 11 3 12 24 13 23 14
REMARK SMILES IDX 19 15 22 16 20 17 21 18 11 19 12 20 13 21 17 22 14 23 16 24
REMARK SMILES IDX 15 25
REMARK H PARENT 5 8
ROOT
ATOM      1  C   UNL     1       5.771  43.963  50.673  1.00  0.00     0.226 A 
ATOM      2  N   UNL     1       6.087  43.007  49.756  1.00  0.00    -0.221 NA
ATOM      3  C   UNL     1       7.263  43.047  49.080  1.00  0.00     0.121 A 
ATOM      4  C   UNL     1       8.168  44.079  49.318  1.00  0.00     0.089 A 
ATOM      5  C   UNL     1       7.832  45.060  50.253  1.00  0.00     0.224 A 
ATOM      6  N   UNL     1       6.646  44.974  50.916  1.00  0.00    -0.177 NA
ENDROOT
BRANCH   1   7
ATOM      7  N   UNL     1       4.534  43.908  51.395  1.00  0.00    -0.349 N 
ATOM      8  H   UNL     1       4.463  43.232  52.190  1.00  0.00     0.164 HD
BRANCH   7   9
ATOM      9  C   UNL     1       3.319  44.598  50.944  1.00  0.00     0.114 C 
ATOM     10  O   UNL     1       2.776  47.692  52.692  1.00  0.00    -0.275 OA
ATOM     11  C   UNL     1       2.775  46.527  52.212  1.00  0.00     0.225 C 
ATOM     12  C   UNL     1       3.531  46.129  51.002  1.00  0.00     0.127 C 
ATOM     13  N   UNL     1       2.022  45.463  52.758  1.00  0.00    -0.338 N 
ATOM     14  C   UNL     1       1.041  45.554  53.835  1.00  0.00     0.120 C 
ATOM     15  C   UNL     1       2.106  44.313  51.878  1.00  0.00     0.108 C 
ATOM     16  C   UNL     1       1.050  44.250  54.645  1.00  0.00     0.022 C 
ATOM     17  C   UNL     1       2.163  43.026  52.719  1.00  0.00     0.027 C 
ATOM     18  C   UNL     1       1.005  43.013  53.730  1.00  0.00     0.004 C 
ENDBRANCH   7   9
ENDBRANCH   1   7
BRANCH   5  19
ATOM     19  O   UNL     1       8.742  46.092  50.520  1.00  0.00    -0.439 OA
BRANCH  19  20
ATOM     20  C   UNL     1       8.971  46.662  51.781  1.00  0.00     0.129 A 
ATOM     21  C   UNL     1       8.201  47.767  52.166  1.00  0.00     0.047 A 
ATOM     22  C   UNL     1       9.914  46.134  52.683  1.00  0.00     0.047 A 
ATOM     23  C   UNL     1       8.390  48.361  53.418  1.00  0.00     0.004 A 
ATOM     24  C   UNL     1      10.100  46.729  53.936  1.00  0.00     0.004 A 
ATOM     25  C   UNL     1       9.342  47.844  54.301  1.00  0.00     0.000 A 
ENDBRANCH  19  20
ENDBRANCH   5  19
TORSDOF 4
ENDMDL
MODEL 3
REMARK VINA RESULT:    -9.001      1.921      5.593
REMARK INTER + INTRA:         -11.805
REMARK INTER:                 -11.430
REMARK INTRA:                  -0.375
REMARK UNBOUND:                -0.700
REMARK SMILES O=C1C[C@@H](Nc2nccc(Oc3ccccc3)n2)[C@H]2CCCCN12
REMARK SMILES IDX 6 1 7 2 8 3 9 4 10 5 18 6 5 7 4 9 1 10 2 11 3 12 24 13 23 14
REMARK SMILES IDX 19 15 22 16 20 17 21 18 11 19 12 20 13 21 17 22 14 23 16 24
REMARK SMILES IDX 15 25
REMARK H PARENT 5 8
ROOT
ATOM      1  C   UNL     1       4.190  45.067  53.366  1.00  0.00     0.226 A 
ATOM      2  N   UNL     1       2.930  45.356  53.793  1.00  0.00    -0.221 NA
ATOM      3  C   UNL     1       1.915  44.471  53.624  1.00  0.00     0.121 A 
ATOM      4  C   UNL     1       2.154  43.246  53.005  1.00  0.00     0.089 A 
ATOM      5  C   UNL     1       3.447  42.962  52.562  1.00  0.00     0.224 A 
ATOM      6  N   UNL     1       4.438  43.875  52.762  1.00  0.00    -0.177 NA
ENDROOT
BRANCH   1   7
ATOM      7  N   UNL     1       5.262  45.999  53.558  1.00  0.00    -0.349 N 
ATOM      8  H   UNL     1       5.591  46.169  54.537  1.00  0.00     0.164 HD
BRANCH   7   9
ATOM      9  C   UNL     1       5.769  46.862  52.485  1.00  0.00     0.114 C 
ATOM     10  O   UNL     1       7.716  45.044  50.072  1.00  0.00    -0.275 OA
ATOM     11  C   UNL     1       7.251  45.776  50.986  1.00  0.00     0.225 C 
ATOM     12  C   UNL     1       5.811  46.076  51.153  1.00  0.00     0.127 C 
ATOM     13  N   UNL     1       8.057  46.423  51.948  1.00  0.00    -0.338 N 
ATOM     14  C   UNL     1       9.517  46.480  51.965  1.00  0.00     0.120 C 
ATOM     15  C   UNL     1       7.235  47.315  52.743  1.00  0.00     0.108 C 
ATOM     16  C   UNL     1      10.009  46.522  53.419  1.00  0.00     0.022 C 
ATOM     17  C   UNL     1       7.722  47.298  54.203  1.00  0.00     0.027 C 
ATOM     18  C   UNL     1       9.236  47.562  54.250  1.00  0.00     0.004 C 
ENDBRANCH   7   9
ENDBRANCH   1   7
BRANCH   5  19
ATOM     19  O   UNL     1       3.708  41.726  51.958  1.00  0.00    -0.439 OA
BRANCH  19  20
ATOM     20  C   UNL     1       4.232  41.550  50.668  1.00  0.00     0.129 A 
ATOM     21  C   UNL     1       5.489  42.093  50.377  1.00  0.00     0.047 A 
ATOM     22  C   UNL     1       3.556  40.811  49.678  1.00  0.00     0.047 A 
ATOM     23  C   UNL     1       6.054  41.934  49.107  1.00  0.00     0.004 A 
ATOM     24  C   UNL     1       4.123  40.653  48.409  1.00  0.00     0.004 A 
ATOM     25  C   UNL     1       5.369  41.217  48.122  1.00  0.00     0.000 A 
ENDBRANCH  19  20
ENDBRANCH   5  19
TORSDOF 4
ENDMDL
MODEL 4
REMARK VINA RESULT:    -8.850      2.594      3.450
REMARK INTER + INTRA:         -11.619
REMARK INTER:                 -10.986
REMARK INTRA:                  -0.634
REMARK UNBOUND:                -0.700
REMARK SMILES O=C1C[C@@H](Nc2nccc(Oc3ccccc3)n2)[C@H]2CCCCN12
REMARK SMILES IDX 6 1 7 2 8 3 9 4 10 5 18 6 5 7 4 9 1 10 2 11 3 12 24 13 23 14
REMARK SMILES IDX 19 15 22 16 20 17 21 18 11 19 12 20 13 21 17 22 14 23 16 24
REMARK SMILES IDX 15 25
REMARK H PARENT 5 8
ROOT
ATOM      1  C   UNL     1       4.150  43.926  52.377  1.00  0.00     0.226 A 
ATOM      2  N   UNL     1       4.271  42.810  51.606  1.00  0.00    -0.221 NA
ATOM      3  C   UNL     1       5.205  42.736  50.624  1.00  0.00     0.121 A 
ATOM      4  C   UNL     1       6.058  43.813  50.392  1.00  0.00     0.089 A 
ATOM      5  C   UNL     1       5.921  44.956  51.181  1.00  0.00     0.224 A 
ATOM      6  N   UNL     1       4.977  44.983  52.162  1.00  0.00    -0.177 NA
ENDROOT
BRANCH   1   7
ATOM      7  N   UNL     1       3.170  43.994  53.421  1.00  0.00    -0.349 N 
ATOM      8  H   UNL     1       2.795  43.092  53.798  1.00  0.00     0.164 HD
BRANCH   7   9
ATOM      9  C   UNL     1       2.532  45.250  53.833  1.00  0.00     0.114 C 
ATOM     10  O   UNL     1       0.948  44.987  57.049  1.00  0.00    -0.275 OA
ATOM     11  C   UNL     1       1.273  45.084  55.835  1.00  0.00     0.225 C 
ATOM     12  C   UNL     1       2.638  45.415  55.367  1.00  0.00     0.127 C 
ATOM     13  N   UNL     1       0.358  44.917  54.772  1.00  0.00    -0.338 N 
ATOM     14  C   UNL     1      -1.089  44.758  54.885  1.00  0.00     0.120 C 
ATOM     15  C   UNL     1       1.008  45.260  53.521  1.00  0.00     0.108 C 
ATOM     16  C   UNL     1      -1.594  43.859  53.747  1.00  0.00     0.022 C 
ATOM     17  C   UNL     1       0.518  44.311  52.412  1.00  0.00     0.027 C 
ATOM     18  C   UNL     1      -1.019  44.291  52.385  1.00  0.00     0.004 C 
ENDBRANCH   7   9
ENDBRANCH   1   7
BRANCH   5  19
ATOM     19  O   UNL     1       6.786  46.038  50.975  1.00  0.00    -0.439 OA
BRANCH  19  20
ATOM     20  C   UNL     1       7.831  46.413  51.833  1.00  0.00     0.129 A 
ATOM     21  C   UNL     1       9.138  46.033  51.501  1.00  0.00     0.047 A 
ATOM     22  C   UNL     1       7.613  47.193  52.985  1.00  0.00     0.047 A 
ATOM     23  C   UNL     1      10.211  46.394  52.323  1.00  0.00     0.004 A 
ATOM     24  C   UNL     1       8.689  47.554  53.804  1.00  0.00     0.004 A 
ATOM     25  C   UNL     1       9.986  47.150  53.476  1.00  0.00     0.000 A 
ENDBRANCH  19  20
ENDBRANCH   5  19
TORSDOF 4
ENDMDL
MODEL 5
REMARK VINA RESULT:    -8.541      2.392      2.735
REMARK INTER + INTRA:         -11.238
REMARK INTER:                 -10.594
REMARK INTRA:                  -0.644
REMARK UNBOUND:                -0.700
REMARK SMILES O=C1C[C@@H](Nc2nccc(Oc3ccccc3)n2)[C@H]2CCCCN12
REMARK SMILES IDX 6 1 7 2 8 3 9 4 10 5 18 6 5 7 4 9 1 10 2 11 3 12 24 13 23 14
REMARK SMILES IDX 19 15 22 16 20 17 21 18 11 19 12 20 13 21 17 22 14 23 16 24
REMARK SMILES IDX 15 25
REMARK H PARENT 5 8
ROOT
ATOM      1  C   UNL     1       4.036  44.159  51.471  1.00  0.00     0.226 A 
ATOM      2  N   UNL     1       4.397  42.942  50.980  1.00  0.00    -0.221 NA
ATOM      3  C   UNL     1       5.606  42.756  50.391  1.00  0.00     0.121 A 
ATOM      4  C   UNL     1       6.497  43.821  50.280  1.00  0.00     0.089 A 
ATOM      5  C   UNL     1       6.115  45.067  50.777  1.00  0.00     0.224 A 
ATOM      6  N   UNL     1       4.897  45.206  51.370  1.00  0.00    -0.177 NA
ENDROOT
BRANCH   1   7
ATOM      7  N   UNL     1       2.764  44.347  52.104  1.00  0.00    -0.349 N 
ATOM      8  H   UNL     1       2.466  45.327  52.320  1.00  0.00     0.164 HD
BRANCH   7   9
ATOM      9  C   UNL     1       1.969  43.235  52.639  1.00  0.00     0.114 C 
ATOM     10  O   UNL     1      -1.549  43.651  52.028  1.00  0.00    -0.275 OA
ATOM     11  C   UNL     1      -0.375  43.554  52.476  1.00  0.00     0.225 C 
ATOM     12  C   UNL     1       0.754  42.967  51.720  1.00  0.00     0.127 C 
ATOM     13  N   UNL     1      -0.003  43.971  53.774  1.00  0.00    -0.338 N 
ATOM     14  C   UNL     1      -0.900  44.428  54.832  1.00  0.00     0.120 C 
ATOM     15  C   UNL     1       1.365  43.567  54.035  1.00  0.00     0.108 C 
ATOM     16  C   UNL     1      -0.180  45.474  55.694  1.00  0.00     0.022 C 
ATOM     17  C   UNL     1       2.074  44.657  54.858  1.00  0.00     0.027 C 
ATOM     18  C   UNL     1       1.232  45.006  56.095  1.00  0.00     0.004 C 
ENDBRANCH   7   9
ENDBRANCH   1   7
BRANCH   5  19
ATOM     19  O   UNL     1       7.009  46.142  50.693  1.00  0.00    -0.439 OA
BRANCH  19  20
ATOM     20  C   UNL     1       7.950  46.491  51.674  1.00  0.00     0.129 A 
ATOM     21  C   UNL     1       9.285  46.115  51.483  1.00  0.00     0.047 A 
ATOM     22  C   UNL     1       7.603  47.240  52.814  1.00  0.00     0.047 A 
ATOM     23  C   UNL     1      10.259  46.450  52.431  1.00  0.00     0.004 A 
ATOM     24  C   UNL     1       8.578  47.574  53.760  1.00  0.00     0.004 A 
ATOM     25  C   UNL     1       9.904  47.176  53.570  1.00  0.00     0.000 A 
ENDBRANCH  19  20
ENDBRANCH   5  19
TORSDOF 4
ENDMDL
