ligand_11_conformer_1_docked
     RDKit          3D

 40 42  0  0  0  0  0  0  0  0999 V2000
    7.9950   44.2220   49.9190 O   0  0  0  0  0  0  0  0  0  0  0  0
    6.7740   44.0520   50.1900 C   0  0  0  0  0  0  0  0  0  0  0  0
    6.1140   44.9540   51.0950 N   0  0  0  0  0  0  0  0  0  0  0  0
    6.8050   45.7600   52.0660 C   0  0  0  0  0  0  0  0  0  0  0  0
    6.4800   45.6330   53.4250 C   0  0  0  0  0  0  0  0  0  0  0  0
    7.1510   46.3900   54.3880 C   0  0  0  0  0  0  0  0  0  0  0  0
    8.1680   47.2760   54.0150 C   0  0  0  0  0  0  0  0  0  0  0  0
    8.8090   48.0140   55.0220 O   0  0  0  0  0  0  0  0  0  0  0  0
   10.1830   47.8790   55.3770 C   0  0  0  0  0  0  0  0  0  0  0  0
   10.5600   46.5590   55.2250 F   0  0  0  0  0  0  0  0  0  0  0  0
   10.3670   48.2490   56.6980 F   0  0  0  0  0  0  0  0  0  0  0  0
    8.5120   47.3910   52.6560 C   0  0  0  0  0  0  0  0  0  0  0  0
    7.8400   46.6340   51.6910 C   0  0  0  0  0  0  0  0  0  0  0  0
    6.0260   42.9550   49.5300 C   0  0  0  0  0  0  0  0  0  0  0  0
    6.2590   42.6310   48.1810 C   0  0  0  0  0  0  0  0  0  0  0  0
    5.5470   41.5990   47.5650 C   0  0  0  0  0  0  0  0  0  0  0  0
    4.5940   40.8610   48.2870 C   0  0  0  0  0  0  0  0  0  0  0  0
    3.8310   39.8120   47.6690 N   0  0  0  0  0  0  0  0  0  0  0  0
    3.1810   39.9300   46.3950 C   0  0  0  0  0  0  0  0  0  0  0  0
    2.2960   40.9350   46.1530 N   0  0  0  0  0  0  0  0  0  0  0  0
    1.6990   41.0690   44.9400 C   0  0  0  0  0  0  0  0  0  0  0  0
    2.0000   40.1730   43.9160 C   0  0  0  0  0  0  0  0  0  0  0  0
    2.9190   39.1570   44.1720 C   0  0  0  0  0  0  0  0  0  0  0  0
    3.4940   39.0570   45.3990 N   0  0  0  0  0  0  0  0  0  0  0  0
    4.3360   41.2040   49.6210 C   0  0  0  0  0  0  0  0  0  0  0  0
    5.0470   42.2370   50.2400 C   0  0  0  0  0  0  0  0  0  0  0  0
    5.0910   45.1170   50.9660 H   0  0  0  0  0  0  0  0  0  0  0  0
    5.6908   44.9320   53.7343 H   0  0  0  0  0  0  0  0  0  0  0  0
    6.8777   46.2889   55.4487 H   0  0  0  0  0  0  0  0  0  0  0  0
   10.7913   48.5262   54.7280 H   0  0  0  0  0  0  0  0  0  0  0  0
    9.3135   48.0797   52.3507 H   0  0  0  0  0  0  0  0  0  0  0  0
    8.1232   46.7231   50.6318 H   0  0  0  0  0  0  0  0  0  0  0  0
    7.0083   43.1952   47.6063 H   0  0  0  0  0  0  0  0  0  0  0  0
    5.7338   41.3624   46.5071 H   0  0  0  0  0  0  0  0  0  0  0  0
    3.8140   38.8760   48.1330 H   0  0  0  0  0  0  0  0  0  0  0  0
    0.9797   41.8829   44.7666 H   0  0  0  0  0  0  0  0  0  0  0  0
    1.5235   40.2655   42.9289 H   0  0  0  0  0  0  0  0  0  0  0  0
    3.1785   38.4371   43.3818 H   0  0  0  0  0  0  0  0  0  0  0  0
    3.5676   40.6560   50.1861 H   0  0  0  0  0  0  0  0  0  0  0  0
    4.8390   42.4899   51.2901 H   0  0  0  0  0  0  0  0  0  0  0  0
  1  2  2  0
  2  3  1  0
  3  4  1  0
  4  5  2  0
  5  6  1  0
  6  7  2  0
  7  8  1  0
  8  9  1  0
  9 10  1  0
  9 11  1  0
  7 12  1  0
 12 13  2  0
  2 14  1  0
 14 15  2  0
 15 16  1  0
 16 17  2  0
 17 18  1  0
 18 19  1  0
 19 20  2  0
 20 21  1  0
 21 22  2  0
 22 23  1  0
 23 24  2  0
 17 25  1  0
 25 26  2  0
 13  4  1  0
 26 14  1  0
 24 19  1  0
  3 27  1  0
  5 28  1  0
  6 29  1  0
  9 30  1  0
 12 31  1  0
 13 32  1  0
 15 33  1  0
 16 34  1  0
 18 35  1  0
 21 36  1  0
 22 37  1  0
 23 38  1  0
 25 39  1  0
 26 40  1  0
M  END
>  <meeko>  (1) 
{"is_sidechain": [false], "free_energy": -8.272, "intermolecular_energy": -11.174, "internal_energy": -0.482}

$$$$
ligand_11_conformer_1_docked
     RDKit          3D

 40 42  0  0  0  0  0  0  0  0999 V2000
    4.2110   43.2190   52.7810 O   0  0  0  0  0  0  0  0  0  0  0  0
    3.4340   43.9330   52.0870 C   0  0  0  0  0  0  0  0  0  0  0  0
    3.9750   44.9870   51.2720 N   0  0  0  0  0  0  0  0  0  0  0  0
    5.2560   45.6000   51.5050 C   0  0  0  0  0  0  0  0  0  0  0  0
    6.3410   45.2640   50.6840 C   0  0  0  0  0  0  0  0  0  0  0  0
    7.5890   45.8610   50.8780 C   0  0  0  0  0  0  0  0  0  0  0  0
    7.7730   46.8160   51.8860 C   0  0  0  0  0  0  0  0  0  0  0  0
    9.0460   47.3850   52.0390 O   0  0  0  0  0  0  0  0  0  0  0  0
    9.9190   47.1360   53.1370 C   0  0  0  0  0  0  0  0  0  0  0  0
    9.8270   45.8040   53.4940 F   0  0  0  0  0  0  0  0  0  0  0  0
    9.5510   47.9170   54.2190 F   0  0  0  0  0  0  0  0  0  0  0  0
    6.6800   47.1720   52.6980 C   0  0  0  0  0  0  0  0  0  0  0  0
    5.4310   46.5740   52.5050 C   0  0  0  0  0  0  0  0  0  0  0  0
    1.9810   43.6380   52.0840 C   0  0  0  0  0  0  0  0  0  0  0  0
    1.4150   42.7790   53.0440 C   0  0  0  0  0  0  0  0  0  0  0  0
    0.0460   42.5030   53.0310 C   0  0  0  0  0  0  0  0  0  0  0  0
   -0.7900   43.0880   52.0640 C   0  0  0  0  0  0  0  0  0  0  0  0
   -2.1970   42.7990   52.0150 N   0  0  0  0  0  0  0  0  0  0  0  0
   -2.7840   41.7800   51.1930 C   0  0  0  0  0  0  0  0  0  0  0  0
   -2.9850   41.9860   49.8630 N   0  0  0  0  0  0  0  0  0  0  0  0
   -3.5140   41.0140   49.0740 C   0  0  0  0  0  0  0  0  0  0  0  0
   -3.8490   39.7790   49.6250 C   0  0  0  0  0  0  0  0  0  0  0  0
   -3.6240   39.5760   50.9860 C   0  0  0  0  0  0  0  0  0  0  0  0
   -3.0940   40.5730   51.7410 N   0  0  0  0  0  0  0  0  0  0  0  0
   -0.2230   43.9160   51.0860 C   0  0  0  0  0  0  0  0  0  0  0  0
    1.1470   44.1940   51.0970 C   0  0  0  0  0  0  0  0  0  0  0  0
    3.4630   45.2440   50.3990 H   0  0  0  0  0  0  0  0  0  0  0  0
    6.2089   44.5244   49.8806 H   0  0  0  0  0  0  0  0  0  0  0  0
    8.4345   45.5786   50.2335 H   0  0  0  0  0  0  0  0  0  0  0  0
   10.9503   47.3813   52.8432 H   0  0  0  0  0  0  0  0  0  0  0  0
    6.8091   47.9252   53.4892 H   0  0  0  0  0  0  0  0  0  0  0  0
    4.5806   46.8666   53.1384 H   0  0  0  0  0  0  0  0  0  0  0  0
    2.0563   42.3209   53.8114 H   0  0  0  0  0  0  0  0  0  0  0  0
   -0.3811   41.8230   53.7828 H   0  0  0  0  0  0  0  0  0  0  0  0
   -2.8260   43.3050   52.6790 H   0  0  0  0  0  0  0  0  0  0  0  0
   -3.6773   41.2020   48.0026 H   0  0  0  0  0  0  0  0  0  0  0  0
   -4.2809   38.9827   49.0010 H   0  0  0  0  0  0  0  0  0  0  0  0
   -3.8754   38.6097   51.4477 H   0  0  0  0  0  0  0  0  0  0  0  0
   -0.8614   44.3510   50.3029 H   0  0  0  0  0  0  0  0  0  0  0  0
    1.5763   44.8528   50.3277 H   0  0  0  0  0  0  0  0  0  0  0  0
  1  2  2  0
  2  3  1  0
  3  4  1  0
  4  5  2  0
  5  6  1  0
  6  7  2  0
  7  8  1  0
  8  9  1  0
  9 10  1  0
  9 11  1  0
  7 12  1  0
 12 13  2  0
  2 14  1  0
 14 15  2  0
 15 16  1  0
 16 17  2  0
 17 18  1  0
 18 19  1  0
 19 20  2  0
 20 21  1  0
 21 22  2  0
 22 23  1  0
 23 24  2  0
 17 25  1  0
 25 26  2  0
 13  4  1  0
 26 14  1  0
 24 19  1  0
  3 27  1  0
  5 28  1  0
  6 29  1  0
  9 30  1  0
 12 31  1  0
 13 32  1  0
 15 33  1  0
 16 34  1  0
 18 35  1  0
 21 36  1  0
 22 37  1  0
 23 38  1  0
 25 39  1  0
 26 40  1  0
M  END
>  <meeko>  (2) 
{"is_sidechain": [false], "free_energy": -8.084, "intermolecular_energy": -10.543, "internal_energy": -0.858}

$$$$
ligand_11_conformer_1_docked
     RDKit          3D

 40 42  0  0  0  0  0  0  0  0999 V2000
    6.8140   41.7500   50.2290 O   0  0  0  0  0  0  0  0  0  0  0  0
    6.6340   42.2900   49.1020 C   0  0  0  0  0  0  0  0  0  0  0  0
    7.4040   43.4490   48.7380 N   0  0  0  0  0  0  0  0  0  0  0  0
    8.0370   44.3200   49.6920 C   0  0  0  0  0  0  0  0  0  0  0  0
    9.4180   44.2160   49.9100 C   0  0  0  0  0  0  0  0  0  0  0  0
   10.0590   45.0650   50.8160 C   0  0  0  0  0  0  0  0  0  0  0  0
    9.3350   46.0420   51.5100 C   0  0  0  0  0  0  0  0  0  0  0  0
   10.0260   46.8670   52.4100 O   0  0  0  0  0  0  0  0  0  0  0  0
    9.5650   47.2130   53.7130 C   0  0  0  0  0  0  0  0  0  0  0  0
    8.9030   48.4250   53.6500 F   0  0  0  0  0  0  0  0  0  0  0  0
   10.6380   47.3330   54.5780 F   0  0  0  0  0  0  0  0  0  0  0  0
    7.9520   46.1630   51.2790 C   0  0  0  0  0  0  0  0  0  0  0  0
    7.3110   45.3140   50.3720 C   0  0  0  0  0  0  0  0  0  0  0  0
    5.6670   41.6900   48.1510 C   0  0  0  0  0  0  0  0  0  0  0  0
    5.7810   41.9130   46.7670 C   0  0  0  0  0  0  0  0  0  0  0  0
    4.8630   41.3480   45.8780 C   0  0  0  0  0  0  0  0  0  0  0  0
    3.8170   40.5390   46.3540 C   0  0  0  0  0  0  0  0  0  0  0  0
    2.8460   39.9670   45.4610 N   0  0  0  0  0  0  0  0  0  0  0  0
    1.9050   40.7330   44.6940 C   0  0  0  0  0  0  0  0  0  0  0  0
    1.4640   40.2880   43.4850 N   0  0  0  0  0  0  0  0  0  0  0  0
    0.5520   40.9940   42.7680 C   0  0  0  0  0  0  0  0  0  0  0  0
    0.0460   42.1900   43.2740 C   0  0  0  0  0  0  0  0  0  0  0  0
    0.4940   42.6260   44.5200 C   0  0  0  0  0  0  0  0  0  0  0  0
    1.4080   41.8910   45.2060 N   0  0  0  0  0  0  0  0  0  0  0  0
    3.6800   40.3440   47.7350 C   0  0  0  0  0  0  0  0  0  0  0  0
    4.5980   40.9090   48.6260 C   0  0  0  0  0  0  0  0  0  0  0  0
    7.6090   43.6030   47.7250 H   0  0  0  0  0  0  0  0  0  0  0  0
   10.0014   43.4603   49.3636 H   0  0  0  0  0  0  0  0  0  0  0  0
   11.1413   44.9649   50.9854 H   0  0  0  0  0  0  0  0  0  0  0  0
    8.8881   46.4267   54.0784 H   0  0  0  0  0  0  0  0  0  0  0  0
    7.3726   46.9293   51.8147 H   0  0  0  0  0  0  0  0  0  0  0  0
    6.2319   45.4242   50.1891 H   0  0  0  0  0  0  0  0  0  0  0  0
    6.6000   42.5377   46.3811 H   0  0  0  0  0  0  0  0  0  0  0  0
    4.9596   41.5376   44.7988 H   0  0  0  0  0  0  0  0  0  0  0  0
    2.8770   38.9350   45.2960 H   0  0  0  0  0  0  0  0  0  0  0  0
    0.2132   40.6226   41.7896 H   0  0  0  0  0  0  0  0  0  0  0  0
   -0.6896   42.7761   42.7036 H   0  0  0  0  0  0  0  0  0  0  0  0
    0.1082   43.5634   44.9471 H   0  0  0  0  0  0  0  0  0  0  0  0
    2.8442   39.7420   48.1210 H   0  0  0  0  0  0  0  0  0  0  0  0
    4.4831   40.7413   49.7070 H   0  0  0  0  0  0  0  0  0  0  0  0
  1  2  2  0
  2  3  1  0
  3  4  1  0
  4  5  2  0
  5  6  1  0
  6  7  2  0
  7  8  1  0
  8  9  1  0
  9 10  1  0
  9 11  1  0
  7 12  1  0
 12 13  2  0
  2 14  1  0
 14 15  2  0
 15 16  1  0
 16 17  2  0
 17 18  1  0
 18 19  1  0
 19 20  2  0
 20 21  1  0
 21 22  2  0
 22 23  1  0
 23 24  2  0
 17 25  1  0
 25 26  2  0
 13  4  1  0
 26 14  1  0
 24 19  1  0
  3 27  1  0
  5 28  1  0
  6 29  1  0
  9 30  1  0
 12 31  1  0
 13 32  1  0
 15 33  1  0
 16 34  1  0
 18 35  1  0
 21 36  1  0
 22 37  1  0
 23 38  1  0
 25 39  1  0
 26 40  1  0
M  END
>  <meeko>  (3) 
{"is_sidechain": [false], "free_energy": -8.045, "intermolecular_energy": -10.626, "internal_energy": -0.722}

$$$$
ligand_11_conformer_1_docked
     RDKit          3D

 40 42  0  0  0  0  0  0  0  0999 V2000
    6.5360   41.8760   50.3100 O   0  0  0  0  0  0  0  0  0  0  0  0
    6.5240   42.3200   49.1280 C   0  0  0  0  0  0  0  0  0  0  0  0
    7.4340   43.3690   48.7530 N   0  0  0  0  0  0  0  0  0  0  0  0
    8.0470   44.2690   49.6930 C   0  0  0  0  0  0  0  0  0  0  0  0
    9.4280   44.1880   49.9270 C   0  0  0  0  0  0  0  0  0  0  0  0
   10.0490   45.0650   50.8190 C   0  0  0  0  0  0  0  0  0  0  0  0
    9.3060   46.0470   51.4850 C   0  0  0  0  0  0  0  0  0  0  0  0
    9.9780   46.9020   52.3730 O   0  0  0  0  0  0  0  0  0  0  0  0
    9.5590   47.1790   53.7060 C   0  0  0  0  0  0  0  0  0  0  0  0
    8.9210   48.4040   53.7330 F   0  0  0  0  0  0  0  0  0  0  0  0
   10.6580   47.2260   54.5450 F   0  0  0  0  0  0  0  0  0  0  0  0
    7.9240   46.1460   51.2380 C   0  0  0  0  0  0  0  0  0  0  0  0
    7.3020   45.2680   50.3450 C   0  0  0  0  0  0  0  0  0  0  0  0
    5.6070   41.7170   48.1310 C   0  0  0  0  0  0  0  0  0  0  0  0
    5.7580   41.9800   46.7580 C   0  0  0  0  0  0  0  0  0  0  0  0
    4.8860   41.4120   45.8250 C   0  0  0  0  0  0  0  0  0  0  0  0
    3.8490   40.5610   46.2460 C   0  0  0  0  0  0  0  0  0  0  0  0
    2.9250   39.9850   45.3080 N   0  0  0  0  0  0  0  0  0  0  0  0
    2.2840   38.7140   45.4840 C   0  0  0  0  0  0  0  0  0  0  0  0
    1.0210   38.6310   45.9870 N   0  0  0  0  0  0  0  0  0  0  0  0
    0.3990   37.4320   46.1280 C   0  0  0  0  0  0  0  0  0  0  0  0
    1.0510   36.2620   45.7450 C   0  0  0  0  0  0  0  0  0  0  0  0
    2.3380   36.3610   45.2190 C   0  0  0  0  0  0  0  0  0  0  0  0
    2.9260   37.5790   45.0940 N   0  0  0  0  0  0  0  0  0  0  0  0
    3.6750   40.3260   47.6170 C   0  0  0  0  0  0  0  0  0  0  0  0
    4.5470   40.8930   48.5510 C   0  0  0  0  0  0  0  0  0  0  0  0
    7.7550   43.4080   47.7600 H   0  0  0  0  0  0  0  0  0  0  0  0
   10.0264   43.4277   49.4037 H   0  0  0  0  0  0  0  0  0  0  0  0
   11.1310   44.9835   50.9998 H   0  0  0  0  0  0  0  0  0  0  0  0
    8.8751   46.3865   54.0440 H   0  0  0  0  0  0  0  0  0  0  0  0
    7.3303   46.9177   51.7499 H   0  0  0  0  0  0  0  0  0  0  0  0
    6.2231   45.3592   50.1512 H   0  0  0  0  0  0  0  0  0  0  0  0
    6.5696   42.6386   46.4151 H   0  0  0  0  0  0  0  0  0  0  0  0
    5.0118   41.6321   44.7546 H   0  0  0  0  0  0  0  0  0  0  0  0
    2.6360   40.5610   44.4850 H   0  0  0  0  0  0  0  0  0  0  0  0
   -0.6182   37.3848   46.5440 H   0  0  0  0  0  0  0  0  0  0  0  0
    0.5616   35.2830   45.8551 H   0  0  0  0  0  0  0  0  0  0  0  0
    2.8765   35.4544   44.9057 H   0  0  0  0  0  0  0  0  0  0  0  0
    2.8456   39.6903   47.9606 H   0  0  0  0  0  0  0  0  0  0  0  0
    4.4031   40.6932   49.6231 H   0  0  0  0  0  0  0  0  0  0  0  0
  1  2  2  0
  2  3  1  0
  3  4  1  0
  4  5  2  0
  5  6  1  0
  6  7  2  0
  7  8  1  0
  8  9  1  0
  9 10  1  0
  9 11  1  0
  7 12  1  0
 12 13  2  0
  2 14  1  0
 14 15  2  0
 15 16  1  0
 16 17  2  0
 17 18  1  0
 18 19  1  0
 19 20  2  0
 20 21  1  0
 21 22  2  0
 22 23  1  0
 23 24  2  0
 17 25  1  0
 25 26  2  0
 13  4  1  0
 26 14  1  0
 24 19  1  0
  3 27  1  0
  5 28  1  0
  6 29  1  0
  9 30  1  0
 12 31  1  0
 13 32  1  0
 15 33  1  0
 16 34  1  0
 18 35  1  0
 21 36  1  0
 22 37  1  0
 23 38  1  0
 25 39  1  0
 26 40  1  0
M  END
>  <meeko>  (4) 
{"is_sidechain": [false], "free_energy": -8.017, "intermolecular_energy": -10.611, "internal_energy": -0.701}

$$$$
ligand_11_conformer_1_docked
     RDKit          3D

 40 42  0  0  0  0  0  0  0  0999 V2000
    4.2090   43.3840   52.6450 O   0  0  0  0  0  0  0  0  0  0  0  0
    3.4080   44.3240   52.3860 C   0  0  0  0  0  0  0  0  0  0  0  0
    3.8750   45.4810   51.6710 N   0  0  0  0  0  0  0  0  0  0  0  0
    5.2570   45.8780   51.6100 C   0  0  0  0  0  0  0  0  0  0  0  0
    5.7480   46.8120   52.5340 C   0  0  0  0  0  0  0  0  0  0  0  0
    7.0900   47.1980   52.5070 C   0  0  0  0  0  0  0  0  0  0  0  0
    7.9700   46.6490   51.5670 C   0  0  0  0  0  0  0  0  0  0  0  0
    9.3080   47.0720   51.5820 O   0  0  0  0  0  0  0  0  0  0  0  0
   10.2570   46.7260   52.5860 C   0  0  0  0  0  0  0  0  0  0  0  0
    9.9790   45.4550   53.0510 F   0  0  0  0  0  0  0  0  0  0  0  0
   10.1740   47.6180   53.6410 F   0  0  0  0  0  0  0  0  0  0  0  0
    7.4870   45.6950   50.6520 C   0  0  0  0  0  0  0  0  0  0  0  0
    6.1430   45.3090   50.6780 C   0  0  0  0  0  0  0  0  0  0  0  0
    1.9830   44.1980   52.7790 C   0  0  0  0  0  0  0  0  0  0  0  0
    1.0670   45.2330   52.5200 C   0  0  0  0  0  0  0  0  0  0  0  0
   -0.2720   45.1080   52.8970 C   0  0  0  0  0  0  0  0  0  0  0  0
   -0.7260   43.9400   53.5350 C   0  0  0  0  0  0  0  0  0  0  0  0
   -2.0930   43.7990   53.9550 N   0  0  0  0  0  0  0  0  0  0  0  0
   -2.5550   44.0370   55.2930 C   0  0  0  0  0  0  0  0  0  0  0  0
   -2.9350   43.0040   56.0950 N   0  0  0  0  0  0  0  0  0  0  0  0
   -3.3460   43.2210   57.3710 C   0  0  0  0  0  0  0  0  0  0  0  0
   -3.3720   44.5180   57.8810 C   0  0  0  0  0  0  0  0  0  0  0  0
   -2.9670   45.5650   57.0540 C   0  0  0  0  0  0  0  0  0  0  0  0
   -2.5630   45.3060   55.7830 N   0  0  0  0  0  0  0  0  0  0  0  0
    0.1920   42.9230   53.8260 C   0  0  0  0  0  0  0  0  0  0  0  0
    1.5330   43.0460   53.4480 C   0  0  0  0  0  0  0  0  0  0  0  0
    3.1930   45.9960   51.0720 H   0  0  0  0  0  0  0  0  0  0  0  0
    5.0709   47.2438   53.2857 H   0  0  0  0  0  0  0  0  0  0  0  0
    7.4586   47.9399   53.2307 H   0  0  0  0  0  0  0  0  0  0  0  0
   11.2690   46.7614   52.1563 H   0  0  0  0  0  0  0  0  0  0  0  0
    8.1699   45.2508   49.9128 H   0  0  0  0  0  0  0  0  0  0  0  0
    5.7767   44.5557   49.9650 H   0  0  0  0  0  0  0  0  0  0  0  0
    1.4081   46.1493   52.0160 H   0  0  0  0  0  0  0  0  0  0  0  0
   -0.9759   45.9284   52.6936 H   0  0  0  0  0  0  0  0  0  0  0  0
   -2.8130   43.5890   53.2270 H   0  0  0  0  0  0  0  0  0  0  0  0
   -3.6578   42.3748   58.0009 H   0  0  0  0  0  0  0  0  0  0  0  0
   -3.7042   44.7110   58.9117 H   0  0  0  0  0  0  0  0  0  0  0  0
   -2.9746   46.5987   57.4300 H   0  0  0  0  0  0  0  0  0  0  0  0
   -0.1445   42.0199   54.3563 H   0  0  0  0  0  0  0  0  0  0  0  0
    2.2409   42.2355   53.6758 H   0  0  0  0  0  0  0  0  0  0  0  0
  1  2  2  0
  2  3  1  0
  3  4  1  0
  4  5  2  0
  5  6  1  0
  6  7  2  0
  7  8  1  0
  8  9  1  0
  9 10  1  0
  9 11  1  0
  7 12  1  0
 12 13  2  0
  2 14  1  0
 14 15  2  0
 15 16  1  0
 16 17  2  0
 17 18  1  0
 18 19  1  0
 19 20  2  0
 20 21  1  0
 21 22  2  0
 22 23  1  0
 23 24  2  0
 17 25  1  0
 25 26  2  0
 13  4  1  0
 26 14  1  0
 24 19  1  0
  3 27  1  0
  5 28  1  0
  6 29  1  0
  9 30  1  0
 12 31  1  0
 13 32  1  0
 15 33  1  0
 16 34  1  0
 18 35  1  0
 21 36  1  0
 22 37  1  0
 23 38  1  0
 25 39  1  0
 26 40  1  0
M  END
>  <meeko>  (5) 
{"is_sidechain": [false], "free_energy": -7.959, "intermolecular_energy": -10.392, "internal_energy": -0.84}

$$$$
