ligand_76_conformer_1_docked
     RDKit          3D

 39 40  0  0  0  0  0  0  0  0999 V2000
   10.2790   46.2370   51.8940 C   0  0  0  0  0  0  0  0  0  0  0  0
    8.8300   46.4670   52.3330 C   0  0  0  0  0  0  0  0  0  0  0  0
    8.6930   47.3180   53.6300 C   0  0  1  0  0  0  0  0  0  0  0  0
   10.0330   47.2930   54.3980 C   0  0  0  0  0  0  0  0  0  0  0  0
    8.3920   48.6540   53.2940 O   0  0  0  0  0  0  0  0  0  0  0  0
    7.5480   46.8100   54.5500 C   0  0  0  0  0  0  0  0  0  0  0  0
    6.2280   46.6420   53.8520 C   0  0  0  0  0  0  0  0  0  0  0  0
    5.5970   45.4530   53.5610 C   0  0  0  0  0  0  0  0  0  0  0  0
    4.4900   45.7810   52.8750 N   0  0  0  0  0  0  0  0  0  0  0  0
    3.5620   44.8580   52.2330 C   0  0  0  0  0  0  0  0  0  0  0  0
    4.3340   43.7690   51.5370 C   0  0  0  0  0  0  0  0  0  0  0  0
    5.4820   44.0900   50.7980 C   0  0  0  0  0  0  0  0  0  0  0  0
    6.1640   43.0830   50.1000 C   0  0  0  0  0  0  0  0  0  0  0  0
    7.3860   43.4150   49.2940 C   0  0  0  0  0  0  0  0  0  0  0  0
    7.1410   43.1710   47.9550 F   0  0  0  0  0  0  0  0  0  0  0  0
    8.4440   42.6300   49.7130 F   0  0  0  0  0  0  0  0  0  0  0  0
    7.7250   44.7470   49.4510 F   0  0  0  0  0  0  0  0  0  0  0  0
    5.6970   41.8050   50.1380 N   0  0  0  0  0  0  0  0  0  0  0  0
    4.5820   41.4670   50.8370 C   0  0  0  0  0  0  0  0  0  0  0  0
    3.8740   42.4430   51.5430 C   0  0  0  0  0  0  0  0  0  0  0  0
    2.7470   42.0970   52.2160 F   0  0  0  0  0  0  0  0  0  0  0  0
    4.4530   47.0970   52.7380 N   0  0  0  0  0  0  0  0  0  0  0  0
    5.5000   47.6510   53.3320 N   0  0  0  0  0  0  0  0  0  0  0  0
   10.9196   46.1353   52.7825 H   0  0  0  0  0  0  0  0  0  0  0  0
   10.3383   45.3182   51.2921 H   0  0  0  0  0  0  0  0  0  0  0  0
   10.6199   47.0923   51.2921 H   0  0  0  0  0  0  0  0  0  0  0  0
    8.2998   46.9855   51.5206 H   0  0  0  0  0  0  0  0  0  0  0  0
    8.4012   45.4780   52.5523 H   0  0  0  0  0  0  0  0  0  0  0  0
    9.8355   47.2967   55.4801 H   0  0  0  0  0  0  0  0  0  0  0  0
   10.5921   46.3843   54.1304 H   0  0  0  0  0  0  0  0  0  0  0  0
   10.6256   48.1802   54.1304 H   0  0  0  0  0  0  0  0  0  0  0  0
    9.2020   49.2060   53.4590 H   0  0  0  0  0  0  0  0  0  0  0  0
    7.8453   45.8359   54.9655 H   0  0  0  0  0  0  0  0  0  0  0  0
    7.4011   47.5761   55.3255 H   0  0  0  0  0  0  0  0  0  0  0  0
    5.9314   44.4414   53.8345 H   0  0  0  0  0  0  0  0  0  0  0  0
    2.9043   44.4119   52.9936 H   0  0  0  0  0  0  0  0  0  0  0  0
    2.9548   45.4039   51.4959 H   0  0  0  0  0  0  0  0  0  0  0  0
    5.8459   45.1276   50.7661 H   0  0  0  0  0  0  0  0  0  0  0  0
    4.2360   40.4229   50.8471 H   0  0  0  0  0  0  0  0  0  0  0  0
  1  2  1  0
  2  3  1  0
  3  4  1  0
  3  5  1  6
  3  6  1  0
  6  7  1  0
  7  8  2  0
  8  9  1  0
  9 10  1  0
 10 11  1  0
 11 12  2  0
 12 13  1  0
 13 14  1  0
 14 15  1  0
 14 16  1  0
 14 17  1  0
 13 18  2  0
 18 19  1  0
 19 20  2  0
 20 21  1  0
  9 22  1  0
 22 23  2  0
 23  7  1  0
 20 11  1  0
  1 24  1  0
  1 25  1  0
  1 26  1  0
  2 27  1  0
  2 28  1  0
  4 29  1  0
  4 30  1  0
  4 31  1  0
  5 32  1  0
  6 33  1  0
  6 34  1  0
  8 35  1  0
 10 36  1  0
 10 37  1  0
 12 38  1  0
 19 39  1  0
M  END
>  <meeko>  (1) 
{"is_sidechain": [false], "free_energy": -8.633, "intermolecular_energy": -11.913, "internal_energy": -0.776}

$$$$
ligand_76_conformer_1_docked
     RDKit          3D

 39 40  0  0  0  0  0  0  0  0999 V2000
    2.8820   42.5890   51.2330 C   0  0  0  0  0  0  0  0  0  0  0  0
    1.4700   43.1650   51.3720 C   0  0  0  0  0  0  0  0  0  0  0  0
    0.8590   42.9970   52.7950 C   0  0  1  0  0  0  0  0  0  0  0  0
   -0.5310   42.3350   52.6760 C   0  0  0  0  0  0  0  0  0  0  0  0
    1.6890   42.1660   53.5750 O   0  0  0  0  0  0  0  0  0  0  0  0
    0.7350   44.3530   53.5470 C   0  0  0  0  0  0  0  0  0  0  0  0
    2.0410   45.0720   53.7360 C   0  0  0  0  0  0  0  0  0  0  0  0
    2.4500   46.2160   53.0880 C   0  0  0  0  0  0  0  0  0  0  0  0
    3.7010   46.4540   53.5150 N   0  0  0  0  0  0  0  0  0  0  0  0
    4.6070   47.4820   53.0170 C   0  0  0  0  0  0  0  0  0  0  0  0
    5.8140   46.8320   52.3950 C   0  0  0  0  0  0  0  0  0  0  0  0
    7.0860   47.0590   52.9380 C   0  0  0  0  0  0  0  0  0  0  0  0
    8.2150   46.5030   52.3210 C   0  0  0  0  0  0  0  0  0  0  0  0
    9.5850   46.7490   52.8830 C   0  0  0  0  0  0  0  0  0  0  0  0
    9.6220   47.9900   53.4940 F   0  0  0  0  0  0  0  0  0  0  0  0
   10.5170   46.7160   51.8640 F   0  0  0  0  0  0  0  0  0  0  0  0
    9.9070   45.7820   53.8190 F   0  0  0  0  0  0  0  0  0  0  0  0
    8.0650   45.7580   51.1910 N   0  0  0  0  0  0  0  0  0  0  0  0
    6.8460   45.5310   50.6370 C   0  0  0  0  0  0  0  0  0  0  0  0
    5.6970   46.0700   51.2220 C   0  0  0  0  0  0  0  0  0  0  0  0
    4.4880   45.8580   50.6430 F   0  0  0  0  0  0  0  0  0  0  0  0
    4.0460   45.4990   54.3650 N   0  0  0  0  0  0  0  0  0  0  0  0
    3.0460   44.6430   54.5250 N   0  0  0  0  0  0  0  0  0  0  0  0
    3.3073   42.4155   52.2325 H   0  0  0  0  0  0  0  0  0  0  0  0
    2.8373   41.6372   50.6833 H   0  0  0  0  0  0  0  0  0  0  0  0
    3.5158   43.3005   50.6833 H   0  0  0  0  0  0  0  0  0  0  0  0
    1.5088   44.2387   51.1359 H   0  0  0  0  0  0  0  0  0  0  0  0
    0.8259   42.6041   50.6788 H   0  0  0  0  0  0  0  0  0  0  0  0
   -0.9332   42.1434   53.6817 H   0  0  0  0  0  0  0  0  0  0  0  0
   -1.2112   43.0059   52.1307 H   0  0  0  0  0  0  0  0  0  0  0  0
   -0.4388   41.3841   52.1307 H   0  0  0  0  0  0  0  0  0  0  0  0
    1.1960   41.3240   53.7630 H   0  0  0  0  0  0  0  0  0  0  0  0
    0.0612   45.0060   52.9728 H   0  0  0  0  0  0  0  0  0  0  0  0
    0.3508   44.1241   54.5520 H   0  0  0  0  0  0  0  0  0  0  0  0
    1.8708   46.8128   52.3680 H   0  0  0  0  0  0  0  0  0  0  0  0
    4.0894   48.0917   52.2618 H   0  0  0  0  0  0  0  0  0  0  0  0
    4.9265   48.1234   53.8516 H   0  0  0  0  0  0  0  0  0  0  0  0
    7.1978   47.6712   53.8450 H   0  0  0  0  0  0  0  0  0  0  0  0
    6.7628   44.9212   49.7253 H   0  0  0  0  0  0  0  0  0  0  0  0
  1  2  1  0
  2  3  1  0
  3  4  1  0
  3  5  1  1
  3  6  1  0
  6  7  1  0
  7  8  2  0
  8  9  1  0
  9 10  1  0
 10 11  1  0
 11 12  2  0
 12 13  1  0
 13 14  1  0
 14 15  1  0
 14 16  1  0
 14 17  1  0
 13 18  2  0
 18 19  1  0
 19 20  2  0
 20 21  1  0
  9 22  1  0
 22 23  2  0
 23  7  1  0
 20 11  1  0
  1 24  1  0
  1 25  1  0
  1 26  1  0
  2 27  1  0
  2 28  1  0
  4 29  1  0
  4 30  1  0
  4 31  1  0
  5 32  1  0
  6 33  1  0
  6 34  1  0
  8 35  1  0
 10 36  1  0
 10 37  1  0
 12 38  1  0
 19 39  1  0
M  END
>  <meeko>  (2) 
{"is_sidechain": [false], "free_energy": -8.158, "intermolecular_energy": -10.995, "internal_energy": -1.039}

$$$$
ligand_76_conformer_1_docked
     RDKit          3D

 39 40  0  0  0  0  0  0  0  0999 V2000
    0.1610   42.4250   53.4780 C   0  0  0  0  0  0  0  0  0  0  0  0
   -0.1590   43.8930   53.7730 C   0  0  0  0  0  0  0  0  0  0  0  0
   -0.1660   44.8020   52.5080 C   0  0  1  0  0  0  0  0  0  0  0  0
   -1.6270   45.1100   52.1120 C   0  0  0  0  0  0  0  0  0  0  0  0
    0.4890   46.0180   52.7910 O   0  0  0  0  0  0  0  0  0  0  0  0
    0.5790   44.1500   51.3090 C   0  0  0  0  0  0  0  0  0  0  0  0
    2.0250   44.5430   51.1990 C   0  0  0  0  0  0  0  0  0  0  0  0
    3.1160   43.7700   51.5320 C   0  0  0  0  0  0  0  0  0  0  0  0
    4.1930   44.5490   51.3390 N   0  0  0  0  0  0  0  0  0  0  0  0
    5.5720   44.2220   51.6800 C   0  0  0  0  0  0  0  0  0  0  0  0
    6.0820   45.1950   52.7080 C   0  0  0  0  0  0  0  0  0  0  0  0
    7.1020   46.0960   52.3710 C   0  0  0  0  0  0  0  0  0  0  0  0
    7.6180   46.9590   53.3470 C   0  0  0  0  0  0  0  0  0  0  0  0
    8.7200   47.9190   53.0030 C   0  0  0  0  0  0  0  0  0  0  0  0
    9.3190   48.3770   54.1640 F   0  0  0  0  0  0  0  0  0  0  0  0
    8.1980   48.9930   52.3070 F   0  0  0  0  0  0  0  0  0  0  0  0
    9.6790   47.2990   52.2210 F   0  0  0  0  0  0  0  0  0  0  0  0
    7.1310   46.9060   54.6170 N   0  0  0  0  0  0  0  0  0  0  0  0
    6.1510   46.0350   54.9750 C   0  0  0  0  0  0  0  0  0  0  0  0
    5.6130   45.1580   54.0300 C   0  0  0  0  0  0  0  0  0  0  0  0
    4.6520   44.2760   54.4070 F   0  0  0  0  0  0  0  0  0  0  0  0
    3.7850   45.7390   50.9250 N   0  0  0  0  0  0  0  0  0  0  0  0
    2.4640   45.7620   50.8230 N   0  0  0  0  0  0  0  0  0  0  0  0
    0.2802   41.8782   54.4250 H   0  0  0  0  0  0  0  0  0  0  0  0
   -0.6612   41.9798   52.8985 H   0  0  0  0  0  0  0  0  0  0  0  0
    1.0939   42.3624   52.8985 H   0  0  0  0  0  0  0  0  0  0  0  0
   -1.1527   43.9438   54.2419 H   0  0  0  0  0  0  0  0  0  0  0  0
    0.6376   44.2681   54.4323 H   0  0  0  0  0  0  0  0  0  0  0  0
   -2.2339   45.2380   53.0204 H   0  0  0  0  0  0  0  0  0  0  0  0
   -1.6584   46.0345   51.5168 H   0  0  0  0  0  0  0  0  0  0  0  0
   -2.0290   44.2769   51.5168 H   0  0  0  0  0  0  0  0  0  0  0  0
    1.4690   45.8560   52.7650 H   0  0  0  0  0  0  0  0  0  0  0  0
    0.5256   43.0571   51.4220 H   0  0  0  0  0  0  0  0  0  0  0  0
    0.0825   44.5071   50.3947 H   0  0  0  0  0  0  0  0  0  0  0  0
    3.1068   42.7279   51.8840 H   0  0  0  0  0  0  0  0  0  0  0  0
    5.6160   43.2015   52.0883 H   0  0  0  0  0  0  0  0  0  0  0  0
    6.1964   44.2844   50.7765 H   0  0  0  0  0  0  0  0  0  0  0  0
    7.4957   46.1253   51.3443 H   0  0  0  0  0  0  0  0  0  0  0  0
    5.7808   46.0206   56.0107 H   0  0  0  0  0  0  0  0  0  0  0  0
  1  2  1  0
  2  3  1  0
  3  4  1  0
  3  5  1  1
  3  6  1  0
  6  7  1  0
  7  8  2  0
  8  9  1  0
  9 10  1  0
 10 11  1  0
 11 12  2  0
 12 13  1  0
 13 14  1  0
 14 15  1  0
 14 16  1  0
 14 17  1  0
 13 18  2  0
 18 19  1  0
 19 20  2  0
 20 21  1  0
  9 22  1  0
 22 23  2  0
 23  7  1  0
 20 11  1  0
  1 24  1  0
  1 25  1  0
  1 26  1  0
  2 27  1  0
  2 28  1  0
  4 29  1  0
  4 30  1  0
  4 31  1  0
  5 32  1  0
  6 33  1  0
  6 34  1  0
  8 35  1  0
 10 36  1  0
 10 37  1  0
 12 38  1  0
 19 39  1  0
M  END
>  <meeko>  (3) 
{"is_sidechain": [false], "free_energy": -7.802, "intermolecular_energy": -10.567, "internal_energy": -0.975}

$$$$
ligand_76_conformer_1_docked
     RDKit          3D

 39 40  0  0  0  0  0  0  0  0999 V2000
   10.3400   45.9120   51.7980 C   0  0  0  0  0  0  0  0  0  0  0  0
    9.2110   46.9250   52.0080 C   0  0  0  0  0  0  0  0  0  0  0  0
    8.9280   47.2510   53.5050 C   0  0  1  0  0  0  0  0  0  0  0  0
   10.2440   47.1390   54.3060 C   0  0  0  0  0  0  0  0  0  0  0  0
    8.4420   48.5690   53.6210 O   0  0  0  0  0  0  0  0  0  0  0  0
    7.8540   46.3110   54.1210 C   0  0  0  0  0  0  0  0  0  0  0  0
    6.4420   46.6740   53.7580 C   0  0  0  0  0  0  0  0  0  0  0  0
    5.7150   46.1870   52.6930 C   0  0  0  0  0  0  0  0  0  0  0  0
    4.5400   46.8380   52.7200 N   0  0  0  0  0  0  0  0  0  0  0  0
    3.4850   46.7630   51.7170 C   0  0  0  0  0  0  0  0  0  0  0  0
    2.9090   45.3730   51.6930 C   0  0  0  0  0  0  0  0  0  0  0  0
    3.6980   44.2980   51.2590 C   0  0  0  0  0  0  0  0  0  0  0  0
    3.1410   43.0140   51.1790 C   0  0  0  0  0  0  0  0  0  0  0  0
    3.9700   41.8570   50.7040 C   0  0  0  0  0  0  0  0  0  0  0  0
    3.2040   41.0350   49.8970 F   0  0  0  0  0  0  0  0  0  0  0  0
    4.4220   41.1340   51.7920 F   0  0  0  0  0  0  0  0  0  0  0  0
    5.0600   42.3050   49.9780 F   0  0  0  0  0  0  0  0  0  0  0  0
    1.8340   42.8270   51.5120 N   0  0  0  0  0  0  0  0  0  0  0  0
    1.0430   43.8520   51.9240 C   0  0  0  0  0  0  0  0  0  0  0  0
    1.5620   45.1460   52.0150 C   0  0  0  0  0  0  0  0  0  0  0  0
    0.7540   46.1650   52.4030 F   0  0  0  0  0  0  0  0  0  0  0  0
    4.5510   47.6880   53.7350 N   0  0  0  0  0  0  0  0  0  0  0  0
    5.7000   47.6030   54.3920 N   0  0  0  0  0  0  0  0  0  0  0  0
   10.7162   45.5745   52.7750 H   0  0  0  0  0  0  0  0  0  0  0  0
    9.9576   45.0484   51.2341 H   0  0  0  0  0  0  0  0  0  0  0  0
   11.1572   46.3854   51.2341 H   0  0  0  0  0  0  0  0  0  0  0  0
    9.4837   47.8592   51.4953 H   0  0  0  0  0  0  0  0  0  0  0  0
    8.2950   46.4724   51.6003 H   0  0  0  0  0  0  0  0  0  0  0  0
   10.0205   47.1580   55.3829 H   0  0  0  0  0  0  0  0  0  0  0  0
   10.7482   46.1947   54.0528 H   0  0  0  0  0  0  0  0  0  0  0  0
   10.9005   47.9845   54.0528 H   0  0  0  0  0  0  0  0  0  0  0  0
    8.0070   48.8170   52.7620 H   0  0  0  0  0  0  0  0  0  0  0  0
    8.0487   45.2868   53.7700 H   0  0  0  0  0  0  0  0  0  0  0  0
    7.9361   46.4078   55.2137 H   0  0  0  0  0  0  0  0  0  0  0  0
    6.0320   45.4219   51.9691 H   0  0  0  0  0  0  0  0  0  0  0  0
    2.6919   47.4837   51.9653 H   0  0  0  0  0  0  0  0  0  0  0  0
    3.9034   47.0021   50.7282 H   0  0  0  0  0  0  0  0  0  0  0  0
    4.7500   44.4616   50.9824 H   0  0  0  0  0  0  0  0  0  0  0  0
   -0.0083   43.6627   52.1865 H   0  0  0  0  0  0  0  0  0  0  0  0
  1  2  1  0
  2  3  1  0
  3  4  1  0
  3  5  1  6
  3  6  1  0
  6  7  1  0
  7  8  2  0
  8  9  1  0
  9 10  1  0
 10 11  1  0
 11 12  2  0
 12 13  1  0
 13 14  1  0
 14 15  1  0
 14 16  1  0
 14 17  1  0
 13 18  2  0
 18 19  1  0
 19 20  2  0
 20 21  1  0
  9 22  1  0
 22 23  2  0
 23  7  1  0
 20 11  1  0
  1 24  1  0
  1 25  1  0
  1 26  1  0
  2 27  1  0
  2 28  1  0
  4 29  1  0
  4 30  1  0
  4 31  1  0
  5 32  1  0
  6 33  1  0
  6 34  1  0
  8 35  1  0
 10 36  1  0
 10 37  1  0
 12 38  1  0
 19 39  1  0
M  END
>  <meeko>  (4) 
{"is_sidechain": [false], "free_energy": -7.622, "intermolecular_energy": -10.795, "internal_energy": -0.5}

$$$$
ligand_76_conformer_1_docked
     RDKit          3D

 39 40  0  0  0  0  0  0  0  0999 V2000
   10.4550   45.9860   51.8510 C   0  0  0  0  0  0  0  0  0  0  0  0
    9.2920   46.9780   51.9370 C   0  0  0  0  0  0  0  0  0  0  0  0
    8.8810   47.3420   53.3950 C   0  0  1  0  0  0  0  0  0  0  0  0
   10.1300   47.2880   54.3020 C   0  0  0  0  0  0  0  0  0  0  0  0
    8.3560   48.6500   53.4290 O   0  0  0  0  0  0  0  0  0  0  0  0
    7.7830   46.3930   53.9520 C   0  0  0  0  0  0  0  0  0  0  0  0
    6.4250   46.6030   53.3440 C   0  0  0  0  0  0  0  0  0  0  0  0
    5.8830   45.9130   52.2830 C   0  0  0  0  0  0  0  0  0  0  0  0
    4.6910   46.4820   52.0420 N   0  0  0  0  0  0  0  0  0  0  0  0
    3.7980   46.1860   50.9290 C   0  0  0  0  0  0  0  0  0  0  0  0
    2.8480   45.0870   51.3220 C   0  0  0  0  0  0  0  0  0  0  0  0
    1.6020   45.4080   51.8800 C   0  0  0  0  0  0  0  0  0  0  0  0
    0.7450   44.3820   52.3030 C   0  0  0  0  0  0  0  0  0  0  0  0
   -0.5860   44.7110   52.9140 C   0  0  0  0  0  0  0  0  0  0  0  0
   -0.4110   45.1010   54.2300 F   0  0  0  0  0  0  0  0  0  0  0  0
   -1.4020   43.5960   52.8740 F   0  0  0  0  0  0  0  0  0  0  0  0
   -1.1980   45.7410   52.2220 F   0  0  0  0  0  0  0  0  0  0  0  0
    1.1360   43.0840   52.1780 N   0  0  0  0  0  0  0  0  0  0  0  0
    2.3420   42.7450   51.6510 C   0  0  0  0  0  0  0  0  0  0  0  0
    3.2250   43.7390   51.2210 C   0  0  0  0  0  0  0  0  0  0  0  0
    4.4370   43.3870   50.7210 F   0  0  0  0  0  0  0  0  0  0  0  0
    4.5180   47.4780   52.8970 N   0  0  0  0  0  0  0  0  0  0  0  0
    5.5600   47.5700   53.7110 N   0  0  0  0  0  0  0  0  0  0  0  0
   10.7778   45.7106   52.8659 H   0  0  0  0  0  0  0  0  0  0  0  0
   10.1285   45.0840   51.3127 H   0  0  0  0  0  0  0  0  0  0  0  0
   11.2942   46.4507   51.3127 H   0  0  0  0  0  0  0  0  0  0  0  0
    9.5861   47.9026   51.4187 H   0  0  0  0  0  0  0  0  0  0  0  0
    8.4220   46.4920   51.4713 H   0  0  0  0  0  0  0  0  0  0  0  0
    9.8181   47.3015   55.3568 H   0  0  0  0  0  0  0  0  0  0  0  0
   10.6919   46.3647   54.0976 H   0  0  0  0  0  0  0  0  0  0  0  0
   10.7695   48.1593   54.0976 H   0  0  0  0  0  0  0  0  0  0  0  0
    7.9450   48.7960   54.3220 H   0  0  0  0  0  0  0  0  0  0  0  0
    8.0920   45.3554   53.7574 H   0  0  0  0  0  0  0  0  0  0  0  0
    7.6877   46.6135   55.0254 H   0  0  0  0  0  0  0  0  0  0  0  0
    6.3345   45.0678   51.7428 H   0  0  0  0  0  0  0  0  0  0  0  0
    3.2258   47.0887   50.6687 H   0  0  0  0  0  0  0  0  0  0  0  0
    4.3912   45.8628   50.0609 H   0  0  0  0  0  0  0  0  0  0  0  0
    1.2984   46.4600   51.9853 H   0  0  0  0  0  0  0  0  0  0  0  0
    2.6237   41.6854   51.5627 H   0  0  0  0  0  0  0  0  0  0  0  0
  1  2  1  0
  2  3  1  0
  3  4  1  0
  3  5  1  6
  3  6  1  0
  6  7  1  0
  7  8  2  0
  8  9  1  0
  9 10  1  0
 10 11  1  0
 11 12  2  0
 12 13  1  0
 13 14  1  0
 14 15  1  0
 14 16  1  0
 14 17  1  0
 13 18  2  0
 18 19  1  0
 19 20  2  0
 20 21  1  0
  9 22  1  0
 22 23  2  0
 23  7  1  0
 20 11  1  0
  1 24  1  0
  1 25  1  0
  1 26  1  0
  2 27  1  0
  2 28  1  0
  4 29  1  0
  4 30  1  0
  4 31  1  0
  5 32  1  0
  6 33  1  0
  6 34  1  0
  8 35  1  0
 10 36  1  0
 10 37  1  0
 12 38  1  0
 19 39  1  0
M  END
>  <meeko>  (5) 
{"is_sidechain": [false], "free_energy": -7.465, "intermolecular_energy": -10.216, "internal_energy": -0.862}

$$$$
