ligand_53_conformer_4_docked
     RDKit          3D

 38 40  0  0  0  0  0  0  0  0999 V2000
    1.1120   45.6380   54.9450 N   0  0  0  0  0  0  0  0  0  0  0  0
    2.2480   45.5310   54.7550 C   0  0  0  0  0  0  0  0  0  0  0  0
    3.6600   45.3990   54.5180 C   0  0  0  0  0  0  0  0  0  0  0  0
    4.1770   45.5380   53.2280 C   0  0  0  0  0  0  0  0  0  0  0  0
    5.5630   45.4080   53.0370 C   0  0  0  0  0  0  0  0  0  0  0  0
    6.1680   45.5470   51.7260 N   0  0  0  0  0  0  0  0  0  0  0  0
    7.5110   46.1360   51.6150 C   0  0  0  0  0  0  0  0  0  0  0  0
    7.5350   47.5470   52.2350 C   0  0  0  0  0  0  0  0  0  0  0  0
    8.8380   47.9500   52.9640 C   0  0  1  0  0  0  0  0  0  0  0  0
    8.7500   47.9630   54.4900 C   0  0  0  0  0  0  0  0  0  0  0  0
    9.8360   46.8960   54.5540 C   0  0  2  0  0  0  0  0  0  0  0  0
   10.9900   47.3640   55.1590 F   0  0  0  0  0  0  0  0  0  0  0  0
    9.9440   46.8960   53.0340 C   0  0  0  0  0  0  0  0  0  0  0  0
    5.4760   45.1130   50.5000 C   0  0  0  0  0  0  0  0  0  0  0  0
    5.5060   43.6210   50.3570 C   0  0  0  0  0  0  0  0  0  0  0  0
    6.4920   42.8420   49.7650 C   0  0  0  0  0  0  0  0  0  0  0  0
    6.2240   41.4590   49.8440 C   0  0  0  0  0  0  0  0  0  0  0  0
    5.0780   41.1040   50.4810 N   0  0  0  0  0  0  0  0  0  0  0  0
    4.3880   42.5400   50.9530 S   0  0  0  0  0  0  0  0  0  0  0  0
    6.3500   45.1340   54.1140 N   0  0  0  0  0  0  0  0  0  0  0  0
    5.8280   44.9960   55.3610 C   0  0  0  0  0  0  0  0  0  0  0  0
    4.4930   45.1310   55.5560 N   0  0  0  0  0  0  0  0  0  0  0  0
    3.5114   45.7454   52.3772 H   0  0  0  0  0  0  0  0  0  0  0  0
    8.2319   45.4957   52.1445 H   0  0  0  0  0  0  0  0  0  0  0  0
    7.7798   46.2105   50.5509 H   0  0  0  0  0  0  0  0  0  0  0  0
    7.3651   48.2722   51.4256 H   0  0  0  0  0  0  0  0  0  0  0  0
    6.7538   47.5418   53.0094 H   0  0  0  0  0  0  0  0  0  0  0  0
    9.0124   48.8778   52.3995 H   0  0  0  0  0  0  0  0  0  0  0  0
    9.0331   48.9217   54.9491 H   0  0  0  0  0  0  0  0  0  0  0  0
    7.7853   47.8102   54.9959 H   0  0  0  0  0  0  0  0  0  0  0  0
    9.6625   45.9565   55.0992 H   0  0  0  0  0  0  0  0  0  0  0  0
   10.9170   47.2382   52.6517 H   0  0  0  0  0  0  0  0  0  0  0  0
    9.8590   45.9572   52.4670 H   0  0  0  0  0  0  0  0  0  0  0  0
    4.4291   45.4480   50.5417 H   0  0  0  0  0  0  0  0  0  0  0  0
    5.9919   45.5552   49.6350 H   0  0  0  0  0  0  0  0  0  0  0  0
    7.3888   43.2600   49.2844 H   0  0  0  0  0  0  0  0  0  0  0  0
    6.9051   40.7100   49.4137 H   0  0  0  0  0  0  0  0  0  0  0  0
    6.4885   44.7747   56.2123 H   0  0  0  0  0  0  0  0  0  0  0  0
  1  2  3  0
  2  3  1  0
  3  4  2  0
  4  5  1  0
  5  6  1  0
  6  7  1  0
  7  8  1  0
  8  9  1  0
  9 10  1  0
 10 11  1  0
 11 12  1  0
 11 13  1  0
  6 14  1  0
 14 15  1  0
 15 16  2  0
 16 17  1  0
 17 18  2  0
 18 19  1  0
  5 20  2  0
 20 21  1  0
 21 22  2  0
 22  3  1  0
 13  9  1  0
 19 15  1  0
  4 23  1  0
  7 24  1  0
  7 25  1  0
  8 26  1  0
  8 27  1  0
  9 28  1  6
 10 29  1  0
 10 30  1  0
 11 31  1  1
 13 32  1  0
 13 33  1  0
 14 34  1  0
 14 35  1  0
 16 36  1  0
 17 37  1  0
 21 38  1  0
M  END
>  <meeko>  (1) 
{"is_sidechain": [false], "free_energy": -8.246, "intermolecular_energy": -11.138, "internal_energy": -0.745}

$$$$
ligand_53_conformer_4_docked
     RDKit          3D

 38 40  0  0  0  0  0  0  0  0999 V2000
   10.6840   47.5530   56.0870 N   0  0  0  0  0  0  0  0  0  0  0  0
   10.1700   47.3010   55.0820 C   0  0  0  0  0  0  0  0  0  0  0  0
    9.5300   46.9880   53.8330 C   0  0  0  0  0  0  0  0  0  0  0  0
    8.1380   47.0240   53.7230 C   0  0  0  0  0  0  0  0  0  0  0  0
    7.5490   46.7180   52.4840 C   0  0  0  0  0  0  0  0  0  0  0  0
    6.1120   46.7420   52.2970 N   0  0  0  0  0  0  0  0  0  0  0  0
    5.5180   45.9620   51.2010 C   0  0  0  0  0  0  0  0  0  0  0  0
    5.5050   44.4610   51.5520 C   0  0  0  0  0  0  0  0  0  0  0  0
    5.3230   43.4850   50.3660 C   0  0  1  0  0  0  0  0  0  0  0  0
    6.6170   43.0480   49.6800 C   0  0  0  0  0  0  0  0  0  0  0  0
    6.3150   41.6000   50.0480 C   0  0  2  0  0  0  0  0  0  0  0  0
    6.0960   40.8140   48.9300 F   0  0  0  0  0  0  0  0  0  0  0  0
    5.0110   42.0280   50.7130 C   0  0  0  0  0  0  0  0  0  0  0  0
    5.2260   47.5240   53.1770 C   0  0  0  0  0  0  0  0  0  0  0  0
    4.1170   46.6770   53.7250 C   0  0  0  0  0  0  0  0  0  0  0  0
    2.8130   46.5730   53.2570 C   0  0  0  0  0  0  0  0  0  0  0  0
    2.0380   45.6440   53.9830 C   0  0  0  0  0  0  0  0  0  0  0  0
    2.6700   44.9970   54.9970 N   0  0  0  0  0  0  0  0  0  0  0  0
    4.2200   45.5950   54.9880 S   0  0  0  0  0  0  0  0  0  0  0  0
    8.3570   46.3810   51.4410 N   0  0  0  0  0  0  0  0  0  0  0  0
    9.7090   46.3460   51.5680 C   0  0  0  0  0  0  0  0  0  0  0  0
   10.2860   46.6510   52.7580 N   0  0  0  0  0  0  0  0  0  0  0  0
    7.5142   47.2870   54.5900 H   0  0  0  0  0  0  0  0  0  0  0  0
    4.4860   46.3032   51.0318 H   0  0  0  0  0  0  0  0  0  0  0  0
    6.1200   46.1097   50.2923 H   0  0  0  0  0  0  0  0  0  0  0  0
    6.4614   44.2219   52.0399 H   0  0  0  0  0  0  0  0  0  0  0  0
    4.6221   44.3154   52.1918 H   0  0  0  0  0  0  0  0  0  0  0  0
    4.5730   44.0840   49.8287 H   0  0  0  0  0  0  0  0  0  0  0  0
    6.6402   43.2418   48.5975 H   0  0  0  0  0  0  0  0  0  0  0  0
    7.5783   43.5061   49.9559 H   0  0  0  0  0  0  0  0  0  0  0  0
    7.0521   41.0007   50.6025 H   0  0  0  0  0  0  0  0  0  0  0  0
    4.1067   41.6329   50.2270 H   0  0  0  0  0  0  0  0  0  0  0  0
    4.7887   41.7347   51.7496 H   0  0  0  0  0  0  0  0  0  0  0  0
    5.8162   47.9266   54.0134 H   0  0  0  0  0  0  0  0  0  0  0  0
    4.7814   48.3388   52.5867 H   0  0  0  0  0  0  0  0  0  0  0  0
    2.4248   47.1549   52.4080 H   0  0  0  0  0  0  0  0  0  0  0  0
    0.9817   45.4542   53.7417 H   0  0  0  0  0  0  0  0  0  0  0  0
   10.3357   46.0707   50.7070 H   0  0  0  0  0  0  0  0  0  0  0  0
  1  2  3  0
  2  3  1  0
  3  4  2  0
  4  5  1  0
  5  6  1  0
  6  7  1  0
  7  8  1  0
  8  9  1  0
  9 10  1  0
 10 11  1  0
 11 12  1  0
 11 13  1  0
  6 14  1  0
 14 15  1  0
 15 16  2  0
 16 17  1  0
 17 18  2  0
 18 19  1  0
  5 20  2  0
 20 21  1  0
 21 22  2  0
 22  3  1  0
 13  9  1  0
 19 15  1  0
  4 23  1  0
  7 24  1  0
  7 25  1  0
  8 26  1  0
  8 27  1  0
  9 28  1  6
 10 29  1  0
 10 30  1  0
 11 31  1  1
 13 32  1  0
 13 33  1  0
 14 34  1  0
 14 35  1  0
 16 36  1  0
 17 37  1  0
 21 38  1  0
M  END
>  <meeko>  (2) 
{"is_sidechain": [false], "free_energy": -7.999, "intermolecular_energy": -10.996, "internal_energy": -0.553}

$$$$
ligand_53_conformer_4_docked
     RDKit          3D

 38 40  0  0  0  0  0  0  0  0999 V2000
    3.5750   40.4320   49.9550 N   0  0  0  0  0  0  0  0  0  0  0  0
    4.3460   41.2940   49.9960 C   0  0  0  0  0  0  0  0  0  0  0  0
    5.3030   42.3650   50.0480 C   0  0  0  0  0  0  0  0  0  0  0  0
    5.0920   43.4630   50.8860 C   0  0  0  0  0  0  0  0  0  0  0  0
    6.0530   44.4880   50.9140 C   0  0  0  0  0  0  0  0  0  0  0  0
    5.9010   45.6510   51.7650 N   0  0  0  0  0  0  0  0  0  0  0  0
    7.0110   46.0450   52.6460 C   0  0  0  0  0  0  0  0  0  0  0  0
    7.4460   47.4950   52.3520 C   0  0  0  0  0  0  0  0  0  0  0  0
    8.7610   47.9610   53.0200 C   0  0  1  0  0  0  0  0  0  0  0  0
    8.7450   47.9700   54.5480 C   0  0  0  0  0  0  0  0  0  0  0  0
    9.8840   46.9570   54.5580 C   0  0  2  0  0  0  0  0  0  0  0  0
   11.0420   47.4820   55.1070 F   0  0  0  0  0  0  0  0  0  0  0  0
    9.9200   46.9630   53.0330 C   0  0  0  0  0  0  0  0  0  0  0  0
    4.6670   46.4550   51.7720 C   0  0  0  0  0  0  0  0  0  0  0  0
    3.7410   46.0230   52.8690 C   0  0  0  0  0  0  0  0  0  0  0  0
    4.0770   45.5710   54.1380 C   0  0  0  0  0  0  0  0  0  0  0  0
    2.9510   45.2900   54.9400 C   0  0  0  0  0  0  0  0  0  0  0  0
    1.7370   45.5100   54.3700 N   0  0  0  0  0  0  0  0  0  0  0  0
    2.0760   46.0630   52.8400 S   0  0  0  0  0  0  0  0  0  0  0  0
    7.1470   44.3820   50.1090 N   0  0  0  0  0  0  0  0  0  0  0  0
    7.3320   43.3100   49.2960 C   0  0  0  0  0  0  0  0  0  0  0  0
    6.4150   42.3100   49.2710 N   0  0  0  0  0  0  0  0  0  0  0  0
    4.1899   43.5240   51.5125 H   0  0  0  0  0  0  0  0  0  0  0  0
    6.6853   45.9703   53.6940 H   0  0  0  0  0  0  0  0  0  0  0  0
    7.8639   45.3743   52.4650 H   0  0  0  0  0  0  0  0  0  0  0  0
    7.5686   47.5947   51.2634 H   0  0  0  0  0  0  0  0  0  0  0  0
    6.6569   48.1318   52.7783 H   0  0  0  0  0  0  0  0  0  0  0  0
    8.8625   48.8968   52.4508 H   0  0  0  0  0  0  0  0  0  0  0  0
    9.0025   48.9414   54.9952 H   0  0  0  0  0  0  0  0  0  0  0  0
    7.8140   47.7704   55.0988 H   0  0  0  0  0  0  0  0  0  0  0  0
    9.7823   46.0104   55.1091 H   0  0  0  0  0  0  0  0  0  0  0  0
   10.8555   47.3533   52.6059 H   0  0  0  0  0  0  0  0  0  0  0  0
    9.8551   46.0218   52.4674 H   0  0  0  0  0  0  0  0  0  0  0  0
    4.9295   47.5128   51.9206 H   0  0  0  0  0  0  0  0  0  0  0  0
    4.1546   46.3125   50.8091 H   0  0  0  0  0  0  0  0  0  0  0  0
    5.1141   45.4450   54.4825 H   0  0  0  0  0  0  0  0  0  0  0  0
    3.0500   44.9139   55.9690 H   0  0  0  0  0  0  0  0  0  0  0  0
    8.2257   43.2523   48.6573 H   0  0  0  0  0  0  0  0  0  0  0  0
  1  2  3  0
  2  3  1  0
  3  4  2  0
  4  5  1  0
  5  6  1  0
  6  7  1  0
  7  8  1  0
  8  9  1  0
  9 10  1  0
 10 11  1  0
 11 12  1  0
 11 13  1  0
  6 14  1  0
 14 15  1  0
 15 16  2  0
 16 17  1  0
 17 18  2  0
 18 19  1  0
  5 20  2  0
 20 21  1  0
 21 22  2  0
 22  3  1  0
 13  9  1  0
 19 15  1  0
  4 23  1  0
  7 24  1  0
  7 25  1  0
  8 26  1  0
  8 27  1  0
  9 28  1  6
 10 29  1  0
 10 30  1  0
 11 31  1  1
 13 32  1  0
 13 33  1  0
 14 34  1  0
 14 35  1  0
 16 36  1  0
 17 37  1  0
 21 38  1  0
M  END
>  <meeko>  (3) 
{"is_sidechain": [false], "free_energy": -7.973, "intermolecular_energy": -11.037, "internal_energy": -0.478}

$$$$
ligand_53_conformer_4_docked
     RDKit          3D

 38 40  0  0  0  0  0  0  0  0999 V2000
   -0.3500   41.8930   53.2330 N   0  0  0  0  0  0  0  0  0  0  0  0
    0.4430   42.6830   53.5230 C   0  0  0  0  0  0  0  0  0  0  0  0
    1.4290   43.6650   53.8830 C   0  0  0  0  0  0  0  0  0  0  0  0
    2.5280   43.9020   53.0530 C   0  0  0  0  0  0  0  0  0  0  0  0
    3.4680   44.8740   53.4350 C   0  0  0  0  0  0  0  0  0  0  0  0
    4.6270   45.1750   52.6190 N   0  0  0  0  0  0  0  0  0  0  0  0
    5.8900   45.5470   53.2760 C   0  0  0  0  0  0  0  0  0  0  0  0
    6.1870   47.0450   53.0640 C   0  0  0  0  0  0  0  0  0  0  0  0
    7.5640   47.3870   52.4480 C   0  0  1  0  0  0  0  0  0  0  0  0
    8.6940   47.5910   53.4570 C   0  0  0  0  0  0  0  0  0  0  0  0
    9.4530   46.4260   52.8310 C   0  0  2  0  0  0  0  0  0  0  0  0
   10.6370   46.8340   52.2410 F   0  0  0  0  0  0  0  0  0  0  0  0
    8.3390   46.2340   51.8080 C   0  0  0  0  0  0  0  0  0  0  0  0
    4.5800   45.1160   51.1480 C   0  0  0  0  0  0  0  0  0  0  0  0
    5.2780   43.8960   50.6280 C   0  0  0  0  0  0  0  0  0  0  0  0
    6.4890   43.8300   49.9510 C   0  0  0  0  0  0  0  0  0  0  0  0
    6.8790   42.5100   49.6450 C   0  0  0  0  0  0  0  0  0  0  0  0
    6.0410   41.5240   50.0580 N   0  0  0  0  0  0  0  0  0  0  0  0
    4.7920   42.3140   50.8170 S   0  0  0  0  0  0  0  0  0  0  0  0
    3.2820   45.5390   54.6100 N   0  0  0  0  0  0  0  0  0  0  0  0
    2.2100   45.2910   55.4070 C   0  0  0  0  0  0  0  0  0  0  0  0
    1.2920   44.3620   55.0400 N   0  0  0  0  0  0  0  0  0  0  0  0
    2.6549   43.3377   52.1173 H   0  0  0  0  0  0  0  0  0  0  0  0
    5.8115   45.3424   54.3539 H   0  0  0  0  0  0  0  0  0  0  0  0
    6.7074   44.9562   52.8369 H   0  0  0  0  0  0  0  0  0  0  0  0
    5.4112   47.4501   52.3977 H   0  0  0  0  0  0  0  0  0  0  0  0
    6.1959   47.4889   54.0704 H   0  0  0  0  0  0  0  0  0  0  0  0
    7.2132   48.2169   51.8169 H   0  0  0  0  0  0  0  0  0  0  0  0
    9.2059   48.5607   53.3697 H   0  0  0  0  0  0  0  0  0  0  0  0
    8.4838   47.6059   54.5366 H   0  0  0  0  0  0  0  0  0  0  0  0
    9.7903   45.5828   53.4517 H   0  0  0  0  0  0  0  0  0  0  0  0
    8.6456   46.4200   50.7681 H   0  0  0  0  0  0  0  0  0  0  0  0
    7.8671   45.2496   51.6728 H   0  0  0  0  0  0  0  0  0  0  0  0
    3.5291   45.0927   50.8240 H   0  0  0  0  0  0  0  0  0  0  0  0
    5.0914   46.0044   50.7490 H   0  0  0  0  0  0  0  0  0  0  0  0
    7.0825   44.7160   49.6814 H   0  0  0  0  0  0  0  0  0  0  0  0
    7.8102   42.2909   49.1020 H   0  0  0  0  0  0  0  0  0  0  0  0
    2.0864   45.8436   56.3501 H   0  0  0  0  0  0  0  0  0  0  0  0
  1  2  3  0
  2  3  1  0
  3  4  2  0
  4  5  1  0
  5  6  1  0
  6  7  1  0
  7  8  1  0
  8  9  1  0
  9 10  1  0
 10 11  1  0
 11 12  1  0
 11 13  1  0
  6 14  1  0
 14 15  1  0
 15 16  2  0
 16 17  1  0
 17 18  2  0
 18 19  1  0
  5 20  2  0
 20 21  1  0
 21 22  2  0
 22  3  1  0
 13  9  1  0
 19 15  1  0
  4 23  1  0
  7 24  1  0
  7 25  1  0
  8 26  1  0
  8 27  1  0
  9 28  1  6
 10 29  1  0
 10 30  1  0
 11 31  1  1
 13 32  1  0
 13 33  1  0
 14 34  1  0
 14 35  1  0
 16 36  1  0
 17 37  1  0
 21 38  1  0
M  END
>  <meeko>  (4) 
{"is_sidechain": [false], "free_energy": -7.728, "intermolecular_energy": -10.382, "internal_energy": -0.801}

$$$$
ligand_53_conformer_4_docked
     RDKit          3D

 38 40  0  0  0  0  0  0  0  0999 V2000
   10.3200   47.8430   55.9890 N   0  0  0  0  0  0  0  0  0  0  0  0
    9.9040   47.4470   54.9850 C   0  0  0  0  0  0  0  0  0  0  0  0
    9.3860   46.9550   53.7380 C   0  0  0  0  0  0  0  0  0  0  0  0
    8.0220   46.6940   53.5910 C   0  0  0  0  0  0  0  0  0  0  0  0
    7.5530   46.2200   52.3540 C   0  0  0  0  0  0  0  0  0  0  0  0
    6.1490   45.9350   52.1310 N   0  0  0  0  0  0  0  0  0  0  0  0
    5.2120   46.0130   53.2620 C   0  0  0  0  0  0  0  0  0  0  0  0
    3.9280   46.7600   52.8500 C   0  0  0  0  0  0  0  0  0  0  0  0
    2.6030   46.2080   53.4250 C   0  0  1  0  0  0  0  0  0  0  0  0
    1.8090   45.3090   52.4780 C   0  0  0  0  0  0  0  0  0  0  0  0
    1.9400   44.1600   53.4700 C   0  0  2  0  0  0  0  0  0  0  0  0
    0.7140   43.7780   53.9890 F   0  0  0  0  0  0  0  0  0  0  0  0
    2.7120   45.0590   54.4290 C   0  0  0  0  0  0  0  0  0  0  0  0
    5.6310   45.5730   50.8010 C   0  0  0  0  0  0  0  0  0  0  0  0
    5.5640   44.0850   50.6280 C   0  0  0  0  0  0  0  0  0  0  0  0
    4.6170   43.2090   51.1450 C   0  0  0  0  0  0  0  0  0  0  0  0
    4.8280   41.8720   50.7480 C   0  0  0  0  0  0  0  0  0  0  0  0
    5.8900   41.6480   49.9310 N   0  0  0  0  0  0  0  0  0  0  0  0
    6.5770   43.1430   49.7010 S   0  0  0  0  0  0  0  0  0  0  0  0
    8.4490   46.0150   51.3490 N   0  0  0  0  0  0  0  0  0  0  0  0
    9.7730   46.2690   51.5120 C   0  0  0  0  0  0  0  0  0  0  0  0
   10.2330   46.7380   52.6990 N   0  0  0  0  0  0  0  0  0  0  0  0
    7.3273   46.8565   54.4283 H   0  0  0  0  0  0  0  0  0  0  0  0
    4.9502   44.9949   53.5858 H   0  0  0  0  0  0  0  0  0  0  0  0
    5.6935   46.5612   54.0852 H   0  0  0  0  0  0  0  0  0  0  0  0
    4.0273   47.8049   53.1792 H   0  0  0  0  0  0  0  0  0  0  0  0
    3.8510   46.6342   51.7599 H   0  0  0  0  0  0  0  0  0  0  0  0
    2.2001   47.1767   53.7555 H   0  0  0  0  0  0  0  0  0  0  0  0
    0.7740   45.6393   52.3060 H   0  0  0  0  0  0  0  0  0  0  0  0
    2.1239   45.1828   51.4316 H   0  0  0  0  0  0  0  0  0  0  0  0
    2.3600   43.1946   53.1512 H   0  0  0  0  0  0  0  0  0  0  0  0
    2.1986   45.2450   55.3839 H   0  0  0  0  0  0  0  0  0  0  0  0
    3.6920   44.7489   54.8206 H   0  0  0  0  0  0  0  0  0  0  0  0
    4.6212   45.9931   50.6834 H   0  0  0  0  0  0  0  0  0  0  0  0
    6.3134   45.9802   50.0404 H   0  0  0  0  0  0  0  0  0  0  0  0
    3.7889   43.5254   51.7962 H   0  0  0  0  0  0  0  0  0  0  0  0
    4.1695   41.0564   51.0813 H   0  0  0  0  0  0  0  0  0  0  0  0
   10.4727   46.0944   50.6814 H   0  0  0  0  0  0  0  0  0  0  0  0
  1  2  3  0
  2  3  1  0
  3  4  2  0
  4  5  1  0
  5  6  1  0
  6  7  1  0
  7  8  1  0
  8  9  1  0
  9 10  1  0
 10 11  1  0
 11 12  1  0
 11 13  1  0
  6 14  1  0
 14 15  1  0
 15 16  2  0
 16 17  1  0
 17 18  2  0
 18 19  1  0
  5 20  2  0
 20 21  1  0
 21 22  2  0
 22  3  1  0
 13  9  1  0
 19 15  1  0
  4 23  1  0
  7 24  1  0
  7 25  1  0
  8 26  1  0
  8 27  1  0
  9 28  1  1
 10 29  1  0
 10 30  1  0
 11 31  1  6
 13 32  1  0
 13 33  1  0
 14 34  1  0
 14 35  1  0
 16 36  1  0
 17 37  1  0
 21 38  1  0
M  END
>  <meeko>  (5) 
{"is_sidechain": [false], "free_energy": -7.59, "intermolecular_energy": -10.03, "internal_energy": -0.967}

$$$$
