ligand_94_conformer_4_docked
     RDKit          3D

 52 55  0  0  0  0  0  0  0  0999 V2000
   -0.7810   43.6140   54.5210 C   0  0  0  0  0  0  0  0  0  0  0  0
   -0.3060   42.8240   53.3750 N   0  0  0  0  0  0  0  0  0  0  0  0
   -0.9300   43.2330   52.0990 C   0  0  0  0  0  0  0  0  0  0  0  0
   -0.2900   44.4950   51.5000 C   0  0  0  0  0  0  0  0  0  0  0  0
    1.2240   44.3170   51.3820 C   0  0  0  0  0  0  0  0  0  0  0  0
    1.8560   44.0120   52.7590 C   0  0  1  0  0  0  0  0  0  0  0  0
    1.7570   45.1470   53.7360 N   0  0  0  0  0  0  0  0  0  0  0  0
    2.0640   46.4870   53.1860 C   0  0  0  0  0  0  0  0  0  0  0  0
    3.5320   46.6090   52.7660 C   0  0  0  0  0  0  0  0  0  0  0  0
    4.4270   46.2200   53.8650 N   0  0  0  0  0  0  0  0  0  0  0  0
    5.7800   46.7240   53.9240 C   0  0  0  0  0  0  0  0  0  0  0  0
    6.4350   46.6290   54.9970 O   0  0  0  0  0  0  0  0  0  0  0  0
    6.4580   47.3400   52.7270 C   0  0  0  0  0  0  0  0  0  0  0  0
    6.8820   46.2840   51.7500 C   0  0  0  0  0  0  0  0  0  0  0  0
    8.1010   46.3180   51.0760 C   0  0  0  0  0  0  0  0  0  0  0  0
    8.1670   44.9730   50.0700 S   0  0  0  0  0  0  0  0  0  0  0  0
    6.6580   44.4000   50.5450 C   0  0  0  0  0  0  0  0  0  0  0  0
    6.0140   43.1850   50.0330 C   0  0  0  0  0  0  0  0  0  0  0  0
    6.3790   42.4960   48.8820 C   0  0  0  0  0  0  0  0  0  0  0  0
    5.5880   41.3660   48.6420 C   0  0  0  0  0  0  0  0  0  0  0  0
    4.6020   41.1610   49.5980 C   0  0  0  0  0  0  0  0  0  0  0  0
    4.7150   42.3870   50.7440 S   0  0  0  0  0  0  0  0  0  0  0  0
    6.0910   45.2150   51.4600 N   0  0  0  0  0  0  0  0  0  0  0  0
    4.0860   45.0440   54.6830 C   0  0  0  0  0  0  0  0  0  0  0  0
    2.5760   44.9580   54.9580 C   0  0  0  0  0  0  0  0  0  0  0  0
    1.1690   42.7210   53.2910 C   0  0  0  0  0  0  0  0  0  0  0  0
   -0.4830   43.1184   55.4567 H   0  0  0  0  0  0  0  0  0  0  0  0
   -0.3379   44.6200   54.4817 H   0  0  0  0  0  0  0  0  0  0  0  0
   -1.8774   43.6944   54.4817 H   0  0  0  0  0  0  0  0  0  0  0  0
   -0.8256   42.4096   51.3771 H   0  0  0  0  0  0  0  0  0  0  0  0
   -1.9855   43.4635   52.3058 H   0  0  0  0  0  0  0  0  0  0  0  0
   -0.7129   44.6772   50.5010 H   0  0  0  0  0  0  0  0  0  0  0  0
   -0.4995   45.3501   52.1595 H   0  0  0  0  0  0  0  0  0  0  0  0
    1.4356   43.4830   50.6967 H   0  0  0  0  0  0  0  0  0  0  0  0
    1.6574   45.2520   50.9974 H   0  0  0  0  0  0  0  0  0  0  0  0
    2.9395   43.8654   52.6386 H   0  0  0  0  0  0  0  0  0  0  0  0
    1.4267   46.6654   52.3074 H   0  0  0  0  0  0  0  0  0  0  0  0
    1.8714   47.2310   53.9730 H   0  0  0  0  0  0  0  0  0  0  0  0
    3.7152   45.9522   51.9029 H   0  0  0  0  0  0  0  0  0  0  0  0
    3.7356   47.6572   52.5018 H   0  0  0  0  0  0  0  0  0  0  0  0
    5.7581   48.0289   52.2315 H   0  0  0  0  0  0  0  0  0  0  0  0
    7.3522   47.8814   53.0695 H   0  0  0  0  0  0  0  0  0  0  0  0
    8.8803   47.0870   51.1830 H   0  0  0  0  0  0  0  0  0  0  0  0
    7.2056   42.8071   48.2263 H   0  0  0  0  0  0  0  0  0  0  0  0
    5.7340   40.7025   47.7769 H   0  0  0  0  0  0  0  0  0  0  0  0
    3.8722   40.3380   49.6047 H   0  0  0  0  0  0  0  0  0  0  0  0
    4.4031   44.1355   54.1500 H   0  0  0  0  0  0  0  0  0  0  0  0
    4.6045   45.1373   55.6486 H   0  0  0  0  0  0  0  0  0  0  0  0
    2.3518   43.9679   55.3815 H   0  0  0  0  0  0  0  0  0  0  0  0
    2.3201   45.7684   55.6565 H   0  0  0  0  0  0  0  0  0  0  0  0
    1.4214   41.8898   52.6162 H   0  0  0  0  0  0  0  0  0  0  0  0
    1.5390   42.5576   54.3139 H   0  0  0  0  0  0  0  0  0  0  0  0
  1  2  1  0
  2  3  1  0
  3  4  1  0
  4  5  1  0
  5  6  1  0
  6  7  1  0
  7  8  1  0
  8  9  1  0
  9 10  1  0
 10 11  1  0
 11 12  2  0
 11 13  1  0
 13 14  1  0
 14 15  2  0
 15 16  1  0
 16 17  1  0
 17 18  1  0
 18 19  2  0
 19 20  1  0
 20 21  2  0
 21 22  1  0
 17 23  2  0
 10 24  1  0
 24 25  1  0
  6 26  1  0
 26  2  1  0
 25  7  1  0
 23 14  1  0
 22 18  1  0
  1 27  1  0
  1 28  1  0
  1 29  1  0
  3 30  1  0
  3 31  1  0
  4 32  1  0
  4 33  1  0
  5 34  1  0
  5 35  1  0
  6 36  1  6
  8 37  1  0
  8 38  1  0
  9 39  1  0
  9 40  1  0
 13 41  1  0
 13 42  1  0
 15 43  1  0
 19 44  1  0
 20 45  1  0
 21 46  1  0
 24 47  1  0
 24 48  1  0
 25 49  1  0
 25 50  1  0
 26 51  1  0
 26 52  1  0
M  END
>  <meeko>  (1) 
{"is_sidechain": [false], "free_energy": -7.942, "intermolecular_energy": -9.799, "internal_energy": -0.446}

$$$$
ligand_94_conformer_4_docked
     RDKit          3D

 52 55  0  0  0  0  0  0  0  0999 V2000
   -3.9800   43.7850   53.9220 C   0  0  0  0  0  0  0  0  0  0  0  0
   -3.3470   45.0590   54.2990 N   0  0  0  0  0  0  0  0  0  0  0  0
   -3.0620   45.1510   55.7470 C   0  0  0  0  0  0  0  0  0  0  0  0
   -1.7880   44.3930   56.1530 C   0  0  0  0  0  0  0  0  0  0  0  0
   -0.6070   44.8420   55.2930 C   0  0  0  0  0  0  0  0  0  0  0  0
   -0.8960   44.6150   53.7900 C   0  0  1  0  0  0  0  0  0  0  0  0
   -1.0190   43.1700   53.4090 N   0  0  0  0  0  0  0  0  0  0  0  0
    0.0480   42.2830   53.9260 C   0  0  0  0  0  0  0  0  0  0  0  0
    1.4130   42.6160   53.3150 C   0  0  0  0  0  0  0  0  0  0  0  0
    1.3400   42.6340   51.8470 N   0  0  0  0  0  0  0  0  0  0  0  0
    2.5240   42.4000   51.0510 C   0  0  0  0  0  0  0  0  0  0  0  0
    2.4080   42.1270   49.8260 O   0  0  0  0  0  0  0  0  0  0  0  0
    3.9120   42.5000   51.6300 C   0  0  0  0  0  0  0  0  0  0  0  0
    4.3580   43.9300   51.7050 C   0  0  0  0  0  0  0  0  0  0  0  0
    3.5190   45.0050   51.4210 C   0  0  0  0  0  0  0  0  0  0  0  0
    4.4140   46.4150   51.6020 S   0  0  0  0  0  0  0  0  0  0  0  0
    5.8190   45.6040   52.0480 C   0  0  0  0  0  0  0  0  0  0  0  0
    7.1000   46.2420   52.3680 C   0  0  0  0  0  0  0  0  0  0  0  0
    8.1270   46.4990   51.4660 C   0  0  0  0  0  0  0  0  0  0  0  0
    9.2330   47.1250   52.0530 C   0  0  0  0  0  0  0  0  0  0  0  0
    9.0830   47.3630   53.4130 C   0  0  0  0  0  0  0  0  0  0  0  0
    7.5720   46.7940   53.8850 S   0  0  0  0  0  0  0  0  0  0  0  0
    5.6280   44.2670   52.0610 N   0  0  0  0  0  0  0  0  0  0  0  0
    0.1740   43.2520   51.1950 C   0  0  0  0  0  0  0  0  0  0  0  0
   -1.1310   42.9430   51.9480 C   0  0  0  0  0  0  0  0  0  0  0  0
   -2.1850   45.4210   53.4560 C   0  0  0  0  0  0  0  0  0  0  0  0
   -4.2559   43.2297   54.8306 H   0  0  0  0  0  0  0  0  0  0  0  0
   -4.8829   43.9862   53.3268 H   0  0  0  0  0  0  0  0  0  0  0  0
   -3.2743   43.1869   53.3268 H   0  0  0  0  0  0  0  0  0  0  0  0
   -2.9405   46.2110   56.0146 H   0  0  0  0  0  0  0  0  0  0  0  0
   -3.9060   44.6894   56.2805 H   0  0  0  0  0  0  0  0  0  0  0  0
   -1.5654   44.5978   57.2106 H   0  0  0  0  0  0  0  0  0  0  0  0
   -1.9500   43.3153   56.0039 H   0  0  0  0  0  0  0  0  0  0  0  0
   -0.4228   45.9126   55.4660 H   0  0  0  0  0  0  0  0  0  0  0  0
    0.2756   44.2483   55.5732 H   0  0  0  0  0  0  0  0  0  0  0  0
   -0.0407   44.9687   53.1956 H   0  0  0  0  0  0  0  0  0  0  0  0
    0.1092   42.3993   55.0181 H   0  0  0  0  0  0  0  0  0  0  0  0
   -0.2055   41.2485   53.6513 H   0  0  0  0  0  0  0  0  0  0  0  0
    1.7356   43.6053   53.6717 H   0  0  0  0  0  0  0  0  0  0  0  0
    2.1334   41.8434   53.6217 H   0  0  0  0  0  0  0  0  0  0  0  0
    3.9121   42.0690   52.6420 H   0  0  0  0  0  0  0  0  0  0  0  0
    4.6057   41.9489   50.9780 H   0  0  0  0  0  0  0  0  0  0  0  0
    2.4600   44.9419   51.1303 H   0  0  0  0  0  0  0  0  0  0  0  0
    8.0754   46.2368   50.3990 H   0  0  0  0  0  0  0  0  0  0  0  0
   10.1363   47.4024   51.4898 H   0  0  0  0  0  0  0  0  0  0  0  0
    9.8250   47.8415   54.0690 H   0  0  0  0  0  0  0  0  0  0  0  0
    0.3186   44.3420   51.1655 H   0  0  0  0  0  0  0  0  0  0  0  0
    0.0898   42.8370   50.1798 H   0  0  0  0  0  0  0  0  0  0  0  0
   -1.9271   43.5904   51.5518 H   0  0  0  0  0  0  0  0  0  0  0  0
   -1.3574   41.8775   51.7948 H   0  0  0  0  0  0  0  0  0  0  0  0
   -1.9725   46.4909   53.5981 H   0  0  0  0  0  0  0  0  0  0  0  0
   -2.4542   45.1817   52.4166 H   0  0  0  0  0  0  0  0  0  0  0  0
  1  2  1  0
  2  3  1  0
  3  4  1  0
  4  5  1  0
  5  6  1  0
  6  7  1  0
  7  8  1  0
  8  9  1  0
  9 10  1  0
 10 11  1  0
 11 12  2  0
 11 13  1  0
 13 14  1  0
 14 15  2  0
 15 16  1  0
 16 17  1  0
 17 18  1  0
 18 19  2  0
 19 20  1  0
 20 21  2  0
 21 22  1  0
 17 23  2  0
 10 24  1  0
 24 25  1  0
  6 26  1  0
 26  2  1  0
 25  7  1  0
 23 14  1  0
 22 18  1  0
  1 27  1  0
  1 28  1  0
  1 29  1  0
  3 30  1  0
  3 31  1  0
  4 32  1  0
  4 33  1  0
  5 34  1  0
  5 35  1  0
  6 36  1  6
  8 37  1  0
  8 38  1  0
  9 39  1  0
  9 40  1  0
 13 41  1  0
 13 42  1  0
 15 43  1  0
 19 44  1  0
 20 45  1  0
 21 46  1  0
 24 47  1  0
 24 48  1  0
 25 49  1  0
 25 50  1  0
 26 51  1  0
 26 52  1  0
M  END
>  <meeko>  (2) 
{"is_sidechain": [false], "free_energy": -7.039, "intermolecular_energy": -8.685, "internal_energy": -0.446}

$$$$
ligand_94_conformer_4_docked
     RDKit          3D

 52 55  0  0  0  0  0  0  0  0999 V2000
    9.3780   47.5360   53.9970 C   0  0  0  0  0  0  0  0  0  0  0  0
    9.0620   47.8830   52.6020 N   0  0  0  0  0  0  0  0  0  0  0  0
    9.5800   46.8930   51.6340 C   0  0  0  0  0  0  0  0  0  0  0  0
    8.6940   45.6420   51.5280 C   0  0  0  0  0  0  0  0  0  0  0  0
    7.2460   46.0410   51.2410 C   0  0  0  0  0  0  0  0  0  0  0  0
    6.7000   46.9790   52.3430 C   0  0  1  0  0  0  0  0  0  0  0  0
    6.5760   46.3260   53.6880 N   0  0  0  0  0  0  0  0  0  0  0  0
    6.2300   44.8870   53.6660 C   0  0  0  0  0  0  0  0  0  0  0  0
    4.8230   44.6460   53.1090 C   0  0  0  0  0  0  0  0  0  0  0  0
    3.8310   45.4650   53.8200 N   0  0  0  0  0  0  0  0  0  0  0  0
    2.4430   45.0620   53.8640 C   0  0  0  0  0  0  0  0  0  0  0  0
    1.6660   45.5950   54.7030 O   0  0  0  0  0  0  0  0  0  0  0  0
    1.8750   44.0380   52.9170 C   0  0  0  0  0  0  0  0  0  0  0  0
    0.3800   44.1420   52.8510 C   0  0  0  0  0  0  0  0  0  0  0  0
   -0.4690   43.4190   53.6850 C   0  0  0  0  0  0  0  0  0  0  0  0
   -2.0500   43.8080   53.2670 S   0  0  0  0  0  0  0  0  0  0  0  0
   -1.5890   44.8840   52.0600 C   0  0  0  0  0  0  0  0  0  0  0  0
   -2.5080   45.6430   51.2040 C   0  0  0  0  0  0  0  0  0  0  0  0
   -3.1690   46.8130   51.5590 C   0  0  0  0  0  0  0  0  0  0  0  0
   -3.9800   47.3200   50.5370 C   0  0  0  0  0  0  0  0  0  0  0  0
   -3.9610   46.5560   49.3780 C   0  0  0  0  0  0  0  0  0  0  0  0
   -2.9330   45.2480   49.6250 S   0  0  0  0  0  0  0  0  0  0  0  0
   -0.2440   44.9590   51.9590 N   0  0  0  0  0  0  0  0  0  0  0  0
    4.1620   46.8600   54.1540 C   0  0  0  0  0  0  0  0  0  0  0  0
    5.6260   47.0080   54.5990 C   0  0  0  0  0  0  0  0  0  0  0  0
    7.6370   48.2200   52.3790 C   0  0  0  0  0  0  0  0  0  0  0  0
    8.7949   48.1763   54.6752 H   0  0  0  0  0  0  0  0  0  0  0  0
    9.1236   46.4814   54.1792 H   0  0  0  0  0  0  0  0  0  0  0  0
   10.4517   47.6909   54.1792 H   0  0  0  0  0  0  0  0  0  0  0  0
    9.6377   47.3675   50.6433 H   0  0  0  0  0  0  0  0  0  0  0  0
   10.5689   46.5686   51.9900 H   0  0  0  0  0  0  0  0  0  0  0  0
    9.0633   45.0037   50.7118 H   0  0  0  0  0  0  0  0  0  0  0  0
    8.7324   45.0941   52.4811 H   0  0  0  0  0  0  0  0  0  0  0  0
    7.2013   46.5602   50.2722 H   0  0  0  0  0  0  0  0  0  0  0  0
    6.6295   45.1302   51.2193 H   0  0  0  0  0  0  0  0  0  0  0  0
    5.6672   47.2676   52.0978 H   0  0  0  0  0  0  0  0  0  0  0  0
    6.9580   44.3558   53.0352 H   0  0  0  0  0  0  0  0  0  0  0  0
    6.2554   44.5144   54.7007 H   0  0  0  0  0  0  0  0  0  0  0  0
    4.8084   44.9089   52.0410 H   0  0  0  0  0  0  0  0  0  0  0  0
    4.5671   43.5851   53.2466 H   0  0  0  0  0  0  0  0  0  0  0  0
    2.2924   44.2050   51.9131 H   0  0  0  0  0  0  0  0  0  0  0  0
    2.1421   43.0352   53.2818 H   0  0  0  0  0  0  0  0  0  0  0  0
   -0.1605   42.7190   54.4754 H   0  0  0  0  0  0  0  0  0  0  0  0
   -3.0653   47.2922   52.5437 H   0  0  0  0  0  0  0  0  0  0  0  0
   -4.5767   48.2381   50.6423 H   0  0  0  0  0  0  0  0  0  0  0  0
   -4.5221   46.7695   48.4562 H   0  0  0  0  0  0  0  0  0  0  0  0
    3.9942   47.4881   53.2667 H   0  0  0  0  0  0  0  0  0  0  0  0
    3.5174   47.1743   54.9881 H   0  0  0  0  0  0  0  0  0  0  0  0
    5.8769   48.0785   54.6309 H   0  0  0  0  0  0  0  0  0  0  0  0
    5.7202   46.5366   55.5884 H   0  0  0  0  0  0  0  0  0  0  0  0
    7.5512   48.7481   51.4179 H   0  0  0  0  0  0  0  0  0  0  0  0
    7.3164   48.8407   53.2286 H   0  0  0  0  0  0  0  0  0  0  0  0
  1  2  1  0
  2  3  1  0
  3  4  1  0
  4  5  1  0
  5  6  1  0
  6  7  1  0
  7  8  1  0
  8  9  1  0
  9 10  1  0
 10 11  1  0
 11 12  2  0
 11 13  1  0
 13 14  1  0
 14 15  2  0
 15 16  1  0
 16 17  1  0
 17 18  1  0
 18 19  2  0
 19 20  1  0
 20 21  2  0
 21 22  1  0
 17 23  2  0
 10 24  1  0
 24 25  1  0
  6 26  1  0
 26  2  1  0
 25  7  1  0
 23 14  1  0
 22 18  1  0
  1 27  1  0
  1 28  1  0
  1 29  1  0
  3 30  1  0
  3 31  1  0
  4 32  1  0
  4 33  1  0
  5 34  1  0
  5 35  1  0
  6 36  1  6
  8 37  1  0
  8 38  1  0
  9 39  1  0
  9 40  1  0
 13 41  1  0
 13 42  1  0
 15 43  1  0
 19 44  1  0
 20 45  1  0
 21 46  1  0
 24 47  1  0
 24 48  1  0
 25 49  1  0
 25 50  1  0
 26 51  1  0
 26 52  1  0
M  END
>  <meeko>  (3) 
{"is_sidechain": [false], "free_energy": -6.86, "intermolecular_energy": -8.73, "internal_energy": -0.18}

$$$$
ligand_94_conformer_4_docked
     RDKit          3D

 52 55  0  0  0  0  0  0  0  0999 V2000
    8.0580   48.5360   51.6540 C   0  0  0  0  0  0  0  0  0  0  0  0
    8.6530   47.2280   51.9710 N   0  0  0  0  0  0  0  0  0  0  0  0
    9.5000   47.2630   53.1820 C   0  0  0  0  0  0  0  0  0  0  0  0
    8.6840   47.2120   54.4830 C   0  0  0  0  0  0  0  0  0  0  0  0
    7.7330   46.0150   54.4670 C   0  0  0  0  0  0  0  0  0  0  0  0
    6.7790   46.0800   53.2510 C   0  0  1  0  0  0  0  0  0  0  0  0
    5.8190   47.2310   53.2950 N   0  0  0  0  0  0  0  0  0  0  0  0
    5.1360   47.4400   54.5920 C   0  0  0  0  0  0  0  0  0  0  0  0
    4.1960   46.2790   54.9350 C   0  0  0  0  0  0  0  0  0  0  0  0
    3.2630   46.0170   53.8300 N   0  0  0  0  0  0  0  0  0  0  0  0
    1.9920   45.3760   54.0800 C   0  0  0  0  0  0  0  0  0  0  0  0
    1.0890   45.4180   53.2000 O   0  0  0  0  0  0  0  0  0  0  0  0
    1.7090   44.6260   55.3550 C   0  0  0  0  0  0  0  0  0  0  0  0
    0.4310   45.0980   55.9820 C   0  0  0  0  0  0  0  0  0  0  0  0
   -0.7930   44.4650   55.7820 C   0  0  0  0  0  0  0  0  0  0  0  0
   -1.9590   45.3220   56.6370 S   0  0  0  0  0  0  0  0  0  0  0  0
   -0.8600   46.4470   57.2340 C   0  0  0  0  0  0  0  0  0  0  0  0
   -1.1940   47.5780   58.1060 C   0  0  0  0  0  0  0  0  0  0  0  0
   -0.4730   47.9840   59.2230 C   0  0  0  0  0  0  0  0  0  0  0  0
   -1.0250   49.1000   59.8620 C   0  0  0  0  0  0  0  0  0  0  0  0
   -2.1790   49.5770   59.2530 C   0  0  0  0  0  0  0  0  0  0  0  0
   -2.5110   48.6090   57.9190 S   0  0  0  0  0  0  0  0  0  0  0  0
    0.3910   46.1900   56.7940 N   0  0  0  0  0  0  0  0  0  0  0  0
    3.7650   46.0530   52.4460 C   0  0  0  0  0  0  0  0  0  0  0  0
    4.7810   47.1870   52.2370 C   0  0  0  0  0  0  0  0  0  0  0  0
    7.6760   46.1140   51.9800 C   0  0  0  0  0  0  0  0  0  0  0  0
    7.8172   49.0653   52.5878 H   0  0  0  0  0  0  0  0  0  0  0  0
    8.7735   49.1321   51.0686 H   0  0  0  0  0  0  0  0  0  0  0  0
    7.1385   48.3883   51.0686 H   0  0  0  0  0  0  0  0  0  0  0  0
   10.1801   46.3987   53.1599 H   0  0  0  0  0  0  0  0  0  0  0  0
   10.0494   48.2159   53.1736 H   0  0  0  0  0  0  0  0  0  0  0  0
    9.3698   47.1190   55.3380 H   0  0  0  0  0  0  0  0  0  0  0  0
    8.0941   48.1362   54.5715 H   0  0  0  0  0  0  0  0  0  0  0  0
    8.3227   45.0880   54.4122 H   0  0  0  0  0  0  0  0  0  0  0  0
    7.1298   46.0348   55.3866 H   0  0  0  0  0  0  0  0  0  0  0  0
    6.1248   45.1957   53.2527 H   0  0  0  0  0  0  0  0  0  0  0  0
    5.8947   47.5293   55.3834 H   0  0  0  0  0  0  0  0  0  0  0  0
    4.5329   48.3568   54.5165 H   0  0  0  0  0  0  0  0  0  0  0  0
    4.7938   45.3751   55.1239 H   0  0  0  0  0  0  0  0  0  0  0  0
    3.6153   46.5488   55.8294 H   0  0  0  0  0  0  0  0  0  0  0  0
    1.6247   43.5525   55.1301 H   0  0  0  0  0  0  0  0  0  0  0  0
    2.5339   44.8076   56.0597 H   0  0  0  0  0  0  0  0  0  0  0  0
   -0.9659   43.5652   55.1734 H   0  0  0  0  0  0  0  0  0  0  0  0
    0.4403   47.4785   59.5700 H   0  0  0  0  0  0  0  0  0  0  0  0
   -0.5865   49.5565   60.7616 H   0  0  0  0  0  0  0  0  0  0  0  0
   -2.7737   50.4402   59.5865 H   0  0  0  0  0  0  0  0  0  0  0  0
    4.2512   45.0929   52.2184 H   0  0  0  0  0  0  0  0  0  0  0  0
    2.9105   46.2317   51.7768 H   0  0  0  0  0  0  0  0  0  0  0  0
    5.2756   47.0411   51.2653 H   0  0  0  0  0  0  0  0  0  0  0  0
    4.2287   48.1376   52.2752 H   0  0  0  0  0  0  0  0  0  0  0  0
    8.2300   45.1656   51.9203 H   0  0  0  0  0  0  0  0  0  0  0  0
    7.0083   46.2646   51.1189 H   0  0  0  0  0  0  0  0  0  0  0  0
  1  2  1  0
  2  3  1  0
  3  4  1  0
  4  5  1  0
  5  6  1  0
  6  7  1  0
  7  8  1  0
  8  9  1  0
  9 10  1  0
 10 11  1  0
 11 12  2  0
 11 13  1  0
 13 14  1  0
 14 15  2  0
 15 16  1  0
 16 17  1  0
 17 18  1  0
 18 19  2  0
 19 20  1  0
 20 21  2  0
 21 22  1  0
 17 23  2  0
 10 24  1  0
 24 25  1  0
  6 26  1  0
 26  2  1  0
 25  7  1  0
 23 14  1  0
 22 18  1  0
  1 27  1  0
  1 28  1  0
  1 29  1  0
  3 30  1  0
  3 31  1  0
  4 32  1  0
  4 33  1  0
  5 34  1  0
  5 35  1  0
  6 36  1  6
  8 37  1  0
  8 38  1  0
  9 39  1  0
  9 40  1  0
 13 41  1  0
 13 42  1  0
 15 43  1  0
 19 44  1  0
 20 45  1  0
 21 46  1  0
 24 47  1  0
 24 48  1  0
 25 49  1  0
 25 50  1  0
 26 51  1  0
 26 52  1  0
M  END
>  <meeko>  (4) 
{"is_sidechain": [false], "free_energy": -6.84, "intermolecular_energy": -8.361, "internal_energy": -0.524}

$$$$
ligand_94_conformer_4_docked
     RDKit          3D

 52 55  0  0  0  0  0  0  0  0999 V2000
    6.6420   46.7150   54.5840 C   0  0  0  0  0  0  0  0  0  0  0  0
    6.2300   47.5140   53.4190 N   0  0  0  0  0  0  0  0  0  0  0  0
    6.9880   47.1750   52.1960 C   0  0  0  0  0  0  0  0  0  0  0  0
    6.4720   45.9010   51.5090 C   0  0  0  0  0  0  0  0  0  0  0  0
    4.9680   46.0050   51.2570 C   0  0  0  0  0  0  0  0  0  0  0  0
    4.1990   46.2370   52.5780 C   0  0  1  0  0  0  0  0  0  0  0  0
    4.2690   45.0800   53.5310 N   0  0  0  0  0  0  0  0  0  0  0  0
    3.9920   43.7520   52.9390 C   0  0  0  0  0  0  0  0  0  0  0  0
    2.5410   43.6320   52.4620 C   0  0  0  0  0  0  0  0  0  0  0  0
    1.6040   43.9890   53.5360 N   0  0  0  0  0  0  0  0  0  0  0  0
    0.2530   43.4760   53.5320 C   0  0  0  0  0  0  0  0  0  0  0  0
   -0.4420   43.5410   54.5830 O   0  0  0  0  0  0  0  0  0  0  0  0
   -0.3760   42.8840   52.2980 C   0  0  0  0  0  0  0  0  0  0  0  0
   -1.6310   43.6200   51.9320 C   0  0  0  0  0  0  0  0  0  0  0  0
   -2.8340   43.4590   52.6160 C   0  0  0  0  0  0  0  0  0  0  0  0
   -3.9800   44.4390   51.8740 S   0  0  0  0  0  0  0  0  0  0  0  0
   -2.9000   45.0350   50.7310 C   0  0  0  0  0  0  0  0  0  0  0  0
   -3.2300   45.9970   49.6740 C   0  0  0  0  0  0  0  0  0  0  0  0
   -3.5930   47.3250   49.8690 C   0  0  0  0  0  0  0  0  0  0  0  0
   -3.8460   48.0090   48.6740 C   0  0  0  0  0  0  0  0  0  0  0  0
   -3.6850   47.2270   47.5380 C   0  0  0  0  0  0  0  0  0  0  0  0
   -3.2250   45.6830   48.0210 S   0  0  0  0  0  0  0  0  0  0  0  0
   -1.6700   44.5010   50.8950 N   0  0  0  0  0  0  0  0  0  0  0  0
    1.9060   45.1470   54.3930 C   0  0  0  0  0  0  0  0  0  0  0  0
    3.4050   45.2350   54.7260 C   0  0  0  0  0  0  0  0  0  0  0  0
    4.7660   47.5450   53.2030 C   0  0  0  0  0  0  0  0  0  0  0  0
    6.3684   47.2457   55.5079 H   0  0  0  0  0  0  0  0  0  0  0  0
    6.1345   45.7394   54.5575 H   0  0  0  0  0  0  0  0  0  0  0  0
    7.7311   46.5627   54.5575 H   0  0  0  0  0  0  0  0  0  0  0  0
    6.9066   48.0133   51.4885 H   0  0  0  0  0  0  0  0  0  0  0  0
    8.0310   46.9914   52.4933 H   0  0  0  0  0  0  0  0  0  0  0  0
    6.9925   45.7705   50.5487 H   0  0  0  0  0  0  0  0  0  0  0  0
    6.6659   45.0384   52.1635 H   0  0  0  0  0  0  0  0  0  0  0  0
    4.7749   46.8469   50.5759 H   0  0  0  0  0  0  0  0  0  0  0  0
    4.6215   45.0609   50.8113 H   0  0  0  0  0  0  0  0  0  0  0  0
    3.1246   46.3326   52.3625 H   0  0  0  0  0  0  0  0  0  0  0  0
    4.6626   43.5981   52.0808 H   0  0  0  0  0  0  0  0  0  0  0  0
    4.1605   42.9905   53.7147 H   0  0  0  0  0  0  0  0  0  0  0  0
    2.3854   44.3087   51.6088 H   0  0  0  0  0  0  0  0  0  0  0  0
    2.3541   42.5894   52.1651 H   0  0  0  0  0  0  0  0  0  0  0  0
    0.3370   42.9502   51.4630 H   0  0  0  0  0  0  0  0  0  0  0  0
   -0.6311   41.8337   52.5025 H   0  0  0  0  0  0  0  0  0  0  0  0
   -3.0034   42.8073   53.4858 H   0  0  0  0  0  0  0  0  0  0  0  0
   -3.6733   47.7912   50.8621 H   0  0  0  0  0  0  0  0  0  0  0  0
   -4.1445   49.0671   48.6383 H   0  0  0  0  0  0  0  0  0  0  0  0
   -3.8329   47.5602   46.5002 H   0  0  0  0  0  0  0  0  0  0  0  0
    1.6028   46.0659   53.8699 H   0  0  0  0  0  0  0  0  0  0  0  0
    1.3524   45.0283   55.3361 H   0  0  0  0  0  0  0  0  0  0  0  0
    3.6070   46.2159   55.1809 H   0  0  0  0  0  0  0  0  0  0  0  0
    3.6404   44.4098   55.4142 H   0  0  0  0  0  0  0  0  0  0  0  0
    4.5319   48.3821   52.5289 H   0  0  0  0  0  0  0  0  0  0  0  0
    4.2971   47.6591   54.1915 H   0  0  0  0  0  0  0  0  0  0  0  0
  1  2  1  0
  2  3  1  0
  3  4  1  0
  4  5  1  0
  5  6  1  0
  6  7  1  0
  7  8  1  0
  8  9  1  0
  9 10  1  0
 10 11  1  0
 11 12  2  0
 11 13  1  0
 13 14  1  0
 14 15  2  0
 15 16  1  0
 16 17  1  0
 17 18  1  0
 18 19  2  0
 19 20  1  0
 20 21  2  0
 21 22  1  0
 17 23  2  0
 10 24  1  0
 24 25  1  0
  6 26  1  0
 26  2  1  0
 25  7  1  0
 23 14  1  0
 22 18  1  0
  1 27  1  0
  1 28  1  0
  1 29  1  0
  3 30  1  0
  3 31  1  0
  4 32  1  0
  4 33  1  0
  5 34  1  0
  5 35  1  0
  6 36  1  6
  8 37  1  0
  8 38  1  0
  9 39  1  0
  9 40  1  0
 13 41  1  0
 13 42  1  0
 15 43  1  0
 19 44  1  0
 20 45  1  0
 21 46  1  0
 24 47  1  0
 24 48  1  0
 25 49  1  0
 25 50  1  0
 26 51  1  0
 26 52  1  0
M  END
>  <meeko>  (5) 
{"is_sidechain": [false], "free_energy": -6.752, "intermolecular_energy": -8.437, "internal_energy": -0.34}

$$$$
