ligand_44_conformer_5_docked
     RDKit          3D

 47 50  0  0  0  0  0  0  0  0999 V2000
    4.2330   45.3030   55.6900 C   0  0  0  0  0  0  0  0  0  0  0  0
    4.2170   46.6060   55.1170 O   0  0  0  0  0  0  0  0  0  0  0  0
    4.7710   46.8810   53.8630 C   0  0  0  0  0  0  0  0  0  0  0  0
    4.8190   48.0680   53.4340 O   0  0  0  0  0  0  0  0  0  0  0  0
    5.2730   45.7400   53.0160 C   0  0  2  0  0  0  0  0  0  0  0  0
    6.2500   46.2110   51.9260 C   0  0  0  0  0  0  0  0  0  0  0  0
    6.6250   45.0850   50.9900 C   0  0  0  0  0  0  0  0  0  0  0  0
    7.7570   45.2270   50.1720 C   0  0  0  0  0  0  0  0  0  0  0  0
    8.0960   44.2320   49.2530 C   0  0  0  0  0  0  0  0  0  0  0  0
    7.3040   43.0880   49.1340 C   0  0  0  0  0  0  0  0  0  0  0  0
    6.1660   42.9390   49.9300 C   0  0  0  0  0  0  0  0  0  0  0  0
    5.8060   43.9360   50.8490 C   0  0  0  0  0  0  0  0  0  0  0  0
    4.6050   43.7170   51.7390 C   0  0  0  0  0  0  0  0  0  0  0  0
    4.1930   44.9710   52.3780 N   0  0  0  0  0  0  0  0  0  0  0  0
    2.9630   45.5870   51.9490 C   0  0  0  0  0  0  0  0  0  0  0  0
    2.8640   46.0250   50.7710 O   0  0  0  0  0  0  0  0  0  0  0  0
    1.7990   45.7320   52.8920 C   0  0  1  0  0  0  0  0  0  0  0  0
    0.4350   45.6850   52.2000 C   0  0  0  0  0  0  0  0  0  0  0  0
    0.8780   44.5250   53.0900 C   0  0  0  0  0  0  0  0  0  0  0  0
    1.1660   43.2010   52.3580 C   0  0  0  0  0  0  0  0  0  0  0  0
   -0.0320   42.2290   52.4730 C   0  0  0  0  0  0  0  0  0  0  0  0
   -1.0650   42.6900   53.3320 O   0  0  0  0  0  0  0  0  0  0  0  0
   -0.5290   43.0720   54.5840 C   0  0  0  0  0  0  0  0  0  0  0  0
    0.1870   44.4220   54.4610 C   0  0  0  0  0  0  0  0  0  0  0  0
    4.2320   45.3848   56.7870 H   0  0  0  0  0  0  0  0  0  0  0  0
    3.3416   44.7476   55.3629 H   0  0  0  0  0  0  0  0  0  0  0  0
    5.1378   44.7697   55.3629 H   0  0  0  0  0  0  0  0  0  0  0  0
    5.7988   45.0814   53.7230 H   0  0  0  0  0  0  0  0  0  0  0  0
    5.7754   47.0153   51.3447 H   0  0  0  0  0  0  0  0  0  0  0  0
    7.1666   46.5694   52.4173 H   0  0  0  0  0  0  0  0  0  0  0  0
    8.3815   46.1287   50.2557 H   0  0  0  0  0  0  0  0  0  0  0  0
    8.9889   44.3495   48.6213 H   0  0  0  0  0  0  0  0  0  0  0  0
    7.5766   42.3035   48.4127 H   0  0  0  0  0  0  0  0  0  0  0  0
    5.5480   42.0339   49.8357 H   0  0  0  0  0  0  0  0  0  0  0  0
    3.7725   43.3312   51.1323 H   0  0  0  0  0  0  0  0  0  0  0  0
    4.8752   42.9945   52.5233 H   0  0  0  0  0  0  0  0  0  0  0  0
    2.3258   46.4022   53.5872 H   0  0  0  0  0  0  0  0  0  0  0  0
   -0.3727   46.3544   52.5309 H   0  0  0  0  0  0  0  0  0  0  0  0
    0.0871   45.7784   51.1607 H   0  0  0  0  0  0  0  0  0  0  0  0
    1.3567   43.4121   51.2954 H   0  0  0  0  0  0  0  0  0  0  0  0
    2.0446   42.7291   52.8222 H   0  0  0  0  0  0  0  0  0  0  0  0
   -0.4562   42.0814   51.4689 H   0  0  0  0  0  0  0  0  0  0  0  0
    0.3539   41.2957   52.9089 H   0  0  0  0  0  0  0  0  0  0  0  0
   -1.3441   43.1580   55.3177 H   0  0  0  0  0  0  0  0  0  0  0  0
    0.1929   42.3104   54.9139 H   0  0  0  0  0  0  0  0  0  0  0  0
   -0.5473   45.2348   54.5614 H   0  0  0  0  0  0  0  0  0  0  0  0
    0.9437   44.5045   55.2552 H   0  0  0  0  0  0  0  0  0  0  0  0
  1  2  1  0
  2  3  1  0
  3  4  2  0
  3  5  1  0
  5  6  1  0
  6  7  1  0
  7  8  2  0
  8  9  1  0
  9 10  2  0
 10 11  1  0
 11 12  2  0
 12 13  1  0
 13 14  1  0
 14 15  1  0
 15 16  2  0
 15 17  1  0
 17 18  1  0
 18 19  1  0
 19 20  1  0
 20 21  1  0
 21 22  1  0
 22 23  1  0
 23 24  1  0
 14  5  1  0
 19 17  1  0
 12  7  1  0
 24 19  1  0
  1 25  1  0
  1 26  1  0
  1 27  1  0
  5 28  1  1
  6 29  1  0
  6 30  1  0
  8 31  1  0
  9 32  1  0
 10 33  1  0
 11 34  1  0
 13 35  1  0
 13 36  1  0
 17 37  1  1
 18 38  1  0
 18 39  1  0
 20 40  1  0
 20 41  1  0
 21 42  1  0
 21 43  1  0
 23 44  1  0
 23 45  1  0
 24 46  1  0
 24 47  1  0
M  END
>  <meeko>  (1) 
{"is_sidechain": [false], "free_energy": -8.191, "intermolecular_energy": -10.106, "internal_energy": -0.56}

$$$$
ligand_44_conformer_5_docked
     RDKit          3D

 47 50  0  0  0  0  0  0  0  0999 V2000
    2.1260   45.1880   55.3100 C   0  0  0  0  0  0  0  0  0  0  0  0
    1.9770   44.5010   54.0730 O   0  0  0  0  0  0  0  0  0  0  0  0
    1.9400   45.1660   52.8440 C   0  0  0  0  0  0  0  0  0  0  0  0
    1.0370   46.0160   52.6060 O   0  0  0  0  0  0  0  0  0  0  0  0
    2.9680   44.8260   51.7950 C   0  0  2  0  0  0  0  0  0  0  0  0
    3.6420   43.4700   52.0580 C   0  0  0  0  0  0  0  0  0  0  0  0
    4.7740   43.2130   51.0900 C   0  0  0  0  0  0  0  0  0  0  0  0
    5.2620   41.9050   50.9430 C   0  0  0  0  0  0  0  0  0  0  0  0
    6.3450   41.6430   50.1030 C   0  0  0  0  0  0  0  0  0  0  0  0
    6.9610   42.6850   49.4060 C   0  0  0  0  0  0  0  0  0  0  0  0
    6.4970   43.9940   49.5530 C   0  0  0  0  0  0  0  0  0  0  0  0
    5.4160   44.2750   50.4040 C   0  0  0  0  0  0  0  0  0  0  0  0
    4.8990   45.6910   50.4930 C   0  0  0  0  0  0  0  0  0  0  0  0
    4.0130   45.8520   51.6510 N   0  0  0  0  0  0  0  0  0  0  0  0
    4.4830   46.6290   52.7690 C   0  0  0  0  0  0  0  0  0  0  0  0
    3.9450   47.7400   53.0260 O   0  0  0  0  0  0  0  0  0  0  0  0
    5.6210   46.1440   53.6270 C   0  0  1  0  0  0  0  0  0  0  0  0
    6.6610   45.3220   52.8640 C   0  0  0  0  0  0  0  0  0  0  0  0
    7.0150   46.7210   53.3680 C   0  0  0  0  0  0  0  0  0  0  0  0
    7.2230   47.7850   52.2750 C   0  0  0  0  0  0  0  0  0  0  0  0
    8.7280   48.0080   51.9930 C   0  0  0  0  0  0  0  0  0  0  0  0
    9.5870   47.3080   52.8800 O   0  0  0  0  0  0  0  0  0  0  0  0
    9.2230   47.5660   54.2230 C   0  0  0  0  0  0  0  0  0  0  0  0
    7.9550   46.7850   54.5840 C   0  0  0  0  0  0  0  0  0  0  0  0
    1.9733   44.4839   56.1412 H   0  0  0  0  0  0  0  0  0  0  0  0
    3.1377   45.6153   55.3726 H   0  0  0  0  0  0  0  0  0  0  0  0
    1.3822   45.9960   55.3726 H   0  0  0  0  0  0  0  0  0  0  0  0
    2.3978   44.7766   50.8556 H   0  0  0  0  0  0  0  0  0  0  0  0
    4.0406   43.4626   53.0832 H   0  0  0  0  0  0  0  0  0  0  0  0
    2.8886   42.6800   51.9231 H   0  0  0  0  0  0  0  0  0  0  0  0
    4.7869   41.0801   51.4943 H   0  0  0  0  0  0  0  0  0  0  0  0
    6.7146   40.6132   49.9894 H   0  0  0  0  0  0  0  0  0  0  0  0
    7.8117   42.4745   48.7412 H   0  0  0  0  0  0  0  0  0  0  0  0
    6.9818   44.8108   48.9982 H   0  0  0  0  0  0  0  0  0  0  0  0
    5.7507   46.3800   50.5924 H   0  0  0  0  0  0  0  0  0  0  0  0
    4.3285   45.9153   49.5796 H   0  0  0  0  0  0  0  0  0  0  0  0
    5.0096   46.0256   54.5338 H   0  0  0  0  0  0  0  0  0  0  0  0
    7.1150   44.4371   53.3340 H   0  0  0  0  0  0  0  0  0  0  0  0
    6.6887   44.8176   51.8868 H   0  0  0  0  0  0  0  0  0  0  0  0
    6.7300   47.4510   51.3502 H   0  0  0  0  0  0  0  0  0  0  0  0
    6.7889   48.7335   52.6240 H   0  0  0  0  0  0  0  0  0  0  0  0
    8.9419   47.6736   50.9671 H   0  0  0  0  0  0  0  0  0  0  0  0
    8.9252   49.0807   52.1360 H   0  0  0  0  0  0  0  0  0  0  0  0
   10.0427   47.2565   54.8880 H   0  0  0  0  0  0  0  0  0  0  0  0
    9.0296   48.6422   54.3433 H   0  0  0  0  0  0  0  0  0  0  0  0
    8.2295   45.7638   54.8868 H   0  0  0  0  0  0  0  0  0  0  0  0
    7.4405   47.2932   55.4129 H   0  0  0  0  0  0  0  0  0  0  0  0
  1  2  1  0
  2  3  1  0
  3  4  2  0
  3  5  1  0
  5  6  1  0
  6  7  1  0
  7  8  2  0
  8  9  1  0
  9 10  2  0
 10 11  1  0
 11 12  2  0
 12 13  1  0
 13 14  1  0
 14 15  1  0
 15 16  2  0
 15 17  1  0
 17 18  1  0
 18 19  1  0
 19 20  1  0
 20 21  1  0
 21 22  1  0
 22 23  1  0
 23 24  1  0
 14  5  1  0
 19 17  1  0
 12  7  1  0
 24 19  1  0
  1 25  1  0
  1 26  1  0
  1 27  1  0
  5 28  1  6
  6 29  1  0
  6 30  1  0
  8 31  1  0
  9 32  1  0
 10 33  1  0
 11 34  1  0
 13 35  1  0
 13 36  1  0
 17 37  1  1
 18 38  1  0
 18 39  1  0
 20 40  1  0
 20 41  1  0
 21 42  1  0
 21 43  1  0
 23 44  1  0
 23 45  1  0
 24 46  1  0
 24 47  1  0
M  END
>  <meeko>  (2) 
{"is_sidechain": [false], "free_energy": -8.007, "intermolecular_energy": -10.398, "internal_energy": -0.041}

$$$$
ligand_44_conformer_5_docked
     RDKit          3D

 47 50  0  0  0  0  0  0  0  0999 V2000
    4.9970   42.9500   50.5640 C   0  0  0  0  0  0  0  0  0  0  0  0
    5.3720   44.2540   50.1330 O   0  0  0  0  0  0  0  0  0  0  0  0
    4.8780   45.4140   50.7360 C   0  0  0  0  0  0  0  0  0  0  0  0
    3.6980   45.8000   50.5050 O   0  0  0  0  0  0  0  0  0  0  0  0
    5.7850   46.2190   51.6320 C   0  0  2  0  0  0  0  0  0  0  0  0
    7.2300   45.6940   51.6200 C   0  0  0  0  0  0  0  0  0  0  0  0
    8.0910   46.4090   52.6350 C   0  0  0  0  0  0  0  0  0  0  0  0
    9.4880   46.3240   52.5240 C   0  0  0  0  0  0  0  0  0  0  0  0
   10.3120   46.9230   53.4790 C   0  0  0  0  0  0  0  0  0  0  0  0
    9.7510   47.6050   54.5600 C   0  0  0  0  0  0  0  0  0  0  0  0
    8.3630   47.6870   54.6930 C   0  0  0  0  0  0  0  0  0  0  0  0
    7.5220   47.0790   53.7470 C   0  0  0  0  0  0  0  0  0  0  0  0
    6.0270   47.2380   53.8840 C   0  0  0  0  0  0  0  0  0  0  0  0
    5.3190   46.2820   53.0260 N   0  0  0  0  0  0  0  0  0  0  0  0
    4.6190   45.1880   53.6500 C   0  0  0  0  0  0  0  0  0  0  0  0
    5.1210   44.0320   53.6260 O   0  0  0  0  0  0  0  0  0  0  0  0
    3.2860   45.4010   54.3160 C   0  0  1  0  0  0  0  0  0  0  0  0
    2.2680   46.1320   53.4390 C   0  0  0  0  0  0  0  0  0  0  0  0
    2.0740   44.6500   53.7580 C   0  0  0  0  0  0  0  0  0  0  0  0
    2.2390   43.6890   52.5670 C   0  0  0  0  0  0  0  0  0  0  0  0
    0.8630   43.2720   51.9930 C   0  0  0  0  0  0  0  0  0  0  0  0
   -0.2410   43.7350   52.7560 O   0  0  0  0  0  0  0  0  0  0  0  0
   -0.0730   43.3940   54.1190 C   0  0  0  0  0  0  0  0  0  0  0  0
    0.9640   44.3150   54.7690 C   0  0  0  0  0  0  0  0  0  0  0  0
    4.9872   42.9159   51.6634 H   0  0  0  0  0  0  0  0  0  0  0  0
    3.9939   42.7115   50.1808 H   0  0  0  0  0  0  0  0  0  0  0  0
    5.7202   42.2151   50.1808 H   0  0  0  0  0  0  0  0  0  0  0  0
    5.7587   47.2347   51.2105 H   0  0  0  0  0  0  0  0  0  0  0  0
    7.2210   44.6191   51.8537 H   0  0  0  0  0  0  0  0  0  0  0  0
    7.6534   45.8759   50.6212 H   0  0  0  0  0  0  0  0  0  0  0  0
    9.9366   45.7817   51.6787 H   0  0  0  0  0  0  0  0  0  0  0  0
   11.4055   46.8573   53.3792 H   0  0  0  0  0  0  0  0  0  0  0  0
   10.4032   48.0787   55.3085 H   0  0  0  0  0  0  0  0  0  0  0  0
    7.9263   48.2309   55.5435 H   0  0  0  0  0  0  0  0  0  0  0  0
    5.7405   47.0628   54.9315 H   0  0  0  0  0  0  0  0  0  0  0  0
    5.7520   48.2576   53.5763 H   0  0  0  0  0  0  0  0  0  0  0  0
    3.7046   45.5139   55.3269 H   0  0  0  0  0  0  0  0  0  0  0  0
    1.5977   46.8824   53.8836 H   0  0  0  0  0  0  0  0  0  0  0  0
    2.3231   46.7276   52.5159 H   0  0  0  0  0  0  0  0  0  0  0  0
    2.8202   44.1900   51.7789 H   0  0  0  0  0  0  0  0  0  0  0  0
    2.7603   42.7856   52.9165 H   0  0  0  0  0  0  0  0  0  0  0  0
    0.7749   43.6777   50.9744 H   0  0  0  0  0  0  0  0  0  0  0  0
    0.8276   42.1728   52.0133 H   0  0  0  0  0  0  0  0  0  0  0  0
   -1.0345   43.5026   54.6422 H   0  0  0  0  0  0  0  0  0  0  0  0
    0.2763   42.3533   54.1889 H   0  0  0  0  0  0  0  0  0  0  0  0
    0.4736   45.2446   55.0935 H   0  0  0  0  0  0  0  0  0  0  0  0
    1.4070   43.8054   55.6374 H   0  0  0  0  0  0  0  0  0  0  0  0
  1  2  1  0
  2  3  1  0
  3  4  2  0
  3  5  1  0
  5  6  1  0
  6  7  1  0
  7  8  2  0
  8  9  1  0
  9 10  2  0
 10 11  1  0
 11 12  2  0
 12 13  1  0
 13 14  1  0
 14 15  1  0
 15 16  2  0
 15 17  1  0
 17 18  1  0
 18 19  1  0
 19 20  1  0
 20 21  1  0
 21 22  1  0
 22 23  1  0
 23 24  1  0
 14  5  1  0
 19 17  1  0
 12  7  1  0
 24 19  1  0
  1 25  1  0
  1 26  1  0
  1 27  1  0
  5 28  1  6
  6 29  1  0
  6 30  1  0
  8 31  1  0
  9 32  1  0
 10 33  1  0
 11 34  1  0
 13 35  1  0
 13 36  1  0
 17 37  1  1
 18 38  1  0
 18 39  1  0
 20 40  1  0
 20 41  1  0
 21 42  1  0
 21 43  1  0
 23 44  1  0
 23 45  1  0
 24 46  1  0
 24 47  1  0
M  END
>  <meeko>  (3) 
{"is_sidechain": [false], "free_energy": -7.923, "intermolecular_energy": -10.16, "internal_energy": -0.176}

$$$$
ligand_44_conformer_5_docked
     RDKit          3D

 47 50  0  0  0  0  0  0  0  0999 V2000
    1.6710   45.3340   55.7450 C   0  0  0  0  0  0  0  0  0  0  0  0
    2.4720   44.6570   54.7830 O   0  0  0  0  0  0  0  0  0  0  0  0
    3.1470   45.3300   53.7610 C   0  0  0  0  0  0  0  0  0  0  0  0
    2.9260   46.5550   53.5480 O   0  0  0  0  0  0  0  0  0  0  0  0
    4.1120   44.5650   52.8910 C   0  0  2  0  0  0  0  0  0  0  0  0
    5.0790   45.4940   52.1390 C   0  0  0  0  0  0  0  0  0  0  0  0
    5.9360   44.7280   51.1570 C   0  0  0  0  0  0  0  0  0  0  0  0
    7.0990   45.3320   50.6520 C   0  0  0  0  0  0  0  0  0  0  0  0
    7.8810   44.6770   49.6990 C   0  0  0  0  0  0  0  0  0  0  0  0
    7.5050   43.4160   49.2310 C   0  0  0  0  0  0  0  0  0  0  0  0
    6.3430   42.8080   49.7120 C   0  0  0  0  0  0  0  0  0  0  0  0
    5.5410   43.4600   50.6620 C   0  0  0  0  0  0  0  0  0  0  0  0
    4.3250   42.7510   51.2070 C   0  0  0  0  0  0  0  0  0  0  0  0
    3.4460   43.6890   51.9140 N   0  0  0  0  0  0  0  0  0  0  0  0
    2.1850   44.0350   51.3100 C   0  0  0  0  0  0  0  0  0  0  0  0
    2.0230   45.1850   50.8200 O   0  0  0  0  0  0  0  0  0  0  0  0
    1.0490   43.0480   51.2700 C   0  0  1  0  0  0  0  0  0  0  0  0
    0.7710   42.3710   52.6140 C   0  0  0  0  0  0  0  0  0  0  0  0
   -0.2250   43.3840   52.0500 C   0  0  0  0  0  0  0  0  0  0  0  0
   -0.3320   44.7100   52.8250 C   0  0  0  0  0  0  0  0  0  0  0  0
   -1.5650   44.7100   53.7610 C   0  0  0  0  0  0  0  0  0  0  0  0
   -2.4030   43.5740   53.6060 O   0  0  0  0  0  0  0  0  0  0  0  0
   -2.7310   43.3880   52.2430 C   0  0  0  0  0  0  0  0  0  0  0  0
   -1.5340   42.8040   51.4870 C   0  0  0  0  0  0  0  0  0  0  0  0
    2.0000   45.0559   56.7571 H   0  0  0  0  0  0  0  0  0  0  0  0
    1.7767   46.4206   55.6107 H   0  0  0  0  0  0  0  0  0  0  0  0
    0.6172   45.0487   55.6107 H   0  0  0  0  0  0  0  0  0  0  0  0
    4.6775   43.9352   53.5936 H   0  0  0  0  0  0  0  0  0  0  0  0
    4.4955   46.2484   51.5909 H   0  0  0  0  0  0  0  0  0  0  0  0
    5.7423   45.9699   52.8763 H   0  0  0  0  0  0  0  0  0  0  0  0
    7.3960   46.3288   51.0101 H   0  0  0  0  0  0  0  0  0  0  0  0
    8.7948   45.1548   49.3161 H   0  0  0  0  0  0  0  0  0  0  0  0
    8.1249   42.9008   48.4824 H   0  0  0  0  0  0  0  0  0  0  0  0
    6.0546   41.8122   49.3442 H   0  0  0  0  0  0  0  0  0  0  0  0
    3.7699   42.2954   50.3737 H   0  0  0  0  0  0  0  0  0  0  0  0
    4.6568   41.9777   51.9155 H   0  0  0  0  0  0  0  0  0  0  0  0
    1.2388   42.7310   50.2339 H   0  0  0  0  0  0  0  0  0  0  0  0
    0.5094   41.3031   52.6480 H   0  0  0  0  0  0  0  0  0  0  0  0
    1.3218   42.2665   53.5604 H   0  0  0  0  0  0  0  0  0  0  0  0
    0.5773   44.8479   53.4285 H   0  0  0  0  0  0  0  0  0  0  0  0
   -0.4430   45.5303   52.1006 H   0  0  0  0  0  0  0  0  0  0  0  0
   -1.2102   44.7396   54.8018 H   0  0  0  0  0  0  0  0  0  0  0  0
   -2.1679   45.5911   53.4961 H   0  0  0  0  0  0  0  0  0  0  0  0
   -3.5828   42.6963   52.1652 H   0  0  0  0  0  0  0  0  0  0  0  0
   -2.9956   44.3600   51.8012 H   0  0  0  0  0  0  0  0  0  0  0  0
   -1.5278   41.7102   51.6030 H   0  0  0  0  0  0  0  0  0  0  0  0
   -1.6167   43.0646   50.4215 H   0  0  0  0  0  0  0  0  0  0  0  0
  1  2  1  0
  2  3  1  0
  3  4  2  0
  3  5  1  0
  5  6  1  0
  6  7  1  0
  7  8  2  0
  8  9  1  0
  9 10  2  0
 10 11  1  0
 11 12  2  0
 12 13  1  0
 13 14  1  0
 14 15  1  0
 15 16  2  0
 15 17  1  0
 17 18  1  0
 18 19  1  0
 19 20  1  0
 20 21  1  0
 21 22  1  0
 22 23  1  0
 23 24  1  0
 14  5  1  0
 19 17  1  0
 12  7  1  0
 24 19  1  0
  1 25  1  0
  1 26  1  0
  1 27  1  0
  5 28  1  1
  6 29  1  0
  6 30  1  0
  8 31  1  0
  9 32  1  0
 10 33  1  0
 11 34  1  0
 13 35  1  0
 13 36  1  0
 17 37  1  6
 18 38  1  0
 18 39  1  0
 20 40  1  0
 20 41  1  0
 21 42  1  0
 21 43  1  0
 23 44  1  0
 23 45  1  0
 24 46  1  0
 24 47  1  0
M  END
>  <meeko>  (4) 
{"is_sidechain": [false], "free_energy": -7.804, "intermolecular_energy": -9.799, "internal_energy": -0.39}

$$$$
ligand_44_conformer_5_docked
     RDKit          3D

 47 50  0  0  0  0  0  0  0  0999 V2000
    4.5640   42.1130   50.8670 C   0  0  0  0  0  0  0  0  0  0  0  0
    4.5840   43.2940   51.6610 O   0  0  0  0  0  0  0  0  0  0  0  0
    3.4620   44.1130   51.8170 C   0  0  0  0  0  0  0  0  0  0  0  0
    2.9910   44.7440   50.8300 O   0  0  0  0  0  0  0  0  0  0  0  0
    2.8480   44.2640   53.1850 C   0  0  2  0  0  0  0  0  0  0  0  0
    1.3480   44.5940   53.1160 C   0  0  0  0  0  0  0  0  0  0  0  0
    0.7800   44.8930   54.4850 C   0  0  0  0  0  0  0  0  0  0  0  0
   -0.6120   44.8610   54.6660 C   0  0  0  0  0  0  0  0  0  0  0  0
   -1.1730   45.1910   55.9020 C   0  0  0  0  0  0  0  0  0  0  0  0
   -0.3510   45.5660   56.9670 C   0  0  0  0  0  0  0  0  0  0  0  0
    1.0340   45.6170   56.7980 C   0  0  0  0  0  0  0  0  0  0  0  0
    1.6110   45.3000   55.5580 C   0  0  0  0  0  0  0  0  0  0  0  0
    3.1160   45.3040   55.4250 C   0  0  0  0  0  0  0  0  0  0  0  0
    3.5150   45.2800   54.0130 N   0  0  0  0  0  0  0  0  0  0  0  0
    4.0990   46.4690   53.4460 C   0  0  0  0  0  0  0  0  0  0  0  0
    3.4340   47.1610   52.6300 O   0  0  0  0  0  0  0  0  0  0  0  0
    5.5000   46.8890   53.8010 C   0  0  1  0  0  0  0  0  0  0  0  0
    6.4720   45.7190   53.9640 C   0  0  0  0  0  0  0  0  0  0  0  0
    6.6050   46.6580   52.7650 C   0  0  0  0  0  0  0  0  0  0  0  0
    6.2670   46.0380   51.3970 C   0  0  0  0  0  0  0  0  0  0  0  0
    7.5530   45.6330   50.6370 C   0  0  0  0  0  0  0  0  0  0  0  0
    8.7520   46.0410   51.2790 O   0  0  0  0  0  0  0  0  0  0  0  0
    8.6960   47.4180   51.5960 C   0  0  0  0  0  0  0  0  0  0  0  0
    7.7840   47.6450   52.8070 C   0  0  0  0  0  0  0  0  0  0  0  0
    4.5491   41.2302   51.5231 H   0  0  0  0  0  0  0  0  0  0  0  0
    3.6657   42.1132   50.2321 H   0  0  0  0  0  0  0  0  0  0  0  0
    5.4618   42.0828   50.2321 H   0  0  0  0  0  0  0  0  0  0  0  0
    2.9879   43.2818   53.6601 H   0  0  0  0  0  0  0  0  0  0  0  0
    1.2053   45.4732   52.4706 H   0  0  0  0  0  0  0  0  0  0  0  0
    0.8215   43.7181   52.7090 H   0  0  0  0  0  0  0  0  0  0  0  0
   -1.2652   44.5741   53.8288 H   0  0  0  0  0  0  0  0  0  0  0  0
   -2.2641   45.1554   56.0367 H   0  0  0  0  0  0  0  0  0  0  0  0
   -0.7953   45.8215   57.9403 H   0  0  0  0  0  0  0  0  0  0  0  0
    1.6772   45.9074   57.6418 H   0  0  0  0  0  0  0  0  0  0  0  0
    3.5173   46.2126   55.8976 H   0  0  0  0  0  0  0  0  0  0  0  0
    3.5158   44.4064   55.9194 H   0  0  0  0  0  0  0  0  0  0  0  0
    5.1883   47.7637   54.3907 H   0  0  0  0  0  0  0  0  0  0  0  0
    7.2267   45.7388   54.7640 H   0  0  0  0  0  0  0  0  0  0  0  0
    6.3648   44.6317   54.0913 H   0  0  0  0  0  0  0  0  0  0  0  0
    5.6442   45.1445   51.5513 H   0  0  0  0  0  0  0  0  0  0  0  0
    5.7273   46.7860   50.7976 H   0  0  0  0  0  0  0  0  0  0  0  0
    7.5675   44.5374   50.5396 H   0  0  0  0  0  0  0  0  0  0  0  0
    7.5226   46.1426   49.6626 H   0  0  0  0  0  0  0  0  0  0  0  0
    9.7084   47.7784   51.8308 H   0  0  0  0  0  0  0  0  0  0  0  0
    8.2921   47.9690   50.7338 H   0  0  0  0  0  0  0  0  0  0  0  0
    8.3589   47.4877   53.7315 H   0  0  0  0  0  0  0  0  0  0  0  0
    7.3966   48.6742   52.7815 H   0  0  0  0  0  0  0  0  0  0  0  0
  1  2  1  0
  2  3  1  0
  3  4  2  0
  3  5  1  0
  5  6  1  0
  6  7  1  0
  7  8  2  0
  8  9  1  0
  9 10  2  0
 10 11  1  0
 11 12  2  0
 12 13  1  0
 13 14  1  0
 14 15  1  0
 15 16  2  0
 15 17  1  0
 17 18  1  0
 18 19  1  0
 19 20  1  0
 20 21  1  0
 21 22  1  0
 22 23  1  0
 23 24  1  0
 14  5  1  0
 19 17  1  0
 12  7  1  0
 24 19  1  0
  1 25  1  0
  1 26  1  0
  1 27  1  0
  5 28  1  1
  6 29  1  0
  6 30  1  0
  8 31  1  0
  9 32  1  0
 10 33  1  0
 11 34  1  0
 13 35  1  0
 13 36  1  0
 17 37  1  1
 18 38  1  0
 18 39  1  0
 20 40  1  0
 20 41  1  0
 21 42  1  0
 21 43  1  0
 23 44  1  0
 23 45  1  0
 24 46  1  0
 24 47  1  0
M  END
>  <meeko>  (5) 
{"is_sidechain": [false], "free_energy": -7.688, "intermolecular_energy": -9.811, "internal_energy": -0.235}

$$$$
