ligand_17_conformer_5_docked
     RDKit          3D

 40 42  0  0  0  0  0  0  0  0999 V2000
    5.0310   47.9810   54.1110 O   0  0  0  0  0  0  0  0  0  0  0  0
    4.7690   46.8490   53.6210 C   0  0  0  0  0  0  0  0  0  0  0  0
    5.7300   46.2020   52.7700 N   0  0  0  0  0  0  0  0  0  0  0  0
    7.1350   46.5070   52.7740 C   0  0  0  0  0  0  0  0  0  0  0  0
    7.7580   46.8990   51.5810 C   0  0  0  0  0  0  0  0  0  0  0  0
    9.1260   47.1800   51.5570 C   0  0  0  0  0  0  0  0  0  0  0  0
    9.8860   47.0600   52.7210 C   0  0  0  0  0  0  0  0  0  0  0  0
    9.2920   46.6490   53.9190 C   0  0  0  0  0  0  0  0  0  0  0  0
   10.1040   46.5310   55.0570 O   0  0  0  0  0  0  0  0  0  0  0  0
   10.7710   47.6150   55.6970 C   0  0  0  0  0  0  0  0  0  0  0  0
   11.4100   47.1690   56.8400 F   0  0  0  0  0  0  0  0  0  0  0  0
    9.8390   48.5730   56.0500 F   0  0  0  0  0  0  0  0  0  0  0  0
    7.9110   46.3640   53.9400 C   0  0  0  0  0  0  0  0  0  0  0  0
    3.4500   46.2240   53.8880 C   0  0  0  0  0  0  0  0  0  0  0  0
    2.6060   45.8680   52.8220 C   0  0  0  0  0  0  0  0  0  0  0  0
    1.3560   45.2960   53.0680 C   0  0  0  0  0  0  0  0  0  0  0  0
    0.9360   45.0690   54.3800 C   0  0  0  0  0  0  0  0  0  0  0  0
    1.7660   45.4020   55.4590 C   0  0  0  0  0  0  0  0  0  0  0  0
    1.2990   45.1840   56.8010 N   0  0  0  0  0  0  0  0  0  0  0  0
    0.6180   46.1710   57.5890 C   0  0  0  0  0  0  0  0  0  0  0  0
   -0.6430   46.5480   57.2470 N   0  0  0  0  0  0  0  0  0  0  0  0
   -1.3260   47.4620   57.9850 C   0  0  0  0  0  0  0  0  0  0  0  0
   -0.7380   48.0220   59.1170 C   0  0  0  0  0  0  0  0  0  0  0  0
    0.5510   47.6170   59.4640 C   0  0  0  0  0  0  0  0  0  0  0  0
    1.2010   46.7010   58.7000 N   0  0  0  0  0  0  0  0  0  0  0  0
    3.0120   46.0050   55.2070 C   0  0  0  0  0  0  0  0  0  0  0  0
    5.3720   45.5560   52.0290 H   0  0  0  0  0  0  0  0  0  0  0  0
    7.1659   46.9858   50.6580 H   0  0  0  0  0  0  0  0  0  0  0  0
    9.6051   47.4965   50.6187 H   0  0  0  0  0  0  0  0  0  0  0  0
   10.9613   47.2905   52.6964 H   0  0  0  0  0  0  0  0  0  0  0  0
   11.5139   48.0411   55.0066 H   0  0  0  0  0  0  0  0  0  0  0  0
    7.4368   46.0276   54.8738 H   0  0  0  0  0  0  0  0  0  0  0  0
    2.9326   46.0413   51.7860 H   0  0  0  0  0  0  0  0  0  0  0  0
    0.7014   45.0239   52.2269 H   0  0  0  0  0  0  0  0  0  0  0  0
   -0.0530   44.6258   54.5680 H   0  0  0  0  0  0  0  0  0  0  0  0
    1.5390   44.2780   57.2660 H   0  0  0  0  0  0  0  0  0  0  0  0
   -2.3427   47.7596   57.6887 H   0  0  0  0  0  0  0  0  0  0  0  0
   -1.2771   48.7655   59.7225 H   0  0  0  0  0  0  0  0  0  0  0  0
    1.0401   48.0386   60.3545 H   0  0  0  0  0  0  0  0  0  0  0  0
    3.6503   46.3084   56.0499 H   0  0  0  0  0  0  0  0  0  0  0  0
  1  2  2  0
  2  3  1  0
  3  4  1  0
  4  5  2  0
  5  6  1  0
  6  7  2  0
  7  8  1  0
  8  9  1  0
  9 10  1  0
 10 11  1  0
 10 12  1  0
  8 13  2  0
  2 14  1  0
 14 15  2  0
 15 16  1  0
 16 17  2  0
 17 18  1  0
 18 19  1  0
 19 20  1  0
 20 21  2  0
 21 22  1  0
 22 23  2  0
 23 24  1  0
 24 25  2  0
 18 26  2  0
 13  4  1  0
 26 14  1  0
 25 20  1  0
  3 27  1  0
  5 28  1  0
  6 29  1  0
  7 30  1  0
 10 31  1  0
 13 32  1  0
 15 33  1  0
 16 34  1  0
 17 35  1  0
 19 36  1  0
 22 37  1  0
 23 38  1  0
 24 39  1  0
 26 40  1  0
M  END
>  <meeko>  (1) 
{"is_sidechain": [false], "free_energy": -9.147, "intermolecular_energy": -12.355, "internal_energy": -0.734}

$$$$
ligand_17_conformer_5_docked
     RDKit          3D

 40 42  0  0  0  0  0  0  0  0999 V2000
    2.2580   46.0750   52.7630 O   0  0  0  0  0  0  0  0  0  0  0  0
    2.8390   44.9840   53.0150 C   0  0  0  0  0  0  0  0  0  0  0  0
    2.5010   44.2550   54.2070 N   0  0  0  0  0  0  0  0  0  0  0  0
    1.2590   44.4140   54.9140 C   0  0  0  0  0  0  0  0  0  0  0  0
    0.0840   43.8730   54.3720 C   0  0  0  0  0  0  0  0  0  0  0  0
   -1.1370   44.0320   55.0310 C   0  0  0  0  0  0  0  0  0  0  0  0
   -1.1980   44.7410   56.2310 C   0  0  0  0  0  0  0  0  0  0  0  0
   -0.0440   45.3090   56.7810 C   0  0  0  0  0  0  0  0  0  0  0  0
   -0.1630   46.0240   57.9830 O   0  0  0  0  0  0  0  0  0  0  0  0
    0.7410   47.0340   58.4210 C   0  0  0  0  0  0  0  0  0  0  0  0
    1.6860   46.4860   59.2700 F   0  0  0  0  0  0  0  0  0  0  0  0
    0.0360   48.0060   59.1050 F   0  0  0  0  0  0  0  0  0  0  0  0
    1.1870   45.1480   56.1130 C   0  0  0  0  0  0  0  0  0  0  0  0
    3.9010   44.4940   52.1020 C   0  0  0  0  0  0  0  0  0  0  0  0
    3.8730   43.1700   51.6290 C   0  0  0  0  0  0  0  0  0  0  0  0
    4.8800   42.6990   50.7840 C   0  0  0  0  0  0  0  0  0  0  0  0
    5.9230   43.5420   50.3980 C   0  0  0  0  0  0  0  0  0  0  0  0
    5.9640   44.8700   50.8450 C   0  0  0  0  0  0  0  0  0  0  0  0
    7.0640   45.7110   50.4560 N   0  0  0  0  0  0  0  0  0  0  0  0
    8.0360   46.2410   51.3680 C   0  0  0  0  0  0  0  0  0  0  0  0
    7.6780   47.2320   52.2280 N   0  0  0  0  0  0  0  0  0  0  0  0
    8.5660   47.7390   53.1230 C   0  0  0  0  0  0  0  0  0  0  0  0
    9.8650   47.2360   53.1750 C   0  0  0  0  0  0  0  0  0  0  0  0
   10.2150   46.2110   52.2970 C   0  0  0  0  0  0  0  0  0  0  0  0
    9.2980   45.7310   51.4170 N   0  0  0  0  0  0  0  0  0  0  0  0
    4.9640   45.3320   51.7190 C   0  0  0  0  0  0  0  0  0  0  0  0
    3.2410   43.6620   54.6460 H   0  0  0  0  0  0  0  0  0  0  0  0
    0.1244   43.3200   53.4220 H   0  0  0  0  0  0  0  0  0  0  0  0
   -2.0524   43.5974   54.6031 H   0  0  0  0  0  0  0  0  0  0  0  0
   -2.1617   44.8543   56.7491 H   0  0  0  0  0  0  0  0  0  0  0  0
    1.2448   47.4723   57.5469 H   0  0  0  0  0  0  0  0  0  0  0  0
    2.0984   45.5995   56.5320 H   0  0  0  0  0  0  0  0  0  0  0  0
    3.0523   42.5008   51.9267 H   0  0  0  0  0  0  0  0  0  0  0  0
    4.8511   41.6608   50.4217 H   0  0  0  0  0  0  0  0  0  0  0  0
    6.7177   43.1621   49.7391 H   0  0  0  0  0  0  0  0  0  0  0  0
    7.1160   46.0250   49.4600 H   0  0  0  0  0  0  0  0  0  0  0  0
    8.2601   48.5454   53.8057 H   0  0  0  0  0  0  0  0  0  0  0  0
   10.5964   47.6381   53.8915 H   0  0  0  0  0  0  0  0  0  0  0  0
   11.2318   45.7917   52.3168 H   0  0  0  0  0  0  0  0  0  0  0  0
    5.0135   46.3599   52.1075 H   0  0  0  0  0  0  0  0  0  0  0  0
  1  2  2  0
  2  3  1  0
  3  4  1  0
  4  5  2  0
  5  6  1  0
  6  7  2  0
  7  8  1  0
  8  9  1  0
  9 10  1  0
 10 11  1  0
 10 12  1  0
  8 13  2  0
  2 14  1  0
 14 15  2  0
 15 16  1  0
 16 17  2  0
 17 18  1  0
 18 19  1  0
 19 20  1  0
 20 21  2  0
 21 22  1  0
 22 23  2  0
 23 24  1  0
 24 25  2  0
 18 26  2  0
 13  4  1  0
 26 14  1  0
 25 20  1  0
  3 27  1  0
  5 28  1  0
  6 29  1  0
  7 30  1  0
 10 31  1  0
 13 32  1  0
 15 33  1  0
 16 34  1  0
 17 35  1  0
 19 36  1  0
 22 37  1  0
 23 38  1  0
 24 39  1  0
 26 40  1  0
M  END
>  <meeko>  (2) 
{"is_sidechain": [false], "free_energy": -8.764, "intermolecular_energy": -11.897, "internal_energy": -0.676}

$$$$
ligand_17_conformer_5_docked
     RDKit          3D

 40 42  0  0  0  0  0  0  0  0999 V2000
    2.7060   45.9280   51.5830 O   0  0  0  0  0  0  0  0  0  0  0  0
    2.9140   45.1350   52.5420 C   0  0  0  0  0  0  0  0  0  0  0  0
    4.1510   44.4080   52.6090 N   0  0  0  0  0  0  0  0  0  0  0  0
    5.3570   44.8190   51.9410 C   0  0  0  0  0  0  0  0  0  0  0  0
    5.6880   44.2470   50.7050 C   0  0  0  0  0  0  0  0  0  0  0  0
    6.8640   44.6150   50.0470 C   0  0  0  0  0  0  0  0  0  0  0  0
    7.7260   45.5480   50.6250 C   0  0  0  0  0  0  0  0  0  0  0  0
    7.4290   46.1170   51.8680 C   0  0  0  0  0  0  0  0  0  0  0  0
    8.3360   47.0400   52.4100 O   0  0  0  0  0  0  0  0  0  0  0  0
    9.5700   46.6970   53.0340 C   0  0  0  0  0  0  0  0  0  0  0  0
    9.9060   47.6560   53.9740 F   0  0  0  0  0  0  0  0  0  0  0  0
   10.5630   46.6430   52.0750 F   0  0  0  0  0  0  0  0  0  0  0  0
    6.2420   45.7420   52.5290 C   0  0  0  0  0  0  0  0  0  0  0  0
    1.8540   44.9260   53.5590 C   0  0  0  0  0  0  0  0  0  0  0  0
    0.6150   44.3750   53.1870 C   0  0  0  0  0  0  0  0  0  0  0  0
   -0.3920   44.1920   54.1380 C   0  0  0  0  0  0  0  0  0  0  0  0
   -0.1740   44.5510   55.4690 C   0  0  0  0  0  0  0  0  0  0  0  0
    1.0580   45.0880   55.8650 C   0  0  0  0  0  0  0  0  0  0  0  0
    1.2490   45.4760   57.2370 N   0  0  0  0  0  0  0  0  0  0  0  0
    0.4470   46.4510   57.9180 C   0  0  0  0  0  0  0  0  0  0  0  0
    0.9100   47.0170   59.0650 N   0  0  0  0  0  0  0  0  0  0  0  0
    0.1880   47.9630   59.7210 C   0  0  0  0  0  0  0  0  0  0  0  0
   -1.0430   48.3730   59.2160 C   0  0  0  0  0  0  0  0  0  0  0  0
   -1.5010   47.7950   58.0320 C   0  0  0  0  0  0  0  0  0  0  0  0
   -0.7490   46.8530   57.4050 N   0  0  0  0  0  0  0  0  0  0  0  0
    2.0590   45.2980   54.9000 C   0  0  0  0  0  0  0  0  0  0  0  0
    4.1460   43.4720   53.0750 H   0  0  0  0  0  0  0  0  0  0  0  0
    5.0172   43.5033   50.2500 H   0  0  0  0  0  0  0  0  0  0  0  0
    7.1109   44.1689   49.0723 H   0  0  0  0  0  0  0  0  0  0  0  0
    8.6471   45.8386   50.0985 H   0  0  0  0  0  0  0  0  0  0  0  0
    9.4659   45.7201   53.5288 H   0  0  0  0  0  0  0  0  0  0  0  0
    6.0054   46.1742   53.5124 H   0  0  0  0  0  0  0  0  0  0  0  0
    0.4374   44.0862   52.1406 H   0  0  0  0  0  0  0  0  0  0  0  0
   -1.3594   43.7638   53.8369 H   0  0  0  0  0  0  0  0  0  0  0  0
   -0.9738   44.4116   56.2112 H   0  0  0  0  0  0  0  0  0  0  0  0
    2.0720   45.0850   57.7500 H   0  0  0  0  0  0  0  0  0  0  0  0
    0.5760   48.4047   60.6507 H   0  0  0  0  0  0  0  0  0  0  0  0
   -1.6403   49.1348   59.7384 H   0  0  0  0  0  0  0  0  0  0  0  0
   -2.4684   48.1010   57.6071 H   0  0  0  0  0  0  0  0  0  0  0  0
    3.0129   45.7583   55.1971 H   0  0  0  0  0  0  0  0  0  0  0  0
  1  2  2  0
  2  3  1  0
  3  4  1  0
  4  5  2  0
  5  6  1  0
  6  7  2  0
  7  8  1  0
  8  9  1  0
  9 10  1  0
 10 11  1  0
 10 12  1  0
  8 13  2  0
  2 14  1  0
 14 15  2  0
 15 16  1  0
 16 17  2  0
 17 18  1  0
 18 19  1  0
 19 20  1  0
 20 21  2  0
 21 22  1  0
 22 23  2  0
 23 24  1  0
 24 25  2  0
 18 26  2  0
 13  4  1  0
 26 14  1  0
 25 20  1  0
  3 27  1  0
  5 28  1  0
  6 29  1  0
  7 30  1  0
 10 31  1  0
 13 32  1  0
 15 33  1  0
 16 34  1  0
 17 35  1  0
 19 36  1  0
 22 37  1  0
 23 38  1  0
 24 39  1  0
 26 40  1  0
M  END
>  <meeko>  (3) 
{"is_sidechain": [false], "free_energy": -8.588, "intermolecular_energy": -11.908, "internal_energy": -0.427}

$$$$
ligand_17_conformer_5_docked
     RDKit          3D

 40 42  0  0  0  0  0  0  0  0999 V2000
    4.0030   41.8560   51.5300 O   0  0  0  0  0  0  0  0  0  0  0  0
    4.1370   43.0760   51.2380 C   0  0  0  0  0  0  0  0  0  0  0  0
    3.0230   43.9710   51.3880 N   0  0  0  0  0  0  0  0  0  0  0  0
    1.9040   43.7150   52.2540 C   0  0  0  0  0  0  0  0  0  0  0  0
    1.9230   44.2060   53.5670 C   0  0  0  0  0  0  0  0  0  0  0  0
    0.8570   43.9530   54.4330 C   0  0  0  0  0  0  0  0  0  0  0  0
   -0.2330   43.1970   53.9990 C   0  0  0  0  0  0  0  0  0  0  0  0
   -0.2660   42.6780   52.7000 C   0  0  0  0  0  0  0  0  0  0  0  0
   -1.3800   41.9130   52.3190 O   0  0  0  0  0  0  0  0  0  0  0  0
   -2.5030   42.4140   51.6010 C   0  0  0  0  0  0  0  0  0  0  0  0
   -2.4170   42.0440   50.2710 F   0  0  0  0  0  0  0  0  0  0  0  0
   -2.5140   43.7930   51.6830 F   0  0  0  0  0  0  0  0  0  0  0  0
    0.8130   42.9340   51.8300 C   0  0  0  0  0  0  0  0  0  0  0  0
    5.4300   43.5580   50.6930 C   0  0  0  0  0  0  0  0  0  0  0  0
    6.1790   42.7450   49.8230 C   0  0  0  0  0  0  0  0  0  0  0  0
    7.4050   43.1870   49.3210 C   0  0  0  0  0  0  0  0  0  0  0  0
    7.8950   44.4450   49.6750 C   0  0  0  0  0  0  0  0  0  0  0  0
    7.1590   45.2790   50.5290 C   0  0  0  0  0  0  0  0  0  0  0  0
    7.6990   46.5590   50.9010 N   0  0  0  0  0  0  0  0  0  0  0  0
    8.3310   46.8310   52.1600 C   0  0  0  0  0  0  0  0  0  0  0  0
    9.6540   46.5580   52.3190 N   0  0  0  0  0  0  0  0  0  0  0  0
   10.2900   46.8280   53.4890 C   0  0  0  0  0  0  0  0  0  0  0  0
    9.5880   47.4000   54.5470 C   0  0  0  0  0  0  0  0  0  0  0  0
    8.2350   47.6870   54.3670 C   0  0  0  0  0  0  0  0  0  0  0  0
    7.6350   47.4030   53.1820 N   0  0  0  0  0  0  0  0  0  0  0  0
    5.9390   44.8180   51.0560 C   0  0  0  0  0  0  0  0  0  0  0  0
    2.9690   44.7980   50.7510 H   0  0  0  0  0  0  0  0  0  0  0  0
    2.7836   44.7947   53.9176 H   0  0  0  0  0  0  0  0  0  0  0  0
    0.8764   44.3501   55.4586 H   0  0  0  0  0  0  0  0  0  0  0  0
   -1.0729   43.0077   54.6837 H   0  0  0  0  0  0  0  0  0  0  0  0
   -3.4245   41.9998   52.0361 H   0  0  0  0  0  0  0  0  0  0  0  0
    0.8021   42.5198   50.8110 H   0  0  0  0  0  0  0  0  0  0  0  0
    5.7964   41.7544   49.5361 H   0  0  0  0  0  0  0  0  0  0  0  0
    7.9858   42.5422   48.6451 H   0  0  0  0  0  0  0  0  0  0  0  0
    8.8646   44.7844   49.2817 H   0  0  0  0  0  0  0  0  0  0  0  0
    7.5520   47.3640   50.2510 H   0  0  0  0  0  0  0  0  0  0  0  0
   11.3592   46.5948   53.6005 H   0  0  0  0  0  0  0  0  0  0  0  0
   10.0884   47.6201   55.5015 H   0  0  0  0  0  0  0  0  0  0  0  0
    7.6550   48.1425   55.1832 H   0  0  0  0  0  0  0  0  0  0  0  0
    5.3769   45.4497   51.7596 H   0  0  0  0  0  0  0  0  0  0  0  0
  1  2  2  0
  2  3  1  0
  3  4  1  0
  4  5  2  0
  5  6  1  0
  6  7  2  0
  7  8  1  0
  8  9  1  0
  9 10  1  0
 10 11  1  0
 10 12  1  0
  8 13  2  0
  2 14  1  0
 14 15  2  0
 15 16  1  0
 16 17  2  0
 17 18  1  0
 18 19  1  0
 19 20  1  0
 20 21  2  0
 21 22  1  0
 22 23  2  0
 23 24  1  0
 24 25  2  0
 18 26  2  0
 13  4  1  0
 26 14  1  0
 25 20  1  0
  3 27  1  0
  5 28  1  0
  6 29  1  0
  7 30  1  0
 10 31  1  0
 13 32  1  0
 15 33  1  0
 16 34  1  0
 17 35  1  0
 19 36  1  0
 22 37  1  0
 23 38  1  0
 24 39  1  0
 26 40  1  0
M  END
>  <meeko>  (4) 
{"is_sidechain": [false], "free_energy": -8.387, "intermolecular_energy": -11.179, "internal_energy": -0.885}

$$$$
ligand_17_conformer_5_docked
     RDKit          3D

 40 42  0  0  0  0  0  0  0  0999 V2000
    3.9230   41.9340   51.6110 O   0  0  0  0  0  0  0  0  0  0  0  0
    4.0980   43.1570   51.3560 C   0  0  0  0  0  0  0  0  0  0  0  0
    3.0310   44.0920   51.5860 N   0  0  0  0  0  0  0  0  0  0  0  0
    1.9390   43.8520   52.4910 C   0  0  0  0  0  0  0  0  0  0  0  0
    0.8820   43.0230   52.0890 C   0  0  0  0  0  0  0  0  0  0  0  0
   -0.1990   42.7920   52.9430 C   0  0  0  0  0  0  0  0  0  0  0  0
   -0.2400   43.3960   54.2010 C   0  0  0  0  0  0  0  0  0  0  0  0
    0.7920   44.2440   54.6160 C   0  0  0  0  0  0  0  0  0  0  0  0
    0.6960   44.8360   55.8850 O   0  0  0  0  0  0  0  0  0  0  0  0
   -0.5060   45.3450   56.4550 C   0  0  0  0  0  0  0  0  0  0  0  0
   -0.2230   46.4380   57.2540 F   0  0  0  0  0  0  0  0  0  0  0  0
   -1.0890   44.3620   57.2320 F   0  0  0  0  0  0  0  0  0  0  0  0
    1.8810   44.4760   53.7510 C   0  0  0  0  0  0  0  0  0  0  0  0
    5.3850   43.6040   50.7710 C   0  0  0  0  0  0  0  0  0  0  0  0
    6.1010   42.7590   49.9040 C   0  0  0  0  0  0  0  0  0  0  0  0
    7.3220   43.1680   49.3650 C   0  0  0  0  0  0  0  0  0  0  0  0
    7.8420   44.4240   49.6800 C   0  0  0  0  0  0  0  0  0  0  0  0
    7.1400   45.2900   50.5300 C   0  0  0  0  0  0  0  0  0  0  0  0
    7.7100   46.5680   50.8610 N   0  0  0  0  0  0  0  0  0  0  0  0
    8.3480   46.8660   52.1110 C   0  0  0  0  0  0  0  0  0  0  0  0
    9.6410   46.4920   52.3090 N   0  0  0  0  0  0  0  0  0  0  0  0
   10.2840   46.7820   53.4710 C   0  0  0  0  0  0  0  0  0  0  0  0
    9.6200   47.4790   54.4790 C   0  0  0  0  0  0  0  0  0  0  0  0
    8.3000   47.8670   54.2570 C   0  0  0  0  0  0  0  0  0  0  0  0
    7.6910   47.5600   53.0820 N   0  0  0  0  0  0  0  0  0  0  0  0
    5.9250   44.8620   51.0940 C   0  0  0  0  0  0  0  0  0  0  0  0
    2.9850   44.9430   50.9810 H   0  0  0  0  0  0  0  0  0  0  0  0
    0.9042   42.5518   51.0953 H   0  0  0  0  0  0  0  0  0  0  0  0
   -1.0197   42.1328   52.6236 H   0  0  0  0  0  0  0  0  0  0  0  0
   -1.0907   43.2035   54.8712 H   0  0  0  0  0  0  0  0  0  0  0  0
   -1.1894   45.6487   55.6483 H   0  0  0  0  0  0  0  0  0  0  0  0
    2.6919   45.1503   54.0636 H   0  0  0  0  0  0  0  0  0  0  0  0
    5.6959   41.7687   49.6488 H   0  0  0  0  0  0  0  0  0  0  0  0
    7.8756   42.4985   48.6903 H   0  0  0  0  0  0  0  0  0  0  0  0
    8.8089   44.7366   49.2587 H   0  0  0  0  0  0  0  0  0  0  0  0
    7.5820   47.3550   50.1850 H   0  0  0  0  0  0  0  0  0  0  0  0
   11.3279   46.4668   53.6157 H   0  0  0  0  0  0  0  0  0  0  0  0
   10.1255   47.7170   55.4265 H   0  0  0  0  0  0  0  0  0  0  0  0
    7.7515   48.4215   55.0327 H   0  0  0  0  0  0  0  0  0  0  0  0
    5.3905   45.5188   51.7961 H   0  0  0  0  0  0  0  0  0  0  0  0
  1  2  2  0
  2  3  1  0
  3  4  1  0
  4  5  2  0
  5  6  1  0
  6  7  2  0
  7  8  1  0
  8  9  1  0
  9 10  1  0
 10 11  1  0
 10 12  1  0
  8 13  2  0
  2 14  1  0
 14 15  2  0
 15 16  1  0
 16 17  2  0
 17 18  1  0
 18 19  1  0
 19 20  1  0
 20 21  2  0
 21 22  1  0
 22 23  2  0
 23 24  1  0
 24 25  2  0
 18 26  2  0
 13  4  1  0
 26 14  1  0
 25 20  1  0
  3 27  1  0
  5 28  1  0
  6 29  1  0
  7 30  1  0
 10 31  1  0
 13 32  1  0
 15 33  1  0
 16 34  1  0
 17 35  1  0
 19 36  1  0
 22 37  1  0
 23 38  1  0
 24 39  1  0
 26 40  1  0
M  END
>  <meeko>  (5) 
{"is_sidechain": [false], "free_energy": -8.361, "intermolecular_energy": -11.316, "internal_energy": -0.712}

$$$$
