MODEL 1
REMARK VINA RESULT:    -9.097      0.000      0.000
REMARK INTER + INTRA:         -11.506
REMARK INTER:                 -11.225
REMARK INTRA:                  -0.281
REMARK UNBOUND:                -0.281
REMARK SMILES Cc1ccc(C)c(S(=O)(=O)Nc2ccc(-c3cnc(C)o3)cc2)c1
REMARK SMILES IDX 11 1 12 3 15 4 14 5 22 6 13 7 23 8 16 9 19 10 18 11 21 12
REMARK SMILES IDX 17 13 20 14 8 15 9 16 10 17 7 18 24 19 5 20 2 21 4 22 3 23
REMARK SMILES IDX 6 24 1 25
REMARK H PARENT 11 2
ROOT
ATOM      1  N   UNL     1       5.388  43.821  52.258  1.00  0.00    -0.280 N 
ATOM      2  H   UNL     1       5.752  43.414  53.149  1.00  0.00     0.180 HD
ENDROOT
BRANCH   1   3
ATOM      3  C   UNL     1       4.961  42.935  51.208  1.00  0.00     0.049 A 
ATOM      4  C   UNL     1       4.063  41.181  49.185  1.00  0.00     0.019 A 
ATOM      5  C   UNL     1       5.400  41.610  49.215  1.00  0.00     0.014 A 
ATOM      6  C   UNL     1       3.178  41.644  50.172  1.00  0.00     0.014 A 
ATOM      7  C   UNL     1       5.844  42.480  50.214  1.00  0.00     0.027 A 
ATOM      8  C   UNL     1       3.624  42.514  51.171  1.00  0.00     0.027 A 
BRANCH   4   9
ATOM      9  C   UNL     1       3.617  40.256  48.118  1.00  0.00     0.154 A 
ATOM     10  C   UNL     1       2.754  38.585  47.161  1.00  0.00     0.191 A 
ATOM     11  N   UNL     1       3.223  39.330  46.138  1.00  0.00    -0.222 NA
ATOM     12  O   UNL     1       2.989  39.126  48.335  1.00  0.00    -0.441 OA
ATOM     13  C   UNL     1       3.769  40.397  46.751  1.00  0.00     0.162 A 
ATOM     14  C   UNL     1       2.075  37.272  46.978  1.00  0.00     0.111 C 
ENDBRANCH   4   9
ENDBRANCH   1   3
BRANCH   1  15
ATOM     15  S   UNL     1       5.504  45.543  52.078  1.00  0.00     0.262 S 
ATOM     16  O   UNL     1       4.990  45.923  50.717  1.00  0.00    -0.201 OA
ATOM     17  O   UNL     1       4.645  46.213  53.115  1.00  0.00    -0.201 OA
BRANCH  15  18
ATOM     18  C   UNL     1       7.181  46.075  52.292  1.00  0.00     0.090 A 
ATOM     19  C   UNL     1       7.527  46.762  53.467  1.00  0.00     0.026 A 
ATOM     20  C   UNL     1       8.176  45.830  51.311  1.00  0.00    -0.031 A 
ATOM     21  C   UNL     1       8.830  47.239  53.664  1.00  0.00    -0.050 A 
ATOM     22  C   UNL     1       9.480  46.308  51.524  1.00  0.00     0.005 A 
ATOM     23  C   UNL     1       9.806  46.996  52.692  1.00  0.00     0.004 A 
ATOM     24  C   UNL     1       7.868  45.115  50.023  1.00  0.00     0.046 C 
ATOM     25  C   UNL     1       9.190  47.944  54.939  1.00  0.00     0.044 C 
ENDBRANCH  15  18
ENDBRANCH   1  15
TORSDOF 4
ENDMDL
MODEL 2
REMARK VINA RESULT:    -9.044      4.731      6.176
REMARK INTER + INTRA:         -11.440
REMARK INTER:                 -11.526
REMARK INTRA:                   0.086
REMARK UNBOUND:                -0.281
REMARK SMILES Cc1ccc(C)c(S(=O)(=O)Nc2ccc(-c3cnc(C)o3)cc2)c1
REMARK SMILES IDX 11 1 12 3 15 4 14 5 22 6 13 7 23 8 16 9 19 10 18 11 21 12
REMARK SMILES IDX 17 13 20 14 8 15 9 16 10 17 7 18 24 19 5 20 2 21 4 22 3 23
REMARK SMILES IDX 6 24 1 25
REMARK H PARENT 11 2
ROOT
ATOM      1  N   UNL     1       5.115  45.190  53.853  1.00  0.00    -0.280 N 
ATOM      2  H   UNL     1       5.812  44.427  54.009  1.00  0.00     0.180 HD
ENDROOT
BRANCH   1   3
ATOM      3  C   UNL     1       3.727  44.935  54.133  1.00  0.00     0.049 A 
ATOM      4  C   UNL     1       0.993  44.418  54.614  1.00  0.00     0.019 A 
ATOM      5  C   UNL     1       1.756  45.141  55.545  1.00  0.00     0.014 A 
ATOM      6  C   UNL     1       1.613  43.950  53.443  1.00  0.00     0.014 A 
ATOM      7  C   UNL     1       3.110  45.394  55.310  1.00  0.00     0.027 A 
ATOM      8  C   UNL     1       2.967  44.205  53.209  1.00  0.00     0.027 A 
BRANCH   4   9
ATOM      9  C   UNL     1      -0.440  44.164  54.885  1.00  0.00     0.154 A 
ATOM     10  C   UNL     1      -2.266  43.958  55.922  1.00  0.00     0.191 A 
ATOM     11  N   UNL     1      -2.593  43.672  54.644  1.00  0.00    -0.222 NA
ATOM     12  O   UNL     1      -0.993  44.245  56.070  1.00  0.00    -0.441 OA
ATOM     13  C   UNL     1      -1.427  43.808  53.984  1.00  0.00     0.162 A 
ATOM     14  C   UNL     1      -3.241  43.916  57.048  1.00  0.00     0.111 C 
ENDBRANCH   4   9
ENDBRANCH   1   3
BRANCH   1  15
ATOM     15  S   UNL     1       5.696  46.641  53.099  1.00  0.00     0.262 S 
ATOM     16  O   UNL     1       5.096  46.746  51.724  1.00  0.00    -0.201 OA
ATOM     17  O   UNL     1       5.255  47.833  53.903  1.00  0.00    -0.201 OA
BRANCH  15  18
ATOM     18  C   UNL     1       7.467  46.629  53.018  1.00  0.00     0.090 A 
ATOM     19  C   UNL     1       8.197  47.059  54.138  1.00  0.00     0.026 A 
ATOM     20  C   UNL     1       8.160  46.205  51.856  1.00  0.00    -0.031 A 
ATOM     21  C   UNL     1       9.597  47.106  54.108  1.00  0.00    -0.050 A 
ATOM     22  C   UNL     1       9.564  46.251  51.841  1.00  0.00     0.005 A 
ATOM     23  C   UNL     1      10.276  46.688  52.958  1.00  0.00     0.004 A 
ATOM     24  C   UNL     1       7.438  45.749  50.616  1.00  0.00     0.046 C 
ATOM     25  C   UNL     1      10.364  47.538  55.323  1.00  0.00     0.044 C 
ENDBRANCH  15  18
ENDBRANCH   1  15
TORSDOF 4
ENDMDL
MODEL 3
REMARK VINA RESULT:    -8.941      3.773      4.385
REMARK INTER + INTRA:         -11.312
REMARK INTER:                 -11.074
REMARK INTRA:                  -0.238
REMARK UNBOUND:                -0.281
REMARK SMILES Cc1ccc(C)c(S(=O)(=O)Nc2ccc(-c3cnc(C)o3)cc2)c1
REMARK SMILES IDX 11 1 12 3 15 4 14 5 22 6 13 7 23 8 16 9 19 10 18 11 21 12
REMARK SMILES IDX 17 13 20 14 8 15 9 16 10 17 7 18 24 19 5 20 2 21 4 22 3 23
REMARK SMILES IDX 6 24 1 25
REMARK H PARENT 11 2
ROOT
ATOM      1  N   UNL     1       5.167  45.014  53.905  1.00  0.00    -0.280 N 
ATOM      2  H   UNL     1       5.864  44.355  54.318  1.00  0.00     0.180 HD
ENDROOT
BRANCH   1   3
ATOM      3  C   UNL     1       3.884  44.507  53.497  1.00  0.00     0.049 A 
ATOM      4  C   UNL     1       1.394  43.487  52.636  1.00  0.00     0.019 A 
ATOM      5  C   UNL     1       1.457  44.437  53.669  1.00  0.00     0.014 A 
ATOM      6  C   UNL     1       2.590  43.047  52.043  1.00  0.00     0.014 A 
ATOM      7  C   UNL     1       2.689  44.940  54.098  1.00  0.00     0.027 A 
ATOM      8  C   UNL     1       3.820  43.551  52.473  1.00  0.00     0.027 A 
BRANCH   4   9
ATOM      9  C   UNL     1       0.078  42.971  52.198  1.00  0.00     0.154 A 
ATOM     10  C   UNL     1      -1.707  42.744  51.096  1.00  0.00     0.191 A 
ATOM     11  N   UNL     1      -1.799  41.793  52.049  1.00  0.00    -0.222 NA
ATOM     12  O   UNL     1      -0.602  43.448  51.183  1.00  0.00    -0.441 OA
ATOM     13  C   UNL     1      -0.658  41.938  52.748  1.00  0.00     0.162 A 
ATOM     14  C   UNL     1      -2.767  42.993  50.079  1.00  0.00     0.111 C 
ENDBRANCH   4   9
ENDBRANCH   1   3
BRANCH   1  15
ATOM     15  S   UNL     1       5.707  46.633  53.592  1.00  0.00     0.262 S 
ATOM     16  O   UNL     1       4.977  47.164  52.390  1.00  0.00    -0.201 OA
ATOM     17  O   UNL     1       5.380  47.506  54.772  1.00  0.00    -0.201 OA
BRANCH  15  18
ATOM     18  C   UNL     1       7.460  46.659  53.329  1.00  0.00     0.090 A 
ATOM     19  C   UNL     1       8.294  47.080  54.378  1.00  0.00     0.026 A 
ATOM     20  C   UNL     1       8.038  46.275  52.093  1.00  0.00    -0.031 A 
ATOM     21  C   UNL     1       9.683  47.157  54.206  1.00  0.00    -0.050 A 
ATOM     22  C   UNL     1       9.432  46.350  51.936  1.00  0.00     0.005 A 
ATOM     23  C   UNL     1      10.247  46.778  52.983  1.00  0.00     0.004 A 
ATOM     24  C   UNL     1       7.201  45.831  50.923  1.00  0.00     0.046 C 
ATOM     25  C   UNL     1      10.562  47.578  55.347  1.00  0.00     0.044 C 
ENDBRANCH  15  18
ENDBRANCH   1  15
TORSDOF 4
ENDMDL
MODEL 4
REMARK VINA RESULT:    -8.434      5.184      9.031
REMARK INTER + INTRA:         -10.687
REMARK INTER:                 -10.501
REMARK INTRA:                  -0.187
REMARK UNBOUND:                -0.281
REMARK SMILES Cc1ccc(C)c(S(=O)(=O)Nc2ccc(-c3cnc(C)o3)cc2)c1
REMARK SMILES IDX 11 1 12 3 15 4 14 5 22 6 13 7 23 8 16 9 19 10 18 11 21 12
REMARK SMILES IDX 17 13 20 14 8 15 9 16 10 17 7 18 24 19 5 20 2 21 4 22 3 23
REMARK SMILES IDX 6 24 1 25
REMARK H PARENT 11 2
ROOT
ATOM      1  N   UNL     1       2.408  46.460  52.773  1.00  0.00    -0.280 N 
ATOM      2  H   UNL     1       1.875  47.288  52.424  1.00  0.00     0.180 HD
ENDROOT
BRANCH   1   3
ATOM      3  C   UNL     1       3.822  46.588  53.007  1.00  0.00     0.049 A 
ATOM      4  C   UNL     1       6.584  46.870  53.528  1.00  0.00     0.019 A 
ATOM      5  C   UNL     1       6.128  46.590  52.230  1.00  0.00     0.014 A 
ATOM      6  C   UNL     1       5.644  47.000  54.565  1.00  0.00     0.014 A 
ATOM      7  C   UNL     1       4.762  46.447  51.971  1.00  0.00     0.027 A 
ATOM      8  C   UNL     1       4.279  46.857  54.305  1.00  0.00     0.027 A 
BRANCH   4   9
ATOM      9  C   UNL     1       8.035  47.019  53.776  1.00  0.00     0.154 A 
ATOM     10  C   UNL     1       9.864  47.313  54.786  1.00  0.00     0.191 A 
ATOM     11  N   UNL     1      10.236  47.145  53.499  1.00  0.00    -0.222 NA
ATOM     12  O   UNL     1       8.564  47.245  54.954  1.00  0.00    -0.441 OA
ATOM     13  C   UNL     1       9.068  46.954  52.858  1.00  0.00     0.162 A 
ATOM     14  C   UNL     1      10.827  47.585  55.890  1.00  0.00     0.111 C 
ENDBRANCH   4   9
ENDBRANCH   1   3
BRANCH   1  15
ATOM     15  S   UNL     1       1.548  44.956  52.867  1.00  0.00     0.262 S 
ATOM     16  O   UNL     1       0.679  44.818  51.648  1.00  0.00    -0.201 OA
ATOM     17  O   UNL     1       2.531  43.818  52.882  1.00  0.00    -0.201 OA
BRANCH  15  18
ATOM     18  C   UNL     1       0.576  44.892  54.348  1.00  0.00     0.090 A 
ATOM     19  C   UNL     1       1.017  45.603  55.477  1.00  0.00     0.026 A 
ATOM     20  C   UNL     1      -0.624  44.141  54.424  1.00  0.00    -0.031 A 
ATOM     21  C   UNL     1       0.304  45.551  56.682  1.00  0.00    -0.050 A 
ATOM     22  C   UNL     1      -1.332  44.102  55.638  1.00  0.00     0.005 A 
ATOM     23  C   UNL     1      -0.878  44.807  56.752  1.00  0.00     0.004 A 
ATOM     24  C   UNL     1      -1.143  43.343  53.258  1.00  0.00     0.046 C 
ATOM     25  C   UNL     1       0.772  46.341  57.869  1.00  0.00     0.044 C 
ENDBRANCH  15  18
ENDBRANCH   1  15
TORSDOF 4
ENDMDL
MODEL 5
REMARK VINA RESULT:    -8.423      4.181      6.136
REMARK INTER + INTRA:         -10.674
REMARK INTER:                 -10.698
REMARK INTRA:                   0.025
REMARK UNBOUND:                -0.281
REMARK SMILES Cc1ccc(C)c(S(=O)(=O)Nc2ccc(-c3cnc(C)o3)cc2)c1
REMARK SMILES IDX 11 1 12 3 15 4 14 5 22 6 13 7 23 8 16 9 19 10 18 11 21 12
REMARK SMILES IDX 17 13 20 14 8 15 9 16 10 17 7 18 24 19 5 20 2 21 4 22 3 23
REMARK SMILES IDX 6 24 1 25
REMARK H PARENT 11 2
ROOT
ATOM      1  N   UNL     1       4.649  47.194  54.577  1.00  0.00    -0.280 N 
ATOM      2  H   UNL     1       4.584  48.174  54.934  1.00  0.00     0.180 HD
ENDROOT
BRANCH   1   3
ATOM      3  C   UNL     1       3.438  46.461  54.325  1.00  0.00     0.049 A 
ATOM      4  C   UNL     1       1.045  45.065  53.773  1.00  0.00     0.019 A 
ATOM      5  C   UNL     1       1.689  44.914  55.012  1.00  0.00     0.014 A 
ATOM      6  C   UNL     1       1.614  45.915  52.810  1.00  0.00     0.014 A 
ATOM      7  C   UNL     1       2.875  45.602  55.284  1.00  0.00     0.027 A 
ATOM      8  C   UNL     1       2.799  46.603  53.085  1.00  0.00     0.027 A 
BRANCH   4   9
ATOM      9  C   UNL     1      -0.211  44.327  53.509  1.00  0.00     0.154 A 
ATOM     10  C   UNL     1      -2.269  43.897  53.327  1.00  0.00     0.191 A 
ATOM     11  N   UNL     1      -1.670  42.742  52.967  1.00  0.00    -0.222 NA
ATOM     12  O   UNL     1      -1.410  44.836  53.654  1.00  0.00    -0.441 OA
ATOM     13  C   UNL     1      -0.357  43.021  53.080  1.00  0.00     0.162 A 
ATOM     14  C   UNL     1      -3.747  44.072  53.384  1.00  0.00     0.111 C 
ENDBRANCH   4   9
ENDBRANCH   1   3
BRANCH   1  15
ATOM     15  S   UNL     1       6.235  46.493  54.493  1.00  0.00     0.262 S 
ATOM     16  O   UNL     1       7.244  47.526  54.915  1.00  0.00    -0.201 OA
ATOM     17  O   UNL     1       6.318  45.331  55.443  1.00  0.00    -0.201 OA
BRANCH  15  18
ATOM     18  C   UNL     1       6.569  45.916  52.851  1.00  0.00     0.090 A 
ATOM     19  C   UNL     1       5.846  44.815  52.362  1.00  0.00     0.026 A 
ATOM     20  C   UNL     1       7.544  46.530  52.025  1.00  0.00    -0.031 A 
ATOM     21  C   UNL     1       6.103  44.297  51.086  1.00  0.00    -0.050 A 
ATOM     22  C   UNL     1       7.787  46.004  50.745  1.00  0.00     0.005 A 
ATOM     23  C   UNL     1       7.068  44.905  50.277  1.00  0.00     0.004 A 
ATOM     24  C   UNL     1       8.365  47.702  52.494  1.00  0.00     0.046 C 
ATOM     25  C   UNL     1       5.301  43.139  50.567  1.00  0.00     0.044 C 
ENDBRANCH  15  18
ENDBRANCH   1  15
TORSDOF 4
ENDMDL
