MODEL 1
REMARK VINA RESULT:    -8.820      0.000      0.000
REMARK INTER + INTRA:         -12.412
REMARK INTER:                 -11.914
REMARK INTRA:                  -0.498
REMARK UNBOUND:                -0.498
REMARK SMILES O=C(C[C@@H]1C[C@H]2CC[C@@H](C1)N2)Nc1ccc(OCc2cccnc2)c(Cl)c1
REMARK SMILES IDX 13 1 14 2 15 3 16 4 25 5 26 6 27 7 12 8 1 9 2 10 3 12 4 13
REMARK SMILES IDX 10 14 5 15 9 16 6 17 8 18 11 19 7 20 17 22 18 23 19 24 20 25
REMARK SMILES IDX 24 26 21 27 23 28 22 29
REMARK H PARENT 12 11 11 21
ROOT
ATOM      1  C   UNL     1       4.073  43.652  52.306  1.00  0.00     0.042 A 
ATOM      2  C   UNL     1       4.442  44.930  52.759  1.00  0.00     0.030 A 
ATOM      3  C   UNL     1       5.489  45.622  52.145  1.00  0.00     0.050 A 
ATOM      4  C   UNL     1       6.177  45.055  51.056  1.00  0.00     0.138 A 
ATOM      5  C   UNL     1       5.793  43.789  50.590  1.00  0.00     0.085 A 
ATOM      6  Cl  UNL     1       6.620  43.054  49.226  1.00  0.00    -0.080 Cl
ATOM      7  C   UNL     1       4.743  43.098  51.207  1.00  0.00     0.050 A 
ENDROOT
BRANCH   1   8
ATOM      8  N   UNL     1       2.985  42.929  52.905  1.00  0.00    -0.326 N 
ATOM      9  O   UNL     1       1.264  44.063  51.789  1.00  0.00    -0.275 OA
ATOM     10  C   UNL     1       1.602  43.140  52.578  1.00  0.00     0.224 C 
ATOM     11  H   UNL     1       3.207  42.289  53.702  1.00  0.00     0.169 HD
BRANCH  10  12
ATOM     12  C   UNL     1       0.540  42.279  53.205  1.00  0.00     0.104 C 
BRANCH  12  13
ATOM     13  C   UNL     1      -0.381  43.030  54.194  1.00  0.00     0.001 C 
ATOM     14  C   UNL     1       0.338  44.197  54.933  1.00  0.00     0.023 C 
ATOM     15  C   UNL     1      -1.724  43.478  53.547  1.00  0.00     0.023 C 
ATOM     16  C   UNL     1      -0.673  45.109  55.667  1.00  0.00     0.054 C 
ATOM     17  C   UNL     1      -2.480  44.482  54.450  1.00  0.00     0.054 C 
ATOM     18  C   UNL     1      -1.536  44.324  56.664  1.00  0.00     0.020 C 
ATOM     19  N   UNL     1      -1.600  45.626  54.665  1.00  0.00    -0.311 NA
ATOM     20  C   UNL     1      -2.754  43.903  55.845  1.00  0.00     0.020 C 
ATOM     21  H   UNL     1      -2.159  46.404  55.093  1.00  0.00     0.123 HD
ENDBRANCH  12  13
ENDBRANCH  10  12
ENDBRANCH   1   8
BRANCH   4  22
ATOM     22  O   UNL     1       7.237  45.716  50.415  1.00  0.00    -0.487 OA
BRANCH  22  23
ATOM     23  C   UNL     1       8.603  45.618  50.803  1.00  0.00     0.267 C 
BRANCH  23  24
ATOM     24  C   UNL     1       8.837  46.494  52.000  1.00  0.00     0.008 A 
ATOM     25  C   UNL     1       9.692  46.080  53.032  1.00  0.00     0.010 A 
ATOM     26  C   UNL     1       8.150  47.710  52.138  1.00  0.00     0.118 A 
ATOM     27  C   UNL     1       9.868  46.889  54.156  1.00  0.00     0.020 A 
ATOM     28  N   UNL     1       8.340  48.479  53.243  1.00  0.00    -0.264 NA
ATOM     29  C   UNL     1       9.179  48.100  54.244  1.00  0.00     0.111 A 
ENDBRANCH  23  24
ENDBRANCH  22  23
ENDBRANCH   4  22
TORSDOF 6
ENDMDL
MODEL 2
REMARK VINA RESULT:    -8.564      1.531      2.066
REMARK INTER + INTRA:         -12.066
REMARK INTER:                 -11.624
REMARK INTRA:                  -0.442
REMARK UNBOUND:                -0.498
REMARK SMILES O=C(C[C@@H]1C[C@H]2CC[C@@H](C1)N2)Nc1ccc(OCc2cccnc2)c(Cl)c1
REMARK SMILES IDX 13 1 14 2 15 3 16 4 25 5 26 6 27 7 12 8 1 9 2 10 3 12 4 13
REMARK SMILES IDX 10 14 5 15 9 16 6 17 8 18 11 19 7 20 17 22 18 23 19 24 20 25
REMARK SMILES IDX 24 26 21 27 23 28 22 29
REMARK H PARENT 12 11 11 21
ROOT
ATOM      1  C   UNL     1       3.247  43.015  51.480  1.00  0.00     0.042 A 
ATOM      2  C   UNL     1       3.506  44.386  51.644  1.00  0.00     0.030 A 
ATOM      3  C   UNL     1       4.766  44.908  51.339  1.00  0.00     0.050 A 
ATOM      4  C   UNL     1       5.787  44.070  50.852  1.00  0.00     0.138 A 
ATOM      5  C   UNL     1       5.519  42.705  50.668  1.00  0.00     0.085 A 
ATOM      6  Cl  UNL     1       6.764  41.630  50.050  1.00  0.00    -0.080 Cl
ATOM      7  C   UNL     1       4.256  42.186  50.972  1.00  0.00     0.050 A 
ENDROOT
BRANCH   1   8
ATOM      8  N   UNL     1       1.953  42.458  51.763  1.00  0.00    -0.326 N 
ATOM      9  O   UNL     1       1.639  43.540  53.819  1.00  0.00    -0.275 OA
ATOM     10  C   UNL     1       1.170  42.788  52.922  1.00  0.00     0.224 C 
ATOM     11  H   UNL     1       1.609  41.687  51.145  1.00  0.00     0.169 HD
BRANCH  10  12
ATOM     12  C   UNL     1      -0.207  42.209  53.091  1.00  0.00     0.104 C 
BRANCH  12  13
ATOM     13  C   UNL     1      -1.351  43.172  52.701  1.00  0.00     0.001 C 
ATOM     14  C   UNL     1      -1.785  44.109  53.867  1.00  0.00     0.023 C 
ATOM     15  C   UNL     1      -1.059  43.957  51.389  1.00  0.00     0.023 C 
ATOM     16  C   UNL     1      -2.697  45.253  53.363  1.00  0.00     0.054 C 
ATOM     17  C   UNL     1      -2.058  45.122  51.192  1.00  0.00     0.054 C 
ATOM     18  C   UNL     1      -3.943  44.718  52.643  1.00  0.00     0.020 C 
ATOM     19  N   UNL     1      -1.947  45.996  52.355  1.00  0.00    -0.311 NA
ATOM     20  C   UNL     1      -3.513  44.633  51.180  1.00  0.00     0.020 C 
ATOM     21  H   UNL     1      -2.453  46.892  52.152  1.00  0.00     0.123 HD
ENDBRANCH  12  13
ENDBRANCH  10  12
ENDBRANCH   1   8
BRANCH   4  22
ATOM     22  O   UNL     1       7.067  44.554  50.540  1.00  0.00    -0.487 OA
BRANCH  22  23
ATOM     23  C   UNL     1       7.369  45.917  50.258  1.00  0.00     0.267 C 
BRANCH  23  24
ATOM     24  C   UNL     1       8.039  46.529  51.453  1.00  0.00     0.008 A 
ATOM     25  C   UNL     1       9.377  46.235  51.751  1.00  0.00     0.010 A 
ATOM     26  C   UNL     1       7.316  47.350  52.332  1.00  0.00     0.118 A 
ATOM     27  C   UNL     1       9.974  46.781  52.888  1.00  0.00     0.020 A 
ATOM     28  N   UNL     1       7.921  47.869  53.434  1.00  0.00    -0.264 NA
ATOM     29  C   UNL     1       9.223  47.609  53.725  1.00  0.00     0.111 A 
ENDBRANCH  23  24
ENDBRANCH  22  23
ENDBRANCH   4  22
TORSDOF 6
ENDMDL
MODEL 3
REMARK VINA RESULT:    -8.309      1.977      2.602
REMARK INTER + INTRA:         -11.722
REMARK INTER:                 -11.064
REMARK INTRA:                  -0.658
REMARK UNBOUND:                -0.498
REMARK SMILES O=C(C[C@@H]1C[C@H]2CC[C@@H](C1)N2)Nc1ccc(OCc2cccnc2)c(Cl)c1
REMARK SMILES IDX 13 1 14 2 15 3 16 4 25 5 26 6 27 7 12 8 1 9 2 10 3 12 4 13
REMARK SMILES IDX 10 14 5 15 9 16 6 17 8 18 11 19 7 20 17 22 18 23 19 24 20 25
REMARK SMILES IDX 24 26 21 27 23 28 22 29
REMARK H PARENT 12 11 11 21
ROOT
ATOM      1  C   UNL     1       2.288  45.539  52.506  1.00  0.00     0.042 A 
ATOM      2  C   UNL     1       2.785  45.787  51.216  1.00  0.00     0.030 A 
ATOM      3  C   UNL     1       4.152  45.670  50.950  1.00  0.00     0.050 A 
ATOM      4  C   UNL     1       5.046  45.289  51.968  1.00  0.00     0.138 A 
ATOM      5  C   UNL     1       4.545  45.020  53.251  1.00  0.00     0.085 A 
ATOM      6  Cl  UNL     1       5.629  44.531  54.544  1.00  0.00    -0.080 Cl
ATOM      7  C   UNL     1       3.176  45.136  53.513  1.00  0.00     0.050 A 
ENDROOT
BRANCH   1   8
ATOM      8  N   UNL     1       0.884  45.628  52.799  1.00  0.00    -0.326 N 
ATOM      9  O   UNL     1       0.420  43.341  52.586  1.00  0.00    -0.275 OA
ATOM     10  C   UNL     1       0.003  44.495  52.873  1.00  0.00     0.224 C 
ATOM     11  H   UNL     1       0.459  46.583  52.855  1.00  0.00     0.169 HD
BRANCH  10  12
ATOM     12  C   UNL     1      -1.437  44.685  53.262  1.00  0.00     0.104 C 
BRANCH  12  13
ATOM     13  C   UNL     1      -1.642  45.164  54.717  1.00  0.00     0.001 C 
ATOM     14  C   UNL     1      -2.980  44.668  55.341  1.00  0.00     0.023 C 
ATOM     15  C   UNL     1      -0.417  44.865  55.629  1.00  0.00     0.023 C 
ATOM     16  C   UNL     1      -3.008  44.897  56.871  1.00  0.00     0.054 C 
ATOM     17  C   UNL     1      -0.762  45.066  57.124  1.00  0.00     0.054 C 
ATOM     18  C   UNL     1      -2.788  46.371  57.235  1.00  0.00     0.020 C 
ATOM     19  N   UNL     1      -1.874  44.176  57.441  1.00  0.00    -0.311 NA
ATOM     20  C   UNL     1      -1.275  46.485  57.408  1.00  0.00     0.020 C 
ATOM     21  H   UNL     1      -1.988  44.137  58.482  1.00  0.00     0.123 HD
ENDBRANCH  12  13
ENDBRANCH  10  12
ENDBRANCH   1   8
BRANCH   4  22
ATOM     22  O   UNL     1       6.426  45.166  51.743  1.00  0.00    -0.487 OA
BRANCH  22  23
ATOM     23  C   UNL     1       7.274  46.229  51.321  1.00  0.00     0.267 C 
BRANCH  23  24
ATOM     24  C   UNL     1       8.084  46.705  52.491  1.00  0.00     0.008 A 
ATOM     25  C   UNL     1       9.472  46.503  52.531  1.00  0.00     0.010 A 
ATOM     26  C   UNL     1       7.457  47.298  53.598  1.00  0.00     0.118 A 
ATOM     27  C   UNL     1      10.205  46.916  53.644  1.00  0.00     0.020 A 
ATOM     28  N   UNL     1       8.194  47.692  54.671  1.00  0.00    -0.264 NA
ATOM     29  C   UNL     1       9.542  47.519  54.715  1.00  0.00     0.111 A 
ENDBRANCH  23  24
ENDBRANCH  22  23
ENDBRANCH   4  22
TORSDOF 6
ENDMDL
MODEL 4
REMARK VINA RESULT:    -8.201      5.689      8.664
REMARK INTER + INTRA:         -11.576
REMARK INTER:                 -10.846
REMARK INTRA:                  -0.730
REMARK UNBOUND:                -0.498
REMARK SMILES O=C(C[C@@H]1C[C@H]2CC[C@@H](C1)N2)Nc1ccc(OCc2cccnc2)c(Cl)c1
REMARK SMILES IDX 13 1 14 2 15 3 16 4 25 5 26 6 27 7 12 8 1 9 2 10 3 12 4 13
REMARK SMILES IDX 10 14 5 15 9 16 6 17 8 18 11 19 7 20 17 22 18 23 19 24 20 25
REMARK SMILES IDX 24 26 21 27 23 28 22 29
REMARK H PARENT 12 11 11 21
ROOT
ATOM      1  C   UNL     1       4.537  40.796  48.694  1.00  0.00     0.042 A 
ATOM      2  C   UNL     1       3.780  41.082  49.842  1.00  0.00     0.030 A 
ATOM      3  C   UNL     1       4.194  42.079  50.731  1.00  0.00     0.050 A 
ATOM      4  C   UNL     1       5.366  42.816  50.479  1.00  0.00     0.138 A 
ATOM      5  C   UNL     1       6.108  42.543  49.321  1.00  0.00     0.085 A 
ATOM      6  Cl  UNL     1       7.571  43.451  48.967  1.00  0.00    -0.080 Cl
ATOM      7  C   UNL     1       5.691  41.547  48.432  1.00  0.00     0.050 A 
ENDROOT
BRANCH   1   8
ATOM      8  N   UNL     1       4.120  39.793  47.753  1.00  0.00    -0.326 N 
ATOM      9  O   UNL     1       2.541  41.116  46.634  1.00  0.00    -0.275 OA
ATOM     10  C   UNL     1       3.154  40.017  46.713  1.00  0.00     0.224 C 
ATOM     11  H   UNL     1       4.460  38.815  47.901  1.00  0.00     0.169 HD
BRANCH  10  12
ATOM     12  C   UNL     1       2.840  38.925  45.728  1.00  0.00     0.104 C 
BRANCH  12  13
ATOM     13  C   UNL     1       3.762  38.907  44.488  1.00  0.00     0.001 C 
ATOM     14  C   UNL     1       4.670  40.167  44.383  1.00  0.00     0.023 C 
ATOM     15  C   UNL     1       4.570  37.583  44.355  1.00  0.00     0.023 C 
ATOM     16  C   UNL     1       5.783  39.975  43.325  1.00  0.00     0.054 C 
ATOM     17  C   UNL     1       5.697  37.710  43.303  1.00  0.00     0.054 C 
ATOM     18  C   UNL     1       5.208  39.641  41.942  1.00  0.00     0.020 C 
ATOM     19  N   UNL     1       6.564  38.807  43.721  1.00  0.00    -0.311 NA
ATOM     20  C   UNL     1       5.153  38.115  41.927  1.00  0.00     0.020 C 
ATOM     21  H   UNL     1       7.442  38.779  43.148  1.00  0.00     0.123 HD
ENDBRANCH  12  13
ENDBRANCH  10  12
ENDBRANCH   1   8
BRANCH   4  22
ATOM     22  O   UNL     1       5.818  43.820  51.350  1.00  0.00    -0.487 OA
BRANCH  22  23
ATOM     23  C   UNL     1       5.221  45.106  51.480  1.00  0.00     0.267 C 
BRANCH  23  24
ATOM     24  C   UNL     1       6.284  46.109  51.820  1.00  0.00     0.008 A 
ATOM     25  C   UNL     1       7.538  46.063  51.194  1.00  0.00     0.010 A 
ATOM     26  C   UNL     1       6.065  47.067  52.823  1.00  0.00     0.118 A 
ATOM     27  C   UNL     1       8.529  46.979  51.550  1.00  0.00     0.020 A 
ATOM     28  N   UNL     1       7.047  47.948  53.152  1.00  0.00    -0.264 NA
ATOM     29  C   UNL     1       8.261  47.927  52.539  1.00  0.00     0.111 A 
ENDBRANCH  23  24
ENDBRANCH  22  23
ENDBRANCH   4  22
TORSDOF 6
ENDMDL
MODEL 5
REMARK VINA RESULT:    -8.142      2.407      9.206
REMARK INTER + INTRA:         -11.497
REMARK INTER:                 -10.761
REMARK INTRA:                  -0.736
REMARK UNBOUND:                -0.498
REMARK SMILES O=C(C[C@@H]1C[C@H]2CC[C@@H](C1)N2)Nc1ccc(OCc2cccnc2)c(Cl)c1
REMARK SMILES IDX 13 1 14 2 15 3 16 4 25 5 26 6 27 7 12 8 1 9 2 10 3 12 4 13
REMARK SMILES IDX 10 14 5 15 9 16 6 17 8 18 11 19 7 20 17 22 18 23 19 24 20 25
REMARK SMILES IDX 24 26 21 27 23 28 22 29
REMARK H PARENT 12 11 11 21
ROOT
ATOM      1  C   UNL     1       3.258  43.715  52.615  1.00  0.00     0.042 A 
ATOM      2  C   UNL     1       2.258  42.887  52.079  1.00  0.00     0.030 A 
ATOM      3  C   UNL     1       1.015  42.782  52.708  1.00  0.00     0.050 A 
ATOM      4  C   UNL     1       0.744  43.514  53.879  1.00  0.00     0.138 A 
ATOM      5  C   UNL     1       1.736  44.357  54.401  1.00  0.00     0.085 A 
ATOM      6  Cl  UNL     1       1.431  45.296  55.855  1.00  0.00    -0.080 Cl
ATOM      7  C   UNL     1       2.979  44.462  53.768  1.00  0.00     0.050 A 
ENDROOT
BRANCH   1   8
ATOM      8  N   UNL     1       4.536  43.860  51.974  1.00  0.00    -0.326 N 
ATOM      9  O   UNL     1       4.074  45.898  50.913  1.00  0.00    -0.275 OA
ATOM     10  C   UNL     1       4.911  44.992  51.172  1.00  0.00     0.224 C 
ATOM     11  H   UNL     1       5.191  43.044  52.005  1.00  0.00     0.169 HD
BRANCH  10  12
ATOM     12  C   UNL     1       6.300  45.086  50.605  1.00  0.00     0.104 C 
BRANCH  12  13
ATOM     13  C   UNL     1       7.325  45.755  51.549  1.00  0.00     0.001 C 
ATOM     14  C   UNL     1       8.123  46.906  50.868  1.00  0.00     0.023 C 
ATOM     15  C   UNL     1       6.701  46.191  52.907  1.00  0.00     0.023 C 
ATOM     16  C   UNL     1       8.901  47.747  51.908  1.00  0.00     0.054 C 
ATOM     17  C   UNL     1       7.652  47.123  53.694  1.00  0.00     0.054 C 
ATOM     18  C   UNL     1       9.857  46.884  52.743  1.00  0.00     0.020 C 
ATOM     19  N   UNL     1       7.926  48.283  52.853  1.00  0.00    -0.311 NA
ATOM     20  C   UNL     1       9.016  46.466  53.948  1.00  0.00     0.020 C 
ATOM     21  H   UNL     1       8.391  49.019  53.436  1.00  0.00     0.123 HD
ENDBRANCH  12  13
ENDBRANCH  10  12
ENDBRANCH   1   8
BRANCH   4  22
ATOM     22  O   UNL     1      -0.489  43.431  54.544  1.00  0.00    -0.487 OA
BRANCH  22  23
ATOM     23  C   UNL     1      -1.630  44.224  54.233  1.00  0.00     0.267 C 
BRANCH  23  24
ATOM     24  C   UNL     1      -2.213  44.766  55.505  1.00  0.00     0.008 A 
ATOM     25  C   UNL     1      -2.961  45.953  55.500  1.00  0.00     0.010 A 
ATOM     26  C   UNL     1      -1.962  44.131  56.731  1.00  0.00     0.118 A 
ATOM     27  C   UNL     1      -3.463  46.464  56.698  1.00  0.00     0.020 A 
ATOM     28  N   UNL     1      -2.462  44.650  57.884  1.00  0.00    -0.264 NA
ATOM     29  C   UNL     1      -3.204  45.789  57.893  1.00  0.00     0.111 A 
ENDBRANCH  23  24
ENDBRANCH  22  23
ENDBRANCH   4  22
TORSDOF 6
ENDMDL
