ligand_8_conformer_3_docked
     RDKit          3D

 55 58  0  0  0  0  0  0  0  0999 V2000
    2.9830   41.5860   50.4990 O   0  0  0  0  0  0  0  0  0  0  0  0
    3.1500   42.6750   51.1150 C   0  0  0  0  0  0  0  0  0  0  0  0
    2.1330   43.1370   52.0220 N   0  0  0  0  0  0  0  0  0  0  0  0
    0.9500   42.3210   52.3310 C   0  0  1  0  0  0  0  0  0  0  0  0
    0.5910   42.4010   53.8130 C   0  0  0  0  0  0  0  0  0  0  0  0
   -0.4290   43.5400   53.9620 C   0  0  1  0  0  0  0  0  0  0  0  0
    0.1860   44.8400   54.4830 C   0  0  0  0  0  0  0  0  0  0  0  0
    0.5000   45.6670   53.3220 N   0  0  0  0  0  0  0  0  0  0  0  0
   -0.4880   45.3180   52.3060 C   0  0  0  0  0  0  0  0  0  0  0  0
   -0.9290   43.8710   52.5620 C   0  0  1  0  0  0  0  0  0  0  0  0
   -0.2790   42.8610   51.6100 C   0  0  0  0  0  0  0  0  0  0  0  0
    4.3890   43.4560   50.8750 C   0  0  0  0  0  0  0  0  0  0  0  0
    5.5260   42.8720   50.2900 C   0  0  0  0  0  0  0  0  0  0  0  0
    6.6810   43.6290   50.0680 C   0  0  0  0  0  0  0  0  0  0  0  0
    6.7190   44.9910   50.4230 C   0  0  0  0  0  0  0  0  0  0  0  0
    7.8480   45.8040   50.2300 O   0  0  0  0  0  0  0  0  0  0  0  0
    9.1360   45.6330   50.8300 C   0  0  0  0  0  0  0  0  0  0  0  0
    9.4090   46.6810   51.9270 C   0  0  0  0  0  0  0  0  0  0  0  0
    9.9200   46.0450   53.2340 C   0  0  0  0  0  0  0  0  0  0  0  0
   10.2190   47.1220   54.2840 C   0  0  0  0  0  0  0  0  0  0  0  0
    8.9790   47.9810   54.5550 C   0  0  0  0  0  0  0  0  0  0  0  0
    8.4530   48.6140   53.2620 C   0  0  0  0  0  0  0  0  0  0  0  0
    8.1590   47.5430   52.2020 C   0  0  0  0  0  0  0  0  0  0  0  0
    5.5810   45.5770   50.9840 C   0  0  0  0  0  0  0  0  0  0  0  0
    4.4290   44.8220   51.2110 C   0  0  0  0  0  0  0  0  0  0  0  0
    2.2350   44.0740   52.4730 H   0  0  0  0  0  0  0  0  0  0  0  0
    1.2026   41.2951   52.0247 H   0  0  0  0  0  0  0  0  0  0  0  0
    0.1490   41.4508   54.1474 H   0  0  0  0  0  0  0  0  0  0  0  0
    1.4848   42.5891   54.4259 H   0  0  0  0  0  0  0  0  0  0  0  0
   -1.2004   43.1994   54.6684 H   0  0  0  0  0  0  0  0  0  0  0  0
   -0.5313   45.3615   55.1338 H   0  0  0  0  0  0  0  0  0  0  0  0
    1.0924   44.6339   55.0711 H   0  0  0  0  0  0  0  0  0  0  0  0
    0.3890   46.6770   53.5800 H   0  0  0  0  0  0  0  0  0  0  0  0
   -1.3542   45.9921   52.3786 H   0  0  0  0  0  0  0  0  0  0  0  0
   -0.0566   45.4169   51.2990 H   0  0  0  0  0  0  0  0  0  0  0  0
   -2.0181   43.8010   52.4246 H   0  0  0  0  0  0  0  0  0  0  0  0
   -0.9796   42.0428   51.3870 H   0  0  0  0  0  0  0  0  0  0  0  0
   -0.0062   43.3319   50.6541 H   0  0  0  0  0  0  0  0  0  0  0  0
    5.5072   41.8099   50.0042 H   0  0  0  0  0  0  0  0  0  0  0  0
    7.5648   43.1575   49.6134 H   0  0  0  0  0  0  0  0  0  0  0  0
    9.1884   44.6295   51.2774 H   0  0  0  0  0  0  0  0  0  0  0  0
    9.8951   45.7600   50.0441 H   0  0  0  0  0  0  0  0  0  0  0  0
   10.2082   47.3321   51.5431 H   0  0  0  0  0  0  0  0  0  0  0  0
    9.1524   45.3619   53.6267 H   0  0  0  0  0  0  0  0  0  0  0  0
   10.8483   45.4954   53.0189 H   0  0  0  0  0  0  0  0  0  0  0  0
   10.5317   46.6357   55.2198 H   0  0  0  0  0  0  0  0  0  0  0  0
   11.0202   47.7720   53.9024 H   0  0  0  0  0  0  0  0  0  0  0  0
    8.1920   47.3483   54.9913 H   0  0  0  0  0  0  0  0  0  0  0  0
    9.2572   48.7866   55.2504 H   0  0  0  0  0  0  0  0  0  0  0  0
    7.5268   49.1649   53.4826 H   0  0  0  0  0  0  0  0  0  0  0  0
    9.2226   49.2938   52.8676 H   0  0  0  0  0  0  0  0  0  0  0  0
    7.3465   46.8944   52.5614 H   0  0  0  0  0  0  0  0  0  0  0  0
    7.8663   48.0448   51.2679 H   0  0  0  0  0  0  0  0  0  0  0  0
    5.5932   46.6444   51.2495 H   0  0  0  0  0  0  0  0  0  0  0  0
    3.5439   45.2994   51.6568 H   0  0  0  0  0  0  0  0  0  0  0  0
  1  2  2  0
  2  3  1  0
  3  4  1  0
  4  5  1  0
  5  6  1  0
  6  7  1  0
  7  8  1  0
  8  9  1  0
  9 10  1  0
 10 11  1  0
  2 12  1  0
 12 13  2  0
 13 14  1  0
 14 15  2  0
 15 16  1  0
 16 17  1  0
 17 18  1  0
 18 19  1  0
 19 20  1  0
 20 21  1  0
 21 22  1  0
 22 23  1  0
 15 24  1  0
 24 25  2  0
 11  4  1  0
 25 12  1  0
 10  6  1  0
 23 18  1  0
  3 26  1  0
  4 27  1  6
  5 28  1  0
  5 29  1  0
  6 30  1  1
  7 31  1  0
  7 32  1  0
  8 33  1  0
  9 34  1  0
  9 35  1  0
 10 36  1  1
 11 37  1  0
 11 38  1  0
 13 39  1  0
 14 40  1  0
 17 41  1  0
 17 42  1  0
 18 43  1  0
 19 44  1  0
 19 45  1  0
 20 46  1  0
 20 47  1  0
 21 48  1  0
 21 49  1  0
 22 50  1  0
 22 51  1  0
 23 52  1  0
 23 53  1  0
 24 54  1  0
 25 55  1  0
M  END
>  <meeko>  (1) 
{"is_sidechain": [false], "free_energy": -8.672, "intermolecular_energy": -11.207, "internal_energy": -0.585}

$$$$
ligand_8_conformer_3_docked
     RDKit          3D

 55 58  0  0  0  0  0  0  0  0999 V2000
    3.0960   39.3870   49.4880 O   0  0  0  0  0  0  0  0  0  0  0  0
    3.7490   40.0570   48.6390 C   0  0  0  0  0  0  0  0  0  0  0  0
    3.6770   39.6970   47.2480 N   0  0  0  0  0  0  0  0  0  0  0  0
    2.7790   38.6350   46.7740 C   0  0  1  0  0  0  0  0  0  0  0  0
    1.6830   39.1950   45.8700 C   0  0  0  0  0  0  0  0  0  0  0  0
    2.2030   39.0950   44.4280 C   0  0  1  0  0  0  0  0  0  0  0  0
    2.7340   40.4220   43.8820 C   0  0  0  0  0  0  0  0  0  0  0  0
    4.1780   40.4300   44.0900 N   0  0  0  0  0  0  0  0  0  0  0  0
    4.5970   39.0330   44.0200 C   0  0  0  0  0  0  0  0  0  0  0  0
    3.4100   38.1670   44.4560 C   0  0  1  0  0  0  0  0  0  0  0  0
    3.5330   37.6460   45.8930 C   0  0  0  0  0  0  0  0  0  0  0  0
    4.5850   41.1910   49.1050 C   0  0  0  0  0  0  0  0  0  0  0  0
    5.7090   41.6240   48.3790 C   0  0  0  0  0  0  0  0  0  0  0  0
    6.4800   42.6980   48.8340 C   0  0  0  0  0  0  0  0  0  0  0  0
    6.1370   43.3660   50.0250 C   0  0  0  0  0  0  0  0  0  0  0  0
    6.8710   44.4490   50.5380 O   0  0  0  0  0  0  0  0  0  0  0  0
    6.3500   45.5640   51.2680 C   0  0  0  0  0  0  0  0  0  0  0  0
    7.4650   46.3910   51.9380 C   0  0  0  0  0  0  0  0  0  0  0  0
    8.8730   45.9430   51.5020 C   0  0  0  0  0  0  0  0  0  0  0  0
    9.9500   46.8160   52.1560 C   0  0  0  0  0  0  0  0  0  0  0  0
    9.8260   46.7850   53.6840 C   0  0  0  0  0  0  0  0  0  0  0  0
    8.4270   47.2200   54.1330 C   0  0  0  0  0  0  0  0  0  0  0  0
    7.3420   46.3560   53.4760 C   0  0  0  0  0  0  0  0  0  0  0  0
    5.0070   42.9500   50.7350 C   0  0  0  0  0  0  0  0  0  0  0  0
    4.2390   41.8750   50.2850 C   0  0  0  0  0  0  0  0  0  0  0  0
    4.2760   40.2010   46.5560 H   0  0  0  0  0  0  0  0  0  0  0  0
    2.3648   38.1649   47.6782 H   0  0  0  0  0  0  0  0  0  0  0  0
    0.7614   38.6049   45.9820 H   0  0  0  0  0  0  0  0  0  0  0  0
    1.4480   40.2368   46.1335 H   0  0  0  0  0  0  0  0  0  0  0  0
    1.3652   38.7573   43.8003 H   0  0  0  0  0  0  0  0  0  0  0  0
    2.5078   40.5049   42.8087 H   0  0  0  0  0  0  0  0  0  0  0  0
    2.2617   41.2718   44.3966 H   0  0  0  0  0  0  0  0  0  0  0  0
    4.6340   40.9670   43.3150 H   0  0  0  0  0  0  0  0  0  0  0  0
    4.8865   38.7801   42.9893 H   0  0  0  0  0  0  0  0  0  0  0  0
    5.4627   38.8576   44.6756 H   0  0  0  0  0  0  0  0  0  0  0  0
    3.3450   37.2927   43.7917 H   0  0  0  0  0  0  0  0  0  0  0  0
    3.0846   36.6449   45.9746 H   0  0  0  0  0  0  0  0  0  0  0  0
    4.5864   37.5618   46.1984 H   0  0  0  0  0  0  0  0  0  0  0  0
    5.9841   41.1130   47.4446 H   0  0  0  0  0  0  0  0  0  0  0  0
    7.3593   43.0228   48.2584 H   0  0  0  0  0  0  0  0  0  0  0  0
    5.7946   46.2132   50.5751 H   0  0  0  0  0  0  0  0  0  0  0  0
    5.6952   45.1734   52.0609 H   0  0  0  0  0  0  0  0  0  0  0  0
    7.3296   47.4282   51.5977 H   0  0  0  0  0  0  0  0  0  0  0  0
    9.0269   44.8958   51.8015 H   0  0  0  0  0  0  0  0  0  0  0  0
    8.9525   46.0450   50.4096 H   0  0  0  0  0  0  0  0  0  0  0  0
   10.9426   46.4399   51.8675 H   0  0  0  0  0  0  0  0  0  0  0  0
    9.8176   47.8529   51.8136 H   0  0  0  0  0  0  0  0  0  0  0  0
   10.0151   45.7612   54.0391 H   0  0  0  0  0  0  0  0  0  0  0  0
   10.5621   47.4836   54.1084 H   0  0  0  0  0  0  0  0  0  0  0  0
    8.3532   47.1197   55.2259 H   0  0  0  0  0  0  0  0  0  0  0  0
    8.2722   48.2658   53.8292 H   0  0  0  0  0  0  0  0  0  0  0  0
    7.4502   45.3175   53.8222 H   0  0  0  0  0  0  0  0  0  0  0  0
    6.3566   46.7551   53.7585 H   0  0  0  0  0  0  0  0  0  0  0  0
    4.7201   43.4753   51.6579 H   0  0  0  0  0  0  0  0  0  0  0  0
    3.3548   41.5595   50.8583 H   0  0  0  0  0  0  0  0  0  0  0  0
  1  2  2  0
  2  3  1  0
  3  4  1  0
  4  5  1  0
  5  6  1  0
  6  7  1  0
  7  8  1  0
  8  9  1  0
  9 10  1  0
 10 11  1  0
  2 12  1  0
 12 13  2  0
 13 14  1  0
 14 15  2  0
 15 16  1  0
 16 17  1  0
 17 18  1  0
 18 19  1  0
 19 20  1  0
 20 21  1  0
 21 22  1  0
 22 23  1  0
 15 24  1  0
 24 25  2  0
 11  4  1  0
 25 12  1  0
 10  6  1  0
 23 18  1  0
  3 26  1  0
  4 27  1  1
  5 28  1  0
  5 29  1  0
  6 30  1  6
  7 31  1  0
  7 32  1  0
  8 33  1  0
  9 34  1  0
  9 35  1  0
 10 36  1  6
 11 37  1  0
 11 38  1  0
 13 39  1  0
 14 40  1  0
 17 41  1  0
 17 42  1  0
 18 43  1  0
 19 44  1  0
 19 45  1  0
 20 46  1  0
 20 47  1  0
 21 48  1  0
 21 49  1  0
 22 50  1  0
 22 51  1  0
 23 52  1  0
 23 53  1  0
 24 54  1  0
 25 55  1  0
M  END
>  <meeko>  (2) 
{"is_sidechain": [false], "free_energy": -8.424, "intermolecular_energy": -10.847, "internal_energy": -0.624}

$$$$
ligand_8_conformer_3_docked
     RDKit          3D

 55 58  0  0  0  0  0  0  0  0999 V2000
    1.7490   45.2080   56.0850 O   0  0  0  0  0  0  0  0  0  0  0  0
    2.3580   44.9110   55.0190 C   0  0  0  0  0  0  0  0  0  0  0  0
    1.8030   43.9160   54.1410 N   0  0  0  0  0  0  0  0  0  0  0  0
    0.4890   43.3100   54.3990 C   0  0  1  0  0  0  0  0  0  0  0  0
   -0.6450   44.2840   54.0830 C   0  0  0  0  0  0  0  0  0  0  0  0
   -1.0580   44.0260   52.6260 C   0  0  1  0  0  0  0  0  0  0  0  0
   -0.4840   45.0490   51.6440 C   0  0  0  0  0  0  0  0  0  0  0  0
    0.7400   44.4780   51.0900 N   0  0  0  0  0  0  0  0  0  0  0  0
    0.5380   43.0330   51.0870 C   0  0  0  0  0  0  0  0  0  0  0  0
   -0.4390   42.6960   52.2200 C   0  0  1  0  0  0  0  0  0  0  0  0
    0.2490   42.1290   53.4670 C   0  0  0  0  0  0  0  0  0  0  0  0
    3.6410   45.5910   54.7100 C   0  0  0  0  0  0  0  0  0  0  0  0
    3.6820   46.7750   53.9520 C   0  0  0  0  0  0  0  0  0  0  0  0
    4.9020   47.4010   53.6770 C   0  0  0  0  0  0  0  0  0  0  0  0
    6.1070   46.8570   54.1610 C   0  0  0  0  0  0  0  0  0  0  0  0
    7.3640   47.4350   53.9170 O   0  0  0  0  0  0  0  0  0  0  0  0
    7.7630   48.1470   52.7410 C   0  0  0  0  0  0  0  0  0  0  0  0
    8.6020   47.2710   51.7900 C   0  0  0  0  0  0  0  0  0  0  0  0
    7.7870   46.1120   51.1850 C   0  0  0  0  0  0  0  0  0  0  0  0
    8.6450   45.2920   50.2130 C   0  0  0  0  0  0  0  0  0  0  0  0
    9.9020   44.7580   50.9100 C   0  0  0  0  0  0  0  0  0  0  0  0
   10.7180   45.8990   51.5250 C   0  0  0  0  0  0  0  0  0  0  0  0
    9.8650   46.7310   52.4930 C   0  0  0  0  0  0  0  0  0  0  0  0
    6.0630   45.6930   54.9330 C   0  0  0  0  0  0  0  0  0  0  0  0
    4.8470   45.0640   55.2060 C   0  0  0  0  0  0  0  0  0  0  0  0
    2.3440   43.6160   53.3000 H   0  0  0  0  0  0  0  0  0  0  0  0
    0.4951   43.0172   55.4593 H   0  0  0  0  0  0  0  0  0  0  0  0
   -1.4968   44.1047   54.7556 H   0  0  0  0  0  0  0  0  0  0  0  0
   -0.3212   45.3259   54.2231 H   0  0  0  0  0  0  0  0  0  0  0  0
   -2.1565   44.0648   52.5844 H   0  0  0  0  0  0  0  0  0  0  0  0
   -1.2068   45.2443   50.8382 H   0  0  0  0  0  0  0  0  0  0  0  0
   -0.2746   46.0020   52.1518 H   0  0  0  0  0  0  0  0  0  0  0  0
    0.8580   44.8130   50.1040 H   0  0  0  0  0  0  0  0  0  0  0  0
    0.1162   42.7158   50.1219 H   0  0  0  0  0  0  0  0  0  0  0  0
    1.4944   42.5102   51.2350 H   0  0  0  0  0  0  0  0  0  0  0  0
   -1.1509   41.9376   51.8622 H   0  0  0  0  0  0  0  0  0  0  0  0
   -0.3987   41.3852   53.9541 H   0  0  0  0  0  0  0  0  0  0  0  0
    1.1926   41.6262   53.2085 H   0  0  0  0  0  0  0  0  0  0  0  0
    2.7468   47.2123   53.5723 H   0  0  0  0  0  0  0  0  0  0  0  0
    4.9202   48.3240   53.0789 H   0  0  0  0  0  0  0  0  0  0  0  0
    6.8620   48.4861   52.2088 H   0  0  0  0  0  0  0  0  0  0  0  0
    8.3850   48.9982   53.0549 H   0  0  0  0  0  0  0  0  0  0  0  0
    8.9130   47.9227   50.9602 H   0  0  0  0  0  0  0  0  0  0  0  0
    7.4347   45.4572   51.9956 H   0  0  0  0  0  0  0  0  0  0  0  0
    6.9329   46.5318   50.6334 H   0  0  0  0  0  0  0  0  0  0  0  0
    8.0534   44.4439   49.8378 H   0  0  0  0  0  0  0  0  0  0  0  0
    8.9536   45.9427   49.3816 H   0  0  0  0  0  0  0  0  0  0  0  0
    9.6025   44.0607   51.7063 H   0  0  0  0  0  0  0  0  0  0  0  0
   10.5255   44.2460   50.1622 H   0  0  0  0  0  0  0  0  0  0  0  0
   11.5722   45.4747   52.0730 H   0  0  0  0  0  0  0  0  0  0  0  0
   11.0658   46.5556   50.7139 H   0  0  0  0  0  0  0  0  0  0  0  0
    9.5626   46.0989   53.3409 H   0  0  0  0  0  0  0  0  0  0  0  0
   10.4636   47.5845   52.8440 H   0  0  0  0  0  0  0  0  0  0  0  0
    6.9966   45.2678   55.3299 H   0  0  0  0  0  0  0  0  0  0  0  0
    4.8319   44.1478   55.8146 H   0  0  0  0  0  0  0  0  0  0  0  0
  1  2  2  0
  2  3  1  0
  3  4  1  0
  4  5  1  0
  5  6  1  0
  6  7  1  0
  7  8  1  0
  8  9  1  0
  9 10  1  0
 10 11  1  0
  2 12  1  0
 12 13  2  0
 13 14  1  0
 14 15  2  0
 15 16  1  0
 16 17  1  0
 17 18  1  0
 18 19  1  0
 19 20  1  0
 20 21  1  0
 21 22  1  0
 22 23  1  0
 15 24  1  0
 24 25  2  0
 11  4  1  0
 25 12  1  0
 10  6  1  0
 23 18  1  0
  3 26  1  0
  4 27  1  1
  5 28  1  0
  5 29  1  0
  6 30  1  1
  7 31  1  0
  7 32  1  0
  8 33  1  0
  9 34  1  0
  9 35  1  0
 10 36  1  6
 11 37  1  0
 11 38  1  0
 13 39  1  0
 14 40  1  0
 17 41  1  0
 17 42  1  0
 18 43  1  0
 19 44  1  0
 19 45  1  0
 20 46  1  0
 20 47  1  0
 21 48  1  0
 21 49  1  0
 22 50  1  0
 22 51  1  0
 23 52  1  0
 23 53  1  0
 24 54  1  0
 25 55  1  0
M  END
>  <meeko>  (3) 
{"is_sidechain": [false], "free_energy": -8.391, "intermolecular_energy": -10.728, "internal_energy": -0.699}

$$$$
ligand_8_conformer_3_docked
     RDKit          3D

 55 58  0  0  0  0  0  0  0  0999 V2000
    1.1610   45.5370   54.1170 O   0  0  0  0  0  0  0  0  0  0  0  0
    1.2440   45.1820   52.9080 C   0  0  0  0  0  0  0  0  0  0  0  0
    0.0450   44.8520   52.1840 N   0  0  0  0  0  0  0  0  0  0  0  0
   -1.2850   45.0190   52.7840 C   0  0  1  0  0  0  0  0  0  0  0  0
   -2.2610   45.6650   51.8020 C   0  0  0  0  0  0  0  0  0  0  0  0
   -2.9780   44.5200   51.0700 C   0  0  1  0  0  0  0  0  0  0  0  0
   -2.4200   44.2520   49.6720 C   0  0  0  0  0  0  0  0  0  0  0  0
   -1.4450   43.1720   49.7940 N   0  0  0  0  0  0  0  0  0  0  0  0
   -1.9040   42.3470   50.9070 C   0  0  0  0  0  0  0  0  0  0  0  0
   -2.6980   43.2480   51.8590 C   0  0  1  0  0  0  0  0  0  0  0  0
   -1.9060   43.6650   53.1040 C   0  0  0  0  0  0  0  0  0  0  0  0
    2.5820   45.1020   52.2710 C   0  0  0  0  0  0  0  0  0  0  0  0
    3.0340   46.0930   51.3800 C   0  0  0  0  0  0  0  0  0  0  0  0
    4.3010   46.0000   50.7960 C   0  0  0  0  0  0  0  0  0  0  0  0
    5.1460   44.9140   51.0960 C   0  0  0  0  0  0  0  0  0  0  0  0
    6.4270   44.7610   50.5400 O   0  0  0  0  0  0  0  0  0  0  0  0
    7.4590   45.7510   50.4880 C   0  0  0  0  0  0  0  0  0  0  0  0
    8.0930   46.0020   51.8710 C   0  0  0  0  0  0  0  0  0  0  0  0
    7.3020   47.0300   52.7030 C   0  0  0  0  0  0  0  0  0  0  0  0
    7.9400   47.2190   54.0850 C   0  0  0  0  0  0  0  0  0  0  0  0
    9.4070   47.6460   53.9570 C   0  0  0  0  0  0  0  0  0  0  0  0
   10.2040   46.6370   53.1240 C   0  0  0  0  0  0  0  0  0  0  0  0
    9.5680   46.4350   51.7410 C   0  0  0  0  0  0  0  0  0  0  0  0
    4.7060   43.9420   51.9980 C   0  0  0  0  0  0  0  0  0  0  0  0
    3.4400   44.0300   52.5800 C   0  0  0  0  0  0  0  0  0  0  0  0
    0.1200   44.4850   51.2090 H   0  0  0  0  0  0  0  0  0  0  0  0
   -1.1348   45.6372   53.6814 H   0  0  0  0  0  0  0  0  0  0  0  0
   -2.9911   46.2830   52.3451 H   0  0  0  0  0  0  0  0  0  0  0  0
   -1.7320   46.3173   51.0916 H   0  0  0  0  0  0  0  0  0  0  0  0
   -4.0392   44.7974   50.9862 H   0  0  0  0  0  0  0  0  0  0  0  0
   -3.2321   43.9513   48.9937 H   0  0  0  0  0  0  0  0  0  0  0  0
   -1.9496   45.1570   49.2601 H   0  0  0  0  0  0  0  0  0  0  0  0
   -1.4530   42.6020   48.9140 H   0  0  0  0  0  0  0  0  0  0  0  0
   -2.5482   41.5378   50.5327 H   0  0  0  0  0  0  0  0  0  0  0  0
   -1.0483   41.8943   51.4293 H   0  0  0  0  0  0  0  0  0  0  0  0
   -3.5900   42.7035   52.2023 H   0  0  0  0  0  0  0  0  0  0  0  0
   -2.5772   43.7495   53.9714 H   0  0  0  0  0  0  0  0  0  0  0  0
   -1.1350   42.9214   53.3543 H   0  0  0  0  0  0  0  0  0  0  0  0
    2.3849   46.9483   51.1409 H   0  0  0  0  0  0  0  0  0  0  0  0
    4.6398   46.7798   50.0980 H   0  0  0  0  0  0  0  0  0  0  0  0
    8.2426   45.4103   49.7953 H   0  0  0  0  0  0  0  0  0  0  0  0
    7.0067   46.6939   50.1468 H   0  0  0  0  0  0  0  0  0  0  0  0
    8.0544   45.0437   52.4097 H   0  0  0  0  0  0  0  0  0  0  0  0
    7.2959   47.9943   52.1737 H   0  0  0  0  0  0  0  0  0  0  0  0
    6.2747   46.6600   52.8365 H   0  0  0  0  0  0  0  0  0  0  0  0
    7.3859   47.9943   54.6344 H   0  0  0  0  0  0  0  0  0  0  0  0
    7.8986   46.2615   54.6249 H   0  0  0  0  0  0  0  0  0  0  0  0
    9.4533   48.6309   53.4693 H   0  0  0  0  0  0  0  0  0  0  0  0
    9.8467   47.6925   54.9642 H   0  0  0  0  0  0  0  0  0  0  0  0
   11.2312   47.0090   52.9959 H   0  0  0  0  0  0  0  0  0  0  0  0
   10.2046   45.6720   53.6520 H   0  0  0  0  0  0  0  0  0  0  0  0
    9.6178   47.3800   51.1803 H   0  0  0  0  0  0  0  0  0  0  0  0
   10.1209   45.6447   51.2121 H   0  0  0  0  0  0  0  0  0  0  0  0
    5.3642   43.0982   52.2524 H   0  0  0  0  0  0  0  0  0  0  0  0
    3.1101   43.2543   53.2866 H   0  0  0  0  0  0  0  0  0  0  0  0
  1  2  2  0
  2  3  1  0
  3  4  1  0
  4  5  1  0
  5  6  1  0
  6  7  1  0
  7  8  1  0
  8  9  1  0
  9 10  1  0
 10 11  1  0
  2 12  1  0
 12 13  2  0
 13 14  1  0
 14 15  2  0
 15 16  1  0
 16 17  1  0
 17 18  1  0
 18 19  1  0
 19 20  1  0
 20 21  1  0
 21 22  1  0
 22 23  1  0
 15 24  1  0
 24 25  2  0
 11  4  1  0
 25 12  1  0
 10  6  1  0
 23 18  1  0
  3 26  1  0
  4 27  1  1
  5 28  1  0
  5 29  1  0
  6 30  1  6
  7 31  1  0
  7 32  1  0
  8 33  1  0
  9 34  1  0
  9 35  1  0
 10 36  1  1
 11 37  1  0
 11 38  1  0
 13 39  1  0
 14 40  1  0
 17 41  1  0
 17 42  1  0
 18 43  1  0
 19 44  1  0
 19 45  1  0
 20 46  1  0
 20 47  1  0
 21 48  1  0
 21 49  1  0
 22 50  1  0
 22 51  1  0
 23 52  1  0
 23 53  1  0
 24 54  1  0
 25 55  1  0
M  END
>  <meeko>  (4) 
{"is_sidechain": [false], "free_energy": -8.354, "intermolecular_energy": -10.621, "internal_energy": -0.76}

$$$$
ligand_8_conformer_3_docked
     RDKit          3D

 55 58  0  0  0  0  0  0  0  0999 V2000
    4.6360   44.5240   53.4110 O   0  0  0  0  0  0  0  0  0  0  0  0
    5.3730   44.5950   52.3890 C   0  0  0  0  0  0  0  0  0  0  0  0
    6.3110   45.6790   52.2670 N   0  0  0  0  0  0  0  0  0  0  0  0
    6.5090   46.6500   53.3520 C   0  0  1  0  0  0  0  0  0  0  0  0
    7.6560   46.2320   54.2700 C   0  0  0  0  0  0  0  0  0  0  0  0
    8.9250   46.9090   53.7300 C   0  0  1  0  0  0  0  0  0  0  0  0
    9.8110   45.9700   52.9100 C   0  0  0  0  0  0  0  0  0  0  0  0
    9.4640   46.1640   51.5050 N   0  0  0  0  0  0  0  0  0  0  0  0
    9.0350   47.5540   51.3900 C   0  0  0  0  0  0  0  0  0  0  0  0
    8.4710   47.9820   52.7500 C   0  0  1  0  0  0  0  0  0  0  0  0
    6.9390   48.0000   52.7940 C   0  0  0  0  0  0  0  0  0  0  0  0
    5.2410   43.5610   51.3320 C   0  0  0  0  0  0  0  0  0  0  0  0
    6.1400   43.4920   50.2530 C   0  0  0  0  0  0  0  0  0  0  0  0
    5.9990   42.5050   49.2710 C   0  0  0  0  0  0  0  0  0  0  0  0
    4.9560   41.5630   49.3530 C   0  0  0  0  0  0  0  0  0  0  0  0
    4.7580   40.5510   48.3990 O   0  0  0  0  0  0  0  0  0  0  0  0
    3.5860   40.3460   47.6020 C   0  0  0  0  0  0  0  0  0  0  0  0
    3.8320   40.6680   46.1150 C   0  0  0  0  0  0  0  0  0  0  0  0
    3.8870   39.4000   45.2410 C   0  0  0  0  0  0  0  0  0  0  0  0
    4.0900   39.7640   43.7650 C   0  0  0  0  0  0  0  0  0  0  0  0
    5.3610   40.6000   43.5780 C   0  0  0  0  0  0  0  0  0  0  0  0
    5.3250   41.8610   44.4480 C   0  0  0  0  0  0  0  0  0  0  0  0
    5.1130   41.5060   45.9270 C   0  0  0  0  0  0  0  0  0  0  0  0
    4.0760   41.6190   50.4370 C   0  0  0  0  0  0  0  0  0  0  0  0
    4.2110   42.6050   51.4160 C   0  0  0  0  0  0  0  0  0  0  0  0
    6.8660   45.7810   51.3870 H   0  0  0  0  0  0  0  0  0  0  0  0
    5.5506   46.7011   53.8894 H   0  0  0  0  0  0  0  0  0  0  0  0
    7.4578   46.5650   55.2995 H   0  0  0  0  0  0  0  0  0  0  0  0
    7.7690   45.1380   54.2878 H   0  0  0  0  0  0  0  0  0  0  0  0
    9.4951   47.2750   54.5966 H   0  0  0  0  0  0  0  0  0  0  0  0
   10.8711   46.2142   53.0733 H   0  0  0  0  0  0  0  0  0  0  0  0
    9.6525   44.9236   53.2098 H   0  0  0  0  0  0  0  0  0  0  0  0
   10.3190   46.0160   50.9170 H   0  0  0  0  0  0  0  0  0  0  0  0
    9.8921   48.1897   51.1230 H   0  0  0  0  0  0  0  0  0  0  0  0
    8.2703   47.6575   50.6060 H   0  0  0  0  0  0  0  0  0  0  0  0
    8.8204   49.0005   52.9748 H   0  0  0  0  0  0  0  0  0  0  0  0
    6.5867   48.8115   53.4477 H   0  0  0  0  0  0  0  0  0  0  0  0
    6.5134   48.1722   51.7944 H   0  0  0  0  0  0  0  0  0  0  0  0
    6.9613   44.2202   50.1802 H   0  0  0  0  0  0  0  0  0  0  0  0
    6.7072   42.4650   48.4302 H   0  0  0  0  0  0  0  0  0  0  0  0
    3.2764   39.2942   47.6906 H   0  0  0  0  0  0  0  0  0  0  0  0
    2.8030   41.0251   47.9704 H   0  0  0  0  0  0  0  0  0  0  0  0
    2.9704   41.2635   45.7788 H   0  0  0  0  0  0  0  0  0  0  0  0
    4.7231   38.7680   45.5748 H   0  0  0  0  0  0  0  0  0  0  0  0
    2.9341   38.8600   45.3430 H   0  0  0  0  0  0  0  0  0  0  0  0
    4.1766   38.8398   43.1747 H   0  0  0  0  0  0  0  0  0  0  0  0
    3.2268   40.3561   43.4270 H   0  0  0  0  0  0  0  0  0  0  0  0
    6.2345   39.9938   43.8601 H   0  0  0  0  0  0  0  0  0  0  0  0
    5.4264   40.9051   42.5232 H   0  0  0  0  0  0  0  0  0  0  0  0
    6.2785   42.3989   44.3407 H   0  0  0  0  0  0  0  0  0  0  0  0
    4.4865   42.4908   44.1161 H   0  0  0  0  0  0  0  0  0  0  0  0
    5.9772   40.9278   46.2858 H   0  0  0  0  0  0  0  0  0  0  0  0
    5.0093   42.4390   46.5004 H   0  0  0  0  0  0  0  0  0  0  0  0
    3.2676   40.8776   50.5199 H   0  0  0  0  0  0  0  0  0  0  0  0
    3.5065   42.6352   52.2603 H   0  0  0  0  0  0  0  0  0  0  0  0
  1  2  2  0
  2  3  1  0
  3  4  1  0
  4  5  1  0
  5  6  1  0
  6  7  1  0
  7  8  1  0
  8  9  1  0
  9 10  1  0
 10 11  1  0
  2 12  1  0
 12 13  2  0
 13 14  1  0
 14 15  2  0
 15 16  1  0
 16 17  1  0
 17 18  1  0
 18 19  1  0
 19 20  1  0
 20 21  1  0
 21 22  1  0
 22 23  1  0
 15 24  1  0
 24 25  2  0
 11  4  1  0
 25 12  1  0
 10  6  1  0
 23 18  1  0
  3 26  1  0
  4 27  1  1
  5 28  1  0
  5 29  1  0
  6 30  1  1
  7 31  1  0
  7 32  1  0
  8 33  1  0
  9 34  1  0
  9 35  1  0
 10 36  1  1
 11 37  1  0
 11 38  1  0
 13 39  1  0
 14 40  1  0
 17 41  1  0
 17 42  1  0
 18 43  1  0
 19 44  1  0
 19 45  1  0
 20 46  1  0
 20 47  1  0
 21 48  1  0
 21 49  1  0
 22 50  1  0
 22 51  1  0
 23 52  1  0
 23 53  1  0
 24 54  1  0
 25 55  1  0
M  END
>  <meeko>  (5) 
{"is_sidechain": [false], "free_energy": -8.261, "intermolecular_energy": -10.652, "internal_energy": -0.608}

$$$$
