MODEL 1
REMARK VINA RESULT:    -8.642      0.000      0.000
REMARK INTER + INTRA:         -11.959
REMARK INTER:                 -11.168
REMARK INTRA:                  -0.792
REMARK UNBOUND:                -0.792
REMARK SMILES O=C(N[C@@H](c1cccnc1)C1CC1)c1cc(-c2ccccc2)[nH]n1
REMARK SMILES IDX 1 1 2 2 3 3 14 5 15 6 24 7 16 8 23 9 17 11 18 12 22 13 19 14
REMARK SMILES IDX 21 15 20 16 4 17 5 18 6 19 10 20 7 21 9 22 8 23 11 24 12 25
REMARK SMILES IDX 13 26
REMARK H PARENT 3 4 23 10
ROOT
ATOM      1  O   UNL     1       4.338  45.937  50.509  1.00  0.00    -0.267 OA
ATOM      2  C   UNL     1       4.684  45.031  51.317  1.00  0.00     0.272 C 
ATOM      3  N   UNL     1       6.055  44.605  51.371  1.00  0.00    -0.344 N 
ATOM      4  H   UNL     1       6.304  43.757  51.929  1.00  0.00     0.164 HD
ENDROOT
BRANCH   2   5
ATOM      5  C   UNL     1       3.662  44.425  52.188  1.00  0.00     0.150 A 
ATOM      6  C   UNL     1       2.782  45.089  53.025  1.00  0.00     0.064 A 
ATOM      7  N   UNL     1       3.435  43.099  52.251  1.00  0.00    -0.170 NA
ATOM      8  C   UNL     1       2.022  44.081  53.595  1.00  0.00     0.066 A 
ATOM      9  N   UNL     1       2.446  42.896  53.105  1.00  0.00    -0.277 N 
ATOM     10  H   UNL     1       2.060  41.952  53.321  1.00  0.00     0.190 HD
BRANCH   8  11
ATOM     11  C   UNL     1       0.915  44.252  54.570  1.00  0.00    -0.000 A 
ATOM     12  C   UNL     1      -0.366  43.727  54.304  1.00  0.00     0.010 A 
ATOM     13  C   UNL     1       1.124  44.944  55.779  1.00  0.00     0.010 A 
ATOM     14  C   UNL     1      -1.408  43.899  55.222  1.00  0.00     0.001 A 
ATOM     15  C   UNL     1       0.079  45.112  56.692  1.00  0.00     0.001 A 
ATOM     16  C   UNL     1      -1.186  44.592  56.414  1.00  0.00     0.000 A 
ENDBRANCH   8  11
ENDBRANCH   2   5
BRANCH   3  17
ATOM     17  C   UNL     1       7.121  45.334  50.677  1.00  0.00     0.117 C 
BRANCH  17  18
ATOM     18  C   UNL     1       7.863  46.221  51.651  1.00  0.00    -0.007 A 
ATOM     19  C   UNL     1       9.245  46.072  51.841  1.00  0.00     0.009 A 
ATOM     20  C   UNL     1       7.182  47.186  52.414  1.00  0.00     0.116 A 
ATOM     21  C   UNL     1       9.918  46.882  52.757  1.00  0.00     0.020 A 
ATOM     22  N   UNL     1       7.860  47.962  53.301  1.00  0.00    -0.264 NA
ATOM     23  C   UNL     1       9.201  47.834  53.483  1.00  0.00     0.111 A 
ENDBRANCH  17  18
BRANCH  17  24
ATOM     24  C   UNL     1       8.111  44.342  50.039  1.00  0.00     0.016 C 
ATOM     25  C   UNL     1       7.485  43.089  49.446  1.00  0.00     0.006 C 
ATOM     26  C   UNL     1       8.007  44.185  48.529  1.00  0.00     0.006 C 
ENDBRANCH  17  24
ENDBRANCH   3  17
TORSDOF 5
ENDMDL
MODEL 2
REMARK VINA RESULT:    -8.179      1.959      7.955
REMARK INTER + INTRA:         -11.361
REMARK INTER:                 -10.475
REMARK INTRA:                  -0.886
REMARK UNBOUND:                -0.792
REMARK SMILES O=C(N[C@@H](c1cccnc1)C1CC1)c1cc(-c2ccccc2)[nH]n1
REMARK SMILES IDX 1 1 2 2 3 3 14 5 15 6 24 7 16 8 23 9 17 11 18 12 22 13 19 14
REMARK SMILES IDX 21 15 20 16 4 17 5 18 6 19 10 20 7 21 9 22 8 23 11 24 12 25
REMARK SMILES IDX 13 26
REMARK H PARENT 3 4 23 10
ROOT
ATOM      1  O   UNL     1       3.081  42.581  52.529  1.00  0.00    -0.267 OA
ATOM      2  C   UNL     1       3.064  43.842  52.515  1.00  0.00     0.272 C 
ATOM      3  N   UNL     1       1.860  44.546  52.861  1.00  0.00    -0.344 N 
ATOM      4  H   UNL     1       1.807  45.577  52.703  1.00  0.00     0.164 HD
ENDROOT
BRANCH   2   5
ATOM      5  C   UNL     1       4.288  44.568  52.134  1.00  0.00     0.150 A 
ATOM      6  C   UNL     1       5.330  44.935  52.966  1.00  0.00     0.064 A 
ATOM      7  N   UNL     1       4.559  44.949  50.870  1.00  0.00    -0.170 NA
ATOM      8  C   UNL     1       6.236  45.562  52.127  1.00  0.00     0.066 A 
ATOM      9  N   UNL     1       5.736  45.552  50.873  1.00  0.00    -0.277 N 
ATOM     10  H   UNL     1       6.190  45.926  50.011  1.00  0.00     0.190 HD
BRANCH   8  11
ATOM     11  C   UNL     1       7.548  46.141  52.516  1.00  0.00    -0.000 A 
ATOM     12  C   UNL     1       8.632  46.138  51.615  1.00  0.00     0.010 A 
ATOM     13  C   UNL     1       7.733  46.702  53.794  1.00  0.00     0.010 A 
ATOM     14  C   UNL     1       9.868  46.676  51.990  1.00  0.00     0.001 A 
ATOM     15  C   UNL     1       8.970  47.239  54.162  1.00  0.00     0.001 A 
ATOM     16  C   UNL     1      10.037  47.225  53.262  1.00  0.00     0.000 A 
ENDBRANCH   8  11
ENDBRANCH   2   5
BRANCH   3  17
ATOM     17  C   UNL     1       0.704  43.860  53.448  1.00  0.00     0.117 C 
BRANCH  17  18
ATOM     18  C   UNL     1       0.339  44.494  54.772  1.00  0.00    -0.007 A 
ATOM     19  C   UNL     1      -0.997  44.542  55.195  1.00  0.00     0.009 A 
ATOM     20  C   UNL     1       1.323  45.081  55.587  1.00  0.00     0.116 A 
ATOM     21  C   UNL     1      -1.326  45.147  56.410  1.00  0.00     0.020 A 
ATOM     22  N   UNL     1       0.978  45.665  56.765  1.00  0.00    -0.264 NA
ATOM     23  C   UNL     1      -0.313  45.707  57.191  1.00  0.00     0.111 A 
ENDBRANCH  17  18
BRANCH  17  24
ATOM     24  C   UNL     1      -0.503  43.949  52.494  1.00  0.00     0.016 C 
ATOM     25  C   UNL     1      -0.239  43.493  51.068  1.00  0.00     0.006 C 
ATOM     26  C   UNL     1      -1.058  42.619  52.006  1.00  0.00     0.006 C 
ENDBRANCH  17  24
ENDBRANCH   3  17
TORSDOF 5
ENDMDL
MODEL 3
REMARK VINA RESULT:    -8.177      1.656      2.171
REMARK INTER + INTRA:         -11.358
REMARK INTER:                 -10.502
REMARK INTRA:                  -0.857
REMARK UNBOUND:                -0.792
REMARK SMILES O=C(N[C@@H](c1cccnc1)C1CC1)c1cc(-c2ccccc2)[nH]n1
REMARK SMILES IDX 1 1 2 2 3 3 14 5 15 6 24 7 16 8 23 9 17 11 18 12 22 13 19 14
REMARK SMILES IDX 21 15 20 16 4 17 5 18 6 19 10 20 7 21 9 22 8 23 11 24 12 25
REMARK SMILES IDX 13 26
REMARK H PARENT 3 4 23 10
ROOT
ATOM      1  O   UNL     1       3.735  46.947  52.170  1.00  0.00    -0.267 OA
ATOM      2  C   UNL     1       4.055  46.087  53.036  1.00  0.00     0.272 C 
ATOM      3  N   UNL     1       5.355  45.476  52.991  1.00  0.00    -0.344 N 
ATOM      4  H   UNL     1       5.557  44.661  53.614  1.00  0.00     0.164 HD
ENDROOT
BRANCH   2   5
ATOM      5  C   UNL     1       3.077  45.723  54.075  1.00  0.00     0.150 A 
ATOM      6  C   UNL     1       1.732  45.452  53.892  1.00  0.00     0.064 A 
ATOM      7  N   UNL     1       3.397  45.577  55.375  1.00  0.00    -0.170 NA
ATOM      8  C   UNL     1       1.269  45.142  55.161  1.00  0.00     0.066 A 
ATOM      9  N   UNL     1       2.300  45.230  56.027  1.00  0.00    -0.277 N 
ATOM     10  H   UNL     1       2.280  45.034  57.051  1.00  0.00     0.190 HD
BRANCH   8  11
ATOM     11  C   UNL     1      -0.120  44.761  55.526  1.00  0.00    -0.000 A 
ATOM     12  C   UNL     1      -0.600  44.959  56.836  1.00  0.00     0.010 A 
ATOM     13  C   UNL     1      -0.983  44.192  54.569  1.00  0.00     0.010 A 
ATOM     14  C   UNL     1      -1.905  44.589  57.178  1.00  0.00     0.001 A 
ATOM     15  C   UNL     1      -2.287  43.826  54.916  1.00  0.00     0.001 A 
ATOM     16  C   UNL     1      -2.747  44.022  56.219  1.00  0.00     0.000 A 
ENDBRANCH   8  11
ENDBRANCH   2   5
BRANCH   3  17
ATOM     17  C   UNL     1       6.415  45.972  52.108  1.00  0.00     0.117 C 
BRANCH  17  18
ATOM     18  C   UNL     1       7.556  46.531  52.927  1.00  0.00    -0.007 A 
ATOM     19  C   UNL     1       8.868  46.512  52.429  1.00  0.00     0.009 A 
ATOM     20  C   UNL     1       7.336  47.044  54.218  1.00  0.00     0.116 A 
ATOM     21  C   UNL     1       9.918  47.012  53.202  1.00  0.00     0.020 A 
ATOM     22  N   UNL     1       8.375  47.524  54.951  1.00  0.00    -0.264 NA
ATOM     23  C   UNL     1       9.648  47.522  54.473  1.00  0.00     0.111 A 
ENDBRANCH  17  18
BRANCH  17  24
ATOM     24  C   UNL     1       6.940  44.829  51.220  1.00  0.00     0.016 C 
ATOM     25  C   UNL     1       5.878  44.069  50.441  1.00  0.00     0.006 C 
ATOM     26  C   UNL     1       6.799  45.040  49.720  1.00  0.00     0.006 C 
ENDBRANCH  17  24
ENDBRANCH   3  17
TORSDOF 5
ENDMDL
MODEL 4
REMARK VINA RESULT:    -8.104      2.191      8.423
REMARK INTER + INTRA:         -11.265
REMARK INTER:                 -10.539
REMARK INTRA:                  -0.727
REMARK UNBOUND:                -0.792
REMARK SMILES O=C(N[C@@H](c1cccnc1)C1CC1)c1cc(-c2ccccc2)[nH]n1
REMARK SMILES IDX 1 1 2 2 3 3 14 5 15 6 24 7 16 8 23 9 17 11 18 12 22 13 19 14
REMARK SMILES IDX 21 15 20 16 4 17 5 18 6 19 10 20 7 21 9 22 8 23 11 24 12 25
REMARK SMILES IDX 13 26
REMARK H PARENT 3 4 23 10
ROOT
ATOM      1  O   UNL     1       1.705  46.814  52.527  1.00  0.00    -0.267 OA
ATOM      2  C   UNL     1       2.552  46.193  53.226  1.00  0.00     0.272 C 
ATOM      3  N   UNL     1       2.138  45.533  54.434  1.00  0.00    -0.344 N 
ATOM      4  H   UNL     1       2.864  45.152  55.082  1.00  0.00     0.164 HD
ENDROOT
BRANCH   2   5
ATOM      5  C   UNL     1       3.957  46.166  52.786  1.00  0.00     0.150 A 
ATOM      6  C   UNL     1       5.061  46.606  53.496  1.00  0.00     0.064 A 
ATOM      7  N   UNL     1       4.352  45.660  51.601  1.00  0.00    -0.170 NA
ATOM      8  C   UNL     1       6.135  46.338  52.663  1.00  0.00     0.066 A 
ATOM      9  N   UNL     1       5.668  45.771  51.531  1.00  0.00    -0.277 N 
ATOM     10  H   UNL     1       6.229  45.433  50.719  1.00  0.00     0.190 HD
BRANCH   8  11
ATOM     11  C   UNL     1       7.567  46.609  52.952  1.00  0.00    -0.000 A 
ATOM     12  C   UNL     1       8.553  46.388  51.971  1.00  0.00     0.010 A 
ATOM     13  C   UNL     1       7.965  47.090  54.215  1.00  0.00     0.010 A 
ATOM     14  C   UNL     1       9.902  46.636  52.252  1.00  0.00     0.001 A 
ATOM     15  C   UNL     1       9.313  47.336  54.489  1.00  0.00     0.001 A 
ATOM     16  C   UNL     1      10.281  47.108  53.510  1.00  0.00     0.000 A 
ENDBRANCH   8  11
ENDBRANCH   2   5
BRANCH   3  17
ATOM     17  C   UNL     1       0.722  45.363  54.777  1.00  0.00     0.117 C 
BRANCH  17  18
ATOM     18  C   UNL     1       0.103  44.287  53.914  1.00  0.00    -0.007 A 
ATOM     19  C   UNL     1       0.708  43.026  53.802  1.00  0.00     0.009 A 
ATOM     20  C   UNL     1      -1.067  44.538  53.176  1.00  0.00     0.116 A 
ATOM     21  C   UNL     1       0.139  42.046  52.987  1.00  0.00     0.020 A 
ATOM     22  N   UNL     1      -1.601  43.566  52.388  1.00  0.00    -0.264 NA
ATOM     23  C   UNL     1      -1.030  42.337  52.283  1.00  0.00     0.111 A 
ENDBRANCH  17  18
BRANCH  17  24
ATOM     24  C   UNL     1       0.583  44.967  56.259  1.00  0.00     0.016 C 
ATOM     25  C   UNL     1       0.954  46.051  57.260  1.00  0.00     0.006 C 
ATOM     26  C   UNL     1      -0.507  45.691  57.035  1.00  0.00     0.006 C 
ENDBRANCH  17  24
ENDBRANCH   3  17
TORSDOF 5
ENDMDL
MODEL 5
REMARK VINA RESULT:    -8.021      1.812      3.613
REMARK INTER + INTRA:         -11.157
REMARK INTER:                 -10.504
REMARK INTRA:                  -0.653
REMARK UNBOUND:                -0.792
REMARK SMILES O=C(N[C@@H](c1cccnc1)C1CC1)c1cc(-c2ccccc2)[nH]n1
REMARK SMILES IDX 1 1 2 2 3 3 14 5 15 6 24 7 16 8 23 9 17 11 18 12 22 13 19 14
REMARK SMILES IDX 21 15 20 16 4 17 5 18 6 19 10 20 7 21 9 22 8 23 11 24 12 25
REMARK SMILES IDX 13 26
REMARK H PARENT 3 4 23 10
ROOT
ATOM      1  O   UNL     1       5.836  44.844  54.144  1.00  0.00    -0.267 OA
ATOM      2  C   UNL     1       5.161  45.503  53.306  1.00  0.00     0.272 C 
ATOM      3  N   UNL     1       5.819  46.132  52.194  1.00  0.00    -0.344 N 
ATOM      4  H   UNL     1       5.282  46.796  51.593  1.00  0.00     0.164 HD
ENDROOT
BRANCH   2   5
ATOM      5  C   UNL     1       3.705  45.618  53.495  1.00  0.00     0.150 A 
ATOM      6  C   UNL     1       2.928  44.931  54.412  1.00  0.00     0.064 A 
ATOM      7  N   UNL     1       2.931  46.463  52.787  1.00  0.00    -0.170 NA
ATOM      8  C   UNL     1       1.646  45.411  54.204  1.00  0.00     0.066 A 
ATOM      9  N   UNL     1       1.687  46.330  53.217  1.00  0.00    -0.277 N 
ATOM     10  H   UNL     1       0.890  46.891  52.844  1.00  0.00     0.190 HD
BRANCH   8  11
ATOM     11  C   UNL     1       0.420  45.008  54.941  1.00  0.00    -0.000 A 
ATOM     12  C   UNL     1       0.235  45.379  56.288  1.00  0.00     0.010 A 
ATOM     13  C   UNL     1      -0.579  44.243  54.307  1.00  0.00     0.010 A 
ATOM     14  C   UNL     1      -0.917  44.989  56.980  1.00  0.00     0.001 A 
ATOM     15  C   UNL     1      -1.727  43.857  55.004  1.00  0.00     0.001 A 
ATOM     16  C   UNL     1      -1.896  44.227  56.339  1.00  0.00     0.000 A 
ENDBRANCH   8  11
ENDBRANCH   2   5
BRANCH   3  17
ATOM     17  C   UNL     1       7.221  45.855  51.866  1.00  0.00     0.117 C 
BRANCH  17  18
ATOM     18  C   UNL     1       7.304  44.885  50.710  1.00  0.00    -0.007 A 
ATOM     19  C   UNL     1       6.226  44.036  50.412  1.00  0.00     0.009 A 
ATOM     20  C   UNL     1       8.472  44.783  49.934  1.00  0.00     0.116 A 
ATOM     21  C   UNL     1       6.320  43.130  49.355  1.00  0.00     0.020 A 
ATOM     22  N   UNL     1       8.539  43.891  48.910  1.00  0.00    -0.264 NA
ATOM     23  C   UNL     1       7.496  43.073  48.605  1.00  0.00     0.111 A 
ENDBRANCH  17  18
BRANCH  17  24
ATOM     24  C   UNL     1       7.941  47.162  51.483  1.00  0.00     0.016 C 
ATOM     25  C   UNL     1       7.861  48.275  52.516  1.00  0.00     0.006 C 
ATOM     26  C   UNL     1       9.162  47.512  52.321  1.00  0.00     0.006 C 
ENDBRANCH  17  24
ENDBRANCH   3  17
TORSDOF 5
ENDMDL
