ligand_8_conformer_2_docked
     RDKit          3D

 55 58  0  0  0  0  0  0  0  0999 V2000
    3.1110   39.4690   49.2560 O   0  0  0  0  0  0  0  0  0  0  0  0
    3.7480   40.4080   48.7040 C   0  0  0  0  0  0  0  0  0  0  0  0
    3.9000   40.4160   47.2750 N   0  0  0  0  0  0  0  0  0  0  0  0
    3.1450   39.5000   46.4100 C   0  0  2  0  0  0  0  0  0  0  0  0
    4.0270   38.9440   45.2960 C   0  0  0  0  0  0  0  0  0  0  0  0
    3.9570   39.9860   44.1800 C   0  0  1  0  0  0  0  0  0  0  0  0
    4.0200   39.4020   42.7650 C   0  0  0  0  0  0  0  0  0  0  0  0
    2.7770   39.7570   42.0780 N   0  0  0  0  0  0  0  0  0  0  0  0
    1.8050   40.0650   43.1220 C   0  0  0  0  0  0  0  0  0  0  0  0
    2.5910   40.6270   44.3010 C   0  0  1  0  0  0  0  0  0  0  0  0
    2.0280   40.2510   45.6820 C   0  0  0  0  0  0  0  0  0  0  0  0
    4.3390   41.4760   49.5430 C   0  0  0  0  0  0  0  0  0  0  0  0
    5.6140   41.9980   49.2610 C   0  0  0  0  0  0  0  0  0  0  0  0
    6.1580   43.0130   50.0560 C   0  0  0  0  0  0  0  0  0  0  0  0
    5.4360   43.5250   51.1490 C   0  0  0  0  0  0  0  0  0  0  0  0
    5.9330   44.5400   51.9830 O   0  0  0  0  0  0  0  0  0  0  0  0
    6.0090   45.9280   51.6490 C   0  0  0  0  0  0  0  0  0  0  0  0
    7.3320   46.5450   52.1400 C   0  0  0  0  0  0  0  0  0  0  0  0
    7.5760   46.1990   53.6200 C   0  0  0  0  0  0  0  0  0  0  0  0
    8.8310   46.9080   54.1710 C   0  0  0  0  0  0  0  0  0  0  0  0
    9.9020   47.1870   53.0990 C   0  0  0  0  0  0  0  0  0  0  0  0
    9.8830   46.1280   51.9930 C   0  0  0  0  0  0  0  0  0  0  0  0
    8.5250   46.0870   51.2600 C   0  0  0  0  0  0  0  0  0  0  0  0
    4.1600   43.0170   51.4190 C   0  0  0  0  0  0  0  0  0  0  0  0
    3.6140   42.0050   50.6250 C   0  0  0  0  0  0  0  0  0  0  0  0
    4.6140   41.0500   46.8490 H   0  0  0  0  0  0  0  0  0  0  0  0
    2.7607   38.7040   47.0647 H   0  0  0  0  0  0  0  0  0  0  0  0
    5.0624   38.8220   45.6469 H   0  0  0  0  0  0  0  0  0  0  0  0
    3.6906   37.9528   44.9580 H   0  0  0  0  0  0  0  0  0  0  0  0
    4.8174   40.6607   44.2998 H   0  0  0  0  0  0  0  0  0  0  0  0
    4.8800   39.8238   42.2242 H   0  0  0  0  0  0  0  0  0  0  0  0
    4.1377   38.3091   42.8056 H   0  0  0  0  0  0  0  0  0  0  0  0
    2.4380   38.9350   41.5230 H   0  0  0  0  0  0  0  0  0  0  0  0
    1.0820   40.8102   42.7588 H   0  0  0  0  0  0  0  0  0  0  0  0
    1.2411   39.1670   43.4147 H   0  0  0  0  0  0  0  0  0  0  0  0
    2.5691   41.7258   44.2538 H   0  0  0  0  0  0  0  0  0  0  0  0
    1.7514   41.1575   46.2404 H   0  0  0  0  0  0  0  0  0  0  0  0
    1.1233   39.6321   45.5904 H   0  0  0  0  0  0  0  0  0  0  0  0
    6.1882   41.6054   48.4088 H   0  0  0  0  0  0  0  0  0  0  0  0
    7.1563   43.4128   49.8247 H   0  0  0  0  0  0  0  0  0  0  0  0
    5.9447   46.0386   50.5565 H   0  0  0  0  0  0  0  0  0  0  0  0
    5.1758   46.4517   52.1404 H   0  0  0  0  0  0  0  0  0  0  0  0
    7.2508   47.6383   52.0504 H   0  0  0  0  0  0  0  0  0  0  0  0
    6.7015   46.5131   54.2087 H   0  0  0  0  0  0  0  0  0  0  0  0
    7.7331   45.1130   53.6975 H   0  0  0  0  0  0  0  0  0  0  0  0
    8.5229   47.8671   54.6128 H   0  0  0  0  0  0  0  0  0  0  0  0
    9.2841   46.2328   54.9118 H   0  0  0  0  0  0  0  0  0  0  0  0
    9.7106   48.1736   52.6517 H   0  0  0  0  0  0  0  0  0  0  0  0
   10.8890   47.1598   53.5839 H   0  0  0  0  0  0  0  0  0  0  0  0
   10.6737   46.3602   51.2644 H   0  0  0  0  0  0  0  0  0  0  0  0
   10.0495   45.1453   52.4584 H   0  0  0  0  0  0  0  0  0  0  0  0
    8.5834   46.7470   50.3819 H   0  0  0  0  0  0  0  0  0  0  0  0
    8.3387   45.0389   50.9829 H   0  0  0  0  0  0  0  0  0  0  0  0
    3.5815   43.4182   52.2642 H   0  0  0  0  0  0  0  0  0  0  0  0
    2.6085   41.6191   50.8485 H   0  0  0  0  0  0  0  0  0  0  0  0
  1  2  2  0
  2  3  1  0
  3  4  1  0
  4  5  1  0
  5  6  1  0
  6  7  1  0
  7  8  1  0
  8  9  1  0
  9 10  1  0
 10 11  1  0
  2 12  1  0
 12 13  2  0
 13 14  1  0
 14 15  2  0
 15 16  1  0
 16 17  1  0
 17 18  1  0
 18 19  1  0
 19 20  1  0
 20 21  1  0
 21 22  1  0
 22 23  1  0
 15 24  1  0
 24 25  2  0
 11  4  1  0
 25 12  1  0
 10  6  1  0
 23 18  1  0
  3 26  1  0
  4 27  1  1
  5 28  1  0
  5 29  1  0
  6 30  1  1
  7 31  1  0
  7 32  1  0
  8 33  1  0
  9 34  1  0
  9 35  1  0
 10 36  1  6
 11 37  1  0
 11 38  1  0
 13 39  1  0
 14 40  1  0
 17 41  1  0
 17 42  1  0
 18 43  1  0
 19 44  1  0
 19 45  1  0
 20 46  1  0
 20 47  1  0
 21 48  1  0
 21 49  1  0
 22 50  1  0
 22 51  1  0
 23 52  1  0
 23 53  1  0
 24 54  1  0
 25 55  1  0
M  END
>  <meeko>  (1) 
{"is_sidechain": [false], "free_energy": -8.27, "intermolecular_energy": -10.687, "internal_energy": -0.671}

$$$$
ligand_8_conformer_2_docked
     RDKit          3D

 55 58  0  0  0  0  0  0  0  0999 V2000
    2.5290   41.9120   50.8350 O   0  0  0  0  0  0  0  0  0  0  0  0
    2.7520   43.0540   51.3240 C   0  0  0  0  0  0  0  0  0  0  0  0
    1.7480   43.6840   52.1360 N   0  0  0  0  0  0  0  0  0  0  0  0
    0.5650   42.9540   52.6110 C   0  0  2  0  0  0  0  0  0  0  0  0
   -0.7200   43.6060   52.1100 C   0  0  0  0  0  0  0  0  0  0  0  0
   -1.0360   44.6960   53.1340 C   0  0  1  0  0  0  0  0  0  0  0  0
   -2.5320   44.9290   53.3690 C   0  0  0  0  0  0  0  0  0  0  0  0
   -2.8140   44.6470   54.7770 N   0  0  0  0  0  0  0  0  0  0  0  0
   -1.7220   43.8040   55.2530 C   0  0  0  0  0  0  0  0  0  0  0  0
   -0.4850   44.1940   54.4510 C   0  0  1  0  0  0  0  0  0  0  0  0
    0.4670   43.0280   54.1370 C   0  0  0  0  0  0  0  0  0  0  0  0
    4.0410   43.7270   51.0400 C   0  0  0  0  0  0  0  0  0  0  0  0
    5.1700   42.9910   50.6390 C   0  0  0  0  0  0  0  0  0  0  0  0
    6.3800   43.6380   50.3650 C   0  0  0  0  0  0  0  0  0  0  0  0
    6.4820   45.0370   50.4870 C   0  0  0  0  0  0  0  0  0  0  0  0
    7.6700   45.7390   50.2290 O   0  0  0  0  0  0  0  0  0  0  0  0
    8.8740   45.6450   50.9920 C   0  0  0  0  0  0  0  0  0  0  0  0
    8.8370   46.5930   52.2050 C   0  0  0  0  0  0  0  0  0  0  0  0
    7.8210   46.0980   53.2510 C   0  0  0  0  0  0  0  0  0  0  0  0
    7.6720   47.0950   54.4180 C   0  0  0  0  0  0  0  0  0  0  0  0
    8.9440   47.9240   54.6870 C   0  0  0  0  0  0  0  0  0  0  0  0
   10.2120   47.1440   54.3290 C   0  0  0  0  0  0  0  0  0  0  0  0
   10.2460   46.7550   52.8350 C   0  0  0  0  0  0  0  0  0  0  0  0
    5.3530   45.7700   50.8690 C   0  0  0  0  0  0  0  0  0  0  0  0
    4.1430   45.1250   51.1410 C   0  0  0  0  0  0  0  0  0  0  0  0
    1.8340   44.7050   52.3400 H   0  0  0  0  0  0  0  0  0  0  0  0
    0.6722   41.9222   52.2450 H   0  0  0  0  0  0  0  0  0  0  0  0
   -0.5676   44.0448   51.1129 H   0  0  0  0  0  0  0  0  0  0  0  0
   -1.5408   42.8802   52.0126 H   0  0  0  0  0  0  0  0  0  0  0  0
   -0.6080   45.6381   52.7607 H   0  0  0  0  0  0  0  0  0  0  0  0
   -2.7886   45.9734   53.1381 H   0  0  0  0  0  0  0  0  0  0  0  0
   -3.1294   44.2727   52.7191 H   0  0  0  0  0  0  0  0  0  0  0  0
   -3.7150   44.1180   54.8530 H   0  0  0  0  0  0  0  0  0  0  0  0
   -1.5488   43.9777   56.3253 H   0  0  0  0  0  0  0  0  0  0  0  0
   -1.9590   42.7380   55.1210 H   0  0  0  0  0  0  0  0  0  0  0  0
    0.1048   44.9176   55.0328 H   0  0  0  0  0  0  0  0  0  0  0  0
    1.4586   43.2174   54.5738 H   0  0  0  0  0  0  0  0  0  0  0  0
    0.0960   42.0831   54.5606 H   0  0  0  0  0  0  0  0  0  0  0  0
    5.1014   41.8976   50.5399 H   0  0  0  0  0  0  0  0  0  0  0  0
    7.2561   43.0507   50.0527 H   0  0  0  0  0  0  0  0  0  0  0  0
    8.9942   44.6110   51.3476 H   0  0  0  0  0  0  0  0  0  0  0  0
    9.7186   45.9332   50.3489 H   0  0  0  0  0  0  0  0  0  0  0  0
    8.5134   47.5830   51.8513 H   0  0  0  0  0  0  0  0  0  0  0  0
    6.8427   45.9696   52.7648 H   0  0  0  0  0  0  0  0  0  0  0  0
    8.1865   45.1443   53.6594 H   0  0  0  0  0  0  0  0  0  0  0  0
    6.8496   47.7864   54.1820 H   0  0  0  0  0  0  0  0  0  0  0  0
    7.4742   46.5039   55.3244 H   0  0  0  0  0  0  0  0  0  0  0  0
    8.9066   48.8416   54.0816 H   0  0  0  0  0  0  0  0  0  0  0  0
    8.9785   48.1623   55.7603 H   0  0  0  0  0  0  0  0  0  0  0  0
   11.0891   47.7685   54.5540 H   0  0  0  0  0  0  0  0  0  0  0  0
   10.2218   46.2181   54.9227 H   0  0  0  0  0  0  0  0  0  0  0  0
   10.7860   47.5387   52.2834 H   0  0  0  0  0  0  0  0  0  0  0  0
   10.7452   45.7772   52.7667 H   0  0  0  0  0  0  0  0  0  0  0  0
    5.4182   46.8646   50.9561 H   0  0  0  0  0  0  0  0  0  0  0  0
    3.2638   45.7163   51.4364 H   0  0  0  0  0  0  0  0  0  0  0  0
  1  2  2  0
  2  3  1  0
  3  4  1  0
  4  5  1  0
  5  6  1  0
  6  7  1  0
  7  8  1  0
  8  9  1  0
  9 10  1  0
 10 11  1  0
  2 12  1  0
 12 13  2  0
 13 14  1  0
 14 15  2  0
 15 16  1  0
 16 17  1  0
 17 18  1  0
 18 19  1  0
 19 20  1  0
 20 21  1  0
 21 22  1  0
 22 23  1  0
 15 24  1  0
 24 25  2  0
 11  4  1  0
 25 12  1  0
 10  6  1  0
 23 18  1  0
  3 26  1  0
  4 27  1  1
  5 28  1  0
  5 29  1  0
  6 30  1  6
  7 31  1  0
  7 32  1  0
  8 33  1  0
  9 34  1  0
  9 35  1  0
 10 36  1  1
 11 37  1  0
 11 38  1  0
 13 39  1  0
 14 40  1  0
 17 41  1  0
 17 42  1  0
 18 43  1  0
 19 44  1  0
 19 45  1  0
 20 46  1  0
 20 47  1  0
 21 48  1  0
 21 49  1  0
 22 50  1  0
 22 51  1  0
 23 52  1  0
 23 53  1  0
 24 54  1  0
 25 55  1  0
M  END
>  <meeko>  (2) 
{"is_sidechain": [false], "free_energy": -8.242, "intermolecular_energy": -10.81, "internal_energy": -0.513}

$$$$
ligand_8_conformer_2_docked
     RDKit          3D

 55 58  0  0  0  0  0  0  0  0999 V2000
    3.0730   39.3500   49.1400 O   0  0  0  0  0  0  0  0  0  0  0  0
    3.7270   40.0720   48.3380 C   0  0  0  0  0  0  0  0  0  0  0  0
    3.6040   39.8500   46.9240 N   0  0  0  0  0  0  0  0  0  0  0  0
    2.5690   38.9700   46.3650 C   0  0  2  0  0  0  0  0  0  0  0  0
    3.1000   37.5530   46.1740 C   0  0  0  0  0  0  0  0  0  0  0  0
    3.7710   37.5640   44.8010 C   0  0  1  0  0  0  0  0  0  0  0  0
    3.6560   36.2440   44.0300 C   0  0  0  0  0  0  0  0  0  0  0  0
    2.9310   36.5130   42.7860 N   0  0  0  0  0  0  0  0  0  0  0  0
    2.1940   37.7540   43.0010 C   0  0  0  0  0  0  0  0  0  0  0  0
    3.0140   38.5870   43.9820 C   0  0  1  0  0  0  0  0  0  0  0  0
    2.1790   39.4310   44.9580 C   0  0  0  0  0  0  0  0  0  0  0  0
    4.6200   41.1260   48.8740 C   0  0  0  0  0  0  0  0  0  0  0  0
    4.4750   41.6000   50.1900 C   0  0  0  0  0  0  0  0  0  0  0  0
    5.3290   42.5890   50.6870 C   0  0  0  0  0  0  0  0  0  0  0  0
    6.3480   43.1230   49.8760 C   0  0  0  0  0  0  0  0  0  0  0  0
    7.2320   44.1190   50.3210 O   0  0  0  0  0  0  0  0  0  0  0  0
    6.8740   45.4640   50.6480 C   0  0  0  0  0  0  0  0  0  0  0  0
    7.7270   45.9980   51.8140 C   0  0  0  0  0  0  0  0  0  0  0  0
    9.2170   46.0310   51.4250 C   0  0  0  0  0  0  0  0  0  0  0  0
   10.1070   46.4420   52.6160 C   0  0  0  0  0  0  0  0  0  0  0  0
    9.3950   47.3620   53.6290 C   0  0  0  0  0  0  0  0  0  0  0  0
    8.3420   48.2410   52.9490 C   0  0  0  0  0  0  0  0  0  0  0  0
    7.2420   47.4000   52.2690 C   0  0  0  0  0  0  0  0  0  0  0  0
    6.5030   42.6380   48.5730 C   0  0  0  0  0  0  0  0  0  0  0  0
    5.6510   41.6490   48.0750 C   0  0  0  0  0  0  0  0  0  0  0  0
    4.3100   40.2800   46.2850 H   0  0  0  0  0  0  0  0  0  0  0  0
    1.7236   39.0006   47.0681 H   0  0  0  0  0  0  0  0  0  0  0  0
    3.8295   37.3044   46.9589 H   0  0  0  0  0  0  0  0  0  0  0  0
    2.3006   36.8001   46.2373 H   0  0  0  0  0  0  0  0  0  0  0  0
    4.8411   37.7669   44.9547 H   0  0  0  0  0  0  0  0  0  0  0  0
    4.6595   35.8555   43.8016 H   0  0  0  0  0  0  0  0  0  0  0  0
    3.1218   35.4935   44.6311 H   0  0  0  0  0  0  0  0  0  0  0  0
    2.2520   35.7370   42.6040 H   0  0  0  0  0  0  0  0  0  0  0  0
    2.0767   38.2947   42.0503 H   0  0  0  0  0  0  0  0  0  0  0  0
    1.1878   37.5529   43.3975 H   0  0  0  0  0  0  0  0  0  0  0  0
    3.6301   39.3011   43.4159 H   0  0  0  0  0  0  0  0  0  0  0  0
    2.4077   40.4993   44.8299 H   0  0  0  0  0  0  0  0  0  0  0  0
    1.1015   39.3014   44.7786 H   0  0  0  0  0  0  0  0  0  0  0  0
    3.6831   41.1892   50.8336 H   0  0  0  0  0  0  0  0  0  0  0  0
    5.2039   42.9520   51.7178 H   0  0  0  0  0  0  0  0  0  0  0  0
    7.0318   46.1021   49.7660 H   0  0  0  0  0  0  0  0  0  0  0  0
    5.8172   45.4795   50.9530 H   0  0  0  0  0  0  0  0  0  0  0  0
    7.6071   45.3112   52.6648 H   0  0  0  0  0  0  0  0  0  0  0  0
    9.5187   45.0300   51.0829 H   0  0  0  0  0  0  0  0  0  0  0  0
    9.3471   46.7756   50.6259 H   0  0  0  0  0  0  0  0  0  0  0  0
   10.4292   45.5304   53.1405 H   0  0  0  0  0  0  0  0  0  0  0  0
   10.9550   47.0093   52.2049 H   0  0  0  0  0  0  0  0  0  0  0  0
    8.9027   46.7402   54.3912 H   0  0  0  0  0  0  0  0  0  0  0  0
   10.1493   48.0197   54.0856 H   0  0  0  0  0  0  0  0  0  0  0  0
    7.8769   48.8890   53.7065 H   0  0  0  0  0  0  0  0  0  0  0  0
    8.8449   48.8360   52.1724 H   0  0  0  0  0  0  0  0  0  0  0  0
    6.4144   47.2678   52.9815 H   0  0  0  0  0  0  0  0  0  0  0  0
    6.9313   47.9440   51.3648 H   0  0  0  0  0  0  0  0  0  0  0  0
    7.3036   43.0393   47.9342 H   0  0  0  0  0  0  0  0  0  0  0  0
    5.7883   41.2767   47.0491 H   0  0  0  0  0  0  0  0  0  0  0  0
  1  2  2  0
  2  3  1  0
  3  4  1  0
  4  5  1  0
  5  6  1  0
  6  7  1  0
  7  8  1  0
  8  9  1  0
  9 10  1  0
 10 11  1  0
  2 12  1  0
 12 13  2  0
 13 14  1  0
 14 15  2  0
 15 16  1  0
 16 17  1  0
 17 18  1  0
 18 19  1  0
 19 20  1  0
 20 21  1  0
 21 22  1  0
 22 23  1  0
 15 24  1  0
 24 25  2  0
 11  4  1  0
 25 12  1  0
 10  6  1  0
 23 18  1  0
  3 26  1  0
  4 27  1  1
  5 28  1  0
  5 29  1  0
  6 30  1  1
  7 31  1  0
  7 32  1  0
  8 33  1  0
  9 34  1  0
  9 35  1  0
 10 36  1  6
 11 37  1  0
 11 38  1  0
 13 39  1  0
 14 40  1  0
 17 41  1  0
 17 42  1  0
 18 43  1  0
 19 44  1  0
 19 45  1  0
 20 46  1  0
 20 47  1  0
 21 48  1  0
 21 49  1  0
 22 50  1  0
 22 51  1  0
 23 52  1  0
 23 53  1  0
 24 54  1  0
 25 55  1  0
M  END
>  <meeko>  (3) 
{"is_sidechain": [false], "free_energy": -8.233, "intermolecular_energy": -10.778, "internal_energy": -0.533}

$$$$
ligand_8_conformer_2_docked
     RDKit          3D

 55 58  0  0  0  0  0  0  0  0999 V2000
    3.4770   41.2640   50.9740 O   0  0  0  0  0  0  0  0  0  0  0  0
    3.5550   42.5230   50.9800 C   0  0  0  0  0  0  0  0  0  0  0  0
    2.3880   43.3040   51.2840 N   0  0  0  0  0  0  0  0  0  0  0  0
    1.1640   42.6910   51.8160 C   0  0  2  0  0  0  0  0  0  0  0  0
   -0.0730   43.4750   51.3880 C   0  0  0  0  0  0  0  0  0  0  0  0
   -0.2230   44.5790   52.4340 C   0  0  1  0  0  0  0  0  0  0  0  0
   -1.6740   44.9600   52.7490 C   0  0  0  0  0  0  0  0  0  0  0  0
   -1.9080   44.6910   54.1690 N   0  0  0  0  0  0  0  0  0  0  0  0
   -0.8840   43.7370   54.5810 C   0  0  0  0  0  0  0  0  0  0  0  0
    0.3430   44.0090   53.7170 C   0  0  1  0  0  0  0  0  0  0  0  0
    1.1540   42.7580   53.3460 C   0  0  0  0  0  0  0  0  0  0  0  0
    4.8490   43.1710   50.6590 C   0  0  0  0  0  0  0  0  0  0  0  0
    5.8820   42.4560   50.0280 C   0  0  0  0  0  0  0  0  0  0  0  0
    7.0960   43.0810   49.7230 C   0  0  0  0  0  0  0  0  0  0  0  0
    7.2990   44.4360   50.0440 C   0  0  0  0  0  0  0  0  0  0  0  0
    8.4960   45.1130   49.7640 O   0  0  0  0  0  0  0  0  0  0  0  0
    9.5820   45.2940   50.6760 C   0  0  0  0  0  0  0  0  0  0  0  0
    9.1390   46.0940   51.9150 C   0  0  0  0  0  0  0  0  0  0  0  0
   10.3500   46.4400   52.8000 C   0  0  0  0  0  0  0  0  0  0  0  0
    9.9200   47.1320   54.1100 C   0  0  0  0  0  0  0  0  0  0  0  0
    8.6100   47.9350   53.9820 C   0  0  0  0  0  0  0  0  0  0  0  0
    8.4280   48.4960   52.5690 C   0  0  0  0  0  0  0  0  0  0  0  0
    8.3650   47.3760   51.5090 C   0  0  0  0  0  0  0  0  0  0  0  0
    6.2640   45.1510   50.6570 C   0  0  0  0  0  0  0  0  0  0  0  0
    5.0500   44.5290   50.9600 C   0  0  0  0  0  0  0  0  0  0  0  0
    2.3940   44.3250   51.0610 H   0  0  0  0  0  0  0  0  0  0  0  0
    1.1469   41.6579   51.4385 H   0  0  0  0  0  0  0  0  0  0  0  0
    0.0708   43.9078   50.3870 H   0  0  0  0  0  0  0  0  0  0  0  0
   -0.9670   42.8368   51.3297 H   0  0  0  0  0  0  0  0  0  0  0  0
    0.2783   45.4774   52.0446 H   0  0  0  0  0  0  0  0  0  0  0  0
   -1.8348   46.0277   52.5387 H   0  0  0  0  0  0  0  0  0  0  0  0
   -2.3687   44.3762   52.1273 H   0  0  0  0  0  0  0  0  0  0  0  0
   -2.8530   44.2560   54.2890 H   0  0  0  0  0  0  0  0  0  0  0  0
   -0.6384   43.8801   55.6436 H   0  0  0  0  0  0  0  0  0  0  0  0
   -1.2345   42.7020   54.4550 H   0  0  0  0  0  0  0  0  0  0  0  0
    1.0329   44.6623   54.2712 H   0  0  0  0  0  0  0  0  0  0  0  0
    2.1812   42.8421   53.7304 H   0  0  0  0  0  0  0  0  0  0  0  0
    0.7120   41.8505   53.7833 H   0  0  0  0  0  0  0  0  0  0  0  0
    5.7346   41.3964   49.7720 H   0  0  0  0  0  0  0  0  0  0  0  0
    7.8963   42.5100   49.2295 H   0  0  0  0  0  0  0  0  0  0  0  0
    9.9491   44.3082   50.9975 H   0  0  0  0  0  0  0  0  0  0  0  0
   10.3777   45.8553   50.1643 H   0  0  0  0  0  0  0  0  0  0  0  0
    8.4544   45.4618   52.4994 H   0  0  0  0  0  0  0  0  0  0  0  0
   10.8879   45.5127   53.0466 H   0  0  0  0  0  0  0  0  0  0  0  0
   10.9958   47.1337   52.2417 H   0  0  0  0  0  0  0  0  0  0  0  0
    9.7811   46.3604   54.8816 H   0  0  0  0  0  0  0  0  0  0  0  0
   10.7130   47.8477   54.3724 H   0  0  0  0  0  0  0  0  0  0  0  0
    7.7621   47.2743   54.2156 H   0  0  0  0  0  0  0  0  0  0  0  0
    8.6548   48.7803   54.6844 H   0  0  0  0  0  0  0  0  0  0  0  0
    7.4920   49.0727   52.5331 H   0  0  0  0  0  0  0  0  0  0  0  0
    9.2952   49.1331   52.3408 H   0  0  0  0  0  0  0  0  0  0  0  0
    7.3102   47.1091   51.3470 H   0  0  0  0  0  0  0  0  0  0  0  0
    8.8418   47.7663   50.5978 H   0  0  0  0  0  0  0  0  0  0  0  0
    6.4076   46.2135   50.9028 H   0  0  0  0  0  0  0  0  0  0  0  0
    4.2452   45.1068   51.4379 H   0  0  0  0  0  0  0  0  0  0  0  0
  1  2  2  0
  2  3  1  0
  3  4  1  0
  4  5  1  0
  5  6  1  0
  6  7  1  0
  7  8  1  0
  8  9  1  0
  9 10  1  0
 10 11  1  0
  2 12  1  0
 12 13  2  0
 13 14  1  0
 14 15  2  0
 15 16  1  0
 16 17  1  0
 17 18  1  0
 18 19  1  0
 19 20  1  0
 20 21  1  0
 21 22  1  0
 22 23  1  0
 15 24  1  0
 24 25  2  0
 11  4  1  0
 25 12  1  0
 10  6  1  0
 23 18  1  0
  3 26  1  0
  4 27  1  1
  5 28  1  0
  5 29  1  0
  6 30  1  6
  7 31  1  0
  7 32  1  0
  8 33  1  0
  9 34  1  0
  9 35  1  0
 10 36  1  1
 11 37  1  0
 11 38  1  0
 13 39  1  0
 14 40  1  0
 17 41  1  0
 17 42  1  0
 18 43  1  0
 19 44  1  0
 19 45  1  0
 20 46  1  0
 20 47  1  0
 21 48  1  0
 21 49  1  0
 22 50  1  0
 22 51  1  0
 23 52  1  0
 23 53  1  0
 24 54  1  0
 25 55  1  0
M  END
>  <meeko>  (4) 
{"is_sidechain": [false], "free_energy": -8.208, "intermolecular_energy": -11.087, "internal_energy": -0.191}

$$$$
ligand_8_conformer_2_docked
     RDKit          3D

 55 58  0  0  0  0  0  0  0  0999 V2000
   -0.4870   43.9530   52.1180 O   0  0  0  0  0  0  0  0  0  0  0  0
    0.0370   44.8300   52.8580 C   0  0  0  0  0  0  0  0  0  0  0  0
   -0.7070   45.3570   53.9690 N   0  0  0  0  0  0  0  0  0  0  0  0
   -1.9670   44.7480   54.4150 C   0  0  2  0  0  0  0  0  0  0  0  0
   -2.7960   45.7360   55.2290 C   0  0  0  0  0  0  0  0  0  0  0  0
   -2.2750   45.6040   56.6600 C   0  0  1  0  0  0  0  0  0  0  0  0
   -3.3430   45.7970   57.7420 C   0  0  0  0  0  0  0  0  0  0  0  0
   -3.4280   44.5560   58.5140 N   0  0  0  0  0  0  0  0  0  0  0  0
   -2.8630   43.5080   57.6690 C   0  0  0  0  0  0  0  0  0  0  0  0
   -1.8040   44.1720   56.7950 C   0  0  1  0  0  0  0  0  0  0  0  0
   -1.6890   43.5900   55.3770 C   0  0  0  0  0  0  0  0  0  0  0  0
    1.4080   45.3080   52.5580 C   0  0  0  0  0  0  0  0  0  0  0  0
    2.1390   46.0510   53.5020 C   0  0  0  0  0  0  0  0  0  0  0  0
    3.4350   46.4900   53.2110 C   0  0  0  0  0  0  0  0  0  0  0  0
    4.0250   46.1930   51.9680 C   0  0  0  0  0  0  0  0  0  0  0  0
    5.3190   46.6100   51.6200 O   0  0  0  0  0  0  0  0  0  0  0  0
    6.4040   45.7490   51.2680 C   0  0  0  0  0  0  0  0  0  0  0  0
    7.6390   46.0250   52.1460 C   0  0  0  0  0  0  0  0  0  0  0  0
    8.9040   46.1550   51.2780 C   0  0  0  0  0  0  0  0  0  0  0  0
   10.1740   46.3080   52.1400 C   0  0  0  0  0  0  0  0  0  0  0  0
    9.9160   46.9790   53.5040 C   0  0  0  0  0  0  0  0  0  0  0  0
    8.7550   47.9760   53.4320 C   0  0  0  0  0  0  0  0  0  0  0  0
    7.4350   47.2910   53.0200 C   0  0  0  0  0  0  0  0  0  0  0  0
    3.3020   45.4390   51.0360 C   0  0  0  0  0  0  0  0  0  0  0  0
    2.0080   44.9980   51.3260 C   0  0  0  0  0  0  0  0  0  0  0  0
   -0.3710   46.2330   54.4280 H   0  0  0  0  0  0  0  0  0  0  0  0
   -2.4927   44.4236   53.5049 H   0  0  0  0  0  0  0  0  0  0  0  0
   -2.6505   46.7611   54.8575 H   0  0  0  0  0  0  0  0  0  0  0  0
   -3.8737   45.5264   55.1604 H   0  0  0  0  0  0  0  0  0  0  0  0
   -1.5082   46.3785   56.8087 H   0  0  0  0  0  0  0  0  0  0  0  0
   -3.0601   46.6299   58.4025 H   0  0  0  0  0  0  0  0  0  0  0  0
   -4.3153   46.0319   57.2843 H   0  0  0  0  0  0  0  0  0  0  0  0
   -4.4330   44.3360   58.7100 H   0  0  0  0  0  0  0  0  0  0  0  0
   -2.4045   42.7254   58.2914 H   0  0  0  0  0  0  0  0  0  0  0  0
   -3.6418   43.0329   57.0544 H   0  0  0  0  0  0  0  0  0  0  0  0
   -0.8171   44.0319   57.2602 H   0  0  0  0  0  0  0  0  0  0  0  0
   -0.6780   43.1901   55.2100 H   0  0  0  0  0  0  0  0  0  0  0  0
   -2.3988   42.7636   55.2246 H   0  0  0  0  0  0  0  0  0  0  0  0
    1.6882   46.2888   54.4768 H   0  0  0  0  0  0  0  0  0  0  0  0
    3.9963   47.0707   53.9579 H   0  0  0  0  0  0  0  0  0  0  0  0
    6.0919   44.7032   51.4057 H   0  0  0  0  0  0  0  0  0  0  0  0
    6.6728   45.9375   50.2181 H   0  0  0  0  0  0  0  0  0  0  0  0
    7.7716   45.1687   52.8236 H   0  0  0  0  0  0  0  0  0  0  0  0
    9.0027   45.2541   50.6545 H   0  0  0  0  0  0  0  0  0  0  0  0
    8.8016   47.0560   50.6553 H   0  0  0  0  0  0  0  0  0  0  0  0
   10.5959   45.3079   52.3185 H   0  0  0  0  0  0  0  0  0  0  0  0
   10.8645   46.9599   51.5848 H   0  0  0  0  0  0  0  0  0  0  0  0
    9.6737   46.2019   54.2439 H   0  0  0  0  0  0  0  0  0  0  0  0
   10.8237   47.5286   53.7940 H   0  0  0  0  0  0  0  0  0  0  0  0
    8.6220   48.4394   54.4207 H   0  0  0  0  0  0  0  0  0  0  0  0
    9.0000   48.7312   52.6707 H   0  0  0  0  0  0  0  0  0  0  0  0
    6.8944   47.0001   53.9328 H   0  0  0  0  0  0  0  0  0  0  0  0
    6.8715   48.0149   52.4130 H   0  0  0  0  0  0  0  0  0  0  0  0
    3.7570   45.1912   50.0657 H   0  0  0  0  0  0  0  0  0  0  0  0
    1.4549   44.4035   50.5839 H   0  0  0  0  0  0  0  0  0  0  0  0
  1  2  2  0
  2  3  1  0
  3  4  1  0
  4  5  1  0
  5  6  1  0
  6  7  1  0
  7  8  1  0
  8  9  1  0
  9 10  1  0
 10 11  1  0
  2 12  1  0
 12 13  2  0
 13 14  1  0
 14 15  2  0
 15 16  1  0
 16 17  1  0
 17 18  1  0
 18 19  1  0
 19 20  1  0
 20 21  1  0
 21 22  1  0
 22 23  1  0
 15 24  1  0
 24 25  2  0
 11  4  1  0
 25 12  1  0
 10  6  1  0
 23 18  1  0
  3 26  1  0
  4 27  1  6
  5 28  1  0
  5 29  1  0
  6 30  1  1
  7 31  1  0
  7 32  1  0
  8 33  1  0
  9 34  1  0
  9 35  1  0
 10 36  1  1
 11 37  1  0
 11 38  1  0
 13 39  1  0
 14 40  1  0
 17 41  1  0
 17 42  1  0
 18 43  1  0
 19 44  1  0
 19 45  1  0
 20 46  1  0
 20 47  1  0
 21 48  1  0
 21 49  1  0
 22 50  1  0
 22 51  1  0
 23 52  1  0
 23 53  1  0
 24 54  1  0
 25 55  1  0
M  END
>  <meeko>  (5) 
{"is_sidechain": [false], "free_energy": -8.176, "intermolecular_energy": -10.562, "internal_energy": -0.675}

$$$$
