ligand_91_conformer_1_docked
     RDKit          3D

 38 40  0  0  0  0  0  0  0  0999 V2000
    1.9400   42.4750   50.9740 O   0  0  0  0  0  0  0  0  0  0  0  0
    2.9800   42.6610   51.6660 C   0  0  0  0  0  0  0  0  0  0  0  0
    2.8580   42.8330   53.0890 N   0  0  0  0  0  0  0  0  0  0  0  0
    1.6570   43.4080   53.6950 C   0  0  0  0  0  0  0  0  0  0  0  0
    2.0170   44.5530   54.6490 C   0  0  0  0  0  0  0  0  0  0  0  0
    2.8290   45.6100   53.9590 C   0  0  0  0  0  0  0  0  0  0  0  0
    2.3220   46.4170   52.9440 C   0  0  0  0  0  0  0  0  0  0  0  0
    3.5990   47.3190   52.3340 S   0  0  0  0  0  0  0  0  0  0  0  0
    4.7400   46.6540   53.3800 C   0  0  0  0  0  0  0  0  0  0  0  0
    6.1910   46.9520   53.3910 C   0  0  0  0  0  0  0  0  0  0  0  0
    6.9600   46.7770   54.5530 C   0  0  0  0  0  0  0  0  0  0  0  0
    8.3260   47.0840   54.5560 C   0  0  0  0  0  0  0  0  0  0  0  0
    8.9360   47.5640   53.3960 C   0  0  0  0  0  0  0  0  0  0  0  0
    8.1820   47.7380   52.2310 C   0  0  0  0  0  0  0  0  0  0  0  0
    6.8180   47.4340   52.2290 C   0  0  0  0  0  0  0  0  0  0  0  0
    4.1630   45.7410   54.1910 N   0  0  0  0  0  0  0  0  0  0  0  0
    4.3000   42.7280   50.9880 C   0  0  0  0  0  0  0  0  0  0  0  0
    4.9350   41.5650   50.5030 C   0  0  0  0  0  0  0  0  0  0  0  0
    6.2000   41.6420   49.9130 C   0  0  0  0  0  0  0  0  0  0  0  0
    6.8520   42.8720   49.8080 C   0  0  0  0  0  0  0  0  0  0  0  0
    8.0830   42.9350   49.2450 F   0  0  0  0  0  0  0  0  0  0  0  0
    6.2360   44.0310   50.2870 C   0  0  0  0  0  0  0  0  0  0  0  0
    6.8710   45.2290   50.1940 F   0  0  0  0  0  0  0  0  0  0  0  0
    4.9690   43.9620   50.8740 C   0  0  0  0  0  0  0  0  0  0  0  0
    3.6940   42.7050   53.7010 H   0  0  0  0  0  0  0  0  0  0  0  0
    1.0027   43.7947   52.8998 H   0  0  0  0  0  0  0  0  0  0  0  0
    1.1435   42.6223   54.2686 H   0  0  0  0  0  0  0  0  0  0  0  0
    1.0896   45.0062   55.0292 H   0  0  0  0  0  0  0  0  0  0  0  0
    2.6176   44.1397   55.4727 H   0  0  0  0  0  0  0  0  0  0  0  0
    1.2765   46.4562   52.6043 H   0  0  0  0  0  0  0  0  0  0  0  0
    6.4850   46.3954   55.4688 H   0  0  0  0  0  0  0  0  0  0  0  0
    8.9185   46.9469   55.4726 H   0  0  0  0  0  0  0  0  0  0  0  0
   10.0092   47.8053   53.3981 H   0  0  0  0  0  0  0  0  0  0  0  0
    8.6628   48.1143   51.3160 H   0  0  0  0  0  0  0  0  0  0  0  0
    6.2298   47.5731   51.3099 H   0  0  0  0  0  0  0  0  0  0  0  0
    4.4312   40.5910   50.5898 H   0  0  0  0  0  0  0  0  0  0  0  0
    6.6831   40.7308   49.5304 H   0  0  0  0  0  0  0  0  0  0  0  0
    4.4910   44.8787   51.2497 H   0  0  0  0  0  0  0  0  0  0  0  0
  1  2  2  0
  2  3  1  0
  3  4  1  0
  4  5  1  0
  5  6  1  0
  6  7  2  0
  7  8  1  0
  8  9  1  0
  9 10  1  0
 10 11  2  0
 11 12  1  0
 12 13  2  0
 13 14  1  0
 14 15  2  0
  9 16  2  0
  2 17  1  0
 17 18  2  0
 18 19  1  0
 19 20  2  0
 20 21  1  0
 20 22  1  0
 22 23  1  0
 22 24  2  0
 16  6  1  0
 24 17  1  0
 15 10  1  0
  3 25  1  0
  4 26  1  0
  4 27  1  0
  5 28  1  0
  5 29  1  0
  7 30  1  0
 11 31  1  0
 12 32  1  0
 13 33  1  0
 14 34  1  0
 15 35  1  0
 18 36  1  0
 19 37  1  0
 24 38  1  0
M  END
>  <meeko>  (1) 
{"is_sidechain": [false], "free_energy": -9.192, "intermolecular_energy": -11.878, "internal_energy": -1.408}

$$$$
ligand_91_conformer_1_docked
     RDKit          3D

 38 40  0  0  0  0  0  0  0  0999 V2000
    5.5890   45.0560   55.6950 O   0  0  0  0  0  0  0  0  0  0  0  0
    5.3770   46.0440   54.9370 C   0  0  0  0  0  0  0  0  0  0  0  0
    4.0610   46.6250   54.8890 N   0  0  0  0  0  0  0  0  0  0  0  0
    2.8590   45.8320   55.1460 C   0  0  0  0  0  0  0  0  0  0  0  0
    2.0200   45.6780   53.8720 C   0  0  0  0  0  0  0  0  0  0  0  0
    2.6090   44.6580   52.9440 C   0  0  0  0  0  0  0  0  0  0  0  0
    2.1220   43.3570   52.8350 C   0  0  0  0  0  0  0  0  0  0  0  0
    3.1720   42.5090   51.8380 S   0  0  0  0  0  0  0  0  0  0  0  0
    4.1970   43.8210   51.5820 C   0  0  0  0  0  0  0  0  0  0  0  0
    5.4520   43.8050   50.7950 C   0  0  0  0  0  0  0  0  0  0  0  0
    5.8220   42.6790   50.0410 C   0  0  0  0  0  0  0  0  0  0  0  0
    7.0220   42.6690   49.3190 C   0  0  0  0  0  0  0  0  0  0  0  0
    7.8590   43.7850   49.3410 C   0  0  0  0  0  0  0  0  0  0  0  0
    7.5000   44.9130   50.0850 C   0  0  0  0  0  0  0  0  0  0  0  0
    6.3040   44.9230   50.8080 C   0  0  0  0  0  0  0  0  0  0  0  0
    3.7560   44.9050   52.2550 N   0  0  0  0  0  0  0  0  0  0  0  0
    6.4830   46.5610   54.0910 C   0  0  0  0  0  0  0  0  0  0  0  0
    6.2620   47.5760   53.1360 C   0  0  0  0  0  0  0  0  0  0  0  0
    7.3050   48.0140   52.3140 C   0  0  0  0  0  0  0  0  0  0  0  0
    8.5740   47.4430   52.4260 C   0  0  0  0  0  0  0  0  0  0  0  0
    9.5760   47.8660   51.6170 F   0  0  0  0  0  0  0  0  0  0  0  0
    8.8050   46.4350   53.3660 C   0  0  0  0  0  0  0  0  0  0  0  0
   10.0370   45.8700   53.4720 F   0  0  0  0  0  0  0  0  0  0  0  0
    7.7670   45.9950   54.1930 C   0  0  0  0  0  0  0  0  0  0  0  0
    3.9330   47.5870   54.5050 H   0  0  0  0  0  0  0  0  0  0  0  0
    3.1554   44.8351   55.5043 H   0  0  0  0  0  0  0  0  0  0  0  0
    2.2531   46.3494   55.9044 H   0  0  0  0  0  0  0  0  0  0  0  0
    1.0033   45.3631   54.1498 H   0  0  0  0  0  0  0  0  0  0  0  0
    2.0024   46.6472   53.3520 H   0  0  0  0  0  0  0  0  0  0  0  0
    1.2156   42.9589   53.3145 H   0  0  0  0  0  0  0  0  0  0  0  0
    5.1638   41.7979   50.0175 H   0  0  0  0  0  0  0  0  0  0  0  0
    7.3047   41.7811   48.7345 H   0  0  0  0  0  0  0  0  0  0  0  0
    8.8011   43.7774   48.7732 H   0  0  0  0  0  0  0  0  0  0  0  0
    8.1594   45.7933   50.1013 H   0  0  0  0  0  0  0  0  0  0  0  0
    6.0271   45.8131   51.3920 H   0  0  0  0  0  0  0  0  0  0  0  0
    5.2629   48.0256   53.0375 H   0  0  0  0  0  0  0  0  0  0  0  0
    7.1251   48.8106   51.5771 H   0  0  0  0  0  0  0  0  0  0  0  0
    7.9558   45.1999   54.9293 H   0  0  0  0  0  0  0  0  0  0  0  0
  1  2  2  0
  2  3  1  0
  3  4  1  0
  4  5  1  0
  5  6  1  0
  6  7  2  0
  7  8  1  0
  8  9  1  0
  9 10  1  0
 10 11  2  0
 11 12  1  0
 12 13  2  0
 13 14  1  0
 14 15  2  0
  9 16  2  0
  2 17  1  0
 17 18  2  0
 18 19  1  0
 19 20  2  0
 20 21  1  0
 20 22  1  0
 22 23  1  0
 22 24  2  0
 16  6  1  0
 24 17  1  0
 15 10  1  0
  3 25  1  0
  4 26  1  0
  4 27  1  0
  5 28  1  0
  5 29  1  0
  7 30  1  0
 11 31  1  0
 12 32  1  0
 13 33  1  0
 14 34  1  0
 15 35  1  0
 18 36  1  0
 19 37  1  0
 24 38  1  0
M  END
>  <meeko>  (2) 
{"is_sidechain": [false], "free_energy": -9.046, "intermolecular_energy": -11.434, "internal_energy": -1.664}

$$$$
ligand_91_conformer_1_docked
     RDKit          3D

 38 40  0  0  0  0  0  0  0  0999 V2000
    7.0260   47.5340   54.9870 O   0  0  0  0  0  0  0  0  0  0  0  0
    6.6820   47.1550   53.8320 C   0  0  0  0  0  0  0  0  0  0  0  0
    5.3060   47.2790   53.4320 N   0  0  0  0  0  0  0  0  0  0  0  0
    4.2130   47.2190   54.4040 C   0  0  0  0  0  0  0  0  0  0  0  0
    4.0300   45.7940   54.9390 C   0  0  0  0  0  0  0  0  0  0  0  0
    3.4610   44.8820   53.8940 C   0  0  0  0  0  0  0  0  0  0  0  0
    2.1490   44.4150   53.9240 C   0  0  0  0  0  0  0  0  0  0  0  0
    1.9870   43.2910   52.6880 S   0  0  0  0  0  0  0  0  0  0  0  0
    3.5800   43.4420   52.1640 C   0  0  0  0  0  0  0  0  0  0  0  0
    4.2160   42.6680   51.0730 C   0  0  0  0  0  0  0  0  0  0  0  0
    3.5280   41.6300   50.4230 C   0  0  0  0  0  0  0  0  0  0  0  0
    4.1470   40.8910   49.4080 C   0  0  0  0  0  0  0  0  0  0  0  0
    5.4590   41.1860   49.0310 C   0  0  0  0  0  0  0  0  0  0  0  0
    6.1530   42.2200   49.6670 C   0  0  0  0  0  0  0  0  0  0  0  0
    5.5350   42.9560   50.6830 C   0  0  0  0  0  0  0  0  0  0  0  0
    4.2460   44.3380   52.9240 N   0  0  0  0  0  0  0  0  0  0  0  0
    7.7020   46.5650   52.9280 C   0  0  0  0  0  0  0  0  0  0  0  0
    9.0720   46.5740   53.2640 C   0  0  0  0  0  0  0  0  0  0  0  0
   10.0220   46.0590   52.3770 C   0  0  0  0  0  0  0  0  0  0  0  0
    9.6230   45.5380   51.1450 C   0  0  0  0  0  0  0  0  0  0  0  0
   10.5520   45.0510   50.2860 F   0  0  0  0  0  0  0  0  0  0  0  0
    8.2690   45.5250   50.7990 C   0  0  0  0  0  0  0  0  0  0  0  0
    7.8760   45.0280   49.5970 F   0  0  0  0  0  0  0  0  0  0  0  0
    7.3130   46.0360   51.6830 C   0  0  0  0  0  0  0  0  0  0  0  0
    5.0540   47.2440   52.4200 H   0  0  0  0  0  0  0  0  0  0  0  0
    4.4413   47.8918   55.2438 H   0  0  0  0  0  0  0  0  0  0  0  0
    3.2828   47.5275   53.9044 H   0  0  0  0  0  0  0  0  0  0  0  0
    5.0076   45.4044   55.2591 H   0  0  0  0  0  0  0  0  0  0  0  0
    3.3266   45.8310   55.7839 H   0  0  0  0  0  0  0  0  0  0  0  0
    1.3633   44.7258   54.6284 H   0  0  0  0  0  0  0  0  0  0  0  0
    2.4934   41.3958   50.7143 H   0  0  0  0  0  0  0  0  0  0  0  0
    3.6003   40.0782   48.9075 H   0  0  0  0  0  0  0  0  0  0  0  0
    5.9463   40.6051   48.2340 H   0  0  0  0  0  0  0  0  0  0  0  0
    7.1853   42.4546   49.3681 H   0  0  0  0  0  0  0  0  0  0  0  0
    6.0861   43.7673   51.1811 H   0  0  0  0  0  0  0  0  0  0  0  0
    9.3949   46.9889   54.2302 H   0  0  0  0  0  0  0  0  0  0  0  0
   11.0874   46.0644   52.6508 H   0  0  0  0  0  0  0  0  0  0  0  0
    6.2493   46.0244   51.4031 H   0  0  0  0  0  0  0  0  0  0  0  0
  1  2  2  0
  2  3  1  0
  3  4  1  0
  4  5  1  0
  5  6  1  0
  6  7  2  0
  7  8  1  0
  8  9  1  0
  9 10  1  0
 10 11  2  0
 11 12  1  0
 12 13  2  0
 13 14  1  0
 14 15  2  0
  9 16  2  0
  2 17  1  0
 17 18  2  0
 18 19  1  0
 19 20  2  0
 20 21  1  0
 20 22  1  0
 22 23  1  0
 22 24  2  0
 16  6  1  0
 24 17  1  0
 15 10  1  0
  3 25  1  0
  4 26  1  0
  4 27  1  0
  5 28  1  0
  5 29  1  0
  7 30  1  0
 11 31  1  0
 12 32  1  0
 13 33  1  0
 14 34  1  0
 15 35  1  0
 18 36  1  0
 19 37  1  0
 24 38  1  0
M  END
>  <meeko>  (3) 
{"is_sidechain": [false], "free_energy": -8.922, "intermolecular_energy": -11.509, "internal_energy": -1.428}

$$$$
ligand_91_conformer_1_docked
     RDKit          3D

 38 40  0  0  0  0  0  0  0  0999 V2000
    2.8060   47.7030   52.5270 O   0  0  0  0  0  0  0  0  0  0  0  0
    2.9370   46.6360   53.1900 C   0  0  0  0  0  0  0  0  0  0  0  0
    3.7890   46.6280   54.3490 N   0  0  0  0  0  0  0  0  0  0  0  0
    4.9450   47.5170   54.4620 C   0  0  0  0  0  0  0  0  0  0  0  0
    6.2520   46.7170   54.5000 C   0  0  0  0  0  0  0  0  0  0  0  0
    6.5520   46.0890   53.1720 C   0  0  0  0  0  0  0  0  0  0  0  0
    7.3210   46.7110   52.1910 C   0  0  0  0  0  0  0  0  0  0  0  0
    7.2510   45.7550   50.8140 S   0  0  0  0  0  0  0  0  0  0  0  0
    6.2540   44.5910   51.5140 C   0  0  0  0  0  0  0  0  0  0  0  0
    5.6990   43.3970   50.8360 C   0  0  0  0  0  0  0  0  0  0  0  0
    6.3390   42.8330   49.7190 C   0  0  0  0  0  0  0  0  0  0  0  0
    5.7920   41.7180   49.0730 C   0  0  0  0  0  0  0  0  0  0  0  0
    4.6030   41.1550   49.5390 C   0  0  0  0  0  0  0  0  0  0  0  0
    3.9580   41.7050   50.6510 C   0  0  0  0  0  0  0  0  0  0  0  0
    4.5030   42.8200   51.2950 C   0  0  0  0  0  0  0  0  0  0  0  0
    5.9630   44.9230   52.7900 N   0  0  0  0  0  0  0  0  0  0  0  0
    2.2320   45.4100   52.7370 C   0  0  0  0  0  0  0  0  0  0  0  0
    1.7510   45.2860   51.4170 C   0  0  0  0  0  0  0  0  0  0  0  0
    1.0460   44.1450   51.0230 C   0  0  0  0  0  0  0  0  0  0  0  0
    0.8020   43.1200   51.9390 C   0  0  0  0  0  0  0  0  0  0  0  0
    0.1080   42.0220   51.5520 F   0  0  0  0  0  0  0  0  0  0  0  0
    1.2700   43.2310   53.2510 C   0  0  0  0  0  0  0  0  0  0  0  0
    1.0280   42.2400   54.1490 F   0  0  0  0  0  0  0  0  0  0  0  0
    1.9800   44.3680   53.6500 C   0  0  0  0  0  0  0  0  0  0  0  0
    3.6940   45.8670   55.0570 H   0  0  0  0  0  0  0  0  0  0  0  0
    4.9633   48.1950   53.5960 H   0  0  0  0  0  0  0  0  0  0  0  0
    4.8570   48.0889   55.3975 H   0  0  0  0  0  0  0  0  0  0  0  0
    7.0768   47.3929   54.7700 H   0  0  0  0  0  0  0  0  0  0  0  0
    6.1432   45.9142   55.2441 H   0  0  0  0  0  0  0  0  0  0  0  0
    7.8732   47.6562   52.2994 H   0  0  0  0  0  0  0  0  0  0  0  0
    7.2777   43.2714   49.3493 H   0  0  0  0  0  0  0  0  0  0  0  0
    6.2994   41.2856   48.1980 H   0  0  0  0  0  0  0  0  0  0  0  0
    4.1734   40.2787   49.0315 H   0  0  0  0  0  0  0  0  0  0  0  0
    3.0216   41.2604   51.0192 H   0  0  0  0  0  0  0  0  0  0  0  0
    3.9909   43.2493   52.1688 H   0  0  0  0  0  0  0  0  0  0  0  0
    1.9320   46.0932   50.6920 H   0  0  0  0  0  0  0  0  0  0  0  0
    0.6826   44.0545   49.9887 H   0  0  0  0  0  0  0  0  0  0  0  0
    2.3443   44.4489   54.6848 H   0  0  0  0  0  0  0  0  0  0  0  0
  1  2  2  0
  2  3  1  0
  3  4  1  0
  4  5  1  0
  5  6  1  0
  6  7  2  0
  7  8  1  0
  8  9  1  0
  9 10  1  0
 10 11  2  0
 11 12  1  0
 12 13  2  0
 13 14  1  0
 14 15  2  0
  9 16  2  0
  2 17  1  0
 17 18  2  0
 18 19  1  0
 19 20  2  0
 20 21  1  0
 20 22  1  0
 22 23  1  0
 22 24  2  0
 16  6  1  0
 24 17  1  0
 15 10  1  0
  3 25  1  0
  4 26  1  0
  4 27  1  0
  5 28  1  0
  5 29  1  0
  7 30  1  0
 11 31  1  0
 12 32  1  0
 13 33  1  0
 14 34  1  0
 15 35  1  0
 18 36  1  0
 19 37  1  0
 24 38  1  0
M  END
>  <meeko>  (4) 
{"is_sidechain": [false], "free_energy": -8.271, "intermolecular_energy": -10.273, "internal_energy": -1.824}

$$$$
ligand_91_conformer_1_docked
     RDKit          3D

 38 40  0  0  0  0  0  0  0  0999 V2000
    2.8430   41.4920   50.1050 O   0  0  0  0  0  0  0  0  0  0  0  0
    3.2010   42.3950   50.9120 C   0  0  0  0  0  0  0  0  0  0  0  0
    2.3540   42.7160   52.0300 N   0  0  0  0  0  0  0  0  0  0  0  0
    0.9020   42.5440   51.9700 C   0  0  0  0  0  0  0  0  0  0  0  0
    0.2770   42.6620   53.3660 C   0  0  0  0  0  0  0  0  0  0  0  0
    0.9770   43.6950   54.1970 C   0  0  0  0  0  0  0  0  0  0  0  0
    0.3170   44.5070   55.1170 C   0  0  0  0  0  0  0  0  0  0  0  0
    1.4270   45.6300   55.6840 S   0  0  0  0  0  0  0  0  0  0  0  0
    2.6970   45.0440   54.7450 C   0  0  0  0  0  0  0  0  0  0  0  0
    4.0630   45.6110   54.6750 C   0  0  0  0  0  0  0  0  0  0  0  0
    5.1970   44.7820   54.7180 C   0  0  0  0  0  0  0  0  0  0  0  0
    6.4840   45.3320   54.6740 C   0  0  0  0  0  0  0  0  0  0  0  0
    6.6480   46.7150   54.5840 C   0  0  0  0  0  0  0  0  0  0  0  0
    5.5280   47.5510   54.5370 C   0  0  0  0  0  0  0  0  0  0  0  0
    4.2440   47.0010   54.5830 C   0  0  0  0  0  0  0  0  0  0  0  0
    2.2870   44.0000   53.9930 N   0  0  0  0  0  0  0  0  0  0  0  0
    4.4730   43.1220   50.6700 C   0  0  0  0  0  0  0  0  0  0  0  0
    5.5720   42.4900   50.0520 C   0  0  0  0  0  0  0  0  0  0  0  0
    6.7780   43.1750   49.8790 C   0  0  0  0  0  0  0  0  0  0  0  0
    6.9080   44.4920   50.3250 C   0  0  0  0  0  0  0  0  0  0  0  0
    8.0840   45.1450   50.1630 F   0  0  0  0  0  0  0  0  0  0  0  0
    5.8270   45.1290   50.9410 C   0  0  0  0  0  0  0  0  0  0  0  0
    5.9520   46.4070   51.3860 F   0  0  0  0  0  0  0  0  0  0  0  0
    4.6170   44.4500   51.1150 C   0  0  0  0  0  0  0  0  0  0  0  0
    2.7450   43.2360   52.8460 H   0  0  0  0  0  0  0  0  0  0  0  0
    0.4744   43.3196   51.3176 H   0  0  0  0  0  0  0  0  0  0  0  0
    0.6836   41.5423   51.5715 H   0  0  0  0  0  0  0  0  0  0  0  0
   -0.7808   42.9448   53.2611 H   0  0  0  0  0  0  0  0  0  0  0  0
    0.3747   41.6895   53.8707 H   0  0  0  0  0  0  0  0  0  0  0  0
   -0.7383   44.4265   55.4166 H   0  0  0  0  0  0  0  0  0  0  0  0
    5.0725   43.6912   54.7868 H   0  0  0  0  0  0  0  0  0  0  0  0
    7.3651   44.6745   54.7103 H   0  0  0  0  0  0  0  0  0  0  0  0
    7.6588   47.1477   54.5500 H   0  0  0  0  0  0  0  0  0  0  0  0
    5.6575   48.6409   54.4639 H   0  0  0  0  0  0  0  0  0  0  0  0
    3.3664   47.6632   54.5468 H   0  0  0  0  0  0  0  0  0  0  0  0
    5.4794   41.4507   49.7037 H   0  0  0  0  0  0  0  0  0  0  0  0
    7.6273   42.6753   49.3901 H   0  0  0  0  0  0  0  0  0  0  0  0
    3.7716   44.9571   51.6031 H   0  0  0  0  0  0  0  0  0  0  0  0
  1  2  2  0
  2  3  1  0
  3  4  1  0
  4  5  1  0
  5  6  1  0
  6  7  2  0
  7  8  1  0
  8  9  1  0
  9 10  1  0
 10 11  2  0
 11 12  1  0
 12 13  2  0
 13 14  1  0
 14 15  2  0
  9 16  2  0
  2 17  1  0
 17 18  2  0
 18 19  1  0
 19 20  2  0
 20 21  1  0
 20 22  1  0
 22 23  1  0
 22 24  2  0
 16  6  1  0
 24 17  1  0
 15 10  1  0
  3 25  1  0
  4 26  1  0
  4 27  1  0
  5 28  1  0
  5 29  1  0
  7 30  1  0
 11 31  1  0
 12 32  1  0
 13 33  1  0
 14 34  1  0
 15 35  1  0
 18 36  1  0
 19 37  1  0
 24 38  1  0
M  END
>  <meeko>  (5) 
{"is_sidechain": [false], "free_energy": -7.292, "intermolecular_energy": -9.885, "internal_energy": -0.947}

$$$$
