MODEL 1
REMARK VINA RESULT:    -8.649      0.000      0.000
REMARK INTER + INTRA:         -12.887
REMARK INTER:                 -11.936
REMARK INTRA:                  -0.951
REMARK UNBOUND:                -0.951
REMARK SMILES O=C(Nc1cccc(C(=O)Nc2ccc(Cl)cn2)c1)N[C@@H](CO)c1ccc(F)c(Cl)c1
REMARK SMILES IDX 1 1 2 2 3 3 20 4 4 7 5 8 19 9 6 10 8 11 7 12 9 13 10 14
REMARK SMILES IDX 11 15 12 17 13 18 18 19 14 20 17 21 15 22 16 23 21 24 22 25
REMARK SMILES IDX 23 26 24 28 25 29 31 30 26 31 29 32 27 33 30 34 28 35
REMARK H PARENT 3 5 20 6 11 16 23 27
ROOT
ATOM      1  O   UNL     1       3.218  46.702  54.020  1.00  0.00    -0.248 OA
ATOM      2  C   UNL     1       3.778  45.720  54.579  1.00  0.00     0.319 C 
ATOM      3  N   UNL     1       3.060  44.922  55.532  1.00  0.00    -0.308 N 
ATOM      4  N   UNL     1       5.149  45.417  54.291  1.00  0.00    -0.329 N 
ATOM      5  H   UNL     1       3.618  44.334  56.191  1.00  0.00     0.171 HD
ATOM      6  H   UNL     1       5.596  44.619  54.797  1.00  0.00     0.166 HD
ENDROOT
BRANCH   3   7
ATOM      7  C   UNL     1       1.631  44.953  55.694  1.00  0.00     0.043 A 
ATOM      8  C   UNL     1       1.087  45.467  56.879  1.00  0.00     0.026 A 
ATOM      9  C   UNL     1       0.770  44.423  54.716  1.00  0.00     0.040 A 
ATOM     10  C   UNL     1      -0.295  45.485  57.071  1.00  0.00     0.003 A 
ATOM     11  C   UNL     1      -0.626  44.446  54.896  1.00  0.00     0.042 A 
ATOM     12  C   UNL     1      -1.149  44.979  56.088  1.00  0.00     0.014 A 
BRANCH  11  13
ATOM     13  C   UNL     1      -1.520  43.883  53.855  1.00  0.00     0.256 C 
ATOM     14  O   UNL     1      -2.742  44.197  53.856  1.00  0.00    -0.269 OA
ATOM     15  N   UNL     1      -1.017  42.958  52.873  1.00  0.00    -0.307 N 
ATOM     16  H   UNL     1      -0.113  42.474  53.066  1.00  0.00     0.171 HD
BRANCH  15  17
ATOM     17  C   UNL     1      -1.716  42.620  51.662  1.00  0.00     0.132 A 
ATOM     18  C   UNL     1      -1.491  43.365  50.495  1.00  0.00     0.049 A 
ATOM     19  N   UNL     1      -2.615  41.596  51.638  1.00  0.00    -0.238 NA
ATOM     20  C   UNL     1      -2.183  43.040  49.327  1.00  0.00     0.026 A 
ATOM     21  C   UNL     1      -3.301  41.263  50.511  1.00  0.00     0.134 A 
ATOM     22  C   UNL     1      -3.095  41.982  49.331  1.00  0.00     0.059 A 
ATOM     23  Cl  UNL     1      -3.973  41.562  47.871  1.00  0.00    -0.083 Cl
ENDBRANCH  15  17
ENDBRANCH  11  13
ENDBRANCH   3   7
BRANCH   4  24
ATOM     24  C   UNL     1       5.918  46.164  53.289  1.00  0.00     0.139 C 
BRANCH  24  25
ATOM     25  C   UNL     1       7.260  46.639  53.871  1.00  0.00     0.185 C 
BRANCH  25  26
ATOM     26  O   UNL     1       7.049  47.463  54.986  1.00  0.00    -0.394 OA
ATOM     27  H   UNL     1       7.014  48.396  54.648  1.00  0.00     0.210 HD
ENDBRANCH  25  26
ENDBRANCH  24  25
BRANCH  24  28
ATOM     28  C   UNL     1       6.158  45.307  52.064  1.00  0.00    -0.022 A 
ATOM     29  C   UNL     1       7.164  45.651  51.146  1.00  0.00     0.009 A 
ATOM     30  C   UNL     1       5.400  44.141  51.844  1.00  0.00     0.029 A 
ATOM     31  C   UNL     1       7.396  44.856  50.020  1.00  0.00     0.041 A 
ATOM     32  C   UNL     1       5.633  43.347  50.715  1.00  0.00     0.077 A 
ATOM     33  C   UNL     1       6.632  43.706  49.802  1.00  0.00     0.141 A 
ATOM     34  Cl  UNL     1       4.670  41.903  50.454  1.00  0.00    -0.081 Cl
ATOM     35  F   UNL     1       6.865  42.943  48.705  1.00  0.00    -0.205 F 
ENDBRANCH  24  28
ENDBRANCH   4  24
TORSDOF 7
ENDMDL
MODEL 2
REMARK VINA RESULT:    -8.578      3.974      5.851
REMARK INTER + INTRA:         -12.789
REMARK INTER:                 -11.918
REMARK INTRA:                  -0.871
REMARK UNBOUND:                -0.951
REMARK SMILES O=C(Nc1cccc(C(=O)Nc2ccc(Cl)cn2)c1)N[C@@H](CO)c1ccc(F)c(Cl)c1
REMARK SMILES IDX 1 1 2 2 3 3 20 4 4 7 5 8 19 9 6 10 8 11 7 12 9 13 10 14
REMARK SMILES IDX 11 15 12 17 13 18 18 19 14 20 17 21 15 22 16 23 21 24 22 25
REMARK SMILES IDX 23 26 24 28 25 29 31 30 26 31 29 32 27 33 30 34 28 35
REMARK H PARENT 3 5 20 6 11 16 23 27
ROOT
ATOM      1  O   UNL     1       2.773  46.412  53.180  1.00  0.00    -0.248 OA
ATOM      2  C   UNL     1       3.483  45.523  53.725  1.00  0.00     0.319 C 
ATOM      3  N   UNL     1       2.901  44.602  54.660  1.00  0.00    -0.308 N 
ATOM      4  N   UNL     1       4.886  45.451  53.439  1.00  0.00    -0.329 N 
ATOM      5  H   UNL     1       3.546  44.100  55.312  1.00  0.00     0.171 HD
ATOM      6  H   UNL     1       5.455  44.726  53.933  1.00  0.00     0.166 HD
ENDROOT
BRANCH   3   7
ATOM      7  C   UNL     1       1.486  44.398  54.815  1.00  0.00     0.043 A 
ATOM      8  C   UNL     1       0.835  43.464  53.998  1.00  0.00     0.026 A 
ATOM      9  C   UNL     1       0.731  45.158  55.727  1.00  0.00     0.040 A 
ATOM     10  C   UNL     1      -0.542  43.266  54.113  1.00  0.00     0.003 A 
ATOM     11  C   UNL     1      -0.656  44.958  55.857  1.00  0.00     0.042 A 
ATOM     12  C   UNL     1      -1.285  44.005  55.035  1.00  0.00     0.014 A 
BRANCH  11  13
ATOM     13  C   UNL     1      -1.438  45.768  56.822  1.00  0.00     0.256 C 
ATOM     14  O   UNL     1      -2.009  45.193  57.790  1.00  0.00    -0.269 OA
ATOM     15  N   UNL     1      -1.582  47.190  56.646  1.00  0.00    -0.307 N 
ATOM     16  H   UNL     1      -1.383  47.594  55.704  1.00  0.00     0.171 HD
BRANCH  15  17
ATOM     17  C   UNL     1      -2.038  48.081  57.678  1.00  0.00     0.132 A 
ATOM     18  C   UNL     1      -1.190  48.400  58.750  1.00  0.00     0.049 A 
ATOM     19  N   UNL     1      -3.295  48.606  57.643  1.00  0.00    -0.238 NA
ATOM     20  C   UNL     1      -1.643  49.254  59.756  1.00  0.00     0.026 A 
ATOM     21  C   UNL     1      -3.757  49.439  58.613  1.00  0.00     0.134 A 
ATOM     22  C   UNL     1      -2.935  49.781  59.690  1.00  0.00     0.059 A 
ATOM     23  Cl  UNL     1      -3.520  50.856  60.947  1.00  0.00    -0.083 Cl
ENDBRANCH  15  17
ENDBRANCH  11  13
ENDBRANCH   3   7
BRANCH   4  24
ATOM     24  C   UNL     1       5.527  46.331  52.455  1.00  0.00     0.139 C 
BRANCH  24  25
ATOM     25  C   UNL     1       6.495  47.309  53.142  1.00  0.00     0.185 C 
BRANCH  25  26
ATOM     26  O   UNL     1       6.331  47.267  54.534  1.00  0.00    -0.394 OA
ATOM     27  H   UNL     1       6.938  46.557  54.871  1.00  0.00     0.210 HD
ENDBRANCH  25  26
ENDBRANCH  24  25
BRANCH  24  28
ATOM     28  C   UNL     1       6.266  45.510  51.419  1.00  0.00    -0.022 A 
ATOM     29  C   UNL     1       7.510  45.945  50.929  1.00  0.00     0.009 A 
ATOM     30  C   UNL     1       5.736  44.291  50.956  1.00  0.00     0.029 A 
ATOM     31  C   UNL     1       8.200  45.184  49.982  1.00  0.00     0.041 A 
ATOM     32  C   UNL     1       6.429  43.533  50.006  1.00  0.00     0.077 A 
ATOM     33  C   UNL     1       7.662  43.981  49.518  1.00  0.00     0.141 A 
ATOM     34  Cl  UNL     1       5.745  42.021  49.434  1.00  0.00    -0.081 Cl
ATOM     35  F   UNL     1       8.341  43.252  48.597  1.00  0.00    -0.205 F 
ENDBRANCH  24  28
ENDBRANCH   4  24
TORSDOF 7
ENDMDL
MODEL 3
REMARK VINA RESULT:    -7.945      4.564      7.729
REMARK INTER + INTRA:         -11.915
REMARK INTER:                 -11.562
REMARK INTRA:                  -0.352
REMARK UNBOUND:                -0.951
REMARK SMILES O=C(Nc1cccc(C(=O)Nc2ccc(Cl)cn2)c1)N[C@@H](CO)c1ccc(F)c(Cl)c1
REMARK SMILES IDX 1 1 2 2 3 3 20 4 4 7 5 8 19 9 6 10 8 11 7 12 9 13 10 14
REMARK SMILES IDX 11 15 12 17 13 18 18 19 14 20 17 21 15 22 16 23 21 24 22 25
REMARK SMILES IDX 23 26 24 28 25 29 31 30 26 31 29 32 27 33 30 34 28 35
REMARK H PARENT 3 5 20 6 11 16 23 27
ROOT
ATOM      1  O   UNL     1       4.598  43.475  53.028  1.00  0.00    -0.248 OA
ATOM      2  C   UNL     1       4.431  44.712  52.847  1.00  0.00     0.319 C 
ATOM      3  N   UNL     1       5.280  45.433  51.942  1.00  0.00    -0.308 N 
ATOM      4  N   UNL     1       3.411  45.412  53.573  1.00  0.00    -0.329 N 
ATOM      5  H   UNL     1       5.327  46.473  52.045  1.00  0.00     0.171 HD
ATOM      6  H   UNL     1       3.320  46.443  53.427  1.00  0.00     0.166 HD
ENDROOT
BRANCH   3   7
ATOM      7  C   UNL     1       6.136  44.809  50.970  1.00  0.00     0.043 A 
ATOM      8  C   UNL     1       7.426  45.318  50.765  1.00  0.00     0.026 A 
ATOM      9  C   UNL     1       5.687  43.737  50.178  1.00  0.00     0.040 A 
ATOM     10  C   UNL     1       8.267  44.745  49.810  1.00  0.00     0.003 A 
ATOM     11  C   UNL     1       6.532  43.145  49.219  1.00  0.00     0.042 A 
ATOM     12  C   UNL     1       7.826  43.665  49.041  1.00  0.00     0.014 A 
BRANCH  11  13
ATOM     13  C   UNL     1       6.042  42.016  48.392  1.00  0.00     0.256 C 
ATOM     14  O   UNL     1       5.824  40.900  48.939  1.00  0.00    -0.269 OA
ATOM     15  N   UNL     1       5.850  42.170  46.973  1.00  0.00    -0.307 N 
ATOM     16  H   UNL     1       6.319  42.970  46.494  1.00  0.00     0.171 HD
BRANCH  15  17
ATOM     17  C   UNL     1       5.092  41.253  46.165  1.00  0.00     0.132 A 
ATOM     18  C   UNL     1       5.479  41.006  44.839  1.00  0.00     0.049 A 
ATOM     19  N   UNL     1       3.984  40.635  46.663  1.00  0.00    -0.238 NA
ATOM     20  C   UNL     1       4.730  40.126  44.056  1.00  0.00     0.026 A 
ATOM     21  C   UNL     1       3.240  39.775  45.917  1.00  0.00     0.134 A 
ATOM     22  C   UNL     1       3.602  39.504  44.596  1.00  0.00     0.059 A 
ATOM     23  Cl  UNL     1       2.650  38.396  43.624  1.00  0.00    -0.083 Cl
ENDBRANCH  15  17
ENDBRANCH  11  13
ENDBRANCH   3   7
BRANCH   4  24
ATOM     24  C   UNL     1       2.480  44.720  54.470  1.00  0.00     0.139 C 
BRANCH  24  25
ATOM     25  C   UNL     1       1.970  45.669  55.568  1.00  0.00     0.185 C 
BRANCH  25  26
ATOM     26  O   UNL     1       3.024  46.071  56.400  1.00  0.00    -0.394 OA
ATOM     27  H   UNL     1       2.613  46.393  57.245  1.00  0.00     0.210 HD
ENDBRANCH  25  26
ENDBRANCH  24  25
BRANCH  24  28
ATOM     28  C   UNL     1       1.313  44.159  53.686  1.00  0.00    -0.022 A 
ATOM     29  C   UNL     1       1.189  42.771  53.498  1.00  0.00     0.009 A 
ATOM     30  C   UNL     1       0.322  45.011  53.162  1.00  0.00     0.029 A 
ATOM     31  C   UNL     1       0.107  42.249  52.784  1.00  0.00     0.041 A 
ATOM     32  C   UNL     1      -0.759  44.485  52.446  1.00  0.00     0.077 A 
ATOM     33  C   UNL     1      -0.866  43.102  52.256  1.00  0.00     0.141 A 
ATOM     34  Cl  UNL     1      -1.976  45.567  51.792  1.00  0.00    -0.081 Cl
ATOM     35  F   UNL     1      -1.911  42.584  51.564  1.00  0.00    -0.205 F 
ENDBRANCH  24  28
ENDBRANCH   4  24
TORSDOF 7
ENDMDL
MODEL 4
REMARK VINA RESULT:    -7.907      5.865      9.192
REMARK INTER + INTRA:         -11.863
REMARK INTER:                 -10.971
REMARK INTRA:                  -0.892
REMARK UNBOUND:                -0.951
REMARK SMILES O=C(Nc1cccc(C(=O)Nc2ccc(Cl)cn2)c1)N[C@@H](CO)c1ccc(F)c(Cl)c1
REMARK SMILES IDX 1 1 2 2 3 3 20 4 4 7 5 8 19 9 6 10 8 11 7 12 9 13 10 14
REMARK SMILES IDX 11 15 12 17 13 18 18 19 14 20 17 21 15 22 16 23 21 24 22 25
REMARK SMILES IDX 23 26 24 28 25 29 31 30 26 31 29 32 27 33 30 34 28 35
REMARK H PARENT 3 5 20 6 11 16 23 27
ROOT
ATOM      1  O   UNL     1       5.502  42.615  46.095  1.00  0.00    -0.248 OA
ATOM      2  C   UNL     1       5.361  41.574  46.792  1.00  0.00     0.319 C 
ATOM      3  N   UNL     1       5.917  41.504  48.113  1.00  0.00    -0.308 N 
ATOM      4  N   UNL     1       4.672  40.437  46.252  1.00  0.00    -0.329 N 
ATOM      5  H   UNL     1       6.056  40.556  48.532  1.00  0.00     0.171 HD
ATOM      6  H   UNL     1       4.602  39.576  46.840  1.00  0.00     0.166 HD
ENDROOT
BRANCH   3   7
ATOM      7  C   UNL     1       6.376  42.647  48.855  1.00  0.00     0.043 A 
ATOM      8  C   UNL     1       7.660  43.153  48.609  1.00  0.00     0.026 A 
ATOM      9  C   UNL     1       5.589  43.231  49.864  1.00  0.00     0.040 A 
ATOM     10  C   UNL     1       8.138  44.247  49.333  1.00  0.00     0.003 A 
ATOM     11  C   UNL     1       6.058  44.341  50.592  1.00  0.00     0.042 A 
ATOM     12  C   UNL     1       7.344  44.839  50.318  1.00  0.00     0.014 A 
BRANCH  11  13
ATOM     13  C   UNL     1       5.216  44.945  51.654  1.00  0.00     0.256 C 
ATOM     14  O   UNL     1       4.885  46.159  51.562  1.00  0.00    -0.269 OA
ATOM     15  N   UNL     1       4.808  44.174  52.799  1.00  0.00    -0.307 N 
ATOM     16  H   UNL     1       5.331  43.298  53.019  1.00  0.00     0.171 HD
BRANCH  15  17
ATOM     17  C   UNL     1       3.752  44.568  53.692  1.00  0.00     0.132 A 
ATOM     18  C   UNL     1       4.048  45.342  54.825  1.00  0.00     0.049 A 
ATOM     19  N   UNL     1       2.465  44.179  53.467  1.00  0.00    -0.238 NA
ATOM     20  C   UNL     1       3.020  45.709  55.695  1.00  0.00     0.026 A 
ATOM     21  C   UNL     1       1.449  44.525  54.303  1.00  0.00     0.134 A 
ATOM     22  C   UNL     1       1.710  45.300  55.435  1.00  0.00     0.059 A 
ATOM     23  Cl  UNL     1       0.408  45.753  56.520  1.00  0.00    -0.083 Cl
ENDBRANCH  15  17
ENDBRANCH  11  13
ENDBRANCH   3   7
BRANCH   4  24
ATOM     24  C   UNL     1       4.039  40.467  44.928  1.00  0.00     0.139 C 
BRANCH  24  25
ATOM     25  C   UNL     1       5.038  40.058  43.833  1.00  0.00     0.185 C 
BRANCH  25  26
ATOM     26  O   UNL     1       5.626  41.192  43.255  1.00  0.00    -0.394 OA
ATOM     27  H   UNL     1       5.267  41.980  43.742  1.00  0.00     0.210 HD
ENDBRANCH  25  26
ENDBRANCH  24  25
BRANCH  24  28
ATOM     28  C   UNL     1       2.835  39.550  44.902  1.00  0.00    -0.022 A 
ATOM     29  C   UNL     1       1.880  39.667  43.877  1.00  0.00     0.009 A 
ATOM     30  C   UNL     1       2.670  38.551  45.879  1.00  0.00     0.029 A 
ATOM     31  C   UNL     1       0.773  38.814  43.842  1.00  0.00     0.041 A 
ATOM     32  C   UNL     1       1.561  37.699  45.843  1.00  0.00     0.077 A 
ATOM     33  C   UNL     1       0.610  37.833  44.823  1.00  0.00     0.141 A 
ATOM     34  Cl  UNL     1       1.370  36.467  47.078  1.00  0.00    -0.081 Cl
ATOM     35  F   UNL     1      -0.469  37.012  44.780  1.00  0.00    -0.205 F 
ENDBRANCH  24  28
ENDBRANCH   4  24
TORSDOF 7
ENDMDL
MODEL 5
REMARK VINA RESULT:    -7.886      5.125      6.904
REMARK INTER + INTRA:         -11.834
REMARK INTER:                 -11.584
REMARK INTRA:                  -0.250
REMARK UNBOUND:                -0.951
REMARK SMILES O=C(Nc1cccc(C(=O)Nc2ccc(Cl)cn2)c1)N[C@@H](CO)c1ccc(F)c(Cl)c1
REMARK SMILES IDX 1 1 2 2 3 3 20 4 4 7 5 8 19 9 6 10 8 11 7 12 9 13 10 14
REMARK SMILES IDX 11 15 12 17 13 18 18 19 14 20 17 21 15 22 16 23 21 24 22 25
REMARK SMILES IDX 23 26 24 28 25 29 31 30 26 31 29 32 27 33 30 34 28 35
REMARK H PARENT 3 5 20 6 11 16 23 27
ROOT
ATOM      1  O   UNL     1       5.341  45.449  50.516  1.00  0.00    -0.248 OA
ATOM      2  C   UNL     1       5.146  44.741  51.541  1.00  0.00     0.319 C 
ATOM      3  N   UNL     1       4.865  43.339  51.411  1.00  0.00    -0.308 N 
ATOM      4  N   UNL     1       5.170  45.341  52.843  1.00  0.00    -0.329 N 
ATOM      5  H   UNL     1       4.412  42.858  52.220  1.00  0.00     0.171 HD
ATOM      6  H   UNL     1       4.970  44.735  53.671  1.00  0.00     0.166 HD
ENDROOT
BRANCH   3   7
ATOM      7  C   UNL     1       5.084  42.582  50.208  1.00  0.00     0.043 A 
ATOM      8  C   UNL     1       6.145  42.932  49.361  1.00  0.00     0.026 A 
ATOM      9  C   UNL     1       4.221  41.537  49.831  1.00  0.00     0.040 A 
ATOM     10  C   UNL     1       6.363  42.229  48.176  1.00  0.00     0.003 A 
ATOM     11  C   UNL     1       4.440  40.814  48.643  1.00  0.00     0.042 A 
ATOM     12  C   UNL     1       5.518  41.176  47.817  1.00  0.00     0.014 A 
BRANCH  11  13
ATOM     13  C   UNL     1       3.520  39.715  48.260  1.00  0.00     0.256 C 
ATOM     14  O   UNL     1       2.836  39.145  49.154  1.00  0.00    -0.269 OA
ATOM     15  N   UNL     1       3.430  39.272  46.893  1.00  0.00    -0.307 N 
ATOM     16  H   UNL     1       4.203  39.522  46.239  1.00  0.00     0.171 HD
BRANCH  15  17
ATOM     17  C   UNL     1       2.359  38.455  46.387  1.00  0.00     0.132 A 
ATOM     18  C   UNL     1       2.517  37.063  46.315  1.00  0.00     0.049 A 
ATOM     19  N   UNL     1       1.196  39.019  45.953  1.00  0.00    -0.238 NA
ATOM     20  C   UNL     1       1.479  36.278  45.809  1.00  0.00     0.026 A 
ATOM     21  C   UNL     1       0.174  38.273  45.457  1.00  0.00     0.134 A 
ATOM     22  C   UNL     1       0.297  36.884  45.377  1.00  0.00     0.059 A 
ATOM     23  Cl  UNL     1      -1.016  35.910  44.739  1.00  0.00    -0.083 Cl
ENDBRANCH  15  17
ENDBRANCH  11  13
ENDBRANCH   3   7
BRANCH   4  24
ATOM     24  C   UNL     1       5.503  46.756  53.043  1.00  0.00     0.139 C 
BRANCH  24  25
ATOM     25  C   UNL     1       4.658  47.363  54.176  1.00  0.00     0.185 C 
BRANCH  25  26
ATOM     26  O   UNL     1       4.269  48.671  53.853  1.00  0.00    -0.394 OA
ATOM     27  H   UNL     1       5.077  49.132  53.507  1.00  0.00     0.210 HD
ENDBRANCH  25  26
ENDBRANCH  24  25
BRANCH  24  28
ATOM     28  C   UNL     1       6.976  46.911  53.354  1.00  0.00    -0.022 A 
ATOM     29  C   UNL     1       7.386  47.466  54.578  1.00  0.00     0.009 A 
ATOM     30  C   UNL     1       7.954  46.474  52.439  1.00  0.00     0.029 A 
ATOM     31  C   UNL     1       8.745  47.600  54.874  1.00  0.00     0.041 A 
ATOM     32  C   UNL     1       9.314  46.610  52.737  1.00  0.00     0.077 A 
ATOM     33  C   UNL     1       9.710  47.176  53.956  1.00  0.00     0.141 A 
ATOM     34  Cl  UNL     1      10.516  46.069  51.578  1.00  0.00    -0.081 Cl
ATOM     35  F   UNL     1      11.026  47.311  54.253  1.00  0.00    -0.205 F 
ENDBRANCH  24  28
ENDBRANCH   4  24
TORSDOF 7
ENDMDL
