ligand_3_conformer_5_docked
     RDKit          3D

 47 50  0  0  0  0  0  0  0  0999 V2000
    7.7000   44.5520   49.2680 O   0  0  0  0  0  0  0  0  0  0  0  0
    7.2850   44.9950   50.3740 C   0  0  0  0  0  0  0  0  0  0  0  0
    5.8830   44.7350   50.7720 C   0  0  0  0  0  0  0  0  0  0  0  0
    5.4810   43.4400   51.1380 C   0  0  0  0  0  0  0  0  0  0  0  0
    4.1560   43.1850   51.5010 C   0  0  0  0  0  0  0  0  0  0  0  0
    3.2090   44.2200   51.5040 C   0  0  0  0  0  0  0  0  0  0  0  0
    1.8430   43.9480   51.8660 N   0  0  0  0  0  0  0  0  0  0  0  0
    0.8950   43.3830   51.0760 C   0  0  0  0  0  0  0  0  0  0  0  0
   -0.3120   43.2630   51.6880 N   0  0  0  0  0  0  0  0  0  0  0  0
   -0.0850   43.7760   52.9110 C   0  0  0  0  0  0  0  0  0  0  0  0
   -0.9880   43.8730   53.9680 C   0  0  0  0  0  0  0  0  0  0  0  0
   -0.5200   44.4060   55.1830 C   0  0  0  0  0  0  0  0  0  0  0  0
    0.8280   44.8130   55.3130 C   0  0  0  0  0  0  0  0  0  0  0  0
    1.7160   44.6980   54.2280 C   0  0  0  0  0  0  0  0  0  0  0  0
    1.2110   44.1880   53.0280 C   0  0  0  0  0  0  0  0  0  0  0  0
    3.6000   45.5070   51.1050 C   0  0  0  0  0  0  0  0  0  0  0  0
    4.9260   45.7630   50.7420 C   0  0  0  0  0  0  0  0  0  0  0  0
    8.1820   45.7370   51.2210 N   0  0  0  0  0  0  0  0  0  0  0  0
    9.6240   45.4390   51.1640 C   0  0  0  0  0  0  0  0  0  0  0  0
   10.4420   46.4300   51.9980 C   0  0  0  0  0  0  0  0  0  0  0  0
    9.7780   46.6270   53.3620 C   0  0  0  0  0  0  0  0  0  0  0  0
    8.3380   47.2220   53.2370 C   0  0  2  0  0  0  0  0  0  0  0  0
    8.3850   48.6080   53.4920 O   0  0  0  0  0  0  0  0  0  0  0  0
    7.4220   46.6020   54.3170 C   0  0  0  0  0  0  0  0  0  0  0  0
    6.3170   47.4270   54.5870 O   0  0  0  0  0  0  0  0  0  0  0  0
    7.7200   46.9970   51.8220 C   0  0  0  0  0  0  0  0  0  0  0  0
    6.2147   42.6204   51.1389 H   0  0  0  0  0  0  0  0  0  0  0  0
    3.8536   42.1665   51.7861 H   0  0  0  0  0  0  0  0  0  0  0  0
    1.0849   43.0550   50.0434 H   0  0  0  0  0  0  0  0  0  0  0  0
   -2.0316   43.5439   53.8561 H   0  0  0  0  0  0  0  0  0  0  0  0
   -1.2065   44.5067   56.0366 H   0  0  0  0  0  0  0  0  0  0  0  0
    1.1848   45.2225   56.2695 H   0  0  0  0  0  0  0  0  0  0  0  0
    2.7701   44.9986   54.3203 H   0  0  0  0  0  0  0  0  0  0  0  0
    2.8591   46.3196   51.0775 H   0  0  0  0  0  0  0  0  0  0  0  0
    5.2216   46.7759   50.4310 H   0  0  0  0  0  0  0  0  0  0  0  0
    9.7934   44.4232   51.5505 H   0  0  0  0  0  0  0  0  0  0  0  0
    9.9497   45.5223   50.1166 H   0  0  0  0  0  0  0  0  0  0  0  0
   11.4592   46.0362   52.1400 H   0  0  0  0  0  0  0  0  0  0  0  0
   10.4897   47.3955   51.4732 H   0  0  0  0  0  0  0  0  0  0  0  0
    9.7161   45.6532   53.8699 H   0  0  0  0  0  0  0  0  0  0  0  0
   10.3892   47.3394   53.9355 H   0  0  0  0  0  0  0  0  0  0  0  0
    8.5850   48.7370   54.4560 H   0  0  0  0  0  0  0  0  0  0  0  0
    7.0612   45.6251   53.9626 H   0  0  0  0  0  0  0  0  0  0  0  0
    8.0051   46.4901   55.2430 H   0  0  0  0  0  0  0  0  0  0  0  0
    5.5000   46.9020   54.3870 H   0  0  0  0  0  0  0  0  0  0  0  0
    6.6241   46.9683   51.9121 H   0  0  0  0  0  0  0  0  0  0  0  0
    8.0405   47.8247   51.1722 H   0  0  0  0  0  0  0  0  0  0  0  0
  1  2  2  0
  2  3  1  0
  3  4  2  0
  4  5  1  0
  5  6  2  0
  6  7  1  0
  7  8  1  0
  8  9  2  0
  9 10  1  0
 10 11  2  0
 11 12  1  0
 12 13  2  0
 13 14  1  0
 14 15  2  0
  6 16  1  0
 16 17  2  0
  2 18  1  0
 18 19  1  0
 19 20  1  0
 20 21  1  0
 21 22  1  0
 22 23  1  1
 22 24  1  0
 24 25  1  0
 22 26  1  0
 17  3  1  0
 26 18  1  0
 15  7  1  0
 15 10  1  0
  4 27  1  0
  5 28  1  0
  8 29  1  0
 11 30  1  0
 12 31  1  0
 13 32  1  0
 14 33  1  0
 16 34  1  0
 17 35  1  0
 19 36  1  0
 19 37  1  0
 20 38  1  0
 20 39  1  0
 21 40  1  0
 21 41  1  0
 23 42  1  0
 24 43  1  0
 24 44  1  0
 25 45  1  0
 26 46  1  0
 26 47  1  0
M  END
>  <meeko>  (1) 
{"is_sidechain": [false], "free_energy": -9.033, "intermolecular_energy": -11.673, "internal_energy": -0.51}

$$$$
ligand_3_conformer_5_docked
     RDKit          3D

 47 50  0  0  0  0  0  0  0  0999 V2000
    0.9150   43.1450   50.4670 O   0  0  0  0  0  0  0  0  0  0  0  0
    1.3830   43.8420   51.4080 C   0  0  0  0  0  0  0  0  0  0  0  0
    2.8020   44.2620   51.3570 C   0  0  0  0  0  0  0  0  0  0  0  0
    3.8230   43.3240   51.5820 C   0  0  0  0  0  0  0  0  0  0  0  0
    5.1640   43.7170   51.5510 C   0  0  0  0  0  0  0  0  0  0  0  0
    5.5080   45.0530   51.2940 C   0  0  0  0  0  0  0  0  0  0  0  0
    6.8890   45.4530   51.2760 N   0  0  0  0  0  0  0  0  0  0  0  0
    7.7800   45.2390   50.2750 C   0  0  0  0  0  0  0  0  0  0  0  0
    9.0210   45.7200   50.5480 N   0  0  0  0  0  0  0  0  0  0  0  0
    8.8760   46.2580   51.7730 C   0  0  0  0  0  0  0  0  0  0  0  0
    9.8430   46.9220   52.5250 C   0  0  0  0  0  0  0  0  0  0  0  0
    9.4570   47.4490   53.7710 C   0  0  0  0  0  0  0  0  0  0  0  0
    8.1240   47.3100   54.2240 C   0  0  0  0  0  0  0  0  0  0  0  0
    7.1710   46.6380   53.4390 C   0  0  0  0  0  0  0  0  0  0  0  0
    7.5940   46.1050   52.2170 C   0  0  0  0  0  0  0  0  0  0  0  0
    4.4870   45.9970   51.1040 C   0  0  0  0  0  0  0  0  0  0  0  0
    3.1460   45.6050   51.1350 C   0  0  0  0  0  0  0  0  0  0  0  0
    0.5280   44.2150   52.5050 N   0  0  0  0  0  0  0  0  0  0  0  0
    0.9840   43.9530   53.8820 C   0  0  0  0  0  0  0  0  0  0  0  0
    0.0350   44.5610   54.9200 C   0  0  0  0  0  0  0  0  0  0  0  0
   -1.4130   44.2420   54.5430 C   0  0  0  0  0  0  0  0  0  0  0  0
   -1.8110   44.8480   53.1580 C   0  0  2  0  0  0  0  0  0  0  0  0
   -2.5330   46.0400   53.3630 O   0  0  0  0  0  0  0  0  0  0  0  0
   -2.7560   43.8750   52.4160 C   0  0  0  0  0  0  0  0  0  0  0  0
   -2.4150   42.5360   52.6690 O   0  0  0  0  0  0  0  0  0  0  0  0
   -0.5690   45.1640   52.2680 C   0  0  0  0  0  0  0  0  0  0  0  0
    3.5657   42.2737   51.7838 H   0  0  0  0  0  0  0  0  0  0  0  0
    5.9552   42.9739   51.7293 H   0  0  0  0  0  0  0  0  0  0  0  0
    7.5230   44.7270   49.3359 H   0  0  0  0  0  0  0  0  0  0  0  0
   10.8738   47.0305   52.1567 H   0  0  0  0  0  0  0  0  0  0  0  0
   10.1956   47.9719   54.3963 H   0  0  0  0  0  0  0  0  0  0  0  0
    7.8312   47.7307   55.1973 H   0  0  0  0  0  0  0  0  0  0  0  0
    6.1284   46.5349   53.7742 H   0  0  0  0  0  0  0  0  0  0  0  0
    4.7440   47.0522   50.9296 H   0  0  0  0  0  0  0  0  0  0  0  0
    2.3544   46.3538   50.9844 H   0  0  0  0  0  0  0  0  0  0  0  0
    1.0348   42.8655   54.0396 H   0  0  0  0  0  0  0  0  0  0  0  0
    1.9732   44.4171   54.0092 H   0  0  0  0  0  0  0  0  0  0  0  0
    0.2568   44.1376   55.9107 H   0  0  0  0  0  0  0  0  0  0  0  0
    0.1732   45.6520   54.9456 H   0  0  0  0  0  0  0  0  0  0  0  0
   -1.5352   43.1497   54.4998 H   0  0  0  0  0  0  0  0  0  0  0  0
   -2.0665   44.6886   55.3068 H   0  0  0  0  0  0  0  0  0  0  0  0
   -3.2520   45.8550   54.0230 H   0  0  0  0  0  0  0  0  0  0  0  0
   -3.7880   44.0513   52.7535 H   0  0  0  0  0  0  0  0  0  0  0  0
   -2.6619   44.0578   51.3354 H   0  0  0  0  0  0  0  0  0  0  0  0
   -1.5190   42.5350   53.0960 H   0  0  0  0  0  0  0  0  0  0  0  0
   -0.8656   45.1084   51.2102 H   0  0  0  0  0  0  0  0  0  0  0  0
   -0.2111   46.1717   52.5259 H   0  0  0  0  0  0  0  0  0  0  0  0
  1  2  2  0
  2  3  1  0
  3  4  2  0
  4  5  1  0
  5  6  2  0
  6  7  1  0
  7  8  1  0
  8  9  2  0
  9 10  1  0
 10 11  2  0
 11 12  1  0
 12 13  2  0
 13 14  1  0
 14 15  2  0
  6 16  1  0
 16 17  2  0
  2 18  1  0
 18 19  1  0
 19 20  1  0
 20 21  1  0
 21 22  1  0
 22 23  1  1
 22 24  1  0
 24 25  1  0
 22 26  1  0
 17  3  1  0
 26 18  1  0
 15  7  1  0
 15 10  1  0
  4 27  1  0
  5 28  1  0
  8 29  1  0
 11 30  1  0
 12 31  1  0
 13 32  1  0
 14 33  1  0
 16 34  1  0
 17 35  1  0
 19 36  1  0
 19 37  1  0
 20 38  1  0
 20 39  1  0
 21 40  1  0
 21 41  1  0
 23 42  1  0
 24 43  1  0
 24 44  1  0
 25 45  1  0
 26 46  1  0
 26 47  1  0
M  END
>  <meeko>  (2) 
{"is_sidechain": [false], "free_energy": -8.832, "intermolecular_energy": -11.099, "internal_energy": -0.824}

$$$$
ligand_3_conformer_5_docked
     RDKit          3D

 47 50  0  0  0  0  0  0  0  0999 V2000
    1.3630   43.0490   50.2530 O   0  0  0  0  0  0  0  0  0  0  0  0
    1.3110   43.7320   51.3110 C   0  0  0  0  0  0  0  0  0  0  0  0
    2.5490   44.3640   51.8230 C   0  0  0  0  0  0  0  0  0  0  0  0
    3.4510   43.6190   52.6010 C   0  0  0  0  0  0  0  0  0  0  0  0
    4.6140   44.2130   53.0990 C   0  0  0  0  0  0  0  0  0  0  0  0
    4.8950   45.5610   52.8300 C   0  0  0  0  0  0  0  0  0  0  0  0
    6.0860   46.1690   53.3580 N   0  0  0  0  0  0  0  0  0  0  0  0
    6.2280   46.7450   54.5790 C   0  0  0  0  0  0  0  0  0  0  0  0
    7.4710   47.2500   54.7950 N   0  0  0  0  0  0  0  0  0  0  0  0
    8.1190   46.9610   53.6510 C   0  0  0  0  0  0  0  0  0  0  0  0
    9.4510   47.2310   53.3430 C   0  0  0  0  0  0  0  0  0  0  0  0
    9.9360   46.7950   52.0960 C   0  0  0  0  0  0  0  0  0  0  0  0
    9.0890   46.0990   51.2030 C   0  0  0  0  0  0  0  0  0  0  0  0
    7.7500   45.8390   51.5460 C   0  0  0  0  0  0  0  0  0  0  0  0
    7.2940   46.3080   52.7820 C   0  0  0  0  0  0  0  0  0  0  0  0
    3.9770   46.3150   52.0840 C   0  0  0  0  0  0  0  0  0  0  0  0
    2.8140   45.7220   51.5840 C   0  0  0  0  0  0  0  0  0  0  0  0
    0.0530   43.8850   51.9940 N   0  0  0  0  0  0  0  0  0  0  0  0
   -1.0920   44.4490   51.2570 C   0  0  0  0  0  0  0  0  0  0  0  0
   -2.3840   44.3830   52.0780 C   0  0  0  0  0  0  0  0  0  0  0  0
   -2.1130   44.8580   53.5060 C   0  0  0  0  0  0  0  0  0  0  0  0
   -1.0650   43.9590   54.2390 C   0  0  2  0  0  0  0  0  0  0  0  0
   -1.7400   43.0520   55.0820 O   0  0  0  0  0  0  0  0  0  0  0  0
   -0.1730   44.8340   55.1500 C   0  0  0  0  0  0  0  0  0  0  0  0
    0.6590   45.6760   54.3940 O   0  0  0  0  0  0  0  0  0  0  0  0
   -0.1770   43.1480   53.2450 C   0  0  0  0  0  0  0  0  0  0  0  0
    3.2406   42.5617   52.8195 H   0  0  0  0  0  0  0  0  0  0  0  0
    5.3137   43.6197   53.7059 H   0  0  0  0  0  0  0  0  0  0  0  0
    5.4170   46.7978   55.3203 H   0  0  0  0  0  0  0  0  0  0  0  0
   10.1011   47.7666   54.0504 H   0  0  0  0  0  0  0  0  0  0  0  0
   10.9800   46.9968   51.8144 H   0  0  0  0  0  0  0  0  0  0  0  0
    9.4801   45.7584   50.2329 H   0  0  0  0  0  0  0  0  0  0  0  0
    7.0850   45.2863   50.8661 H   0  0  0  0  0  0  0  0  0  0  0  0
    4.1736   47.3800   51.8912 H   0  0  0  0  0  0  0  0  0  0  0  0
    2.1019   46.3231   50.9996 H   0  0  0  0  0  0  0  0  0  0  0  0
   -0.8770   45.5003   51.0150 H   0  0  0  0  0  0  0  0  0  0  0  0
   -1.2367   43.8550   50.3425 H   0  0  0  0  0  0  0  0  0  0  0  0
   -3.1442   45.0298   51.6157 H   0  0  0  0  0  0  0  0  0  0  0  0
   -2.7470   43.3449   52.1025 H   0  0  0  0  0  0  0  0  0  0  0  0
   -1.7315   45.8891   53.4699 H   0  0  0  0  0  0  0  0  0  0  0  0
   -3.0580   44.7999   54.0660 H   0  0  0  0  0  0  0  0  0  0  0  0
   -1.6610   43.3820   56.0150 H   0  0  0  0  0  0  0  0  0  0  0  0
   -0.8160   45.4509   55.7950 H   0  0  0  0  0  0  0  0  0  0  0  0
    0.4625   44.1700   55.7543 H   0  0  0  0  0  0  0  0  0  0  0  0
    0.1920   45.8640   53.5390 H   0  0  0  0  0  0  0  0  0  0  0  0
    0.7932   42.9420   53.7206 H   0  0  0  0  0  0  0  0  0  0  0  0
   -0.7030   42.2135   53.0001 H   0  0  0  0  0  0  0  0  0  0  0  0
  1  2  2  0
  2  3  1  0
  3  4  2  0
  4  5  1  0
  5  6  2  0
  6  7  1  0
  7  8  1  0
  8  9  2  0
  9 10  1  0
 10 11  2  0
 11 12  1  0
 12 13  2  0
 13 14  1  0
 14 15  2  0
  6 16  1  0
 16 17  2  0
  2 18  1  0
 18 19  1  0
 19 20  1  0
 20 21  1  0
 21 22  1  0
 22 23  1  1
 22 24  1  0
 24 25  1  0
 22 26  1  0
 17  3  1  0
 26 18  1  0
 15  7  1  0
 15 10  1  0
  4 27  1  0
  5 28  1  0
  8 29  1  0
 11 30  1  0
 12 31  1  0
 13 32  1  0
 14 33  1  0
 16 34  1  0
 17 35  1  0
 19 36  1  0
 19 37  1  0
 20 38  1  0
 20 39  1  0
 21 40  1  0
 21 41  1  0
 23 42  1  0
 24 43  1  0
 24 44  1  0
 25 45  1  0
 26 46  1  0
 26 47  1  0
M  END
>  <meeko>  (3) 
{"is_sidechain": [false], "free_energy": -8.823, "intermolecular_energy": -11.158, "internal_energy": -0.753}

$$$$
ligand_3_conformer_5_docked
     RDKit          3D

 47 50  0  0  0  0  0  0  0  0999 V2000
    1.0630   45.6860   55.6760 O   0  0  0  0  0  0  0  0  0  0  0  0
    1.2390   45.3150   54.4840 C   0  0  0  0  0  0  0  0  0  0  0  0
    2.5890   45.4290   53.8860 C   0  0  0  0  0  0  0  0  0  0  0  0
    3.0710   46.6800   53.4660 C   0  0  0  0  0  0  0  0  0  0  0  0
    4.3390   46.7910   52.8870 C   0  0  0  0  0  0  0  0  0  0  0  0
    5.1460   45.6560   52.7180 C   0  0  0  0  0  0  0  0  0  0  0  0
    6.4430   45.7770   52.1090 N   0  0  0  0  0  0  0  0  0  0  0  0
    6.7730   45.4450   50.8360 C   0  0  0  0  0  0  0  0  0  0  0  0
    8.0830   45.6580   50.5470 N   0  0  0  0  0  0  0  0  0  0  0  0
    8.5730   46.1490   51.6990 C   0  0  0  0  0  0  0  0  0  0  0  0
    9.8770   46.5700   51.9530 C   0  0  0  0  0  0  0  0  0  0  0  0
   10.1590   47.0960   53.2270 C   0  0  0  0  0  0  0  0  0  0  0  0
    9.1390   47.1990   54.2010 C   0  0  0  0  0  0  0  0  0  0  0  0
    7.8320   46.7690   53.9120 C   0  0  0  0  0  0  0  0  0  0  0  0
    7.5910   46.2270   52.6450 C   0  0  0  0  0  0  0  0  0  0  0  0
    4.6500   44.4020   53.1040 C   0  0  0  0  0  0  0  0  0  0  0  0
    3.3840   44.2890   53.6840 C   0  0  0  0  0  0  0  0  0  0  0  0
    0.1280   44.7890   53.7340 N   0  0  0  0  0  0  0  0  0  0  0  0
   -0.9790   44.1440   54.4620 C   0  0  0  0  0  0  0  0  0  0  0  0
   -2.1450   43.7970   53.5310 C   0  0  0  0  0  0  0  0  0  0  0  0
   -1.6110   43.1390   52.2590 C   0  0  0  0  0  0  0  0  0  0  0  0
   -0.6600   44.0870   51.4570 C   0  0  2  0  0  0  0  0  0  0  0  0
   -1.3750   44.6710   50.3930 O   0  0  0  0  0  0  0  0  0  0  0  0
    0.4860   43.2640   50.8260 C   0  0  0  0  0  0  0  0  0  0  0  0
    1.6310   44.0530   50.6220 O   0  0  0  0  0  0  0  0  0  0  0  0
   -0.0700   45.2270   52.3450 C   0  0  0  0  0  0  0  0  0  0  0  0
    2.4474   47.5772   53.5933 H   0  0  0  0  0  0  0  0  0  0  0  0
    4.7064   47.7755   52.5617 H   0  0  0  0  0  0  0  0  0  0  0  0
    6.0513   45.0431   50.1096 H   0  0  0  0  0  0  0  0  0  0  0  0
   10.6593   46.4936   51.1834 H   0  0  0  0  0  0  0  0  0  0  0  0
   11.1795   47.4293   53.4670 H   0  0  0  0  0  0  0  0  0  0  0  0
    9.3697   47.6184   55.1914 H   0  0  0  0  0  0  0  0  0  0  0  0
    7.0268   46.8557   54.6564 H   0  0  0  0  0  0  0  0  0  0  0  0
    5.2621   43.5013   52.9490 H   0  0  0  0  0  0  0  0  0  0  0  0
    3.0073   43.3002   53.9845 H   0  0  0  0  0  0  0  0  0  0  0  0
   -0.6079   43.2193   54.9281 H   0  0  0  0  0  0  0  0  0  0  0  0
   -1.3460   44.8495   55.2220 H   0  0  0  0  0  0  0  0  0  0  0  0
   -2.8274   43.1026   54.0430 H   0  0  0  0  0  0  0  0  0  0  0  0
   -2.6853   44.7176   53.2654 H   0  0  0  0  0  0  0  0  0  0  0  0
   -1.0547   42.2315   52.5365 H   0  0  0  0  0  0  0  0  0  0  0  0
   -2.4710   42.9009   51.6158 H   0  0  0  0  0  0  0  0  0  0  0  0
   -1.9200   43.9600   49.9620 H   0  0  0  0  0  0  0  0  0  0  0  0
    0.7403   42.4308   51.4977 H   0  0  0  0  0  0  0  0  0  0  0  0
    0.1458   42.8881   49.8498 H   0  0  0  0  0  0  0  0  0  0  0  0
    1.7510   44.1520   49.6420 H   0  0  0  0  0  0  0  0  0  0  0  0
    0.8992   45.5379   51.9280 H   0  0  0  0  0  0  0  0  0  0  0  0
   -0.7850   46.0629   52.3484 H   0  0  0  0  0  0  0  0  0  0  0  0
  1  2  2  0
  2  3  1  0
  3  4  2  0
  4  5  1  0
  5  6  2  0
  6  7  1  0
  7  8  1  0
  8  9  2  0
  9 10  1  0
 10 11  2  0
 11 12  1  0
 12 13  2  0
 13 14  1  0
 14 15  2  0
  6 16  1  0
 16 17  2  0
  2 18  1  0
 18 19  1  0
 19 20  1  0
 20 21  1  0
 21 22  1  0
 22 23  1  6
 22 24  1  0
 24 25  1  0
 22 26  1  0
 17  3  1  0
 26 18  1  0
 15  7  1  0
 15 10  1  0
  4 27  1  0
  5 28  1  0
  8 29  1  0
 11 30  1  0
 12 31  1  0
 13 32  1  0
 14 33  1  0
 16 34  1  0
 17 35  1  0
 19 36  1  0
 19 37  1  0
 20 38  1  0
 20 39  1  0
 21 40  1  0
 21 41  1  0
 23 42  1  0
 24 43  1  0
 24 44  1  0
 25 45  1  0
 26 46  1  0
 26 47  1  0
M  END
>  <meeko>  (4) 
{"is_sidechain": [false], "free_energy": -8.748, "intermolecular_energy": -10.93, "internal_energy": -0.884}

$$$$
ligand_3_conformer_5_docked
     RDKit          3D

 47 50  0  0  0  0  0  0  0  0999 V2000
    7.1220   44.7540   49.5540 O   0  0  0  0  0  0  0  0  0  0  0  0
    6.8780   45.2500   50.6880 C   0  0  0  0  0  0  0  0  0  0  0  0
    5.5190   45.1130   51.2570 C   0  0  0  0  0  0  0  0  0  0  0  0
    4.4750   45.9330   50.7980 C   0  0  0  0  0  0  0  0  0  0  0  0
    3.1930   45.8190   51.3420 C   0  0  0  0  0  0  0  0  0  0  0  0
    2.9310   44.8840   52.3550 C   0  0  0  0  0  0  0  0  0  0  0  0
    1.6130   44.7810   52.9200 N   0  0  0  0  0  0  0  0  0  0  0  0
    1.2100   45.2570   54.1250 C   0  0  0  0  0  0  0  0  0  0  0  0
   -0.0960   44.9980   54.3960 N   0  0  0  0  0  0  0  0  0  0  0  0
   -0.5090   44.3380   53.2990 C   0  0  0  0  0  0  0  0  0  0  0  0
   -1.7910   43.8590   53.0330 C   0  0  0  0  0  0  0  0  0  0  0  0
   -2.0120   43.2340   51.7920 C   0  0  0  0  0  0  0  0  0  0  0  0
   -0.9600   43.1160   50.8540 C   0  0  0  0  0  0  0  0  0  0  0  0
    0.3210   43.6130   51.1510 C   0  0  0  0  0  0  0  0  0  0  0  0
    0.5120   44.2060   52.4030 C   0  0  0  0  0  0  0  0  0  0  0  0
    3.9810   44.0890   52.8390 C   0  0  0  0  0  0  0  0  0  0  0  0
    5.2630   44.2020   52.2950 C   0  0  0  0  0  0  0  0  0  0  0  0
    7.9260   45.9340   51.4010 N   0  0  0  0  0  0  0  0  0  0  0  0
    9.3240   45.5290   51.1720 C   0  0  0  0  0  0  0  0  0  0  0  0
   10.3100   46.4670   51.8760 C   0  0  0  0  0  0  0  0  0  0  0  0
    9.8380   46.7300   53.3060 C   0  0  0  0  0  0  0  0  0  0  0  0
    8.4410   47.4300   53.3480 C   0  0  2  0  0  0  0  0  0  0  0  0
    8.6190   48.8110   53.5640 O   0  0  0  0  0  0  0  0  0  0  0  0
    7.6250   46.8940   54.5470 C   0  0  0  0  0  0  0  0  0  0  0  0
    6.2820   47.3020   54.4750 O   0  0  0  0  0  0  0  0  0  0  0  0
    7.6360   47.2330   52.0260 C   0  0  0  0  0  0  0  0  0  0  0  0
    4.6680   46.6701   50.0047 H   0  0  0  0  0  0  0  0  0  0  0  0
    2.3837   46.4666   50.9737 H   0  0  0  0  0  0  0  0  0  0  0  0
    1.8746   45.7988   54.8141 H   0  0  0  0  0  0  0  0  0  0  0  0
   -2.6021   43.9661   53.7683 H   0  0  0  0  0  0  0  0  0  0  0  0
   -3.0081   42.8351   51.5500 H   0  0  0  0  0  0  0  0  0  0  0  0
   -1.1457   42.6314   49.8841 H   0  0  0  0  0  0  0  0  0  0  0  0
    1.1437   43.5381   50.4246 H   0  0  0  0  0  0  0  0  0  0  0  0
    3.7937   43.3721   53.6520 H   0  0  0  0  0  0  0  0  0  0  0  0
    6.0779   43.5728   52.6825 H   0  0  0  0  0  0  0  0  0  0  0  0
    9.4667   44.5084   51.5567 H   0  0  0  0  0  0  0  0  0  0  0  0
    9.5208   45.5747   50.0907 H   0  0  0  0  0  0  0  0  0  0  0  0
   11.3058   46.0002   51.8995 H   0  0  0  0  0  0  0  0  0  0  0  0
   10.3618   47.4194   51.3281 H   0  0  0  0  0  0  0  0  0  0  0  0
    9.7692   45.7699   53.8384 H   0  0  0  0  0  0  0  0  0  0  0  0
   10.5665   47.4017   53.7836 H   0  0  0  0  0  0  0  0  0  0  0  0
    8.4180   49.2850   52.7140 H   0  0  0  0  0  0  0  0  0  0  0  0
    7.6660   45.7948   54.5453 H   0  0  0  0  0  0  0  0  0  0  0  0
    8.0613   47.2988   55.4721 H   0  0  0  0  0  0  0  0  0  0  0  0
    5.7270   46.5540   54.8170 H   0  0  0  0  0  0  0  0  0  0  0  0
    6.5608   47.2878   52.2518 H   0  0  0  0  0  0  0  0  0  0  0  0
    7.9321   48.0255   51.3229 H   0  0  0  0  0  0  0  0  0  0  0  0
  1  2  2  0
  2  3  1  0
  3  4  2  0
  4  5  1  0
  5  6  2  0
  6  7  1  0
  7  8  1  0
  8  9  2  0
  9 10  1  0
 10 11  2  0
 11 12  1  0
 12 13  2  0
 13 14  1  0
 14 15  2  0
  6 16  1  0
 16 17  2  0
  2 18  1  0
 18 19  1  0
 19 20  1  0
 20 21  1  0
 21 22  1  0
 22 23  1  1
 22 24  1  0
 24 25  1  0
 22 26  1  0
 17  3  1  0
 26 18  1  0
 15  7  1  0
 15 10  1  0
  4 27  1  0
  5 28  1  0
  8 29  1  0
 11 30  1  0
 12 31  1  0
 13 32  1  0
 14 33  1  0
 16 34  1  0
 17 35  1  0
 19 36  1  0
 19 37  1  0
 20 38  1  0
 20 39  1  0
 21 40  1  0
 21 41  1  0
 23 42  1  0
 24 43  1  0
 24 44  1  0
 25 45  1  0
 26 46  1  0
 26 47  1  0
M  END
>  <meeko>  (5) 
{"is_sidechain": [false], "free_energy": -8.596, "intermolecular_energy": -10.81, "internal_energy": -0.809}

$$$$
