ligand_85_conformer_1_docked
     RDKit          3D

 44 47  0  0  0  0  0  0  0  0999 V2000
    7.4150   42.9580   49.3410 C   0  0  0  0  0  0  0  0  0  0  0  0
    6.6770   44.1700   49.9000 C   0  0  0  0  0  0  0  0  0  0  0  0
    7.6290   45.3470   50.1190 C   0  0  0  0  0  0  0  0  0  0  0  0
    7.3230   46.0090   51.3850 N   0  0  0  0  0  0  0  0  0  0  0  0
    6.0970   46.3730   51.7470 N   0  0  0  0  0  0  0  0  0  0  0  0
    6.1900   47.0060   52.9400 C   0  0  0  0  0  0  0  0  0  0  0  0
    5.0770   47.5630   53.6490 N   0  0  0  0  0  0  0  0  0  0  0  0
    4.3510   46.8060   54.6640 C   0  0  0  0  0  0  0  0  0  0  0  0
    3.4360   45.8250   54.0070 C   0  0  0  0  0  0  0  0  0  0  0  0
    3.7940   44.5720   53.6670 N   0  0  0  0  0  0  0  0  0  0  0  0
    2.6580   44.1240   53.0920 C   0  0  0  0  0  0  0  0  0  0  0  0
    2.5390   42.7840   52.4430 C   0  0  0  0  0  0  0  0  0  0  0  0
    3.4700   42.7160   51.2290 C   0  0  0  0  0  0  0  0  0  0  0  0
    3.2200   41.5470   50.2890 C   0  0  0  0  0  0  0  0  0  0  0  0
    4.4340   41.5390   51.2040 C   0  0  0  0  0  0  0  0  0  0  0  0
    1.6850   45.0540   53.0680 N   0  0  0  0  0  0  0  0  0  0  0  0
    2.2040   46.0920   53.6500 O   0  0  0  0  0  0  0  0  0  0  0  0
    7.5120   47.0490   53.3340 C   0  0  0  0  0  0  0  0  0  0  0  0
    8.1530   47.5970   54.4420 C   0  0  0  0  0  0  0  0  0  0  0  0
    9.5540   47.4790   54.5050 C   0  0  0  0  0  0  0  0  0  0  0  0
   10.2670   46.8330   53.4680 C   0  0  0  0  0  0  0  0  0  0  0  0
    9.5870   46.2970   52.3580 C   0  0  0  0  0  0  0  0  0  0  0  0
    8.1960   46.4210   52.3290 C   0  0  0  0  0  0  0  0  0  0  0  0
    7.7901   42.3420   50.1715 H   0  0  0  0  0  0  0  0  0  0  0  0
    6.7265   42.3618   48.7241 H   0  0  0  0  0  0  0  0  0  0  0  0
    8.2607   43.2961   48.7241 H   0  0  0  0  0  0  0  0  0  0  0  0
    5.8925   44.4708   49.1901 H   0  0  0  0  0  0  0  0  0  0  0  0
    6.2382   43.8928   50.8699 H   0  0  0  0  0  0  0  0  0  0  0  0
    8.6650   44.9780   50.1421 H   0  0  0  0  0  0  0  0  0  0  0  0
    7.5075   46.0673   49.2965 H   0  0  0  0  0  0  0  0  0  0  0  0
    4.7250   48.5110   53.3860 H   0  0  0  0  0  0  0  0  0  0  0  0
    5.0685   46.2667   55.2998 H   0  0  0  0  0  0  0  0  0  0  0  0
    3.7583   47.4994   55.2788 H   0  0  0  0  0  0  0  0  0  0  0  0
    2.8198   42.0020   53.1638 H   0  0  0  0  0  0  0  0  0  0  0  0
    1.5005   42.6278   52.1158 H   0  0  0  0  0  0  0  0  0  0  0  0
    3.5709   43.8053   51.1140 H   0  0  0  0  0  0  0  0  0  0  0  0
    2.3839   40.8579   50.4788 H   0  0  0  0  0  0  0  0  0  0  0  0
    3.0622   41.4404   49.2056 H   0  0  0  0  0  0  0  0  0  0  0  0
    4.4761   40.8444   52.0559 H   0  0  0  0  0  0  0  0  0  0  0  0
    5.5181   41.4244   51.0570 H   0  0  0  0  0  0  0  0  0  0  0  0
    7.5861   48.1027   55.2375 H   0  0  0  0  0  0  0  0  0  0  0  0
   10.0985   47.8921   55.3669 H   0  0  0  0  0  0  0  0  0  0  0  0
   11.3620   46.7488   53.5295 H   0  0  0  0  0  0  0  0  0  0  0  0
   10.1316   45.7984   51.5427 H   0  0  0  0  0  0  0  0  0  0  0  0
  1  2  1  0
  2  3  1  0
  3  4  1  0
  4  5  1  0
  5  6  2  0
  6  7  1  0
  7  8  1  0
  8  9  1  0
  9 10  2  0
 10 11  1  0
 11 12  1  0
 12 13  1  0
 13 14  1  0
 14 15  1  0
 11 16  2  0
 16 17  1  0
  6 18  1  0
 18 19  2  0
 19 20  1  0
 20 21  2  0
 21 22  1  0
 22 23  2  0
 23  4  1  0
 17  9  1  0
 23 18  1  0
 15 13  1  0
  1 24  1  0
  1 25  1  0
  1 26  1  0
  2 27  1  0
  2 28  1  0
  3 29  1  0
  3 30  1  0
  7 31  1  0
  8 32  1  0
  8 33  1  0
 12 34  1  0
 12 35  1  0
 13 36  1  0
 14 37  1  0
 14 38  1  0
 15 39  1  0
 15 40  1  0
 19 41  1  0
 20 42  1  0
 21 43  1  0
 22 44  1  0
M  END
>  <meeko>  (1) 
{"is_sidechain": [false], "free_energy": -8.196, "intermolecular_energy": -11.55, "internal_energy": -1.1}

$$$$
ligand_85_conformer_1_docked
     RDKit          3D

 44 47  0  0  0  0  0  0  0  0999 V2000
   11.3630   47.4910   56.5880 C   0  0  0  0  0  0  0  0  0  0  0  0
   10.1790   47.8960   55.7160 C   0  0  0  0  0  0  0  0  0  0  0  0
   10.2080   47.1720   54.3700 C   0  0  0  0  0  0  0  0  0  0  0  0
    8.8460   46.9580   53.8870 N   0  0  0  0  0  0  0  0  0  0  0  0
    7.7620   47.1670   54.6280 N   0  0  0  0  0  0  0  0  0  0  0  0
    6.6840   46.8140   53.8880 C   0  0  0  0  0  0  0  0  0  0  0  0
    5.3290   46.8800   54.3510 N   0  0  0  0  0  0  0  0  0  0  0  0
    4.7420   45.8260   55.1720 C   0  0  0  0  0  0  0  0  0  0  0  0
    3.8150   44.9970   54.3460 C   0  0  0  0  0  0  0  0  0  0  0  0
    4.1940   44.3020   53.2570 N   0  0  0  0  0  0  0  0  0  0  0  0
    3.0180   43.7700   52.8640 C   0  0  0  0  0  0  0  0  0  0  0  0
    2.8550   42.9630   51.6180 C   0  0  0  0  0  0  0  0  0  0  0  0
    4.0180   41.9730   51.4910 C   0  0  0  0  0  0  0  0  0  0  0  0
    5.0440   42.3160   50.4220 C   0  0  0  0  0  0  0  0  0  0  0  0
    4.0640   41.1750   50.1960 C   0  0  0  0  0  0  0  0  0  0  0  0
    1.9910   44.1370   53.6540 N   0  0  0  0  0  0  0  0  0  0  0  0
    2.5270   44.8920   54.5640 O   0  0  0  0  0  0  0  0  0  0  0  0
    7.1030   46.3610   52.6540 C   0  0  0  0  0  0  0  0  0  0  0  0
    6.4220   45.8610   51.5470 C   0  0  0  0  0  0  0  0  0  0  0  0
    7.1920   45.4540   50.4410 C   0  0  0  0  0  0  0  0  0  0  0  0
    8.6020   45.5480   50.4750 C   0  0  0  0  0  0  0  0  0  0  0  0
    9.2590   46.0530   51.6140 C   0  0  0  0  0  0  0  0  0  0  0  0
    8.4670   46.4570   52.6910 C   0  0  0  0  0  0  0  0  0  0  0  0
   11.0866   47.5855   57.6485 H   0  0  0  0  0  0  0  0  0  0  0  0
   11.6375   46.4479   56.3722 H   0  0  0  0  0  0  0  0  0  0  0  0
   12.2188   48.1475   56.3722 H   0  0  0  0  0  0  0  0  0  0  0  0
    9.2452   47.6426   56.2393 H   0  0  0  0  0  0  0  0  0  0  0  0
   10.2389   48.9784   55.5297 H   0  0  0  0  0  0  0  0  0  0  0  0
   10.7614   47.7817   53.6405 H   0  0  0  0  0  0  0  0  0  0  0  0
   10.7034   46.1979   54.4952 H   0  0  0  0  0  0  0  0  0  0  0  0
    4.7180   47.6660   54.0340 H   0  0  0  0  0  0  0  0  0  0  0  0
    5.5427   45.1876   55.5737 H   0  0  0  0  0  0  0  0  0  0  0  0
    4.1801   46.2821   56.0004 H   0  0  0  0  0  0  0  0  0  0  0  0
    1.9057   42.4090   51.6622 H   0  0  0  0  0  0  0  0  0  0  0  0
    2.8494   43.6339   50.7463 H   0  0  0  0  0  0  0  0  0  0  0  0
    4.0573   41.7205   52.5609 H   0  0  0  0  0  0  0  0  0  0  0  0
    4.9463   43.2472   49.8447 H   0  0  0  0  0  0  0  0  0  0  0  0
    6.1392   42.4165   50.3991 H   0  0  0  0  0  0  0  0  0  0  0  0
    3.2575   41.2811   49.4555 H   0  0  0  0  0  0  0  0  0  0  0  0
    4.1566   40.1087   49.9421 H   0  0  0  0  0  0  0  0  0  0  0  0
    5.3245   45.7869   51.5372 H   0  0  0  0  0  0  0  0  0  0  0  0
    6.6927   45.0599   49.5436 H   0  0  0  0  0  0  0  0  0  0  0  0
    9.1912   45.2240   49.6045 H   0  0  0  0  0  0  0  0  0  0  0  0
   10.3558   46.1265   51.6538 H   0  0  0  0  0  0  0  0  0  0  0  0
  1  2  1  0
  2  3  1  0
  3  4  1  0
  4  5  1  0
  5  6  2  0
  6  7  1  0
  7  8  1  0
  8  9  1  0
  9 10  2  0
 10 11  1  0
 11 12  1  0
 12 13  1  0
 13 14  1  0
 14 15  1  0
 11 16  2  0
 16 17  1  0
  6 18  1  0
 18 19  2  0
 19 20  1  0
 20 21  2  0
 21 22  1  0
 22 23  2  0
 23  4  1  0
 17  9  1  0
 23 18  1  0
 15 13  1  0
  1 24  1  0
  1 25  1  0
  1 26  1  0
  2 27  1  0
  2 28  1  0
  3 29  1  0
  3 30  1  0
  7 31  1  0
  8 32  1  0
  8 33  1  0
 12 34  1  0
 12 35  1  0
 13 36  1  0
 14 37  1  0
 14 38  1  0
 15 39  1  0
 15 40  1  0
 19 41  1  0
 20 42  1  0
 21 43  1  0
 22 44  1  0
M  END
>  <meeko>  (2) 
{"is_sidechain": [false], "free_energy": -8.096, "intermolecular_energy": -11.63, "internal_energy": -0.88}

$$$$
ligand_85_conformer_1_docked
     RDKit          3D

 44 47  0  0  0  0  0  0  0  0999 V2000
   -0.4500   43.0280   53.8940 C   0  0  0  0  0  0  0  0  0  0  0  0
    0.9340   42.5190   53.5040 C   0  0  0  0  0  0  0  0  0  0  0  0
    1.2080   42.7400   52.0150 C   0  0  0  0  0  0  0  0  0  0  0  0
    2.3140   43.6800   51.8440 N   0  0  0  0  0  0  0  0  0  0  0  0
    2.2200   44.9810   52.1010 N   0  0  0  0  0  0  0  0  0  0  0  0
    3.4050   45.5500   51.7770 C   0  0  0  0  0  0  0  0  0  0  0  0
    3.6890   46.9500   51.8970 N   0  0  0  0  0  0  0  0  0  0  0  0
    3.8990   47.5860   53.1930 C   0  0  0  0  0  0  0  0  0  0  0  0
    5.2210   47.1720   53.7530 C   0  0  0  0  0  0  0  0  0  0  0  0
    6.4040   47.6340   53.3080 N   0  0  0  0  0  0  0  0  0  0  0  0
    7.2630   46.9490   54.0910 C   0  0  0  0  0  0  0  0  0  0  0  0
    8.7470   47.0210   53.9440 C   0  0  0  0  0  0  0  0  0  0  0  0
    9.1070   47.2660   52.4750 C   0  0  0  0  0  0  0  0  0  0  0  0
    8.8680   46.0850   51.5480 C   0  0  0  0  0  0  0  0  0  0  0  0
   10.2860   46.4640   51.9450 C   0  0  0  0  0  0  0  0  0  0  0  0
    6.6370   46.1110   54.9400 N   0  0  0  0  0  0  0  0  0  0  0  0
    5.3730   46.2840   54.7040 O   0  0  0  0  0  0  0  0  0  0  0  0
    4.2620   44.5830   51.2950 C   0  0  0  0  0  0  0  0  0  0  0  0
    5.5650   44.6300   50.8050 C   0  0  0  0  0  0  0  0  0  0  0  0
    6.1340   43.4230   50.3580 C   0  0  0  0  0  0  0  0  0  0  0  0
    5.3920   42.2200   50.4030 C   0  0  0  0  0  0  0  0  0  0  0  0
    4.0740   42.2100   50.8980 C   0  0  0  0  0  0  0  0  0  0  0  0
    3.5410   43.4220   51.3430 C   0  0  0  0  0  0  0  0  0  0  0  0
   -0.5338   43.0588   54.9904 H   0  0  0  0  0  0  0  0  0  0  0  0
   -0.5971   44.0391   53.4864 H   0  0  0  0  0  0  0  0  0  0  0  0
   -1.2171   42.3532   53.4864 H   0  0  0  0  0  0  0  0  0  0  0  0
    1.6924   43.0570   54.0917 H   0  0  0  0  0  0  0  0  0  0  0  0
    0.9773   41.4391   53.7086 H   0  0  0  0  0  0  0  0  0  0  0  0
    1.4703   41.7799   51.5465 H   0  0  0  0  0  0  0  0  0  0  0  0
    0.3063   43.1533   51.5396 H   0  0  0  0  0  0  0  0  0  0  0  0
    3.6740   47.5500   51.0420 H   0  0  0  0  0  0  0  0  0  0  0  0
    3.8807   48.6790   53.0704 H   0  0  0  0  0  0  0  0  0  0  0  0
    3.1000   47.2764   53.8827 H   0  0  0  0  0  0  0  0  0  0  0  0
    9.1361   47.8460   54.5587 H   0  0  0  0  0  0  0  0  0  0  0  0
    9.1933   46.0720   54.2760 H   0  0  0  0  0  0  0  0  0  0  0  0
    8.8287   48.3302   52.4746 H   0  0  0  0  0  0  0  0  0  0  0  0
    8.4156   45.1617   51.9391 H   0  0  0  0  0  0  0  0  0  0  0  0
    8.3401   45.9397   50.5939 H   0  0  0  0  0  0  0  0  0  0  0  0
   10.8593   45.8151   52.6234 H   0  0  0  0  0  0  0  0  0  0  0  0
   11.2087   46.7066   51.3974 H   0  0  0  0  0  0  0  0  0  0  0  0
    6.1277   45.5745   50.7688 H   0  0  0  0  0  0  0  0  0  0  0  0
    7.1635   43.4152   49.9707 H   0  0  0  0  0  0  0  0  0  0  0  0
    5.8484   41.2841   50.0483 H   0  0  0  0  0  0  0  0  0  0  0  0
    3.4854   41.2814   50.9330 H   0  0  0  0  0  0  0  0  0  0  0  0
  1  2  1  0
  2  3  1  0
  3  4  1  0
  4  5  1  0
  5  6  2  0
  6  7  1  0
  7  8  1  0
  8  9  1  0
  9 10  2  0
 10 11  1  0
 11 12  1  0
 12 13  1  0
 13 14  1  0
 14 15  1  0
 11 16  2  0
 16 17  1  0
  6 18  1  0
 18 19  2  0
 19 20  1  0
 20 21  2  0
 21 22  1  0
 22 23  2  0
 23  4  1  0
 17  9  1  0
 23 18  1  0
 15 13  1  0
  1 24  1  0
  1 25  1  0
  1 26  1  0
  2 27  1  0
  2 28  1  0
  3 29  1  0
  3 30  1  0
  7 31  1  0
  8 32  1  0
  8 33  1  0
 12 34  1  0
 12 35  1  0
 13 36  1  0
 14 37  1  0
 14 38  1  0
 15 39  1  0
 15 40  1  0
 19 41  1  0
 20 42  1  0
 21 43  1  0
 22 44  1  0
M  END
>  <meeko>  (3) 
{"is_sidechain": [false], "free_energy": -8.084, "intermolecular_energy": -11.404, "internal_energy": -1.089}

$$$$
ligand_85_conformer_1_docked
     RDKit          3D

 44 47  0  0  0  0  0  0  0  0999 V2000
    4.1990   40.7070   48.3010 C   0  0  0  0  0  0  0  0  0  0  0  0
    3.4140   40.8890   49.5960 C   0  0  0  0  0  0  0  0  0  0  0  0
    4.3490   41.1570   50.7770 C   0  0  0  0  0  0  0  0  0  0  0  0
    4.5470   42.5950   50.9410 N   0  0  0  0  0  0  0  0  0  0  0  0
    3.6310   43.4110   51.4530 N   0  0  0  0  0  0  0  0  0  0  0  0
    4.1250   44.6700   51.4010 C   0  0  0  0  0  0  0  0  0  0  0  0
    3.4190   45.8350   51.8470 N   0  0  0  0  0  0  0  0  0  0  0  0
    3.2330   46.1290   53.2640 C   0  0  0  0  0  0  0  0  0  0  0  0
    4.5570   46.1530   53.9550 C   0  0  0  0  0  0  0  0  0  0  0  0
    5.5610   46.9870   53.6280 N   0  0  0  0  0  0  0  0  0  0  0  0
    6.5170   46.5970   54.4970 C   0  0  0  0  0  0  0  0  0  0  0  0
    7.9030   47.1540   54.4990 C   0  0  0  0  0  0  0  0  0  0  0  0
    8.7450   46.4410   53.4350 C   0  0  0  0  0  0  0  0  0  0  0  0
   10.2010   46.8730   53.3690 C   0  0  0  0  0  0  0  0  0  0  0  0
    9.2280   47.3140   52.2860 C   0  0  0  0  0  0  0  0  0  0  0  0
    6.1210   45.5790   55.2840 N   0  0  0  0  0  0  0  0  0  0  0  0
    4.8980   45.3370   54.9210 O   0  0  0  0  0  0  0  0  0  0  0  0
    5.3800   44.6470   50.8300 C   0  0  0  0  0  0  0  0  0  0  0  0
    6.3000   45.6460   50.5200 C   0  0  0  0  0  0  0  0  0  0  0  0
    7.5000   45.2530   49.8990 C   0  0  0  0  0  0  0  0  0  0  0  0
    7.7420   43.8920   49.6000 C   0  0  0  0  0  0  0  0  0  0  0  0
    6.7870   42.9090   49.9210 C   0  0  0  0  0  0  0  0  0  0  0  0
    5.6100   43.3280   50.5460 C   0  0  0  0  0  0  0  0  0  0  0  0
    5.2455   40.4644   48.5376 H   0  0  0  0  0  0  0  0  0  0  0  0
    3.7560   39.8877   47.7157 H   0  0  0  0  0  0  0  0  0  0  0  0
    4.1617   41.6376   47.7157 H   0  0  0  0  0  0  0  0  0  0  0  0
    2.7266   41.7402   49.4823 H   0  0  0  0  0  0  0  0  0  0  0  0
    2.8551   39.9632   49.7974 H   0  0  0  0  0  0  0  0  0  0  0  0
    3.9048   40.7435   51.6944 H   0  0  0  0  0  0  0  0  0  0  0  0
    5.3205   40.6783   50.5843 H   0  0  0  0  0  0  0  0  0  0  0  0
    2.9610   46.4560   51.1430 H   0  0  0  0  0  0  0  0  0  0  0  0
    2.7469   47.1098   53.3725 H   0  0  0  0  0  0  0  0  0  0  0  0
    2.6019   45.3498   53.7163 H   0  0  0  0  0  0  0  0  0  0  0  0
    7.8653   48.2304   54.2753 H   0  0  0  0  0  0  0  0  0  0  0  0
    8.3575   46.9993   55.4887 H   0  0  0  0  0  0  0  0  0  0  0  0
    8.2172   45.4789   53.5109 H   0  0  0  0  0  0  0  0  0  0  0  0
   10.5902   47.6065   54.0904 H   0  0  0  0  0  0  0  0  0  0  0  0
   11.1685   46.3497   53.3789 H   0  0  0  0  0  0  0  0  0  0  0  0
    8.9132   48.3662   52.2245 H   0  0  0  0  0  0  0  0  0  0  0  0
    9.2000   47.2417   51.1887 H   0  0  0  0  0  0  0  0  0  0  0  0
    6.0962   46.7018   50.7518 H   0  0  0  0  0  0  0  0  0  0  0  0
    8.2559   46.0104   49.6441 H   0  0  0  0  0  0  0  0  0  0  0  0
    8.6838   43.5994   49.1128 H   0  0  0  0  0  0  0  0  0  0  0  0
    6.9614   41.8482   49.6879 H   0  0  0  0  0  0  0  0  0  0  0  0
  1  2  1  0
  2  3  1  0
  3  4  1  0
  4  5  1  0
  5  6  2  0
  6  7  1  0
  7  8  1  0
  8  9  1  0
  9 10  2  0
 10 11  1  0
 11 12  1  0
 12 13  1  0
 13 14  1  0
 14 15  1  0
 11 16  2  0
 16 17  1  0
  6 18  1  0
 18 19  2  0
 19 20  1  0
 20 21  2  0
 21 22  1  0
 22 23  2  0
 23  4  1  0
 17  9  1  0
 23 18  1  0
 15 13  1  0
  1 24  1  0
  1 25  1  0
  1 26  1  0
  2 27  1  0
  2 28  1  0
  3 29  1  0
  3 30  1  0
  7 31  1  0
  8 32  1  0
  8 33  1  0
 12 34  1  0
 12 35  1  0
 13 36  1  0
 14 37  1  0
 14 38  1  0
 15 39  1  0
 15 40  1  0
 19 41  1  0
 20 42  1  0
 21 43  1  0
 22 44  1  0
M  END
>  <meeko>  (4) 
{"is_sidechain": [false], "free_energy": -8.028, "intermolecular_energy": -11.059, "internal_energy": -1.354}

$$$$
ligand_85_conformer_1_docked
     RDKit          3D

 44 47  0  0  0  0  0  0  0  0999 V2000
    9.9730   47.1570   54.0780 C   0  0  0  0  0  0  0  0  0  0  0  0
   10.0000   46.6850   52.6280 C   0  0  0  0  0  0  0  0  0  0  0  0
    9.0590   47.5170   51.7560 C   0  0  0  0  0  0  0  0  0  0  0  0
    7.6770   47.0880   51.9600 N   0  0  0  0  0  0  0  0  0  0  0  0
    6.8520   47.6570   52.8330 N   0  0  0  0  0  0  0  0  0  0  0  0
    5.6830   46.9740   52.8000 C   0  0  0  0  0  0  0  0  0  0  0  0
    4.5460   47.2760   53.6170 N   0  0  0  0  0  0  0  0  0  0  0  0
    4.3840   46.7130   54.9530 C   0  0  0  0  0  0  0  0  0  0  0  0
    3.2020   45.8000   54.9780 C   0  0  0  0  0  0  0  0  0  0  0  0
    2.9040   44.9260   53.9980 N   0  0  0  0  0  0  0  0  0  0  0  0
    1.7620   44.3850   54.4690 C   0  0  0  0  0  0  0  0  0  0  0  0
    0.9430   43.3980   53.7040 C   0  0  0  0  0  0  0  0  0  0  0  0
    1.4960   43.2630   52.2810 C   0  0  0  0  0  0  0  0  0  0  0  0
    1.1240   44.3940   51.3350 C   0  0  0  0  0  0  0  0  0  0  0  0
    0.4600   43.0330   51.1920 C   0  0  0  0  0  0  0  0  0  0  0  0
    1.3830   44.9140   55.6480 N   0  0  0  0  0  0  0  0  0  0  0  0
    2.3050   45.7820   55.9330 O   0  0  0  0  0  0  0  0  0  0  0  0
    5.7810   45.9410   51.8900 C   0  0  0  0  0  0  0  0  0  0  0  0
    4.8990   44.9380   51.4950 C   0  0  0  0  0  0  0  0  0  0  0  0
    5.3560   44.0120   50.5400 C   0  0  0  0  0  0  0  0  0  0  0  0
    6.6680   44.1040   50.0190 C   0  0  0  0  0  0  0  0  0  0  0  0
    7.5360   45.1270   50.4460 C   0  0  0  0  0  0  0  0  0  0  0  0
    7.0500   46.0380   51.3880 C   0  0  0  0  0  0  0  0  0  0  0  0
   10.0228   46.2861   54.7481 H   0  0  0  0  0  0  0  0  0  0  0  0
   10.8350   47.8140   54.2659 H   0  0  0  0  0  0  0  0  0  0  0  0
    9.0417   47.7114   54.2659 H   0  0  0  0  0  0  0  0  0  0  0  0
   11.0249   46.7784   52.2397 H   0  0  0  0  0  0  0  0  0  0  0  0
    9.6666   45.6372   52.5974 H   0  0  0  0  0  0  0  0  0  0  0  0
    9.1545   48.5787   52.0275 H   0  0  0  0  0  0  0  0  0  0  0  0
    9.3281   47.3761   50.6988 H   0  0  0  0  0  0  0  0  0  0  0  0
    3.7730   47.8580   53.2230 H   0  0  0  0  0  0  0  0  0  0  0  0
    5.2880   46.1474   55.2229 H   0  0  0  0  0  0  0  0  0  0  0  0
    4.2278   47.5288   55.6742 H   0  0  0  0  0  0  0  0  0  0  0  0
    0.9841   42.4205   54.2068 H   0  0  0  0  0  0  0  0  0  0  0  0
   -0.0996   43.7458   53.6589 H   0  0  0  0  0  0  0  0  0  0  0  0
    2.4320   42.7680   52.5791 H   0  0  0  0  0  0  0  0  0  0  0  0
    0.5445   45.2526   51.7052 H   0  0  0  0  0  0  0  0  0  0  0  0
    1.6830   45.0613   50.6625 H   0  0  0  0  0  0  0  0  0  0  0  0
   -0.5997   42.9073   51.4587 H   0  0  0  0  0  0  0  0  0  0  0  0
    0.3399   42.3083   50.3732 H   0  0  0  0  0  0  0  0  0  0  0  0
    3.8840   44.8726   51.9138 H   0  0  0  0  0  0  0  0  0  0  0  0
    4.6875   43.2094   50.1953 H   0  0  0  0  0  0  0  0  0  0  0  0
    7.0126   43.3709   49.2748 H   0  0  0  0  0  0  0  0  0  0  0  0
    8.5601   45.2064   50.0523 H   0  0  0  0  0  0  0  0  0  0  0  0
  1  2  1  0
  2  3  1  0
  3  4  1  0
  4  5  1  0
  5  6  2  0
  6  7  1  0
  7  8  1  0
  8  9  1  0
  9 10  2  0
 10 11  1  0
 11 12  1  0
 12 13  1  0
 13 14  1  0
 14 15  1  0
 11 16  2  0
 16 17  1  0
  6 18  1  0
 18 19  2  0
 19 20  1  0
 20 21  2  0
 21 22  1  0
 22 23  2  0
 23  4  1  0
 17  9  1  0
 23 18  1  0
 15 13  1  0
  1 24  1  0
  1 25  1  0
  1 26  1  0
  2 27  1  0
  2 28  1  0
  3 29  1  0
  3 30  1  0
  7 31  1  0
  8 32  1  0
  8 33  1  0
 12 34  1  0
 12 35  1  0
 13 36  1  0
 14 37  1  0
 14 38  1  0
 15 39  1  0
 15 40  1  0
 19 41  1  0
 20 42  1  0
 21 43  1  0
 22 44  1  0
M  END
>  <meeko>  (5) 
{"is_sidechain": [false], "free_energy": -7.991, "intermolecular_energy": -11.572, "internal_energy": -0.79}

$$$$
