ligand_97_conformer_1_docked
     RDKit          3D

 36 39  0  0  0  0  0  0  0  0999 V2000
    8.4160   43.7400   49.2120 O   0  0  0  0  0  0  0  0  0  0  0  0
    7.2890   43.5650   49.7530 C   0  0  0  0  0  0  0  0  0  0  0  0
    6.6810   42.3110   49.6630 C   0  0  0  0  0  0  0  0  0  0  0  0
    5.4310   42.1050   50.2420 C   0  0  0  0  0  0  0  0  0  0  0  0
    4.7980   43.1490   50.9260 C   0  0  0  0  0  0  0  0  0  0  0  0
    3.4600   42.9670   51.5180 C   0  0  0  0  0  0  0  0  0  0  0  0
    2.3690   42.5700   50.8350 N   0  0  0  0  0  0  0  0  0  0  0  0
    1.3750   42.5390   51.7100 N   0  0  0  0  0  0  0  0  0  0  0  0
    1.8930   42.9180   52.8940 C   0  0  0  0  0  0  0  0  0  0  0  0
    3.1720   43.1800   52.7810 O   0  0  0  0  0  0  0  0  0  0  0  0
    5.4500   44.3860   51.0170 C   0  0  0  0  0  0  0  0  0  0  0  0
    6.6640   44.5920   50.4180 N   0  0  0  0  0  0  0  0  0  0  0  0
    7.2670   45.9360   50.4560 C   0  0  0  0  0  0  0  0  0  0  0  0
    8.2340   46.0480   51.6040 C   0  0  0  0  0  0  0  0  0  0  0  0
    9.5690   46.1260   51.4350 N   0  0  0  0  0  0  0  0  0  0  0  0
   10.0080   46.3540   52.6930 C   0  0  0  0  0  0  0  0  0  0  0  0
    9.0030   46.4320   53.5860 N   0  0  0  0  0  0  0  0  0  0  0  0
    7.8950   46.2280   52.8980 N   0  0  0  0  0  0  0  0  0  0  0  0
    6.5830   46.2700   53.4710 C   0  0  0  0  0  0  0  0  0  0  0  0
    5.7140   47.3340   53.1820 C   0  0  0  0  0  0  0  0  0  0  0  0
    4.4480   47.3860   53.7740 C   0  0  0  0  0  0  0  0  0  0  0  0
    4.0420   46.3740   54.6490 C   0  0  0  0  0  0  0  0  0  0  0  0
    4.8980   45.3030   54.9250 C   0  0  0  0  0  0  0  0  0  0  0  0
    6.1630   45.2460   54.3320 C   0  0  0  0  0  0  0  0  0  0  0  0
    7.1876   41.4886   49.1366 H   0  0  0  0  0  0  0  0  0  0  0  0
    4.9420   41.1229   50.1617 H   0  0  0  0  0  0  0  0  0  0  0  0
    1.3199   42.9970   53.8296 H   0  0  0  0  0  0  0  0  0  0  0  0
    4.9785   45.2055   51.5792 H   0  0  0  0  0  0  0  0  0  0  0  0
    7.8023   46.1193   49.5127 H   0  0  0  0  0  0  0  0  0  0  0  0
    6.4683   46.6805   50.5899 H   0  0  0  0  0  0  0  0  0  0  0  0
   11.0699   46.4638   52.9582 H   0  0  0  0  0  0  0  0  0  0  0  0
    6.0293   48.1279   52.4890 H   0  0  0  0  0  0  0  0  0  0  0  0
    3.7711   48.2239   53.5510 H   0  0  0  0  0  0  0  0  0  0  0  0
    3.0492   46.4201   55.1204 H   0  0  0  0  0  0  0  0  0  0  0  0
    4.5757   44.5045   55.6094 H   0  0  0  0  0  0  0  0  0  0  0  0
    6.8298   44.3965   54.5412 H   0  0  0  0  0  0  0  0  0  0  0  0
  1  2  2  0
  2  3  1  0
  3  4  2  0
  4  5  1  0
  5  6  1  0
  6  7  2  0
  7  8  1  0
  8  9  2  0
  9 10  1  0
  5 11  2  0
 11 12  1  0
 12 13  1  0
 13 14  1  0
 14 15  2  0
 15 16  1  0
 16 17  2  0
 17 18  1  0
 18 19  1  0
 19 20  2  0
 20 21  1  0
 21 22  2  0
 22 23  1  0
 23 24  2  0
 12  2  1  0
 18 14  1  0
 24 19  1  0
 10  6  1  0
  3 25  1  0
  4 26  1  0
  9 27  1  0
 11 28  1  0
 13 29  1  0
 13 30  1  0
 16 31  1  0
 20 32  1  0
 21 33  1  0
 22 34  1  0
 23 35  1  0
 24 36  1  0
M  END
>  <meeko>  (1) 
{"is_sidechain": [false], "free_energy": -8.862, "intermolecular_energy": -10.935, "internal_energy": -0.699}

$$$$
ligand_97_conformer_1_docked
     RDKit          3D

 36 39  0  0  0  0  0  0  0  0999 V2000
    6.7440   44.0860   50.3200 O   0  0  0  0  0  0  0  0  0  0  0  0
    5.5970   43.8080   50.7650 C   0  0  0  0  0  0  0  0  0  0  0  0
    5.1610   42.4810   50.7310 C   0  0  0  0  0  0  0  0  0  0  0  0
    3.8920   42.1590   51.2050 C   0  0  0  0  0  0  0  0  0  0  0  0
    3.0670   43.1600   51.7290 C   0  0  0  0  0  0  0  0  0  0  0  0
    1.7060   42.8500   52.2070 C   0  0  0  0  0  0  0  0  0  0  0  0
    0.5850   43.0080   51.4770 N   0  0  0  0  0  0  0  0  0  0  0  0
   -0.4190   42.6350   52.2550 N   0  0  0  0  0  0  0  0  0  0  0  0
    0.1220   42.2650   53.4310 C   0  0  0  0  0  0  0  0  0  0  0  0
    1.4260   42.3950   53.4060 O   0  0  0  0  0  0  0  0  0  0  0  0
    3.5490   44.4750   51.7710 C   0  0  0  0  0  0  0  0  0  0  0  0
    4.7840   44.7920   51.2720 N   0  0  0  0  0  0  0  0  0  0  0  0
    5.2110   46.2020   51.2470 C   0  0  0  0  0  0  0  0  0  0  0  0
    5.0850   46.8170   52.6150 C   0  0  0  0  0  0  0  0  0  0  0  0
    3.9010   46.9920   53.2350 N   0  0  0  0  0  0  0  0  0  0  0  0
    4.2750   47.4270   54.4590 C   0  0  0  0  0  0  0  0  0  0  0  0
    5.6130   47.4970   54.5960 N   0  0  0  0  0  0  0  0  0  0  0  0
    6.1130   47.1240   53.4320 N   0  0  0  0  0  0  0  0  0  0  0  0
    7.5160   47.0180   53.1670 C   0  0  0  0  0  0  0  0  0  0  0  0
    7.9870   46.9440   51.8460 C   0  0  0  0  0  0  0  0  0  0  0  0
    9.3560   46.8040   51.5960 C   0  0  0  0  0  0  0  0  0  0  0  0
   10.2600   46.7470   52.6610 C   0  0  0  0  0  0  0  0  0  0  0  0
    9.7970   46.8400   53.9770 C   0  0  0  0  0  0  0  0  0  0  0  0
    8.4300   46.9830   54.2310 C   0  0  0  0  0  0  0  0  0  0  0  0
    5.8175   41.6940   50.3315 H   0  0  0  0  0  0  0  0  0  0  0  0
    3.5383   41.1181   51.1675 H   0  0  0  0  0  0  0  0  0  0  0  0
   -0.4527   41.9025   54.2960 H   0  0  0  0  0  0  0  0  0  0  0  0
    2.9247   45.2659   52.2123 H   0  0  0  0  0  0  0  0  0  0  0  0
    6.2602   46.2564   50.9212 H   0  0  0  0  0  0  0  0  0  0  0  0
    4.5668   46.7557   50.5481 H   0  0  0  0  0  0  0  0  0  0  0  0
    3.5648   47.6943   55.2554 H   0  0  0  0  0  0  0  0  0  0  0  0
    7.2781   46.9962   51.0065 H   0  0  0  0  0  0  0  0  0  0  0  0
    9.7217   46.7387   50.5606 H   0  0  0  0  0  0  0  0  0  0  0  0
   11.3357   46.6290   52.4635 H   0  0  0  0  0  0  0  0  0  0  0  0
   10.5098   46.8006   54.8139 H   0  0  0  0  0  0  0  0  0  0  0  0
    8.0701   47.0683   55.2669 H   0  0  0  0  0  0  0  0  0  0  0  0
  1  2  2  0
  2  3  1  0
  3  4  2  0
  4  5  1  0
  5  6  1  0
  6  7  2  0
  7  8  1  0
  8  9  2  0
  9 10  1  0
  5 11  2  0
 11 12  1  0
 12 13  1  0
 13 14  1  0
 14 15  2  0
 15 16  1  0
 16 17  2  0
 17 18  1  0
 18 19  1  0
 19 20  2  0
 20 21  1  0
 21 22  2  0
 22 23  1  0
 23 24  2  0
 12  2  1  0
 18 14  1  0
 24 19  1  0
 10  6  1  0
  3 25  1  0
  4 26  1  0
  9 27  1  0
 11 28  1  0
 13 29  1  0
 13 30  1  0
 16 31  1  0
 20 32  1  0
 21 33  1  0
 22 34  1  0
 23 35  1  0
 24 36  1  0
M  END
>  <meeko>  (2) 
{"is_sidechain": [false], "free_energy": -8.659, "intermolecular_energy": -11.652, "internal_energy": 0.269}

$$$$
ligand_97_conformer_1_docked
     RDKit          3D

 36 39  0  0  0  0  0  0  0  0999 V2000
    4.8210   41.3520   49.7190 O   0  0  0  0  0  0  0  0  0  0  0  0
    5.4240   42.4020   50.0730 C   0  0  0  0  0  0  0  0  0  0  0  0
    6.5270   42.8330   49.3320 C   0  0  0  0  0  0  0  0  0  0  0  0
    7.2120   43.9820   49.7180 C   0  0  0  0  0  0  0  0  0  0  0  0
    6.7830   44.7100   50.8340 C   0  0  0  0  0  0  0  0  0  0  0  0
    7.5120   45.9110   51.2820 C   0  0  0  0  0  0  0  0  0  0  0  0
    8.8520   46.0460   51.2580 N   0  0  0  0  0  0  0  0  0  0  0  0
    9.1120   47.2490   51.7470 N   0  0  0  0  0  0  0  0  0  0  0  0
    7.9240   47.8050   52.0540 C   0  0  0  0  0  0  0  0  0  0  0  0
    6.9400   46.9870   51.7690 O   0  0  0  0  0  0  0  0  0  0  0  0
    5.6580   44.2610   51.5370 C   0  0  0  0  0  0  0  0  0  0  0  0
    5.0080   43.1120   51.1730 N   0  0  0  0  0  0  0  0  0  0  0  0
    3.8890   42.6250   51.9990 C   0  0  0  0  0  0  0  0  0  0  0  0
    2.6020   43.2890   51.5890 C   0  0  0  0  0  0  0  0  0  0  0  0
    1.6670   42.6760   50.8360 N   0  0  0  0  0  0  0  0  0  0  0  0
    0.6550   43.5710   50.8440 C   0  0  0  0  0  0  0  0  0  0  0  0
    0.9390   44.6660   51.5750 N   0  0  0  0  0  0  0  0  0  0  0  0
    2.1650   44.4860   52.0300 N   0  0  0  0  0  0  0  0  0  0  0  0
    2.8370   45.4100   52.8940 C   0  0  0  0  0  0  0  0  0  0  0  0
    3.2170   46.6770   52.4240 C   0  0  0  0  0  0  0  0  0  0  0  0
    3.9050   47.5590   53.2640 C   0  0  0  0  0  0  0  0  0  0  0  0
    4.2070   47.1840   54.5760 C   0  0  0  0  0  0  0  0  0  0  0  0
    3.8130   45.9310   55.0540 C   0  0  0  0  0  0  0  0  0  0  0  0
    3.1220   45.0480   54.2190 C   0  0  0  0  0  0  0  0  0  0  0  0
    6.8530   42.2668   48.4470 H   0  0  0  0  0  0  0  0  0  0  0  0
    8.0898   44.3175   49.1463 H   0  0  0  0  0  0  0  0  0  0  0  0
    7.7969   48.8089   52.4852 H   0  0  0  0  0  0  0  0  0  0  0  0
    5.2903   44.8412   52.3962 H   0  0  0  0  0  0  0  0  0  0  0  0
    3.7915   41.5368   51.8709 H   0  0  0  0  0  0  0  0  0  0  0  0
    4.0936   42.8665   53.0525 H   0  0  0  0  0  0  0  0  0  0  0  0
   -0.2962   43.4218   50.3121 H   0  0  0  0  0  0  0  0  0  0  0  0
    2.9735   46.9766   51.3940 H   0  0  0  0  0  0  0  0  0  0  0  0
    4.2086   48.5485   52.8916 H   0  0  0  0  0  0  0  0  0  0  0  0
    4.7551   47.8754   55.2329 H   0  0  0  0  0  0  0  0  0  0  0  0
    4.0469   45.6393   56.0885 H   0  0  0  0  0  0  0  0  0  0  0  0
    2.8013   44.0678   54.6016 H   0  0  0  0  0  0  0  0  0  0  0  0
  1  2  2  0
  2  3  1  0
  3  4  2  0
  4  5  1  0
  5  6  1  0
  6  7  2  0
  7  8  1  0
  8  9  2  0
  9 10  1  0
  5 11  2  0
 11 12  1  0
 12 13  1  0
 13 14  1  0
 14 15  2  0
 15 16  1  0
 16 17  2  0
 17 18  1  0
 18 19  1  0
 19 20  2  0
 20 21  1  0
 21 22  2  0
 22 23  1  0
 23 24  2  0
 12  2  1  0
 18 14  1  0
 24 19  1  0
 10  6  1  0
  3 25  1  0
  4 26  1  0
  9 27  1  0
 11 28  1  0
 13 29  1  0
 13 30  1  0
 16 31  1  0
 20 32  1  0
 21 33  1  0
 22 34  1  0
 23 35  1  0
 24 36  1  0
M  END
>  <meeko>  (3) 
{"is_sidechain": [false], "free_energy": -8.283, "intermolecular_energy": -10.178, "internal_energy": -0.742}

$$$$
ligand_97_conformer_1_docked
     RDKit          3D

 36 39  0  0  0  0  0  0  0  0999 V2000
    2.6970   45.7590   50.3660 O   0  0  0  0  0  0  0  0  0  0  0  0
    2.1690   45.5960   51.5010 C   0  0  0  0  0  0  0  0  0  0  0  0
    1.0910   44.7170   51.6270 C   0  0  0  0  0  0  0  0  0  0  0  0
    0.4880   44.5370   52.8690 C   0  0  0  0  0  0  0  0  0  0  0  0
    0.9760   45.2200   53.9880 C   0  0  0  0  0  0  0  0  0  0  0  0
    0.3350   45.0720   55.3080 C   0  0  0  0  0  0  0  0  0  0  0  0
    0.9180   45.3840   56.4810 N   0  0  0  0  0  0  0  0  0  0  0  0
    0.0320   45.1000   57.4230 N   0  0  0  0  0  0  0  0  0  0  0  0
   -1.0590   44.6250   56.7940 C   0  0  0  0  0  0  0  0  0  0  0  0
   -0.8780   44.6060   55.4960 O   0  0  0  0  0  0  0  0  0  0  0  0
    2.0760   46.0730   53.8280 C   0  0  0  0  0  0  0  0  0  0  0  0
    2.6430   46.2730   52.5980 N   0  0  0  0  0  0  0  0  0  0  0  0
    3.7350   47.2530   52.4590 C   0  0  0  0  0  0  0  0  0  0  0  0
    4.8980   46.8760   53.3370 C   0  0  0  0  0  0  0  0  0  0  0  0
    5.1550   47.4810   54.5140 N   0  0  0  0  0  0  0  0  0  0  0  0
    6.1740   46.7400   55.0050 C   0  0  0  0  0  0  0  0  0  0  0  0
    6.5150   45.7240   54.1890 N   0  0  0  0  0  0  0  0  0  0  0  0
    5.7180   45.8230   53.1410 N   0  0  0  0  0  0  0  0  0  0  0  0
    5.7240   44.8990   52.0470 C   0  0  0  0  0  0  0  0  0  0  0  0
    4.9540   43.7260   52.1010 C   0  0  0  0  0  0  0  0  0  0  0  0
    4.9940   42.8110   51.0430 C   0  0  0  0  0  0  0  0  0  0  0  0
    5.7950   43.0670   49.9260 C   0  0  0  0  0  0  0  0  0  0  0  0
    6.5480   44.2430   49.8600 C   0  0  0  0  0  0  0  0  0  0  0  0
    6.5080   45.1610   50.9140 C   0  0  0  0  0  0  0  0  0  0  0  0
    0.7198   44.1690   50.7484 H   0  0  0  0  0  0  0  0  0  0  0  0
   -0.3716   43.8581   52.9702 H   0  0  0  0  0  0  0  0  0  0  0  0
   -1.9785   44.2970   57.3009 H   0  0  0  0  0  0  0  0  0  0  0  0
    2.4910   46.5907   54.7054 H   0  0  0  0  0  0  0  0  0  0  0  0
    4.0667   47.2788   51.4105 H   0  0  0  0  0  0  0  0  0  0  0  0
    3.3652   48.2428   52.7648 H   0  0  0  0  0  0  0  0  0  0  0  0
    6.6700   46.9445   55.9653 H   0  0  0  0  0  0  0  0  0  0  0  0
    4.3184   43.5261   52.9763 H   0  0  0  0  0  0  0  0  0  0  0  0
    4.3948   41.8897   51.0902 H   0  0  0  0  0  0  0  0  0  0  0  0
    5.8327   42.3428   49.0989 H   0  0  0  0  0  0  0  0  0  0  0  0
    7.1728   44.4464   48.9778 H   0  0  0  0  0  0  0  0  0  0  0  0
    7.0928   46.0908   50.8544 H   0  0  0  0  0  0  0  0  0  0  0  0
  1  2  2  0
  2  3  1  0
  3  4  2  0
  4  5  1  0
  5  6  1  0
  6  7  2  0
  7  8  1  0
  8  9  2  0
  9 10  1  0
  5 11  2  0
 11 12  1  0
 12 13  1  0
 13 14  1  0
 14 15  2  0
 15 16  1  0
 16 17  2  0
 17 18  1  0
 18 19  1  0
 19 20  2  0
 20 21  1  0
 21 22  2  0
 22 23  1  0
 23 24  2  0
 12  2  1  0
 18 14  1  0
 24 19  1  0
 10  6  1  0
  3 25  1  0
  4 26  1  0
  9 27  1  0
 11 28  1  0
 13 29  1  0
 13 30  1  0
 16 31  1  0
 20 32  1  0
 21 33  1  0
 22 34  1  0
 23 35  1  0
 24 36  1  0
M  END
>  <meeko>  (4) 
{"is_sidechain": [false], "free_energy": -7.938, "intermolecular_energy": -9.5, "internal_energy": -0.994}

$$$$
ligand_97_conformer_1_docked
     RDKit          3D

 36 39  0  0  0  0  0  0  0  0999 V2000
    1.2970   43.0060   50.4360 O   0  0  0  0  0  0  0  0  0  0  0  0
    1.1220   43.4360   51.6100 C   0  0  0  0  0  0  0  0  0  0  0  0
    0.2880   42.7230   52.4750 C   0  0  0  0  0  0  0  0  0  0  0  0
    0.0730   43.1920   53.7690 C   0  0  0  0  0  0  0  0  0  0  0  0
    0.7070   44.3620   54.2020 C   0  0  0  0  0  0  0  0  0  0  0  0
    0.4690   44.8970   55.5560 C   0  0  0  0  0  0  0  0  0  0  0  0
   -0.6500   44.6870   56.2760 N   0  0  0  0  0  0  0  0  0  0  0  0
   -0.4830   45.3350   57.4180 N   0  0  0  0  0  0  0  0  0  0  0  0
    0.7300   45.9170   57.3560 C   0  0  0  0  0  0  0  0  0  0  0  0
    1.3170   45.6510   56.2160 O   0  0  0  0  0  0  0  0  0  0  0  0
    1.5560   45.0350   53.3150 C   0  0  0  0  0  0  0  0  0  0  0  0
    1.7380   44.5880   52.0330 N   0  0  0  0  0  0  0  0  0  0  0  0
    2.5620   45.3810   51.1040 C   0  0  0  0  0  0  0  0  0  0  0  0
    3.8440   45.8070   51.7680 C   0  0  0  0  0  0  0  0  0  0  0  0
    3.9290   46.8810   52.5780 N   0  0  0  0  0  0  0  0  0  0  0  0
    5.1940   46.7930   53.0450 C   0  0  0  0  0  0  0  0  0  0  0  0
    5.8490   45.7180   52.5670 N   0  0  0  0  0  0  0  0  0  0  0  0
    4.9990   45.1110   51.7590 N   0  0  0  0  0  0  0  0  0  0  0  0
    5.2900   43.8880   51.0720 C   0  0  0  0  0  0  0  0  0  0  0  0
    6.2610   43.8550   50.0590 C   0  0  0  0  0  0  0  0  0  0  0  0
    6.5130   42.6640   49.3680 C   0  0  0  0  0  0  0  0  0  0  0  0
    5.8040   41.5040   49.6900 C   0  0  0  0  0  0  0  0  0  0  0  0
    4.8480   41.5290   50.7110 C   0  0  0  0  0  0  0  0  0  0  0  0
    4.5970   42.7150   51.4070 C   0  0  0  0  0  0  0  0  0  0  0  0
   -0.1966   41.7956   52.1358 H   0  0  0  0  0  0  0  0  0  0  0  0
   -0.5944   42.6432   54.4497 H   0  0  0  0  0  0  0  0  0  0  0  0
    1.1685   46.5327   58.1551 H   0  0  0  0  0  0  0  0  0  0  0  0
    2.0857   45.9378   53.6533 H   0  0  0  0  0  0  0  0  0  0  0  0
    2.7979   44.7717   50.2191 H   0  0  0  0  0  0  0  0  0  0  0  0
    1.9997   46.2787   50.8076 H   0  0  0  0  0  0  0  0  0  0  0  0
    5.6399   47.5201   53.7397 H   0  0  0  0  0  0  0  0  0  0  0  0
    6.8244   44.7658   49.8079 H   0  0  0  0  0  0  0  0  0  0  0  0
    7.2702   42.6414   48.5704 H   0  0  0  0  0  0  0  0  0  0  0  0
    5.9975   40.5709   49.1406 H   0  0  0  0  0  0  0  0  0  0  0  0
    4.2931   40.6142   50.9665 H   0  0  0  0  0  0  0  0  0  0  0  0
    3.8548   42.7286   52.2188 H   0  0  0  0  0  0  0  0  0  0  0  0
  1  2  2  0
  2  3  1  0
  3  4  2  0
  4  5  1  0
  5  6  1  0
  6  7  2  0
  7  8  1  0
  8  9  2  0
  9 10  1  0
  5 11  2  0
 11 12  1  0
 12 13  1  0
 13 14  1  0
 14 15  2  0
 15 16  1  0
 16 17  2  0
 17 18  1  0
 18 19  1  0
 19 20  2  0
 20 21  1  0
 21 22  2  0
 22 23  1  0
 23 24  2  0
 12  2  1  0
 18 14  1  0
 24 19  1  0
 10  6  1  0
  3 25  1  0
  4 26  1  0
  9 27  1  0
 11 28  1  0
 13 29  1  0
 13 30  1  0
 16 31  1  0
 20 32  1  0
 21 33  1  0
 22 34  1  0
 23 35  1  0
 24 36  1  0
M  END
>  <meeko>  (5) 
{"is_sidechain": [false], "free_energy": -7.768, "intermolecular_energy": -9.828, "internal_energy": -0.456}

$$$$
