MODEL 1
REMARK VINA RESULT:    -8.286      0.000      0.000
REMARK INTER + INTRA:         -13.782
REMARK INTER:                 -12.161
REMARK INTRA:                  -1.621
REMARK UNBOUND:                -1.621
REMARK SMILES COc1ccc([C@H](NC(=O)c2ccccc2SCC(=O)N2CCCC2)C(F)F)cc1
REMARK SMILES IDX 8 1 9 2 10 3 7 5 6 6 3 7 4 8 30 9 5 10 29 11 2 12 1 13 26 14
REMARK SMILES IDX 27 15 28 16 11 17 12 18 16 19 13 20 15 21 14 22 17 23 18 24
REMARK SMILES IDX 19 25 20 26 21 27 22 28 25 29 23 30 24 31
REMARK H PARENT 8 4
ROOT
ATOM      1  N   UNL     1       5.153  43.332  50.334  1.00  0.00    -0.339 N 
ATOM      2  C   UNL     1       4.219  43.030  51.385  1.00  0.00     0.253 C 
ATOM      3  O   UNL     1       4.226  41.888  51.922  1.00  0.00    -0.269 OA
ATOM      4  H   UNL     1       5.075  44.250  49.846  1.00  0.00     0.164 HD
ENDROOT
BRANCH   1   5
ATOM      5  C   UNL     1       6.015  42.302  49.738  1.00  0.00     0.179 C 
BRANCH   5   6
ATOM      6  C   UNL     1       5.323  41.667  48.546  1.00  0.00    -0.020 A 
ATOM      7  C   UNL     1       4.000  40.553  46.314  1.00  0.00     0.118 A 
ATOM      8  C   UNL     1       5.088  41.430  46.133  1.00  0.00     0.047 A 
ATOM      9  C   UNL     1       3.587  40.239  47.611  1.00  0.00     0.047 A 
ATOM     10  C   UNL     1       5.738  41.984  47.241  1.00  0.00     0.010 A 
ATOM     11  C   UNL     1       4.240  40.787  48.720  1.00  0.00     0.010 A 
BRANCH   7  12
ATOM     12  O   UNL     1       3.308  39.979  45.235  1.00  0.00    -0.497 OA
ATOM     13  C   UNL     1       2.284  40.639  44.496  1.00  0.00     0.278 C 
ENDBRANCH   7  12
ENDBRANCH   5   6
BRANCH   5  14
ATOM     14  C   UNL     1       7.368  42.895  49.332  1.00  0.00     0.369 C 
ATOM     15  F   UNL     1       7.381  44.255  49.596  1.00  0.00    -0.208 F 
ATOM     16  F   UNL     1       8.382  42.291  50.055  1.00  0.00    -0.208 F 
ENDBRANCH   5  14
ENDBRANCH   1   5
BRANCH   2  17
ATOM     17  C   UNL     1       3.183  44.002  51.810  1.00  0.00     0.053 A 
ATOM     18  C   UNL     1       1.967  44.012  51.097  1.00  0.00     0.015 A 
ATOM     19  C   UNL     1       3.313  44.827  52.955  1.00  0.00     0.020 A 
ATOM     20  C   UNL     1       0.905  44.821  51.505  1.00  0.00     0.001 A 
ATOM     21  C   UNL     1       2.221  45.604  53.373  1.00  0.00     0.016 A 
ATOM     22  C   UNL     1       1.031  45.612  52.645  1.00  0.00     0.001 A 
BRANCH  19  23
ATOM     23  S   UNL     1       4.796  44.857  53.977  1.00  0.00    -0.115 SA
BRANCH  23  24
ATOM     24  C   UNL     1       5.343  46.508  53.401  1.00  0.00     0.175 C 
BRANCH  24  25
ATOM     25  C   UNL     1       6.377  46.354  52.322  1.00  0.00     0.232 C 
ATOM     26  O   UNL     1       5.993  46.133  51.140  1.00  0.00    -0.274 OA
ATOM     27  N   UNL     1       7.782  46.484  52.601  1.00  0.00    -0.342 N 
ATOM     28  C   UNL     1       8.801  46.401  51.572  1.00  0.00     0.119 C 
ATOM     29  C   UNL     1       8.329  46.777  53.913  1.00  0.00     0.119 C 
ATOM     30  C   UNL     1      10.102  46.817  52.247  1.00  0.00     0.023 C 
ATOM     31  C   UNL     1       9.841  46.737  53.748  1.00  0.00     0.023 C 
ENDBRANCH  24  25
ENDBRANCH  23  24
ENDBRANCH  19  23
ENDBRANCH   2  17
TORSDOF 8
ENDMDL
MODEL 2
REMARK VINA RESULT:    -8.094      3.320      6.504
REMARK INTER + INTRA:         -13.500
REMARK INTER:                 -11.662
REMARK INTRA:                  -1.838
REMARK UNBOUND:                -1.621
REMARK SMILES COc1ccc([C@H](NC(=O)c2ccccc2SCC(=O)N2CCCC2)C(F)F)cc1
REMARK SMILES IDX 8 1 9 2 10 3 7 5 6 6 3 7 4 8 30 9 5 10 29 11 2 12 1 13 26 14
REMARK SMILES IDX 27 15 28 16 11 17 12 18 16 19 13 20 15 21 14 22 17 23 18 24
REMARK SMILES IDX 19 25 20 26 21 27 22 28 25 29 23 30 24 31
REMARK H PARENT 8 4
ROOT
ATOM      1  N   UNL     1       4.475  45.249  52.971  1.00  0.00    -0.339 N 
ATOM      2  C   UNL     1       4.512  45.032  51.550  1.00  0.00     0.253 C 
ATOM      3  O   UNL     1       3.927  45.839  50.776  1.00  0.00    -0.269 OA
ATOM      4  H   UNL     1       4.891  44.527  53.597  1.00  0.00     0.164 HD
ENDROOT
BRANCH   1   5
ATOM      5  C   UNL     1       3.634  46.290  53.578  1.00  0.00     0.179 C 
BRANCH   5   6
ATOM      6  C   UNL     1       2.334  45.688  54.075  1.00  0.00    -0.020 A 
ATOM      7  C   UNL     1      -0.052  44.499  55.008  1.00  0.00     0.118 A 
ATOM      8  C   UNL     1       0.996  44.793  55.904  1.00  0.00     0.047 A 
ATOM      9  C   UNL     1       0.103  44.807  53.654  1.00  0.00     0.047 A 
ATOM     10  C   UNL     1       2.178  45.378  55.438  1.00  0.00     0.010 A 
ATOM     11  C   UNL     1       1.282  45.397  53.188  1.00  0.00     0.010 A 
BRANCH   7  12
ATOM     12  O   UNL     1      -1.254  43.903  55.425  1.00  0.00    -0.497 OA
ATOM     13  C   UNL     1      -1.884  44.158  56.676  1.00  0.00     0.278 C 
ENDBRANCH   7  12
ENDBRANCH   5   6
BRANCH   5  14
ATOM     14  C   UNL     1       4.380  46.994  54.716  1.00  0.00     0.369 C 
ATOM     15  F   UNL     1       5.642  46.441  54.861  1.00  0.00    -0.208 F 
ATOM     16  F   UNL     1       4.515  48.341  54.427  1.00  0.00    -0.208 F 
ENDBRANCH   5  14
ENDBRANCH   1   5
BRANCH   2  17
ATOM     17  C   UNL     1       5.157  43.833  50.961  1.00  0.00     0.053 A 
ATOM     18  C   UNL     1       4.478  42.604  51.076  1.00  0.00     0.015 A 
ATOM     19  C   UNL     1       6.351  43.888  50.198  1.00  0.00     0.020 A 
ATOM     20  C   UNL     1       4.968  41.455  50.454  1.00  0.00     0.001 A 
ATOM     21  C   UNL     1       6.807  42.730  49.548  1.00  0.00     0.016 A 
ATOM     22  C   UNL     1       6.129  41.519  49.687  1.00  0.00     0.001 A 
BRANCH  19  23
ATOM     23  S   UNL     1       7.275  45.412  49.933  1.00  0.00    -0.115 SA
BRANCH  23  24
ATOM     24  C   UNL     1       8.119  45.361  51.558  1.00  0.00     0.175 C 
BRANCH  24  25
ATOM     25  C   UNL     1       7.823  46.617  52.325  1.00  0.00     0.232 C 
ATOM     26  O   UNL     1       6.789  47.280  52.032  1.00  0.00    -0.274 OA
ATOM     27  N   UNL     1       8.670  47.061  53.400  1.00  0.00    -0.342 N 
ATOM     28  C   UNL     1       8.379  48.236  54.200  1.00  0.00     0.119 C 
ATOM     29  C   UNL     1       9.856  46.356  53.847  1.00  0.00     0.119 C 
ATOM     30  C   UNL     1       9.379  48.210  55.349  1.00  0.00     0.023 C 
ATOM     31  C   UNL     1      10.469  47.226  54.935  1.00  0.00     0.023 C 
ENDBRANCH  24  25
ENDBRANCH  23  24
ENDBRANCH  19  23
ENDBRANCH   2  17
TORSDOF 8
ENDMDL
MODEL 3
REMARK VINA RESULT:    -8.064      3.604      7.330
REMARK INTER + INTRA:         -13.457
REMARK INTER:                 -13.008
REMARK INTRA:                  -0.449
REMARK UNBOUND:                -1.621
REMARK SMILES COc1ccc([C@H](NC(=O)c2ccccc2SCC(=O)N2CCCC2)C(F)F)cc1
REMARK SMILES IDX 8 1 9 2 10 3 7 5 6 6 3 7 4 8 30 9 5 10 29 11 2 12 1 13 26 14
REMARK SMILES IDX 27 15 28 16 11 17 12 18 16 19 13 20 15 21 14 22 17 23 18 24
REMARK SMILES IDX 19 25 20 26 21 27 22 28 25 29 23 30 24 31
REMARK H PARENT 8 4
ROOT
ATOM      1  N   UNL     1       2.109  43.739  52.708  1.00  0.00    -0.339 N 
ATOM      2  C   UNL     1       2.481  43.066  51.493  1.00  0.00     0.253 C 
ATOM      3  O   UNL     1       1.593  42.514  50.785  1.00  0.00    -0.269 OA
ATOM      4  H   UNL     1       2.864  44.115  53.321  1.00  0.00     0.164 HD
ENDROOT
BRANCH   1   5
ATOM      5  C   UNL     1       0.746  43.668  53.252  1.00  0.00     0.179 C 
BRANCH   5   6
ATOM      6  C   UNL     1       0.682  44.374  54.594  1.00  0.00    -0.020 A 
ATOM      7  C   UNL     1       0.524  45.744  57.058  1.00  0.00     0.118 A 
ATOM      8  C   UNL     1      -0.607  45.085  56.535  1.00  0.00     0.047 A 
ATOM      9  C   UNL     1       1.724  45.708  56.344  1.00  0.00     0.047 A 
ATOM     10  C   UNL     1      -0.526  44.411  55.311  1.00  0.00     0.010 A 
ATOM     11  C   UNL     1       1.808  45.028  55.124  1.00  0.00     0.010 A 
BRANCH   7  12
ATOM     12  O   UNL     1       0.491  46.444  58.275  1.00  0.00    -0.497 OA
ATOM     13  C   UNL     1      -0.358  47.556  58.540  1.00  0.00     0.278 C 
ENDBRANCH   7  12
ENDBRANCH   5   6
BRANCH   5  14
ATOM     14  C   UNL     1      -0.262  44.272  52.269  1.00  0.00     0.369 C 
ATOM     15  F   UNL     1      -1.534  43.801  52.555  1.00  0.00    -0.208 F 
ATOM     16  F   UNL     1      -0.262  45.651  52.383  1.00  0.00    -0.208 F 
ENDBRANCH   5  14
ENDBRANCH   1   5
BRANCH   2  17
ATOM     17  C   UNL     1       3.898  42.929  51.080  1.00  0.00     0.053 A 
ATOM     18  C   UNL     1       4.321  41.671  50.605  1.00  0.00     0.015 A 
ATOM     19  C   UNL     1       4.804  44.019  51.032  1.00  0.00     0.020 A 
ATOM     20  C   UNL     1       5.608  41.494  50.097  1.00  0.00     0.001 A 
ATOM     21  C   UNL     1       6.081  43.830  50.481  1.00  0.00     0.016 A 
ATOM     22  C   UNL     1       6.486  42.573  50.031  1.00  0.00     0.001 A 
BRANCH  19  23
ATOM     23  S   UNL     1       4.360  45.684  51.557  1.00  0.00    -0.115 SA
BRANCH  23  24
ATOM     24  C   UNL     1       6.041  46.372  51.313  1.00  0.00     0.175 C 
BRANCH  24  25
ATOM     25  C   UNL     1       6.533  46.981  52.594  1.00  0.00     0.232 C 
ATOM     26  O   UNL     1       5.692  47.477  53.394  1.00  0.00    -0.274 OA
ATOM     27  N   UNL     1       7.930  46.982  52.940  1.00  0.00    -0.342 N 
ATOM     28  C   UNL     1       8.430  47.508  54.196  1.00  0.00     0.119 C 
ATOM     29  C   UNL     1       8.974  46.404  52.116  1.00  0.00     0.119 C 
ATOM     30  C   UNL     1       9.899  47.107  54.254  1.00  0.00     0.023 C 
ATOM     31  C   UNL     1      10.281  46.709  52.831  1.00  0.00     0.023 C 
ENDBRANCH  24  25
ENDBRANCH  23  24
ENDBRANCH  19  23
ENDBRANCH   2  17
TORSDOF 8
ENDMDL
MODEL 4
REMARK VINA RESULT:    -7.974      2.912      6.717
REMARK INTER + INTRA:         -13.324
REMARK INTER:                 -11.955
REMARK INTRA:                  -1.369
REMARK UNBOUND:                -1.621
REMARK SMILES COc1ccc([C@H](NC(=O)c2ccccc2SCC(=O)N2CCCC2)C(F)F)cc1
REMARK SMILES IDX 8 1 9 2 10 3 7 5 6 6 3 7 4 8 30 9 5 10 29 11 2 12 1 13 26 14
REMARK SMILES IDX 27 15 28 16 11 17 12 18 16 19 13 20 15 21 14 22 17 23 18 24
REMARK SMILES IDX 19 25 20 26 21 27 22 28 25 29 23 30 24 31
REMARK H PARENT 8 4
ROOT
ATOM      1  N   UNL     1       5.146  45.738  53.669  1.00  0.00    -0.339 N 
ATOM      2  C   UNL     1       6.070  46.830  53.812  1.00  0.00     0.253 C 
ATOM      3  O   UNL     1       5.720  47.872  54.433  1.00  0.00    -0.269 OA
ATOM      4  H   UNL     1       5.424  44.924  53.081  1.00  0.00     0.164 HD
ENDROOT
BRANCH   1   5
ATOM      5  C   UNL     1       3.738  45.851  54.075  1.00  0.00     0.179 C 
BRANCH   5   6
ATOM      6  C   UNL     1       2.852  45.096  53.104  1.00  0.00    -0.020 A 
ATOM      7  C   UNL     1       1.151  43.747  51.297  1.00  0.00     0.118 A 
ATOM      8  C   UNL     1       1.922  44.845  50.866  1.00  0.00     0.047 A 
ATOM      9  C   UNL     1       1.241  43.333  52.629  1.00  0.00     0.047 A 
ATOM     10  C   UNL     1       2.761  45.514  51.765  1.00  0.00     0.010 A 
ATOM     11  C   UNL     1       2.084  43.996  53.526  1.00  0.00     0.010 A 
BRANCH   7  12
ATOM     12  O   UNL     1       0.287  43.050  50.437  1.00  0.00    -0.497 OA
ATOM     13  C   UNL     1      -1.134  43.130  50.490  1.00  0.00     0.278 C 
ENDBRANCH   7  12
ENDBRANCH   5   6
BRANCH   5  14
ATOM     14  C   UNL     1       3.544  45.336  55.505  1.00  0.00     0.369 C 
ATOM     15  F   UNL     1       4.763  44.933  56.027  1.00  0.00    -0.208 F 
ATOM     16  F   UNL     1       3.030  46.344  56.302  1.00  0.00    -0.208 F 
ENDBRANCH   5  14
ENDBRANCH   1   5
BRANCH   2  17
ATOM     17  C   UNL     1       7.411  46.805  53.179  1.00  0.00     0.053 A 
ATOM     18  C   UNL     1       8.509  47.215  53.960  1.00  0.00     0.015 A 
ATOM     19  C   UNL     1       7.649  46.287  51.881  1.00  0.00     0.020 A 
ATOM     20  C   UNL     1       9.812  47.117  53.471  1.00  0.00     0.001 A 
ATOM     21  C   UNL     1       8.969  46.159  51.421  1.00  0.00     0.016 A 
ATOM     22  C   UNL     1      10.042  46.584  52.204  1.00  0.00     0.001 A 
BRANCH  19  23
ATOM     23  S   UNL     1       6.331  45.680  50.812  1.00  0.00    -0.115 SA
BRANCH  23  24
ATOM     24  C   UNL     1       6.726  43.910  51.075  1.00  0.00     0.175 C 
BRANCH  24  25
ATOM     25  C   UNL     1       6.531  43.149  49.796  1.00  0.00     0.232 C 
ATOM     26  O   UNL     1       7.368  43.303  48.863  1.00  0.00    -0.274 OA
ATOM     27  N   UNL     1       5.436  42.232  49.624  1.00  0.00    -0.342 N 
ATOM     28  C   UNL     1       5.254  41.438  48.424  1.00  0.00     0.119 C 
ATOM     29  C   UNL     1       4.443  41.950  50.642  1.00  0.00     0.119 C 
ATOM     30  C   UNL     1       4.136  40.455  48.747  1.00  0.00     0.023 C 
ATOM     31  C   UNL     1       3.447  40.998  49.995  1.00  0.00     0.023 C 
ENDBRANCH  24  25
ENDBRANCH  23  24
ENDBRANCH  19  23
ENDBRANCH   2  17
TORSDOF 8
ENDMDL
MODEL 5
REMARK VINA RESULT:    -7.636      2.833      7.785
REMARK INTER + INTRA:         -12.829
REMARK INTER:                 -12.324
REMARK INTRA:                  -0.504
REMARK UNBOUND:                -1.621
REMARK SMILES COc1ccc([C@H](NC(=O)c2ccccc2SCC(=O)N2CCCC2)C(F)F)cc1
REMARK SMILES IDX 8 1 9 2 10 3 7 5 6 6 3 7 4 8 30 9 5 10 29 11 2 12 1 13 26 14
REMARK SMILES IDX 27 15 28 16 11 17 12 18 16 19 13 20 15 21 14 22 17 23 18 24
REMARK SMILES IDX 19 25 20 26 21 27 22 28 25 29 23 30 24 31
REMARK H PARENT 8 4
ROOT
ATOM      1  N   UNL     1       4.480  46.374  51.786  1.00  0.00    -0.339 N 
ATOM      2  C   UNL     1       5.303  45.209  51.970  1.00  0.00     0.253 C 
ATOM      3  O   UNL     1       5.309  44.614  53.084  1.00  0.00    -0.269 OA
ATOM      4  H   UNL     1       4.554  46.900  50.889  1.00  0.00     0.164 HD
ENDROOT
BRANCH   1   5
ATOM      5  C   UNL     1       3.764  47.006  52.903  1.00  0.00     0.179 C 
BRANCH   5   6
ATOM      6  C   UNL     1       2.612  46.127  53.350  1.00  0.00    -0.020 A 
ATOM      7  C   UNL     1       0.513  44.428  54.176  1.00  0.00     0.118 A 
ATOM      8  C   UNL     1       1.555  44.758  55.065  1.00  0.00     0.047 A 
ATOM      9  C   UNL     1       0.529  44.956  52.882  1.00  0.00     0.047 A 
ATOM     10  C   UNL     1       2.596  45.596  54.651  1.00  0.00     0.010 A 
ATOM     11  C   UNL     1       1.566  45.799  52.469  1.00  0.00     0.010 A 
BRANCH   7  12
ATOM     12  O   UNL     1      -0.548  43.583  54.540  1.00  0.00    -0.497 OA
ATOM     13  C   UNL     1      -1.595  43.949  55.434  1.00  0.00     0.278 C 
ENDBRANCH   7  12
ENDBRANCH   5   6
BRANCH   5  14
ATOM     14  C   UNL     1       4.719  47.290  54.068  1.00  0.00     0.369 C 
ATOM     15  F   UNL     1       5.972  47.619  53.577  1.00  0.00    -0.208 F 
ATOM     16  F   UNL     1       4.242  48.350  54.818  1.00  0.00    -0.208 F 
ENDBRANCH   5  14
ENDBRANCH   1   5
BRANCH   2  17
ATOM     17  C   UNL     1       6.216  44.724  50.908  1.00  0.00     0.053 A 
ATOM     18  C   UNL     1       7.371  45.486  50.642  1.00  0.00     0.015 A 
ATOM     19  C   UNL     1       6.043  43.486  50.238  1.00  0.00     0.020 A 
ATOM     20  C   UNL     1       8.331  45.037  49.733  1.00  0.00     0.001 A 
ATOM     21  C   UNL     1       7.038  43.032  49.358  1.00  0.00     0.016 A 
ATOM     22  C   UNL     1       8.167  43.809  49.096  1.00  0.00     0.001 A 
BRANCH  19  23
ATOM     23  S   UNL     1       4.636  42.399  50.538  1.00  0.00    -0.115 SA
BRANCH  23  24
ATOM     24  C   UNL     1       5.238  41.067  49.433  1.00  0.00     0.175 C 
BRANCH  24  25
ATOM     25  C   UNL     1       4.143  40.651  48.494  1.00  0.00     0.232 C 
ATOM     26  O   UNL     1       3.121  40.081  48.966  1.00  0.00    -0.274 OA
ATOM     27  N   UNL     1       4.220  40.916  47.082  1.00  0.00    -0.342 N 
ATOM     28  C   UNL     1       3.153  40.582  46.157  1.00  0.00     0.119 C 
ATOM     29  C   UNL     1       5.327  41.600  46.441  1.00  0.00     0.119 C 
ATOM     30  C   UNL     1       3.537  41.231  44.834  1.00  0.00     0.023 C 
ATOM     31  C   UNL     1       5.018  41.579  44.951  1.00  0.00     0.023 C 
ENDBRANCH  24  25
ENDBRANCH  23  24
ENDBRANCH  19  23
ENDBRANCH   2  17
TORSDOF 8
ENDMDL
