MODEL 1
REMARK VINA RESULT:    -9.380      0.000      0.000
REMARK INTER + INTRA:         -10.904
REMARK INTER:                 -11.025
REMARK INTRA:                   0.120
REMARK UNBOUND:                 0.120
REMARK SMILES Cn1c(=O)n(C)c2cc(S(=O)(=O)Nc3ccc4c(c3)NCC4)c(Br)cc21
REMARK SMILES IDX 10 1 11 2 12 3 9 4 2 5 3 6 26 7 4 8 5 9 25 10 7 11 23 12
REMARK SMILES IDX 8 13 1 14 6 15 24 16 13 17 14 19 15 20 19 21 16 22 18 23
REMARK SMILES IDX 17 24 20 25 22 26 21 27
REMARK H PARENT 13 18 20 28
ROOT
ATOM      1  S   UNL     1       5.132  47.138  53.988  1.00  0.00     0.263 S 
ATOM      2  O   UNL     1       4.632  48.480  53.529  1.00  0.00    -0.201 OA
ATOM      3  O   UNL     1       6.284  47.349  54.934  1.00  0.00    -0.201 OA
ENDROOT
BRANCH   1   4
ATOM      4  C   UNL     1       5.699  46.171  52.621  1.00  0.00     0.104 A 
ATOM      5  N   UNL     1       6.936  43.595  49.657  1.00  0.00    -0.295 N 
ATOM      6  C   UNL     1       5.974  42.659  49.851  1.00  0.00     0.328 A 
ATOM      7  C   UNL     1       6.645  44.553  50.561  1.00  0.00     0.070 A 
ATOM      8  O   UNL     1       5.937  41.565  49.227  1.00  0.00    -0.248 OA
ATOM      9  N   UNL     1       5.075  43.009  50.803  1.00  0.00    -0.295 N 
ATOM     10  C   UNL     1       7.351  45.717  50.856  1.00  0.00     0.045 A 
ATOM     11  C   UNL     1       5.517  44.199  51.252  1.00  0.00     0.070 A 
ATOM     12  C   UNL     1       6.869  46.540  51.893  1.00  0.00     0.040 A 
ATOM     13  C   UNL     1       5.013  44.982  52.291  1.00  0.00     0.052 A 
ATOM     14  C   UNL     1       8.110  43.495  48.794  1.00  0.00     0.155 C 
ATOM     15  C   UNL     1       3.971  42.203  51.333  1.00  0.00     0.155 C 
ATOM     16  Br  UNL     1       7.855  48.140  52.281  1.00  0.00    -0.049 Br
ENDBRANCH   1   4
BRANCH   1  17
ATOM     17  N   UNL     1       3.849  46.303  54.813  1.00  0.00    -0.280 N 
ATOM     18  H   UNL     1       3.966  46.115  55.838  1.00  0.00     0.180 HD
BRANCH  17  19
ATOM     19  C   UNL     1       2.776  45.670  54.103  1.00  0.00     0.051 A 
ATOM     20  C   UNL     1       2.050  46.364  53.103  1.00  0.00     0.027 A 
ATOM     21  C   UNL     1       2.450  44.330  54.389  1.00  0.00     0.052 A 
ATOM     22  C   UNL     1       1.039  45.713  52.374  1.00  0.00     0.008 A 
ATOM     23  C   UNL     1       1.448  43.713  53.642  1.00  0.00     0.039 A 
ATOM     24  C   UNL     1       0.767  44.376  52.663  1.00  0.00    -0.023 A 
ATOM     25  N   UNL     1       1.030  42.370  53.736  1.00  0.00    -0.384 N 
ATOM     26  C   UNL     1      -0.229  43.474  52.011  1.00  0.00     0.059 C 
ATOM     27  C   UNL     1       0.025  42.114  52.705  1.00  0.00     0.117 C 
ATOM     28  H   UNL     1       1.443  41.652  54.375  1.00  0.00     0.160 HD
ENDBRANCH  17  19
ENDBRANCH   1  17
TORSDOF 3
ENDMDL
MODEL 2
REMARK VINA RESULT:    -9.294      3.292      7.354
REMARK INTER + INTRA:         -10.803
REMARK INTER:                 -10.515
REMARK INTRA:                  -0.289
REMARK UNBOUND:                 0.120
REMARK SMILES Cn1c(=O)n(C)c2cc(S(=O)(=O)Nc3ccc4c(c3)NCC4)c(Br)cc21
REMARK SMILES IDX 10 1 11 2 12 3 9 4 2 5 3 6 26 7 4 8 5 9 25 10 7 11 23 12
REMARK SMILES IDX 8 13 1 14 6 15 24 16 13 17 14 19 15 20 19 21 16 22 18 23
REMARK SMILES IDX 17 24 20 25 22 26 21 27
REMARK H PARENT 13 18 20 28
ROOT
ATOM      1  S   UNL     1       3.227  45.906  52.015  1.00  0.00     0.263 S 
ATOM      2  O   UNL     1       3.630  47.257  52.538  1.00  0.00    -0.201 OA
ATOM      3  O   UNL     1       2.831  46.046  50.569  1.00  0.00    -0.201 OA
ENDROOT
BRANCH   1   4
ATOM      4  C   UNL     1       1.848  45.263  52.914  1.00  0.00     0.104 A 
ATOM      5  N   UNL     1      -1.598  43.964  54.756  1.00  0.00    -0.295 N 
ATOM      6  C   UNL     1      -2.327  43.796  53.625  1.00  0.00     0.328 A 
ATOM      7  C   UNL     1      -0.393  44.373  54.310  1.00  0.00     0.070 A 
ATOM      8  O   UNL     1      -3.544  43.472  53.628  1.00  0.00    -0.248 OA
ATOM      9  N   UNL     1      -1.619  44.040  52.494  1.00  0.00    -0.295 N 
ATOM     10  C   UNL     1       0.723  44.766  55.045  1.00  0.00     0.045 A 
ATOM     11  C   UNL     1      -0.405  44.415  52.940  1.00  0.00     0.070 A 
ATOM     12  C   UNL     1       1.860  45.210  54.340  1.00  0.00     0.040 A 
ATOM     13  C   UNL     1       0.696  44.856  52.207  1.00  0.00     0.052 A 
ATOM     14  C   UNL     1      -2.072  43.893  56.136  1.00  0.00     0.155 C 
ATOM     15  C   UNL     1      -2.111  44.049  51.114  1.00  0.00     0.155 C 
ATOM     16  Br  UNL     1       3.386  45.744  55.373  1.00  0.00    -0.049 Br
ENDBRANCH   1   4
BRANCH   1  17
ATOM     17  N   UNL     1       4.578  44.818  52.144  1.00  0.00    -0.280 N 
ATOM     18  H   UNL     1       4.389  43.837  52.463  1.00  0.00     0.180 HD
BRANCH  17  19
ATOM     19  C   UNL     1       5.934  45.279  52.062  1.00  0.00     0.051 A 
ATOM     20  C   UNL     1       6.618  45.322  50.822  1.00  0.00     0.027 A 
ATOM     21  C   UNL     1       6.590  45.714  53.230  1.00  0.00     0.052 A 
ATOM     22  C   UNL     1       7.927  45.830  50.747  1.00  0.00     0.008 A 
ATOM     23  C   UNL     1       7.884  46.220  53.119  1.00  0.00     0.039 A 
ATOM     24  C   UNL     1       8.533  46.283  51.920  1.00  0.00    -0.023 A 
ATOM     25  N   UNL     1       8.672  46.760  54.155  1.00  0.00    -0.384 N 
ATOM     26  C   UNL     1       9.889  46.885  52.086  1.00  0.00     0.059 C 
ATOM     27  C   UNL     1       9.923  47.262  53.587  1.00  0.00     0.117 C 
ATOM     28  H   UNL     1       8.368  46.870  55.150  1.00  0.00     0.160 HD
ENDBRANCH  17  19
ENDBRANCH   1  17
TORSDOF 3
ENDMDL
MODEL 3
REMARK VINA RESULT:    -9.021      2.897      3.486
REMARK INTER + INTRA:         -10.483
REMARK INTER:                 -10.275
REMARK INTRA:                  -0.208
REMARK UNBOUND:                 0.120
REMARK SMILES Cn1c(=O)n(C)c2cc(S(=O)(=O)Nc3ccc4c(c3)NCC4)c(Br)cc21
REMARK SMILES IDX 10 1 11 2 12 3 9 4 2 5 3 6 26 7 4 8 5 9 25 10 7 11 23 12
REMARK SMILES IDX 8 13 1 14 6 15 24 16 13 17 14 19 15 20 19 21 16 22 18 23
REMARK SMILES IDX 17 24 20 25 22 26 21 27
REMARK H PARENT 13 18 20 28
ROOT
ATOM      1  S   UNL     1       2.711  45.154  52.280  1.00  0.00     0.263 S 
ATOM      2  O   UNL     1       2.044  44.352  51.196  1.00  0.00    -0.201 OA
ATOM      3  O   UNL     1       2.025  46.489  52.386  1.00  0.00    -0.201 OA
ENDROOT
BRANCH   1   4
ATOM      4  C   UNL     1       4.417  45.429  51.907  1.00  0.00     0.104 A 
ATOM      5  N   UNL     1       8.427  45.673  51.002  1.00  0.00    -0.295 N 
ATOM      6  C   UNL     1       8.438  44.688  50.070  1.00  0.00     0.328 A 
ATOM      7  C   UNL     1       7.136  45.741  51.389  1.00  0.00     0.070 A 
ATOM      8  O   UNL     1       9.488  44.280  49.507  1.00  0.00    -0.248 OA
ATOM      9  N   UNL     1       7.208  44.169  49.829  1.00  0.00    -0.295 N 
ATOM     10  C   UNL     1       6.564  46.531  52.383  1.00  0.00     0.045 A 
ATOM     11  C   UNL     1       6.399  44.833  50.676  1.00  0.00     0.070 A 
ATOM     12  C   UNL     1       5.187  46.379  52.641  1.00  0.00     0.040 A 
ATOM     13  C   UNL     1       5.036  44.647  50.908  1.00  0.00     0.052 A 
ATOM     14  C   UNL     1       9.578  46.365  51.575  1.00  0.00     0.155 C 
ATOM     15  C   UNL     1       6.868  43.037  48.963  1.00  0.00     0.155 C 
ATOM     16  Br  UNL     1       4.419  47.479  54.013  1.00  0.00    -0.049 Br
ENDBRANCH   1   4
BRANCH   1  17
ATOM     17  N   UNL     1       2.565  44.304  53.790  1.00  0.00    -0.280 N 
ATOM     18  H   UNL     1       3.231  43.515  53.976  1.00  0.00     0.180 HD
BRANCH  17  19
ATOM     19  C   UNL     1       1.438  44.488  54.659  1.00  0.00     0.051 A 
ATOM     20  C   UNL     1       1.582  45.116  55.920  1.00  0.00     0.027 A 
ATOM     21  C   UNL     1       0.164  44.056  54.242  1.00  0.00     0.052 A 
ATOM     22  C   UNL     1       0.459  45.342  56.736  1.00  0.00     0.008 A 
ATOM     23  C   UNL     1      -0.928  44.304  55.072  1.00  0.00     0.039 A 
ATOM     24  C   UNL     1      -0.791  44.930  56.276  1.00  0.00    -0.023 A 
ATOM     25  N   UNL     1      -2.280  44.008  54.800  1.00  0.00    -0.384 N 
ATOM     26  C   UNL     1      -2.118  45.086  56.943  1.00  0.00     0.059 C 
ATOM     27  C   UNL     1      -3.106  44.523  55.892  1.00  0.00     0.117 C 
ATOM     28  H   UNL     1      -2.638  43.579  53.916  1.00  0.00     0.160 HD
ENDBRANCH  17  19
ENDBRANCH   1  17
TORSDOF 3
ENDMDL
MODEL 4
REMARK VINA RESULT:    -8.970      1.695      1.940
REMARK INTER + INTRA:         -10.422
REMARK INTER:                 -10.579
REMARK INTRA:                   0.156
REMARK UNBOUND:                 0.120
REMARK SMILES Cn1c(=O)n(C)c2cc(S(=O)(=O)Nc3ccc4c(c3)NCC4)c(Br)cc21
REMARK SMILES IDX 10 1 11 2 12 3 9 4 2 5 3 6 26 7 4 8 5 9 25 10 7 11 23 12
REMARK SMILES IDX 8 13 1 14 6 15 24 16 13 17 14 19 15 20 19 21 16 22 18 23
REMARK SMILES IDX 17 24 20 25 22 26 21 27
REMARK H PARENT 13 18 20 28
ROOT
ATOM      1  S   UNL     1       5.203  46.689  54.211  1.00  0.00     0.263 S 
ATOM      2  O   UNL     1       4.293  47.835  53.865  1.00  0.00    -0.201 OA
ATOM      3  O   UNL     1       6.413  47.230  54.924  1.00  0.00    -0.201 OA
ENDROOT
BRANCH   1   4
ATOM      4  C   UNL     1       5.741  45.845  52.754  1.00  0.00     0.104 A 
ATOM      5  N   UNL     1       6.943  43.539  49.562  1.00  0.00    -0.295 N 
ATOM      6  C   UNL     1       6.044  42.540  49.741  1.00  0.00     0.328 A 
ATOM      7  C   UNL     1       6.655  44.418  50.542  1.00  0.00     0.070 A 
ATOM      8  O   UNL     1       6.029  41.489  49.048  1.00  0.00    -0.248 OA
ATOM      9  N   UNL     1       5.181  42.778  50.761  1.00  0.00    -0.295 N 
ATOM     10  C   UNL     1       7.314  45.598  50.879  1.00  0.00     0.045 A 
ATOM     11  C   UNL     1       5.586  43.959  51.266  1.00  0.00     0.070 A 
ATOM     12  C   UNL     1       6.849  46.324  51.993  1.00  0.00     0.040 A 
ATOM     13  C   UNL     1       5.101  44.644  52.380  1.00  0.00     0.052 A 
ATOM     14  C   UNL     1       8.072  43.559  48.635  1.00  0.00     0.155 C 
ATOM     15  C   UNL     1       4.152  41.879  51.291  1.00  0.00     0.155 C 
ATOM     16  Br  UNL     1       7.771  47.948  52.437  1.00  0.00    -0.049 Br
ENDBRANCH   1   4
BRANCH   1  17
ATOM     17  N   UNL     1       4.357  45.585  55.256  1.00  0.00    -0.280 N 
ATOM     18  H   UNL     1       4.928  44.941  55.854  1.00  0.00     0.180 HD
BRANCH  17  19
ATOM     19  C   UNL     1       2.943  45.370  55.147  1.00  0.00     0.051 A 
ATOM     20  C   UNL     1       2.387  44.712  54.023  1.00  0.00     0.027 A 
ATOM     21  C   UNL     1       2.095  45.801  56.185  1.00  0.00     0.052 A 
ATOM     22  C   UNL     1       1.006  44.456  53.956  1.00  0.00     0.008 A 
ATOM     23  C   UNL     1       0.732  45.524  56.092  1.00  0.00     0.039 A 
ATOM     24  C   UNL     1       0.202  44.869  55.019  1.00  0.00    -0.023 A 
ATOM     25  N   UNL     1      -0.258  45.814  57.053  1.00  0.00    -0.384 N 
ATOM     26  C   UNL     1      -1.271  44.685  55.188  1.00  0.00     0.059 C 
ATOM     27  C   UNL     1      -1.535  45.266  56.599  1.00  0.00     0.117 C 
ATOM     28  H   UNL     1      -0.084  46.262  57.982  1.00  0.00     0.160 HD
ENDBRANCH  17  19
ENDBRANCH   1  17
TORSDOF 3
ENDMDL
MODEL 5
REMARK VINA RESULT:    -8.914      3.042      4.667
REMARK INTER + INTRA:         -10.357
REMARK INTER:                 -10.610
REMARK INTRA:                   0.254
REMARK UNBOUND:                 0.120
REMARK SMILES Cn1c(=O)n(C)c2cc(S(=O)(=O)Nc3ccc4c(c3)NCC4)c(Br)cc21
REMARK SMILES IDX 10 1 11 2 12 3 9 4 2 5 3 6 26 7 4 8 5 9 25 10 7 11 23 12
REMARK SMILES IDX 8 13 1 14 6 15 24 16 13 17 14 19 15 20 19 21 16 22 18 23
REMARK SMILES IDX 17 24 20 25 22 26 21 27
REMARK H PARENT 13 18 20 28
ROOT
ATOM      1  S   UNL     1       2.352  43.094  51.407  1.00  0.00     0.263 S 
ATOM      2  O   UNL     1       2.453  41.936  50.453  1.00  0.00    -0.201 OA
ATOM      3  O   UNL     1       1.333  44.068  50.879  1.00  0.00    -0.201 OA
ENDROOT
BRANCH   1   4
ATOM      4  C   UNL     1       3.902  43.929  51.557  1.00  0.00     0.104 A 
ATOM      5  N   UNL     1       7.313  46.216  51.852  1.00  0.00    -0.295 N 
ATOM      6  C   UNL     1       6.755  47.244  52.537  1.00  0.00     0.328 A 
ATOM      7  C   UNL     1       6.300  45.340  51.695  1.00  0.00     0.070 A 
ATOM      8  O   UNL     1       7.376  48.301  52.827  1.00  0.00    -0.248 OA
ATOM      9  N   UNL     1       5.453  47.030  52.851  1.00  0.00    -0.295 N 
ATOM     10  C   UNL     1       6.289  44.135  50.997  1.00  0.00     0.045 A 
ATOM     11  C   UNL     1       5.175  45.831  52.304  1.00  0.00     0.070 A 
ATOM     12  C   UNL     1       5.077  43.417  50.932  1.00  0.00     0.040 A 
ATOM     13  C   UNL     1       3.956  45.155  52.255  1.00  0.00     0.052 A 
ATOM     14  C   UNL     1       8.651  46.163  51.267  1.00  0.00     0.155 C 
ATOM     15  C   UNL     1       4.522  47.960  53.497  1.00  0.00     0.155 C 
ATOM     16  Br  UNL     1       5.085  41.759  49.966  1.00  0.00    -0.049 Br
ENDBRANCH   1   4
BRANCH   1  17
ATOM     17  N   UNL     1       1.842  42.508  52.963  1.00  0.00    -0.280 N 
ATOM     18  H   UNL     1       1.928  41.480  53.153  1.00  0.00     0.180 HD
BRANCH  17  19
ATOM     19  C   UNL     1       1.104  43.329  53.879  1.00  0.00     0.051 A 
ATOM     20  C   UNL     1      -0.312  43.312  53.901  1.00  0.00     0.027 A 
ATOM     21  C   UNL     1       1.800  44.152  54.786  1.00  0.00     0.052 A 
ATOM     22  C   UNL     1      -1.021  44.078  54.843  1.00  0.00     0.008 A 
ATOM     23  C   UNL     1       1.066  44.892  55.712  1.00  0.00     0.039 A 
ATOM     24  C   UNL     1      -0.297  44.856  55.746  1.00  0.00    -0.023 A 
ATOM     25  N   UNL     1       1.582  45.715  56.734  1.00  0.00    -0.384 N 
ATOM     26  C   UNL     1      -0.820  45.721  56.846  1.00  0.00     0.059 C 
ATOM     27  C   UNL     1       0.470  46.226  57.537  1.00  0.00     0.117 C 
ATOM     28  H   UNL     1       2.597  45.857  56.941  1.00  0.00     0.160 HD
ENDBRANCH  17  19
ENDBRANCH   1  17
TORSDOF 3
ENDMDL
