ligand_28_conformer_2_docked
     RDKit          3D

 55 60  0  0  0  0  0  0  0  0999 V2000
    9.6340   47.3690   54.6530 C   0  0  0  0  0  0  0  0  0  0  0  0
    9.3950   46.8500   53.2730 C   0  0  0  0  0  0  0  0  0  0  0  0
   10.3500   46.6380   52.2800 C   0  0  0  0  0  0  0  0  0  0  0  0
    9.7710   46.1180   51.1720 N   0  0  0  0  0  0  0  0  0  0  0  0
    8.4660   45.9990   51.4700 C   0  0  0  0  0  0  0  0  0  0  0  0
    7.5050   45.4950   50.6580 N   0  0  0  0  0  0  0  0  0  0  0  0
    6.2200   45.4200   51.1170 C   0  0  0  0  0  0  0  0  0  0  0  0
    5.8830   45.8650   52.4250 C   0  0  0  0  0  0  0  0  0  0  0  0
    4.4850   45.7650   52.9080 C   0  0  0  0  0  0  0  0  0  0  0  0
    3.9050   46.7980   53.3410 O   0  0  0  0  0  0  0  0  0  0  0  0
    3.7860   44.5120   52.9020 N   0  0  0  0  0  0  0  0  0  0  0  0
    2.3760   44.4310   53.2680 C   0  0  1  0  0  0  0  0  0  0  0  0
    1.4590   44.2780   52.0610 C   0  0  2  0  0  0  0  0  0  0  0  0
    0.0060   44.6720   52.2820 C   0  0  0  0  0  0  0  0  0  0  0  0
   -0.5260   43.7340   53.2580 N   0  0  0  0  0  0  0  0  0  0  0  0
   -1.8040   43.9230   53.8920 C   0  0  0  0  0  0  0  0  0  0  0  0
   -2.7820   43.2070   53.5420 O   0  0  0  0  0  0  0  0  0  0  0  0
   -2.0080   44.9440   54.9380 C   0  0  0  0  0  0  0  0  0  0  0  0
   -3.2750   45.5680   55.0760 C   0  0  0  0  0  0  0  0  0  0  0  0
   -3.4940   46.5380   56.0730 C   0  0  0  0  0  0  0  0  0  0  0  0
   -2.4360   46.8470   56.9210 C   0  0  0  0  0  0  0  0  0  0  0  0
   -2.4270   47.7510   57.9180 N   0  0  0  0  0  0  0  0  0  0  0  0
   -1.1630   47.6510   58.4010 C   0  0  0  0  0  0  0  0  0  0  0  0
   -0.6830   48.4780   59.4620 N   0  0  0  0  0  0  0  0  0  0  0  0
   -0.4030   46.7210   57.7620 N   0  0  0  0  0  0  0  0  0  0  0  0
    1.0130   46.4220   57.9760 C   0  0  0  0  0  0  0  0  0  0  0  0
   -1.2200   46.2340   56.8120 C   0  0  0  0  0  0  0  0  0  0  0  0
   -0.9640   45.2730   55.8320 C   0  0  0  0  0  0  0  0  0  0  0  0
    0.4600   42.7580   53.7030 C   0  0  0  0  0  0  0  0  0  0  0  0
    1.7460   43.0810   52.9580 C   0  0  2  0  0  0  0  0  0  0  0  0
    6.9080   46.3740   53.2570 C   0  0  0  0  0  0  0  0  0  0  0  0
    8.1970   46.4300   52.7350 C   0  0  0  0  0  0  0  0  0  0  0  0
    9.2919   46.6261   55.3885 H   0  0  0  0  0  0  0  0  0  0  0  0
   10.7089   47.5559   54.7934 H   0  0  0  0  0  0  0  0  0  0  0  0
    9.0773   48.3073   54.7934 H   0  0  0  0  0  0  0  0  0  0  0  0
   11.4222   46.8615   52.3821 H   0  0  0  0  0  0  0  0  0  0  0  0
   10.2440   45.8530   50.2800 H   0  0  0  0  0  0  0  0  0  0  0  0
    5.4348   45.0094   50.4652 H   0  0  0  0  0  0  0  0  0  0  0  0
    4.3110   43.6190   52.7740 H   0  0  0  0  0  0  0  0  0  0  0  0
    2.4109   45.0893   54.1486 H   0  0  0  0  0  0  0  0  0  0  0  0
    1.5726   44.5725   51.0073 H   0  0  0  0  0  0  0  0  0  0  0  0
   -0.0556   45.7000   52.6685 H   0  0  0  0  0  0  0  0  0  0  0  0
   -0.5651   44.6391   51.3424 H   0  0  0  0  0  0  0  0  0  0  0  0
   -4.0948   45.2910   54.3969 H   0  0  0  0  0  0  0  0  0  0  0  0
   -4.4698   47.0349   56.1776 H   0  0  0  0  0  0  0  0  0  0  0  0
   -1.2450   48.6360   60.3260 H   0  0  0  0  0  0  0  0  0  0  0  0
    0.2570   48.9250   59.3890 H   0  0  0  0  0  0  0  0  0  0  0  0
    1.2195   46.3784   59.0556 H   0  0  0  0  0  0  0  0  0  0  0  0
    1.2566   45.4526   57.5167 H   0  0  0  0  0  0  0  0  0  0  0  0
    1.6277   47.2102   57.5167 H   0  0  0  0  0  0  0  0  0  0  0  0
    0.0200   44.7869   55.7580 H   0  0  0  0  0  0  0  0  0  0  0  0
    0.6170   42.8428   54.7884 H   0  0  0  0  0  0  0  0  0  0  0  0
    0.1262   41.7301   53.4978 H   0  0  0  0  0  0  0  0  0  0  0  0
    2.1748   42.0706   52.8856 H   0  0  0  0  0  0  0  0  0  0  0  0
    6.6935   46.7137   54.2810 H   0  0  0  0  0  0  0  0  0  0  0  0
  1  2  1  0
  2  3  2  0
  3  4  1  0
  4  5  1  0
  5  6  2  0
  6  7  1  0
  7  8  2  0
  8  9  1  0
  9 10  2  0
  9 11  1  0
 11 12  1  0
 12 13  1  0
 13 14  1  0
 14 15  1  0
 15 16  1  0
 16 17  2  0
 16 18  1  0
 18 19  2  0
 19 20  1  0
 20 21  2  0
 21 22  1  0
 22 23  2  0
 23 24  1  0
 23 25  1  0
 25 26  1  0
 25 27  1  0
 27 28  2  0
 15 29  1  0
 29 30  1  0
  8 31  1  0
 31 32  2  0
 32  2  1  0
 32  5  1  0
 30 12  1  0
 30 13  1  0
 28 18  1  0
 27 21  1  0
  1 33  1  0
  1 34  1  0
  1 35  1  0
  3 36  1  0
  4 37  1  0
  7 38  1  0
 11 39  1  0
 12 40  1  1
 13 41  1  6
 14 42  1  0
 14 43  1  0
 19 44  1  0
 20 45  1  0
 24 46  1  0
 24 47  1  0
 26 48  1  0
 26 49  1  0
 26 50  1  0
 28 51  1  0
 29 52  1  0
 29 53  1  0
 30 54  1  6
 31 55  1  0
M  END
>  <meeko>  (1) 
{"is_sidechain": [false], "free_energy": -9.407, "intermolecular_energy": -11.882, "internal_energy": -0.766}

$$$$
ligand_28_conformer_2_docked
     RDKit          3D

 55 60  0  0  0  0  0  0  0  0999 V2000
   -2.4350   47.2930   58.6460 C   0  0  0  0  0  0  0  0  0  0  0  0
   -2.8070   46.0120   57.9730 C   0  0  0  0  0  0  0  0  0  0  0  0
   -3.9520   45.2500   58.1980 C   0  0  0  0  0  0  0  0  0  0  0  0
   -3.9730   44.1760   57.3740 N   0  0  0  0  0  0  0  0  0  0  0  0
   -2.8550   44.2670   56.6340 C   0  0  0  0  0  0  0  0  0  0  0  0
   -2.4750   43.4130   55.6540 N   0  0  0  0  0  0  0  0  0  0  0  0
   -1.3140   43.6560   54.9740 C   0  0  0  0  0  0  0  0  0  0  0  0
   -0.5070   44.7840   55.2860 C   0  0  0  0  0  0  0  0  0  0  0  0
    0.7430   45.0360   54.5290 C   0  0  0  0  0  0  0  0  0  0  0  0
    0.7050   45.0830   53.2690 O   0  0  0  0  0  0  0  0  0  0  0  0
    1.9970   45.2140   55.2050 N   0  0  0  0  0  0  0  0  0  0  0  0
    3.2060   45.5750   54.4740 C   0  0  1  0  0  0  0  0  0  0  0  0
    3.5480   47.0560   54.5890 C   0  0  2  0  0  0  0  0  0  0  0  0
    4.4610   47.6080   53.5050 C   0  0  0  0  0  0  0  0  0  0  0  0
    5.7390   46.9310   53.6650 N   0  0  0  0  0  0  0  0  0  0  0  0
    6.7870   47.0200   52.6840 C   0  0  0  0  0  0  0  0  0  0  0  0
    7.5730   48.0070   52.7040 O   0  0  0  0  0  0  0  0  0  0  0  0
    6.9630   45.9910   51.6400 C   0  0  0  0  0  0  0  0  0  0  0  0
    8.0930   46.0430   50.7820 C   0  0  0  0  0  0  0  0  0  0  0  0
    8.2840   45.0660   49.7870 C   0  0  0  0  0  0  0  0  0  0  0  0
    7.3430   44.0470   49.6870 C   0  0  0  0  0  0  0  0  0  0  0  0
    7.3270   43.0350   48.8010 N   0  0  0  0  0  0  0  0  0  0  0  0
    6.2030   42.3540   49.1440 C   0  0  0  0  0  0  0  0  0  0  0  0
    5.7570   41.2040   48.4230 N   0  0  0  0  0  0  0  0  0  0  0  0
    5.5400   42.8890   50.2040 N   0  0  0  0  0  0  0  0  0  0  0  0
    4.2630   42.4550   50.7720 C   0  0  0  0  0  0  0  0  0  0  0  0
    6.2660   43.9740   50.5250 C   0  0  0  0  0  0  0  0  0  0  0  0
    6.0390   44.9280   51.5190 C   0  0  0  0  0  0  0  0  0  0  0  0
    5.7390   45.9730   54.7620 C   0  0  0  0  0  0  0  0  0  0  0  0
    4.3470   46.0250   55.3740 C   0  0  2  0  0  0  0  0  0  0  0  0
   -0.9340   45.6680   56.3050 C   0  0  0  0  0  0  0  0  0  0  0  0
   -2.1210   45.3680   56.9650 C   0  0  0  0  0  0  0  0  0  0  0  0
   -2.4740   47.1588   59.7371 H   0  0  0  0  0  0  0  0  0  0  0  0
   -1.4161   47.5812   58.3482 H   0  0  0  0  0  0  0  0  0  0  0  0
   -3.1411   48.0822   58.3482 H   0  0  0  0  0  0  0  0  0  0  0  0
   -4.7286   45.4875   58.9399 H   0  0  0  0  0  0  0  0  0  0  0  0
   -4.7120   43.4400   57.3170 H   0  0  0  0  0  0  0  0  0  0  0  0
   -1.0000   42.9691   54.1743 H   0  0  0  0  0  0  0  0  0  0  0  0
    2.0920   44.9500   56.2100 H   0  0  0  0  0  0  0  0  0  0  0  0
    3.1034   44.8548   53.6489 H   0  0  0  0  0  0  0  0  0  0  0  0
    2.9262   47.9437   54.7771 H   0  0  0  0  0  0  0  0  0  0  0  0
    4.0410   47.3989   52.5101 H   0  0  0  0  0  0  0  0  0  0  0  0
    4.5722   48.6989   53.5926 H   0  0  0  0  0  0  0  0  0  0  0  0
    8.8264   46.8548   50.8960 H   0  0  0  0  0  0  0  0  0  0  0  0
    9.1500   45.1072   49.1100 H   0  0  0  0  0  0  0  0  0  0  0  0
    5.4480   41.2710   47.4290 H   0  0  0  0  0  0  0  0  0  0  0  0
    5.7540   40.2700   48.8870 H   0  0  0  0  0  0  0  0  0  0  0  0
    4.3242   42.4758   51.8701 H   0  0  0  0  0  0  0  0  0  0  0  0
    3.4635   43.1319   50.4364 H   0  0  0  0  0  0  0  0  0  0  0  0
    4.0415   41.4311   50.4364 H   0  0  0  0  0  0  0  0  0  0  0  0
    5.1682   44.8547   52.1871 H   0  0  0  0  0  0  0  0  0  0  0  0
    5.9517   44.9619   54.3847 H   0  0  0  0  0  0  0  0  0  0  0  0
    6.5121   46.2165   55.5056 H   0  0  0  0  0  0  0  0  0  0  0  0
    4.5960   45.7848   56.4182 H   0  0  0  0  0  0  0  0  0  0  0  0
   -0.3476   46.5613   56.5661 H   0  0  0  0  0  0  0  0  0  0  0  0
  1  2  1  0
  2  3  2  0
  3  4  1  0
  4  5  1  0
  5  6  2  0
  6  7  1  0
  7  8  2  0
  8  9  1  0
  9 10  2  0
  9 11  1  0
 11 12  1  0
 12 13  1  0
 13 14  1  0
 14 15  1  0
 15 16  1  0
 16 17  2  0
 16 18  1  0
 18 19  2  0
 19 20  1  0
 20 21  2  0
 21 22  1  0
 22 23  2  0
 23 24  1  0
 23 25  1  0
 25 26  1  0
 25 27  1  0
 27 28  2  0
 15 29  1  0
 29 30  1  0
  8 31  1  0
 31 32  2  0
 32  2  1  0
 32  5  1  0
 30 12  1  0
 30 13  1  0
 28 18  1  0
 27 21  1  0
  1 33  1  0
  1 34  1  0
  1 35  1  0
  3 36  1  0
  4 37  1  0
  7 38  1  0
 11 39  1  0
 12 40  1  6
 13 41  1  1
 14 42  1  0
 14 43  1  0
 19 44  1  0
 20 45  1  0
 24 46  1  0
 24 47  1  0
 26 48  1  0
 26 49  1  0
 26 50  1  0
 28 51  1  0
 29 52  1  0
 29 53  1  0
 30 54  1  1
 31 55  1  0
M  END
>  <meeko>  (2) 
{"is_sidechain": [false], "free_energy": -9.083, "intermolecular_energy": -11.533, "internal_energy": -0.705}

$$$$
ligand_28_conformer_2_docked
     RDKit          3D

 55 60  0  0  0  0  0  0  0  0999 V2000
   -1.0370   49.0690   59.8060 C   0  0  0  0  0  0  0  0  0  0  0  0
   -2.0090   48.0810   59.2480 C   0  0  0  0  0  0  0  0  0  0  0  0
   -3.3620   47.9670   59.5620 C   0  0  0  0  0  0  0  0  0  0  0  0
   -3.9360   46.9860   58.8270 N   0  0  0  0  0  0  0  0  0  0  0  0
   -2.9540   46.4930   58.0540 C   0  0  0  0  0  0  0  0  0  0  0  0
   -3.0800   45.5050   57.1350 N   0  0  0  0  0  0  0  0  0  0  0  0
   -1.9850   45.1290   56.4090 C   0  0  0  0  0  0  0  0  0  0  0  0
   -0.7240   45.7550   56.6090 C   0  0  0  0  0  0  0  0  0  0  0  0
    0.4490   45.3400   55.8030 C   0  0  0  0  0  0  0  0  0  0  0  0
    1.5030   44.9710   56.3900 O   0  0  0  0  0  0  0  0  0  0  0  0
    0.4100   45.3630   54.3690 N   0  0  0  0  0  0  0  0  0  0  0  0
    1.5190   44.8470   53.5740 C   0  0  1  0  0  0  0  0  0  0  0  0
    1.2040   43.5120   52.9130 C   0  0  2  0  0  0  0  0  0  0  0  0
    2.4080   42.6820   52.4930 C   0  0  0  0  0  0  0  0  0  0  0  0
    3.0860   43.4450   51.4560 N   0  0  0  0  0  0  0  0  0  0  0  0
    4.3940   43.0930   50.9710 C   0  0  0  0  0  0  0  0  0  0  0  0
    4.5740   41.9660   50.4340 O   0  0  0  0  0  0  0  0  0  0  0  0
    5.5410   44.0130   51.0950 C   0  0  0  0  0  0  0  0  0  0  0  0
    6.4610   44.1420   50.0220 C   0  0  0  0  0  0  0  0  0  0  0  0
    7.5560   45.0220   50.1160 C   0  0  0  0  0  0  0  0  0  0  0  0
    7.6930   45.7670   51.2830 C   0  0  0  0  0  0  0  0  0  0  0  0
    8.6690   46.6420   51.5830 N   0  0  0  0  0  0  0  0  0  0  0  0
    8.3220   47.0650   52.8250 C   0  0  0  0  0  0  0  0  0  0  0  0
    9.1200   47.9870   53.5680 N   0  0  0  0  0  0  0  0  0  0  0  0
    7.1750   46.5050   53.2940 N   0  0  0  0  0  0  0  0  0  0  0  0
    6.5700   46.6770   54.6150 C   0  0  0  0  0  0  0  0  0  0  0  0
    6.7980   45.6690   52.3110 C   0  0  0  0  0  0  0  0  0  0  0  0
    5.7040   44.8020   52.2570 C   0  0  0  0  0  0  0  0  0  0  0  0
    2.4300   44.7120   51.1630 C   0  0  0  0  0  0  0  0  0  0  0  0
    1.2200   44.7890   52.0830 C   0  0  2  0  0  0  0  0  0  0  0  0
   -0.6220   46.7930   57.5660 C   0  0  0  0  0  0  0  0  0  0  0  0
   -1.7690   47.1310   58.2770 C   0  0  0  0  0  0  0  0  0  0  0  0
   -1.0701   49.0354   60.9050 H   0  0  0  0  0  0  0  0  0  0  0  0
   -0.0224   48.8196   59.4619 H   0  0  0  0  0  0  0  0  0  0  0  0
   -1.3029   50.0794   59.4619 H   0  0  0  0  0  0  0  0  0  0  0  0
   -3.8890   48.5867   60.3025 H   0  0  0  0  0  0  0  0  0  0  0  0
   -4.9360   46.6860   58.8480 H   0  0  0  0  0  0  0  0  0  0  0  0
   -2.0805   44.3302   55.6588 H   0  0  0  0  0  0  0  0  0  0  0  0
   -0.3500   45.8780   53.8740 H   0  0  0  0  0  0  0  0  0  0  0  0
    2.3411   45.2435   54.1879 H   0  0  0  0  0  0  0  0  0  0  0  0
    0.5071   42.7039   53.1803 H   0  0  0  0  0  0  0  0  0  0  0  0
    3.0792   42.5232   53.3499 H   0  0  0  0  0  0  0  0  0  0  0  0
    2.1030   41.6908   52.1263 H   0  0  0  0  0  0  0  0  0  0  0  0
    6.3170   43.5482   49.1073 H   0  0  0  0  0  0  0  0  0  0  0  0
    8.2799   45.1174   49.2933 H   0  0  0  0  0  0  0  0  0  0  0  0
    8.8600   48.9950   53.6430 H   0  0  0  0  0  0  0  0  0  0  0  0
    9.9730   47.6530   54.0670 H   0  0  0  0  0  0  0  0  0  0  0  0
    7.3191   46.4640   55.3919 H   0  0  0  0  0  0  0  0  0  0  0  0
    6.2136   47.7120   54.7231 H   0  0  0  0  0  0  0  0  0  0  0  0
    5.7224   45.9842   54.7231 H   0  0  0  0  0  0  0  0  0  0  0  0
    4.9915   44.7352   53.0924 H   0  0  0  0  0  0  0  0  0  0  0  0
    3.1140   45.5501   51.3623 H   0  0  0  0  0  0  0  0  0  0  0  0
    2.1330   44.7735   50.1056 H   0  0  0  0  0  0  0  0  0  0  0  0
    0.5420   45.3771   51.4470 H   0  0  0  0  0  0  0  0  0  0  0  0
    0.3307   47.3141   57.7413 H   0  0  0  0  0  0  0  0  0  0  0  0
  1  2  1  0
  2  3  2  0
  3  4  1  0
  4  5  1  0
  5  6  2  0
  6  7  1  0
  7  8  2  0
  8  9  1  0
  9 10  2  0
  9 11  1  0
 11 12  1  0
 12 13  1  0
 13 14  1  0
 14 15  1  0
 15 16  1  0
 16 17  2  0
 16 18  1  0
 18 19  2  0
 19 20  1  0
 20 21  2  0
 21 22  1  0
 22 23  2  0
 23 24  1  0
 23 25  1  0
 25 26  1  0
 25 27  1  0
 27 28  2  0
 15 29  1  0
 29 30  1  0
  8 31  1  0
 31 32  2  0
 32  2  1  0
 32  5  1  0
 30 12  1  0
 30 13  1  0
 28 18  1  0
 27 21  1  0
  1 33  1  0
  1 34  1  0
  1 35  1  0
  3 36  1  0
  4 37  1  0
  7 38  1  0
 11 39  1  0
 12 40  1  6
 13 41  1  1
 14 42  1  0
 14 43  1  0
 19 44  1  0
 20 45  1  0
 24 46  1  0
 24 47  1  0
 26 48  1  0
 26 49  1  0
 26 50  1  0
 28 51  1  0
 29 52  1  0
 29 53  1  0
 30 54  1  6
 31 55  1  0
M  END
>  <meeko>  (3) 
{"is_sidechain": [false], "free_energy": -8.933, "intermolecular_energy": -11.359, "internal_energy": -0.689}

$$$$
ligand_28_conformer_2_docked
     RDKit          3D

 55 60  0  0  0  0  0  0  0  0999 V2000
   -0.0960   35.2140   47.5100 C   0  0  0  0  0  0  0  0  0  0  0  0
    0.9350   35.3540   46.4380 C   0  0  0  0  0  0  0  0  0  0  0  0
    1.2250   34.4370   45.4300 C   0  0  0  0  0  0  0  0  0  0  0  0
    2.1900   34.9230   44.6130 N   0  0  0  0  0  0  0  0  0  0  0  0
    2.4980   36.1360   45.1010 C   0  0  0  0  0  0  0  0  0  0  0  0
    3.4020   37.0000   44.5810 N   0  0  0  0  0  0  0  0  0  0  0  0
    3.5870   38.2130   45.1840 C   0  0  0  0  0  0  0  0  0  0  0  0
    2.8480   38.5720   46.3450 C   0  0  0  0  0  0  0  0  0  0  0  0
    3.0550   39.8970   46.9780 C   0  0  0  0  0  0  0  0  0  0  0  0
    2.6240   40.9320   46.4010 O   0  0  0  0  0  0  0  0  0  0  0  0
    3.7480   40.0210   48.2280 N   0  0  0  0  0  0  0  0  0  0  0  0
    3.8540   41.3070   48.9100 C   0  0  1  0  0  0  0  0  0  0  0  0
    3.9070   41.1700   50.4260 C   0  0  2  0  0  0  0  0  0  0  0  0
    3.5280   42.4150   51.2140 C   0  0  0  0  0  0  0  0  0  0  0  0
    4.5390   43.4140   50.9080 N   0  0  0  0  0  0  0  0  0  0  0  0
    4.3980   44.7960   51.2870 C   0  0  0  0  0  0  0  0  0  0  0  0
    3.4940   45.4960   50.7540 O   0  0  0  0  0  0  0  0  0  0  0  0
    5.2940   45.4240   52.2770 C   0  0  0  0  0  0  0  0  0  0  0  0
    4.7720   45.8580   53.5240 C   0  0  0  0  0  0  0  0  0  0  0  0
    5.6110   46.4500   54.4870 C   0  0  0  0  0  0  0  0  0  0  0  0
    6.9620   46.5770   54.1810 C   0  0  0  0  0  0  0  0  0  0  0  0
    7.9240   47.1270   54.9450 N   0  0  0  0  0  0  0  0  0  0  0  0
    9.0320   46.9960   54.1720 C   0  0  0  0  0  0  0  0  0  0  0  0
   10.3080   47.4960   54.5750 N   0  0  0  0  0  0  0  0  0  0  0  0
    8.8010   46.3810   52.9810 N   0  0  0  0  0  0  0  0  0  0  0  0
    9.7500   46.1580   51.8900 C   0  0  0  0  0  0  0  0  0  0  0  0
    7.4790   46.1380   52.9950 C   0  0  0  0  0  0  0  0  0  0  0  0
    6.6770   45.5530   52.0130 C   0  0  0  0  0  0  0  0  0  0  0  0
    5.5500   42.9320   49.9780 C   0  0  0  0  0  0  0  0  0  0  0  0
    5.1730   41.4960   49.6450 C   0  0  2  0  0  0  0  0  0  0  0  0
    1.9000   37.6570   46.8600 C   0  0  0  0  0  0  0  0  0  0  0  0
    1.7570   36.4370   46.2070 C   0  0  0  0  0  0  0  0  0  0  0  0
    0.3884   35.2798   48.4954 H   0  0  0  0  0  0  0  0  0  0  0  0
   -0.8386   36.0195   47.4120 H   0  0  0  0  0  0  0  0  0  0  0  0
   -0.5969   34.2396   47.4120 H   0  0  0  0  0  0  0  0  0  0  0  0
    0.7391   33.4570   45.3140 H   0  0  0  0  0  0  0  0  0  0  0  0
    2.5970   34.4570   43.7730 H   0  0  0  0  0  0  0  0  0  0  0  0
    4.3174   38.9210   44.7655 H   0  0  0  0  0  0  0  0  0  0  0  0
    4.3090   39.2230   48.5980 H   0  0  0  0  0  0  0  0  0  0  0  0
    3.2686   41.9050   48.1960 H   0  0  0  0  0  0  0  0  0  0  0  0
    3.5292   40.3953   51.1095 H   0  0  0  0  0  0  0  0  0  0  0  0
    2.5340   42.7724   50.9070 H   0  0  0  0  0  0  0  0  0  0  0  0
    3.4842   42.2075   52.2934 H   0  0  0  0  0  0  0  0  0  0  0  0
    3.7010   45.7304   53.7399 H   0  0  0  0  0  0  0  0  0  0  0  0
    5.2113   46.8007   55.4500 H   0  0  0  0  0  0  0  0  0  0  0  0
   11.0910   47.6030   53.8950 H   0  0  0  0  0  0  0  0  0  0  0  0
   10.4640   47.7820   55.5660 H   0  0  0  0  0  0  0  0  0  0  0  0
   10.7407   45.9252   52.3076 H   0  0  0  0  0  0  0  0  0  0  0  0
    9.4060   45.3162   51.2711 H   0  0  0  0  0  0  0  0  0  0  0  0
    9.8169   47.0649   51.2711 H   0  0  0  0  0  0  0  0  0  0  0  0
    7.1079   45.2033   51.0633 H   0  0  0  0  0  0  0  0  0  0  0  0
    5.5524   43.5466   49.0657 H   0  0  0  0  0  0  0  0  0  0  0  0
    6.5571   42.9898   50.4166 H   0  0  0  0  0  0  0  0  0  0  0  0
    6.1756   41.0774   49.4731 H   0  0  0  0  0  0  0  0  0  0  0  0
    1.2965   37.9018   47.7465 H   0  0  0  0  0  0  0  0  0  0  0  0
  1  2  1  0
  2  3  2  0
  3  4  1  0
  4  5  1  0
  5  6  2  0
  6  7  1  0
  7  8  2  0
  8  9  1  0
  9 10  2  0
  9 11  1  0
 11 12  1  0
 12 13  1  0
 13 14  1  0
 14 15  1  0
 15 16  1  0
 16 17  2  0
 16 18  1  0
 18 19  2  0
 19 20  1  0
 20 21  2  0
 21 22  1  0
 22 23  2  0
 23 24  1  0
 23 25  1  0
 25 26  1  0
 25 27  1  0
 27 28  2  0
 15 29  1  0
 29 30  1  0
  8 31  1  0
 31 32  2  0
 32  2  1  0
 32  5  1  0
 30 12  1  0
 30 13  1  0
 28 18  1  0
 27 21  1  0
  1 33  1  0
  1 34  1  0
  1 35  1  0
  3 36  1  0
  4 37  1  0
  7 38  1  0
 11 39  1  0
 12 40  1  1
 13 41  1  1
 14 42  1  0
 14 43  1  0
 19 44  1  0
 20 45  1  0
 24 46  1  0
 24 47  1  0
 26 48  1  0
 26 49  1  0
 26 50  1  0
 28 51  1  0
 29 52  1  0
 29 53  1  0
 30 54  1  6
 31 55  1  0
M  END
>  <meeko>  (4) 
{"is_sidechain": [false], "free_energy": -8.653, "intermolecular_energy": -11.117, "internal_energy": -0.578}

$$$$
ligand_28_conformer_2_docked
     RDKit          3D

 55 60  0  0  0  0  0  0  0  0999 V2000
   10.7290   46.3050   51.9700 C   0  0  0  0  0  0  0  0  0  0  0  0
    9.6440   46.7030   52.9180 C   0  0  0  0  0  0  0  0  0  0  0  0
    9.7720   47.5140   54.0440 C   0  0  0  0  0  0  0  0  0  0  0  0
    8.5670   47.6920   54.6360 N   0  0  0  0  0  0  0  0  0  0  0  0
    7.6920   47.0030   53.8850 C   0  0  0  0  0  0  0  0  0  0  0  0
    6.3550   46.9190   54.0910 N   0  0  0  0  0  0  0  0  0  0  0  0
    5.5920   46.1930   53.2210 C   0  0  0  0  0  0  0  0  0  0  0  0
    6.1820   45.5260   52.1120 C   0  0  0  0  0  0  0  0  0  0  0  0
    5.3350   44.7520   51.1730 C   0  0  0  0  0  0  0  0  0  0  0  0
    4.2220   45.2230   50.8110 O   0  0  0  0  0  0  0  0  0  0  0  0
    5.7550   43.4710   50.6790 N   0  0  0  0  0  0  0  0  0  0  0  0
    4.9800   42.7600   49.6690 C   0  0  1  0  0  0  0  0  0  0  0  0
    5.7670   41.6410   48.9980 C   0  0  2  0  0  0  0  0  0  0  0  0
    5.2440   41.1870   47.6440 C   0  0  0  0  0  0  0  0  0  0  0  0
    3.9320   40.6070   47.8870 N   0  0  0  0  0  0  0  0  0  0  0  0
    3.0270   40.2710   46.8200 C   0  0  0  0  0  0  0  0  0  0  0  0
    2.2470   41.1530   46.3680 O   0  0  0  0  0  0  0  0  0  0  0  0
    2.9760   38.9130   46.2450 C   0  0  0  0  0  0  0  0  0  0  0  0
    2.0650   37.9590   46.7690 C   0  0  0  0  0  0  0  0  0  0  0  0
    1.9930   36.6620   46.2280 C   0  0  0  0  0  0  0  0  0  0  0  0
    2.8290   36.3560   45.1590 C   0  0  0  0  0  0  0  0  0  0  0  0
    2.9330   35.1790   44.5150 N   0  0  0  0  0  0  0  0  0  0  0  0
    3.8850   35.4320   43.5810 C   0  0  0  0  0  0  0  0  0  0  0  0
    4.3580   34.4290   42.6820 N   0  0  0  0  0  0  0  0  0  0  0  0
    4.3580   36.7070   43.6110 N   0  0  0  0  0  0  0  0  0  0  0  0
    5.4360   37.2810   42.8050 C   0  0  0  0  0  0  0  0  0  0  0  0
    3.6910   37.2750   44.6310 C   0  0  0  0  0  0  0  0  0  0  0  0
    3.7950   38.5690   45.1450 C   0  0  0  0  0  0  0  0  0  0  0  0
    3.5460   40.6470   49.2910 C   0  0  0  0  0  0  0  0  0  0  0  0
    4.6990   41.3090   50.0320 C   0  0  2  0  0  0  0  0  0  0  0  0
    7.5780   45.6410   51.9110 C   0  0  0  0  0  0  0  0  0  0  0  0
    8.3040   46.3900   52.8320 C   0  0  0  0  0  0  0  0  0  0  0  0
   11.6126   45.9809   52.5393 H   0  0  0  0  0  0  0  0  0  0  0  0
   10.3771   45.4774   51.3365 H   0  0  0  0  0  0  0  0  0  0  0  0
   10.9957   47.1638   51.3365 H   0  0  0  0  0  0  0  0  0  0  0  0
   10.7175   47.9480   54.4013 H   0  0  0  0  0  0  0  0  0  0  0  0
    8.3620   48.2570   55.4890 H   0  0  0  0  0  0  0  0  0  0  0  0
    4.5059   46.1233   53.3804 H   0  0  0  0  0  0  0  0  0  0  0  0
    6.5430   42.9650   51.1390 H   0  0  0  0  0  0  0  0  0  0  0  0
    4.3704   43.6075   49.3224 H   0  0  0  0  0  0  0  0  0  0  0  0
    6.8451   41.4906   48.8399 H   0  0  0  0  0  0  0  0  0  0  0  0
    5.1606   42.0450   46.9607 H   0  0  0  0  0  0  0  0  0  0  0  0
    5.9230   40.4586   47.1767 H   0  0  0  0  0  0  0  0  0  0  0  0
    1.4084   38.2365   47.6068 H   0  0  0  0  0  0  0  0  0  0  0  0
    1.2980   35.9140   46.6372 H   0  0  0  0  0  0  0  0  0  0  0  0
    4.8860   34.6770   41.8170 H   0  0  0  0  0  0  0  0  0  0  0  0
    4.1920   33.4210   42.8940 H   0  0  0  0  0  0  0  0  0  0  0  0
    6.2103   37.6933   43.4686 H   0  0  0  0  0  0  0  0  0  0  0  0
    5.8761   36.4978   42.1702 H   0  0  0  0  0  0  0  0  0  0  0  0
    5.0319   38.0834   42.1702 H   0  0  0  0  0  0  0  0  0  0  0  0
    4.4926   39.2984   44.7076 H   0  0  0  0  0  0  0  0  0  0  0  0
    2.6249   41.2352   49.4162 H   0  0  0  0  0  0  0  0  0  0  0  0
    3.3476   39.6374   49.6801 H   0  0  0  0  0  0  0  0  0  0  0  0
    4.6103   40.7998   51.0030 H   0  0  0  0  0  0  0  0  0  0  0  0
    8.0720   45.1553   51.0566 H   0  0  0  0  0  0  0  0  0  0  0  0
  1  2  1  0
  2  3  2  0
  3  4  1  0
  4  5  1  0
  5  6  2  0
  6  7  1  0
  7  8  2  0
  8  9  1  0
  9 10  2  0
  9 11  1  0
 11 12  1  0
 12 13  1  0
 13 14  1  0
 14 15  1  0
 15 16  1  0
 16 17  2  0
 16 18  1  0
 18 19  2  0
 19 20  1  0
 20 21  2  0
 21 22  1  0
 22 23  2  0
 23 24  1  0
 23 25  1  0
 25 26  1  0
 25 27  1  0
 27 28  2  0
 15 29  1  0
 29 30  1  0
  8 31  1  0
 31 32  2  0
 32  2  1  0
 32  5  1  0
 30 12  1  0
 30 13  1  0
 28 18  1  0
 27 21  1  0
  1 33  1  0
  1 34  1  0
  1 35  1  0
  3 36  1  0
  4 37  1  0
  7 38  1  0
 11 39  1  0
 12 40  1  6
 13 41  1  1
 14 42  1  0
 14 43  1  0
 19 44  1  0
 20 45  1  0
 24 46  1  0
 24 47  1  0
 26 48  1  0
 26 49  1  0
 26 50  1  0
 28 51  1  0
 29 52  1  0
 29 53  1  0
 30 54  1  1
 31 55  1  0
M  END
>  <meeko>  (5) 
{"is_sidechain": [false], "free_energy": -8.534, "intermolecular_energy": -10.867, "internal_energy": -0.678}

$$$$
