ligand_83_conformer_3_docked
     RDKit          3D

 45 48  0  0  0  0  0  0  0  0999 V2000
    5.6950   43.9720   50.8460 C   0  0  0  0  0  0  0  0  0  0  0  0
    5.6920   45.2060   51.7580 C   0  0  1  0  0  0  0  0  0  0  0  0
    4.8750   44.9110   53.0360 C   0  0  0  0  0  0  0  0  0  0  0  0
    4.3280   46.1380   53.6310 N   0  0  0  0  0  0  0  0  0  0  0  0
    3.1500   46.7440   53.0680 C   0  0  0  0  0  0  0  0  0  0  0  0
    3.1380   47.9800   52.8280 O   0  0  0  0  0  0  0  0  0  0  0  0
    1.9530   45.9430   52.7550 C   0  0  0  0  0  0  0  0  0  0  0  0
    1.7160   45.3140   51.5150 C   0  0  0  0  0  0  0  0  0  0  0  0
    0.5280   44.6710   51.7360 C   0  0  0  0  0  0  0  0  0  0  0  0
   -0.2910   43.8930   51.0830 O   0  0  0  0  0  0  0  0  0  0  0  0
   -1.2650   43.6120   51.9480 C   0  0  0  0  0  0  0  0  0  0  0  0
   -2.7550   42.4980   51.5340 Br  0  0  0  0  0  0  0  0  0  0  0  0
   -1.0500   44.2320   53.1930 C   0  0  0  0  0  0  0  0  0  0  0  0
    0.1230   44.8970   52.9640 C   0  0  0  0  0  0  0  0  0  0  0  0
    0.9630   45.6720   53.6580 N   0  0  0  0  0  0  0  0  0  0  0  0
    5.1820   46.9020   54.5530 C   0  0  0  0  0  0  0  0  0  0  0  0
    6.6760   46.6200   54.3000 C   0  0  0  0  0  0  0  0  0  0  0  0
    7.0870   46.9130   52.9050 N   0  0  0  0  0  0  0  0  0  0  0  0
    8.3810   47.6310   52.8910 C   0  0  0  0  0  0  0  0  0  0  0  0
    9.1270   47.5580   54.2280 C   0  0  0  0  0  0  0  0  0  0  0  0
   10.2620   46.7970   53.5660 C   0  0  0  0  0  0  0  0  0  0  0  0
    9.5130   46.8250   52.2440 C   0  0  0  0  0  0  0  0  0  0  0  0
    7.1390   45.6740   52.0870 C   0  0  0  0  0  0  0  0  0  0  0  0
    5.6972   43.0607   51.4621 H   0  0  0  0  0  0  0  0  0  0  0  0
    4.7968   43.9831   50.2111 H   0  0  0  0  0  0  0  0  0  0  0  0
    6.5931   43.9875   50.2111 H   0  0  0  0  0  0  0  0  0  0  0  0
    5.2086   46.0384   51.2256 H   0  0  0  0  0  0  0  0  0  0  0  0
    4.0431   44.2387   52.7792 H   0  0  0  0  0  0  0  0  0  0  0  0
    5.5478   44.4457   53.7714 H   0  0  0  0  0  0  0  0  0  0  0  0
    2.3298   45.3349   50.6024 H   0  0  0  0  0  0  0  0  0  0  0  0
   -1.6619   44.1923   54.1063 H   0  0  0  0  0  0  0  0  0  0  0  0
    0.8910   45.9600   54.6590 H   0  0  0  0  0  0  0  0  0  0  0  0
    4.9914   47.9760   54.4105 H   0  0  0  0  0  0  0  0  0  0  0  0
    4.9413   46.5959   55.5818 H   0  0  0  0  0  0  0  0  0  0  0  0
    7.2721   47.2453   54.9809 H   0  0  0  0  0  0  0  0  0  0  0  0
    6.8459   45.5478   54.4776 H   0  0  0  0  0  0  0  0  0  0  0  0
    8.0611   48.5964   52.4718 H   0  0  0  0  0  0  0  0  0  0  0  0
    9.4207   48.5386   54.6306 H   0  0  0  0  0  0  0  0  0  0  0  0
    8.6288   47.1447   55.1174 H   0  0  0  0  0  0  0  0  0  0  0  0
   11.2183   47.3405   53.5515 H   0  0  0  0  0  0  0  0  0  0  0  0
   10.6113   45.8426   53.9869 H   0  0  0  0  0  0  0  0  0  0  0  0
   10.0415   47.3602   51.4414 H   0  0  0  0  0  0  0  0  0  0  0  0
    9.2915   45.8872   51.7135 H   0  0  0  0  0  0  0  0  0  0  0  0
    7.6805   45.8755   51.1510 H   0  0  0  0  0  0  0  0  0  0  0  0
    7.6593   44.8854   52.6503 H   0  0  0  0  0  0  0  0  0  0  0  0
  1  2  1  0
  2  3  1  0
  3  4  1  0
  4  5  1  0
  5  6  2  0
  5  7  1  0
  7  8  2  0
  8  9  1  0
  9 10  1  0
 10 11  1  0
 11 12  1  0
 11 13  2  0
 13 14  1  0
 14 15  1  0
  4 16  1  0
 16 17  1  0
 17 18  1  0
 18 19  1  0
 19 20  1  0
 20 21  1  0
 21 22  1  0
 18 23  1  0
 23  2  1  0
 15  7  1  0
 22 19  1  0
 14  9  2  0
  1 24  1  0
  1 25  1  0
  1 26  1  0
  2 27  1  6
  3 28  1  0
  3 29  1  0
  8 30  1  0
 13 31  1  0
 15 32  1  0
 16 33  1  0
 16 34  1  0
 17 35  1  0
 17 36  1  0
 19 37  1  0
 20 38  1  0
 20 39  1  0
 21 40  1  0
 21 41  1  0
 22 42  1  0
 22 43  1  0
 23 44  1  0
 23 45  1  0
M  END
>  <meeko>  (1) 
{"is_sidechain": [false], "free_energy": -6.563, "intermolecular_energy": -10.017, "internal_energy": -0.046}

$$$$
ligand_83_conformer_3_docked
     RDKit          3D

 45 48  0  0  0  0  0  0  0  0999 V2000
    5.2950   44.3600   50.5680 C   0  0  0  0  0  0  0  0  0  0  0  0
    5.3490   45.3950   51.6990 C   0  0  1  0  0  0  0  0  0  0  0  0
    4.7610   44.7890   52.9930 C   0  0  0  0  0  0  0  0  0  0  0  0
    4.1860   45.8190   53.8680 N   0  0  0  0  0  0  0  0  0  0  0  0
    2.8380   46.2730   53.6510 C   0  0  0  0  0  0  0  0  0  0  0  0
    2.6130   47.1870   52.8130 O   0  0  0  0  0  0  0  0  0  0  0  0
    1.7040   45.6810   54.3840 C   0  0  0  0  0  0  0  0  0  0  0  0
    1.6080   45.6210   55.7900 C   0  0  0  0  0  0  0  0  0  0  0  0
    0.3810   45.0400   55.9730 C   0  0  0  0  0  0  0  0  0  0  0  0
   -0.3860   44.6870   56.9680 O   0  0  0  0  0  0  0  0  0  0  0  0
   -1.4840   44.1930   56.3990 C   0  0  0  0  0  0  0  0  0  0  0  0
   -2.9700   43.5160   57.3830 Br  0  0  0  0  0  0  0  0  0  0  0  0
   -1.4080   44.2400   54.9940 C   0  0  0  0  0  0  0  0  0  0  0  0
   -0.1720   44.7940   54.8100 C   0  0  0  0  0  0  0  0  0  0  0  0
    0.5890   45.1740   53.7770 N   0  0  0  0  0  0  0  0  0  0  0  0
    5.1020   46.6050   54.7090 C   0  0  0  0  0  0  0  0  0  0  0  0
    6.5670   46.4260   54.2650 C   0  0  0  0  0  0  0  0  0  0  0  0
    6.8260   46.9700   52.9100 N   0  0  0  0  0  0  0  0  0  0  0  0
    8.1050   47.7150   52.8910 C   0  0  0  0  0  0  0  0  0  0  0  0
    9.0710   47.2850   54.0010 C   0  0  0  0  0  0  0  0  0  0  0  0
   10.0660   46.8000   52.9610 C   0  0  0  0  0  0  0  0  0  0  0  0
    9.0990   47.1830   51.8530 C   0  0  0  0  0  0  0  0  0  0  0  0
    6.8030   45.8960   51.8830 C   0  0  0  0  0  0  0  0  0  0  0  0
    5.2423   43.3490   50.9983 H   0  0  0  0  0  0  0  0  0  0  0  0
    4.4051   44.5412   49.9473 H   0  0  0  0  0  0  0  0  0  0  0  0
    6.1989   44.4476   49.9473 H   0  0  0  0  0  0  0  0  0  0  0  0
    4.7337   46.2696   51.4413 H   0  0  0  0  0  0  0  0  0  0  0  0
    3.9726   44.0710   52.7231 H   0  0  0  0  0  0  0  0  0  0  0  0
    5.5775   44.2944   53.5395 H   0  0  0  0  0  0  0  0  0  0  0  0
    2.3333   45.9554   56.5464 H   0  0  0  0  0  0  0  0  0  0  0  0
   -2.1459   43.9173   54.2447 H   0  0  0  0  0  0  0  0  0  0  0  0
    0.3590   45.1280   52.7600 H   0  0  0  0  0  0  0  0  0  0  0  0
    4.8328   47.6689   54.6338 H   0  0  0  0  0  0  0  0  0  0  0  0
    5.0091   46.2510   55.7463 H   0  0  0  0  0  0  0  0  0  0  0  0
    7.2182   46.9459   54.9831 H   0  0  0  0  0  0  0  0  0  0  0  0
    6.7748   45.3462   54.2343 H   0  0  0  0  0  0  0  0  0  0  0  0
    7.7267   48.7465   52.8367 H   0  0  0  0  0  0  0  0  0  0  0  0
    9.4399   48.1161   54.6201 H   0  0  0  0  0  0  0  0  0  0  0  0
    8.7310   46.6088   54.7992 H   0  0  0  0  0  0  0  0  0  0  0  0
   11.0106   47.3635   52.9467 H   0  0  0  0  0  0  0  0  0  0  0  0
   10.4734   45.7797   53.0150 H   0  0  0  0  0  0  0  0  0  0  0  0
    9.4852   47.9520   51.1678 H   0  0  0  0  0  0  0  0  0  0  0  0
    8.7794   46.4337   51.1138 H   0  0  0  0  0  0  0  0  0  0  0  0
    7.1787   46.2925   50.9282 H   0  0  0  0  0  0  0  0  0  0  0  0
    7.4420   45.0616   52.2079 H   0  0  0  0  0  0  0  0  0  0  0  0
  1  2  1  0
  2  3  1  0
  3  4  1  0
  4  5  1  0
  5  6  2  0
  5  7  1  0
  7  8  2  0
  8  9  1  0
  9 10  1  0
 10 11  1  0
 11 12  1  0
 11 13  2  0
 13 14  1  0
 14 15  1  0
  4 16  1  0
 16 17  1  0
 17 18  1  0
 18 19  1  0
 19 20  1  0
 20 21  1  0
 21 22  1  0
 18 23  1  0
 23  2  1  0
 15  7  1  0
 22 19  1  0
 14  9  2  0
  1 24  1  0
  1 25  1  0
  1 26  1  0
  2 27  1  6
  3 28  1  0
  3 29  1  0
  8 30  1  0
 13 31  1  0
 15 32  1  0
 16 33  1  0
 16 34  1  0
 17 35  1  0
 17 36  1  0
 19 37  1  0
 20 38  1  0
 20 39  1  0
 21 40  1  0
 21 41  1  0
 22 42  1  0
 22 43  1  0
 23 44  1  0
 23 45  1  0
M  END
>  <meeko>  (2) 
{"is_sidechain": [false], "free_energy": -6.554, "intermolecular_energy": -10.097, "internal_energy": 0.049}

$$$$
ligand_83_conformer_3_docked
     RDKit          3D

 45 48  0  0  0  0  0  0  0  0999 V2000
    5.9210   44.2260   50.3820 C   0  0  0  0  0  0  0  0  0  0  0  0
    6.0190   45.6600   50.9190 C   0  0  1  0  0  0  0  0  0  0  0  0
    4.6660   46.0870   51.5290 C   0  0  0  0  0  0  0  0  0  0  0  0
    4.5850   45.7690   52.9610 N   0  0  0  0  0  0  0  0  0  0  0  0
    3.8220   44.6300   53.4000 C   0  0  0  0  0  0  0  0  0  0  0  0
    4.2230   43.4670   53.1270 O   0  0  0  0  0  0  0  0  0  0  0  0
    2.5800   44.7940   54.1760 C   0  0  0  0  0  0  0  0  0  0  0  0
    1.2820   44.7100   53.6300 C   0  0  0  0  0  0  0  0  0  0  0  0
    0.4900   44.8800   54.7340 C   0  0  0  0  0  0  0  0  0  0  0  0
   -0.7830   44.9070   55.0210 O   0  0  0  0  0  0  0  0  0  0  0  0
   -0.8360   45.0930   56.3390 C   0  0  0  0  0  0  0  0  0  0  0  0
   -2.4650   45.2120   57.3220 Br  0  0  0  0  0  0  0  0  0  0  0  0
    0.4500   45.1820   56.9050 C   0  0  0  0  0  0  0  0  0  0  0  0
    1.2410   45.0400   55.7990 C   0  0  0  0  0  0  0  0  0  0  0  0
    2.5500   44.9900   55.5280 N   0  0  0  0  0  0  0  0  0  0  0  0
    4.9850   46.8050   53.9250 C   0  0  0  0  0  0  0  0  0  0  0  0
    6.5160   46.9770   53.9640 C   0  0  0  0  0  0  0  0  0  0  0  0
    7.1120   47.1130   52.6120 N   0  0  0  0  0  0  0  0  0  0  0  0
    8.4390   47.7620   52.6990 C   0  0  0  0  0  0  0  0  0  0  0  0
    9.0960   47.6120   54.0760 C   0  0  0  0  0  0  0  0  0  0  0  0
   10.2300   46.8120   53.4590 C   0  0  0  0  0  0  0  0  0  0  0  0
    9.5660   46.9160   52.0960 C   0  0  0  0  0  0  0  0  0  0  0  0
    7.1890   45.8000   51.9220 C   0  0  0  0  0  0  0  0  0  0  0  0
    5.8728   43.5212   51.2252 H   0  0  0  0  0  0  0  0  0  0  0  0
    5.0139   44.1256   49.7679 H   0  0  0  0  0  0  0  0  0  0  0  0
    6.8060   44.0031   49.7679 H   0  0  0  0  0  0  0  0  0  0  0  0
    6.2401   46.3427   50.0853 H   0  0  0  0  0  0  0  0  0  0  0  0
    4.5440   47.1724   51.3984 H   0  0  0  0  0  0  0  0  0  0  0  0
    3.8691   45.5328   51.0115 H   0  0  0  0  0  0  0  0  0  0  0  0
    0.9824   44.5490   52.5839 H   0  0  0  0  0  0  0  0  0  0  0  0
    0.7406   45.3270   57.9560 H   0  0  0  0  0  0  0  0  0  0  0  0
    3.3460   45.0450   56.2010 H   0  0  0  0  0  0  0  0  0  0  0  0
    4.5249   47.7609   53.6343 H   0  0  0  0  0  0  0  0  0  0  0  0
    4.6461   46.4963   54.9249 H   0  0  0  0  0  0  0  0  0  0  0  0
    6.7539   47.8797   54.5458 H   0  0  0  0  0  0  0  0  0  0  0  0
    6.9401   46.0725   54.4244 H   0  0  0  0  0  0  0  0  0  0  0  0
    8.1955   48.7546   52.2922 H   0  0  0  0  0  0  0  0  0  0  0  0
    9.4133   48.5640   54.5266 H   0  0  0  0  0  0  0  0  0  0  0  0
    8.5237   47.2001   54.9203 H   0  0  0  0  0  0  0  0  0  0  0  0
   11.2114   47.3053   53.5187 H   0  0  0  0  0  0  0  0  0  0  0  0
   10.5044   45.8292   53.8699 H   0  0  0  0  0  0  0  0  0  0  0  0
   10.1692   47.4449   51.3434 H   0  0  0  0  0  0  0  0  0  0  0  0
    9.3301   46.0063   51.5243 H   0  0  0  0  0  0  0  0  0  0  0  0
    8.1437   45.7285   51.3803 H   0  0  0  0  0  0  0  0  0  0  0  0
    7.1227   44.9951   52.6688 H   0  0  0  0  0  0  0  0  0  0  0  0
  1  2  1  0
  2  3  1  0
  3  4  1  0
  4  5  1  0
  5  6  2  0
  5  7  1  0
  7  8  2  0
  8  9  1  0
  9 10  1  0
 10 11  1  0
 11 12  1  0
 11 13  2  0
 13 14  1  0
 14 15  1  0
  4 16  1  0
 16 17  1  0
 17 18  1  0
 18 19  1  0
 19 20  1  0
 20 21  1  0
 21 22  1  0
 18 23  1  0
 23  2  1  0
 15  7  1  0
 22 19  1  0
 14  9  2  0
  1 24  1  0
  1 25  1  0
  1 26  1  0
  2 27  1  6
  3 28  1  0
  3 29  1  0
  8 30  1  0
 13 31  1  0
 15 32  1  0
 16 33  1  0
 16 34  1  0
 17 35  1  0
 17 36  1  0
 19 37  1  0
 20 38  1  0
 20 39  1  0
 21 40  1  0
 21 41  1  0
 22 42  1  0
 22 43  1  0
 23 44  1  0
 23 45  1  0
M  END
>  <meeko>  (3) 
{"is_sidechain": [false], "free_energy": -6.476, "intermolecular_energy": -10.201, "internal_energy": 0.272}

$$$$
ligand_83_conformer_3_docked
     RDKit          3D

 45 48  0  0  0  0  0  0  0  0999 V2000
    3.7600   47.0000   53.4970 C   0  0  0  0  0  0  0  0  0  0  0  0
    5.1750   46.4260   53.6460 C   0  0  1  0  0  0  0  0  0  0  0  0
    5.1710   44.9210   53.2970 C   0  0  0  0  0  0  0  0  0  0  0  0
    4.9100   44.6910   51.8700 N   0  0  0  0  0  0  0  0  0  0  0  0
    4.1350   43.5500   51.4580 C   0  0  0  0  0  0  0  0  0  0  0  0
    4.7090   42.5700   50.9120 O   0  0  0  0  0  0  0  0  0  0  0  0
    2.6780   43.4980   51.6700 C   0  0  0  0  0  0  0  0  0  0  0  0
    1.7990   44.5780   51.4400 C   0  0  0  0  0  0  0  0  0  0  0  0
    0.5790   44.0280   51.7290 C   0  0  0  0  0  0  0  0  0  0  0  0
   -0.6730   44.3930   51.7320 O   0  0  0  0  0  0  0  0  0  0  0  0
   -1.3490   43.3070   52.1060 C   0  0  0  0  0  0  0  0  0  0  0  0
   -3.2460   43.2540   52.2850 Br  0  0  0  0  0  0  0  0  0  0  0  0
   -0.4910   42.2170   52.3440 C   0  0  0  0  0  0  0  0  0  0  0  0
    0.7300   42.7730   52.0830 C   0  0  0  0  0  0  0  0  0  0  0  0
    2.0070   42.3740   52.0610 N   0  0  0  0  0  0  0  0  0  0  0  0
    5.7290   45.4200   50.8890 C   0  0  0  0  0  0  0  0  0  0  0  0
    7.1990   45.5110   51.3410 C   0  0  0  0  0  0  0  0  0  0  0  0
    7.3780   46.3590   52.5440 N   0  0  0  0  0  0  0  0  0  0  0  0
    8.6120   47.1680   52.4240 C   0  0  0  0  0  0  0  0  0  0  0  0
    8.9770   47.9090   53.7150 C   0  0  0  0  0  0  0  0  0  0  0  0
   10.2650   47.1120   53.8210 C   0  0  0  0  0  0  0  0  0  0  0  0
    9.8940   46.3400   52.5660 C   0  0  0  0  0  0  0  0  0  0  0  0
    6.1850   47.2120   52.7850 C   0  0  0  0  0  0  0  0  0  0  0  0
    3.3285   47.1750   54.4936 H   0  0  0  0  0  0  0  0  0  0  0  0
    3.8061   47.9505   52.9453 H   0  0  0  0  0  0  0  0  0  0  0  0
    3.1309   46.2860   52.9453 H   0  0  0  0  0  0  0  0  0  0  0  0
    5.4958   46.5334   54.6927 H   0  0  0  0  0  0  0  0  0  0  0  0
    6.1520   44.4939   53.5526 H   0  0  0  0  0  0  0  0  0  0  0  0
    4.3670   44.4394   53.8729 H   0  0  0  0  0  0  0  0  0  0  0  0
    2.0343   45.6013   51.1120 H   0  0  0  0  0  0  0  0  0  0  0  0
   -0.7373   41.1915   52.6566 H   0  0  0  0  0  0  0  0  0  0  0  0
    2.3830   41.4190   52.2560 H   0  0  0  0  0  0  0  0  0  0  0  0
    5.6833   44.8947   49.9236 H   0  0  0  0  0  0  0  0  0  0  0  0
    5.3313   46.4414   50.7967 H   0  0  0  0  0  0  0  0  0  0  0  0
    7.5603   44.4972   51.5685 H   0  0  0  0  0  0  0  0  0  0  0  0
    7.7697   45.9729   50.5219 H   0  0  0  0  0  0  0  0  0  0  0  0
    8.3922   47.7182   51.4972 H   0  0  0  0  0  0  0  0  0  0  0  0
    9.1295   48.9903   53.5825 H   0  0  0  0  0  0  0  0  0  0  0  0
    8.2704   47.9330   54.5577 H   0  0  0  0  0  0  0  0  0  0  0  0
   11.1773   47.7184   53.7214 H   0  0  0  0  0  0  0  0  0  0  0  0
   10.5127   46.5771   54.7497 H   0  0  0  0  0  0  0  0  0  0  0  0
   10.6038   46.4679   51.7355 H   0  0  0  0  0  0  0  0  0  0  0  0
    9.8439   45.2413   52.5865 H   0  0  0  0  0  0  0  0  0  0  0  0
    6.4868   48.1282   53.3137 H   0  0  0  0  0  0  0  0  0  0  0  0
    5.7228   47.4864   51.8253 H   0  0  0  0  0  0  0  0  0  0  0  0
  1  2  1  0
  2  3  1  0
  3  4  1  0
  4  5  1  0
  5  6  2  0
  5  7  1  0
  7  8  2  0
  8  9  1  0
  9 10  1  0
 10 11  1  0
 11 12  1  0
 11 13  2  0
 13 14  1  0
 14 15  1  0
  4 16  1  0
 16 17  1  0
 17 18  1  0
 18 19  1  0
 19 20  1  0
 20 21  1  0
 21 22  1  0
 18 23  1  0
 23  2  1  0
 15  7  1  0
 22 19  1  0
 14  9  2  0
  1 24  1  0
  1 25  1  0
  1 26  1  0
  2 27  1  1
  3 28  1  0
  3 29  1  0
  8 30  1  0
 13 31  1  0
 15 32  1  0
 16 33  1  0
 16 34  1  0
 17 35  1  0
 17 36  1  0
 19 37  1  0
 20 38  1  0
 20 39  1  0
 21 40  1  0
 21 41  1  0
 22 42  1  0
 22 43  1  0
 23 44  1  0
 23 45  1  0
M  END
>  <meeko>  (4) 
{"is_sidechain": [false], "free_energy": -6.299, "intermolecular_energy": -9.692, "internal_energy": 0.034}

$$$$
ligand_83_conformer_3_docked
     RDKit          3D

 45 48  0  0  0  0  0  0  0  0999 V2000
    9.1210   47.2540   53.2510 C   0  0  0  0  0  0  0  0  0  0  0  0
    7.7780   46.5220   53.1370 C   0  0  1  0  0  0  0  0  0  0  0  0
    6.7820   47.0890   54.1740 C   0  0  0  0  0  0  0  0  0  0  0  0
    5.4290   46.5500   53.9860 N   0  0  0  0  0  0  0  0  0  0  0  0
    4.9290   45.5400   54.8810 C   0  0  0  0  0  0  0  0  0  0  0  0
    5.7380   44.8340   55.5410 O   0  0  0  0  0  0  0  0  0  0  0  0
    3.4820   45.3180   55.0520 C   0  0  0  0  0  0  0  0  0  0  0  0
    2.6760   44.5860   54.1550 C   0  0  0  0  0  0  0  0  0  0  0  0
    1.4510   44.6250   54.7660 C   0  0  0  0  0  0  0  0  0  0  0  0
    0.2470   44.1690   54.5540 O   0  0  0  0  0  0  0  0  0  0  0  0
   -0.4660   44.5770   55.6030 C   0  0  0  0  0  0  0  0  0  0  0  0
   -2.3190   44.1940   55.8330 Br  0  0  0  0  0  0  0  0  0  0  0  0
    0.3190   45.3130   56.5110 C   0  0  0  0  0  0  0  0  0  0  0  0
    1.5360   45.2980   55.8880 C   0  0  0  0  0  0  0  0  0  0  0  0
    2.7700   45.7510   56.1350 N   0  0  0  0  0  0  0  0  0  0  0  0
    4.7590   46.7920   52.6990 C   0  0  0  0  0  0  0  0  0  0  0  0
    4.9770   45.6210   51.7220 C   0  0  0  0  0  0  0  0  0  0  0  0
    6.4110   45.3730   51.4350 N   0  0  0  0  0  0  0  0  0  0  0  0
    6.5810   44.8830   50.0490 C   0  0  0  0  0  0  0  0  0  0  0  0
    8.0360   44.5500   49.7000 C   0  0  0  0  0  0  0  0  0  0  0  0
    7.6650   43.0910   49.4990 C   0  0  0  0  0  0  0  0  0  0  0  0
    6.2290   43.4000   49.8860 C   0  0  0  0  0  0  0  0  0  0  0  0
    7.2300   46.5870   51.6910 C   0  0  0  0  0  0  0  0  0  0  0  0
    9.3744   47.3921   54.3125 H   0  0  0  0  0  0  0  0  0  0  0  0
    9.9057   46.6588   52.7611 H   0  0  0  0  0  0  0  0  0  0  0  0
    9.0461   48.2361   52.7611 H   0  0  0  0  0  0  0  0  0  0  0  0
    7.9258   45.4560   53.3644 H   0  0  0  0  0  0  0  0  0  0  0  0
    7.1320   46.8270   55.1834 H   0  0  0  0  0  0  0  0  0  0  0  0
    6.7357   48.1799   54.0408 H   0  0  0  0  0  0  0  0  0  0  0  0
    2.9593   44.1062   53.2066 H   0  0  0  0  0  0  0  0  0  0  0  0
    0.0304   45.7762   57.4661 H   0  0  0  0  0  0  0  0  0  0  0  0
    3.1050   46.2730   56.9750 H   0  0  0  0  0  0  0  0  0  0  0  0
    3.6801   46.9151   52.8749 H   0  0  0  0  0  0  0  0  0  0  0  0
    5.1880   47.7005   52.2512 H   0  0  0  0  0  0  0  0  0  0  0  0
    4.5438   44.7106   52.1619 H   0  0  0  0  0  0  0  0  0  0  0  0
    4.4896   45.8862   50.7722 H   0  0  0  0  0  0  0  0  0  0  0  0
    6.0300   45.6608   49.4999 H   0  0  0  0  0  0  0  0  0  0  0  0
    8.4032   45.0478   48.7904 H   0  0  0  0  0  0  0  0  0  0  0  0
    8.8472   44.8245   50.3904 H   0  0  0  0  0  0  0  0  0  0  0  0
    7.7845   42.7360   48.4647 H   0  0  0  0  0  0  0  0  0  0  0  0
    8.2228   42.2988   50.0198 H   0  0  0  0  0  0  0  0  0  0  0  0
    5.4976   43.1986   49.0895 H   0  0  0  0  0  0  0  0  0  0  0  0
    5.7477   42.8519   50.7093 H   0  0  0  0  0  0  0  0  0  0  0  0
    8.0679   46.6248   50.9793 H   0  0  0  0  0  0  0  0  0  0  0  0
    6.6123   47.4884   51.5652 H   0  0  0  0  0  0  0  0  0  0  0  0
  1  2  1  0
  2  3  1  0
  3  4  1  0
  4  5  1  0
  5  6  2  0
  5  7  1  0
  7  8  2  0
  8  9  1  0
  9 10  1  0
 10 11  1  0
 11 12  1  0
 11 13  2  0
 13 14  1  0
 14 15  1  0
  4 16  1  0
 16 17  1  0
 17 18  1  0
 18 19  1  0
 19 20  1  0
 20 21  1  0
 21 22  1  0
 18 23  1  0
 23  2  1  0
 15  7  1  0
 22 19  1  0
 14  9  2  0
  1 24  1  0
  1 25  1  0
  1 26  1  0
  2 27  1  1
  3 28  1  0
  3 29  1  0
  8 30  1  0
 13 31  1  0
 15 32  1  0
 16 33  1  0
 16 34  1  0
 17 35  1  0
 17 36  1  0
 19 37  1  0
 20 38  1  0
 20 39  1  0
 21 40  1  0
 21 41  1  0
 22 42  1  0
 22 43  1  0
 23 44  1  0
 23 45  1  0
M  END
>  <meeko>  (5) 
{"is_sidechain": [false], "free_energy": -6.054, "intermolecular_energy": -9.556, "internal_energy": 0.27}

$$$$
