MODEL 1
REMARK VINA RESULT:    -8.667      0.000      0.000
REMARK INTER + INTRA:         -11.791
REMARK INTER:                 -11.201
REMARK INTRA:                  -0.590
REMARK UNBOUND:                -0.590
REMARK SMILES O=C(N[C@@H]1C[C@H]2CNC[C@H]2C1)c1ccc(OCC2CCCCC2)cc1
REMARK SMILES IDX 12 1 13 2 14 3 15 4 24 5 25 6 2 7 1 8 3 9 4 11 11 12 5 13
REMARK SMILES IDX 10 14 6 15 9 16 7 17 8 18 16 20 17 21 18 22 19 23 23 24
REMARK SMILES IDX 20 25 22 26 21 27
REMARK H PARENT 3 10 8 19
ROOT
ATOM      1  C   UNL     1       4.001  43.608  50.932  1.00  0.00     0.040 A 
ATOM      2  C   UNL     1       4.077  45.000  51.116  1.00  0.00     0.017 A 
ATOM      3  C   UNL     1       5.274  45.683  50.896  1.00  0.00     0.047 A 
ATOM      4  C   UNL     1       6.418  45.001  50.478  1.00  0.00     0.119 A 
ATOM      5  C   UNL     1       6.359  43.603  50.315  1.00  0.00     0.047 A 
ATOM      6  C   UNL     1       5.163  42.916  50.543  1.00  0.00     0.017 A 
ENDROOT
BRANCH   1   7
ATOM      7  C   UNL     1       2.720  42.899  51.182  1.00  0.00     0.251 C 
ATOM      8  O   UNL     1       2.401  41.929  50.441  1.00  0.00    -0.269 OA
ATOM      9  N   UNL     1       1.846  43.280  52.255  1.00  0.00    -0.349 N 
ATOM     10  H   UNL     1       2.214  43.892  53.018  1.00  0.00     0.164 HD
BRANCH   9  11
ATOM     11  C   UNL     1       0.561  42.606  52.481  1.00  0.00     0.083 C 
ATOM     12  C   UNL     1       0.217  42.612  53.964  1.00  0.00     0.030 C 
ATOM     13  C   UNL     1      -0.578  43.375  51.815  1.00  0.00     0.030 C 
ATOM     14  C   UNL     1      -0.521  43.935  54.210  1.00  0.00     0.009 C 
ATOM     15  C   UNL     1      -1.093  44.373  52.867  1.00  0.00     0.009 C 
ATOM     16  C   UNL     1      -1.730  43.787  55.133  1.00  0.00     0.085 C 
ATOM     17  C   UNL     1      -2.615  44.351  53.050  1.00  0.00     0.085 C 
ATOM     18  N   UNL     1      -2.910  43.620  54.285  1.00  0.00    -0.316 NA
ATOM     19  H   UNL     1      -2.987  42.600  54.039  1.00  0.00     0.122 HD
ENDBRANCH   9  11
ENDBRANCH   1   7
BRANCH   4  20
ATOM     20  O   UNL     1       7.585  45.752  50.261  1.00  0.00    -0.493 OA
BRANCH  20  21
ATOM     21  C   UNL     1       8.814  45.643  50.985  1.00  0.00     0.233 C 
BRANCH  21  22
ATOM     22  C   UNL     1       8.811  46.580  52.214  1.00  0.00     0.027 C 
ATOM     23  C   UNL     1       7.819  46.086  53.284  1.00  0.00     0.007 C 
ATOM     24  C   UNL     1      10.226  46.746  52.825  1.00  0.00     0.007 C 
ATOM     25  C   UNL     1       7.682  47.097  54.446  1.00  0.00     0.000 C 
ATOM     26  C   UNL     1      10.214  47.201  54.301  1.00  0.00     0.000 C 
ATOM     27  C   UNL     1       8.935  47.964  54.658  1.00  0.00     0.000 C 
ENDBRANCH  21  22
ENDBRANCH  20  21
ENDBRANCH   4  20
TORSDOF 5
ENDMDL
MODEL 2
REMARK VINA RESULT:    -8.263      5.141      6.932
REMARK INTER + INTRA:         -11.268
REMARK INTER:                 -10.708
REMARK INTRA:                  -0.560
REMARK UNBOUND:                -0.590
REMARK SMILES O=C(N[C@@H]1C[C@H]2CNC[C@H]2C1)c1ccc(OCC2CCCCC2)cc1
REMARK SMILES IDX 12 1 13 2 14 3 15 4 24 5 25 6 2 7 1 8 3 9 4 11 11 12 5 13
REMARK SMILES IDX 10 14 6 15 9 16 7 17 8 18 16 20 17 21 18 22 19 23 23 24
REMARK SMILES IDX 20 25 22 26 21 27
REMARK H PARENT 3 10 8 19
ROOT
ATOM      1  C   UNL     1       4.613  41.188  48.919  1.00  0.00     0.040 A 
ATOM      2  C   UNL     1       4.426  41.772  50.184  1.00  0.00     0.017 A 
ATOM      3  C   UNL     1       5.270  42.791  50.630  1.00  0.00     0.047 A 
ATOM      4  C   UNL     1       6.310  43.259  49.825  1.00  0.00     0.119 A 
ATOM      5  C   UNL     1       6.521  42.664  48.567  1.00  0.00     0.047 A 
ATOM      6  C   UNL     1       5.682  41.638  48.122  1.00  0.00     0.017 A 
ENDROOT
BRANCH   1   7
ATOM      7  C   UNL     1       3.709  40.099  48.468  1.00  0.00     0.251 C 
ATOM      8  O   UNL     1       3.076  39.430  49.329  1.00  0.00    -0.269 OA
ATOM      9  N   UNL     1       3.527  39.802  47.075  1.00  0.00    -0.349 N 
ATOM     10  H   UNL     1       3.832  40.502  46.361  1.00  0.00     0.164 HD
BRANCH   9  11
ATOM     11  C   UNL     1       2.665  38.701  46.626  1.00  0.00     0.083 C 
ATOM     12  C   UNL     1       1.721  39.184  45.534  1.00  0.00     0.030 C 
ATOM     13  C   UNL     1       3.492  37.600  45.967  1.00  0.00     0.030 C 
ATOM     14  C   UNL     1       2.493  39.012  44.218  1.00  0.00     0.009 C 
ATOM     15  C   UNL     1       3.557  37.952  44.471  1.00  0.00     0.009 C 
ATOM     16  C   UNL     1       1.633  38.458  43.084  1.00  0.00     0.085 C 
ATOM     17  C   UNL     1       3.194  36.786  43.543  1.00  0.00     0.085 C 
ATOM     18  N   UNL     1       1.831  37.008  43.053  1.00  0.00    -0.316 NA
ATOM     19  H   UNL     1       1.170  36.579  43.750  1.00  0.00     0.122 HD
ENDBRANCH   9  11
ENDBRANCH   1   7
BRANCH   4  20
ATOM     20  O   UNL     1       7.112  44.295  50.330  1.00  0.00    -0.493 OA
BRANCH  20  21
ATOM     21  C   UNL     1       6.655  45.525  50.901  1.00  0.00     0.233 C 
BRANCH  21  22
ATOM     22  C   UNL     1       7.675  46.065  51.928  1.00  0.00     0.027 C 
ATOM     23  C   UNL     1       9.102  46.058  51.347  1.00  0.00     0.007 C 
ATOM     24  C   UNL     1       7.304  47.484  52.430  1.00  0.00     0.007 C 
ATOM     25  C   UNL     1      10.155  46.438  52.413  1.00  0.00     0.000 C 
ATOM     26  C   UNL     1       8.501  48.270  53.008  1.00  0.00     0.000 C 
ATOM     27  C   UNL     1       9.602  47.342  53.530  1.00  0.00     0.000 C 
ENDBRANCH  21  22
ENDBRANCH  20  21
ENDBRANCH   4  20
TORSDOF 5
ENDMDL
MODEL 3
REMARK VINA RESULT:    -8.049      2.467      3.604
REMARK INTER + INTRA:         -10.992
REMARK INTER:                 -10.255
REMARK INTRA:                  -0.737
REMARK UNBOUND:                -0.590
REMARK SMILES O=C(N[C@@H]1C[C@H]2CNC[C@H]2C1)c1ccc(OCC2CCCCC2)cc1
REMARK SMILES IDX 12 1 13 2 14 3 15 4 24 5 25 6 2 7 1 8 3 9 4 11 11 12 5 13
REMARK SMILES IDX 10 14 6 15 9 16 7 17 8 18 16 20 17 21 18 22 19 23 23 24
REMARK SMILES IDX 20 25 22 26 21 27
REMARK H PARENT 3 10 8 19
ROOT
ATOM      1  C   UNL     1       3.820  45.627  54.555  1.00  0.00     0.040 A 
ATOM      2  C   UNL     1       5.064  45.126  54.974  1.00  0.00     0.017 A 
ATOM      3  C   UNL     1       6.245  45.809  54.674  1.00  0.00     0.047 A 
ATOM      4  C   UNL     1       6.213  47.008  53.961  1.00  0.00     0.119 A 
ATOM      5  C   UNL     1       4.974  47.505  53.515  1.00  0.00     0.047 A 
ATOM      6  C   UNL     1       3.792  46.819  53.807  1.00  0.00     0.017 A 
ENDROOT
BRANCH   1   7
ATOM      7  C   UNL     1       2.577  44.880  54.877  1.00  0.00     0.251 C 
ATOM      8  O   UNL     1       2.092  44.965  56.038  1.00  0.00    -0.269 OA
ATOM      9  N   UNL     1       1.905  44.079  53.893  1.00  0.00    -0.349 N 
ATOM     10  H   UNL     1       2.141  44.209  52.883  1.00  0.00     0.164 HD
BRANCH   9  11
ATOM     11  C   UNL     1       0.697  43.309  54.218  1.00  0.00     0.083 C 
ATOM     12  C   UNL     1      -0.513  44.230  54.279  1.00  0.00     0.030 C 
ATOM     13  C   UNL     1       0.373  42.315  53.106  1.00  0.00     0.030 C 
ATOM     14  C   UNL     1      -1.044  44.308  52.841  1.00  0.00     0.009 C 
ATOM     15  C   UNL     1      -0.552  43.057  52.125  1.00  0.00     0.009 C 
ATOM     16  C   UNL     1      -2.568  44.247  52.758  1.00  0.00     0.085 C 
ATOM     17  C   UNL     1      -1.820  42.277  51.757  1.00  0.00     0.085 C 
ATOM     18  N   UNL     1      -2.937  42.852  52.511  1.00  0.00    -0.316 NA
ATOM     19  H   UNL     1      -2.978  42.362  53.440  1.00  0.00     0.122 HD
ENDBRANCH   9  11
ENDBRANCH   1   7
BRANCH   4  20
ATOM     20  O   UNL     1       7.436  47.650  53.705  1.00  0.00    -0.493 OA
BRANCH  20  21
ATOM     21  C   UNL     1       7.860  48.209  52.459  1.00  0.00     0.233 C 
BRANCH  21  22
ATOM     22  C   UNL     1       8.626  47.161  51.621  1.00  0.00     0.027 C 
ATOM     23  C   UNL     1       9.614  46.367  52.495  1.00  0.00     0.007 C 
ATOM     24  C   UNL     1       7.668  46.195  50.876  1.00  0.00     0.007 C 
ATOM     25  C   UNL     1      10.505  45.431  51.646  1.00  0.00     0.000 C 
ATOM     26  C   UNL     1       8.325  44.855  50.480  1.00  0.00     0.000 C 
ATOM     27  C   UNL     1       9.844  44.979  50.331  1.00  0.00     0.000 C 
ENDBRANCH  21  22
ENDBRANCH  20  21
ENDBRANCH   4  20
TORSDOF 5
ENDMDL
MODEL 4
REMARK VINA RESULT:    -7.720      4.042      6.062
REMARK INTER + INTRA:         -10.567
REMARK INTER:                 -10.181
REMARK INTRA:                  -0.386
REMARK UNBOUND:                -0.590
REMARK SMILES O=C(N[C@@H]1C[C@H]2CNC[C@H]2C1)c1ccc(OCC2CCCCC2)cc1
REMARK SMILES IDX 12 1 13 2 14 3 15 4 24 5 25 6 2 7 1 8 3 9 4 11 11 12 5 13
REMARK SMILES IDX 10 14 6 15 9 16 7 17 8 18 16 20 17 21 18 22 19 23 23 24
REMARK SMILES IDX 20 25 22 26 21 27
REMARK H PARENT 3 10 8 19
ROOT
ATOM      1  C   UNL     1       5.430  43.328  50.586  1.00  0.00     0.040 A 
ATOM      2  C   UNL     1       4.808  43.228  51.843  1.00  0.00     0.017 A 
ATOM      3  C   UNL     1       4.666  44.351  52.659  1.00  0.00     0.047 A 
ATOM      4  C   UNL     1       5.129  45.600  52.241  1.00  0.00     0.119 A 
ATOM      5  C   UNL     1       5.776  45.707  50.995  1.00  0.00     0.047 A 
ATOM      6  C   UNL     1       5.926  44.581  50.179  1.00  0.00     0.017 A 
ENDROOT
BRANCH   1   7
ATOM      7  C   UNL     1       5.579  42.119  49.737  1.00  0.00     0.251 C 
ATOM      8  O   UNL     1       6.375  41.209  50.098  1.00  0.00    -0.269 OA
ATOM      9  N   UNL     1       4.825  41.952  48.526  1.00  0.00    -0.349 N 
ATOM     10  H   UNL     1       3.990  42.558  48.360  1.00  0.00     0.164 HD
BRANCH   9  11
ATOM     11  C   UNL     1       4.998  40.776  47.665  1.00  0.00     0.083 C 
ATOM     12  C   UNL     1       3.673  40.044  47.502  1.00  0.00     0.030 C 
ATOM     13  C   UNL     1       5.388  41.194  46.249  1.00  0.00     0.030 C 
ATOM     14  C   UNL     1       2.975  40.716  46.312  1.00  0.00     0.009 C 
ATOM     15  C   UNL     1       4.068  41.372  45.477  1.00  0.00     0.009 C 
ATOM     16  C   UNL     1       2.294  39.722  45.373  1.00  0.00     0.085 C 
ATOM     17  C   UNL     1       4.036  40.646  44.127  1.00  0.00     0.085 C 
ATOM     18  N   UNL     1       3.231  39.431  44.288  1.00  0.00    -0.316 NA
ATOM     19  H   UNL     1       3.874  38.666  44.615  1.00  0.00     0.122 HD
ENDBRANCH   9  11
ENDBRANCH   1   7
BRANCH   4  20
ATOM     20  O   UNL     1       4.942  46.691  53.106  1.00  0.00    -0.493 OA
BRANCH  20  21
ATOM     21  C   UNL     1       5.937  47.307  53.927  1.00  0.00     0.233 C 
BRANCH  21  22
ATOM     22  C   UNL     1       7.355  46.988  53.403  1.00  0.00     0.027 C 
ATOM     23  C   UNL     1       7.774  47.979  52.301  1.00  0.00     0.007 C 
ATOM     24  C   UNL     1       8.409  46.970  54.540  1.00  0.00     0.007 C 
ATOM     25  C   UNL     1       9.118  47.577  51.651  1.00  0.00     0.000 C 
ATOM     26  C   UNL     1       9.856  47.190  54.049  1.00  0.00     0.000 C 
ATOM     27  C   UNL     1      10.037  46.772  52.586  1.00  0.00     0.000 C 
ENDBRANCH  21  22
ENDBRANCH  20  21
ENDBRANCH   4  20
TORSDOF 5
ENDMDL
