ligand_93_conformer_3_docked
     RDKit          3D

 55 59  0  0  0  0  0  0  0  0999 V2000
   -2.7060   44.2230   56.5190 C   0  0  0  0  0  0  0  0  0  0  0  0
   -1.8260   44.9720   55.6060 N   0  0  0  0  0  0  0  0  0  0  0  0
   -0.4280   44.5700   55.7260 C   0  0  0  0  0  0  0  0  0  0  0  0
    0.2470   45.1000   54.4840 C   0  0  0  0  0  0  0  0  0  0  0  0
   -0.8090   44.9370   53.3850 C   0  0  2  0  0  0  0  0  0  0  0  0
   -2.1560   44.9480   54.1610 C   0  0  1  0  0  0  0  0  0  0  0  0
   -3.0990   43.8000   53.7160 C   0  0  0  0  0  0  0  0  0  0  0  0
   -3.1250   43.7170   52.1920 C   0  0  0  0  0  0  0  0  0  0  0  0
   -1.7440   43.3210   51.6500 C   0  0  0  0  0  0  0  0  0  0  0  0
   -0.6590   43.7080   52.5670 N   0  0  0  0  0  0  0  0  0  0  0  0
    0.6100   43.0560   52.3860 C   0  0  0  0  0  0  0  0  0  0  0  0
    0.9720   42.1780   53.2160 O   0  0  0  0  0  0  0  0  0  0  0  0
    1.5060   43.4360   51.2210 C   0  0  2  0  0  0  0  0  0  0  0  0
    2.4440   42.2970   50.7910 C   0  0  0  0  0  0  0  0  0  0  0  0
    3.7520   42.5400   51.5350 C   0  0  0  0  0  0  0  0  0  0  0  0
    3.7170   43.9390   51.9310 N   0  0  0  0  0  0  0  0  0  0  0  0
    4.8520   44.6480   52.4550 C   0  0  0  0  0  0  0  0  0  0  0  0
    5.1430   44.6040   53.8260 C   0  0  0  0  0  0  0  0  0  0  0  0
    6.2520   45.2860   54.3400 C   0  0  0  0  0  0  0  0  0  0  0  0
    7.0890   46.0230   53.4890 C   0  0  0  0  0  0  0  0  0  0  0  0
    8.2680   46.7330   54.0290 C   0  0  0  0  0  0  0  0  0  0  0  0
    8.2100   47.7360   54.9300 N   0  0  0  0  0  0  0  0  0  0  0  0
    9.4710   48.0730   55.1470 N   0  0  0  0  0  0  0  0  0  0  0  0
   10.2570   47.3060   54.4120 N   0  0  0  0  0  0  0  0  0  0  0  0
    9.5440   46.4550   53.6950 N   0  0  0  0  0  0  0  0  0  0  0  0
    6.7940   46.0760   52.1180 C   0  0  0  0  0  0  0  0  0  0  0  0
    5.6810   45.4010   51.6040 C   0  0  0  0  0  0  0  0  0  0  0  0
    5.3900   45.5310   50.2840 F   0  0  0  0  0  0  0  0  0  0  0  0
    2.4480   44.5770   51.6160 C   0  0  0  0  0  0  0  0  0  0  0  0
   -2.4355   44.4532   57.5601 H   0  0  0  0  0  0  0  0  0  0  0  0
   -3.7520   44.5121   56.3394 H   0  0  0  0  0  0  0  0  0  0  0  0
   -2.5878   43.1442   56.3394 H   0  0  0  0  0  0  0  0  0  0  0  0
    0.0234   45.0100   56.6274 H   0  0  0  0  0  0  0  0  0  0  0  0
   -0.3214   43.4789   55.8168 H   0  0  0  0  0  0  0  0  0  0  0  0
    0.5198   46.1582   54.6094 H   0  0  0  0  0  0  0  0  0  0  0  0
    1.1820   44.5687   54.2527 H   0  0  0  0  0  0  0  0  0  0  0  0
   -0.7231   45.7399   52.6381 H   0  0  0  0  0  0  0  0  0  0  0  0
   -2.7470   45.8463   53.9292 H   0  0  0  0  0  0  0  0  0  0  0  0
   -2.7348   42.8473   54.1279 H   0  0  0  0  0  0  0  0  0  0  0  0
   -4.1152   43.9987   54.0874 H   0  0  0  0  0  0  0  0  0  0  0  0
   -3.8645   42.9634   51.8833 H   0  0  0  0  0  0  0  0  0  0  0  0
   -3.3960   44.7032   51.7872 H   0  0  0  0  0  0  0  0  0  0  0  0
   -1.7174   42.2304   51.5088 H   0  0  0  0  0  0  0  0  0  0  0  0
   -1.5886   43.8498   50.6980 H   0  0  0  0  0  0  0  0  0  0  0  0
    0.8142   43.7043   50.4090 H   0  0  0  0  0  0  0  0  0  0  0  0
    2.0181   41.3223   51.0714 H   0  0  0  0  0  0  0  0  0  0  0  0
    2.5925   42.2816   49.7012 H   0  0  0  0  0  0  0  0  0  0  0  0
    3.8173   41.8909   52.4206 H   0  0  0  0  0  0  0  0  0  0  0  0
    4.6272   42.3141   50.9081 H   0  0  0  0  0  0  0  0  0  0  0  0
    4.4944   44.0288   54.5031 H   0  0  0  0  0  0  0  0  0  0  0  0
    6.4685   45.2438   55.4177 H   0  0  0  0  0  0  0  0  0  0  0  0
   11.2990   47.3690   54.3950 H   0  0  0  0  0  0  0  0  0  0  0  0
    7.4426   46.6526   51.4421 H   0  0  0  0  0  0  0  0  0  0  0  0
    2.0576   45.1117   52.4944 H   0  0  0  0  0  0  0  0  0  0  0  0
    2.5520   45.3189   50.8106 H   0  0  0  0  0  0  0  0  0  0  0  0
  1  2  1  0
  2  3  1  0
  3  4  1  0
  4  5  1  0
  5  6  1  0
  6  7  1  0
  7  8  1  0
  8  9  1  0
  9 10  1  0
 10 11  1  0
 11 12  2  0
 11 13  1  0
 13 14  1  0
 14 15  1  0
 15 16  1  0
 16 17  1  0
 17 18  2  0
 18 19  1  0
 19 20  2  0
 20 21  1  0
 21 22  1  0
 22 23  2  0
 23 24  1  0
 24 25  1  0
 20 26  1  0
 26 27  2  0
 27 28  1  0
 16 29  1  0
  6  2  1  0
 29 13  1  0
 10  5  1  0
 27 17  1  0
 25 21  2  0
  1 30  1  0
  1 31  1  0
  1 32  1  0
  3 33  1  0
  3 34  1  0
  4 35  1  0
  4 36  1  0
  5 37  1  6
  6 38  1  6
  7 39  1  0
  7 40  1  0
  8 41  1  0
  8 42  1  0
  9 43  1  0
  9 44  1  0
 13 45  1  6
 14 46  1  0
 14 47  1  0
 15 48  1  0
 15 49  1  0
 18 50  1  0
 19 51  1  0
 24 52  1  0
 26 53  1  0
 29 54  1  0
 29 55  1  0
M  END
>  <meeko>  (1) 
{"is_sidechain": [false], "free_energy": -8.854, "intermolecular_energy": -10.924, "internal_energy": -0.823}

$$$$
ligand_93_conformer_3_docked
     RDKit          3D

 55 59  0  0  0  0  0  0  0  0999 V2000
   -3.5980   45.8340   50.2510 C   0  0  0  0  0  0  0  0  0  0  0  0
   -3.3590   44.4620   50.7290 N   0  0  0  0  0  0  0  0  0  0  0  0
   -2.2170   43.8350   50.0700 C   0  0  0  0  0  0  0  0  0  0  0  0
   -1.8600   42.6490   50.9340 C   0  0  0  0  0  0  0  0  0  0  0  0
   -2.1200   43.1370   52.3640 C   0  0  2  0  0  0  0  0  0  0  0  0
   -3.1750   44.2640   52.1860 C   0  0  1  0  0  0  0  0  0  0  0  0
   -2.8090   45.5420   52.9860 C   0  0  0  0  0  0  0  0  0  0  0  0
   -2.3700   45.1570   54.3970 C   0  0  0  0  0  0  0  0  0  0  0  0
   -1.0720   44.3390   54.3530 C   0  0  0  0  0  0  0  0  0  0  0  0
   -0.9120   43.6250   53.0750 N   0  0  0  0  0  0  0  0  0  0  0  0
    0.4110   43.1640   52.7480 C   0  0  0  0  0  0  0  0  0  0  0  0
    0.9490   42.2840   53.4740 O   0  0  0  0  0  0  0  0  0  0  0  0
    1.1510   43.7440   51.5570 C   0  0  2  0  0  0  0  0  0  0  0  0
    2.0350   42.7100   50.8400 C   0  0  0  0  0  0  0  0  0  0  0  0
    3.4240   42.8690   51.4470 C   0  0  0  0  0  0  0  0  0  0  0  0
    3.4290   44.1880   52.0590 N   0  0  0  0  0  0  0  0  0  0  0  0
    4.6170   44.8370   52.5440 C   0  0  0  0  0  0  0  0  0  0  0  0
    4.9500   44.7780   53.9050 C   0  0  0  0  0  0  0  0  0  0  0  0
    6.1090   45.4010   54.3810 C   0  0  0  0  0  0  0  0  0  0  0  0
    6.9550   46.0940   53.5020 C   0  0  0  0  0  0  0  0  0  0  0  0
    8.1870   46.7410   54.0030 C   0  0  0  0  0  0  0  0  0  0  0  0
    8.2190   47.6710   54.9790 N   0  0  0  0  0  0  0  0  0  0  0  0
    9.5000   47.9710   55.1230 N   0  0  0  0  0  0  0  0  0  0  0  0
   10.2110   47.2520   54.2720 N   0  0  0  0  0  0  0  0  0  0  0  0
    9.4270   46.4710   53.5500 N   0  0  0  0  0  0  0  0  0  0  0  0
    6.6180   46.1610   52.1410 C   0  0  0  0  0  0  0  0  0  0  0  0
    5.4560   45.5460   51.6650 C   0  0  0  0  0  0  0  0  0  0  0  0
    5.1290   45.6900   50.3550 F   0  0  0  0  0  0  0  0  0  0  0  0
    2.1270   44.8340   52.0070 C   0  0  0  0  0  0  0  0  0  0  0  0
   -3.7153   46.5073   51.1129 H   0  0  0  0  0  0  0  0  0  0  0  0
   -2.7438   46.1640   49.6415 H   0  0  0  0  0  0  0  0  0  0  0  0
   -4.5134   45.8557   49.6415 H   0  0  0  0  0  0  0  0  0  0  0  0
   -2.4902   43.5052   49.0568 H   0  0  0  0  0  0  0  0  0  0  0  0
   -1.3729   44.5319   49.9612 H   0  0  0  0  0  0  0  0  0  0  0  0
   -2.4973   41.7851   50.6942 H   0  0  0  0  0  0  0  0  0  0  0  0
   -0.8230   42.3140   50.7840 H   0  0  0  0  0  0  0  0  0  0  0  0
   -2.4625   42.3097   53.0029 H   0  0  0  0  0  0  0  0  0  0  0  0
   -4.1452   43.9792   52.6192 H   0  0  0  0  0  0  0  0  0  0  0  0
   -1.9875   46.0686   52.4783 H   0  0  0  0  0  0  0  0  0  0  0  0
   -3.6887   46.1998   53.0446 H   0  0  0  0  0  0  0  0  0  0  0  0
   -2.2019   46.0709   54.9856 H   0  0  0  0  0  0  0  0  0  0  0  0
   -3.1591   44.5466   54.8604 H   0  0  0  0  0  0  0  0  0  0  0  0
   -0.2186   45.0197   54.4886 H   0  0  0  0  0  0  0  0  0  0  0  0
   -1.1155   43.5898   55.1572 H   0  0  0  0  0  0  0  0  0  0  0  0
    0.3608   44.1175   50.8891 H   0  0  0  0  0  0  0  0  0  0  0  0
    1.6541   41.6927   51.0134 H   0  0  0  0  0  0  0  0  0  0  0  0
    2.0455   42.8677   49.7514 H   0  0  0  0  0  0  0  0  0  0  0  0
    3.6041   42.0923   52.2049 H   0  0  0  0  0  0  0  0  0  0  0  0
    4.2155   42.7661   50.6901 H   0  0  0  0  0  0  0  0  0  0  0  0
    4.2948   44.2376   54.6040 H   0  0  0  0  0  0  0  0  0  0  0  0
    6.3584   45.3471   55.4510 H   0  0  0  0  0  0  0  0  0  0  0  0
   11.2500   47.3000   54.1790 H   0  0  0  0  0  0  0  0  0  0  0  0
    7.2737   46.7020   51.4429 H   0  0  0  0  0  0  0  0  0  0  0  0
    1.8467   45.2158   52.9998 H   0  0  0  0  0  0  0  0  0  0  0  0
    2.1240   45.6945   51.3218 H   0  0  0  0  0  0  0  0  0  0  0  0
  1  2  1  0
  2  3  1  0
  3  4  1  0
  4  5  1  0
  5  6  1  0
  6  7  1  0
  7  8  1  0
  8  9  1  0
  9 10  1  0
 10 11  1  0
 11 12  2  0
 11 13  1  0
 13 14  1  0
 14 15  1  0
 15 16  1  0
 16 17  1  0
 17 18  2  0
 18 19  1  0
 19 20  2  0
 20 21  1  0
 21 22  1  0
 22 23  2  0
 23 24  1  0
 24 25  1  0
 20 26  1  0
 26 27  2  0
 27 28  1  0
 16 29  1  0
  6  2  1  0
 29 13  1  0
 10  5  1  0
 27 17  1  0
 25 21  2  0
  1 30  1  0
  1 31  1  0
  1 32  1  0
  3 33  1  0
  3 34  1  0
  4 35  1  0
  4 36  1  0
  5 37  1  1
  6 38  1  1
  7 39  1  0
  7 40  1  0
  8 41  1  0
  8 42  1  0
  9 43  1  0
  9 44  1  0
 13 45  1  6
 14 46  1  0
 14 47  1  0
 15 48  1  0
 15 49  1  0
 18 50  1  0
 19 51  1  0
 24 52  1  0
 26 53  1  0
 29 54  1  0
 29 55  1  0
M  END
>  <meeko>  (2) 
{"is_sidechain": [false], "free_energy": -8.56, "intermolecular_energy": -10.722, "internal_energy": -0.664}

$$$$
ligand_93_conformer_3_docked
     RDKit          3D

 55 59  0  0  0  0  0  0  0  0999 V2000
   10.2510   44.5500   50.7800 C   0  0  0  0  0  0  0  0  0  0  0  0
    9.3650   45.7230   50.6980 N   0  0  0  0  0  0  0  0  0  0  0  0
    7.9600   45.3500   50.5630 C   0  0  0  0  0  0  0  0  0  0  0  0
    7.1810   46.5970   50.9070 C   0  0  0  0  0  0  0  0  0  0  0  0
    7.9990   47.2510   52.0260 C   0  0  2  0  0  0  0  0  0  0  0  0
    9.4400   46.7180   51.7930 C   0  0  1  0  0  0  0  0  0  0  0  0
   10.0970   46.2110   53.1040 C   0  0  0  0  0  0  0  0  0  0  0  0
    9.8550   47.2200   54.2240 C   0  0  0  0  0  0  0  0  0  0  0  0
    8.3570   47.3150   54.5490 C   0  0  0  0  0  0  0  0  0  0  0  0
    7.5170   46.9480   53.3970 N   0  0  0  0  0  0  0  0  0  0  0  0
    6.1470   46.6070   53.6710 C   0  0  0  0  0  0  0  0  0  0  0  0
    5.2920   47.5310   53.7560 O   0  0  0  0  0  0  0  0  0  0  0  0
    5.7450   45.1580   53.8740 C   0  0  2  0  0  0  0  0  0  0  0  0
    5.0550   44.5510   52.6420 C   0  0  0  0  0  0  0  0  0  0  0  0
    3.5600   44.7250   52.8820 C   0  0  0  0  0  0  0  0  0  0  0  0
    3.4210   44.9370   54.3130 N   0  0  0  0  0  0  0  0  0  0  0  0
    2.1600   44.9160   55.0040 C   0  0  0  0  0  0  0  0  0  0  0  0
    1.9890   45.6510   56.1860 C   0  0  0  0  0  0  0  0  0  0  0  0
    0.7610   45.6410   56.8580 C   0  0  0  0  0  0  0  0  0  0  0  0
   -0.3170   44.8960   56.3570 C   0  0  0  0  0  0  0  0  0  0  0  0
   -1.6180   44.8960   57.0580 C   0  0  0  0  0  0  0  0  0  0  0  0
   -2.0400   45.8740   57.8850 N   0  0  0  0  0  0  0  0  0  0  0  0
   -3.2430   45.4900   58.2830 N   0  0  0  0  0  0  0  0  0  0  0  0
   -3.5350   44.3310   57.7200 N   0  0  0  0  0  0  0  0  0  0  0  0
   -2.5430   43.9220   56.9470 N   0  0  0  0  0  0  0  0  0  0  0  0
   -0.1440   44.1530   55.1780 C   0  0  0  0  0  0  0  0  0  0  0  0
    1.0850   44.1560   54.5100 C   0  0  0  0  0  0  0  0  0  0  0  0
    1.2340   43.3710   53.4110 F   0  0  0  0  0  0  0  0  0  0  0  0
    4.7040   45.0390   54.9910 C   0  0  0  0  0  0  0  0  0  0  0  0
   10.4368   44.3040   51.8359 H   0  0  0  0  0  0  0  0  0  0  0  0
    9.7724   43.6935   50.2827 H   0  0  0  0  0  0  0  0  0  0  0  0
   11.2057   44.7762   50.2827 H   0  0  0  0  0  0  0  0  0  0  0  0
    7.7431   45.0324   49.5324 H   0  0  0  0  0  0  0  0  0  0  0  0
    7.6949   44.5074   51.2185 H   0  0  0  0  0  0  0  0  0  0  0  0
    7.1074   47.2644   50.0357 H   0  0  0  0  0  0  0  0  0  0  0  0
    6.1469   46.3785   51.2119 H   0  0  0  0  0  0  0  0  0  0  0  0
    7.9215   48.3472   51.9770 H   0  0  0  0  0  0  0  0  0  0  0  0
   10.1209   47.5228   51.4790 H   0  0  0  0  0  0  0  0  0  0  0  0
    9.6566   45.2424   53.3829 H   0  0  0  0  0  0  0  0  0  0  0  0
   11.1794   46.0930   52.9473 H   0  0  0  0  0  0  0  0  0  0  0  0
   10.4009   46.8998   55.1237 H   0  0  0  0  0  0  0  0  0  0  0  0
   10.2108   48.2077   53.8956 H   0  0  0  0  0  0  0  0  0  0  0  0
    8.1312   46.6352   55.3838 H   0  0  0  0  0  0  0  0  0  0  0  0
    8.1328   48.3590   54.8133 H   0  0  0  0  0  0  0  0  0  0  0  0
    6.6852   44.6330   54.0983 H   0  0  0  0  0  0  0  0  0  0  0  0
    5.3618   45.0827   51.7292 H   0  0  0  0  0  0  0  0  0  0  0  0
    5.3247   43.4935   52.5043 H   0  0  0  0  0  0  0  0  0  0  0  0
    3.1794   45.5941   52.3254 H   0  0  0  0  0  0  0  0  0  0  0  0
    2.9864   43.8508   52.5403 H   0  0  0  0  0  0  0  0  0  0  0  0
    2.8264   46.2400   56.5883 H   0  0  0  0  0  0  0  0  0  0  0  0
    0.6405   46.2210   57.7849 H   0  0  0  0  0  0  0  0  0  0  0  0
   -4.4250   43.8060   57.8700 H   0  0  0  0  0  0  0  0  0  0  0  0
   -0.9817   43.5639   54.7765 H   0  0  0  0  0  0  0  0  0  0  0  0
    4.7286   45.9293   55.6366 H   0  0  0  0  0  0  0  0  0  0  0  0
    4.8953   44.1703   55.6381 H   0  0  0  0  0  0  0  0  0  0  0  0
  1  2  1  0
  2  3  1  0
  3  4  1  0
  4  5  1  0
  5  6  1  0
  6  7  1  0
  7  8  1  0
  8  9  1  0
  9 10  1  0
 10 11  1  0
 11 12  2  0
 11 13  1  0
 13 14  1  0
 14 15  1  0
 15 16  1  0
 16 17  1  0
 17 18  2  0
 18 19  1  0
 19 20  2  0
 20 21  1  0
 21 22  1  0
 22 23  2  0
 23 24  1  0
 24 25  1  0
 20 26  1  0
 26 27  2  0
 27 28  1  0
 16 29  1  0
  6  2  1  0
 29 13  1  0
 10  5  1  0
 27 17  1  0
 25 21  2  0
  1 30  1  0
  1 31  1  0
  1 32  1  0
  3 33  1  0
  3 34  1  0
  4 35  1  0
  4 36  1  0
  5 37  1  6
  6 38  1  6
  7 39  1  0
  7 40  1  0
  8 41  1  0
  8 42  1  0
  9 43  1  0
  9 44  1  0
 13 45  1  1
 14 46  1  0
 14 47  1  0
 15 48  1  0
 15 49  1  0
 18 50  1  0
 19 51  1  0
 24 52  1  0
 26 53  1  0
 29 54  1  0
 29 55  1  0
M  END
>  <meeko>  (3) 
{"is_sidechain": [false], "free_energy": -8.504, "intermolecular_energy": -10.928, "internal_energy": -0.387}

$$$$
ligand_93_conformer_3_docked
     RDKit          3D

 55 59  0  0  0  0  0  0  0  0999 V2000
    9.9770   44.5610   50.4090 C   0  0  0  0  0  0  0  0  0  0  0  0
    8.8430   45.5000   50.4190 N   0  0  0  0  0  0  0  0  0  0  0  0
    7.5560   44.8160   50.4990 C   0  0  0  0  0  0  0  0  0  0  0  0
    6.5650   45.8780   50.9120 C   0  0  0  0  0  0  0  0  0  0  0  0
    7.3520   46.7680   51.8800 C   0  0  2  0  0  0  0  0  0  0  0  0
    8.8330   46.5550   51.4590 C   0  0  1  0  0  0  0  0  0  0  0  0
    9.7570   46.2920   52.6770 C   0  0  0  0  0  0  0  0  0  0  0  0
    9.4400   47.2910   53.7880 C   0  0  0  0  0  0  0  0  0  0  0  0
    8.0180   47.0710   54.3220 C   0  0  0  0  0  0  0  0  0  0  0  0
    7.1390   46.4520   53.3150 N   0  0  0  0  0  0  0  0  0  0  0  0
    5.9330   45.8340   53.7940 C   0  0  0  0  0  0  0  0  0  0  0  0
    5.9340   44.5970   54.0400 O   0  0  0  0  0  0  0  0  0  0  0  0
    4.6730   46.6590   53.9830 C   0  0  2  0  0  0  0  0  0  0  0  0
    3.9860   46.4020   55.3340 C   0  0  0  0  0  0  0  0  0  0  0  0
    2.9310   45.3370   55.0610 C   0  0  0  0  0  0  0  0  0  0  0  0
    2.7090   45.3740   53.6240 N   0  0  0  0  0  0  0  0  0  0  0  0
    1.6260   44.6930   52.9670 C   0  0  0  0  0  0  0  0  0  0  0  0
    0.3870   45.3300   52.8000 C   0  0  0  0  0  0  0  0  0  0  0  0
   -0.6670   44.6750   52.1540 C   0  0  0  0  0  0  0  0  0  0  0  0
   -0.5000   43.3720   51.6630 C   0  0  0  0  0  0  0  0  0  0  0  0
   -1.6090   42.6840   50.9690 C   0  0  0  0  0  0  0  0  0  0  0  0
   -1.8220   42.7290   49.6370 N   0  0  0  0  0  0  0  0  0  0  0  0
   -2.8950   41.9800   49.4380 N   0  0  0  0  0  0  0  0  0  0  0  0
   -3.3110   41.5020   50.5970 N   0  0  0  0  0  0  0  0  0  0  0  0
   -2.5350   41.9210   51.5820 N   0  0  0  0  0  0  0  0  0  0  0  0
    0.7370   42.7300   51.8370 C   0  0  0  0  0  0  0  0  0  0  0  0
    1.7890   43.3800   52.4900 C   0  0  0  0  0  0  0  0  0  0  0  0
    2.9470   42.7020   52.6990 F   0  0  0  0  0  0  0  0  0  0  0  0
    3.6180   46.2790   52.9410 C   0  0  0  0  0  0  0  0  0  0  0  0
   10.2648   44.3227   51.4436 H   0  0  0  0  0  0  0  0  0  0  0  0
    9.6839   43.6376   49.8880 H   0  0  0  0  0  0  0  0  0  0  0  0
   10.8295   45.0212   49.8880 H   0  0  0  0  0  0  0  0  0  0  0  0
    7.2827   44.3936   49.5208 H   0  0  0  0  0  0  0  0  0  0  0  0
    7.5804   43.9786   51.2118 H   0  0  0  0  0  0  0  0  0  0  0  0
    6.2251   46.4553   50.0395 H   0  0  0  0  0  0  0  0  0  0  0  0
    5.6589   45.4545   51.3699 H   0  0  0  0  0  0  0  0  0  0  0  0
    7.0195   47.8141   51.8081 H   0  0  0  0  0  0  0  0  0  0  0  0
    9.2633   47.4693   51.0243 H   0  0  0  0  0  0  0  0  0  0  0  0
    9.5924   45.2692   53.0469 H   0  0  0  0  0  0  0  0  0  0  0  0
   10.8068   46.4090   52.3702 H   0  0  0  0  0  0  0  0  0  0  0  0
   10.1593   47.1584   54.6096 H   0  0  0  0  0  0  0  0  0  0  0  0
    9.5122   48.3100   53.3801 H   0  0  0  0  0  0  0  0  0  0  0  0
    8.0673   46.4134   55.2024 H   0  0  0  0  0  0  0  0  0  0  0  0
    7.5972   48.0536   54.5817 H   0  0  0  0  0  0  0  0  0  0  0  0
    5.0065   47.7042   53.9028 H   0  0  0  0  0  0  0  0  0  0  0  0
    4.7156   46.0392   56.0730 H   0  0  0  0  0  0  0  0  0  0  0  0
    3.5409   47.3199   55.7455 H   0  0  0  0  0  0  0  0  0  0  0  0
    3.2957   44.3459   55.3689 H   0  0  0  0  0  0  0  0  0  0  0  0
    2.0045   45.5248   55.6234 H   0  0  0  0  0  0  0  0  0  0  0  0
    0.2433   46.3523   53.1799 H   0  0  0  0  0  0  0  0  0  0  0  0
   -1.6334   45.1856   52.0303 H   0  0  0  0  0  0  0  0  0  0  0  0
   -4.1430   40.8830   50.7190 H   0  0  0  0  0  0  0  0  0  0  0  0
    0.8795   41.7077   51.4566 H   0  0  0  0  0  0  0  0  0  0  0  0
    4.0883   45.7768   52.0827 H   0  0  0  0  0  0  0  0  0  0  0  0
    3.0954   47.1631   52.5469 H   0  0  0  0  0  0  0  0  0  0  0  0
  1  2  1  0
  2  3  1  0
  3  4  1  0
  4  5  1  0
  5  6  1  0
  6  7  1  0
  7  8  1  0
  8  9  1  0
  9 10  1  0
 10 11  1  0
 11 12  2  0
 11 13  1  0
 13 14  1  0
 14 15  1  0
 15 16  1  0
 16 17  1  0
 17 18  2  0
 18 19  1  0
 19 20  2  0
 20 21  1  0
 21 22  1  0
 22 23  2  0
 23 24  1  0
 24 25  1  0
 20 26  1  0
 26 27  2  0
 27 28  1  0
 16 29  1  0
  6  2  1  0
 29 13  1  0
 10  5  1  0
 27 17  1  0
 25 21  2  0
  1 30  1  0
  1 31  1  0
  1 32  1  0
  3 33  1  0
  3 34  1  0
  4 35  1  0
  4 36  1  0
  5 37  1  1
  6 38  1  6
  7 39  1  0
  7 40  1  0
  8 41  1  0
  8 42  1  0
  9 43  1  0
  9 44  1  0
 13 45  1  1
 14 46  1  0
 14 47  1  0
 15 48  1  0
 15 49  1  0
 18 50  1  0
 19 51  1  0
 24 52  1  0
 26 53  1  0
 29 54  1  0
 29 55  1  0
M  END
>  <meeko>  (4) 
{"is_sidechain": [false], "free_energy": -8.363, "intermolecular_energy": -10.317, "internal_energy": -0.825}

$$$$
ligand_93_conformer_3_docked
     RDKit          3D

 55 59  0  0  0  0  0  0  0  0999 V2000
   -3.2170   47.4600   56.3260 C   0  0  0  0  0  0  0  0  0  0  0  0
   -3.1470   45.9950   56.1970 N   0  0  0  0  0  0  0  0  0  0  0  0
   -3.3600   45.5470   54.8240 C   0  0  0  0  0  0  0  0  0  0  0  0
   -2.8550   44.1250   54.7860 C   0  0  0  0  0  0  0  0  0  0  0  0
   -1.6380   44.1340   55.7190 C   0  0  2  0  0  0  0  0  0  0  0  0
   -1.9180   45.3220   56.6820 C   0  0  1  0  0  0  0  0  0  0  0  0
   -0.6820   46.2430   56.8520 C   0  0  0  0  0  0  0  0  0  0  0  0
    0.5660   45.3920   57.0720 C   0  0  0  0  0  0  0  0  0  0  0  0
    0.8730   44.5530   55.8230 C   0  0  0  0  0  0  0  0  0  0  0  0
   -0.3350   44.2870   55.0250 N   0  0  0  0  0  0  0  0  0  0  0  0
   -0.1380   43.8750   53.6620 C   0  0  0  0  0  0  0  0  0  0  0  0
   -0.3240   42.6670   53.3530 O   0  0  0  0  0  0  0  0  0  0  0  0
    0.3070   44.8810   52.6160 C   0  0  2  0  0  0  0  0  0  0  0  0
    0.8560   44.2180   51.3430 C   0  0  0  0  0  0  0  0  0  0  0  0
    2.3670   44.1480   51.5370 C   0  0  0  0  0  0  0  0  0  0  0  0
    2.6690   45.1260   52.5690 N   0  0  0  0  0  0  0  0  0  0  0  0
    4.0030   45.5530   52.8970 C   0  0  0  0  0  0  0  0  0  0  0  0
    4.4970   45.3890   54.2000 C   0  0  0  0  0  0  0  0  0  0  0  0
    5.7960   45.7940   54.5230 C   0  0  0  0  0  0  0  0  0  0  0  0
    6.6240   46.3700   53.5480 C   0  0  0  0  0  0  0  0  0  0  0  0
    8.0020   46.7870   53.8860 C   0  0  0  0  0  0  0  0  0  0  0  0
    8.3290   47.5580   54.9420 N   0  0  0  0  0  0  0  0  0  0  0  0
    9.6460   47.6780   54.8820 N   0  0  0  0  0  0  0  0  0  0  0  0
   10.0940   47.0060   53.8370 N   0  0  0  0  0  0  0  0  0  0  0  0
    9.0970   46.4350   53.1840 N   0  0  0  0  0  0  0  0  0  0  0  0
    6.1270   46.5430   52.2460 C   0  0  0  0  0  0  0  0  0  0  0  0
    4.8260   46.1460   51.9240 C   0  0  0  0  0  0  0  0  0  0  0  0
    4.3580   46.3910   50.6730 F   0  0  0  0  0  0  0  0  0  0  0  0
    1.4730   45.7240   53.1400 C   0  0  0  0  0  0  0  0  0  0  0  0
   -3.2301   47.7341   57.3912 H   0  0  0  0  0  0  0  0  0  0  0  0
   -2.3395   47.9131   55.8416 H   0  0  0  0  0  0  0  0  0  0  0  0
   -4.1337   47.8274   55.8416 H   0  0  0  0  0  0  0  0  0  0  0  0
   -4.4293   45.5831   54.5685 H   0  0  0  0  0  0  0  0  0  0  0  0
   -2.8375   46.1873   54.0980 H   0  0  0  0  0  0  0  0  0  0  0  0
   -3.6230   43.4282   55.1529 H   0  0  0  0  0  0  0  0  0  0  0  0
   -2.6033   43.7939   53.7677 H   0  0  0  0  0  0  0  0  0  0  0  0
   -1.5304   43.1668   56.2317 H   0  0  0  0  0  0  0  0  0  0  0  0
   -2.1000   44.9738   57.7094 H   0  0  0  0  0  0  0  0  0  0  0  0
   -0.5534   46.8536   55.9461 H   0  0  0  0  0  0  0  0  0  0  0  0
   -0.8334   46.8999   57.7212 H   0  0  0  0  0  0  0  0  0  0  0  0
    1.4207   46.0512   57.2841 H   0  0  0  0  0  0  0  0  0  0  0  0
    0.3892   44.7146   57.9205 H   0  0  0  0  0  0  0  0  0  0  0  0
    1.5976   45.0971   55.1993 H   0  0  0  0  0  0  0  0  0  0  0  0
    1.2796   43.5864   56.1553 H   0  0  0  0  0  0  0  0  0  0  0  0
   -0.5929   45.4736   52.3948 H   0  0  0  0  0  0  0  0  0  0  0  0
    0.4367   43.2080   51.2246 H   0  0  0  0  0  0  0  0  0  0  0  0
    0.5871   44.7854   50.4398 H   0  0  0  0  0  0  0  0  0  0  0  0
    2.6672   43.1407   51.8616 H   0  0  0  0  0  0  0  0  0  0  0  0
    2.9096   44.3575   50.6033 H   0  0  0  0  0  0  0  0  0  0  0  0
    3.8576   44.9384   54.9734 H   0  0  0  0  0  0  0  0  0  0  0  0
    6.1710   45.6600   55.5484 H   0  0  0  0  0  0  0  0  0  0  0  0
   11.1000   46.9410   53.5610 H   0  0  0  0  0  0  0  0  0  0  0  0
    6.7666   46.9945   51.4734 H   0  0  0  0  0  0  0  0  0  0  0  0
    1.5113   45.6872   54.2387 H   0  0  0  0  0  0  0  0  0  0  0  0
    1.3710   46.7827   52.8593 H   0  0  0  0  0  0  0  0  0  0  0  0
  1  2  1  0
  2  3  1  0
  3  4  1  0
  4  5  1  0
  5  6  1  0
  6  7  1  0
  7  8  1  0
  8  9  1  0
  9 10  1  0
 10 11  1  0
 11 12  2  0
 11 13  1  0
 13 14  1  0
 14 15  1  0
 15 16  1  0
 16 17  1  0
 17 18  2  0
 18 19  1  0
 19 20  2  0
 20 21  1  0
 21 22  1  0
 22 23  2  0
 23 24  1  0
 24 25  1  0
 20 26  1  0
 26 27  2  0
 27 28  1  0
 16 29  1  0
  6  2  1  0
 29 13  1  0
 10  5  1  0
 27 17  1  0
 25 21  2  0
  1 30  1  0
  1 31  1  0
  1 32  1  0
  3 33  1  0
  3 34  1  0
  4 35  1  0
  4 36  1  0
  5 37  1  1
  6 38  1  1
  7 39  1  0
  7 40  1  0
  8 41  1  0
  8 42  1  0
  9 43  1  0
  9 44  1  0
 13 45  1  6
 14 46  1  0
 14 47  1  0
 15 48  1  0
 15 49  1  0
 18 50  1  0
 19 51  1  0
 24 52  1  0
 26 53  1  0
 29 54  1  0
 29 55  1  0
M  END
>  <meeko>  (5) 
{"is_sidechain": [false], "free_energy": -8.257, "intermolecular_energy": -10.626, "internal_energy": -0.385}

$$$$
