MODEL 1
REMARK VINA RESULT:    -9.626      0.000      0.000
REMARK INTER + INTRA:         -14.054
REMARK INTER:                 -13.002
REMARK INTRA:                  -1.052
REMARK UNBOUND:                -1.052
REMARK SMILES CCc1noc(-c2ccc(C)c(NCc3ccc(C(=O)N4CCCC4)cc3)c2)n1
REMARK SMILES IDX 7 1 8 2 9 3 10 4 11 5 12 6 28 7 6 8 3 9 4 10 29 11 5 12 2 13
REMARK SMILES IDX 1 14 13 15 14 17 15 18 16 19 27 20 17 21 26 22 18 23 19 24
REMARK SMILES IDX 20 25 21 26 22 27 25 28 23 29 24 30
REMARK H PARENT 13 16
ROOT
ATOM      1  C   UNL     1       2.049  42.813  51.570  1.00  0.00     0.042 A 
ATOM      2  C   UNL     1       0.813  43.083  50.967  1.00  0.00     0.014 A 
ATOM      3  C   UNL     1      -0.204  43.705  51.691  1.00  0.00     0.006 A 
ATOM      4  C   UNL     1      -0.011  44.062  53.035  1.00  0.00    -0.028 A 
ATOM      5  C   UNL     1      -1.142  44.703  53.795  1.00  0.00     0.046 C 
ATOM      6  C   UNL     1       1.232  43.794  53.657  1.00  0.00     0.038 A 
ATOM      7  C   UNL     1       2.252  43.178  52.909  1.00  0.00     0.039 A 
ENDROOT
BRANCH   1   8
ATOM      8  C   UNL     1       3.129  42.157  50.807  1.00  0.00     0.257 A 
ATOM      9  C   UNL     1       4.989  41.606  50.042  1.00  0.00     0.172 A 
ATOM     10  N   UNL     1       4.075  40.831  49.427  1.00  0.00    -0.062 NA
ATOM     11  N   UNL     1       4.437  42.455  50.933  1.00  0.00    -0.192 NA
ATOM     12  O   UNL     1       2.937  41.206  49.923  1.00  0.00    -0.334 OA
BRANCH   9  13
ATOM     13  C   UNL     1       6.464  41.485  49.820  1.00  0.00     0.078 C 
ATOM     14  C   UNL     1       7.055  42.827  49.405  1.00  0.00     0.012 C 
ENDBRANCH   9  13
ENDBRANCH   1   8
BRANCH   6  15
ATOM     15  N   UNL     1       1.452  44.145  55.039  1.00  0.00    -0.381 N 
ATOM     16  H   UNL     1       1.193  43.465  55.789  1.00  0.00     0.160 HD
BRANCH  15  17
ATOM     17  C   UNL     1       2.163  45.352  55.463  1.00  0.00     0.148 C 
BRANCH  17  18
ATOM     18  C   UNL     1       3.375  45.578  54.599  1.00  0.00    -0.029 A 
ATOM     19  C   UNL     1       4.526  44.799  54.791  1.00  0.00     0.006 A 
ATOM     20  C   UNL     1       3.355  46.533  53.570  1.00  0.00     0.006 A 
ATOM     21  C   UNL     1       5.644  44.975  53.972  1.00  0.00     0.014 A 
ATOM     22  C   UNL     1       4.475  46.710  52.751  1.00  0.00     0.014 A 
ATOM     23  C   UNL     1       5.633  45.944  52.956  1.00  0.00     0.040 A 
BRANCH  23  24
ATOM     24  C   UNL     1       6.802  46.118  52.070  1.00  0.00     0.253 C 
ATOM     25  O   UNL     1       6.627  46.095  50.822  1.00  0.00    -0.269 OA
ATOM     26  N   UNL     1       8.126  46.314  52.597  1.00  0.00    -0.339 N 
ATOM     27  C   UNL     1       8.403  46.996  53.853  1.00  0.00     0.120 C 
ATOM     28  C   UNL     1       9.324  46.089  51.807  1.00  0.00     0.120 C 
ATOM     29  C   UNL     1       9.920  47.045  53.969  1.00  0.00     0.023 C 
ATOM     30  C   UNL     1      10.459  46.764  52.568  1.00  0.00     0.023 C 
ENDBRANCH  23  24
ENDBRANCH  17  18
ENDBRANCH  15  17
ENDBRANCH   6  15
TORSDOF 6
ENDMDL
MODEL 2
REMARK VINA RESULT:    -8.823      3.360      6.434
REMARK INTER + INTRA:         -12.970
REMARK INTER:                 -12.262
REMARK INTRA:                  -0.708
REMARK UNBOUND:                -1.052
REMARK SMILES CCc1noc(-c2ccc(C)c(NCc3ccc(C(=O)N4CCCC4)cc3)c2)n1
REMARK SMILES IDX 7 1 8 2 9 3 10 4 11 5 12 6 28 7 6 8 3 9 4 10 29 11 5 12 2 13
REMARK SMILES IDX 1 14 13 15 14 17 15 18 16 19 27 20 17 21 26 22 18 23 19 24
REMARK SMILES IDX 20 25 21 26 22 27 25 28 23 29 24 30
REMARK H PARENT 13 16
ROOT
ATOM      1  C   UNL     1      -0.458  45.442  56.433  1.00  0.00     0.042 A 
ATOM      2  C   UNL     1      -1.726  44.875  56.255  1.00  0.00     0.014 A 
ATOM      3  C   UNL     1      -1.972  44.016  55.184  1.00  0.00     0.006 A 
ATOM      4  C   UNL     1      -0.957  43.713  54.262  1.00  0.00    -0.028 A 
ATOM      5  C   UNL     1      -1.267  42.808  53.100  1.00  0.00     0.046 C 
ATOM      6  C   UNL     1       0.329  44.280  54.428  1.00  0.00     0.038 A 
ATOM      7  C   UNL     1       0.563  45.135  55.522  1.00  0.00     0.039 A 
ENDROOT
BRANCH   1   8
ATOM      8  C   UNL     1      -0.193  46.350  57.566  1.00  0.00     0.257 A 
ATOM      9  C   UNL     1      -0.410  47.663  59.172  1.00  0.00     0.172 A 
ATOM     10  N   UNL     1       0.913  47.470  59.009  1.00  0.00    -0.062 NA
ATOM     11  N   UNL     1      -1.151  46.965  58.287  1.00  0.00    -0.192 NA
ATOM     12  O   UNL     1       1.006  46.657  58.002  1.00  0.00    -0.334 OA
BRANCH   9  13
ATOM     13  C   UNL     1      -0.997  48.497  60.266  1.00  0.00     0.078 C 
ATOM     14  C   UNL     1      -1.429  49.857  59.729  1.00  0.00     0.012 C 
ENDBRANCH   9  13
ENDBRANCH   1   8
BRANCH   6  15
ATOM     15  N   UNL     1       1.386  43.990  53.490  1.00  0.00    -0.381 N 
ATOM     16  H   UNL     1       2.004  43.164  53.652  1.00  0.00     0.160 HD
BRANCH  15  17
ATOM     17  C   UNL     1       1.559  44.704  52.223  1.00  0.00     0.148 C 
BRANCH  17  18
ATOM     18  C   UNL     1       3.022  44.917  51.937  1.00  0.00    -0.029 A 
ATOM     19  C   UNL     1       3.416  45.853  50.969  1.00  0.00     0.006 A 
ATOM     20  C   UNL     1       4.003  44.219  52.659  1.00  0.00     0.006 A 
ATOM     21  C   UNL     1       4.771  46.084  50.721  1.00  0.00     0.014 A 
ATOM     22  C   UNL     1       5.359  44.450  52.410  1.00  0.00     0.014 A 
ATOM     23  C   UNL     1       5.754  45.372  51.428  1.00  0.00     0.040 A 
BRANCH  23  24
ATOM     24  C   UNL     1       7.188  45.631  51.189  1.00  0.00     0.253 C 
ATOM     25  O   UNL     1       7.678  45.346  50.063  1.00  0.00    -0.269 OA
ATOM     26  N   UNL     1       8.032  46.198  52.206  1.00  0.00    -0.339 N 
ATOM     27  C   UNL     1       7.563  47.138  53.214  1.00  0.00     0.120 C 
ATOM     28  C   UNL     1       9.481  46.098  52.167  1.00  0.00     0.120 C 
ATOM     29  C   UNL     1       8.796  47.532  54.015  1.00  0.00     0.023 C 
ATOM     30  C   UNL     1       9.998  47.125  53.166  1.00  0.00     0.023 C 
ENDBRANCH  23  24
ENDBRANCH  17  18
ENDBRANCH  15  17
ENDBRANCH   6  15
TORSDOF 6
ENDMDL
MODEL 3
REMARK VINA RESULT:    -8.818      2.123      6.857
REMARK INTER + INTRA:         -12.963
REMARK INTER:                 -11.962
REMARK INTRA:                  -1.001
REMARK UNBOUND:                -1.052
REMARK SMILES CCc1noc(-c2ccc(C)c(NCc3ccc(C(=O)N4CCCC4)cc3)c2)n1
REMARK SMILES IDX 7 1 8 2 9 3 10 4 11 5 12 6 28 7 6 8 3 9 4 10 29 11 5 12 2 13
REMARK SMILES IDX 1 14 13 15 14 17 15 18 16 19 27 20 17 21 26 22 18 23 19 24
REMARK SMILES IDX 20 25 21 26 22 27 25 28 23 29 24 30
REMARK H PARENT 13 16
ROOT
ATOM      1  C   UNL     1       6.700  44.491  50.717  1.00  0.00     0.042 A 
ATOM      2  C   UNL     1       7.906  44.996  50.212  1.00  0.00     0.014 A 
ATOM      3  C   UNL     1       8.495  46.122  50.786  1.00  0.00     0.006 A 
ATOM      4  C   UNL     1       7.885  46.775  51.871  1.00  0.00    -0.028 A 
ATOM      5  C   UNL     1       8.532  48.007  52.445  1.00  0.00     0.046 C 
ATOM      6  C   UNL     1       6.667  46.276  52.390  1.00  0.00     0.038 A 
ATOM      7  C   UNL     1       6.093  45.131  51.807  1.00  0.00     0.039 A 
ENDROOT
BRANCH   1   8
ATOM      8  C   UNL     1       6.075  43.298  50.114  1.00  0.00     0.257 A 
ATOM      9  C   UNL     1       4.816  41.683  49.714  1.00  0.00     0.172 A 
ATOM     10  N   UNL     1       5.763  41.679  48.757  1.00  0.00    -0.062 NA
ATOM     11  N   UNL     1       4.967  42.697  50.591  1.00  0.00    -0.192 NA
ATOM     12  O   UNL     1       6.526  42.689  49.042  1.00  0.00    -0.334 OA
BRANCH   9  13
ATOM     13  C   UNL     1       3.675  40.716  49.757  1.00  0.00     0.078 C 
ATOM     14  C   UNL     1       3.614  39.903  48.469  1.00  0.00     0.012 C 
ENDBRANCH   9  13
ENDBRANCH   1   8
BRANCH   6  15
ATOM     15  N   UNL     1       6.018  46.933  53.498  1.00  0.00    -0.381 N 
ATOM     16  H   UNL     1       6.509  46.992  54.419  1.00  0.00     0.160 HD
BRANCH  15  17
ATOM     17  C   UNL     1       4.756  47.666  53.377  1.00  0.00     0.148 C 
BRANCH  17  18
ATOM     18  C   UNL     1       3.591  46.758  53.670  1.00  0.00    -0.029 A 
ATOM     19  C   UNL     1       2.552  46.630  52.737  1.00  0.00     0.006 A 
ATOM     20  C   UNL     1       3.551  46.002  54.852  1.00  0.00     0.006 A 
ATOM     21  C   UNL     1       1.485  45.763  52.983  1.00  0.00     0.014 A 
ATOM     22  C   UNL     1       2.482  45.136  55.099  1.00  0.00     0.014 A 
ATOM     23  C   UNL     1       1.432  45.022  54.174  1.00  0.00     0.040 A 
BRANCH  23  24
ATOM     24  C   UNL     1       0.320  44.085  54.429  1.00  0.00     0.253 C 
ATOM     25  O   UNL     1       0.340  42.952  53.877  1.00  0.00    -0.269 OA
ATOM     26  N   UNL     1      -0.779  44.434  55.290  1.00  0.00    -0.339 N 
ATOM     27  C   UNL     1      -0.655  45.316  56.441  1.00  0.00     0.120 C 
ATOM     28  C   UNL     1      -2.054  43.738  55.253  1.00  0.00     0.120 C 
ATOM     29  C   UNL     1      -2.029  45.334  57.095  1.00  0.00     0.023 C 
ATOM     30  C   UNL     1      -2.779  44.128  56.536  1.00  0.00     0.023 C 
ENDBRANCH  23  24
ENDBRANCH  17  18
ENDBRANCH  15  17
ENDBRANCH   6  15
TORSDOF 6
ENDMDL
MODEL 4
REMARK VINA RESULT:    -8.763      3.817      8.328
REMARK INTER + INTRA:         -12.888
REMARK INTER:                 -12.181
REMARK INTRA:                  -0.708
REMARK UNBOUND:                -1.052
REMARK SMILES CCc1noc(-c2ccc(C)c(NCc3ccc(C(=O)N4CCCC4)cc3)c2)n1
REMARK SMILES IDX 7 1 8 2 9 3 10 4 11 5 12 6 28 7 6 8 3 9 4 10 29 11 5 12 2 13
REMARK SMILES IDX 1 14 13 15 14 17 15 18 16 19 27 20 17 21 26 22 18 23 19 24
REMARK SMILES IDX 20 25 21 26 22 27 25 28 23 29 24 30
REMARK H PARENT 13 16
ROOT
ATOM      1  C   UNL     1       5.335  45.589  51.953  1.00  0.00     0.042 A 
ATOM      2  C   UNL     1       4.042  46.124  51.900  1.00  0.00     0.014 A 
ATOM      3  C   UNL     1       2.958  45.320  51.546  1.00  0.00     0.006 A 
ATOM      4  C   UNL     1       3.146  43.965  51.228  1.00  0.00    -0.028 A 
ATOM      5  C   UNL     1       1.959  43.135  50.819  1.00  0.00     0.046 C 
ATOM      6  C   UNL     1       4.448  43.411  51.277  1.00  0.00     0.038 A 
ATOM      7  C   UNL     1       5.528  44.234  51.649  1.00  0.00     0.039 A 
ENDROOT
BRANCH   1   8
ATOM      8  C   UNL     1       6.484  46.435  52.330  1.00  0.00     0.257 A 
ATOM      9  C   UNL     1       8.388  47.111  52.850  1.00  0.00     0.172 A 
ATOM     10  N   UNL     1       7.588  48.194  52.827  1.00  0.00    -0.062 NA
ATOM     11  N   UNL     1       7.734  45.974  52.532  1.00  0.00    -0.192 NA
ATOM     12  O   UNL     1       6.418  47.734  52.507  1.00  0.00    -0.334 OA
BRANCH   9  13
ATOM     13  C   UNL     1       9.857  47.170  53.122  1.00  0.00     0.078 C 
ATOM     14  C   UNL     1      10.126  47.148  54.622  1.00  0.00     0.012 C 
ENDBRANCH   9  13
ENDBRANCH   1   8
BRANCH   6  15
ATOM     15  N   UNL     1       4.667  42.024  50.948  1.00  0.00    -0.381 N 
ATOM     16  H   UNL     1       3.988  41.303  51.280  1.00  0.00     0.160 HD
BRANCH  15  17
ATOM     17  C   UNL     1       5.718  41.567  50.036  1.00  0.00     0.148 C 
BRANCH  17  18
ATOM     18  C   UNL     1       5.157  41.349  48.656  1.00  0.00    -0.029 A 
ATOM     19  C   UNL     1       5.784  41.934  47.545  1.00  0.00     0.006 A 
ATOM     20  C   UNL     1       4.033  40.532  48.459  1.00  0.00     0.006 A 
ATOM     21  C   UNL     1       5.293  41.710  46.257  1.00  0.00     0.014 A 
ATOM     22  C   UNL     1       3.540  40.309  47.169  1.00  0.00     0.014 A 
ATOM     23  C   UNL     1       4.157  40.909  46.060  1.00  0.00     0.040 A 
BRANCH  23  24
ATOM     24  C   UNL     1       3.647  40.647  44.699  1.00  0.00     0.253 C 
ATOM     25  O   UNL     1       2.503  41.072  44.386  1.00  0.00    -0.269 OA
ATOM     26  N   UNL     1       4.426  39.925  43.729  1.00  0.00    -0.339 N 
ATOM     27  C   UNL     1       5.879  39.959  43.671  1.00  0.00     0.120 C 
ATOM     28  C   UNL     1       3.834  39.306  42.554  1.00  0.00     0.120 C 
ATOM     29  C   UNL     1       6.263  39.129  42.453  1.00  0.00     0.023 C 
ATOM     30  C   UNL     1       4.994  38.999  41.615  1.00  0.00     0.023 C 
ENDBRANCH  23  24
ENDBRANCH  17  18
ENDBRANCH  15  17
ENDBRANCH   6  15
TORSDOF 6
ENDMDL
MODEL 5
REMARK VINA RESULT:    -8.434      4.278      6.551
REMARK INTER + INTRA:         -12.444
REMARK INTER:                 -11.841
REMARK INTRA:                  -0.603
REMARK UNBOUND:                -1.052
REMARK SMILES CCc1noc(-c2ccc(C)c(NCc3ccc(C(=O)N4CCCC4)cc3)c2)n1
REMARK SMILES IDX 7 1 8 2 9 3 10 4 11 5 12 6 28 7 6 8 3 9 4 10 29 11 5 12 2 13
REMARK SMILES IDX 1 14 13 15 14 17 15 18 16 19 27 20 17 21 26 22 18 23 19 24
REMARK SMILES IDX 20 25 21 26 22 27 25 28 23 29 24 30
REMARK H PARENT 13 16
ROOT
ATOM      1  C   UNL     1       2.896  39.288  45.944  1.00  0.00     0.042 A 
ATOM      2  C   UNL     1       2.802  39.873  44.675  1.00  0.00     0.014 A 
ATOM      3  C   UNL     1       3.620  40.950  44.332  1.00  0.00     0.006 A 
ATOM      4  C   UNL     1       4.542  41.470  45.254  1.00  0.00    -0.028 A 
ATOM      5  C   UNL     1       5.386  42.654  44.861  1.00  0.00     0.046 C 
ATOM      6  C   UNL     1       4.647  40.890  46.541  1.00  0.00     0.038 A 
ATOM      7  C   UNL     1       3.823  39.795  46.866  1.00  0.00     0.039 A 
ENDROOT
BRANCH   1   8
ATOM      8  C   UNL     1       2.035  38.146  46.311  1.00  0.00     0.257 A 
ATOM      9  C   UNL     1       0.395  36.895  46.623  1.00  0.00     0.172 A 
ATOM     10  N   UNL     1       1.481  36.220  47.046  1.00  0.00    -0.062 NA
ATOM     11  N   UNL     1       0.698  38.117  46.139  1.00  0.00    -0.192 NA
ATOM     12  O   UNL     1       2.474  37.029  46.842  1.00  0.00    -0.334 OA
BRANCH   9  13
ATOM     13  C   UNL     1      -0.987  36.323  46.617  1.00  0.00     0.078 C 
ATOM     14  C   UNL     1      -1.085  35.148  47.584  1.00  0.00     0.012 C 
ENDBRANCH   9  13
ENDBRANCH   1   8
BRANCH   6  15
ATOM     15  N   UNL     1       5.582  41.411  47.508  1.00  0.00    -0.381 N 
ATOM     16  H   UNL     1       6.294  42.114  47.206  1.00  0.00     0.160 HD
BRANCH  15  17
ATOM     17  C   UNL     1       5.502  41.129  48.942  1.00  0.00     0.148 C 
BRANCH  17  18
ATOM     18  C   UNL     1       5.707  42.390  49.738  1.00  0.00    -0.029 A 
ATOM     19  C   UNL     1       6.730  43.282  49.384  1.00  0.00     0.006 A 
ATOM     20  C   UNL     1       4.857  42.708  50.809  1.00  0.00     0.006 A 
ATOM     21  C   UNL     1       6.906  44.473  50.093  1.00  0.00     0.014 A 
ATOM     22  C   UNL     1       5.035  43.900  51.519  1.00  0.00     0.014 A 
ATOM     23  C   UNL     1       6.071  44.783  51.178  1.00  0.00     0.040 A 
BRANCH  23  24
ATOM     24  C   UNL     1       6.235  46.052  51.915  1.00  0.00     0.253 C 
ATOM     25  O   UNL     1       5.213  46.745  52.168  1.00  0.00    -0.269 OA
ATOM     26  N   UNL     1       7.528  46.509  52.351  1.00  0.00    -0.339 N 
ATOM     27  C   UNL     1       8.614  45.619  52.731  1.00  0.00     0.120 C 
ATOM     28  C   UNL     1       7.790  47.894  52.706  1.00  0.00     0.120 C 
ATOM     29  C   UNL     1       9.746  46.525  53.197  1.00  0.00     0.023 C 
ATOM     30  C   UNL     1       9.112  47.887  53.463  1.00  0.00     0.023 C 
ENDBRANCH  23  24
ENDBRANCH  17  18
ENDBRANCH  15  17
ENDBRANCH   6  15
TORSDOF 6
ENDMDL
