ligand_22_conformer_1_docked
     RDKit          3D

 37 40  0  0  0  0  0  0  0  0999 V2000
    3.1580   47.9230   53.3450 O   0  0  0  0  0  0  0  0  0  0  0  0
    4.0800   47.0890   53.1450 C   0  0  0  0  0  0  0  0  0  0  0  0
    5.1930   47.3510   52.3020 N   0  0  0  0  0  0  0  0  0  0  0  0
    6.0990   46.2080   52.3930 C   0  0  1  0  0  0  0  0  0  0  0  0
    6.4310   45.6150   51.0020 C   0  0  0  0  0  0  0  0  0  0  0  0
    7.9660   45.6660   50.8490 C   0  0  0  0  0  0  0  0  0  0  0  0
    8.4420   46.3040   52.1020 C   0  0  0  0  0  0  0  0  0  0  0  0
    9.7670   46.5860   52.4400 C   0  0  0  0  0  0  0  0  0  0  0  0
   10.0350   47.1900   53.6790 C   0  0  0  0  0  0  0  0  0  0  0  0
    8.9820   47.5010   54.5570 C   0  0  0  0  0  0  0  0  0  0  0  0
    7.6580   47.2100   54.1980 C   0  0  0  0  0  0  0  0  0  0  0  0
    7.4120   46.6080   52.9580 C   0  0  0  0  0  0  0  0  0  0  0  0
    5.3620   45.2630   53.3000 C   0  0  0  0  0  0  0  0  0  0  0  0
    5.7840   44.1250   53.6380 O   0  0  0  0  0  0  0  0  0  0  0  0
    4.1330   45.8130   53.7700 N   0  0  0  0  0  0  0  0  0  0  0  0
    3.4970   45.4780   55.0420 C   0  0  0  0  0  0  0  0  0  0  0  0
    2.0840   45.0120   54.8020 C   0  0  0  0  0  0  0  0  0  0  0  0
    1.8040   44.3910   53.6220 N   0  0  0  0  0  0  0  0  0  0  0  0
    0.5480   43.9980   53.2870 C   0  0  0  0  0  0  0  0  0  0  0  0
   -0.5130   44.2380   54.1610 C   0  0  0  0  0  0  0  0  0  0  0  0
   -2.1420   43.7470   53.7330 Cl  0  0  0  0  0  0  0  0  0  0  0  0
   -0.2640   44.8740   55.3780 C   0  0  0  0  0  0  0  0  0  0  0  0
    1.0350   45.2690   55.7110 C   0  0  0  0  0  0  0  0  0  0  0  0
    1.2940   46.0630   57.2600 Cl  0  0  0  0  0  0  0  0  0  0  0  0
    5.3750   48.2450   51.7920 H   0  0  0  0  0  0  0  0  0  0  0  0
    6.0788   44.5747   50.9402 H   0  0  0  0  0  0  0  0  0  0  0  0
    5.9359   46.1851   50.2021 H   0  0  0  0  0  0  0  0  0  0  0  0
    8.3807   44.6523   50.7467 H   0  0  0  0  0  0  0  0  0  0  0  0
    8.2793   46.2198   49.9517 H   0  0  0  0  0  0  0  0  0  0  0  0
   10.5860   46.3395   51.7483 H   0  0  0  0  0  0  0  0  0  0  0  0
   11.0722   47.4206   53.9635 H   0  0  0  0  0  0  0  0  0  0  0  0
    9.1969   47.9733   55.5269 H   0  0  0  0  0  0  0  0  0  0  0  0
    6.8277   47.4503   54.8783 H   0  0  0  0  0  0  0  0  0  0  0  0
    4.0667   44.6763   55.5347 H   0  0  0  0  0  0  0  0  0  0  0  0
    3.4797   46.3707   55.6844 H   0  0  0  0  0  0  0  0  0  0  0  0
    0.3672   43.4910   52.3277 H   0  0  0  0  0  0  0  0  0  0  0  0
   -1.0918   45.0649   56.0768 H   0  0  0  0  0  0  0  0  0  0  0  0
  1  2  2  0
  2  3  1  0
  4  3  1  6
  4  5  1  0
  5  6  1  0
  6  7  1  0
  7  8  2  0
  8  9  1  0
  9 10  2  0
 10 11  1  0
 11 12  2  0
  4 13  1  0
 13 14  2  0
 13 15  1  0
 15 16  1  0
 16 17  1  0
 17 18  2  0
 18 19  1  0
 19 20  2  0
 20 21  1  0
 20 22  1  0
 22 23  2  0
 23 24  1  0
 15  2  1  0
 23 17  1  0
 12  4  1  0
 12  7  1  0
  3 25  1  0
  5 26  1  0
  5 27  1  0
  6 28  1  0
  6 29  1  0
  8 30  1  0
  9 31  1  0
 10 32  1  0
 11 33  1  0
 16 34  1  0
 16 35  1  0
 19 36  1  0
 22 37  1  0
M  END
>  <meeko>  (1) 
{"is_sidechain": [false], "free_energy": -9.374, "intermolecular_energy": -10.47, "internal_energy": -0.417}

$$$$
ligand_22_conformer_1_docked
     RDKit          3D

 37 40  0  0  0  0  0  0  0  0999 V2000
    4.4530   45.4680   55.1030 O   0  0  0  0  0  0  0  0  0  0  0  0
    4.6630   45.5250   53.8620 C   0  0  0  0  0  0  0  0  0  0  0  0
    5.7720   44.8960   53.2350 N   0  0  0  0  0  0  0  0  0  0  0  0
    5.6330   45.0880   51.7930 C   0  0  1  0  0  0  0  0  0  0  0  0
    6.8940   45.7320   51.1660 C   0  0  0  0  0  0  0  0  0  0  0  0
    7.3960   44.7620   50.0750 C   0  0  0  0  0  0  0  0  0  0  0  0
    6.4580   43.6130   50.1410 C   0  0  0  0  0  0  0  0  0  0  0  0
    6.4980   42.4600   49.3530 C   0  0  0  0  0  0  0  0  0  0  0  0
    5.5190   41.4730   49.5480 C   0  0  0  0  0  0  0  0  0  0  0  0
    4.5190   41.6510   50.5210 C   0  0  0  0  0  0  0  0  0  0  0  0
    4.4970   42.8160   51.3020 C   0  0  0  0  0  0  0  0  0  0  0  0
    5.4820   43.7880   51.0910 C   0  0  0  0  0  0  0  0  0  0  0  0
    4.3950   45.9330   51.6810 C   0  0  0  0  0  0  0  0  0  0  0  0
    3.9150   46.3520   50.5940 O   0  0  0  0  0  0  0  0  0  0  0  0
    3.7970   46.1850   52.9500 N   0  0  0  0  0  0  0  0  0  0  0  0
    2.3720   46.4230   53.1720 C   0  0  0  0  0  0  0  0  0  0  0  0
    1.6100   45.1290   53.0470 C   0  0  0  0  0  0  0  0  0  0  0  0
    1.3610   44.6490   51.7960 N   0  0  0  0  0  0  0  0  0  0  0  0
    0.6230   43.5280   51.5820 C   0  0  0  0  0  0  0  0  0  0  0  0
    0.0830   42.8320   52.6630 C   0  0  0  0  0  0  0  0  0  0  0  0
   -0.8830   41.3920   52.3960 Cl  0  0  0  0  0  0  0  0  0  0  0  0
    0.3160   43.2960   53.9580 C   0  0  0  0  0  0  0  0  0  0  0  0
    1.0800   44.4490   54.1650 C   0  0  0  0  0  0  0  0  0  0  0  0
    1.3480   44.9870   55.8190 Cl  0  0  0  0  0  0  0  0  0  0  0  0
    6.4970   44.3160   53.7150 H   0  0  0  0  0  0  0  0  0  0  0  0
    6.6401   46.7048   50.7198 H   0  0  0  0  0  0  0  0  0  0  0  0
    7.6689   45.9040   51.9275 H   0  0  0  0  0  0  0  0  0  0  0  0
    7.3589   45.2381   49.0841 H   0  0  0  0  0  0  0  0  0  0  0  0
    8.4415   44.4588   50.2330 H   0  0  0  0  0  0  0  0  0  0  0  0
    7.2826   42.3280   48.5934 H   0  0  0  0  0  0  0  0  0  0  0  0
    5.5340   40.5577   48.9381 H   0  0  0  0  0  0  0  0  0  0  0  0
    3.7531   40.8755   50.6697 H   0  0  0  0  0  0  0  0  0  0  0  0
    3.7198   42.9631   52.0664 H   0  0  0  0  0  0  0  0  0  0  0  0
    2.2242   46.8373   54.1802 H   0  0  0  0  0  0  0  0  0  0  0  0
    2.0023   47.1350   52.4194 H   0  0  0  0  0  0  0  0  0  0  0  0
    0.4517   43.1698   50.5562 H   0  0  0  0  0  0  0  0  0  0  0  0
   -0.1024   42.7534   54.8186 H   0  0  0  0  0  0  0  0  0  0  0  0
  1  2  2  0
  2  3  1  0
  4  3  1  1
  4  5  1  0
  5  6  1  0
  6  7  1  0
  7  8  2  0
  8  9  1  0
  9 10  2  0
 10 11  1  0
 11 12  2  0
  4 13  1  0
 13 14  2  0
 13 15  1  0
 15 16  1  0
 16 17  1  0
 17 18  2  0
 18 19  1  0
 19 20  2  0
 20 21  1  0
 20 22  1  0
 22 23  2  0
 23 24  1  0
 15  2  1  0
 23 17  1  0
 12  4  1  0
 12  7  1  0
  3 25  1  0
  5 26  1  0
  5 27  1  0
  6 28  1  0
  6 29  1  0
  8 30  1  0
  9 31  1  0
 10 32  1  0
 11 33  1  0
 16 34  1  0
 16 35  1  0
 19 36  1  0
 22 37  1  0
M  END
>  <meeko>  (2) 
{"is_sidechain": [false], "free_energy": -9.254, "intermolecular_energy": -10.156, "internal_energy": -0.597}

$$$$
ligand_22_conformer_1_docked
     RDKit          3D

 37 40  0  0  0  0  0  0  0  0999 V2000
    2.9460   48.1710   52.0890 O   0  0  0  0  0  0  0  0  0  0  0  0
    2.9340   46.9510   52.4010 C   0  0  0  0  0  0  0  0  0  0  0  0
    2.5640   45.9230   51.4940 N   0  0  0  0  0  0  0  0  0  0  0  0
    2.7670   44.6420   52.1670 C   0  0  1  0  0  0  0  0  0  0  0  0
    1.4900   43.7660   52.1530 C   0  0  0  0  0  0  0  0  0  0  0  0
    1.8670   42.4370   51.4660 C   0  0  0  0  0  0  0  0  0  0  0  0
    3.2920   42.6070   51.0860 C   0  0  0  0  0  0  0  0  0  0  0  0
    4.0930   41.6750   50.4210 C   0  0  0  0  0  0  0  0  0  0  0  0
    5.4300   42.0050   50.1490 C   0  0  0  0  0  0  0  0  0  0  0  0
    5.9450   43.2540   50.5410 C   0  0  0  0  0  0  0  0  0  0  0  0
    5.1240   44.1760   51.2070 C   0  0  0  0  0  0  0  0  0  0  0  0
    3.7940   43.8260   51.4690 C   0  0  0  0  0  0  0  0  0  0  0  0
    3.2140   45.0490   53.5430 C   0  0  0  0  0  0  0  0  0  0  0  0
    3.4860   44.2420   54.4710 O   0  0  0  0  0  0  0  0  0  0  0  0
    3.3290   46.4640   53.6760 N   0  0  0  0  0  0  0  0  0  0  0  0
    4.2460   47.1480   54.5860 C   0  0  0  0  0  0  0  0  0  0  0  0
    5.6600   47.0250   54.0770 C   0  0  0  0  0  0  0  0  0  0  0  0
    6.0770   47.9030   53.1220 N   0  0  0  0  0  0  0  0  0  0  0  0
    7.3090   47.8280   52.5550 C   0  0  0  0  0  0  0  0  0  0  0  0
    8.1930   46.8200   52.9390 C   0  0  0  0  0  0  0  0  0  0  0  0
    9.7800   46.7050   52.2030 Cl  0  0  0  0  0  0  0  0  0  0  0  0
    7.7990   45.9020   53.9140 C   0  0  0  0  0  0  0  0  0  0  0  0
    6.5290   45.9930   54.4930 C   0  0  0  0  0  0  0  0  0  0  0  0
    6.0850   44.8140   55.7210 Cl  0  0  0  0  0  0  0  0  0  0  0  0
    2.2930   46.0590   50.4940 H   0  0  0  0  0  0  0  0  0  0  0  0
    1.1494   43.5770   53.1817 H   0  0  0  0  0  0  0  0  0  0  0  0
    0.6726   44.2693   51.6159 H   0  0  0  0  0  0  0  0  0  0  0  0
    1.7478   41.5925   52.1607 H   0  0  0  0  0  0  0  0  0  0  0  0
    1.2261   42.2172   50.5995 H   0  0  0  0  0  0  0  0  0  0  0  0
    3.6834   40.7006   50.1163 H   0  0  0  0  0  0  0  0  0  0  0  0
    6.0772   41.2845   49.6275 H   0  0  0  0  0  0  0  0  0  0  0  0
    6.9932   43.5081   50.3249 H   0  0  0  0  0  0  0  0  0  0  0  0
    5.5176   45.1551   51.5174 H   0  0  0  0  0  0  0  0  0  0  0  0
    3.9720   48.2115   54.6488 H   0  0  0  0  0  0  0  0  0  0  0  0
    4.1782   46.6874   55.5826 H   0  0  0  0  0  0  0  0  0  0  0  0
    7.6094   48.5622   51.7930 H   0  0  0  0  0  0  0  0  0  0  0  0
    8.4891   45.1049   54.2278 H   0  0  0  0  0  0  0  0  0  0  0  0
  1  2  2  0
  2  3  1  0
  4  3  1  6
  4  5  1  0
  5  6  1  0
  6  7  1  0
  7  8  2  0
  8  9  1  0
  9 10  2  0
 10 11  1  0
 11 12  2  0
  4 13  1  0
 13 14  2  0
 13 15  1  0
 15 16  1  0
 16 17  1  0
 17 18  2  0
 18 19  1  0
 19 20  2  0
 20 21  1  0
 20 22  1  0
 22 23  2  0
 23 24  1  0
 15  2  1  0
 23 17  1  0
 12  4  1  0
 12  7  1  0
  3 25  1  0
  5 26  1  0
  5 27  1  0
  6 28  1  0
  6 29  1  0
  8 30  1  0
  9 31  1  0
 10 32  1  0
 11 33  1  0
 16 34  1  0
 16 35  1  0
 19 36  1  0
 22 37  1  0
M  END
>  <meeko>  (3) 
{"is_sidechain": [false], "free_energy": -8.776, "intermolecular_energy": -9.748, "internal_energy": -0.472}

$$$$
ligand_22_conformer_1_docked
     RDKit          3D

 37 40  0  0  0  0  0  0  0  0999 V2000
    5.2670   44.3200   54.2140 O   0  0  0  0  0  0  0  0  0  0  0  0
    4.1050   44.6570   53.8630 C   0  0  0  0  0  0  0  0  0  0  0  0
    2.9630   43.8430   54.0850 N   0  0  0  0  0  0  0  0  0  0  0  0
    1.7900   44.5950   53.6450 C   0  0  1  0  0  0  0  0  0  0  0  0
    0.9410   43.8050   52.6190 C   0  0  0  0  0  0  0  0  0  0  0  0
   -0.4790   43.6860   53.2100 C   0  0  0  0  0  0  0  0  0  0  0  0
   -0.3870   44.3560   54.5320 C   0  0  0  0  0  0  0  0  0  0  0  0
   -1.4180   44.5020   55.4640 C   0  0  0  0  0  0  0  0  0  0  0  0
   -1.1510   45.1760   56.6670 C   0  0  0  0  0  0  0  0  0  0  0  0
    0.1330   45.6900   56.9190 C   0  0  0  0  0  0  0  0  0  0  0  0
    1.1530   45.5330   55.9710 C   0  0  0  0  0  0  0  0  0  0  0  0
    0.8660   44.8580   54.7780 C   0  0  0  0  0  0  0  0  0  0  0  0
    2.3840   45.8620   53.1000 C   0  0  0  0  0  0  0  0  0  0  0  0
    1.7160   46.8020   52.5920 O   0  0  0  0  0  0  0  0  0  0  0  0
    3.8010   45.9020   53.2490 N   0  0  0  0  0  0  0  0  0  0  0  0
    4.5950   47.1210   53.3910 C   0  0  0  0  0  0  0  0  0  0  0  0
    6.0200   46.8570   52.9760 C   0  0  0  0  0  0  0  0  0  0  0  0
    7.0170   47.2440   53.8200 N   0  0  0  0  0  0  0  0  0  0  0  0
    8.3310   47.1110   53.5020 C   0  0  0  0  0  0  0  0  0  0  0  0
    8.6980   46.5690   52.2700 C   0  0  0  0  0  0  0  0  0  0  0  0
   10.3920   46.4060   51.8430 Cl  0  0  0  0  0  0  0  0  0  0  0  0
    7.7030   46.1640   51.3790 C   0  0  0  0  0  0  0  0  0  0  0  0
    6.3550   46.3030   51.7210 C   0  0  0  0  0  0  0  0  0  0  0  0
    5.1410   45.7700   50.5640 Cl  0  0  0  0  0  0  0  0  0  0  0  0
    2.9580   42.9160   54.5680 H   0  0  0  0  0  0  0  0  0  0  0  0
    0.9080   44.3437   51.6605 H   0  0  0  0  0  0  0  0  0  0  0  0
    1.3740   42.8114   52.4312 H   0  0  0  0  0  0  0  0  0  0  0  0
   -1.2122   44.1942   52.5664 H   0  0  0  0  0  0  0  0  0  0  0  0
   -0.8124   42.6410   53.2922 H   0  0  0  0  0  0  0  0  0  0  0  0
   -2.4199   44.0967   55.2593 H   0  0  0  0  0  0  0  0  0  0  0  0
   -1.9486   45.3020   57.4139 H   0  0  0  0  0  0  0  0  0  0  0  0
    0.3375   46.2168   57.8628 H   0  0  0  0  0  0  0  0  0  0  0  0
    2.1603   45.9325   56.1604 H   0  0  0  0  0  0  0  0  0  0  0  0
    4.1696   47.9097   52.7530 H   0  0  0  0  0  0  0  0  0  0  0  0
    4.5781   47.4435   54.4425 H   0  0  0  0  0  0  0  0  0  0  0  0
    9.1050   47.4304   54.2153 H   0  0  0  0  0  0  0  0  0  0  0  0
    7.9804   45.7343   50.4051 H   0  0  0  0  0  0  0  0  0  0  0  0
  1  2  2  0
  2  3  1  0
  4  3  1  1
  4  5  1  0
  5  6  1  0
  6  7  1  0
  7  8  2  0
  8  9  1  0
  9 10  2  0
 10 11  1  0
 11 12  2  0
  4 13  1  0
 13 14  2  0
 13 15  1  0
 15 16  1  0
 16 17  1  0
 17 18  2  0
 18 19  1  0
 19 20  2  0
 20 21  1  0
 20 22  1  0
 22 23  2  0
 23 24  1  0
 15  2  1  0
 23 17  1  0
 12  4  1  0
 12  7  1  0
  3 25  1  0
  5 26  1  0
  5 27  1  0
  6 28  1  0
  6 29  1  0
  8 30  1  0
  9 31  1  0
 10 32  1  0
 11 33  1  0
 16 34  1  0
 16 35  1  0
 19 36  1  0
 22 37  1  0
M  END
>  <meeko>  (4) 
{"is_sidechain": [false], "free_energy": -8.499, "intermolecular_energy": -10.186, "internal_energy": 0.276}

$$$$
ligand_22_conformer_1_docked
     RDKit          3D

 37 40  0  0  0  0  0  0  0  0999 V2000
    3.7810   42.4020   52.0010 O   0  0  0  0  0  0  0  0  0  0  0  0
    2.7410   43.0530   52.2850 C   0  0  0  0  0  0  0  0  0  0  0  0
    1.8670   42.6920   53.3450 N   0  0  0  0  0  0  0  0  0  0  0  0
    0.8370   43.7240   53.4410 C   0  0  1  0  0  0  0  0  0  0  0  0
   -0.5920   43.1320   53.3690 C   0  0  0  0  0  0  0  0  0  0  0  0
   -1.3190   43.5610   54.6600 C   0  0  0  0  0  0  0  0  0  0  0  0
   -0.3010   44.3260   55.4230 C   0  0  0  0  0  0  0  0  0  0  0  0
   -0.4720   44.9180   56.6760 C   0  0  0  0  0  0  0  0  0  0  0  0
    0.6050   45.6150   57.2480 C   0  0  0  0  0  0  0  0  0  0  0  0
    1.8290   45.7090   56.5630 C   0  0  0  0  0  0  0  0  0  0  0  0
    1.9810   45.1060   55.3060 C   0  0  0  0  0  0  0  0  0  0  0  0
    0.8940   44.4170   54.7540 C   0  0  0  0  0  0  0  0  0  0  0  0
    1.1750   44.6470   52.3050 C   0  0  0  0  0  0  0  0  0  0  0  0
    0.5190   45.6820   52.0080 O   0  0  0  0  0  0  0  0  0  0  0  0
    2.3500   44.2400   51.6090 N   0  0  0  0  0  0  0  0  0  0  0  0
    3.2610   45.1400   50.9030 C   0  0  0  0  0  0  0  0  0  0  0  0
    4.3900   45.5470   51.8160 C   0  0  0  0  0  0  0  0  0  0  0  0
    4.1060   46.3800   52.8550 N   0  0  0  0  0  0  0  0  0  0  0  0
    5.0680   46.8560   53.6890 C   0  0  0  0  0  0  0  0  0  0  0  0
    6.4020   46.5000   53.4880 C   0  0  0  0  0  0  0  0  0  0  0  0
    7.6530   47.1190   54.5490 Cl  0  0  0  0  0  0  0  0  0  0  0  0
    6.7290   45.6490   52.4310 C   0  0  0  0  0  0  0  0  0  0  0  0
    5.7290   45.1640   51.5830 C   0  0  0  0  0  0  0  0  0  0  0  0
    6.1960   44.0890   50.2700 Cl  0  0  0  0  0  0  0  0  0  0  0  0
    1.9990   41.8880   53.9980 H   0  0  0  0  0  0  0  0  0  0  0  0
   -1.1207   43.5255   52.4883 H   0  0  0  0  0  0  0  0  0  0  0  0
   -0.5606   42.0361   53.2798 H   0  0  0  0  0  0  0  0  0  0  0  0
   -2.1866   44.1951   54.4253 H   0  0  0  0  0  0  0  0  0  0  0  0
   -1.7079   42.7019   55.2263 H   0  0  0  0  0  0  0  0  0  0  0  0
   -1.4329   44.8399   57.2056 H   0  0  0  0  0  0  0  0  0  0  0  0
    0.4904   46.0884   58.2343 H   0  0  0  0  0  0  0  0  0  0  0  0
    2.6695   46.2568   57.0140 H   0  0  0  0  0  0  0  0  0  0  0  0
    2.9359   45.1730   54.7640 H   0  0  0  0  0  0  0  0  0  0  0  0
    3.6719   44.6255   50.0218 H   0  0  0  0  0  0  0  0  0  0  0  0
    2.7099   46.0377   50.5860 H   0  0  0  0  0  0  0  0  0  0  0  0
    4.7951   47.5212   54.5215 H   0  0  0  0  0  0  0  0  0  0  0  0
    7.7770   45.3590   52.2647 H   0  0  0  0  0  0  0  0  0  0  0  0
  1  2  2  0
  2  3  1  0
  4  3  1  1
  4  5  1  0
  5  6  1  0
  6  7  1  0
  7  8  2  0
  8  9  1  0
  9 10  2  0
 10 11  1  0
 11 12  2  0
  4 13  1  0
 13 14  2  0
 13 15  1  0
 15 16  1  0
 16 17  1  0
 17 18  2  0
 18 19  1  0
 19 20  2  0
 20 21  1  0
 20 22  1  0
 22 23  2  0
 23 24  1  0
 15  2  1  0
 23 17  1  0
 12  4  1  0
 12  7  1  0
  3 25  1  0
  5 26  1  0
  5 27  1  0
  6 28  1  0
  6 29  1  0
  8 30  1  0
  9 31  1  0
 10 32  1  0
 11 33  1  0
 16 34  1  0
 16 35  1  0
 19 36  1  0
 22 37  1  0
M  END
>  <meeko>  (5) 
{"is_sidechain": [false], "free_energy": -8.234, "intermolecular_energy": -9.097, "internal_energy": -0.516}

$$$$
