ligand_22_conformer_5_docked
     RDKit          3D

 37 40  0  0  0  0  0  0  0  0999 V2000
    6.5450   45.5850   55.3130 O   0  0  0  0  0  0  0  0  0  0  0  0
    5.3670   45.6810   54.8780 C   0  0  0  0  0  0  0  0  0  0  0  0
    4.3820   44.6770   55.0830 N   0  0  0  0  0  0  0  0  0  0  0  0
    3.1680   45.0950   54.3870 C   0  0  2  0  0  0  0  0  0  0  0  0
    1.9350   45.1180   55.3210 C   0  0  0  0  0  0  0  0  0  0  0  0
    0.8690   44.2080   54.6760 C   0  0  0  0  0  0  0  0  0  0  0  0
    1.5350   43.6530   53.4720 C   0  0  0  0  0  0  0  0  0  0  0  0
    0.9880   42.7490   52.5580 C   0  0  0  0  0  0  0  0  0  0  0  0
    1.7650   42.3400   51.4620 C   0  0  0  0  0  0  0  0  0  0  0  0
    3.0700   42.8370   51.2960 C   0  0  0  0  0  0  0  0  0  0  0  0
    3.6010   43.7440   52.2240 C   0  0  0  0  0  0  0  0  0  0  0  0
    2.8090   44.1400   53.3090 C   0  0  0  0  0  0  0  0  0  0  0  0
    3.5410   46.4440   53.8370 C   0  0  0  0  0  0  0  0  0  0  0  0
    2.7720   47.1750   53.1560 O   0  0  0  0  0  0  0  0  0  0  0  0
    4.8930   46.7900   54.1270 N   0  0  0  0  0  0  0  0  0  0  0  0
    5.7210   47.6710   53.3050 C   0  0  0  0  0  0  0  0  0  0  0  0
    6.4420   46.8660   52.2540 C   0  0  0  0  0  0  0  0  0  0  0  0
    5.6980   46.1060   51.4040 N   0  0  0  0  0  0  0  0  0  0  0  0
    6.2610   45.2940   50.4720 C   0  0  0  0  0  0  0  0  0  0  0  0
    7.6490   45.2100   50.3690 C   0  0  0  0  0  0  0  0  0  0  0  0
    8.3880   44.1530   49.1790 Cl  0  0  0  0  0  0  0  0  0  0  0  0
    8.4440   45.9730   51.2240 C   0  0  0  0  0  0  0  0  0  0  0  0
    7.8510   46.8080   52.1770 C   0  0  0  0  0  0  0  0  0  0  0  0
    8.8970   47.7520   53.2300 Cl  0  0  0  0  0  0  0  0  0  0  0  0
    4.5330   43.7640   55.5680 H   0  0  0  0  0  0  0  0  0  0  0  0
    2.2068   44.7361   56.3161 H   0  0  0  0  0  0  0  0  0  0  0  0
    1.5549   46.1425   55.4471 H   0  0  0  0  0  0  0  0  0  0  0  0
    0.5770   43.4020   55.3653 H   0  0  0  0  0  0  0  0  0  0  0  0
   -0.0539   44.7537   54.4299 H   0  0  0  0  0  0  0  0  0  0  0  0
   -0.0335   42.3643   52.6944 H   0  0  0  0  0  0  0  0  0  0  0  0
    1.3517   41.6290   50.7315 H   0  0  0  0  0  0  0  0  0  0  0  0
    3.6754   42.5135   50.4364 H   0  0  0  0  0  0  0  0  0  0  0  0
    4.6210   44.1374   52.1021 H   0  0  0  0  0  0  0  0  0  0  0  0
    5.0814   48.4201   52.8153 H   0  0  0  0  0  0  0  0  0  0  0  0
    6.4603   48.1741   53.9456 H   0  0  0  0  0  0  0  0  0  0  0  0
    5.6224   44.7031   49.7989 H   0  0  0  0  0  0  0  0  0  0  0  0
    9.5401   45.9181   51.1488 H   0  0  0  0  0  0  0  0  0  0  0  0
  1  2  2  0
  2  3  1  0
  4  3  1  1
  4  5  1  0
  5  6  1  0
  6  7  1  0
  7  8  2  0
  8  9  1  0
  9 10  2  0
 10 11  1  0
 11 12  2  0
  4 13  1  0
 13 14  2  0
 13 15  1  0
 15 16  1  0
 16 17  1  0
 17 18  2  0
 18 19  1  0
 19 20  2  0
 20 21  1  0
 20 22  1  0
 22 23  2  0
 23 24  1  0
 15  2  1  0
 23 17  1  0
 12  4  1  0
 12  7  1  0
  3 25  1  0
  5 26  1  0
  5 27  1  0
  6 28  1  0
  6 29  1  0
  8 30  1  0
  9 31  1  0
 10 32  1  0
 11 33  1  0
 16 34  1  0
 16 35  1  0
 19 36  1  0
 22 37  1  0
M  END
>  <meeko>  (1) 
{"is_sidechain": [false], "free_energy": -9.412, "intermolecular_energy": -10.512, "internal_energy": -0.349}

$$$$
ligand_22_conformer_5_docked
     RDKit          3D

 37 40  0  0  0  0  0  0  0  0999 V2000
    1.6760   45.5780   51.1650 O   0  0  0  0  0  0  0  0  0  0  0  0
    2.8550   45.4510   51.5880 C   0  0  0  0  0  0  0  0  0  0  0  0
    3.9750   46.0510   50.9520 N   0  0  0  0  0  0  0  0  0  0  0  0
    5.1730   45.6350   51.6760 C   0  0  2  0  0  0  0  0  0  0  0  0
    6.0260   46.8400   52.1390 C   0  0  0  0  0  0  0  0  0  0  0  0
    7.4410   46.6340   51.5600 C   0  0  0  0  0  0  0  0  0  0  0  0
    7.3330   45.3980   50.7470 C   0  0  0  0  0  0  0  0  0  0  0  0
    8.3490   44.8030   49.9950 C   0  0  0  0  0  0  0  0  0  0  0  0
    8.0690   43.6200   49.2940 C   0  0  0  0  0  0  0  0  0  0  0  0
    6.7840   43.0500   49.3530 C   0  0  0  0  0  0  0  0  0  0  0  0
    5.7770   43.6630   50.1130 C   0  0  0  0  0  0  0  0  0  0  0  0
    6.0790   44.8420   50.8060 C   0  0  0  0  0  0  0  0  0  0  0  0
    4.6180   44.8100   52.8040 C   0  0  0  0  0  0  0  0  0  0  0  0
    5.3190   44.2470   53.6880 O   0  0  0  0  0  0  0  0  0  0  0  0
    3.2000   44.6880   52.7360 N   0  0  0  0  0  0  0  0  0  0  0  0
    2.4370   43.5570   53.2620 C   0  0  0  0  0  0  0  0  0  0  0  0
    1.3400   44.0550   54.1690 C   0  0  0  0  0  0  0  0  0  0  0  0
    1.6850   44.8590   55.2120 N   0  0  0  0  0  0  0  0  0  0  0  0
    0.7780   45.2980   56.1240 C   0  0  0  0  0  0  0  0  0  0  0  0
   -0.5600   44.9170   56.0140 C   0  0  0  0  0  0  0  0  0  0  0  0
   -1.7370   45.4650   57.1930 Cl  0  0  0  0  0  0  0  0  0  0  0  0
   -0.9490   44.0920   54.9590 C   0  0  0  0  0  0  0  0  0  0  0  0
   -0.0060   43.6500   54.0260 C   0  0  0  0  0  0  0  0  0  0  0  0
   -0.5480   42.6140   52.7120 Cl  0  0  0  0  0  0  0  0  0  0  0  0
    3.9480   46.6130   50.0730 H   0  0  0  0  0  0  0  0  0  0  0  0
    5.5943   47.7777   51.7590 H   0  0  0  0  0  0  0  0  0  0  0  0
    6.0545   46.9045   53.2367 H   0  0  0  0  0  0  0  0  0  0  0  0
    7.7322   47.4886   50.9316 H   0  0  0  0  0  0  0  0  0  0  0  0
    8.2067   46.5525   52.3455 H   0  0  0  0  0  0  0  0  0  0  0  0
    9.3514   45.2541   49.9531 H   0  0  0  0  0  0  0  0  0  0  0  0
    8.8564   43.1370   48.6967 H   0  0  0  0  0  0  0  0  0  0  0  0
    6.5688   42.1224   48.8024 H   0  0  0  0  0  0  0  0  0  0  0  0
    4.7689   43.2259   50.1638 H   0  0  0  0  0  0  0  0  0  0  0  0
    1.9928   42.9965   52.4262 H   0  0  0  0  0  0  0  0  0  0  0  0
    3.1098   42.9011   53.8339 H   0  0  0  0  0  0  0  0  0  0  0  0
    1.0982   45.9528   56.9478 H   0  0  0  0  0  0  0  0  0  0  0  0
   -2.0015   43.7879   54.8605 H   0  0  0  0  0  0  0  0  0  0  0  0
  1  2  2  0
  2  3  1  0
  4  3  1  6
  4  5  1  0
  5  6  1  0
  6  7  1  0
  7  8  2  0
  8  9  1  0
  9 10  2  0
 10 11  1  0
 11 12  2  0
  4 13  1  0
 13 14  2  0
 13 15  1  0
 15 16  1  0
 16 17  1  0
 17 18  2  0
 18 19  1  0
 19 20  2  0
 20 21  1  0
 20 22  1  0
 22 23  2  0
 23 24  1  0
 15  2  1  0
 23 17  1  0
 12  4  1  0
 12  7  1  0
  3 25  1  0
  5 26  1  0
  5 27  1  0
  6 28  1  0
  6 29  1  0
  8 30  1  0
  9 31  1  0
 10 32  1  0
 11 33  1  0
 16 34  1  0
 16 35  1  0
 19 36  1  0
 22 37  1  0
M  END
>  <meeko>  (2) 
{"is_sidechain": [false], "free_energy": -9.29, "intermolecular_energy": -10.292, "internal_energy": -0.433}

$$$$
ligand_22_conformer_5_docked
     RDKit          3D

 37 40  0  0  0  0  0  0  0  0999 V2000
    2.6780   47.2140   52.9360 O   0  0  0  0  0  0  0  0  0  0  0  0
    3.8370   46.7220   52.9110 C   0  0  0  0  0  0  0  0  0  0  0  0
    4.6820   46.7920   51.7700 N   0  0  0  0  0  0  0  0  0  0  0  0
    5.9090   46.0640   52.0810 C   0  0  2  0  0  0  0  0  0  0  0  0
    7.1750   46.9260   51.8580 C   0  0  0  0  0  0  0  0  0  0  0  0
    8.0750   46.1520   50.8740 C   0  0  0  0  0  0  0  0  0  0  0  0
    7.2850   44.9470   50.5180 C   0  0  0  0  0  0  0  0  0  0  0  0
    7.6610   43.9350   49.6310 C   0  0  0  0  0  0  0  0  0  0  0  0
    6.7870   42.8560   49.4250 C   0  0  0  0  0  0  0  0  0  0  0  0
    5.5570   42.8030   50.1050 C   0  0  0  0  0  0  0  0  0  0  0  0
    5.1980   43.8280   50.9910 C   0  0  0  0  0  0  0  0  0  0  0  0
    6.0850   44.8950   51.1830 C   0  0  0  0  0  0  0  0  0  0  0  0
    5.7010   45.6440   53.5100 C   0  0  0  0  0  0  0  0  0  0  0  0
    6.5320   44.9810   54.1880 O   0  0  0  0  0  0  0  0  0  0  0  0
    4.4240   46.0360   54.0070 N   0  0  0  0  0  0  0  0  0  0  0  0
    3.6900   45.3340   55.0580 C   0  0  0  0  0  0  0  0  0  0  0  0
    2.5660   44.5320   54.4530 C   0  0  0  0  0  0  0  0  0  0  0  0
    2.8410   43.7600   53.3660 N   0  0  0  0  0  0  0  0  0  0  0  0
    1.8810   43.0580   52.7090 C   0  0  0  0  0  0  0  0  0  0  0  0
    0.5550   43.1230   53.1390 C   0  0  0  0  0  0  0  0  0  0  0  0
   -0.6960   42.2340   52.2900 Cl  0  0  0  0  0  0  0  0  0  0  0  0
    0.2360   43.9060   54.2480 C   0  0  0  0  0  0  0  0  0  0  0  0
    1.2350   44.6200   54.9170 C   0  0  0  0  0  0  0  0  0  0  0  0
    0.7800   45.5900   56.3120 Cl  0  0  0  0  0  0  0  0  0  0  0  0
    4.4290   47.2100   50.8480 H   0  0  0  0  0  0  0  0  0  0  0  0
    6.8984   47.9012   51.4309 H   0  0  0  0  0  0  0  0  0  0  0  0
    7.6978   47.1115   52.8079 H   0  0  0  0  0  0  0  0  0  0  0  0
    8.2847   46.7576   49.9800 H   0  0  0  0  0  0  0  0  0  0  0  0
    9.0518   45.8979   51.3114 H   0  0  0  0  0  0  0  0  0  0  0  0
    8.6250   43.9830   49.1034 H   0  0  0  0  0  0  0  0  0  0  0  0
    7.0648   42.0499   48.7300 H   0  0  0  0  0  0  0  0  0  0  0  0
    4.8753   41.9554   49.9411 H   0  0  0  0  0  0  0  0  0  0  0  0
    4.2373   43.7951   51.5258 H   0  0  0  0  0  0  0  0  0  0  0  0
    4.3744   44.6577   55.5911 H   0  0  0  0  0  0  0  0  0  0  0  0
    3.2716   46.0701   55.7602 H   0  0  0  0  0  0  0  0  0  0  0  0
    2.1486   42.4395   51.8396 H   0  0  0  0  0  0  0  0  0  0  0  0
   -0.8054   43.9622   54.5978 H   0  0  0  0  0  0  0  0  0  0  0  0
  1  2  2  0
  2  3  1  0
  4  3  1  6
  4  5  1  0
  5  6  1  0
  6  7  1  0
  7  8  2  0
  8  9  1  0
  9 10  2  0
 10 11  1  0
 11 12  2  0
  4 13  1  0
 13 14  2  0
 13 15  1  0
 15 16  1  0
 16 17  1  0
 17 18  2  0
 18 19  1  0
 19 20  2  0
 20 21  1  0
 20 22  1  0
 22 23  2  0
 23 24  1  0
 15  2  1  0
 23 17  1  0
 12  4  1  0
 12  7  1  0
  3 25  1  0
  5 26  1  0
  5 27  1  0
  6 28  1  0
  6 29  1  0
  8 30  1  0
  9 31  1  0
 10 32  1  0
 11 33  1  0
 16 34  1  0
 16 35  1  0
 19 36  1  0
 22 37  1  0
M  END
>  <meeko>  (3) 
{"is_sidechain": [false], "free_energy": -9.246, "intermolecular_energy": -10.568, "internal_energy": -0.108}

$$$$
ligand_22_conformer_5_docked
     RDKit          3D

 37 40  0  0  0  0  0  0  0  0999 V2000
    6.2910   45.6220   55.3310 O   0  0  0  0  0  0  0  0  0  0  0  0
    5.4450   45.4790   54.4090 C   0  0  0  0  0  0  0  0  0  0  0  0
    4.7060   44.2800   54.2150 N   0  0  0  0  0  0  0  0  0  0  0  0
    3.8800   44.4540   53.0240 C   0  0  2  0  0  0  0  0  0  0  0  0
    2.3830   44.1760   53.3030 C   0  0  0  0  0  0  0  0  0  0  0  0
    1.9390   43.0850   52.3090 C   0  0  0  0  0  0  0  0  0  0  0  0
    3.1750   42.7310   51.5690 C   0  0  0  0  0  0  0  0  0  0  0  0
    3.3010   41.7660   50.5670 C   0  0  0  0  0  0  0  0  0  0  0  0
    4.5540   41.5740   49.9640 C   0  0  0  0  0  0  0  0  0  0  0  0
    5.6580   42.3460   50.3680 C   0  0  0  0  0  0  0  0  0  0  0  0
    5.5120   43.3100   51.3750 C   0  0  0  0  0  0  0  0  0  0  0  0
    4.2520   43.4850   51.9630 C   0  0  0  0  0  0  0  0  0  0  0  0
    4.1700   45.8720   52.6140 C   0  0  0  0  0  0  0  0  0  0  0  0
    3.6580   46.4460   51.6160 O   0  0  0  0  0  0  0  0  0  0  0  0
    5.1410   46.4880   53.4560 N   0  0  0  0  0  0  0  0  0  0  0  0
    6.0470   47.5570   53.0370 C   0  0  0  0  0  0  0  0  0  0  0  0
    7.3320   46.9670   52.5160 C   0  0  0  0  0  0  0  0  0  0  0  0
    7.2830   46.2300   51.3720 N   0  0  0  0  0  0  0  0  0  0  0  0
    8.3750   45.6010   50.8630 C   0  0  0  0  0  0  0  0  0  0  0  0
    9.5990   45.6880   51.5250 C   0  0  0  0  0  0  0  0  0  0  0  0
   11.0120   44.8670   50.8870 Cl  0  0  0  0  0  0  0  0  0  0  0  0
    9.6870   46.4320   52.7020 C   0  0  0  0  0  0  0  0  0  0  0  0
    8.5560   47.0790   53.2110 C   0  0  0  0  0  0  0  0  0  0  0  0
    8.7200   48.0070   54.6970 Cl  0  0  0  0  0  0  0  0  0  0  0  0
    4.8090   43.4040   54.7730 H   0  0  0  0  0  0  0  0  0  0  0  0
    2.2496   43.8235   54.3364 H   0  0  0  0  0  0  0  0  0  0  0  0
    1.7827   45.0895   53.1800 H   0  0  0  0  0  0  0  0  0  0  0  0
    1.5421   42.2097   52.8442 H   0  0  0  0  0  0  0  0  0  0  0  0
    1.1359   43.4297   51.6410 H   0  0  0  0  0  0  0  0  0  0  0  0
    2.4328   41.1665   50.2556 H   0  0  0  0  0  0  0  0  0  0  0  0
    4.6727   40.8181   49.1738 H   0  0  0  0  0  0  0  0  0  0  0  0
    6.6381   42.1929   49.8927 H   0  0  0  0  0  0  0  0  0  0  0  0
    6.3702   43.9177   51.6977 H   0  0  0  0  0  0  0  0  0  0  0  0
    5.5693   48.1492   52.2426 H   0  0  0  0  0  0  0  0  0  0  0  0
    6.2689   48.2020   53.9000 H   0  0  0  0  0  0  0  0  0  0  0  0
    8.2933   45.0241   49.9300 H   0  0  0  0  0  0  0  0  0  0  0  0
   10.6482   46.5100   53.2311 H   0  0  0  0  0  0  0  0  0  0  0  0
  1  2  2  0
  2  3  1  0
  4  3  1  1
  4  5  1  0
  5  6  1  0
  6  7  1  0
  7  8  2  0
  8  9  1  0
  9 10  2  0
 10 11  1  0
 11 12  2  0
  4 13  1  0
 13 14  2  0
 13 15  1  0
 15 16  1  0
 16 17  1  0
 17 18  2  0
 18 19  1  0
 19 20  2  0
 20 21  1  0
 20 22  1  0
 22 23  2  0
 23 24  1  0
 15  2  1  0
 23 17  1  0
 12  4  1  0
 12  7  1  0
  3 25  1  0
  5 26  1  0
  5 27  1  0
  6 28  1  0
  6 29  1  0
  8 30  1  0
  9 31  1  0
 10 32  1  0
 11 33  1  0
 16 34  1  0
 16 35  1  0
 19 36  1  0
 22 37  1  0
M  END
>  <meeko>  (4) 
{"is_sidechain": [false], "free_energy": -9.084, "intermolecular_energy": -9.968, "internal_energy": -0.528}

$$$$
ligand_22_conformer_5_docked
     RDKit          3D

 37 40  0  0  0  0  0  0  0  0999 V2000
    3.2780   47.4240   52.3390 O   0  0  0  0  0  0  0  0  0  0  0  0
    4.3130   46.9110   52.8410 C   0  0  0  0  0  0  0  0  0  0  0  0
    5.5810   47.5550   52.8270 N   0  0  0  0  0  0  0  0  0  0  0  0
    6.5480   46.6440   53.4330 C   0  0  2  0  0  0  0  0  0  0  0  0
    7.3190   47.3020   54.6030 C   0  0  0  0  0  0  0  0  0  0  0  0
    8.8210   47.1810   54.2710 C   0  0  0  0  0  0  0  0  0  0  0  0
    8.8550   46.5480   52.9300 C   0  0  0  0  0  0  0  0  0  0  0  0
    9.9940   46.2450   52.1790 C   0  0  0  0  0  0  0  0  0  0  0  0
    9.8360   45.6300   50.9270 C   0  0  0  0  0  0  0  0  0  0  0  0
    8.5500   45.3260   50.4460 C   0  0  0  0  0  0  0  0  0  0  0  0
    7.4190   45.6380   51.2150 C   0  0  0  0  0  0  0  0  0  0  0  0
    7.6000   46.2500   52.4610 C   0  0  0  0  0  0  0  0  0  0  0  0
    5.7000   45.4730   53.8450 C   0  0  0  0  0  0  0  0  0  0  0  0
    6.1390   44.4390   54.4170 O   0  0  0  0  0  0  0  0  0  0  0  0
    4.3360   45.6350   53.4650 N   0  0  0  0  0  0  0  0  0  0  0  0
    3.4160   44.5360   53.1770 C   0  0  0  0  0  0  0  0  0  0  0  0
    2.1690   44.6760   54.0120 C   0  0  0  0  0  0  0  0  0  0  0  0
    2.3120   44.9230   55.3440 N   0  0  0  0  0  0  0  0  0  0  0  0
    1.2510   44.9940   56.1890 C   0  0  0  0  0  0  0  0  0  0  0  0
   -0.0420   44.8010   55.7010 C   0  0  0  0  0  0  0  0  0  0  0  0
   -1.4180   44.8750   56.7860 Cl  0  0  0  0  0  0  0  0  0  0  0  0
   -0.2260   44.5440   54.3430 C   0  0  0  0  0  0  0  0  0  0  0  0
    0.8750   44.4770   53.4830 C   0  0  0  0  0  0  0  0  0  0  0  0
    0.5880   44.1520   51.7780 Cl  0  0  0  0  0  0  0  0  0  0  0  0
    5.7930   48.4740   52.3810 H   0  0  0  0  0  0  0  0  0  0  0  0
    7.0357   48.3609   54.6953 H   0  0  0  0  0  0  0  0  0  0  0  0
    7.0847   46.8080   55.5575 H   0  0  0  0  0  0  0  0  0  0  0  0
    9.2946   48.1735   54.2446 H   0  0  0  0  0  0  0  0  0  0  0  0
    9.3700   46.5962   55.0237 H   0  0  0  0  0  0  0  0  0  0  0  0
   10.9969   46.4843   52.5623 H   0  0  0  0  0  0  0  0  0  0  0  0
   10.7205   45.3852   50.3206 H   0  0  0  0  0  0  0  0  0  0  0  0
    8.4307   44.8427   49.4651 H   0  0  0  0  0  0  0  0  0  0  0  0
    6.4090   45.4062   50.8459 H   0  0  0  0  0  0  0  0  0  0  0  0
    3.1451   44.5574   52.1111 H   0  0  0  0  0  0  0  0  0  0  0  0
    3.9068   43.5815   53.4178 H   0  0  0  0  0  0  0  0  0  0  0  0
    1.4108   45.2034   57.2570 H   0  0  0  0  0  0  0  0  0  0  0  0
   -1.2409   44.3934   53.9465 H   0  0  0  0  0  0  0  0  0  0  0  0
  1  2  2  0
  2  3  1  0
  4  3  1  6
  4  5  1  0
  5  6  1  0
  6  7  1  0
  7  8  2  0
  8  9  1  0
  9 10  2  0
 10 11  1  0
 11 12  2  0
  4 13  1  0
 13 14  2  0
 13 15  1  0
 15 16  1  0
 16 17  1  0
 17 18  2  0
 18 19  1  0
 19 20  2  0
 20 21  1  0
 20 22  1  0
 22 23  2  0
 23 24  1  0
 15  2  1  0
 23 17  1  0
 12  4  1  0
 12  7  1  0
  3 25  1  0
  5 26  1  0
  5 27  1  0
  6 28  1  0
  6 29  1  0
  8 30  1  0
  9 31  1  0
 10 32  1  0
 11 33  1  0
 16 34  1  0
 16 35  1  0
 19 36  1  0
 22 37  1  0
M  END
>  <meeko>  (5) 
{"is_sidechain": [false], "free_energy": -8.913, "intermolecular_energy": -9.878, "internal_energy": -0.427}

$$$$
