MODEL 1
REMARK VINA RESULT:    -8.703      0.000      0.000
REMARK INTER + INTRA:         -11.707
REMARK INTER:                 -11.247
REMARK INTRA:                  -0.460
REMARK UNBOUND:                -0.460
REMARK SMILES O=C(NC[C@@H]1NCC[C@@H]1C1CC1)c1ccc(N2CCCS2(=O)=O)cc1Cl
REMARK SMILES IDX 1 1 2 2 3 3 13 5 14 6 25 7 15 8 24 9 16 10 26 11 17 12 18 13
REMARK SMILES IDX 21 14 19 15 20 16 22 17 23 18 4 19 5 20 6 21 9 22 7 23 8 24
REMARK SMILES IDX 10 26 11 27 12 28
REMARK H PARENT 3 4 6 25
ROOT
ATOM      1  O   UNL     1       5.906  47.586  54.629  1.00  0.00    -0.269 OA
ATOM      2  C   UNL     1       5.555  47.242  53.467  1.00  0.00     0.252 C 
ATOM      3  N   UNL     1       6.379  47.585  52.340  1.00  0.00    -0.350 N 
ATOM      4  H   UNL     1       6.139  47.201  51.398  1.00  0.00     0.163 HD
ENDROOT
BRANCH   2   5
ATOM      5  C   UNL     1       4.288  46.500  53.270  1.00  0.00     0.058 A 
ATOM      6  C   UNL     1       3.236  47.112  52.571  1.00  0.00     0.017 A 
ATOM      7  C   UNL     1       4.102  45.196  53.779  1.00  0.00     0.055 A 
ATOM      8  C   UNL     1       2.022  46.450  52.383  1.00  0.00     0.028 A 
ATOM      9  C   UNL     1       2.881  44.538  53.587  1.00  0.00     0.048 A 
ATOM     10  C   UNL     1       1.827  45.151  52.887  1.00  0.00     0.053 A 
ATOM     11  Cl  UNL     1       5.386  44.325  54.613  1.00  0.00    -0.083 Cl
BRANCH  10  12
ATOM     12  N   UNL     1       0.566  44.468  52.695  1.00  0.00    -0.270 N 
ATOM     13  C   UNL     1      -0.725  45.140  52.567  1.00  0.00     0.136 C 
ATOM     14  S   UNL     1       0.412  42.781  52.408  1.00  0.00     0.235 S 
ATOM     15  C   UNL     1      -1.845  44.077  52.543  1.00  0.00     0.041 C 
ATOM     16  C   UNL     1      -1.299  42.752  52.003  1.00  0.00     0.162 C 
ATOM     17  O   UNL     1       0.701  41.985  53.650  1.00  0.00    -0.206 OA
ATOM     18  O   UNL     1       1.262  42.333  51.252  1.00  0.00    -0.206 OA
ENDBRANCH  10  12
ENDBRANCH   2   5
BRANCH   3  19
ATOM     19  C   UNL     1       7.647  48.298  52.478  1.00  0.00     0.135 C 
BRANCH  19  20
ATOM     20  C   UNL     1       8.779  47.522  51.779  1.00  0.00     0.076 C 
ATOM     21  N   UNL     1       8.277  46.271  51.211  1.00  0.00    -0.312 NA
ATOM     22  C   UNL     1       9.984  47.158  52.665  1.00  0.00     0.012 C 
ATOM     23  C   UNL     1       9.409  45.342  51.170  1.00  0.00     0.081 C 
ATOM     24  C   UNL     1      10.591  46.000  51.872  1.00  0.00     0.021 C 
ATOM     25  H   UNL     1       7.945  46.450  50.233  1.00  0.00     0.123 HD
BRANCH  22  26
ATOM     26  C   UNL     1       9.587  46.867  54.148  1.00  0.00    -0.006 C 
ATOM     27  C   UNL     1       9.373  48.098  55.021  1.00  0.00     0.004 C 
ATOM     28  C   UNL     1      10.540  47.162  55.303  1.00  0.00     0.004 C 
ENDBRANCH  22  26
ENDBRANCH  19  20
ENDBRANCH   3  19
TORSDOF 5
ENDMDL
MODEL 2
REMARK VINA RESULT:    -8.492      5.512      6.352
REMARK INTER + INTRA:         -11.434
REMARK INTER:                 -11.003
REMARK INTRA:                  -0.431
REMARK UNBOUND:                -0.460
REMARK SMILES O=C(NC[C@@H]1NCC[C@@H]1C1CC1)c1ccc(N2CCCS2(=O)=O)cc1Cl
REMARK SMILES IDX 1 1 2 2 3 3 13 5 14 6 25 7 15 8 24 9 16 10 26 11 17 12 18 13
REMARK SMILES IDX 21 14 19 15 20 16 22 17 23 18 4 19 5 20 6 21 9 22 7 23 8 24
REMARK SMILES IDX 10 26 11 27 12 28
REMARK H PARENT 3 4 6 25
ROOT
ATOM      1  O   UNL     1       7.882  42.919  49.410  1.00  0.00    -0.269 OA
ATOM      2  C   UNL     1       6.638  43.125  49.433  1.00  0.00     0.252 C 
ATOM      3  N   UNL     1       6.115  44.273  50.123  1.00  0.00    -0.350 N 
ATOM      4  H   UNL     1       5.097  44.496  50.042  1.00  0.00     0.163 HD
ENDROOT
BRANCH   2   5
ATOM      5  C   UNL     1       5.722  42.174  48.761  1.00  0.00     0.058 A 
ATOM      6  C   UNL     1       5.803  42.012  47.369  1.00  0.00     0.017 A 
ATOM      7  C   UNL     1       4.759  41.433  49.480  1.00  0.00     0.055 A 
ATOM      8  C   UNL     1       4.944  41.138  46.701  1.00  0.00     0.028 A 
ATOM      9  C   UNL     1       3.900  40.559  48.803  1.00  0.00     0.048 A 
ATOM     10  C   UNL     1       3.980  40.397  47.408  1.00  0.00     0.053 A 
ATOM     11  Cl  UNL     1       4.627  41.523  51.234  1.00  0.00    -0.083 Cl
BRANCH  10  12
ATOM     12  N   UNL     1       3.088  39.495  46.712  1.00  0.00    -0.270 N 
ATOM     13  C   UNL     1       2.760  38.145  47.166  1.00  0.00     0.136 C 
ATOM     14  S   UNL     1       2.141  39.933  45.347  1.00  0.00     0.235 S 
ATOM     15  C   UNL     1       1.917  37.442  46.080  1.00  0.00     0.041 C 
ATOM     16  C   UNL     1       1.154  38.480  45.252  1.00  0.00     0.162 C 
ATOM     17  O   UNL     1       2.994  40.103  44.120  1.00  0.00    -0.206 OA
ATOM     18  O   UNL     1       1.306  41.154  45.616  1.00  0.00    -0.206 OA
ENDBRANCH  10  12
ENDBRANCH   2   5
BRANCH   3  19
ATOM     19  C   UNL     1       6.973  45.254  50.786  1.00  0.00     0.135 C 
BRANCH  19  20
ATOM     20  C   UNL     1       6.442  45.564  52.197  1.00  0.00     0.076 C 
ATOM     21  N   UNL     1       5.408  46.598  52.148  1.00  0.00    -0.312 NA
ATOM     22  C   UNL     1       7.495  46.035  53.217  1.00  0.00     0.012 C 
ATOM     23  C   UNL     1       5.431  47.279  53.445  1.00  0.00     0.081 C 
ATOM     24  C   UNL     1       6.612  46.743  54.245  1.00  0.00     0.021 C 
ATOM     25  H   UNL     1       4.475  46.140  52.018  1.00  0.00     0.123 HD
BRANCH  22  26
ATOM     26  C   UNL     1       8.640  46.879  52.569  1.00  0.00    -0.006 C 
ATOM     27  C   UNL     1       9.928  46.117  52.277  1.00  0.00     0.004 C 
ATOM     28  C   UNL     1       9.917  47.213  53.334  1.00  0.00     0.004 C 
ENDBRANCH  22  26
ENDBRANCH  19  20
ENDBRANCH   3  19
TORSDOF 5
ENDMDL
MODEL 3
REMARK VINA RESULT:    -7.719      6.344      7.296
REMARK INTER + INTRA:         -10.435
REMARK INTER:                 -10.067
REMARK INTRA:                  -0.368
REMARK UNBOUND:                -0.460
REMARK SMILES O=C(NC[C@@H]1NCC[C@@H]1C1CC1)c1ccc(N2CCCS2(=O)=O)cc1Cl
REMARK SMILES IDX 1 1 2 2 3 3 13 5 14 6 25 7 15 8 24 9 16 10 26 11 17 12 18 13
REMARK SMILES IDX 21 14 19 15 20 16 22 17 23 18 4 19 5 20 6 21 9 22 7 23 8 24
REMARK SMILES IDX 10 26 11 27 12 28
REMARK H PARENT 3 4 6 25
ROOT
ATOM      1  O   UNL     1       6.608  41.349  50.012  1.00  0.00    -0.269 OA
ATOM      2  C   UNL     1       6.107  42.140  49.166  1.00  0.00     0.252 C 
ATOM      3  N   UNL     1       6.277  43.558  49.325  1.00  0.00    -0.350 N 
ATOM      4  H   UNL     1       5.956  44.198  48.563  1.00  0.00     0.163 HD
ENDROOT
BRANCH   2   5
ATOM      5  C   UNL     1       5.336  41.601  48.022  1.00  0.00     0.058 A 
ATOM      6  C   UNL     1       5.788  41.843  46.716  1.00  0.00     0.017 A 
ATOM      7  C   UNL     1       4.149  40.860  48.207  1.00  0.00     0.055 A 
ATOM      8  C   UNL     1       5.077  41.366  45.613  1.00  0.00     0.028 A 
ATOM      9  C   UNL     1       3.440  40.384  47.097  1.00  0.00     0.048 A 
ATOM     10  C   UNL     1       3.892  40.628  45.787  1.00  0.00     0.053 A 
ATOM     11  Cl  UNL     1       3.540  40.451  49.809  1.00  0.00    -0.083 Cl
BRANCH  10  12
ATOM     12  N   UNL     1       3.155  40.139  44.643  1.00  0.00    -0.270 N 
ATOM     13  C   UNL     1       3.693  39.214  43.648  1.00  0.00     0.136 C 
ATOM     14  S   UNL     1       1.482  40.425  44.375  1.00  0.00     0.235 S 
ATOM     15  C   UNL     1       2.672  39.060  42.500  1.00  0.00     0.041 C 
ATOM     16  C   UNL     1       1.256  39.329  43.018  1.00  0.00     0.162 C 
ATOM     17  O   UNL     1       1.227  41.854  43.981  1.00  0.00    -0.206 OA
ATOM     18  O   UNL     1       0.650  40.019  45.559  1.00  0.00    -0.206 OA
ENDBRANCH  10  12
ENDBRANCH   2   5
BRANCH   3  19
ATOM     19  C   UNL     1       7.044  44.143  50.423  1.00  0.00     0.135 C 
BRANCH  19  20
ATOM     20  C   UNL     1       6.099  44.787  51.455  1.00  0.00     0.076 C 
ATOM     21  N   UNL     1       4.911  45.337  50.800  1.00  0.00    -0.312 NA
ATOM     22  C   UNL     1       6.707  45.922  52.299  1.00  0.00     0.012 C 
ATOM     23  C   UNL     1       4.433  46.433  51.646  1.00  0.00     0.081 C 
ATOM     24  C   UNL     1       5.447  46.650  52.764  1.00  0.00     0.021 C 
ATOM     25  H   UNL     1       4.174  44.593  50.753  1.00  0.00     0.123 HD
BRANCH  22  26
ATOM     26  C   UNL     1       7.765  46.767  51.518  1.00  0.00    -0.006 C 
ATOM     27  C   UNL     1       9.170  46.764  52.108  1.00  0.00     0.004 C 
ATOM     28  C   UNL     1       8.352  48.048  52.101  1.00  0.00     0.004 C 
ENDBRANCH  22  26
ENDBRANCH  19  20
ENDBRANCH   3  19
TORSDOF 5
ENDMDL
MODEL 4
REMARK VINA RESULT:    -7.679      3.970      9.202
REMARK INTER + INTRA:         -10.383
REMARK INTER:                  -9.974
REMARK INTRA:                  -0.410
REMARK UNBOUND:                -0.460
REMARK SMILES O=C(NC[C@@H]1NCC[C@@H]1C1CC1)c1ccc(N2CCCS2(=O)=O)cc1Cl
REMARK SMILES IDX 1 1 2 2 3 3 13 5 14 6 25 7 15 8 24 9 16 10 26 11 17 12 18 13
REMARK SMILES IDX 21 14 19 15 20 16 22 17 23 18 4 19 5 20 6 21 9 22 7 23 8 24
REMARK SMILES IDX 10 26 11 27 12 28
REMARK H PARENT 3 4 6 25
ROOT
ATOM      1  O   UNL     1       1.649  44.720  54.034  1.00  0.00    -0.269 OA
ATOM      2  C   UNL     1       2.483  45.179  54.862  1.00  0.00     0.252 C 
ATOM      3  N   UNL     1       2.087  45.402  56.226  1.00  0.00    -0.350 N 
ATOM      4  H   UNL     1       2.811  45.676  56.928  1.00  0.00     0.163 HD
ENDROOT
BRANCH   2   5
ATOM      5  C   UNL     1       3.860  45.497  54.420  1.00  0.00     0.058 A 
ATOM      6  C   UNL     1       4.947  44.898  55.076  1.00  0.00     0.017 A 
ATOM      7  C   UNL     1       4.114  46.400  53.364  1.00  0.00     0.055 A 
ATOM      8  C   UNL     1       6.258  45.189  54.697  1.00  0.00     0.028 A 
ATOM      9  C   UNL     1       5.432  46.687  52.990  1.00  0.00     0.048 A 
ATOM     10  C   UNL     1       6.521  46.087  53.647  1.00  0.00     0.053 A 
ATOM     11  Cl  UNL     1       2.814  47.150  52.442  1.00  0.00    -0.083 Cl
BRANCH  10  12
ATOM     12  N   UNL     1       7.882  46.391  53.260  1.00  0.00    -0.270 N 
ATOM     13  C   UNL     1       9.025  46.356  54.169  1.00  0.00     0.136 C 
ATOM     14  S   UNL     1       8.390  46.662  51.642  1.00  0.00     0.235 S 
ATOM     15  C   UNL     1      10.269  46.898  53.432  1.00  0.00     0.041 C 
ATOM     16  C   UNL     1      10.126  46.673  51.924  1.00  0.00     0.162 C 
ATOM     17  O   UNL     1       7.905  47.990  51.130  1.00  0.00    -0.206 OA
ATOM     18  O   UNL     1       7.983  45.536  50.733  1.00  0.00    -0.206 OA
ENDBRANCH  10  12
ENDBRANCH   2   5
BRANCH   3  19
ATOM     19  C   UNL     1       0.748  45.088  56.721  1.00  0.00     0.135 C 
BRANCH  19  20
ATOM     20  C   UNL     1      -0.061  46.380  56.940  1.00  0.00     0.076 C 
ATOM     21  N   UNL     1       0.168  46.915  58.282  1.00  0.00    -0.312 NA
ATOM     22  C   UNL     1      -1.585  46.250  56.766  1.00  0.00     0.012 C 
ATOM     23  C   UNL     1      -1.032  47.674  58.644  1.00  0.00     0.081 C 
ATOM     24  C   UNL     1      -2.074  47.466  57.551  1.00  0.00     0.021 C 
ATOM     25  H   UNL     1       0.990  47.565  58.254  1.00  0.00     0.123 HD
BRANCH  22  26
ATOM     26  C   UNL     1      -2.135  44.855  57.207  1.00  0.00    -0.006 C 
ATOM     27  C   UNL     1      -2.538  43.923  56.071  1.00  0.00     0.004 C 
ATOM     28  C   UNL     1      -3.600  44.476  57.012  1.00  0.00     0.004 C 
ENDBRANCH  22  26
ENDBRANCH  19  20
ENDBRANCH   3  19
TORSDOF 5
ENDMDL
MODEL 5
REMARK VINA RESULT:    -7.276      5.729      9.708
REMARK INTER + INTRA:          -9.863
REMARK INTER:                  -9.817
REMARK INTRA:                  -0.046
REMARK UNBOUND:                -0.460
REMARK SMILES O=C(NC[C@@H]1NCC[C@@H]1C1CC1)c1ccc(N2CCCS2(=O)=O)cc1Cl
REMARK SMILES IDX 1 1 2 2 3 3 13 5 14 6 25 7 15 8 24 9 16 10 26 11 17 12 18 13
REMARK SMILES IDX 21 14 19 15 20 16 22 17 23 18 4 19 5 20 6 21 9 22 7 23 8 24
REMARK SMILES IDX 10 26 11 27 12 28
REMARK H PARENT 3 4 6 25
ROOT
ATOM      1  O   UNL     1       3.519  40.391  50.360  1.00  0.00    -0.269 OA
ATOM      2  C   UNL     1       4.183  41.107  49.562  1.00  0.00     0.252 C 
ATOM      3  N   UNL     1       4.232  40.766  48.166  1.00  0.00    -0.350 N 
ATOM      4  H   UNL     1       4.690  41.425  47.497  1.00  0.00     0.163 HD
ENDROOT
BRANCH   2   5
ATOM      5  C   UNL     1       4.919  42.288  50.071  1.00  0.00     0.058 A 
ATOM      6  C   UNL     1       6.115  42.672  49.446  1.00  0.00     0.017 A 
ATOM      7  C   UNL     1       4.457  43.032  51.179  1.00  0.00     0.055 A 
ATOM      8  C   UNL     1       6.844  43.768  49.910  1.00  0.00     0.028 A 
ATOM      9  C   UNL     1       5.193  44.130  51.640  1.00  0.00     0.048 A 
ATOM     10  C   UNL     1       6.393  44.515  51.014  1.00  0.00     0.053 A 
ATOM     11  Cl  UNL     1       2.935  42.664  51.986  1.00  0.00    -0.083 Cl
BRANCH  10  12
ATOM     12  N   UNL     1       7.152  45.648  51.496  1.00  0.00    -0.270 N 
ATOM     13  C   UNL     1       8.342  46.184  50.838  1.00  0.00     0.136 C 
ATOM     14  S   UNL     1       6.674  46.646  52.810  1.00  0.00     0.235 S 
ATOM     15  C   UNL     1       8.963  47.277  51.736  1.00  0.00     0.041 C 
ATOM     16  C   UNL     1       7.882  47.910  52.617  1.00  0.00     0.162 C 
ATOM     17  O   UNL     1       6.826  45.932  54.125  1.00  0.00    -0.206 OA
ATOM     18  O   UNL     1       5.280  47.179  52.627  1.00  0.00    -0.206 OA
ENDBRANCH  10  12
ENDBRANCH   2   5
BRANCH   3  19
ATOM     19  C   UNL     1       3.510  39.625  47.607  1.00  0.00     0.135 C 
BRANCH  19  20
ATOM     20  C   UNL     1       3.193  39.867  46.120  1.00  0.00     0.076 C 
ATOM     21  N   UNL     1       2.446  41.113  45.944  1.00  0.00    -0.312 NA
ATOM     22  C   UNL     1       2.382  38.760  45.422  1.00  0.00     0.012 C 
ATOM     23  C   UNL     1       1.650  40.959  44.723  1.00  0.00     0.081 C 
ATOM     24  C   UNL     1       1.805  39.525  44.231  1.00  0.00     0.021 C 
ATOM     25  H   UNL     1       3.125  41.901  45.813  1.00  0.00     0.123 HD
BRANCH  22  26
ATOM     26  C   UNL     1       1.360  38.057  46.373  1.00  0.00    -0.006 C 
ATOM     27  C   UNL     1       1.677  36.606  46.715  1.00  0.00     0.004 C 
ATOM     28  C   UNL     1       0.448  36.938  45.880  1.00  0.00     0.004 C 
ENDBRANCH  22  26
ENDBRANCH  19  20
ENDBRANCH   3  19
TORSDOF 5
ENDMDL
