MODEL 1
REMARK VINA RESULT:    -9.212      0.000      0.000
REMARK INTER + INTRA:         -12.201
REMARK INTER:                 -11.366
REMARK INTRA:                  -0.835
REMARK UNBOUND:                -0.835
REMARK SMILES COC(=O)[C@H]1Cc2ccccc2CN1C(=O)[C@@H]1CC12CCOCC2
REMARK SMILES IDX 5 1 6 2 7 3 8 4 9 5 10 6 11 7 12 8 13 9 14 10 3 11 4 12 2 13
REMARK SMILES IDX 1 14 15 15 16 16 17 17 18 18 19 19 20 20 24 21 21 22 23 23
REMARK SMILES IDX 22 24
REMARK H PARENT
ROOT
ATOM      1  C   UNL     1       4.329  44.844  53.206  1.00  0.00     0.199 C 
ATOM      2  C   UNL     1       3.833  43.834  52.143  1.00  0.00     0.073 C 
ATOM      3  C   UNL     1       4.947  43.446  51.215  1.00  0.00    -0.040 A 
ATOM      4  C   UNL     1       5.095  42.127  50.760  1.00  0.00     0.004 A 
ATOM      5  C   UNL     1       6.105  41.811  49.846  1.00  0.00     0.000 A 
ATOM      6  C   UNL     1       6.958  42.811  49.372  1.00  0.00     0.000 A 
ATOM      7  C   UNL     1       6.806  44.131  49.810  1.00  0.00     0.006 A 
ATOM      8  C   UNL     1       5.803  44.449  50.738  1.00  0.00    -0.025 A 
ATOM      9  C   UNL     1       5.591  45.859  51.213  1.00  0.00     0.156 C 
ATOM     10  N   UNL     1       5.255  45.861  52.650  1.00  0.00    -0.324 N 
ENDROOT
BRANCH   1  11
ATOM     11  C   UNL     1       3.156  45.514  53.867  1.00  0.00     0.328 C 
ATOM     12  O   UNL     1       2.427  46.306  53.209  1.00  0.00    -0.250 OA
BRANCH  11  13
ATOM     13  O   UNL     1       2.901  45.273  55.220  1.00  0.00    -0.467 OA
ATOM     14  C   UNL     1       1.623  44.868  55.697  1.00  0.00     0.282 C 
ENDBRANCH  11  13
ENDBRANCH   1  11
BRANCH  10  15
ATOM     15  C   UNL     1       5.897  46.791  53.554  1.00  0.00     0.227 C 
ATOM     16  O   UNL     1       5.312  47.864  53.868  1.00  0.00    -0.275 OA
BRANCH  15  17
ATOM     17  C   UNL     1       7.241  46.487  54.166  1.00  0.00     0.085 C 
ATOM     18  C   UNL     1       7.963  47.665  54.828  1.00  0.00     0.022 C 
ATOM     19  C   UNL     1       8.471  47.117  53.500  1.00  0.00    -0.013 C 
ATOM     20  C   UNL     1       9.774  46.317  53.562  1.00  0.00     0.036 C 
ATOM     21  C   UNL     1       8.350  48.098  52.324  1.00  0.00     0.036 C 
ATOM     22  C   UNL     1      10.091  45.796  52.156  1.00  0.00     0.160 C 
ATOM     23  C   UNL     1       8.830  47.405  51.045  1.00  0.00     0.160 C 
ATOM     24  O   UNL     1      10.127  46.857  51.217  1.00  0.00    -0.381 OA
ENDBRANCH  15  17
ENDBRANCH  10  15
TORSDOF 4
ENDMDL
MODEL 2
REMARK VINA RESULT:    -8.378      2.261      5.858
REMARK INTER + INTRA:         -11.172
REMARK INTER:                 -10.987
REMARK INTRA:                  -0.185
REMARK UNBOUND:                -0.835
REMARK SMILES COC(=O)[C@H]1Cc2ccccc2CN1C(=O)[C@@H]1CC12CCOCC2
REMARK SMILES IDX 5 1 6 2 7 3 8 4 9 5 10 6 11 7 12 8 13 9 14 10 3 11 4 12 2 13
REMARK SMILES IDX 1 14 15 15 16 16 17 17 18 18 19 19 20 20 24 21 21 22 23 23
REMARK SMILES IDX 22 24
REMARK H PARENT
ROOT
ATOM      1  C   UNL     1       4.931  46.540  52.195  1.00  0.00     0.199 C 
ATOM      2  C   UNL     1       6.417  46.163  51.978  1.00  0.00     0.073 C 
ATOM      3  C   UNL     1       6.542  45.011  51.024  1.00  0.00    -0.040 A 
ATOM      4  C   UNL     1       7.562  44.964  50.062  1.00  0.00     0.004 A 
ATOM      5  C   UNL     1       7.688  43.847  49.230  1.00  0.00     0.000 A 
ATOM      6  C   UNL     1       6.809  42.768  49.367  1.00  0.00     0.000 A 
ATOM      7  C   UNL     1       5.800  42.804  50.334  1.00  0.00     0.006 A 
ATOM      8  C   UNL     1       5.660  43.929  51.160  1.00  0.00    -0.025 A 
ATOM      9  C   UNL     1       4.605  43.993  52.229  1.00  0.00     0.156 C 
ATOM     10  N   UNL     1       4.043  45.357  52.300  1.00  0.00    -0.324 N 
ENDROOT
BRANCH   1  11
ATOM     11  C   UNL     1       4.793  47.406  53.416  1.00  0.00     0.328 C 
ATOM     12  O   UNL     1       3.893  48.289  53.465  1.00  0.00    -0.250 OA
BRANCH  11  13
ATOM     13  O   UNL     1       5.686  47.243  54.478  1.00  0.00    -0.467 OA
ATOM     14  C   UNL     1       5.780  46.032  55.220  1.00  0.00     0.282 C 
ENDBRANCH  11  13
ENDBRANCH   1  11
BRANCH  10  15
ATOM     15  C   UNL     1       2.612  45.559  52.376  1.00  0.00     0.227 C 
ATOM     16  O   UNL     1       1.936  45.644  51.315  1.00  0.00    -0.275 OA
BRANCH  15  17
ATOM     17  C   UNL     1       1.901  45.630  53.703  1.00  0.00     0.085 C 
ATOM     18  C   UNL     1       2.545  44.851  54.855  1.00  0.00     0.022 C 
ATOM     19  C   UNL     1       1.258  44.336  54.221  1.00  0.00    -0.013 C 
ATOM     20  C   UNL     1      -0.009  44.486  55.065  1.00  0.00     0.036 C 
ATOM     21  C   UNL     1       1.411  42.997  53.482  1.00  0.00     0.036 C 
ATOM     22  C   UNL     1      -1.201  43.978  54.245  1.00  0.00     0.160 C 
ATOM     23  C   UNL     1       0.070  42.628  52.839  1.00  0.00     0.160 C 
ATOM     24  O   UNL     1      -0.979  42.653  53.794  1.00  0.00    -0.381 OA
ENDBRANCH  15  17
ENDBRANCH  10  15
TORSDOF 4
ENDMDL
MODEL 3
REMARK VINA RESULT:    -7.518      1.763      2.631
REMARK INTER + INTRA:         -10.112
REMARK INTER:                  -9.202
REMARK INTRA:                  -0.910
REMARK UNBOUND:                -0.835
REMARK SMILES COC(=O)[C@H]1Cc2ccccc2CN1C(=O)[C@@H]1CC12CCOCC2
REMARK SMILES IDX 5 1 6 2 7 3 8 4 9 5 10 6 11 7 12 8 13 9 14 10 3 11 4 12 2 13
REMARK SMILES IDX 1 14 15 15 16 16 17 17 18 18 19 19 20 20 24 21 21 22 23 23
REMARK SMILES IDX 22 24
REMARK H PARENT
ROOT
ATOM      1  C   UNL     1       3.545  43.201  52.122  1.00  0.00     0.199 C 
ATOM      2  C   UNL     1       3.992  42.272  50.967  1.00  0.00     0.073 C 
ATOM      3  C   UNL     1       5.364  42.642  50.485  1.00  0.00    -0.040 A 
ATOM      4  C   UNL     1       6.303  41.663  50.127  1.00  0.00     0.004 A 
ATOM      5  C   UNL     1       7.550  42.042  49.621  1.00  0.00     0.000 A 
ATOM      6  C   UNL     1       7.857  43.396  49.455  1.00  0.00     0.000 A 
ATOM      7  C   UNL     1       6.919  44.375  49.796  1.00  0.00     0.006 A 
ATOM      8  C   UNL     1       5.672  43.999  50.318  1.00  0.00    -0.025 A 
ATOM      9  C   UNL     1       4.628  45.022  50.671  1.00  0.00     0.156 C 
ATOM     10  N   UNL     1       3.926  44.618  51.905  1.00  0.00    -0.324 N 
ENDROOT
BRANCH   1  11
ATOM     11  C   UNL     1       2.060  43.086  52.330  1.00  0.00     0.328 C 
ATOM     12  O   UNL     1       1.608  42.605  53.406  1.00  0.00    -0.250 OA
BRANCH  11  13
ATOM     13  O   UNL     1       1.191  43.489  51.313  1.00  0.00    -0.467 OA
ATOM     14  C   UNL     1      -0.217  43.298  51.389  1.00  0.00     0.282 C 
ENDBRANCH  11  13
ENDBRANCH   1  11
BRANCH  10  15
ATOM     15  C   UNL     1       3.686  45.577  52.962  1.00  0.00     0.227 C 
ATOM     16  O   UNL     1       2.647  46.292  52.933  1.00  0.00    -0.275 OA
BRANCH  15  17
ATOM     17  C   UNL     1       4.634  45.713  54.126  1.00  0.00     0.085 C 
ATOM     18  C   UNL     1       4.572  47.037  54.895  1.00  0.00     0.022 C 
ATOM     19  C   UNL     1       5.763  46.744  53.991  1.00  0.00    -0.013 C 
ATOM     20  C   UNL     1       7.079  46.422  54.703  1.00  0.00     0.036 C 
ATOM     21  C   UNL     1       5.876  47.676  52.774  1.00  0.00     0.036 C 
ATOM     22  C   UNL     1       8.136  46.094  53.643  1.00  0.00     0.160 C 
ATOM     23  C   UNL     1       7.068  47.234  51.919  1.00  0.00     0.160 C 
ATOM     24  O   UNL     1       8.250  47.144  52.697  1.00  0.00    -0.381 OA
ENDBRANCH  15  17
ENDBRANCH  10  15
TORSDOF 4
ENDMDL
MODEL 4
REMARK VINA RESULT:    -7.440      1.691      5.378
REMARK INTER + INTRA:         -10.015
REMARK INTER:                  -9.340
REMARK INTRA:                  -0.675
REMARK UNBOUND:                -0.835
REMARK SMILES COC(=O)[C@H]1Cc2ccccc2CN1C(=O)[C@@H]1CC12CCOCC2
REMARK SMILES IDX 5 1 6 2 7 3 8 4 9 5 10 6 11 7 12 8 13 9 14 10 3 11 4 12 2 13
REMARK SMILES IDX 1 14 15 15 16 16 17 17 18 18 19 19 20 20 24 21 21 22 23 23
REMARK SMILES IDX 22 24
REMARK H PARENT
ROOT
ATOM      1  C   UNL     1       7.075  45.732  50.687  1.00  0.00     0.199 C 
ATOM      2  C   UNL     1       7.746  44.505  50.024  1.00  0.00     0.073 C 
ATOM      3  C   UNL     1       6.732  43.442  49.717  1.00  0.00    -0.040 A 
ATOM      4  C   UNL     1       6.791  42.695  48.531  1.00  0.00     0.004 A 
ATOM      5  C   UNL     1       5.868  41.670  48.304  1.00  0.00     0.000 A 
ATOM      6  C   UNL     1       4.896  41.376  49.265  1.00  0.00     0.000 A 
ATOM      7  C   UNL     1       4.842  42.108  50.455  1.00  0.00     0.006 A 
ATOM      8  C   UNL     1       5.757  43.148  50.680  1.00  0.00    -0.025 A 
ATOM      9  C   UNL     1       5.748  43.939  51.959  1.00  0.00     0.156 C 
ATOM     10  N   UNL     1       6.031  45.359  51.673  1.00  0.00    -0.324 N 
ENDROOT
BRANCH   1  11
ATOM     11  C   UNL     1       8.116  46.602  51.335  1.00  0.00     0.328 C 
ATOM     12  O   UNL     1       8.105  47.850  51.144  1.00  0.00    -0.250 OA
BRANCH  11  13
ATOM     13  O   UNL     1       9.110  46.014  52.122  1.00  0.00    -0.467 OA
ATOM     14  C   UNL     1       9.677  46.667  53.251  1.00  0.00     0.282 C 
ENDBRANCH  11  13
ENDBRANCH   1  11
BRANCH  10  15
ATOM     15  C   UNL     1       5.232  46.403  52.276  1.00  0.00     0.227 C 
ATOM     16  O   UNL     1       5.714  47.099  53.212  1.00  0.00    -0.275 OA
BRANCH  15  17
ATOM     17  C   UNL     1       3.842  46.710  51.780  1.00  0.00     0.085 C 
ATOM     18  C   UNL     1       2.948  47.514  52.731  1.00  0.00     0.022 C 
ATOM     19  C   UNL     1       2.674  46.031  52.508  1.00  0.00    -0.013 C 
ATOM     20  C   UNL     1       1.438  45.699  51.669  1.00  0.00     0.036 C 
ATOM     21  C   UNL     1       2.887  45.156  53.753  1.00  0.00     0.036 C 
ATOM     22  C   UNL     1       1.362  44.178  51.499  1.00  0.00     0.160 C 
ATOM     23  C   UNL     1       2.644  43.690  53.378  1.00  0.00     0.160 C 
ATOM     24  O   UNL     1       1.380  43.525  52.757  1.00  0.00    -0.381 OA
ENDBRANCH  15  17
ENDBRANCH  10  15
TORSDOF 4
ENDMDL
MODEL 5
REMARK VINA RESULT:    -7.074      3.106      6.757
REMARK INTER + INTRA:          -9.563
REMARK INTER:                  -8.848
REMARK INTRA:                  -0.716
REMARK UNBOUND:                -0.835
REMARK SMILES COC(=O)[C@H]1Cc2ccccc2CN1C(=O)[C@@H]1CC12CCOCC2
REMARK SMILES IDX 5 1 6 2 7 3 8 4 9 5 10 6 11 7 12 8 13 9 14 10 3 11 4 12 2 13
REMARK SMILES IDX 1 14 15 15 16 16 17 17 18 18 19 19 20 20 24 21 21 22 23 23
REMARK SMILES IDX 22 24
REMARK H PARENT
ROOT
ATOM      1  C   UNL     1       4.059  44.967  52.211  1.00  0.00     0.199 C 
ATOM      2  C   UNL     1       5.420  44.256  52.015  1.00  0.00     0.073 C 
ATOM      3  C   UNL     1       5.325  43.207  50.945  1.00  0.00    -0.040 A 
ATOM      4  C   UNL     1       6.366  43.002  50.028  1.00  0.00     0.004 A 
ATOM      5  C   UNL     1       6.273  41.975  49.083  1.00  0.00     0.000 A 
ATOM      6  C   UNL     1       5.152  41.141  49.063  1.00  0.00     0.000 A 
ATOM      7  C   UNL     1       4.118  41.331  49.985  1.00  0.00     0.006 A 
ATOM      8  C   UNL     1       4.200  42.371  50.924  1.00  0.00    -0.025 A 
ATOM      9  C   UNL     1       3.122  42.590  51.949  1.00  0.00     0.156 C 
ATOM     10  N   UNL     1       2.905  44.037  52.147  1.00  0.00    -0.324 N 
ENDROOT
BRANCH   1  11
ATOM     11  C   UNL     1       4.052  45.717  53.514  1.00  0.00     0.328 C 
ATOM     12  O   UNL     1       4.496  45.169  54.560  1.00  0.00    -0.250 OA
BRANCH  11  13
ATOM     13  O   UNL     1       3.523  47.010  53.559  1.00  0.00    -0.467 OA
ATOM     14  C   UNL     1       3.237  47.761  52.385  1.00  0.00     0.282 C 
ENDBRANCH  11  13
ENDBRANCH   1  11
BRANCH  10  15
ATOM     15  C   UNL     1       1.564  44.580  52.186  1.00  0.00     0.227 C 
ATOM     16  O   UNL     1       1.010  44.953  51.116  1.00  0.00    -0.275 OA
BRANCH  15  17
ATOM     17  C   UNL     1       0.794  44.672  53.478  1.00  0.00     0.085 C 
ATOM     18  C   UNL     1       1.048  43.556  54.496  1.00  0.00     0.022 C 
ATOM     19  C   UNL     1      -0.271  43.598  53.735  1.00  0.00    -0.013 C 
ATOM     20  C   UNL     1      -1.497  44.022  54.546  1.00  0.00     0.036 C 
ATOM     21  C   UNL     1      -0.485  42.416  52.776  1.00  0.00     0.036 C 
ATOM     22  C   UNL     1      -2.708  44.070  53.607  1.00  0.00     0.160 C 
ATOM     23  C   UNL     1      -1.809  42.614  52.030  1.00  0.00     0.160 C 
ATOM     24  O   UNL     1      -2.878  42.833  52.936  1.00  0.00    -0.381 OA
ENDBRANCH  15  17
ENDBRANCH  10  15
TORSDOF 4
ENDMDL
