ligand_71_conformer_4_docked
     RDKit          3D

 39 41  0  0  0  0  0  0  0  0999 V2000
    7.0140   45.6680   50.6360 C   0  0  0  0  0  0  0  0  0  0  0  0
    7.9390   46.1760   51.7120 C   0  0  0  0  0  0  0  0  0  0  0  0
    9.3260   46.0690   51.5120 C   0  0  0  0  0  0  0  0  0  0  0  0
   10.2230   46.5640   52.4600 C   0  0  0  0  0  0  0  0  0  0  0  0
    9.7470   47.1700   53.6210 C   0  0  0  0  0  0  0  0  0  0  0  0
    8.3720   47.2680   53.8480 C   0  0  0  0  0  0  0  0  0  0  0  0
    7.4530   46.7550   52.9140 C   0  0  0  0  0  0  0  0  0  0  0  0
    6.0090   46.8640   53.2150 C   0  0  0  0  0  0  0  0  0  0  0  0
    5.5260   47.9910   53.5130 O   0  0  0  0  0  0  0  0  0  0  0  0
    5.1780   45.6940   53.2400 N   0  0  0  0  0  0  0  0  0  0  0  0
    3.7490   45.7180   53.1280 C   0  0  0  0  0  0  0  0  0  0  0  0
    2.9350   45.3450   54.1370 N   0  0  0  0  0  0  0  0  0  0  0  0
    1.6190   45.3970   53.7870 C   0  0  0  0  0  0  0  0  0  0  0  0
    0.5360   45.0350   54.7410 C   0  0  0  0  0  0  0  0  0  0  0  0
    0.5440   45.5710   56.0430 C   0  0  0  0  0  0  0  0  0  0  0  0
   -0.4560   45.2380   56.9580 C   0  0  0  0  0  0  0  0  0  0  0  0
   -1.4750   44.3630   56.5910 C   0  0  0  0  0  0  0  0  0  0  0  0
   -1.5020   43.8210   55.3050 C   0  0  0  0  0  0  0  0  0  0  0  0
   -0.5030   44.1490   54.3650 C   0  0  0  0  0  0  0  0  0  0  0  0
   -0.5220   43.6270   53.0590 O   0  0  0  0  0  0  0  0  0  0  0  0
   -0.0600   42.3340   52.6730 C   0  0  0  0  0  0  0  0  0  0  0  0
    1.1070   42.4390   51.9380 F   0  0  0  0  0  0  0  0  0  0  0  0
    0.1470   41.5450   53.7910 F   0  0  0  0  0  0  0  0  0  0  0  0
    1.3880   45.8110   52.4710 C   0  0  0  0  0  0  0  0  0  0  0  0
    2.8740   46.1090   51.7440 S   0  0  0  0  0  0  0  0  0  0  0  0
    6.1400   45.1880   51.1004 H   0  0  0  0  0  0  0  0  0  0  0  0
    6.6811   46.5099   50.0111 H   0  0  0  0  0  0  0  0  0  0  0  0
    7.5458   44.9354   50.0111 H   0  0  0  0  0  0  0  0  0  0  0  0
    9.7087   45.5901   50.5987 H   0  0  0  0  0  0  0  0  0  0  0  0
   11.3063   46.4757   52.2905 H   0  0  0  0  0  0  0  0  0  0  0  0
   10.4554   47.5721   54.3603 H   0  0  0  0  0  0  0  0  0  0  0  0
    8.0043   47.7507   54.7655 H   0  0  0  0  0  0  0  0  0  0  0  0
    5.6370   44.7630   53.3590 H   0  0  0  0  0  0  0  0  0  0  0  0
    1.3475   46.2600   56.3424 H   0  0  0  0  0  0  0  0  0  0  0  0
   -0.4390   45.6675   57.9706 H   0  0  0  0  0  0  0  0  0  0  0  0
   -2.2596   44.0986   57.3153 H   0  0  0  0  0  0  0  0  0  0  0  0
   -2.3106   43.1311   55.0218 H   0  0  0  0  0  0  0  0  0  0  0  0
   -0.8287   41.8604   52.0447 H   0  0  0  0  0  0  0  0  0  0  0  0
    0.4032   45.9224   51.9939 H   0  0  0  0  0  0  0  0  0  0  0  0
  1  2  1  0
  2  3  2  0
  3  4  1  0
  4  5  2  0
  5  6  1  0
  6  7  2  0
  7  8  1  0
  8  9  2  0
  8 10  1  0
 10 11  1  0
 11 12  2  0
 12 13  1  0
 13 14  1  0
 14 15  2  0
 15 16  1  0
 16 17  2  0
 17 18  1  0
 18 19  2  0
 19 20  1  0
 20 21  1  0
 21 22  1  0
 21 23  1  0
 13 24  2  0
 24 25  1  0
  7  2  1  0
 25 11  1  0
 19 14  1  0
  1 26  1  0
  1 27  1  0
  1 28  1  0
  3 29  1  0
  4 30  1  0
  5 31  1  0
  6 32  1  0
 10 33  1  0
 15 34  1  0
 16 35  1  0
 17 36  1  0
 18 37  1  0
 21 38  1  0
 24 39  1  0
M  END
>  <meeko>  (1) 
{"is_sidechain": [false], "free_energy": -9.037, "intermolecular_energy": -11.678, "internal_energy": -0.35}

$$$$
ligand_71_conformer_4_docked
     RDKit          3D

 39 41  0  0  0  0  0  0  0  0999 V2000
    6.9660   45.7570   50.9190 C   0  0  0  0  0  0  0  0  0  0  0  0
    7.9560   46.2590   51.9380 C   0  0  0  0  0  0  0  0  0  0  0  0
    9.3260   46.2150   51.6230 C   0  0  0  0  0  0  0  0  0  0  0  0
   10.2780   46.7090   52.5160 C   0  0  0  0  0  0  0  0  0  0  0  0
    9.8770   47.2490   53.7370 C   0  0  0  0  0  0  0  0  0  0  0  0
    8.5230   47.2830   54.0760 C   0  0  0  0  0  0  0  0  0  0  0  0
    7.5500   46.7700   53.1990 C   0  0  0  0  0  0  0  0  0  0  0  0
    6.1320   46.8100   53.6190 C   0  0  0  0  0  0  0  0  0  0  0  0
    5.4540   47.8510   53.4010 O   0  0  0  0  0  0  0  0  0  0  0  0
    5.5520   45.7080   54.3320 N   0  0  0  0  0  0  0  0  0  0  0  0
    4.1410   45.4690   54.4360 C   0  0  0  0  0  0  0  0  0  0  0  0
    3.3920   45.0770   53.3850 N   0  0  0  0  0  0  0  0  0  0  0  0
    2.0720   44.9650   53.7030 C   0  0  0  0  0  0  0  0  0  0  0  0
    1.0550   44.5400   52.7040 C   0  0  0  0  0  0  0  0  0  0  0  0
   -0.1340   45.2820   52.5570 C   0  0  0  0  0  0  0  0  0  0  0  0
   -1.1060   44.8960   51.6340 C   0  0  0  0  0  0  0  0  0  0  0  0
   -0.9130   43.7630   50.8470 C   0  0  0  0  0  0  0  0  0  0  0  0
    0.2570   43.0130   50.9770 C   0  0  0  0  0  0  0  0  0  0  0  0
    1.2530   43.3900   51.9010 C   0  0  0  0  0  0  0  0  0  0  0  0
    2.4480   42.6580   52.0350 O   0  0  0  0  0  0  0  0  0  0  0  0
    3.3670   42.3670   50.9850 C   0  0  0  0  0  0  0  0  0  0  0  0
    4.2640   43.4080   50.8280 F   0  0  0  0  0  0  0  0  0  0  0  0
    4.0420   41.1880   51.2500 F   0  0  0  0  0  0  0  0  0  0  0  0
    1.7700   45.2830   55.0300 C   0  0  0  0  0  0  0  0  0  0  0  0
    3.1960   45.7170   55.8060 S   0  0  0  0  0  0  0  0  0  0  0  0
    6.0996   45.3177   51.4350 H   0  0  0  0  0  0  0  0  0  0  0  0
    6.6317   46.5945   50.2890 H   0  0  0  0  0  0  0  0  0  0  0  0
    7.4440   44.9924   50.2890 H   0  0  0  0  0  0  0  0  0  0  0  0
    9.6504   45.7869   50.6631 H   0  0  0  0  0  0  0  0  0  0  0  0
   11.3462   46.6722   52.2560 H   0  0  0  0  0  0  0  0  0  0  0  0
   10.6281   47.6488   54.4341 H   0  0  0  0  0  0  0  0  0  0  0  0
    8.2138   47.7155   55.0390 H   0  0  0  0  0  0  0  0  0  0  0  0
    6.1910   45.0400   54.8180 H   0  0  0  0  0  0  0  0  0  0  0  0
   -0.2974   46.1757   53.1771 H   0  0  0  0  0  0  0  0  0  0  0  0
   -2.0271   45.4877   51.5274 H   0  0  0  0  0  0  0  0  0  0  0  0
   -1.6831   43.4592   50.1227 H   0  0  0  0  0  0  0  0  0  0  0  0
    0.4034   42.1193   50.3526 H   0  0  0  0  0  0  0  0  0  0  0  0
    2.8022   42.2463   50.0488 H   0  0  0  0  0  0  0  0  0  0  0  0
    0.7703   45.2542   55.4880 H   0  0  0  0  0  0  0  0  0  0  0  0
  1  2  1  0
  2  3  2  0
  3  4  1  0
  4  5  2  0
  5  6  1  0
  6  7  2  0
  7  8  1  0
  8  9  2  0
  8 10  1  0
 10 11  1  0
 11 12  2  0
 12 13  1  0
 13 14  1  0
 14 15  2  0
 15 16  1  0
 16 17  2  0
 17 18  1  0
 18 19  2  0
 19 20  1  0
 20 21  1  0
 21 22  1  0
 21 23  1  0
 13 24  2  0
 24 25  1  0
  7  2  1  0
 25 11  1  0
 19 14  1  0
  1 26  1  0
  1 27  1  0
  1 28  1  0
  3 29  1  0
  4 30  1  0
  5 31  1  0
  6 32  1  0
 10 33  1  0
 15 34  1  0
 16 35  1  0
 17 36  1  0
 18 37  1  0
 21 38  1  0
 24 39  1  0
M  END
>  <meeko>  (2) 
{"is_sidechain": [false], "free_energy": -8.947, "intermolecular_energy": -11.153, "internal_energy": -0.76}

$$$$
ligand_71_conformer_4_docked
     RDKit          3D

 39 41  0  0  0  0  0  0  0  0999 V2000
    1.0250   43.0980   53.1630 C   0  0  0  0  0  0  0  0  0  0  0  0
    0.2960   43.8120   54.2710 C   0  0  0  0  0  0  0  0  0  0  0  0
   -1.0300   43.4370   54.5540 C   0  0  0  0  0  0  0  0  0  0  0  0
   -1.7320   44.0390   55.5990 C   0  0  0  0  0  0  0  0  0  0  0  0
   -1.1240   45.0260   56.3720 C   0  0  0  0  0  0  0  0  0  0  0  0
    0.1850   45.4270   56.0940 C   0  0  0  0  0  0  0  0  0  0  0  0
    0.9010   44.8470   55.0310 C   0  0  0  0  0  0  0  0  0  0  0  0
    2.2760   45.3260   54.7650 C   0  0  0  0  0  0  0  0  0  0  0  0
    3.1910   45.0590   55.5900 O   0  0  0  0  0  0  0  0  0  0  0  0
    2.5540   46.1460   53.6200 N   0  0  0  0  0  0  0  0  0  0  0  0
    3.8610   46.3300   53.0590 C   0  0  0  0  0  0  0  0  0  0  0  0
    4.4050   45.4580   52.1860 N   0  0  0  0  0  0  0  0  0  0  0  0
    5.6740   45.8060   51.8300 C   0  0  0  0  0  0  0  0  0  0  0  0
    6.4730   44.9960   50.8720 C   0  0  0  0  0  0  0  0  0  0  0  0
    5.8880   43.8800   50.2420 C   0  0  0  0  0  0  0  0  0  0  0  0
    6.6220   43.1000   49.3470 C   0  0  0  0  0  0  0  0  0  0  0  0
    7.9490   43.4160   49.0700 C   0  0  0  0  0  0  0  0  0  0  0  0
    8.5490   44.5170   49.6840 C   0  0  0  0  0  0  0  0  0  0  0  0
    7.8220   45.3200   50.5870 C   0  0  0  0  0  0  0  0  0  0  0  0
    8.4020   46.4450   51.2030 O   0  0  0  0  0  0  0  0  0  0  0  0
    9.5580   46.4320   52.0380 C   0  0  0  0  0  0  0  0  0  0  0  0
   10.7070   46.3830   51.2690 F   0  0  0  0  0  0  0  0  0  0  0  0
    9.5740   47.5510   52.8530 F   0  0  0  0  0  0  0  0  0  0  0  0
    6.1450   46.9720   52.4410 C   0  0  0  0  0  0  0  0  0  0  0  0
    4.9370   47.5640   53.4490 S   0  0  0  0  0  0  0  0  0  0  0  0
    1.7475   42.3904   53.5958 H   0  0  0  0  0  0  0  0  0  0  0  0
    0.3015   42.5494   52.5420 H   0  0  0  0  0  0  0  0  0  0  0  0
    1.5584   43.8327   52.5420 H   0  0  0  0  0  0  0  0  0  0  0  0
   -1.5183   42.6616   53.9455 H   0  0  0  0  0  0  0  0  0  0  0  0
   -2.7670   43.7339   55.8128 H   0  0  0  0  0  0  0  0  0  0  0  0
   -1.6757   45.4903   57.2027 H   0  0  0  0  0  0  0  0  0  0  0  0
    0.6601   46.2032   56.7118 H   0  0  0  0  0  0  0  0  0  0  0  0
    1.7600   46.6530   53.1690 H   0  0  0  0  0  0  0  0  0  0  0  0
    4.8411   43.6204   50.4578 H   0  0  0  0  0  0  0  0  0  0  0  0
    6.1508   42.2338   48.8595 H   0  0  0  0  0  0  0  0  0  0  0  0
    8.5256   42.7975   48.3665 H   0  0  0  0  0  0  0  0  0  0  0  0
    9.5984   44.7603   49.4614 H   0  0  0  0  0  0  0  0  0  0  0  0
    9.5219   45.5342   52.6725 H   0  0  0  0  0  0  0  0  0  0  0  0
    7.1360   47.4244   52.2883 H   0  0  0  0  0  0  0  0  0  0  0  0
  1  2  1  0
  2  3  2  0
  3  4  1  0
  4  5  2  0
  5  6  1  0
  6  7  2  0
  7  8  1  0
  8  9  2  0
  8 10  1  0
 10 11  1  0
 11 12  2  0
 12 13  1  0
 13 14  1  0
 14 15  2  0
 15 16  1  0
 16 17  2  0
 17 18  1  0
 18 19  2  0
 19 20  1  0
 20 21  1  0
 21 22  1  0
 21 23  1  0
 13 24  2  0
 24 25  1  0
  7  2  1  0
 25 11  1  0
 19 14  1  0
  1 26  1  0
  1 27  1  0
  1 28  1  0
  3 29  1  0
  4 30  1  0
  5 31  1  0
  6 32  1  0
 10 33  1  0
 15 34  1  0
 16 35  1  0
 17 36  1  0
 18 37  1  0
 21 38  1  0
 24 39  1  0
M  END
>  <meeko>  (3) 
{"is_sidechain": [false], "free_energy": -8.631, "intermolecular_energy": -11.613, "internal_energy": 0.108}

$$$$
ligand_71_conformer_4_docked
     RDKit          3D

 39 41  0  0  0  0  0  0  0  0999 V2000
    7.7720   45.5900   50.3250 C   0  0  0  0  0  0  0  0  0  0  0  0
    8.1560   46.1400   51.6740 C   0  0  0  0  0  0  0  0  0  0  0  0
    9.5040   46.4620   51.9100 C   0  0  0  0  0  0  0  0  0  0  0  0
    9.9020   47.0140   53.1280 C   0  0  0  0  0  0  0  0  0  0  0  0
    8.9600   47.2500   54.1290 C   0  0  0  0  0  0  0  0  0  0  0  0
    7.6200   46.9190   53.9210 C   0  0  0  0  0  0  0  0  0  0  0  0
    7.2040   46.3400   52.7080 C   0  0  0  0  0  0  0  0  0  0  0  0
    5.7750   45.9880   52.5500 C   0  0  0  0  0  0  0  0  0  0  0  0
    4.9820   46.8350   52.0570 O   0  0  0  0  0  0  0  0  0  0  0  0
    5.2810   44.7240   53.0180 N   0  0  0  0  0  0  0  0  0  0  0  0
    4.0520   44.1270   52.5790 C   0  0  0  0  0  0  0  0  0  0  0  0
    2.8460   44.6610   52.8600 N   0  0  0  0  0  0  0  0  0  0  0  0
    1.8200   43.8960   52.3910 C   0  0  0  0  0  0  0  0  0  0  0  0
    0.3970   44.2880   52.5760 C   0  0  0  0  0  0  0  0  0  0  0  0
   -0.4060   44.5610   51.4510 C   0  0  0  0  0  0  0  0  0  0  0  0
   -1.7400   44.9400   51.6010 C   0  0  0  0  0  0  0  0  0  0  0  0
   -2.2940   45.0590   52.8740 C   0  0  0  0  0  0  0  0  0  0  0  0
   -1.5160   44.7950   54.0020 C   0  0  0  0  0  0  0  0  0  0  0  0
   -0.1670   44.4050   53.8700 C   0  0  0  0  0  0  0  0  0  0  0  0
    0.6290   44.1170   54.9940 O   0  0  0  0  0  0  0  0  0  0  0  0
    1.0830   45.0660   55.9570 C   0  0  0  0  0  0  0  0  0  0  0  0
    0.5920   44.7510   57.2110 F   0  0  0  0  0  0  0  0  0  0  0  0
    2.4660   45.1030   55.9790 F   0  0  0  0  0  0  0  0  0  0  0  0
    2.2240   42.7300   51.7340 C   0  0  0  0  0  0  0  0  0  0  0  0
    3.9030   42.6680   51.7540 S   0  0  0  0  0  0  0  0  0  0  0  0
    7.1469   44.6947   50.4584 H   0  0  0  0  0  0  0  0  0  0  0  0
    7.2079   46.3510   49.7658 H   0  0  0  0  0  0  0  0  0  0  0  0
    8.6808   45.3227   49.7658 H   0  0  0  0  0  0  0  0  0  0  0  0
   10.2530   46.2768   51.1260 H   0  0  0  0  0  0  0  0  0  0  0  0
   10.9597   47.2633   53.2989 H   0  0  0  0  0  0  0  0  0  0  0  0
    9.2734   47.6976   55.0837 H   0  0  0  0  0  0  0  0  0  0  0  0
    6.8819   47.1127   54.7133 H   0  0  0  0  0  0  0  0  0  0  0  0
    5.8400   44.2070   53.7320 H   0  0  0  0  0  0  0  0  0  0  0  0
    0.0242   44.4742   50.4423 H   0  0  0  0  0  0  0  0  0  0  0  0
   -2.3557   45.1453   50.7129 H   0  0  0  0  0  0  0  0  0  0  0  0
   -3.3453   45.3612   52.9899 H   0  0  0  0  0  0  0  0  0  0  0  0
   -1.9592   44.8920   55.0041 H   0  0  0  0  0  0  0  0  0  0  0  0
    0.7086   46.0606   55.6730 H   0  0  0  0  0  0  0  0  0  0  0  0
    1.5570   41.9814   51.2815 H   0  0  0  0  0  0  0  0  0  0  0  0
  1  2  1  0
  2  3  2  0
  3  4  1  0
  4  5  2  0
  5  6  1  0
  6  7  2  0
  7  8  1  0
  8  9  2  0
  8 10  1  0
 10 11  1  0
 11 12  2  0
 12 13  1  0
 13 14  1  0
 14 15  2  0
 15 16  1  0
 16 17  2  0
 17 18  1  0
 18 19  2  0
 19 20  1  0
 20 21  1  0
 21 22  1  0
 21 23  1  0
 13 24  2  0
 24 25  1  0
  7  2  1  0
 25 11  1  0
 19 14  1  0
  1 26  1  0
  1 27  1  0
  1 28  1  0
  3 29  1  0
  4 30  1  0
  5 31  1  0
  6 32  1  0
 10 33  1  0
 15 34  1  0
 16 35  1  0
 17 36  1  0
 18 37  1  0
 21 38  1  0
 24 39  1  0
M  END
>  <meeko>  (4) 
{"is_sidechain": [false], "free_energy": -8.484, "intermolecular_energy": -10.673, "internal_energy": -0.641}

$$$$
ligand_71_conformer_4_docked
     RDKit          3D

 39 41  0  0  0  0  0  0  0  0999 V2000
    0.1860   43.4660   53.5140 C   0  0  0  0  0  0  0  0  0  0  0  0
   -0.0680   44.2460   54.7770 C   0  0  0  0  0  0  0  0  0  0  0  0
   -1.3260   44.1340   55.3960 C   0  0  0  0  0  0  0  0  0  0  0  0
   -1.5940   44.8030   56.5910 C   0  0  0  0  0  0  0  0  0  0  0  0
   -0.6120   45.5970   57.1820 C   0  0  0  0  0  0  0  0  0  0  0  0
    0.6360   45.7380   56.5720 C   0  0  0  0  0  0  0  0  0  0  0  0
    0.9170   45.0890   55.3560 C   0  0  0  0  0  0  0  0  0  0  0  0
    2.2480   45.2920   54.7410 C   0  0  0  0  0  0  0  0  0  0  0  0
    3.2620   44.7720   55.2810 O   0  0  0  0  0  0  0  0  0  0  0  0
    2.3970   46.1300   53.5850 N   0  0  0  0  0  0  0  0  0  0  0  0
    3.5220   46.0850   52.6970 C   0  0  0  0  0  0  0  0  0  0  0  0
    4.7880   46.2820   53.1190 N   0  0  0  0  0  0  0  0  0  0  0  0
    5.6860   46.2480   52.0950 C   0  0  0  0  0  0  0  0  0  0  0  0
    7.1450   46.4340   52.3210 C   0  0  0  0  0  0  0  0  0  0  0  0
    7.5990   47.0110   53.5230 C   0  0  0  0  0  0  0  0  0  0  0  0
    8.9610   47.2050   53.7520 C   0  0  0  0  0  0  0  0  0  0  0  0
    9.8920   46.8330   52.7860 C   0  0  0  0  0  0  0  0  0  0  0  0
    9.4640   46.2600   51.5860 C   0  0  0  0  0  0  0  0  0  0  0  0
    8.0920   46.0520   51.3390 C   0  0  0  0  0  0  0  0  0  0  0  0
    7.6410   45.4600   50.1450 O   0  0  0  0  0  0  0  0  0  0  0  0
    7.9890   44.1590   49.6780 C   0  0  0  0  0  0  0  0  0  0  0  0
    6.8530   43.4560   49.3200 F   0  0  0  0  0  0  0  0  0  0  0  0
    8.8550   44.2510   48.6020 F   0  0  0  0  0  0  0  0  0  0  0  0
    5.1180   46.0290   50.8360 C   0  0  0  0  0  0  0  0  0  0  0  0
    3.4540   45.8810   51.0280 S   0  0  0  0  0  0  0  0  0  0  0  0
    0.5171   42.4491   53.7714 H   0  0  0  0  0  0  0  0  0  0  0  0
   -0.7408   43.4115   52.9241 H   0  0  0  0  0  0  0  0  0  0  0  0
    0.9672   43.9677   52.9241 H   0  0  0  0  0  0  0  0  0  0  0  0
   -2.1068   43.5125   54.9333 H   0  0  0  0  0  0  0  0  0  0  0  0
   -2.5807   44.7039   57.0670 H   0  0  0  0  0  0  0  0  0  0  0  0
   -0.8209   46.1133   58.1306 H   0  0  0  0  0  0  0  0  0  0  0  0
    1.4069   46.3626   57.0469 H   0  0  0  0  0  0  0  0  0  0  0  0
    1.6470   46.8270   53.3790 H   0  0  0  0  0  0  0  0  0  0  0  0
    6.8706   47.3122   54.2903 H   0  0  0  0  0  0  0  0  0  0  0  0
    9.3003   47.6528   54.6977 H   0  0  0  0  0  0  0  0  0  0  0  0
   10.9654   46.9904   52.9678 H   0  0  0  0  0  0  0  0  0  0  0  0
   10.2046   45.9684   50.8268 H   0  0  0  0  0  0  0  0  0  0  0  0
    8.4942   43.6182   50.4918 H   0  0  0  0  0  0  0  0  0  0  0  0
    5.6654   45.9646   49.8841 H   0  0  0  0  0  0  0  0  0  0  0  0
  1  2  1  0
  2  3  2  0
  3  4  1  0
  4  5  2  0
  5  6  1  0
  6  7  2  0
  7  8  1  0
  8  9  2  0
  8 10  1  0
 10 11  1  0
 11 12  2  0
 12 13  1  0
 13 14  1  0
 14 15  2  0
 15 16  1  0
 16 17  2  0
 17 18  1  0
 18 19  2  0
 19 20  1  0
 20 21  1  0
 21 22  1  0
 21 23  1  0
 13 24  2  0
 24 25  1  0
  7  2  1  0
 25 11  1  0
 19 14  1  0
  1 26  1  0
  1 27  1  0
  1 28  1  0
  3 29  1  0
  4 30  1  0
  5 31  1  0
  6 32  1  0
 10 33  1  0
 15 34  1  0
 16 35  1  0
 17 36  1  0
 18 37  1  0
 21 38  1  0
 24 39  1  0
M  END
>  <meeko>  (5) 
{"is_sidechain": [false], "free_energy": -8.462, "intermolecular_energy": -11.447, "internal_energy": 0.162}

$$$$
