MODEL 1
REMARK VINA RESULT:    -8.581      0.000      0.000
REMARK INTER + INTRA:         -12.030
REMARK INTER:                 -11.089
REMARK INTRA:                  -0.941
REMARK UNBOUND:                -0.941
REMARK SMILES O=C1CCC(=O)N1c1ccc(S(=O)(=O)NC[C@@H]2CCOC2)cn1
REMARK SMILES IDX 12 1 13 2 14 3 11 4 8 5 9 6 23 7 10 8 22 9 7 10 1 11 2 12
REMARK SMILES IDX 3 13 4 14 5 15 6 16 15 17 16 19 17 20 18 21 21 22 19 23
REMARK SMILES IDX 20 24
REMARK H PARENT 15 18
ROOT
ATOM      1  S   UNL     1       2.069  44.195  53.090  1.00  0.00     0.242 S 
ATOM      2  O   UNL     1       1.134  45.074  52.308  1.00  0.00    -0.207 OA
ATOM      3  O   UNL     1       1.591  44.142  54.515  1.00  0.00    -0.207 OA
ENDROOT
BRANCH   1   4
ATOM      4  C   UNL     1       3.692  44.877  53.023  1.00  0.00     0.100 A 
ATOM      5  C   UNL     1       6.276  45.917  52.901  1.00  0.00     0.142 A 
ATOM      6  C   UNL     1       5.278  46.428  52.055  1.00  0.00     0.049 A 
ATOM      7  N   UNL     1       5.966  44.903  53.756  1.00  0.00    -0.237 NA
ATOM      8  C   UNL     1       3.985  45.904  52.121  1.00  0.00     0.027 A 
ATOM      9  C   UNL     1       4.714  44.380  53.837  1.00  0.00     0.135 A 
BRANCH   5  10
ATOM     10  N   UNL     1       7.622  46.423  52.856  1.00  0.00    -0.234 N 
ATOM     11  O   UNL     1       8.301  45.575  50.763  1.00  0.00    -0.274 OA
ATOM     12  C   UNL     1       8.571  46.193  51.827  1.00  0.00     0.235 C 
ATOM     13  C   UNL     1       9.913  46.776  52.119  1.00  0.00     0.111 C 
ATOM     14  C   UNL     1       9.741  47.428  53.505  1.00  0.00     0.111 C 
ATOM     15  C   UNL     1       8.324  47.130  53.868  1.00  0.00     0.235 C 
ATOM     16  O   UNL     1       7.822  47.427  54.985  1.00  0.00    -0.274 OA
ENDBRANCH   5  10
ENDBRANCH   1   4
BRANCH   1  17
ATOM     17  N   UNL     1       2.054  42.596  52.409  1.00  0.00    -0.211 NA
ATOM     18  H   UNL     1       1.061  42.268  52.428  1.00  0.00     0.141 HD
BRANCH  17  19
ATOM     19  C   UNL     1       2.492  42.647  51.012  1.00  0.00     0.105 C 
BRANCH  19  20
ATOM     20  C   UNL     1       3.769  41.809  50.827  1.00  0.00     0.032 C 
ATOM     21  C   UNL     1       5.001  42.639  50.602  1.00  0.00     0.036 C 
ATOM     22  C   UNL     1       3.730  40.944  49.579  1.00  0.00     0.165 C 
ATOM     23  C   UNL     1       5.858  41.738  49.733  1.00  0.00     0.160 C 
ATOM     24  O   UNL     1       5.046  40.770  49.106  1.00  0.00    -0.381 OA
ENDBRANCH  19  20
ENDBRANCH  17  19
ENDBRANCH   1  17
TORSDOF 5
ENDMDL
MODEL 2
REMARK VINA RESULT:    -8.076      2.374      4.241
REMARK INTER + INTRA:         -11.378
REMARK INTER:                 -10.838
REMARK INTRA:                  -0.539
REMARK UNBOUND:                -0.941
REMARK SMILES O=C1CCC(=O)N1c1ccc(S(=O)(=O)NC[C@@H]2CCOC2)cn1
REMARK SMILES IDX 12 1 13 2 14 3 11 4 8 5 9 6 23 7 10 8 22 9 7 10 1 11 2 12
REMARK SMILES IDX 3 13 4 14 5 15 6 16 15 17 16 19 17 20 18 21 21 22 19 23
REMARK SMILES IDX 20 24
REMARK H PARENT 15 18
ROOT
ATOM      1  S   UNL     1       2.149  43.877  52.216  1.00  0.00     0.242 S 
ATOM      2  O   UNL     1       2.264  42.703  51.284  1.00  0.00    -0.207 OA
ATOM      3  O   UNL     1       1.165  44.852  51.632  1.00  0.00    -0.207 OA
ENDROOT
BRANCH   1   4
ATOM      4  C   UNL     1       3.730  44.639  52.378  1.00  0.00     0.100 A 
ATOM      5  C   UNL     1       6.251  45.803  52.627  1.00  0.00     0.142 A 
ATOM      6  C   UNL     1       5.422  46.157  51.549  1.00  0.00     0.049 A 
ATOM      7  N   UNL     1       5.812  44.878  53.525  1.00  0.00    -0.237 NA
ATOM      8  C   UNL     1       4.161  45.571  51.430  1.00  0.00     0.027 A 
ATOM      9  C   UNL     1       4.587  44.297  53.428  1.00  0.00     0.135 A 
BRANCH   5  10
ATOM     10  N   UNL     1       7.561  46.377  52.780  1.00  0.00    -0.234 N 
ATOM     11  O   UNL     1       8.579  45.586  50.805  1.00  0.00    -0.274 OA
ATOM     12  C   UNL     1       8.660  46.206  51.899  1.00  0.00     0.235 C 
ATOM     13  C   UNL     1       9.914  46.853  52.385  1.00  0.00     0.111 C 
ATOM     14  C   UNL     1       9.509  47.481  53.733  1.00  0.00     0.111 C 
ATOM     15  C   UNL     1       8.072  47.109  53.886  1.00  0.00     0.235 C 
ATOM     16  O   UNL     1       7.399  47.368  54.919  1.00  0.00    -0.274 OA
ENDBRANCH   5  10
ENDBRANCH   1   4
BRANCH   1  17
ATOM     17  N   UNL     1       1.580  43.326  53.762  1.00  0.00    -0.211 NA
ATOM     18  H   UNL     1       2.152  43.817  54.488  1.00  0.00     0.141 HD
BRANCH  17  19
ATOM     19  C   UNL     1       0.179  43.716  53.944  1.00  0.00     0.105 C 
BRANCH  19  20
ATOM     20  C   UNL     1       0.072  44.828  55.001  1.00  0.00     0.032 C 
ATOM     21  C   UNL     1       1.319  44.994  55.822  1.00  0.00     0.036 C 
ATOM     22  C   UNL     1      -0.975  44.534  56.061  1.00  0.00     0.165 C 
ATOM     23  C   UNL     1       0.781  45.484  57.154  1.00  0.00     0.160 C 
ATOM     24  O   UNL     1      -0.583  45.144  57.269  1.00  0.00    -0.381 OA
ENDBRANCH  19  20
ENDBRANCH  17  19
ENDBRANCH   1  17
TORSDOF 5
ENDMDL
MODEL 3
REMARK VINA RESULT:    -8.025      2.962      5.080
REMARK INTER + INTRA:         -11.312
REMARK INTER:                 -10.667
REMARK INTRA:                  -0.645
REMARK UNBOUND:                -0.941
REMARK SMILES O=C1CCC(=O)N1c1ccc(S(=O)(=O)NC[C@@H]2CCOC2)cn1
REMARK SMILES IDX 12 1 13 2 14 3 11 4 8 5 9 6 23 7 10 8 22 9 7 10 1 11 2 12
REMARK SMILES IDX 3 13 4 14 5 15 6 16 15 17 16 19 17 20 18 21 21 22 19 23
REMARK SMILES IDX 20 24
REMARK H PARENT 15 18
ROOT
ATOM      1  S   UNL     1       1.729  44.962  53.099  1.00  0.00     0.242 S 
ATOM      2  O   UNL     1       1.658  43.463  53.188  1.00  0.00    -0.207 OA
ATOM      3  O   UNL     1       1.026  45.396  51.843  1.00  0.00    -0.207 OA
ENDROOT
BRANCH   1   4
ATOM      4  C   UNL     1       3.419  45.457  53.046  1.00  0.00     0.100 A 
ATOM      5  C   UNL     1       6.099  46.216  52.922  1.00  0.00     0.142 A 
ATOM      6  C   UNL     1       5.092  47.189  52.807  1.00  0.00     0.049 A 
ATOM      7  N   UNL     1       5.745  44.909  53.073  1.00  0.00    -0.237 NA
ATOM      8  C   UNL     1       3.752  46.803  52.871  1.00  0.00     0.027 A 
ATOM      9  C   UNL     1       4.447  44.513  53.138  1.00  0.00     0.135 A 
BRANCH   5  10
ATOM     10  N   UNL     1       7.491  46.572  52.852  1.00  0.00    -0.234 N 
ATOM     11  O   UNL     1       8.002  45.774  50.693  1.00  0.00    -0.274 OA
ATOM     12  C   UNL     1       8.374  46.298  51.777  1.00  0.00     0.235 C 
ATOM     13  C   UNL     1       9.782  46.711  52.047  1.00  0.00     0.111 C 
ATOM     14  C   UNL     1       9.729  47.299  53.471  1.00  0.00     0.111 C 
ATOM     15  C   UNL     1       8.301  47.139  53.873  1.00  0.00     0.235 C 
ATOM     16  O   UNL     1       7.872  47.425  55.022  1.00  0.00    -0.274 OA
ENDBRANCH   5  10
ENDBRANCH   1   4
BRANCH   1  17
ATOM     17  N   UNL     1       0.937  45.655  54.481  1.00  0.00    -0.211 NA
ATOM     18  H   UNL     1      -0.077  45.408  54.405  1.00  0.00     0.141 HD
BRANCH  17  19
ATOM     19  C   UNL     1       1.462  45.053  55.709  1.00  0.00     0.105 C 
BRANCH  19  20
ATOM     20  C   UNL     1       0.476  45.268  56.869  1.00  0.00     0.032 C 
ATOM     21  C   UNL     1      -0.894  45.692  56.419  1.00  0.00     0.036 C 
ATOM     22  C   UNL     1       0.882  46.409  57.785  1.00  0.00     0.165 C 
ATOM     23  C   UNL     1      -1.382  46.537  57.580  1.00  0.00     0.160 C 
ATOM     24  O   UNL     1      -0.280  46.981  58.341  1.00  0.00    -0.381 OA
ENDBRANCH  19  20
ENDBRANCH  17  19
ENDBRANCH   1  17
TORSDOF 5
ENDMDL
MODEL 4
REMARK VINA RESULT:    -7.666      2.245      2.982
REMARK INTER + INTRA:         -10.847
REMARK INTER:                 -10.097
REMARK INTRA:                  -0.751
REMARK UNBOUND:                -0.941
REMARK SMILES O=C1CCC(=O)N1c1ccc(S(=O)(=O)NC[C@@H]2CCOC2)cn1
REMARK SMILES IDX 12 1 13 2 14 3 11 4 8 5 9 6 23 7 10 8 22 9 7 10 1 11 2 12
REMARK SMILES IDX 3 13 4 14 5 15 6 16 15 17 16 19 17 20 18 21 21 22 19 23
REMARK SMILES IDX 20 24
REMARK H PARENT 15 18
ROOT
ATOM      1  S   UNL     1       2.038  44.930  54.399  1.00  0.00     0.242 S 
ATOM      2  O   UNL     1       1.072  45.807  53.652  1.00  0.00    -0.207 OA
ATOM      3  O   UNL     1       1.776  45.082  55.872  1.00  0.00    -0.207 OA
ENDROOT
BRANCH   1   4
ATOM      4  C   UNL     1       3.683  45.436  54.023  1.00  0.00     0.100 A 
ATOM      5  C   UNL     1       6.290  46.200  53.397  1.00  0.00     0.142 A 
ATOM      6  C   UNL     1       5.217  47.041  53.060  1.00  0.00     0.049 A 
ATOM      7  N   UNL     1       6.035  45.010  54.010  1.00  0.00    -0.237 NA
ATOM      8  C   UNL     1       3.914  46.653  53.377  1.00  0.00     0.027 A 
ATOM      9  C   UNL     1       4.774  44.615  54.327  1.00  0.00     0.135 A 
BRANCH   5  10
ATOM     10  N   UNL     1       7.647  46.559  53.080  1.00  0.00    -0.234 N 
ATOM     11  O   UNL     1       7.819  45.614  50.926  1.00  0.00    -0.274 OA
ATOM     12  C   UNL     1       8.351  46.215  51.897  1.00  0.00     0.235 C 
ATOM     13  C   UNL     1       9.777  46.655  51.909  1.00  0.00     0.111 C 
ATOM     14  C   UNL     1       9.942  47.341  53.279  1.00  0.00     0.111 C 
ATOM     15  C   UNL     1       8.600  47.201  53.915  1.00  0.00     0.235 C 
ATOM     16  O   UNL     1       8.356  47.565  55.097  1.00  0.00    -0.274 OA
ENDBRANCH   5  10
ENDBRANCH   1   4
BRANCH   1  17
ATOM     17  N   UNL     1       1.789  43.276  53.929  1.00  0.00    -0.211 NA
ATOM     18  H   UNL     1       0.798  43.039  54.168  1.00  0.00     0.141 HD
BRANCH  17  19
ATOM     19  C   UNL     1       1.954  43.141  52.479  1.00  0.00     0.105 C 
BRANCH  19  20
ATOM     20  C   UNL     1       0.658  42.606  51.846  1.00  0.00     0.032 C 
ATOM     21  C   UNL     1      -0.146  43.665  51.146  1.00  0.00     0.036 C 
ATOM     22  C   UNL     1      -0.327  42.080  52.875  1.00  0.00     0.165 C 
ATOM     23  C   UNL     1      -1.570  43.165  51.306  1.00  0.00     0.160 C 
ATOM     24  O   UNL     1      -1.635  42.255  52.382  1.00  0.00    -0.381 OA
ENDBRANCH  19  20
ENDBRANCH  17  19
ENDBRANCH   1  17
TORSDOF 5
ENDMDL
MODEL 5
REMARK VINA RESULT:    -7.357      2.705      5.910
REMARK INTER + INTRA:         -10.448
REMARK INTER:                  -9.454
REMARK INTRA:                  -0.995
REMARK UNBOUND:                -0.941
REMARK SMILES O=C1CCC(=O)N1c1ccc(S(=O)(=O)NC[C@@H]2CCOC2)cn1
REMARK SMILES IDX 12 1 13 2 14 3 11 4 8 5 9 6 23 7 10 8 22 9 7 10 1 11 2 12
REMARK SMILES IDX 3 13 4 14 5 15 6 16 15 17 16 19 17 20 18 21 21 22 19 23
REMARK SMILES IDX 20 24
REMARK H PARENT 15 18
ROOT
ATOM      1  S   UNL     1       8.019  47.257  53.177  1.00  0.00     0.242 S 
ATOM      2  O   UNL     1       8.855  47.270  54.426  1.00  0.00    -0.207 OA
ATOM      3  O   UNL     1       7.850  48.674  52.704  1.00  0.00    -0.207 OA
ENDROOT
BRANCH   1   4
ATOM      4  C   UNL     1       6.446  46.553  53.546  1.00  0.00     0.100 A 
ATOM      5  C   UNL     1       3.950  45.432  54.083  1.00  0.00     0.142 A 
ATOM      6  C   UNL     1       5.116  44.776  54.510  1.00  0.00     0.049 A 
ATOM      7  N   UNL     1       4.061  46.601  53.393  1.00  0.00    -0.237 NA
ATOM      8  C   UNL     1       6.363  45.342  54.239  1.00  0.00     0.027 A 
ATOM      9  C   UNL     1       5.266  47.170  53.120  1.00  0.00     0.135 A 
BRANCH   5  10
ATOM     10  N   UNL     1       2.647  44.876  54.335  1.00  0.00    -0.234 N 
ATOM     11  O   UNL     1       2.391  43.560  52.395  1.00  0.00    -0.274 OA
ATOM     12  C   UNL     1       1.921  44.017  53.471  1.00  0.00     0.235 C 
ATOM     13  C   UNL     1       0.555  43.689  53.974  1.00  0.00     0.111 C 
ATOM     14  C   UNL     1       0.455  44.461  55.305  1.00  0.00     0.111 C 
ATOM     15  C   UNL     1       1.765  45.167  55.410  1.00  0.00     0.235 C 
ATOM     16  O   UNL     1       2.037  45.983  56.331  1.00  0.00    -0.274 OA
ENDBRANCH   5  10
ENDBRANCH   1   4
BRANCH   1  17
ATOM     17  N   UNL     1       8.829  46.325  51.955  1.00  0.00    -0.211 NA
ATOM     18  H   UNL     1       9.027  45.386  52.373  1.00  0.00     0.141 HD
BRANCH  17  19
ATOM     19  C   UNL     1       7.942  46.135  50.805  1.00  0.00     0.105 C 
BRANCH  19  20
ATOM     20  C   UNL     1       7.578  44.649  50.656  1.00  0.00     0.032 C 
ATOM     21  C   UNL     1       8.036  44.048  49.357  1.00  0.00     0.036 C 
ATOM     22  C   UNL     1       6.079  44.411  50.611  1.00  0.00     0.165 C 
ATOM     23  C   UNL     1       6.993  42.977  49.097  1.00  0.00     0.160 C 
ATOM     24  O   UNL     1       5.824  43.264  49.833  1.00  0.00    -0.381 OA
ENDBRANCH  19  20
ENDBRANCH  17  19
ENDBRANCH   1  17
TORSDOF 5
ENDMDL
