ligand_35_conformer_2_docked
     RDKit          3D

 41 43  0  0  0  0  0  0  0  0999 V2000
   10.1520   47.2400   54.4750 C   0  0  0  0  0  0  0  0  0  0  0  0
    9.2750   47.5760   53.4050 O   0  0  0  0  0  0  0  0  0  0  0  0
    7.9230   47.2080   53.3440 C   0  0  0  0  0  0  0  0  0  0  0  0
    7.1970   47.1930   52.1370 C   0  0  0  0  0  0  0  0  0  0  0  0
    5.8500   46.8180   52.1290 C   0  0  0  0  0  0  0  0  0  0  0  0
    5.2050   46.4560   53.3230 C   0  0  0  0  0  0  0  0  0  0  0  0
    3.7830   46.0580   53.3080 C   0  0  0  0  0  0  0  0  0  0  0  0
    3.2790   45.0420   54.0420 N   0  0  0  0  0  0  0  0  0  0  0  0
    1.9730   45.0480   53.7150 C   0  0  0  0  0  0  0  0  0  0  0  0
    0.9790   44.0420   54.2110 C   0  0  0  0  0  0  0  0  0  0  0  0
    1.1450   42.6960   53.5010 C   0  0  0  0  0  0  0  0  0  0  0  0
    2.4640   42.6000   52.8710 N   0  0  0  0  0  0  0  0  0  0  0  0
    2.6490   42.6830   51.4480 C   0  0  0  0  0  0  0  0  0  0  0  0
    1.6510   42.8610   50.6960 O   0  0  0  0  0  0  0  0  0  0  0  0
    3.9930   42.5360   50.8410 C   0  0  0  0  0  0  0  0  0  0  0  0
    4.3800   41.3100   50.2700 C   0  0  0  0  0  0  0  0  0  0  0  0
    5.6130   41.1700   49.7120 N   0  0  0  0  0  0  0  0  0  0  0  0
    6.5030   42.1950   49.6800 C   0  0  0  0  0  0  0  0  0  0  0  0
    6.1620   43.4340   50.2250 C   0  0  0  0  0  0  0  0  0  0  0  0
    7.0430   44.4630   50.1850 F   0  0  0  0  0  0  0  0  0  0  0  0
    4.9030   43.6050   50.8040 C   0  0  0  0  0  0  0  0  0  0  0  0
    1.7310   46.0430   52.7960 C   0  0  0  0  0  0  0  0  0  0  0  0
    2.8680   46.6520   52.5700 O   0  0  0  0  0  0  0  0  0  0  0  0
    5.9310   46.4730   54.5250 C   0  0  0  0  0  0  0  0  0  0  0  0
    7.2780   46.8460   54.5320 C   0  0  0  0  0  0  0  0  0  0  0  0
    9.6500   47.4323   55.4347 H   0  0  0  0  0  0  0  0  0  0  0  0
   10.4205   46.1753   54.4085 H   0  0  0  0  0  0  0  0  0  0  0  0
   11.0631   47.8527   54.4085 H   0  0  0  0  0  0  0  0  0  0  0  0
    7.6919   47.4775   51.1967 H   0  0  0  0  0  0  0  0  0  0  0  0
    5.2917   46.8064   51.1813 H   0  0  0  0  0  0  0  0  0  0  0  0
    1.1252   43.8971   55.2916 H   0  0  0  0  0  0  0  0  0  0  0  0
   -0.0319   44.4217   54.0014 H   0  0  0  0  0  0  0  0  0  0  0  0
    1.0363   41.8847   54.2358 H   0  0  0  0  0  0  0  0  0  0  0  0
    0.3743   42.6113   52.7207 H   0  0  0  0  0  0  0  0  0  0  0  0
    3.2560   42.2890   53.4760 H   0  0  0  0  0  0  0  0  0  0  0  0
    3.6820   40.4599   50.2747 H   0  0  0  0  0  0  0  0  0  0  0  0
    7.4934   42.0489   49.2243 H   0  0  0  0  0  0  0  0  0  0  0  0
    4.6234   44.5790   51.2320 H   0  0  0  0  0  0  0  0  0  0  0  0
    0.7610   46.2827   52.3359 H   0  0  0  0  0  0  0  0  0  0  0  0
    5.4367   46.1911   55.4664 H   0  0  0  0  0  0  0  0  0  0  0  0
    7.8361   46.8551   55.4798 H   0  0  0  0  0  0  0  0  0  0  0  0
  1  2  1  0
  2  3  1  0
  3  4  2  0
  4  5  1  0
  5  6  2  0
  6  7  1  0
  7  8  2  0
  8  9  1  0
  9 10  1  0
 10 11  1  0
 11 12  1  0
 12 13  1  0
 13 14  2  0
 13 15  1  0
 15 16  2  0
 16 17  1  0
 17 18  2  0
 18 19  1  0
 19 20  1  0
 19 21  2  0
  9 22  2  0
 22 23  1  0
  6 24  1  0
 24 25  2  0
 25  3  1  0
 23  7  1  0
 21 15  1  0
  1 26  1  0
  1 27  1  0
  1 28  1  0
  4 29  1  0
  5 30  1  0
 10 31  1  0
 10 32  1  0
 11 33  1  0
 11 34  1  0
 12 35  1  0
 16 36  1  0
 18 37  1  0
 21 38  1  0
 22 39  1  0
 24 40  1  0
 25 41  1  0
M  END
>  <meeko>  (1) 
{"is_sidechain": [false], "free_energy": -8.551, "intermolecular_energy": -11.55, "internal_energy": -1.389}

$$$$
ligand_35_conformer_2_docked
     RDKit          3D

 41 43  0  0  0  0  0  0  0  0999 V2000
    0.6190   45.1180   56.6660 C   0  0  0  0  0  0  0  0  0  0  0  0
    1.7740   45.6720   56.0430 O   0  0  0  0  0  0  0  0  0  0  0  0
    2.4680   45.0700   54.9840 C   0  0  0  0  0  0  0  0  0  0  0  0
    3.8490   45.2540   54.7820 C   0  0  0  0  0  0  0  0  0  0  0  0
    4.4950   44.6310   53.7110 C   0  0  0  0  0  0  0  0  0  0  0  0
    3.7750   43.8180   52.8210 C   0  0  0  0  0  0  0  0  0  0  0  0
    4.4620   43.1600   51.6930 C   0  0  0  0  0  0  0  0  0  0  0  0
    5.2660   43.8080   50.8210 N   0  0  0  0  0  0  0  0  0  0  0  0
    5.6610   42.8300   49.9840 C   0  0  0  0  0  0  0  0  0  0  0  0
    6.5140   43.0550   48.7730 C   0  0  0  0  0  0  0  0  0  0  0  0
    7.9340   43.4760   49.1600 C   0  0  0  0  0  0  0  0  0  0  0  0
    7.9040   44.5630   50.1420 N   0  0  0  0  0  0  0  0  0  0  0  0
    9.0970   45.1030   50.7350 C   0  0  0  0  0  0  0  0  0  0  0  0
   10.2250   44.6480   50.3970 O   0  0  0  0  0  0  0  0  0  0  0  0
    9.0270   46.1710   51.7590 C   0  0  0  0  0  0  0  0  0  0  0  0
    8.0650   47.1910   51.6520 C   0  0  0  0  0  0  0  0  0  0  0  0
    7.9960   48.1740   52.5890 N   0  0  0  0  0  0  0  0  0  0  0  0
    8.8400   48.2070   53.6530 C   0  0  0  0  0  0  0  0  0  0  0  0
    9.8070   47.2120   53.8090 C   0  0  0  0  0  0  0  0  0  0  0  0
   10.6430   47.2340   54.8750 F   0  0  0  0  0  0  0  0  0  0  0  0
    9.8980   46.1910   52.8600 C   0  0  0  0  0  0  0  0  0  0  0  0
    5.0820   41.6390   50.3590 C   0  0  0  0  0  0  0  0  0  0  0  0
    4.3530   41.8760   51.4210 O   0  0  0  0  0  0  0  0  0  0  0  0
    2.3970   43.6370   53.0230 C   0  0  0  0  0  0  0  0  0  0  0  0
    1.7520   44.2580   54.0960 C   0  0  0  0  0  0  0  0  0  0  0  0
    0.7307   45.1716   57.7590 H   0  0  0  0  0  0  0  0  0  0  0  0
   -0.2712   45.6871   56.3600 H   0  0  0  0  0  0  0  0  0  0  0  0
    0.5056   44.0675   56.3600 H   0  0  0  0  0  0  0  0  0  0  0  0
    4.4225   45.8916   55.4709 H   0  0  0  0  0  0  0  0  0  0  0  0
    5.5751   44.7785   53.5641 H   0  0  0  0  0  0  0  0  0  0  0  0
    6.5632   42.1225   48.1917 H   0  0  0  0  0  0  0  0  0  0  0  0
    6.0636   43.8630   48.1777 H   0  0  0  0  0  0  0  0  0  0  0  0
    8.4608   42.6129   49.5931 H   0  0  0  0  0  0  0  0  0  0  0  0
    8.4556   43.8292   48.2582 H   0  0  0  0  0  0  0  0  0  0  0  0
    6.9720   44.8190   50.5370 H   0  0  0  0  0  0  0  0  0  0  0  0
    7.3636   47.1937   50.8046 H   0  0  0  0  0  0  0  0  0  0  0  0
    8.7615   49.0180   54.3920 H   0  0  0  0  0  0  0  0  0  0  0  0
   10.6541   45.4005   52.9756 H   0  0  0  0  0  0  0  0  0  0  0  0
    5.2082   40.6674   49.8590 H   0  0  0  0  0  0  0  0  0  0  0  0
    1.8219   43.0026   52.3325 H   0  0  0  0  0  0  0  0  0  0  0  0
    0.6725   44.1076   54.2442 H   0  0  0  0  0  0  0  0  0  0  0  0
  1  2  1  0
  2  3  1  0
  3  4  2  0
  4  5  1  0
  5  6  2  0
  6  7  1  0
  7  8  2  0
  8  9  1  0
  9 10  1  0
 10 11  1  0
 11 12  1  0
 12 13  1  0
 13 14  2  0
 13 15  1  0
 15 16  2  0
 16 17  1  0
 17 18  2  0
 18 19  1  0
 19 20  1  0
 19 21  2  0
  9 22  2  0
 22 23  1  0
  6 24  1  0
 24 25  2  0
 25  3  1  0
 23  7  1  0
 21 15  1  0
  1 26  1  0
  1 27  1  0
  1 28  1  0
  4 29  1  0
  5 30  1  0
 10 31  1  0
 10 32  1  0
 11 33  1  0
 11 34  1  0
 12 35  1  0
 16 36  1  0
 18 37  1  0
 21 38  1  0
 22 39  1  0
 24 40  1  0
 25 41  1  0
M  END
>  <meeko>  (2) 
{"is_sidechain": [false], "free_energy": -7.891, "intermolecular_energy": -11.198, "internal_energy": -0.85}

$$$$
ligand_35_conformer_2_docked
     RDKit          3D

 41 43  0  0  0  0  0  0  0  0999 V2000
   -0.8070   43.7760   54.3690 C   0  0  0  0  0  0  0  0  0  0  0  0
   -0.2220   45.0160   54.7560 O   0  0  0  0  0  0  0  0  0  0  0  0
    1.1090   45.3760   54.5000 C   0  0  0  0  0  0  0  0  0  0  0  0
    1.5570   45.7550   53.2190 C   0  0  0  0  0  0  0  0  0  0  0  0
    2.8950   46.1060   53.0160 C   0  0  0  0  0  0  0  0  0  0  0  0
    3.8070   46.0830   54.0820 C   0  0  0  0  0  0  0  0  0  0  0  0
    5.2180   46.4570   53.8620 C   0  0  0  0  0  0  0  0  0  0  0  0
    5.7090   46.8750   52.6740 N   0  0  0  0  0  0  0  0  0  0  0  0
    7.0090   47.0990   52.9420 C   0  0  0  0  0  0  0  0  0  0  0  0
    8.0200   47.5060   51.9140 C   0  0  0  0  0  0  0  0  0  0  0  0
    8.2990   46.3710   50.9240 C   0  0  0  0  0  0  0  0  0  0  0  0
    7.2580   45.3450   51.0040 N   0  0  0  0  0  0  0  0  0  0  0  0
    7.1940   44.2340   50.0930 C   0  0  0  0  0  0  0  0  0  0  0  0
    8.0690   44.1140   49.1920 O   0  0  0  0  0  0  0  0  0  0  0  0
    6.1000   43.2390   50.1740 C   0  0  0  0  0  0  0  0  0  0  0  0
    6.0880   42.1290   49.3110 C   0  0  0  0  0  0  0  0  0  0  0  0
    5.0860   41.2130   49.3810 N   0  0  0  0  0  0  0  0  0  0  0  0
    4.0740   41.3280   50.2790 C   0  0  0  0  0  0  0  0  0  0  0  0
    4.0450   42.4070   51.1640 C   0  0  0  0  0  0  0  0  0  0  0  0
    3.0430   42.5210   52.0700 F   0  0  0  0  0  0  0  0  0  0  0  0
    5.0620   43.3630   51.1130 C   0  0  0  0  0  0  0  0  0  0  0  0
    7.2670   46.8000   54.2610 C   0  0  0  0  0  0  0  0  0  0  0  0
    6.1400   46.4130   54.8020 O   0  0  0  0  0  0  0  0  0  0  0  0
    3.3580   45.7030   55.3580 C   0  0  0  0  0  0  0  0  0  0  0  0
    2.0200   45.3550   55.5620 C   0  0  0  0  0  0  0  0  0  0  0  0
   -1.0778   43.2021   55.2675 H   0  0  0  0  0  0  0  0  0  0  0  0
   -1.7097   43.9675   53.7703 H   0  0  0  0  0  0  0  0  0  0  0  0
   -0.0852   43.2010   53.7703 H   0  0  0  0  0  0  0  0  0  0  0  0
    0.8513   45.7748   52.3754 H   0  0  0  0  0  0  0  0  0  0  0  0
    3.2353   46.4025   52.0129 H   0  0  0  0  0  0  0  0  0  0  0  0
    7.6378   48.3769   51.3614 H   0  0  0  0  0  0  0  0  0  0  0  0
    8.9590   47.7529   52.4310 H   0  0  0  0  0  0  0  0  0  0  0  0
    8.3243   46.7805   49.9034 H   0  0  0  0  0  0  0  0  0  0  0  0
    9.2666   45.9125   51.1762 H   0  0  0  0  0  0  0  0  0  0  0  0
    6.4500   45.5370   51.6380 H   0  0  0  0  0  0  0  0  0  0  0  0
    6.8948   42.0010   48.5743 H   0  0  0  0  0  0  0  0  0  0  0  0
    3.2768   40.5706   50.3090 H   0  0  0  0  0  0  0  0  0  0  0  0
    5.0504   44.2146   51.8092 H   0  0  0  0  0  0  0  0  0  0  0  0
    8.2410   46.8730   54.7669 H   0  0  0  0  0  0  0  0  0  0  0  0
    4.0638   45.6793   56.2014 H   0  0  0  0  0  0  0  0  0  0  0  0
    1.6799   45.0620   56.5662 H   0  0  0  0  0  0  0  0  0  0  0  0
  1  2  1  0
  2  3  1  0
  3  4  2  0
  4  5  1  0
  5  6  2  0
  6  7  1  0
  7  8  2  0
  8  9  1  0
  9 10  1  0
 10 11  1  0
 11 12  1  0
 12 13  1  0
 13 14  2  0
 13 15  1  0
 15 16  2  0
 16 17  1  0
 17 18  2  0
 18 19  1  0
 19 20  1  0
 19 21  2  0
  9 22  2  0
 22 23  1  0
  6 24  1  0
 24 25  2  0
 25  3  1  0
 23  7  1  0
 21 15  1  0
  1 26  1  0
  1 27  1  0
  1 28  1  0
  4 29  1  0
  5 30  1  0
 10 31  1  0
 10 32  1  0
 11 33  1  0
 11 34  1  0
 12 35  1  0
 16 36  1  0
 18 37  1  0
 21 38  1  0
 22 39  1  0
 24 40  1  0
 25 41  1  0
M  END
>  <meeko>  (3) 
{"is_sidechain": [false], "free_energy": -7.703, "intermolecular_energy": -10.589, "internal_energy": -1.205}

$$$$
ligand_35_conformer_2_docked
     RDKit          3D

 41 43  0  0  0  0  0  0  0  0999 V2000
    9.2050   48.2870   54.9450 C   0  0  0  0  0  0  0  0  0  0  0  0
    8.4650   48.4410   53.7380 O   0  0  0  0  0  0  0  0  0  0  0  0
    7.9970   47.3760   52.9550 C   0  0  0  0  0  0  0  0  0  0  0  0
    8.5170   47.0900   51.6770 C   0  0  0  0  0  0  0  0  0  0  0  0
    8.0170   46.0160   50.9360 C   0  0  0  0  0  0  0  0  0  0  0  0
    6.9890   45.2110   51.4540 C   0  0  0  0  0  0  0  0  0  0  0  0
    6.4670   44.0760   50.6680 C   0  0  0  0  0  0  0  0  0  0  0  0
    5.4770   43.2600   51.0930 N   0  0  0  0  0  0  0  0  0  0  0  0
    5.3380   42.3920   50.0730 C   0  0  0  0  0  0  0  0  0  0  0  0
    4.4050   41.2200   50.0890 C   0  0  0  0  0  0  0  0  0  0  0  0
    2.9560   41.6620   50.3160 C   0  0  0  0  0  0  0  0  0  0  0  0
    2.7940   42.2470   51.6490 N   0  0  0  0  0  0  0  0  0  0  0  0
    2.1030   43.4880   51.8700 C   0  0  0  0  0  0  0  0  0  0  0  0
    1.5950   44.1040   50.8930 O   0  0  0  0  0  0  0  0  0  0  0  0
    1.9970   44.0740   53.2270 C   0  0  0  0  0  0  0  0  0  0  0  0
    0.8050   43.9460   53.9610 C   0  0  0  0  0  0  0  0  0  0  0  0
    0.7030   44.4820   55.2070 N   0  0  0  0  0  0  0  0  0  0  0  0
    1.7360   45.1490   55.7840 C   0  0  0  0  0  0  0  0  0  0  0  0
    2.9430   45.2950   55.1000 C   0  0  0  0  0  0  0  0  0  0  0  0
    3.9800   45.9500   55.6760 F   0  0  0  0  0  0  0  0  0  0  0  0
    3.0740   44.7540   53.8190 C   0  0  0  0  0  0  0  0  0  0  0  0
    6.2430   42.6950   49.0820 C   0  0  0  0  0  0  0  0  0  0  0  0
    6.9210   43.7430   49.4780 O   0  0  0  0  0  0  0  0  0  0  0  0
    6.4720   45.4980   52.7280 C   0  0  0  0  0  0  0  0  0  0  0  0
    6.9740   46.5710   53.4700 C   0  0  0  0  0  0  0  0  0  0  0  0
    8.5350   48.4264   55.8062 H   0  0  0  0  0  0  0  0  0  0  0  0
    9.6428   47.2785   54.9805 H   0  0  0  0  0  0  0  0  0  0  0  0
   10.0088   49.0371   54.9805 H   0  0  0  0  0  0  0  0  0  0  0  0
    9.3205   47.7153   51.2606 H   0  0  0  0  0  0  0  0  0  0  0  0
    8.4312   45.7995   49.9403 H   0  0  0  0  0  0  0  0  0  0  0  0
    4.4723   40.6958   49.1243 H   0  0  0  0  0  0  0  0  0  0  0  0
    4.6978   40.5558   50.9155 H   0  0  0  0  0  0  0  0  0  0  0  0
    2.6844   42.4112   49.5578 H   0  0  0  0  0  0  0  0  0  0  0  0
    2.3017   40.7814   50.2353 H   0  0  0  0  0  0  0  0  0  0  0  0
    3.3530   41.8240   52.4230 H   0  0  0  0  0  0  0  0  0  0  0  0
   -0.0504   43.4091   53.5251 H   0  0  0  0  0  0  0  0  0  0  0  0
    1.6207   45.5745   56.7918 H   0  0  0  0  0  0  0  0  0  0  0  0
    4.0227   44.8607   53.2726 H   0  0  0  0  0  0  0  0  0  0  0  0
    6.3731   42.1561   48.1319 H   0  0  0  0  0  0  0  0  0  0  0  0
    5.6671   44.8745   53.1444 H   0  0  0  0  0  0  0  0  0  0  0  0
    6.5617   46.7847   54.4672 H   0  0  0  0  0  0  0  0  0  0  0  0
  1  2  1  0
  2  3  1  0
  3  4  2  0
  4  5  1  0
  5  6  2  0
  6  7  1  0
  7  8  2  0
  8  9  1  0
  9 10  1  0
 10 11  1  0
 11 12  1  0
 12 13  1  0
 13 14  2  0
 13 15  1  0
 15 16  2  0
 16 17  1  0
 17 18  2  0
 18 19  1  0
 19 20  1  0
 19 21  2  0
  9 22  2  0
 22 23  1  0
  6 24  1  0
 24 25  2  0
 25  3  1  0
 23  7  1  0
 21 15  1  0
  1 26  1  0
  1 27  1  0
  1 28  1  0
  4 29  1  0
  5 30  1  0
 10 31  1  0
 10 32  1  0
 11 33  1  0
 11 34  1  0
 12 35  1  0
 16 36  1  0
 18 37  1  0
 21 38  1  0
 22 39  1  0
 24 40  1  0
 25 41  1  0
M  END
>  <meeko>  (4) 
{"is_sidechain": [false], "free_energy": -7.69, "intermolecular_energy": -10.509, "internal_energy": -1.268}

$$$$
ligand_35_conformer_2_docked
     RDKit          3D

 41 43  0  0  0  0  0  0  0  0999 V2000
   -0.0650   44.5970   54.7110 C   0  0  0  0  0  0  0  0  0  0  0  0
   -0.0240   43.8060   53.5280 O   0  0  0  0  0  0  0  0  0  0  0  0
    1.1470   43.5050   52.8180 C   0  0  0  0  0  0  0  0  0  0  0  0
    1.1370   42.7560   51.6250 C   0  0  0  0  0  0  0  0  0  0  0  0
    2.3320   42.4820   50.9540 C   0  0  0  0  0  0  0  0  0  0  0  0
    3.5560   42.9470   51.4610 C   0  0  0  0  0  0  0  0  0  0  0  0
    4.8150   42.6570   50.7470 C   0  0  0  0  0  0  0  0  0  0  0  0
    5.6360   43.6100   50.2540 N   0  0  0  0  0  0  0  0  0  0  0  0
    6.6340   42.8960   49.6990 C   0  0  0  0  0  0  0  0  0  0  0  0
    7.7750   43.4990   48.9380 C   0  0  0  0  0  0  0  0  0  0  0  0
    8.3680   44.7010   49.6790 C   0  0  0  0  0  0  0  0  0  0  0  0
    7.3850   45.2850   50.5930 N   0  0  0  0  0  0  0  0  0  0  0  0
    7.7620   46.0200   51.7700 C   0  0  0  0  0  0  0  0  0  0  0  0
    8.9840   46.1930   52.0340 O   0  0  0  0  0  0  0  0  0  0  0  0
    6.7400   46.5590   52.6970 C   0  0  0  0  0  0  0  0  0  0  0  0
    7.0880   46.8830   54.0200 C   0  0  0  0  0  0  0  0  0  0  0  0
    6.1530   47.3770   54.8760 N   0  0  0  0  0  0  0  0  0  0  0  0
    4.8670   47.5790   54.4900 C   0  0  0  0  0  0  0  0  0  0  0  0
    4.4750   47.2810   53.1840 C   0  0  0  0  0  0  0  0  0  0  0  0
    3.1950   47.4910   52.7910 F   0  0  0  0  0  0  0  0  0  0  0  0
    5.4150   46.7720   52.2850 C   0  0  0  0  0  0  0  0  0  0  0  0
    6.3840   41.5520   49.8580 C   0  0  0  0  0  0  0  0  0  0  0  0
    5.2570   41.4380   50.5140 O   0  0  0  0  0  0  0  0  0  0  0  0
    3.5630   43.6920   52.6520 C   0  0  0  0  0  0  0  0  0  0  0  0
    2.3680   43.9680   53.3210 C   0  0  0  0  0  0  0  0  0  0  0  0
   -0.0310   43.9401   55.5927 H   0  0  0  0  0  0  0  0  0  0  0  0
    0.7991   45.2775   54.7272 H   0  0  0  0  0  0  0  0  0  0  0  0
   -0.9948   45.1845   54.7272 H   0  0  0  0  0  0  0  0  0  0  0  0
    0.1841   42.3850   51.2196 H   0  0  0  0  0  0  0  0  0  0  0  0
    2.3135   41.8979   50.0221 H   0  0  0  0  0  0  0  0  0  0  0  0
    8.5584   42.7383   48.8054 H   0  0  0  0  0  0  0  0  0  0  0  0
    7.3974   43.8445   47.9643 H   0  0  0  0  0  0  0  0  0  0  0  0
    9.2455   44.3723   50.2552 H   0  0  0  0  0  0  0  0  0  0  0  0
    8.6583   45.4624   48.9401 H   0  0  0  0  0  0  0  0  0  0  0  0
    6.3880   45.0000   50.4620 H   0  0  0  0  0  0  0  0  0  0  0  0
    8.1221   46.7363   54.3650 H   0  0  0  0  0  0  0  0  0  0  0  0
    4.1339   47.9776   55.2067 H   0  0  0  0  0  0  0  0  0  0  0  0
    5.1166   46.5377   51.2525 H   0  0  0  0  0  0  0  0  0  0  0  0
    7.0152   40.7255   49.4997 H   0  0  0  0  0  0  0  0  0  0  0  0
    4.5156   44.0604   53.0605 H   0  0  0  0  0  0  0  0  0  0  0  0
    2.3871   44.5545   54.2514 H   0  0  0  0  0  0  0  0  0  0  0  0
  1  2  1  0
  2  3  1  0
  3  4  2  0
  4  5  1  0
  5  6  2  0
  6  7  1  0
  7  8  2  0
  8  9  1  0
  9 10  1  0
 10 11  1  0
 11 12  1  0
 12 13  1  0
 13 14  2  0
 13 15  1  0
 15 16  2  0
 16 17  1  0
 17 18  2  0
 18 19  1  0
 19 20  1  0
 19 21  2  0
  9 22  2  0
 22 23  1  0
  6 24  1  0
 24 25  2  0
 25  3  1  0
 23  7  1  0
 21 15  1  0
  1 26  1  0
  1 27  1  0
  1 28  1  0
  4 29  1  0
  5 30  1  0
 10 31  1  0
 10 32  1  0
 11 33  1  0
 11 34  1  0
 12 35  1  0
 16 36  1  0
 18 37  1  0
 21 38  1  0
 22 39  1  0
 24 40  1  0
 25 41  1  0
M  END
>  <meeko>  (5) 
{"is_sidechain": [false], "free_energy": -7.651, "intermolecular_energy": -10.934, "internal_energy": -0.79}

$$$$
