MODEL 1
REMARK VINA RESULT:    -9.082      0.000      0.000
REMARK INTER + INTRA:         -13.037
REMARK INTER:                 -12.268
REMARK INTRA:                  -0.769
REMARK UNBOUND:                -0.769
REMARK SMILES O=C(NCC1CCOCC1)c1cnc(Nc2ccccc2)nc1C(F)(F)F
REMARK SMILES IDX 11 1 12 2 13 3 14 4 22 5 23 6 2 7 1 8 3 9 4 11 5 12 6 13
REMARK SMILES IDX 10 14 7 15 9 16 8 17 24 18 25 19 26 20 27 21 15 22 16 24
REMARK SMILES IDX 17 25 21 26 18 27 20 28 19 29
REMARK H PARENT 3 10 15 23
ROOT
ATOM      1  C   UNL     1       5.840  44.452  51.082  1.00  0.00     0.089 A 
ATOM      2  C   UNL     1       6.798  44.334  50.068  1.00  0.00     0.131 A 
ATOM      3  N   UNL     1       6.777  43.272  49.226  1.00  0.00    -0.220 NA
ATOM      4  C   UNL     1       5.832  42.302  49.343  1.00  0.00     0.227 A 
ATOM      5  N   UNL     1       4.917  42.374  50.344  1.00  0.00    -0.207 NA
ATOM      6  C   UNL     1       4.894  43.410  51.227  1.00  0.00     0.162 A 
ENDROOT
BRANCH   1   7
ATOM      7  C   UNL     1       5.878  45.640  51.958  1.00  0.00     0.255 C 
ATOM      8  O   UNL     1       5.003  46.536  51.816  1.00  0.00    -0.269 OA
ATOM      9  N   UNL     1       6.872  45.755  52.985  1.00  0.00    -0.352 N 
ATOM     10  H   UNL     1       7.524  44.957  53.155  1.00  0.00     0.163 HD
BRANCH   9  11
ATOM     11  C   UNL     1       7.008  46.947  53.821  1.00  0.00     0.120 C 
BRANCH  11  12
ATOM     12  C   UNL     1       8.088  47.906  53.266  1.00  0.00     0.013 C 
ATOM     13  C   UNL     1       9.220  48.154  54.283  1.00  0.00     0.034 C 
ATOM     14  C   UNL     1       8.681  47.377  51.938  1.00  0.00     0.034 C 
ATOM     15  C   UNL     1      10.124  46.910  54.454  1.00  0.00     0.160 C 
ATOM     16  C   UNL     1       9.976  46.574  52.157  1.00  0.00     0.160 C 
ATOM     17  O   UNL     1       9.968  45.947  53.423  1.00  0.00    -0.381 OA
ENDBRANCH  11  12
ENDBRANCH   9  11
ENDBRANCH   1   7
BRANCH   6  18
ATOM     18  C   UNL     1       3.853  43.388  52.320  1.00  0.00     0.434 C 
ATOM     19  F   UNL     1       3.322  42.115  52.441  1.00  0.00    -0.164 F 
ATOM     20  F   UNL     1       2.829  44.260  52.008  1.00  0.00    -0.164 F 
ATOM     21  F   UNL     1       4.407  43.739  53.539  1.00  0.00    -0.164 F 
ENDBRANCH   6  18
BRANCH   4  22
ATOM     22  N   UNL     1       5.829  41.169  48.464  1.00  0.00    -0.324 N 
ATOM     23  H   UNL     1       6.494  40.391  48.675  1.00  0.00     0.170 HD
BRANCH  22  24
ATOM     24  C   UNL     1       5.050  41.084  47.257  1.00  0.00     0.041 A 
ATOM     25  C   UNL     1       5.472  41.705  46.067  1.00  0.00     0.026 A 
ATOM     26  C   UNL     1       3.812  40.423  47.281  1.00  0.00     0.026 A 
ATOM     27  C   UNL     1       4.684  41.629  44.914  1.00  0.00     0.002 A 
ATOM     28  C   UNL     1       3.027  40.348  46.127  1.00  0.00     0.002 A 
ATOM     29  C   UNL     1       3.465  40.948  44.943  1.00  0.00     0.000 A 
ENDBRANCH  22  24
ENDBRANCH   4  22
TORSDOF 6
ENDMDL
MODEL 2
REMARK VINA RESULT:    -8.610      3.409      7.428
REMARK INTER + INTRA:         -12.398
REMARK INTER:                 -12.072
REMARK INTRA:                  -0.326
REMARK UNBOUND:                -0.769
REMARK SMILES O=C(NCC1CCOCC1)c1cnc(Nc2ccccc2)nc1C(F)(F)F
REMARK SMILES IDX 11 1 12 2 13 3 14 4 22 5 23 6 2 7 1 8 3 9 4 11 5 12 6 13
REMARK SMILES IDX 10 14 7 15 9 16 8 17 24 18 25 19 26 20 27 21 15 22 16 24
REMARK SMILES IDX 17 25 21 26 18 27 20 28 19 29
REMARK H PARENT 3 10 15 23
ROOT
ATOM      1  C   UNL     1       3.801  43.813  51.165  1.00  0.00     0.089 A 
ATOM      2  C   UNL     1       3.882  45.192  51.393  1.00  0.00     0.131 A 
ATOM      3  N   UNL     1       5.033  45.862  51.136  1.00  0.00    -0.220 NA
ATOM      4  C   UNL     1       6.128  45.218  50.656  1.00  0.00     0.227 A 
ATOM      5  N   UNL     1       6.086  43.874  50.465  1.00  0.00    -0.207 NA
ATOM      6  C   UNL     1       4.964  43.145  50.714  1.00  0.00     0.162 A 
ENDROOT
BRANCH   1   7
ATOM      7  C   UNL     1       2.522  43.126  51.426  1.00  0.00     0.255 C 
ATOM      8  O   UNL     1       1.841  42.704  50.453  1.00  0.00    -0.269 OA
ATOM      9  N   UNL     1       2.076  42.903  52.771  1.00  0.00    -0.352 N 
ATOM     10  H   UNL     1       2.701  43.167  53.565  1.00  0.00     0.163 HD
BRANCH   9  11
ATOM     11  C   UNL     1       0.779  42.306  53.084  1.00  0.00     0.120 C 
BRANCH  11  12
ATOM     12  C   UNL     1      -0.015  43.175  54.089  1.00  0.00     0.013 C 
ATOM     13  C   UNL     1       0.773  44.429  54.517  1.00  0.00     0.034 C 
ATOM     14  C   UNL     1      -1.390  43.589  53.512  1.00  0.00     0.034 C 
ATOM     15  C   UNL     1       0.862  45.471  53.377  1.00  0.00     0.160 C 
ATOM     16  C   UNL     1      -1.348  44.977  52.848  1.00  0.00     0.160 C 
ATOM     17  O   UNL     1      -0.064  45.245  52.325  1.00  0.00    -0.381 OA
ENDBRANCH  11  12
ENDBRANCH   9  11
ENDBRANCH   1   7
BRANCH   6  18
ATOM     18  C   UNL     1       5.025  41.652  50.494  1.00  0.00     0.434 C 
ATOM     19  F   UNL     1       6.343  41.246  50.377  1.00  0.00    -0.164 F 
ATOM     20  F   UNL     1       4.361  41.324  49.328  1.00  0.00    -0.164 F 
ATOM     21  F   UNL     1       4.459  40.972  51.558  1.00  0.00    -0.164 F 
ENDBRANCH   6  18
BRANCH   4  22
ATOM     22  N   UNL     1       7.350  45.929  50.408  1.00  0.00    -0.324 N 
ATOM     23  H   UNL     1       7.640  46.058  49.413  1.00  0.00     0.170 HD
BRANCH  22  24
ATOM     24  C   UNL     1       8.248  46.377  51.439  1.00  0.00     0.041 A 
ATOM     25  C   UNL     1       9.591  45.961  51.473  1.00  0.00     0.026 A 
ATOM     26  C   UNL     1       7.760  47.196  52.469  1.00  0.00     0.026 A 
ATOM     27  C   UNL     1      10.437  46.391  52.500  1.00  0.00     0.002 A 
ATOM     28  C   UNL     1       8.608  47.625  53.495  1.00  0.00     0.002 A 
ATOM     29  C   UNL     1       9.947  47.225  53.508  1.00  0.00     0.000 A 
ENDBRANCH  22  24
ENDBRANCH   4  22
TORSDOF 6
ENDMDL
MODEL 3
REMARK VINA RESULT:    -8.333      3.891      8.021
REMARK INTER + INTRA:         -12.025
REMARK INTER:                 -11.464
REMARK INTRA:                  -0.561
REMARK UNBOUND:                -0.769
REMARK SMILES O=C(NCC1CCOCC1)c1cnc(Nc2ccccc2)nc1C(F)(F)F
REMARK SMILES IDX 11 1 12 2 13 3 14 4 22 5 23 6 2 7 1 8 3 9 4 11 5 12 6 13
REMARK SMILES IDX 10 14 7 15 9 16 8 17 24 18 25 19 26 20 27 21 15 22 16 24
REMARK SMILES IDX 17 25 21 26 18 27 20 28 19 29
REMARK H PARENT 3 10 15 23
ROOT
ATOM      1  C   UNL     1       3.093  44.738  51.850  1.00  0.00     0.089 A 
ATOM      2  C   UNL     1       3.437  46.093  51.921  1.00  0.00     0.131 A 
ATOM      3  N   UNL     1       4.682  46.503  51.573  1.00  0.00    -0.220 NA
ATOM      4  C   UNL     1       5.620  45.616  51.148  1.00  0.00     0.227 A 
ATOM      5  N   UNL     1       5.321  44.292  51.108  1.00  0.00    -0.207 NA
ATOM      6  C   UNL     1       4.094  43.818  51.456  1.00  0.00     0.162 A 
ENDROOT
BRANCH   1   7
ATOM      7  C   UNL     1       1.719  44.337  52.207  1.00  0.00     0.255 C 
ATOM      8  O   UNL     1       0.839  44.290  51.306  1.00  0.00    -0.269 OA
ATOM      9  N   UNL     1       1.396  43.965  53.554  1.00  0.00    -0.352 N 
ATOM     10  H   UNL     1       2.159  43.910  54.264  1.00  0.00     0.163 HD
BRANCH   9  11
ATOM     11  C   UNL     1       0.034  43.643  53.979  1.00  0.00     0.120 C 
BRANCH  11  12
ATOM     12  C   UNL     1      -0.662  44.868  54.617  1.00  0.00     0.013 C 
ATOM     13  C   UNL     1      -2.151  44.957  54.228  1.00  0.00     0.034 C 
ATOM     14  C   UNL     1      -0.521  44.856  56.159  1.00  0.00     0.034 C 
ATOM     15  C   UNL     1      -2.994  43.861  54.923  1.00  0.00     0.160 C 
ATOM     16  C   UNL     1      -1.741  44.218  56.849  1.00  0.00     0.160 C 
ATOM     17  O   UNL     1      -2.334  43.243  56.017  1.00  0.00    -0.381 OA
ENDBRANCH  11  12
ENDBRANCH   9  11
ENDBRANCH   1   7
BRANCH   6  18
ATOM     18  C   UNL     1       3.867  42.327  51.402  1.00  0.00     0.434 C 
ATOM     19  F   UNL     1       2.810  42.040  50.555  1.00  0.00    -0.164 F 
ATOM     20  F   UNL     1       3.556  41.855  52.663  1.00  0.00    -0.164 F 
ATOM     21  F   UNL     1       4.989  41.673  50.925  1.00  0.00    -0.164 F 
ENDBRANCH   6  18
BRANCH   4  22
ATOM     22  N   UNL     1       6.942  46.053  50.802  1.00  0.00    -0.324 N 
ATOM     23  H   UNL     1       7.215  46.014  49.794  1.00  0.00     0.170 HD
BRANCH  22  24
ATOM     24  C   UNL     1       7.944  46.436  51.761  1.00  0.00     0.041 A 
ATOM     25  C   UNL     1       7.624  47.224  52.881  1.00  0.00     0.026 A 
ATOM     26  C   UNL     1       9.282  46.070  51.542  1.00  0.00     0.026 A 
ATOM     27  C   UNL     1       8.622  47.604  53.785  1.00  0.00     0.002 A 
ATOM     28  C   UNL     1      10.277  46.451  52.447  1.00  0.00     0.002 A 
ATOM     29  C   UNL     1       9.946  47.214  53.570  1.00  0.00     0.000 A 
ENDBRANCH  22  24
ENDBRANCH   4  22
TORSDOF 6
ENDMDL
MODEL 4
REMARK VINA RESULT:    -8.306      3.794      8.227
REMARK INTER + INTRA:         -11.988
REMARK INTER:                 -11.324
REMARK INTRA:                  -0.664
REMARK UNBOUND:                -0.769
REMARK SMILES O=C(NCC1CCOCC1)c1cnc(Nc2ccccc2)nc1C(F)(F)F
REMARK SMILES IDX 11 1 12 2 13 3 14 4 22 5 23 6 2 7 1 8 3 9 4 11 5 12 6 13
REMARK SMILES IDX 10 14 7 15 9 16 8 17 24 18 25 19 26 20 27 21 15 22 16 24
REMARK SMILES IDX 17 25 21 26 18 27 20 28 19 29
REMARK H PARENT 3 10 15 23
ROOT
ATOM      1  C   UNL     1       3.356  44.431  51.516  1.00  0.00     0.089 A 
ATOM      2  C   UNL     1       3.602  45.806  51.611  1.00  0.00     0.131 A 
ATOM      3  N   UNL     1       4.829  46.305  51.320  1.00  0.00    -0.220 NA
ATOM      4  C   UNL     1       5.844  45.489  50.931  1.00  0.00     0.227 A 
ATOM      5  N   UNL     1       5.641  44.148  50.871  1.00  0.00    -0.207 NA
ATOM      6  C   UNL     1       4.435  43.587  51.162  1.00  0.00     0.162 A 
ENDROOT
BRANCH   1   7
ATOM      7  C   UNL     1       1.999  43.933  51.810  1.00  0.00     0.255 C 
ATOM      8  O   UNL     1       1.713  43.586  52.987  1.00  0.00    -0.269 OA
ATOM      9  N   UNL     1       1.004  43.882  50.779  1.00  0.00    -0.352 N 
ATOM     10  H   UNL     1       1.227  44.269  49.835  1.00  0.00     0.163 HD
BRANCH   9  11
ATOM     11  C   UNL     1      -0.328  43.317  50.995  1.00  0.00     0.120 C 
BRANCH  11  12
ATOM     12  C   UNL     1      -1.405  44.425  51.072  1.00  0.00     0.013 C 
ATOM     13  C   UNL     1      -2.793  43.915  50.635  1.00  0.00     0.034 C 
ATOM     14  C   UNL     1      -1.491  45.029  52.495  1.00  0.00     0.034 C 
ATOM     15  C   UNL     1      -3.412  42.959  51.683  1.00  0.00     0.160 C 
ATOM     16  C   UNL     1      -2.587  44.361  53.345  1.00  0.00     0.160 C 
ATOM     17  O   UNL     1      -2.778  43.018  52.952  1.00  0.00    -0.381 OA
ENDBRANCH  11  12
ENDBRANCH   9  11
ENDBRANCH   1   7
BRANCH   6  18
ATOM     18  C   UNL     1       4.316  42.084  51.089  1.00  0.00     0.434 C 
ATOM     19  F   UNL     1       5.523  41.533  50.693  1.00  0.00    -0.164 F 
ATOM     20  F   UNL     1       3.352  41.735  50.163  1.00  0.00    -0.164 F 
ATOM     21  F   UNL     1       3.986  41.553  52.324  1.00  0.00    -0.164 F 
ENDBRANCH   6  18
BRANCH   4  22
ATOM     22  N   UNL     1       7.146  46.020  50.647  1.00  0.00    -0.324 N 
ATOM     23  H   UNL     1       7.455  46.033  49.648  1.00  0.00     0.170 HD
BRANCH  22  24
ATOM     24  C   UNL     1       8.089  46.432  51.652  1.00  0.00     0.041 A 
ATOM     25  C   UNL     1       9.446  46.069  51.577  1.00  0.00     0.026 A 
ATOM     26  C   UNL     1       7.636  47.158  52.764  1.00  0.00     0.026 A 
ATOM     27  C   UNL     1      10.338  46.461  52.582  1.00  0.00     0.002 A 
ATOM     28  C   UNL     1       8.530  47.549  53.766  1.00  0.00     0.002 A 
ATOM     29  C   UNL     1       9.881  47.204  53.673  1.00  0.00     0.000 A 
ENDBRANCH  22  24
ENDBRANCH   4  22
TORSDOF 6
ENDMDL
MODEL 5
REMARK VINA RESULT:    -8.089      4.250      8.019
REMARK INTER + INTRA:         -11.695
REMARK INTER:                 -11.263
REMARK INTRA:                  -0.431
REMARK UNBOUND:                -0.769
REMARK SMILES O=C(NCC1CCOCC1)c1cnc(Nc2ccccc2)nc1C(F)(F)F
REMARK SMILES IDX 11 1 12 2 13 3 14 4 22 5 23 6 2 7 1 8 3 9 4 11 5 12 6 13
REMARK SMILES IDX 10 14 7 15 9 16 8 17 24 18 25 19 26 20 27 21 15 22 16 24
REMARK SMILES IDX 17 25 21 26 18 27 20 28 19 29
REMARK H PARENT 3 10 15 23
ROOT
ATOM      1  C   UNL     1       2.601  45.348  52.403  1.00  0.00     0.089 A 
ATOM      2  C   UNL     1       3.189  46.617  52.460  1.00  0.00     0.131 A 
ATOM      3  N   UNL     1       4.470  46.797  52.054  1.00  0.00    -0.220 NA
ATOM      4  C   UNL     1       5.211  45.759  51.585  1.00  0.00     0.227 A 
ATOM      5  N   UNL     1       4.675  44.511  51.559  1.00  0.00    -0.207 NA
ATOM      6  C   UNL     1       3.398  44.265  51.963  1.00  0.00     0.162 A 
ENDROOT
BRANCH   1   7
ATOM      7  C   UNL     1       1.194  45.200  52.824  1.00  0.00     0.255 C 
ATOM      8  O   UNL     1       0.287  45.209  51.949  1.00  0.00    -0.269 OA
ATOM      9  N   UNL     1       0.864  45.007  54.206  1.00  0.00    -0.352 N 
ATOM     10  H   UNL     1       1.634  44.900  54.903  1.00  0.00     0.163 HD
BRANCH   9  11
ATOM     11  C   UNL     1      -0.515  44.941  54.687  1.00  0.00     0.120 C 
BRANCH  11  12
ATOM     12  C   UNL     1      -0.576  44.507  56.170  1.00  0.00     0.013 C 
ATOM     13  C   UNL     1      -0.035  45.599  57.115  1.00  0.00     0.034 C 
ATOM     14  C   UNL     1      -2.016  44.119  56.585  1.00  0.00     0.034 C 
ATOM     15  C   UNL     1      -1.002  46.803  57.218  1.00  0.00     0.160 C 
ATOM     16  C   UNL     1      -2.769  45.291  57.239  1.00  0.00     0.160 C 
ATOM     17  O   UNL     1      -2.308  46.527  56.734  1.00  0.00    -0.381 OA
ENDBRANCH  11  12
ENDBRANCH   9  11
ENDBRANCH   1   7
BRANCH   6  18
ATOM     18  C   UNL     1       2.902  42.840  51.918  1.00  0.00     0.434 C 
ATOM     19  F   UNL     1       2.352  42.494  53.141  1.00  0.00    -0.164 F 
ATOM     20  F   UNL     1       3.956  41.986  51.656  1.00  0.00    -0.164 F 
ATOM     21  F   UNL     1       1.927  42.686  50.949  1.00  0.00    -0.164 F 
ENDBRANCH   6  18
BRANCH   4  22
ATOM     22  N   UNL     1       6.573  45.952  51.178  1.00  0.00    -0.324 N 
ATOM     23  H   UNL     1       6.825  45.695  50.197  1.00  0.00     0.170 HD
BRANCH  22  24
ATOM     24  C   UNL     1       7.629  46.371  52.061  1.00  0.00     0.041 A 
ATOM     25  C   UNL     1       8.972  46.389  51.641  1.00  0.00     0.026 A 
ATOM     26  C   UNL     1       7.324  46.708  53.389  1.00  0.00     0.026 A 
ATOM     27  C   UNL     1       9.983  46.776  52.527  1.00  0.00     0.002 A 
ATOM     28  C   UNL     1       8.336  47.095  54.272  1.00  0.00     0.002 A 
ATOM     29  C   UNL     1       9.665  47.132  53.839  1.00  0.00     0.000 A 
ENDBRANCH  22  24
ENDBRANCH   4  22
TORSDOF 6
ENDMDL
