MODEL 1
REMARK VINA RESULT:    -9.130      0.000      0.000
REMARK INTER + INTRA:         -10.522
REMARK INTER:                 -10.731
REMARK INTRA:                   0.209
REMARK UNBOUND:                 0.209
REMARK SMILES C[C@H]1OCC[C@]1(C)NC(=O)C1CCN(c2ccc(C#N)cc2F)CC1
REMARK SMILES IDX 11 1 12 2 13 3 14 4 24 5 25 6 9 7 8 8 10 9 6 11 2 12 3 13
REMARK SMILES IDX 4 14 5 15 1 16 7 17 15 18 16 19 22 20 17 21 21 22 18 23
REMARK SMILES IDX 19 24 20 25 23 26
REMARK H PARENT 8 10
ROOT
ATOM      1  C   UNL     1       5.184  45.221  51.426  1.00  0.00     0.082 C 
ATOM      2  C   UNL     1       3.968  46.185  51.388  1.00  0.00     0.035 C 
ATOM      3  C   UNL     1       3.270  46.305  52.747  1.00  0.00     0.117 C 
ATOM      4  N   UNL     1       2.864  44.977  53.238  1.00  0.00    -0.369 N 
ATOM      5  C   UNL     1       3.648  43.788  52.868  1.00  0.00     0.117 C 
ATOM      6  C   UNL     1       5.099  44.176  52.563  1.00  0.00     0.035 C 
ENDROOT
BRANCH   1   7
ATOM      7  C   UNL     1       6.484  45.979  51.523  1.00  0.00     0.223 C 
ATOM      8  N   UNL     1       6.924  46.498  52.791  1.00  0.00    -0.348 N 
ATOM      9  O   UNL     1       7.158  46.192  50.478  1.00  0.00    -0.275 OA
ATOM     10  H   UNL     1       6.301  46.349  53.618  1.00  0.00     0.164 HD
BRANCH   8  11
ATOM     11  C   UNL     1       8.203  47.204  52.989  1.00  0.00     0.065 C 
ATOM     12  C   UNL     1       9.387  46.215  52.979  1.00  0.00     0.140 C 
ATOM     13  O   UNL     1      10.424  46.773  53.749  1.00  0.00    -0.376 OA
ATOM     14  C   UNL     1       9.817  47.622  54.701  1.00  0.00     0.163 C 
ATOM     15  C   UNL     1       8.330  47.751  54.399  1.00  0.00     0.059 C 
ATOM     16  C   UNL     1       9.905  45.839  51.587  1.00  0.00     0.041 C 
ATOM     17  C   UNL     1       8.358  48.336  51.945  1.00  0.00     0.037 C 
ENDBRANCH   8  11
ENDBRANCH   1   7
BRANCH   4  18
ATOM     18  C   UNL     1       1.752  44.859  54.150  1.00  0.00     0.073 A 
ATOM     19  C   UNL     1       0.554  44.250  53.729  1.00  0.00     0.030 A 
ATOM     20  C   UNL     1       1.843  45.343  55.471  1.00  0.00     0.147 A 
ATOM     21  C   UNL     1      -0.530  44.135  54.604  1.00  0.00     0.022 A 
ATOM     22  C   UNL     1       0.755  45.224  56.343  1.00  0.00     0.061 A 
ATOM     23  C   UNL     1      -0.432  44.623  55.911  1.00  0.00     0.055 A 
ATOM     24  C   UNL     1      -1.549  44.501  56.812  1.00  0.00     0.099 C 
ATOM     25  N   UNL     1      -2.447  44.405  57.535  1.00  0.00    -0.192 NA
ATOM     26  F   UNL     1       2.991  45.900  55.930  1.00  0.00    -0.205 F 
ENDBRANCH   4  18
TORSDOF 3
ENDMDL
MODEL 2
REMARK VINA RESULT:    -8.623      2.509      3.350
REMARK INTER + INTRA:          -9.925
REMARK INTER:                  -9.688
REMARK INTRA:                  -0.237
REMARK UNBOUND:                 0.209
REMARK SMILES C[C@H]1OCC[C@]1(C)NC(=O)C1CCN(c2ccc(C#N)cc2F)CC1
REMARK SMILES IDX 11 1 12 2 13 3 14 4 24 5 25 6 9 7 8 8 10 9 6 11 2 12 3 13
REMARK SMILES IDX 4 14 5 15 1 16 7 17 15 18 16 19 22 20 17 21 21 22 18 23
REMARK SMILES IDX 19 24 20 25 23 26
REMARK H PARENT 8 10
ROOT
ATOM      1  C   UNL     1       5.313  45.975  54.979  1.00  0.00     0.082 C 
ATOM      2  C   UNL     1       5.192  44.470  54.620  1.00  0.00     0.035 C 
ATOM      3  C   UNL     1       4.195  44.214  53.485  1.00  0.00     0.117 C 
ATOM      4  N   UNL     1       2.876  44.775  53.819  1.00  0.00    -0.369 N 
ATOM      5  C   UNL     1       2.783  45.964  54.683  1.00  0.00     0.117 C 
ATOM      6  C   UNL     1       4.064  46.798  54.586  1.00  0.00     0.035 C 
ENDROOT
BRANCH   1   7
ATOM      7  C   UNL     1       6.545  46.589  54.362  1.00  0.00     0.223 C 
ATOM      8  N   UNL     1       7.101  46.036  53.155  1.00  0.00    -0.348 N 
ATOM      9  O   UNL     1       7.107  47.562  54.936  1.00  0.00    -0.275 OA
ATOM     10  H   UNL     1       6.635  45.193  52.750  1.00  0.00     0.164 HD
BRANCH   8  11
ATOM     11  C   UNL     1       8.268  46.603  52.456  1.00  0.00     0.065 C 
ATOM     12  C   UNL     1       8.760  45.654  51.344  1.00  0.00     0.140 C 
ATOM     13  O   UNL     1      10.133  45.889  51.149  1.00  0.00    -0.376 OA
ATOM     14  C   UNL     1      10.645  46.368  52.375  1.00  0.00     0.163 C 
ATOM     15  C   UNL     1       9.499  46.625  53.343  1.00  0.00     0.059 C 
ATOM     16  C   UNL     1       8.009  45.771  50.012  1.00  0.00     0.041 C 
ATOM     17  C   UNL     1       7.943  48.022  51.932  1.00  0.00     0.037 C 
ENDBRANCH   8  11
ENDBRANCH   1   7
BRANCH   4  18
ATOM     18  C   UNL     1       1.685  44.214  53.227  1.00  0.00     0.073 A 
ATOM     19  C   UNL     1       0.949  43.232  53.917  1.00  0.00     0.030 A 
ATOM     20  C   UNL     1       1.238  44.635  51.958  1.00  0.00     0.147 A 
ATOM     21  C   UNL     1      -0.202  42.678  53.351  1.00  0.00     0.022 A 
ATOM     22  C   UNL     1       0.085  44.077  51.396  1.00  0.00     0.061 A 
ATOM     23  C   UNL     1      -0.636  43.098  52.089  1.00  0.00     0.055 A 
ATOM     24  C   UNL     1      -1.823  42.528  51.507  1.00  0.00     0.099 C 
ATOM     25  N   UNL     1      -2.777  42.069  51.040  1.00  0.00    -0.192 NA
ATOM     26  F   UNL     1       1.895  45.605  51.277  1.00  0.00    -0.205 F 
ENDBRANCH   4  18
TORSDOF 3
ENDMDL
MODEL 3
REMARK VINA RESULT:    -8.065      3.365      8.760
REMARK INTER + INTRA:          -9.270
REMARK INTER:                  -9.163
REMARK INTRA:                  -0.107
REMARK UNBOUND:                 0.209
REMARK SMILES C[C@H]1OCC[C@]1(C)NC(=O)C1CCN(c2ccc(C#N)cc2F)CC1
REMARK SMILES IDX 11 1 12 2 13 3 14 4 24 5 25 6 9 7 8 8 10 9 6 11 2 12 3 13
REMARK SMILES IDX 4 14 5 15 1 16 7 17 15 18 16 19 22 20 17 21 21 22 18 23
REMARK SMILES IDX 19 24 20 25 23 26
REMARK H PARENT 8 10
ROOT
ATOM      1  C   UNL     1       1.007  44.662  52.617  1.00  0.00     0.082 C 
ATOM      2  C   UNL     1       2.066  43.546  52.415  1.00  0.00     0.035 C 
ATOM      3  C   UNL     1       3.456  43.957  52.915  1.00  0.00     0.117 C 
ATOM      4  N   UNL     1       3.889  45.206  52.268  1.00  0.00    -0.369 N 
ATOM      5  C   UNL     1       2.888  46.201  51.850  1.00  0.00     0.117 C 
ATOM      6  C   UNL     1       1.622  46.078  52.706  1.00  0.00     0.035 C 
ENDROOT
BRANCH   1   7
ATOM      7  C   UNL     1       0.155  44.397  53.833  1.00  0.00     0.223 C 
ATOM      8  N   UNL     1      -0.916  45.295  54.174  1.00  0.00    -0.348 N 
ATOM      9  O   UNL     1       0.419  43.409  54.572  1.00  0.00    -0.275 OA
ATOM     10  H   UNL     1      -1.058  46.133  53.565  1.00  0.00     0.164 HD
BRANCH   8  11
ATOM     11  C   UNL     1      -1.831  45.086  55.311  1.00  0.00     0.065 C 
ATOM     12  C   UNL     1      -1.069  45.146  56.651  1.00  0.00     0.140 C 
ATOM     13  O   UNL     1      -1.775  44.368  57.587  1.00  0.00    -0.376 OA
ATOM     14  C   UNL     1      -2.470  43.379  56.857  1.00  0.00     0.163 C 
ATOM     15  C   UNL     1      -2.343  43.659  55.365  1.00  0.00     0.059 C 
ATOM     16  C   UNL     1      -0.838  46.557  57.202  1.00  0.00     0.041 C 
ATOM     17  C   UNL     1      -3.007  46.090  55.245  1.00  0.00     0.037 C 
ENDBRANCH   8  11
ENDBRANCH   1   7
BRANCH   4  18
ATOM     18  C   UNL     1       5.297  45.491  52.126  1.00  0.00     0.073 A 
ATOM     19  C   UNL     1       5.923  45.355  50.873  1.00  0.00     0.030 A 
ATOM     20  C   UNL     1       6.067  45.910  53.231  1.00  0.00     0.147 A 
ATOM     21  C   UNL     1       7.287  45.623  50.727  1.00  0.00     0.022 A 
ATOM     22  C   UNL     1       7.432  46.178  53.079  1.00  0.00     0.061 A 
ATOM     23  C   UNL     1       8.044  46.034  51.829  1.00  0.00     0.055 A 
ATOM     24  C   UNL     1       9.449  46.312  51.677  1.00  0.00     0.099 C 
ATOM     25  N   UNL     1      10.577  46.534  51.554  1.00  0.00    -0.192 NA
ATOM     26  F   UNL     1       5.496  46.092  54.447  1.00  0.00    -0.205 F 
ENDBRANCH   4  18
TORSDOF 3
ENDMDL
MODEL 4
REMARK VINA RESULT:    -7.995      3.652      8.604
REMARK INTER + INTRA:          -9.188
REMARK INTER:                  -9.093
REMARK INTRA:                  -0.095
REMARK UNBOUND:                 0.209
REMARK SMILES C[C@H]1OCC[C@]1(C)NC(=O)C1CCN(c2ccc(C#N)cc2F)CC1
REMARK SMILES IDX 11 1 12 2 13 3 14 4 24 5 25 6 9 7 8 8 10 9 6 11 2 12 3 13
REMARK SMILES IDX 4 14 5 15 1 16 7 17 15 18 16 19 22 20 17 21 21 22 18 23
REMARK SMILES IDX 19 24 20 25 23 26
REMARK H PARENT 8 10
ROOT
ATOM      1  C   UNL     1       2.617  44.240  50.755  1.00  0.00     0.082 C 
ATOM      2  C   UNL     1       3.764  43.332  51.276  1.00  0.00     0.035 C 
ATOM      3  C   UNL     1       4.505  43.948  52.467  1.00  0.00     0.117 C 
ATOM      4  N   UNL     1       5.017  45.285  52.123  1.00  0.00    -0.369 N 
ATOM      5  C   UNL     1       4.299  46.114  51.142  1.00  0.00     0.117 C 
ATOM      6  C   UNL     1       2.815  45.734  51.103  1.00  0.00     0.035 C 
ENDROOT
BRANCH   1   7
ATOM      7  C   UNL     1       1.274  43.771  51.259  1.00  0.00     0.223 C 
ATOM      8  N   UNL     1       0.133  44.645  51.193  1.00  0.00    -0.348 N 
ATOM      9  O   UNL     1       1.171  42.625  51.777  1.00  0.00    -0.275 OA
ATOM     10  H   UNL     1       0.281  45.606  50.810  1.00  0.00     0.164 HD
BRANCH   8  11
ATOM     11  C   UNL     1      -1.225  44.253  51.612  1.00  0.00     0.065 C 
ATOM     12  C   UNL     1      -1.186  43.442  52.923  1.00  0.00     0.140 C 
ATOM     13  O   UNL     1      -2.316  42.604  52.947  1.00  0.00    -0.376 OA
ATOM     14  C   UNL     1      -2.664  42.346  51.603  1.00  0.00     0.163 C 
ATOM     15  C   UNL     1      -1.823  43.216  50.679  1.00  0.00     0.059 C 
ATOM     16  C   UNL     1      -1.123  44.283  54.203  1.00  0.00     0.041 C 
ATOM     17  C   UNL     1      -2.138  45.500  51.704  1.00  0.00     0.037 C 
ENDBRANCH   8  11
ENDBRANCH   1   7
BRANCH   4  18
ATOM     18  C   UNL     1       6.169  45.813  52.814  1.00  0.00     0.073 A 
ATOM     19  C   UNL     1       6.061  46.223  54.156  1.00  0.00     0.030 A 
ATOM     20  C   UNL     1       7.416  45.924  52.165  1.00  0.00     0.147 A 
ATOM     21  C   UNL     1       7.170  46.741  54.832  1.00  0.00     0.022 A 
ATOM     22  C   UNL     1       8.522  46.443  52.847  1.00  0.00     0.061 A 
ATOM     23  C   UNL     1       8.402  46.852  54.179  1.00  0.00     0.055 A 
ATOM     24  C   UNL     1       9.543  47.384  54.878  1.00  0.00     0.099 C 
ATOM     25  N   UNL     1      10.460  47.812  55.439  1.00  0.00    -0.192 NA
ATOM     26  F   UNL     1       7.574  45.504  50.886  1.00  0.00    -0.205 F 
ENDBRANCH   4  18
TORSDOF 3
ENDMDL
MODEL 5
REMARK VINA RESULT:    -7.802      6.241      8.327
REMARK INTER + INTRA:          -8.961
REMARK INTER:                  -9.319
REMARK INTRA:                   0.358
REMARK UNBOUND:                 0.209
REMARK SMILES C[C@H]1OCC[C@]1(C)NC(=O)C1CCN(c2ccc(C#N)cc2F)CC1
REMARK SMILES IDX 11 1 12 2 13 3 14 4 24 5 25 6 9 7 8 8 10 9 6 11 2 12 3 13
REMARK SMILES IDX 4 14 5 15 1 16 7 17 15 18 16 19 22 20 17 21 21 22 18 23
REMARK SMILES IDX 19 24 20 25 23 26
REMARK H PARENT 8 10
ROOT
ATOM      1  C   UNL     1       5.205  42.090  50.829  1.00  0.00     0.082 C 
ATOM      2  C   UNL     1       6.177  41.618  49.715  1.00  0.00     0.035 C 
ATOM      3  C   UNL     1       5.528  41.625  48.327  1.00  0.00     0.117 C 
ATOM      4  N   UNL     1       4.302  40.810  48.325  1.00  0.00    -0.369 N 
ATOM      5  C   UNL     1       3.505  40.683  49.555  1.00  0.00     0.117 C 
ATOM      6  C   UNL     1       3.715  41.903  50.458  1.00  0.00     0.035 C 
ENDROOT
BRANCH   1   7
ATOM      7  C   UNL     1       5.462  43.526  51.210  1.00  0.00     0.223 C 
ATOM      8  N   UNL     1       4.885  44.069  52.411  1.00  0.00    -0.348 N 
ATOM      9  O   UNL     1       6.148  44.258  50.445  1.00  0.00    -0.275 OA
ATOM     10  H   UNL     1       4.274  43.442  52.981  1.00  0.00     0.164 HD
BRANCH   8  11
ATOM     11  C   UNL     1       5.125  45.444  52.887  1.00  0.00     0.065 C 
ATOM     12  C   UNL     1       4.538  45.650  54.298  1.00  0.00     0.140 C 
ATOM     13  O   UNL     1       4.231  47.015  54.445  1.00  0.00    -0.376 OA
ATOM     14  C   UNL     1       3.967  47.517  53.152  1.00  0.00     0.163 C 
ATOM     15  C   UNL     1       4.304  46.458  52.112  1.00  0.00     0.059 C 
ATOM     16  C   UNL     1       5.437  45.183  55.449  1.00  0.00     0.041 C 
ATOM     17  C   UNL     1       6.633  45.783  52.810  1.00  0.00     0.037 C 
ENDBRANCH   8  11
ENDBRANCH   1   7
BRANCH   4  18
ATOM     18  C   UNL     1       3.840  40.212  47.095  1.00  0.00     0.073 A 
ATOM     19  C   UNL     1       3.110  39.008  47.126  1.00  0.00     0.030 A 
ATOM     20  C   UNL     1       4.104  40.817  45.850  1.00  0.00     0.147 A 
ATOM     21  C   UNL     1       2.662  38.418  45.941  1.00  0.00     0.022 A 
ATOM     22  C   UNL     1       3.653  40.222  44.667  1.00  0.00     0.061 A 
ATOM     23  C   UNL     1       2.934  39.022  44.710  1.00  0.00     0.055 A 
ATOM     24  C   UNL     1       2.469  38.415  43.489  1.00  0.00     0.099 C 
ATOM     25  N   UNL     1       2.098  37.925  42.509  1.00  0.00    -0.192 NA
ATOM     26  F   UNL     1       4.769  41.996  45.777  1.00  0.00    -0.205 F 
ENDBRANCH   4  18
TORSDOF 3
ENDMDL
