MODEL 1
REMARK VINA RESULT:    -8.708      0.000      0.000
REMARK INTER + INTRA:         -12.354
REMARK INTER:                 -11.763
REMARK INTRA:                  -0.591
REMARK UNBOUND:                -0.591
REMARK SMILES O=C(C[C@@H]1C[C@H]2CC[C@@H](C1)N2)Nc1ccc(OCc2cccnc2)c(Cl)c1
REMARK SMILES IDX 13 1 14 2 15 3 16 4 25 5 26 6 27 7 12 8 1 9 2 10 3 12 4 13
REMARK SMILES IDX 10 14 5 15 9 16 6 17 8 18 11 19 7 20 17 22 18 23 19 24 20 25
REMARK SMILES IDX 24 26 21 27 23 28 22 29
REMARK H PARENT 12 11 11 21
ROOT
ATOM      1  C   UNL     1       3.958  43.472  52.082  1.00  0.00     0.042 A 
ATOM      2  C   UNL     1       4.261  44.740  52.602  1.00  0.00     0.030 A 
ATOM      3  C   UNL     1       5.313  45.491  52.070  1.00  0.00     0.050 A 
ATOM      4  C   UNL     1       6.088  44.980  51.011  1.00  0.00     0.138 A 
ATOM      5  C   UNL     1       5.800  43.702  50.510  1.00  0.00     0.085 A 
ATOM      6  Cl  UNL     1       6.753  43.025  49.198  1.00  0.00    -0.080 Cl
ATOM      7  C   UNL     1       4.748  42.952  51.047  1.00  0.00     0.050 A 
ENDROOT
BRANCH   1   8
ATOM      8  N   UNL     1       2.894  42.672  52.626  1.00  0.00    -0.326 N 
ATOM      9  O   UNL     1       1.131  43.799  51.566  1.00  0.00    -0.275 OA
ATOM     10  C   UNL     1       1.499  42.932  52.405  1.00  0.00     0.224 C 
ATOM     11  H   UNL     1       3.152  41.792  53.126  1.00  0.00     0.169 HD
BRANCH  10  12
ATOM     12  C   UNL     1       0.459  42.114  53.116  1.00  0.00     0.104 C 
BRANCH  12  13
ATOM     13  C   UNL     1      -0.249  42.927  54.218  1.00  0.00     0.001 C 
ATOM     14  C   UNL     1       0.629  44.112  54.718  1.00  0.00     0.023 C 
ATOM     15  C   UNL     1      -1.645  43.407  53.728  1.00  0.00     0.023 C 
ATOM     16  C   UNL     1      -0.209  45.169  55.484  1.00  0.00     0.054 C 
ATOM     17  C   UNL     1      -2.208  44.548  54.614  1.00  0.00     0.054 C 
ATOM     18  C   UNL     1      -0.950  44.545  56.673  1.00  0.00     0.020 C 
ATOM     19  N   UNL     1      -1.269  45.666  54.613  1.00  0.00    -0.311 NA
ATOM     20  C   UNL     1      -2.300  44.127  56.085  1.00  0.00     0.020 C 
ATOM     21  H   UNL     1      -0.911  45.868  53.649  1.00  0.00     0.123 HD
ENDBRANCH  12  13
ENDBRANCH  10  12
ENDBRANCH   1   8
BRANCH   4  22
ATOM     22  O   UNL     1       7.149  45.704  50.439  1.00  0.00    -0.487 OA
BRANCH  22  23
ATOM     23  C   UNL     1       8.518  45.618  50.838  1.00  0.00     0.267 C 
BRANCH  23  24
ATOM     24  C   UNL     1       8.778  46.473  52.049  1.00  0.00     0.008 A 
ATOM     25  C   UNL     1       9.705  46.066  53.020  1.00  0.00     0.010 A 
ATOM     26  C   UNL     1       8.077  47.673  52.248  1.00  0.00     0.118 A 
ATOM     27  C   UNL     1       9.930  46.860  54.146  1.00  0.00     0.020 A 
ATOM     28  N   UNL     1       8.315  48.429  53.353  1.00  0.00    -0.264 NA
ATOM     29  C   UNL     1       9.220  48.053  54.296  1.00  0.00     0.111 A 
ENDBRANCH  23  24
ENDBRANCH  22  23
ENDBRANCH   4  22
TORSDOF 6
ENDMDL
MODEL 2
REMARK VINA RESULT:    -8.365      1.554      2.084
REMARK INTER + INTRA:         -11.890
REMARK INTER:                 -11.629
REMARK INTRA:                  -0.261
REMARK UNBOUND:                -0.591
REMARK SMILES O=C(C[C@@H]1C[C@H]2CC[C@@H](C1)N2)Nc1ccc(OCc2cccnc2)c(Cl)c1
REMARK SMILES IDX 13 1 14 2 15 3 16 4 25 5 26 6 27 7 12 8 1 9 2 10 3 12 4 13
REMARK SMILES IDX 10 14 5 15 9 16 6 17 8 18 11 19 7 20 17 22 18 23 19 24 20 25
REMARK SMILES IDX 24 26 21 27 23 28 22 29
REMARK H PARENT 12 11 11 21
ROOT
ATOM      1  C   UNL     1       3.136  43.140  51.332  1.00  0.00     0.042 A 
ATOM      2  C   UNL     1       3.476  44.489  51.525  1.00  0.00     0.030 A 
ATOM      3  C   UNL     1       4.774  44.936  51.264  1.00  0.00     0.050 A 
ATOM      4  C   UNL     1       5.760  44.038  50.812  1.00  0.00     0.138 A 
ATOM      5  C   UNL     1       5.424  42.686  50.645  1.00  0.00     0.085 A 
ATOM      6  Cl  UNL     1       6.630  41.532  50.095  1.00  0.00    -0.080 Cl
ATOM      7  C   UNL     1       4.125  42.241  50.910  1.00  0.00     0.050 A 
ENDROOT
BRANCH   1   8
ATOM      8  N   UNL     1       1.813  42.652  51.613  1.00  0.00    -0.326 N 
ATOM      9  O   UNL     1       1.660  43.507  53.792  1.00  0.00    -0.275 OA
ATOM     10  C   UNL     1       1.160  42.787  52.886  1.00  0.00     0.224 C 
ATOM     11  H   UNL     1       1.257  42.265  50.819  1.00  0.00     0.169 HD
BRANCH  10  12
ATOM     12  C   UNL     1      -0.173  42.137  53.121  1.00  0.00     0.104 C 
BRANCH  12  13
ATOM     13  C   UNL     1      -1.338  43.083  52.768  1.00  0.00     0.001 C 
ATOM     14  C   UNL     1      -1.613  44.111  53.904  1.00  0.00     0.023 C 
ATOM     15  C   UNL     1      -1.075  43.782  51.404  1.00  0.00     0.023 C 
ATOM     16  C   UNL     1      -2.458  45.312  53.404  1.00  0.00     0.054 C 
ATOM     17  C   UNL     1      -1.984  45.023  51.205  1.00  0.00     0.054 C 
ATOM     18  C   UNL     1      -3.789  44.851  52.798  1.00  0.00     0.020 C 
ATOM     19  N   UNL     1      -1.761  45.963  52.300  1.00  0.00    -0.311 NA
ATOM     20  C   UNL     1      -3.469  44.657  51.314  1.00  0.00     0.020 C 
ATOM     21  H   UNL     1      -0.739  46.080  52.505  1.00  0.00     0.123 HD
ENDBRANCH  12  13
ENDBRANCH  10  12
ENDBRANCH   1   8
BRANCH   4  22
ATOM     22  O   UNL     1       7.075  44.445  50.529  1.00  0.00    -0.487 OA
BRANCH  22  23
ATOM     23  C   UNL     1       7.478  45.778  50.211  1.00  0.00     0.267 C 
BRANCH  23  24
ATOM     24  C   UNL     1       8.085  46.454  51.410  1.00  0.00     0.008 A 
ATOM     25  C   UNL     1       9.414  46.193  51.776  1.00  0.00     0.010 A 
ATOM     26  C   UNL     1       7.329  47.331  52.204  1.00  0.00     0.118 A 
ATOM     27  C   UNL     1       9.965  46.816  52.897  1.00  0.00     0.020 A 
ATOM     28  N   UNL     1       7.889  47.925  53.292  1.00  0.00    -0.264 NA
ATOM     29  C   UNL     1       9.179  47.690  53.649  1.00  0.00     0.111 A 
ENDBRANCH  23  24
ENDBRANCH  22  23
ENDBRANCH   4  22
TORSDOF 6
ENDMDL
MODEL 3
REMARK VINA RESULT:    -8.130      2.032      2.476
REMARK INTER + INTRA:         -11.573
REMARK INTER:                 -11.032
REMARK INTRA:                  -0.541
REMARK UNBOUND:                -0.591
REMARK SMILES O=C(C[C@@H]1C[C@H]2CC[C@@H](C1)N2)Nc1ccc(OCc2cccnc2)c(Cl)c1
REMARK SMILES IDX 13 1 14 2 15 3 16 4 25 5 26 6 27 7 12 8 1 9 2 10 3 12 4 13
REMARK SMILES IDX 10 14 5 15 9 16 6 17 8 18 11 19 7 20 17 22 18 23 19 24 20 25
REMARK SMILES IDX 24 26 21 27 23 28 22 29
REMARK H PARENT 12 11 11 21
ROOT
ATOM      1  C   UNL     1       2.163  45.575  52.510  1.00  0.00     0.042 A 
ATOM      2  C   UNL     1       2.705  45.834  51.240  1.00  0.00     0.030 A 
ATOM      3  C   UNL     1       4.073  45.664  51.006  1.00  0.00     0.050 A 
ATOM      4  C   UNL     1       4.926  45.240  52.044  1.00  0.00     0.138 A 
ATOM      5  C   UNL     1       4.386  45.008  53.317  1.00  0.00     0.085 A 
ATOM      6  Cl  UNL     1       5.420  44.491  54.640  1.00  0.00    -0.080 Cl
ATOM      7  C   UNL     1       3.017  45.181  53.549  1.00  0.00     0.050 A 
ENDROOT
BRANCH   1   8
ATOM      8  N   UNL     1       0.764  45.762  52.781  1.00  0.00    -0.326 N 
ATOM      9  O   UNL     1       0.084  43.583  52.239  1.00  0.00    -0.275 OA
ATOM     10  C   UNL     1      -0.241  44.762  52.545  1.00  0.00     0.224 C 
ATOM     11  H   UNL     1       0.474  46.637  53.270  1.00  0.00     0.169 HD
BRANCH  10  12
ATOM     12  C   UNL     1      -1.693  45.093  52.744  1.00  0.00     0.104 C 
BRANCH  12  13
ATOM     13  C   UNL     1      -2.181  44.689  54.149  1.00  0.00     0.001 C 
ATOM     14  C   UNL     1      -0.995  44.479  55.135  1.00  0.00     0.023 C 
ATOM     15  C   UNL     1      -3.206  45.727  54.687  1.00  0.00     0.023 C 
ATOM     16  C   UNL     1      -1.462  44.504  56.615  1.00  0.00     0.054 C 
ATOM     17  C   UNL     1      -3.407  45.601  56.220  1.00  0.00     0.054 C 
ATOM     18  C   UNL     1      -2.541  43.448  56.881  1.00  0.00     0.020 C 
ATOM     19  N   UNL     1      -2.122  45.777  56.890  1.00  0.00    -0.311 NA
ATOM     20  C   UNL     1      -3.854  44.189  56.616  1.00  0.00     0.020 C 
ATOM     21  H   UNL     1      -1.585  46.583  56.488  1.00  0.00     0.123 HD
ENDBRANCH  12  13
ENDBRANCH  10  12
ENDBRANCH   1   8
BRANCH   4  22
ATOM     22  O   UNL     1       6.305  45.048  51.851  1.00  0.00    -0.487 OA
BRANCH  22  23
ATOM     23  C   UNL     1       7.223  46.043  51.395  1.00  0.00     0.267 C 
BRANCH  23  24
ATOM     24  C   UNL     1       8.061  46.560  52.533  1.00  0.00     0.008 A 
ATOM     25  C   UNL     1       9.458  46.433  52.501  1.00  0.00     0.010 A 
ATOM     26  C   UNL     1       7.465  47.147  53.660  1.00  0.00     0.118 A 
ATOM     27  C   UNL     1      10.227  46.905  53.566  1.00  0.00     0.020 A 
ATOM     28  N   UNL     1       8.236  47.599  54.686  1.00  0.00    -0.264 NA
ATOM     29  C   UNL     1       9.591  47.493  54.661  1.00  0.00     0.111 A 
ENDBRANCH  23  24
ENDBRANCH  22  23
ENDBRANCH   4  22
TORSDOF 6
ENDMDL
MODEL 4
REMARK VINA RESULT:    -7.949      1.440      2.021
REMARK INTER + INTRA:         -11.329
REMARK INTER:                 -11.032
REMARK INTRA:                  -0.297
REMARK UNBOUND:                -0.591
REMARK SMILES O=C(C[C@@H]1C[C@H]2CC[C@@H](C1)N2)Nc1ccc(OCc2cccnc2)c(Cl)c1
REMARK SMILES IDX 13 1 14 2 15 3 16 4 25 5 26 6 27 7 12 8 1 9 2 10 3 12 4 13
REMARK SMILES IDX 10 14 5 15 9 16 6 17 8 18 11 19 7 20 17 22 18 23 19 24 20 25
REMARK SMILES IDX 24 26 21 27 23 28 22 29
REMARK H PARENT 12 11 11 21
ROOT
ATOM      1  C   UNL     1       3.102  43.721  52.890  1.00  0.00     0.042 A 
ATOM      2  C   UNL     1       3.671  44.909  53.375  1.00  0.00     0.030 A 
ATOM      3  C   UNL     1       4.879  45.381  52.851  1.00  0.00     0.050 A 
ATOM      4  C   UNL     1       5.544  44.666  51.837  1.00  0.00     0.138 A 
ATOM      5  C   UNL     1       4.986  43.465  51.372  1.00  0.00     0.085 A 
ATOM      6  Cl  UNL     1       5.792  42.538  50.116  1.00  0.00    -0.080 Cl
ATOM      7  C   UNL     1       3.779  42.994  51.900  1.00  0.00     0.050 A 
ENDROOT
BRANCH   1   8
ATOM      8  N   UNL     1       1.873  43.204  53.426  1.00  0.00    -0.326 N 
ATOM      9  O   UNL     1       0.594  45.144  53.106  1.00  0.00    -0.275 OA
ATOM     10  C   UNL     1       0.677  43.983  53.591  1.00  0.00     0.224 C 
ATOM     11  H   UNL     1       1.815  42.178  53.613  1.00  0.00     0.169 HD
BRANCH  10  12
ATOM     12  C   UNL     1      -0.521  43.388  54.274  1.00  0.00     0.104 C 
BRANCH  12  13
ATOM     13  C   UNL     1      -1.314  44.452  55.060  1.00  0.00     0.001 C 
ATOM     14  C   UNL     1      -2.731  43.943  55.455  1.00  0.00     0.023 C 
ATOM     15  C   UNL     1      -0.502  44.929  56.298  1.00  0.00     0.023 C 
ATOM     16  C   UNL     1      -3.357  44.801  56.587  1.00  0.00     0.054 C 
ATOM     17  C   UNL     1      -1.398  45.668  57.327  1.00  0.00     0.054 C 
ATOM     18  C   UNL     1      -3.437  46.280  56.192  1.00  0.00     0.020 C 
ATOM     19  N   UNL     1      -2.477  44.780  57.750  1.00  0.00    -0.311 NA
ATOM     20  C   UNL     1      -2.115  46.866  56.693  1.00  0.00     0.020 C 
ATOM     21  H   UNL     1      -2.124  43.813  57.948  1.00  0.00     0.123 HD
ENDBRANCH  12  13
ENDBRANCH  10  12
ENDBRANCH   1   8
BRANCH   4  22
ATOM     22  O   UNL     1       6.754  45.107  51.275  1.00  0.00    -0.487 OA
BRANCH  22  23
ATOM     23  C   UNL     1       7.183  46.468  51.200  1.00  0.00     0.267 C 
BRANCH  23  24
ATOM     24  C   UNL     1       8.071  46.814  52.365  1.00  0.00     0.008 A 
ATOM     25  C   UNL     1       9.454  46.587  52.296  1.00  0.00     0.010 A 
ATOM     26  C   UNL     1       7.533  47.338  53.551  1.00  0.00     0.118 A 
ATOM     27  C   UNL     1      10.268  46.901  53.386  1.00  0.00     0.020 A 
ATOM     28  N   UNL     1       8.348  47.635  54.599  1.00  0.00    -0.264 NA
ATOM     29  C   UNL     1       9.691  47.432  54.541  1.00  0.00     0.111 A 
ENDBRANCH  23  24
ENDBRANCH  22  23
ENDBRANCH   4  22
TORSDOF 6
ENDMDL
MODEL 5
REMARK VINA RESULT:    -7.925      2.629      9.071
REMARK INTER + INTRA:         -11.296
REMARK INTER:                 -10.519
REMARK INTRA:                  -0.777
REMARK UNBOUND:                -0.591
REMARK SMILES O=C(C[C@@H]1C[C@H]2CC[C@@H](C1)N2)Nc1ccc(OCc2cccnc2)c(Cl)c1
REMARK SMILES IDX 13 1 14 2 15 3 16 4 25 5 26 6 27 7 12 8 1 9 2 10 3 12 4 13
REMARK SMILES IDX 10 14 5 15 9 16 6 17 8 18 11 19 7 20 17 22 18 23 19 24 20 25
REMARK SMILES IDX 24 26 21 27 23 28 22 29
REMARK H PARENT 12 11 11 21
ROOT
ATOM      1  C   UNL     1       3.137  44.509  53.509  1.00  0.00     0.042 A 
ATOM      2  C   UNL     1       2.889  45.336  54.616  1.00  0.00     0.030 A 
ATOM      3  C   UNL     1       1.666  45.270  55.290  1.00  0.00     0.050 A 
ATOM      4  C   UNL     1       0.664  44.379  54.861  1.00  0.00     0.138 A 
ATOM      5  C   UNL     1       0.904  43.572  53.739  1.00  0.00     0.085 A 
ATOM      6  Cl  UNL     1      -0.326  42.457  53.165  1.00  0.00    -0.080 Cl
ATOM      7  C   UNL     1       2.128  43.643  53.065  1.00  0.00     0.050 A 
ENDROOT
BRANCH   1   8
ATOM      8  N   UNL     1       4.379  44.573  52.787  1.00  0.00    -0.326 N 
ATOM      9  O   UNL     1       3.679  46.122  51.170  1.00  0.00    -0.275 OA
ATOM     10  C   UNL     1       4.567  45.326  51.577  1.00  0.00     0.224 C 
ATOM     11  H   UNL     1       5.219  44.129  53.220  1.00  0.00     0.169 HD
BRANCH  10  12
ATOM     12  C   UNL     1       5.866  45.233  50.828  1.00  0.00     0.104 C 
BRANCH  12  13
ATOM     13  C   UNL     1       7.050  45.736  51.677  1.00  0.00     0.001 C 
ATOM     14  C   UNL     1       8.395  45.659  50.898  1.00  0.00     0.023 C 
ATOM     15  C   UNL     1       6.767  47.170  52.207  1.00  0.00     0.023 C 
ATOM     16  C   UNL     1       9.492  46.541  51.551  1.00  0.00     0.054 C 
ATOM     17  C   UNL     1       8.060  47.869  52.703  1.00  0.00     0.054 C 
ATOM     18  C   UNL     1       9.727  46.153  53.016  1.00  0.00     0.020 C 
ATOM     19  N   UNL     1       9.027  47.922  51.610  1.00  0.00    -0.311 NA
ATOM     20  C   UNL     1       8.761  47.050  53.793  1.00  0.00     0.020 C 
ATOM     21  H   UNL     1       8.575  48.215  50.710  1.00  0.00     0.123 HD
ENDBRANCH  12  13
ENDBRANCH  10  12
ENDBRANCH   1   8
BRANCH   4  22
ATOM     22  O   UNL     1      -0.577  44.272  55.513  1.00  0.00    -0.487 OA
BRANCH  22  23
ATOM     23  C   UNL     1      -0.874  44.784  56.813  1.00  0.00     0.267 C 
BRANCH  23  24
ATOM     24  C   UNL     1      -1.735  46.014  56.721  1.00  0.00     0.008 A 
ATOM     25  C   UNL     1      -2.885  46.017  55.918  1.00  0.00     0.010 A 
ATOM     26  C   UNL     1      -1.390  47.190  57.407  1.00  0.00     0.118 A 
ATOM     27  C   UNL     1      -3.672  47.167  55.829  1.00  0.00     0.020 A 
ATOM     28  N   UNL     1      -2.173  48.297  57.303  1.00  0.00    -0.264 NA
ATOM     29  C   UNL     1      -3.297  48.309  56.539  1.00  0.00     0.111 A 
ENDBRANCH  23  24
ENDBRANCH  22  23
ENDBRANCH   4  22
TORSDOF 6
ENDMDL
