ligand_73_conformer_2_docked
     RDKit          3D

 41 43  0  0  0  0  0  0  0  0999 V2000
    3.4450   46.3420   50.4960 C   0  0  0  0  0  0  0  0  0  0  0  0
    4.5100   45.8230   51.3500 N   0  0  0  0  0  0  0  0  0  0  0  0
    5.5630   46.5470   51.6960 N   0  0  0  0  0  0  0  0  0  0  0  0
    6.3060   45.8150   52.5530 C   0  0  0  0  0  0  0  0  0  0  0  0
    7.5700   46.2990   53.1610 C   0  0  0  0  0  0  0  0  0  0  0  0
    8.8180   46.0370   52.5630 C   0  0  0  0  0  0  0  0  0  0  0  0
    9.9980   46.5020   53.1530 C   0  0  0  0  0  0  0  0  0  0  0  0
    9.9480   47.2310   54.3430 C   0  0  0  0  0  0  0  0  0  0  0  0
   11.0940   47.6810   54.9110 F   0  0  0  0  0  0  0  0  0  0  0  0
    8.7170   47.4980   54.9450 C   0  0  0  0  0  0  0  0  0  0  0  0
    7.5340   47.0360   54.3600 C   0  0  0  0  0  0  0  0  0  0  0  0
    5.6950   44.5870   52.7640 C   0  0  0  0  0  0  0  0  0  0  0  0
    4.5680   44.6240   51.9700 C   0  0  0  0  0  0  0  0  0  0  0  0
    3.5730   43.5450   51.8640 C   0  0  0  0  0  0  0  0  0  0  0  0
    3.8410   42.5360   51.1580 O   0  0  0  0  0  0  0  0  0  0  0  0
    2.2980   43.6390   52.5190 N   0  0  0  0  0  0  0  0  0  0  0  0
    1.3690   42.5260   52.6340 C   0  0  0  0  0  0  0  0  0  0  0  0
    0.3530   42.9480   53.6890 C   0  0  0  0  0  0  0  0  0  0  0  0
    0.4740   44.4820   53.7930 C   0  0  1  0  0  0  0  0  0  0  0  0
   -0.4900   45.0990   52.8500 C   0  0  0  0  0  0  0  0  0  0  0  0
   -1.2420   45.5790   52.1130 N   0  0  0  0  0  0  0  0  0  0  0  0
    0.2290   44.9760   55.2110 C   0  0  0  0  0  0  0  0  0  0  0  0
   -0.9570   45.7060   55.5380 N   0  0  0  0  0  0  0  0  0  0  0  0
    1.0730   44.7500   56.1230 O   0  0  0  0  0  0  0  0  0  0  0  0
    1.9040   44.7890   53.3140 C   0  0  0  0  0  0  0  0  0  0  0  0
    2.6325   46.7380   51.1229 H   0  0  0  0  0  0  0  0  0  0  0  0
    3.8436   47.1468   49.8609 H   0  0  0  0  0  0  0  0  0  0  0  0
    3.0567   45.5321   49.8609 H   0  0  0  0  0  0  0  0  0  0  0  0
    8.8651   45.4629   51.6259 H   0  0  0  0  0  0  0  0  0  0  0  0
   10.9680   46.2928   52.6783 H   0  0  0  0  0  0  0  0  0  0  0  0
    8.6776   48.0732   55.8818 H   0  0  0  0  0  0  0  0  0  0  0  0
    6.5678   47.2500   54.8403 H   0  0  0  0  0  0  0  0  0  0  0  0
    6.0332   43.7690   53.4170 H   0  0  0  0  0  0  0  0  0  0  0  0
    0.8693   42.3419   51.6715 H   0  0  0  0  0  0  0  0  0  0  0  0
    1.8826   41.5941   52.9130 H   0  0  0  0  0  0  0  0  0  0  0  0
   -0.6632   42.6634   53.3787 H   0  0  0  0  0  0  0  0  0  0  0  0
    0.5436   42.4587   54.6556 H   0  0  0  0  0  0  0  0  0  0  0  0
   -1.6820   45.9180   54.8180 H   0  0  0  0  0  0  0  0  0  0  0  0
   -1.1130   46.0410   56.5150 H   0  0  0  0  0  0  0  0  0  0  0  0
    1.9173   45.7030   52.7021 H   0  0  0  0  0  0  0  0  0  0  0  0
    2.5906   44.9594   54.1564 H   0  0  0  0  0  0  0  0  0  0  0  0
  1  2  1  0
  2  3  1  0
  3  4  2  0
  4  5  1  0
  5  6  2  0
  6  7  1  0
  7  8  2  0
  8  9  1  0
  8 10  1  0
 10 11  2  0
  4 12  1  0
 12 13  2  0
 13 14  1  0
 14 15  2  0
 14 16  1  0
 16 17  1  0
 17 18  1  0
 18 19  1  0
 19 20  1  6
 20 21  3  0
 19 22  1  0
 22 23  1  0
 22 24  2  0
 19 25  1  0
 13  2  1  0
 25 16  1  0
 11  5  1  0
  1 26  1  0
  1 27  1  0
  1 28  1  0
  6 29  1  0
  7 30  1  0
 10 31  1  0
 11 32  1  0
 12 33  1  0
 17 34  1  0
 17 35  1  0
 18 36  1  0
 18 37  1  0
 23 38  1  0
 23 39  1  0
 25 40  1  0
 25 41  1  0
M  END
>  <meeko>  (1) 
{"is_sidechain": [false], "free_energy": -8.102, "intermolecular_energy": -9.997, "internal_energy": -0.732}

$$$$
ligand_73_conformer_2_docked
     RDKit          3D

 41 43  0  0  0  0  0  0  0  0999 V2000
    3.5220   46.5800   50.6000 C   0  0  0  0  0  0  0  0  0  0  0  0
    3.3700   46.0010   51.9330 N   0  0  0  0  0  0  0  0  0  0  0  0
    2.2390   46.0710   52.6160 N   0  0  0  0  0  0  0  0  0  0  0  0
    2.3990   45.3690   53.7570 C   0  0  0  0  0  0  0  0  0  0  0  0
    1.3370   45.2170   54.7830 C   0  0  0  0  0  0  0  0  0  0  0  0
    1.5830   45.5050   56.1390 C   0  0  0  0  0  0  0  0  0  0  0  0
    0.5670   45.3560   57.0910 C   0  0  0  0  0  0  0  0  0  0  0  0
   -0.7000   44.9190   56.7010 C   0  0  0  0  0  0  0  0  0  0  0  0
   -1.6820   44.7760   57.6260 F   0  0  0  0  0  0  0  0  0  0  0  0
   -0.9560   44.6310   55.3590 C   0  0  0  0  0  0  0  0  0  0  0  0
    0.0540   44.7780   54.4040 C   0  0  0  0  0  0  0  0  0  0  0  0
    3.6760   44.8260   53.7910 C   0  0  0  0  0  0  0  0  0  0  0  0
    4.2660   45.2640   52.6250 C   0  0  0  0  0  0  0  0  0  0  0  0
    5.6340   44.9330   52.1940 C   0  0  0  0  0  0  0  0  0  0  0  0
    5.8560   43.8010   51.6870 O   0  0  0  0  0  0  0  0  0  0  0  0
    6.7160   45.8610   52.3700 N   0  0  0  0  0  0  0  0  0  0  0  0
    6.8180   47.1230   51.6550 C   0  0  0  0  0  0  0  0  0  0  0  0
    7.8780   47.9300   52.3970 C   0  0  0  0  0  0  0  0  0  0  0  0
    8.6750   46.9030   53.2280 C   0  0  1  0  0  0  0  0  0  0  0  0
    9.8280   46.4330   52.4230 C   0  0  0  0  0  0  0  0  0  0  0  0
   10.7260   46.0660   51.7930 N   0  0  0  0  0  0  0  0  0  0  0  0
    9.1470   47.4890   54.5510 C   0  0  0  0  0  0  0  0  0  0  0  0
   10.4350   47.1590   55.0810 N   0  0  0  0  0  0  0  0  0  0  0  0
    8.4070   48.2750   55.2050 O   0  0  0  0  0  0  0  0  0  0  0  0
    7.6990   45.7310   53.4320 C   0  0  0  0  0  0  0  0  0  0  0  0
    3.8004   47.6404   50.6904 H   0  0  0  0  0  0  0  0  0  0  0  0
    4.3087   46.0397   50.0531 H   0  0  0  0  0  0  0  0  0  0  0  0
    2.5713   46.4958   50.0531 H   0  0  0  0  0  0  0  0  0  0  0  0
    2.5796   45.8492   56.4526 H   0  0  0  0  0  0  0  0  0  0  0  0
    0.7677   45.5838   58.1483 H   0  0  0  0  0  0  0  0  0  0  0  0
   -1.9551   44.2876   55.0525 H   0  0  0  0  0  0  0  0  0  0  0  0
   -0.1550   44.5490   53.3486 H   0  0  0  0  0  0  0  0  0  0  0  0
    4.1174   44.1897   54.5722 H   0  0  0  0  0  0  0  0  0  0  0  0
    7.1262   46.9503   50.6133 H   0  0  0  0  0  0  0  0  0  0  0  0
    5.8536   47.6511   51.6217 H   0  0  0  0  0  0  0  0  0  0  0  0
    8.5396   48.4428   51.6833 H   0  0  0  0  0  0  0  0  0  0  0  0
    7.4274   48.7063   53.0328 H   0  0  0  0  0  0  0  0  0  0  0  0
   11.0810   46.5120   54.5760 H   0  0  0  0  0  0  0  0  0  0  0  0
   10.7470   47.5660   55.9900 H   0  0  0  0  0  0  0  0  0  0  0  0
    8.2285   44.7702   53.3513 H   0  0  0  0  0  0  0  0  0  0  0  0
    7.2323   45.7547   54.4278 H   0  0  0  0  0  0  0  0  0  0  0  0
  1  2  1  0
  2  3  1  0
  3  4  2  0
  4  5  1  0
  5  6  2  0
  6  7  1  0
  7  8  2  0
  8  9  1  0
  8 10  1  0
 10 11  2  0
  4 12  1  0
 12 13  2  0
 13 14  1  0
 14 15  2  0
 14 16  1  0
 16 17  1  0
 17 18  1  0
 18 19  1  0
 19 20  1  6
 20 21  3  0
 19 22  1  0
 22 23  1  0
 22 24  2  0
 19 25  1  0
 13  2  1  0
 25 16  1  0
 11  5  1  0
  1 26  1  0
  1 27  1  0
  1 28  1  0
  6 29  1  0
  7 30  1  0
 10 31  1  0
 11 32  1  0
 12 33  1  0
 17 34  1  0
 17 35  1  0
 18 36  1  0
 18 37  1  0
 23 38  1  0
 23 39  1  0
 25 40  1  0
 25 41  1  0
M  END
>  <meeko>  (2) 
{"is_sidechain": [false], "free_energy": -8.009, "intermolecular_energy": -9.87, "internal_energy": -0.745}

$$$$
ligand_73_conformer_2_docked
     RDKit          3D

 41 43  0  0  0  0  0  0  0  0999 V2000
    2.4500   42.7130   52.3120 C   0  0  0  0  0  0  0  0  0  0  0  0
    3.1210   43.9530   52.6900 N   0  0  0  0  0  0  0  0  0  0  0  0
    4.4290   44.1190   52.5760 N   0  0  0  0  0  0  0  0  0  0  0  0
    4.7180   45.3920   52.9200 C   0  0  0  0  0  0  0  0  0  0  0  0
    6.0910   45.9530   52.9130 C   0  0  0  0  0  0  0  0  0  0  0  0
    6.8370   46.0510   51.7220 C   0  0  0  0  0  0  0  0  0  0  0  0
    8.1310   46.5830   51.7380 C   0  0  0  0  0  0  0  0  0  0  0  0
    8.6950   47.0220   52.9370 C   0  0  0  0  0  0  0  0  0  0  0  0
    9.9490   47.5370   52.9490 F   0  0  0  0  0  0  0  0  0  0  0  0
    7.9660   46.9310   54.1250 C   0  0  0  0  0  0  0  0  0  0  0  0
    6.6720   46.4000   54.1150 C   0  0  0  0  0  0  0  0  0  0  0  0
    3.5460   46.0580   53.2540 C   0  0  0  0  0  0  0  0  0  0  0  0
    2.5590   45.1070   53.1120 C   0  0  0  0  0  0  0  0  0  0  0  0
    1.1230   45.3380   53.3390 C   0  0  0  0  0  0  0  0  0  0  0  0
    0.4040   45.7050   52.3700 O   0  0  0  0  0  0  0  0  0  0  0  0
    0.5400   45.1870   54.6430 N   0  0  0  0  0  0  0  0  0  0  0  0
    1.2620   44.6600   55.7900 C   0  0  0  0  0  0  0  0  0  0  0  0
    0.4140   45.0150   57.0060 C   0  0  0  0  0  0  0  0  0  0  0  0
   -0.9940   45.3190   56.4560 C   0  0  1  0  0  0  0  0  0  0  0  0
   -1.7900   44.0670   56.4690 C   0  0  0  0  0  0  0  0  0  0  0  0
   -2.4080   43.0890   56.4780 N   0  0  0  0  0  0  0  0  0  0  0  0
   -1.6940   46.4070   57.2570 C   0  0  0  0  0  0  0  0  0  0  0  0
   -1.6420   47.7740   56.8380 N   0  0  0  0  0  0  0  0  0  0  0  0
   -2.3320   46.1200   58.3080 O   0  0  0  0  0  0  0  0  0  0  0  0
   -0.7560   45.7420   54.9950 C   0  0  0  0  0  0  0  0  0  0  0  0
    2.1536   42.1653   53.2188 H   0  0  0  0  0  0  0  0  0  0  0  0
    1.5554   42.9471   51.7162 H   0  0  0  0  0  0  0  0  0  0  0  0
    3.1353   42.0922   51.7162 H   0  0  0  0  0  0  0  0  0  0  0  0
    6.3993   45.7070   50.7732 H   0  0  0  0  0  0  0  0  0  0  0  0
    8.7056   46.6555   50.8028 H   0  0  0  0  0  0  0  0  0  0  0  0
    8.4102   47.2774   55.0698 H   0  0  0  0  0  0  0  0  0  0  0  0
    6.1035   46.3311   55.0542 H   0  0  0  0  0  0  0  0  0  0  0  0
    3.4315   47.1077   53.5623 H   0  0  0  0  0  0  0  0  0  0  0  0
    1.3740   43.5690   55.7051 H   0  0  0  0  0  0  0  0  0  0  0  0
    2.2751   45.0824   55.8627 H   0  0  0  0  0  0  0  0  0  0  0  0
    0.3773   44.1694   57.7085 H   0  0  0  0  0  0  0  0  0  0  0  0
    0.8298   45.8723   57.5556 H   0  0  0  0  0  0  0  0  0  0  0  0
   -1.1250   48.0600   55.9770 H   0  0  0  0  0  0  0  0  0  0  0  0
   -2.1250   48.5120   57.3970 H   0  0  0  0  0  0  0  0  0  0  0  0
   -1.5410   45.3325   54.3423 H   0  0  0  0  0  0  0  0  0  0  0  0
   -0.7811   46.8351   54.8746 H   0  0  0  0  0  0  0  0  0  0  0  0
  1  2  1  0
  2  3  1  0
  3  4  2  0
  4  5  1  0
  5  6  2  0
  6  7  1  0
  7  8  2  0
  8  9  1  0
  8 10  1  0
 10 11  2  0
  4 12  1  0
 12 13  2  0
 13 14  1  0
 14 15  2  0
 14 16  1  0
 16 17  1  0
 17 18  1  0
 18 19  1  0
 19 20  1  6
 20 21  3  0
 19 22  1  0
 22 23  1  0
 22 24  2  0
 19 25  1  0
 13  2  1  0
 25 16  1  0
 11  5  1  0
  1 26  1  0
  1 27  1  0
  1 28  1  0
  6 29  1  0
  7 30  1  0
 10 31  1  0
 11 32  1  0
 12 33  1  0
 17 34  1  0
 17 35  1  0
 18 36  1  0
 18 37  1  0
 23 38  1  0
 23 39  1  0
 25 40  1  0
 25 41  1  0
M  END
>  <meeko>  (3) 
{"is_sidechain": [false], "free_energy": -8.001, "intermolecular_energy": -9.894, "internal_energy": -0.71}

$$$$
ligand_73_conformer_2_docked
     RDKit          3D

 41 43  0  0  0  0  0  0  0  0999 V2000
    3.5230   45.9890   55.6840 C   0  0  0  0  0  0  0  0  0  0  0  0
    4.3450   46.1790   54.4920 N   0  0  0  0  0  0  0  0  0  0  0  0
    5.6670   46.1780   54.5300 N   0  0  0  0  0  0  0  0  0  0  0  0
    6.1200   46.2870   53.2640 C   0  0  0  0  0  0  0  0  0  0  0  0
    7.5600   46.3170   52.9060 C   0  0  0  0  0  0  0  0  0  0  0  0
    8.5410   46.6820   53.8490 C   0  0  0  0  0  0  0  0  0  0  0  0
    9.8940   46.7040   53.4920 C   0  0  0  0  0  0  0  0  0  0  0  0
   10.2830   46.3640   52.1950 C   0  0  0  0  0  0  0  0  0  0  0  0
   11.5940   46.3850   51.8520 F   0  0  0  0  0  0  0  0  0  0  0  0
    9.3190   46.0000   51.2510 C   0  0  0  0  0  0  0  0  0  0  0  0
    7.9660   45.9760   51.6020 C   0  0  0  0  0  0  0  0  0  0  0  0
    5.0420   46.3500   52.3910 C   0  0  0  0  0  0  0  0  0  0  0  0
    3.9350   46.2960   53.2100 C   0  0  0  0  0  0  0  0  0  0  0  0
    2.5380   46.3140   52.7450 C   0  0  0  0  0  0  0  0  0  0  0  0
    2.0430   47.4020   52.3450 O   0  0  0  0  0  0  0  0  0  0  0  0
    1.7280   45.1290   52.7730 N   0  0  0  0  0  0  0  0  0  0  0  0
    2.2690   43.7880   52.9320 C   0  0  0  0  0  0  0  0  0  0  0  0
    1.0760   42.9020   53.2740 C   0  0  0  0  0  0  0  0  0  0  0  0
   -0.1700   43.6950   52.8310 C   0  0  1  0  0  0  0  0  0  0  0  0
   -0.4990   43.3220   51.4330 C   0  0  0  0  0  0  0  0  0  0  0  0
   -0.7530   43.0310   50.3430 N   0  0  0  0  0  0  0  0  0  0  0  0
   -1.3590   43.4430   53.7480 C   0  0  0  0  0  0  0  0  0  0  0  0
   -1.2780   43.7280   55.1470 N   0  0  0  0  0  0  0  0  0  0  0  0
   -2.4360   42.9740   53.2860 O   0  0  0  0  0  0  0  0  0  0  0  0
    0.2780   45.1670   52.8610 C   0  0  0  0  0  0  0  0  0  0  0  0
    4.1414   46.1319   56.5824 H   0  0  0  0  0  0  0  0  0  0  0  0
    2.7020   46.7210   55.6837 H   0  0  0  0  0  0  0  0  0  0  0  0
    3.1065   44.9709   55.6837 H   0  0  0  0  0  0  0  0  0  0  0  0
    8.2415   46.9515   54.8726 H   0  0  0  0  0  0  0  0  0  0  0  0
   10.6529   46.9899   54.2352 H   0  0  0  0  0  0  0  0  0  0  0  0
    9.6256   45.7317   50.2292 H   0  0  0  0  0  0  0  0  0  0  0  0
    7.2129   45.6885   50.8535 H   0  0  0  0  0  0  0  0  0  0  0  0
    5.0662   46.4258   51.2939 H   0  0  0  0  0  0  0  0  0  0  0  0
    2.7418   43.4515   51.9975 H   0  0  0  0  0  0  0  0  0  0  0  0
    3.0410   43.7509   53.7147 H   0  0  0  0  0  0  0  0  0  0  0  0
    1.1376   41.9481   52.7297 H   0  0  0  0  0  0  0  0  0  0  0  0
    1.0437   42.6589   54.3463 H   0  0  0  0  0  0  0  0  0  0  0  0
   -0.4080   44.1150   55.5750 H   0  0  0  0  0  0  0  0  0  0  0  0
   -2.1000   43.5490   55.7660 H   0  0  0  0  0  0  0  0  0  0  0  0
   -0.1455   45.7160   52.0070 H   0  0  0  0  0  0  0  0  0  0  0  0
   -0.0640   45.6810   53.7714 H   0  0  0  0  0  0  0  0  0  0  0  0
  1  2  1  0
  2  3  1  0
  3  4  2  0
  4  5  1  0
  5  6  2  0
  6  7  1  0
  7  8  2  0
  8  9  1  0
  8 10  1  0
 10 11  2  0
  4 12  1  0
 12 13  2  0
 13 14  1  0
 14 15  2  0
 14 16  1  0
 16 17  1  0
 17 18  1  0
 18 19  1  0
 19 20  1  6
 20 21  3  0
 19 22  1  0
 22 23  1  0
 22 24  2  0
 19 25  1  0
 13  2  1  0
 25 16  1  0
 11  5  1  0
  1 26  1  0
  1 27  1  0
  1 28  1  0
  6 29  1  0
  7 30  1  0
 10 31  1  0
 11 32  1  0
 12 33  1  0
 17 34  1  0
 17 35  1  0
 18 36  1  0
 18 37  1  0
 23 38  1  0
 23 39  1  0
 25 40  1  0
 25 41  1  0
M  END
>  <meeko>  (4) 
{"is_sidechain": [false], "free_energy": -7.928, "intermolecular_energy": -9.846, "internal_energy": -0.668}

$$$$
ligand_73_conformer_2_docked
     RDKit          3D

 41 43  0  0  0  0  0  0  0  0999 V2000
    3.8590   41.1950   50.3850 C   0  0  0  0  0  0  0  0  0  0  0  0
    4.0760   42.5300   50.9370 N   0  0  0  0  0  0  0  0  0  0  0  0
    5.2840   43.0400   51.1140 N   0  0  0  0  0  0  0  0  0  0  0  0
    5.1390   44.3090   51.5510 C   0  0  0  0  0  0  0  0  0  0  0  0
    6.2800   45.2070   51.8590 C   0  0  0  0  0  0  0  0  0  0  0  0
    6.5120   45.6750   53.1670 C   0  0  0  0  0  0  0  0  0  0  0  0
    7.5940   46.5200   53.4360 C   0  0  0  0  0  0  0  0  0  0  0  0
    8.4550   46.9080   52.4070 C   0  0  0  0  0  0  0  0  0  0  0  0
    9.5020   47.7260   52.6710 F   0  0  0  0  0  0  0  0  0  0  0  0
    8.2360   46.4490   51.1060 C   0  0  0  0  0  0  0  0  0  0  0  0
    7.1560   45.6040   50.8310 C   0  0  0  0  0  0  0  0  0  0  0  0
    3.7880   44.6150   51.6450 C   0  0  0  0  0  0  0  0  0  0  0  0
    3.1480   43.4550   51.2640 C   0  0  0  0  0  0  0  0  0  0  0  0
    1.6880   43.2840   51.1820 C   0  0  0  0  0  0  0  0  0  0  0  0
    1.1690   43.0040   50.0680 O   0  0  0  0  0  0  0  0  0  0  0  0
    0.8500   43.4620   52.3350 N   0  0  0  0  0  0  0  0  0  0  0  0
    0.1930   42.3660   53.0290 C   0  0  0  0  0  0  0  0  0  0  0  0
   -0.2660   42.9420   54.3640 C   0  0  0  0  0  0  0  0  0  0  0  0
   -0.2650   44.4730   54.1770 C   0  0  1  0  0  0  0  0  0  0  0  0
   -1.6100   44.8960   53.7160 C   0  0  0  0  0  0  0  0  0  0  0  0
   -2.6590   45.2240   53.3550 N   0  0  0  0  0  0  0  0  0  0  0  0
    0.1170   45.2010   55.4590 C   0  0  0  0  0  0  0  0  0  0  0  0
   -0.7900   46.1170   56.0790 N   0  0  0  0  0  0  0  0  0  0  0  0
    1.2430   45.0080   55.9940 O   0  0  0  0  0  0  0  0  0  0  0  0
    0.7500   44.7240   53.0480 C   0  0  0  0  0  0  0  0  0  0  0  0
    3.7417   40.4731   51.2066 H   0  0  0  0  0  0  0  0  0  0  0  0
    2.9495   41.1974   49.7663 H   0  0  0  0  0  0  0  0  0  0  0  0
    4.7225   40.9092   49.7663 H   0  0  0  0  0  0  0  0  0  0  0  0
    5.8379   45.3741   53.9825 H   0  0  0  0  0  0  0  0  0  0  0  0
    7.7672   46.8799   54.4609 H   0  0  0  0  0  0  0  0  0  0  0  0
    8.9148   46.7530   50.2956 H   0  0  0  0  0  0  0  0  0  0  0  0
    6.9898   45.2470   49.8039 H   0  0  0  0  0  0  0  0  0  0  0  0
    3.3318   45.5672   51.9535 H   0  0  0  0  0  0  0  0  0  0  0  0
   -0.6698   42.0066   52.4490 H   0  0  0  0  0  0  0  0  0  0  0  0
    0.8681   41.5085   53.1664 H   0  0  0  0  0  0  0  0  0  0  0  0
   -1.2775   42.5856   54.6086 H   0  0  0  0  0  0  0  0  0  0  0  0
    0.3922   42.6321   55.1891 H   0  0  0  0  0  0  0  0  0  0  0  0
   -1.7330   46.3100   55.6720 H   0  0  0  0  0  0  0  0  0  0  0  0
   -0.5170   46.6110   56.9570 H   0  0  0  0  0  0  0  0  0  0  0  0
    0.3913   45.5183   52.3769 H   0  0  0  0  0  0  0  0  0  0  0  0
    1.7244   45.0530   53.4382 H   0  0  0  0  0  0  0  0  0  0  0  0
  1  2  1  0
  2  3  1  0
  3  4  2  0
  4  5  1  0
  5  6  2  0
  6  7  1  0
  7  8  2  0
  8  9  1  0
  8 10  1  0
 10 11  2  0
  4 12  1  0
 12 13  2  0
 13 14  1  0
 14 15  2  0
 14 16  1  0
 16 17  1  0
 17 18  1  0
 18 19  1  0
 19 20  1  6
 20 21  3  0
 19 22  1  0
 22 23  1  0
 22 24  2  0
 19 25  1  0
 13  2  1  0
 25 16  1  0
 11  5  1  0
  1 26  1  0
  1 27  1  0
  1 28  1  0
  6 29  1  0
  7 30  1  0
 10 31  1  0
 11 32  1  0
 12 33  1  0
 17 34  1  0
 17 35  1  0
 18 36  1  0
 18 37  1  0
 23 38  1  0
 23 39  1  0
 25 40  1  0
 25 41  1  0
M  END
>  <meeko>  (5) 
{"is_sidechain": [false], "free_energy": -7.804, "intermolecular_energy": -9.821, "internal_energy": -0.541}

$$$$
