ligand_94_conformer_3_docked
     RDKit          3D

 52 55  0  0  0  0  0  0  0  0999 V2000
   -2.8550   43.0040   57.8000 C   0  0  0  0  0  0  0  0  0  0  0  0
   -2.4760   44.4080   57.5660 N   0  0  0  0  0  0  0  0  0  0  0  0
   -3.5910   45.2080   56.9920 C   0  0  0  0  0  0  0  0  0  0  0  0
   -3.3820   45.6230   55.5210 C   0  0  0  0  0  0  0  0  0  0  0  0
   -2.7140   44.5050   54.7230 C   0  0  0  0  0  0  0  0  0  0  0  0
   -1.3430   44.1000   55.3360 C   0  0  1  0  0  0  0  0  0  0  0  0
   -0.1600   44.5480   54.5500 N   0  0  0  0  0  0  0  0  0  0  0  0
    0.7120   45.5300   55.2330 C   0  0  0  0  0  0  0  0  0  0  0  0
    2.0140   45.6910   54.4480 C   0  0  0  0  0  0  0  0  0  0  0  0
    1.7250   46.0150   53.0460 N   0  0  0  0  0  0  0  0  0  0  0  0
    2.6850   46.7980   52.3090 C   0  0  0  0  0  0  0  0  0  0  0  0
    3.1550   47.8490   52.8240 O   0  0  0  0  0  0  0  0  0  0  0  0
    3.2220   46.3390   50.9810 C   0  0  0  0  0  0  0  0  0  0  0  0
    4.6290   45.8570   51.1480 C   0  0  0  0  0  0  0  0  0  0  0  0
    5.1560   44.7830   50.4350 C   0  0  0  0  0  0  0  0  0  0  0  0
    6.7790   44.6390   50.8500 S   0  0  0  0  0  0  0  0  0  0  0  0
    6.7430   45.9500   51.9060 C   0  0  0  0  0  0  0  0  0  0  0  0
    7.8910   46.4620   52.6650 C   0  0  0  0  0  0  0  0  0  0  0  0
    9.2160   46.4410   52.2440 C   0  0  0  0  0  0  0  0  0  0  0  0
   10.1000   46.9920   53.1790 C   0  0  0  0  0  0  0  0  0  0  0  0
    9.4770   47.4460   54.3350 C   0  0  0  0  0  0  0  0  0  0  0  0
    7.8260   47.1610   54.1930 S   0  0  0  0  0  0  0  0  0  0  0  0
    5.5130   46.5050   51.9540 N   0  0  0  0  0  0  0  0  0  0  0  0
    0.7090   45.2210   52.3420 C   0  0  0  0  0  0  0  0  0  0  0  0
   -0.5380   45.0480   53.2130 C   0  0  0  0  0  0  0  0  0  0  0  0
   -1.2060   44.5300   56.8210 C   0  0  0  0  0  0  0  0  0  0  0  0
   -2.9064   42.8136   58.8822 H   0  0  0  0  0  0  0  0  0  0  0  0
   -3.8379   42.8090   57.3463 H   0  0  0  0  0  0  0  0  0  0  0  0
   -2.1037   42.3409   57.3463 H   0  0  0  0  0  0  0  0  0  0  0  0
   -4.5119   44.6096   57.0537 H   0  0  0  0  0  0  0  0  0  0  0  0
   -3.6458   46.1378   57.5772 H   0  0  0  0  0  0  0  0  0  0  0  0
   -4.3589   45.8517   55.0701 H   0  0  0  0  0  0  0  0  0  0  0  0
   -2.7283   46.5073   55.4973 H   0  0  0  0  0  0  0  0  0  0  0  0
   -3.3757   43.6263   54.7180 H   0  0  0  0  0  0  0  0  0  0  0  0
   -2.5375   44.8717   53.7010 H   0  0  0  0  0  0  0  0  0  0  0  0
   -1.3446   43.0010   55.2902 H   0  0  0  0  0  0  0  0  0  0  0  0
    0.1965   46.5000   55.2904 H   0  0  0  0  0  0  0  0  0  0  0  0
    0.9388   45.1736   56.2486 H   0  0  0  0  0  0  0  0  0  0  0  0
    2.6085   46.5024   54.8932 H   0  0  0  0  0  0  0  0  0  0  0  0
    2.5765   44.7466   54.4891 H   0  0  0  0  0  0  0  0  0  0  0  0
    2.5973   45.5191   50.5971 H   0  0  0  0  0  0  0  0  0  0  0  0
    3.2053   47.1784   50.2703 H   0  0  0  0  0  0  0  0  0  0  0  0
    4.6085   44.1434   49.7271 H   0  0  0  0  0  0  0  0  0  0  0  0
    9.5370   46.0327   51.2743 H   0  0  0  0  0  0  0  0  0  0  0  0
   11.1855   47.0592   53.0142 H   0  0  0  0  0  0  0  0  0  0  0  0
    9.9783   47.9122   55.1960 H   0  0  0  0  0  0  0  0  0  0  0  0
    0.4306   45.7346   51.4100 H   0  0  0  0  0  0  0  0  0  0  0  0
    1.1265   44.2280   52.1190 H   0  0  0  0  0  0  0  0  0  0  0  0
   -1.0455   46.0183   53.3179 H   0  0  0  0  0  0  0  0  0  0  0  0
   -1.2120   44.3217   52.7352 H   0  0  0  0  0  0  0  0  0  0  0  0
   -0.4511   43.8925   57.3044 H   0  0  0  0  0  0  0  0  0  0  0  0
   -0.9109   45.5896   56.8358 H   0  0  0  0  0  0  0  0  0  0  0  0
  1  2  1  0
  2  3  1  0
  3  4  1  0
  4  5  1  0
  5  6  1  0
  6  7  1  0
  7  8  1  0
  8  9  1  0
  9 10  1  0
 10 11  1  0
 11 12  2  0
 11 13  1  0
 13 14  1  0
 14 15  2  0
 15 16  1  0
 16 17  1  0
 17 18  1  0
 18 19  2  0
 19 20  1  0
 20 21  2  0
 21 22  1  0
 17 23  2  0
 10 24  1  0
 24 25  1  0
  6 26  1  0
 26  2  1  0
 25  7  1  0
 23 14  1  0
 22 18  1  0
  1 27  1  0
  1 28  1  0
  1 29  1  0
  3 30  1  0
  3 31  1  0
  4 32  1  0
  4 33  1  0
  5 34  1  0
  5 35  1  0
  6 36  1  1
  8 37  1  0
  8 38  1  0
  9 39  1  0
  9 40  1  0
 13 41  1  0
 13 42  1  0
 15 43  1  0
 19 44  1  0
 20 45  1  0
 21 46  1  0
 24 47  1  0
 24 48  1  0
 25 49  1  0
 25 50  1  0
 26 51  1  0
 26 52  1  0
M  END
>  <meeko>  (1) 
{"is_sidechain": [false], "free_energy": -8.291, "intermolecular_energy": -10.229, "internal_energy": -0.264}

$$$$
ligand_94_conformer_3_docked
     RDKit          3D

 52 55  0  0  0  0  0  0  0  0999 V2000
    9.9070   47.6170   54.8170 C   0  0  0  0  0  0  0  0  0  0  0  0
    9.6040   46.5280   53.8740 N   0  0  0  0  0  0  0  0  0  0  0  0
    9.9380   46.8850   52.4690 C   0  0  0  0  0  0  0  0  0  0  0  0
    8.7110   47.0910   51.5580 C   0  0  0  0  0  0  0  0  0  0  0  0
    7.5800   47.7930   52.3080 C   0  0  0  0  0  0  0  0  0  0  0  0
    7.1460   46.9960   53.5720 C   0  0  1  0  0  0  0  0  0  0  0  0
    5.8280   46.3110   53.4470 N   0  0  0  0  0  0  0  0  0  0  0  0
    5.0600   46.6470   52.2280 C   0  0  0  0  0  0  0  0  0  0  0  0
    3.8800   45.6850   52.0860 C   0  0  0  0  0  0  0  0  0  0  0  0
    3.0830   45.6740   53.3170 N   0  0  0  0  0  0  0  0  0  0  0  0
    1.6740   45.3840   53.2210 C   0  0  0  0  0  0  0  0  0  0  0  0
    0.9760   45.9760   52.3540 O   0  0  0  0  0  0  0  0  0  0  0  0
    1.0320   44.3140   54.0610 C   0  0  0  0  0  0  0  0  0  0  0  0
   -0.0200   44.9240   54.9330 C   0  0  0  0  0  0  0  0  0  0  0  0
   -1.3810   44.6720   54.7750 C   0  0  0  0  0  0  0  0  0  0  0  0
   -2.1960   45.4720   56.0090 S   0  0  0  0  0  0  0  0  0  0  0  0
   -0.7890   46.0930   56.6920 C   0  0  0  0  0  0  0  0  0  0  0  0
   -0.7250   46.9260   57.9000 C   0  0  0  0  0  0  0  0  0  0  0  0
    0.4150   47.1720   58.6560 C   0  0  0  0  0  0  0  0  0  0  0  0
    0.1770   47.9980   59.7610 C   0  0  0  0  0  0  0  0  0  0  0  0
   -1.1480   48.4030   59.8780 C   0  0  0  0  0  0  0  0  0  0  0  0
   -2.0210   47.7320   58.6070 S   0  0  0  0  0  0  0  0  0  0  0  0
    0.3030   45.7030   56.0010 N   0  0  0  0  0  0  0  0  0  0  0  0
    3.7840   45.5570   54.6020 C   0  0  0  0  0  0  0  0  0  0  0  0
    4.9880   46.5020   54.6460 C   0  0  0  0  0  0  0  0  0  0  0  0
    8.2360   45.9980   54.0480 C   0  0  0  0  0  0  0  0  0  0  0  0
    9.8044   47.2482   55.8482 H   0  0  0  0  0  0  0  0  0  0  0  0
   10.9368   47.9675   54.6537 H   0  0  0  0  0  0  0  0  0  0  0  0
    9.2062   48.4490   54.6537 H   0  0  0  0  0  0  0  0  0  0  0  0
   10.5198   47.8185   52.4797 H   0  0  0  0  0  0  0  0  0  0  0  0
   10.5001   46.0358   52.0532 H   0  0  0  0  0  0  0  0  0  0  0  0
    9.0043   47.7052   50.6938 H   0  0  0  0  0  0  0  0  0  0  0  0
    8.3518   46.1051   51.2279 H   0  0  0  0  0  0  0  0  0  0  0  0
    7.9229   48.7916   52.6166 H   0  0  0  0  0  0  0  0  0  0  0  0
    6.7139   47.8645   51.6336 H   0  0  0  0  0  0  0  0  0  0  0  0
    7.0193   47.7690   54.3443 H   0  0  0  0  0  0  0  0  0  0  0  0
    4.6849   47.6783   52.3039 H   0  0  0  0  0  0  0  0  0  0  0  0
    5.7132   46.5576   51.3475 H   0  0  0  0  0  0  0  0  0  0  0  0
    3.2470   46.0082   51.2465 H   0  0  0  0  0  0  0  0  0  0  0  0
    4.2644   44.6715   51.8988 H   0  0  0  0  0  0  0  0  0  0  0  0
    0.5719   43.5604   53.4050 H   0  0  0  0  0  0  0  0  0  0  0  0
    1.7967   43.8362   54.6910 H   0  0  0  0  0  0  0  0  0  0  0  0
   -1.8400   44.0596   53.9849 H   0  0  0  0  0  0  0  0  0  0  0  0
    1.4047   46.7592   58.4108 H   0  0  0  0  0  0  0  0  0  0  0  0
    0.9634   48.2980   60.4692 H   0  0  0  0  0  0  0  0  0  0  0  0
   -1.5556   49.0517   60.6673 H   0  0  0  0  0  0  0  0  0  0  0  0
    3.0915   45.8154   55.4166 H   0  0  0  0  0  0  0  0  0  0  0  0
    4.1399   44.5228   54.7194 H   0  0  0  0  0  0  0  0  0  0  0  0
    4.6326   47.5425   54.6791 H   0  0  0  0  0  0  0  0  0  0  0  0
    5.5857   46.2815   55.5427 H   0  0  0  0  0  0  0  0  0  0  0  0
    8.0746   45.7817   55.1144 H   0  0  0  0  0  0  0  0  0  0  0  0
    8.1489   45.0901   53.4331 H   0  0  0  0  0  0  0  0  0  0  0  0
  1  2  1  0
  2  3  1  0
  3  4  1  0
  4  5  1  0
  5  6  1  0
  6  7  1  0
  7  8  1  0
  8  9  1  0
  9 10  1  0
 10 11  1  0
 11 12  2  0
 11 13  1  0
 13 14  1  0
 14 15  2  0
 15 16  1  0
 16 17  1  0
 17 18  1  0
 18 19  2  0
 19 20  1  0
 20 21  2  0
 21 22  1  0
 17 23  2  0
 10 24  1  0
 24 25  1  0
  6 26  1  0
 26  2  1  0
 25  7  1  0
 23 14  1  0
 22 18  1  0
  1 27  1  0
  1 28  1  0
  1 29  1  0
  3 30  1  0
  3 31  1  0
  4 32  1  0
  4 33  1  0
  5 34  1  0
  5 35  1  0
  6 36  1  1
  8 37  1  0
  8 38  1  0
  9 39  1  0
  9 40  1  0
 13 41  1  0
 13 42  1  0
 15 43  1  0
 19 44  1  0
 20 45  1  0
 21 46  1  0
 24 47  1  0
 24 48  1  0
 25 49  1  0
 25 50  1  0
 26 51  1  0
 26 52  1  0
M  END
>  <meeko>  (2) 
{"is_sidechain": [false], "free_energy": -8.058, "intermolecular_energy": -9.554, "internal_energy": -0.651}

$$$$
ligand_94_conformer_3_docked
     RDKit          3D

 52 55  0  0  0  0  0  0  0  0999 V2000
    9.4440   48.2750   54.9970 C   0  0  0  0  0  0  0  0  0  0  0  0
    9.4130   46.9400   54.3760 N   0  0  0  0  0  0  0  0  0  0  0  0
   10.1720   46.8920   53.0970 C   0  0  0  0  0  0  0  0  0  0  0  0
    9.2900   46.7430   51.8410 C   0  0  0  0  0  0  0  0  0  0  0  0
    8.0050   47.5590   51.9710 C   0  0  0  0  0  0  0  0  0  0  0  0
    7.1810   47.1400   53.2230 C   0  0  1  0  0  0  0  0  0  0  0  0
    5.9460   46.3650   52.9170 N   0  0  0  0  0  0  0  0  0  0  0  0
    5.8280   45.0670   53.6180 C   0  0  0  0  0  0  0  0  0  0  0  0
    4.4150   44.5140   53.4370 C   0  0  0  0  0  0  0  0  0  0  0  0
    4.0680   44.4620   52.0130 N   0  0  0  0  0  0  0  0  0  0  0  0
    3.1350   43.4560   51.5690 C   0  0  0  0  0  0  0  0  0  0  0  0
    3.2900   42.2610   51.9370 O   0  0  0  0  0  0  0  0  0  0  0  0
    1.9200   43.8140   50.7590 C   0  0  0  0  0  0  0  0  0  0  0  0
    0.7140   43.8350   51.6460 C   0  0  0  0  0  0  0  0  0  0  0  0
   -0.4790   43.1900   51.3250 C   0  0  0  0  0  0  0  0  0  0  0  0
   -1.5300   43.3830   52.6230 S   0  0  0  0  0  0  0  0  0  0  0  0
   -0.4240   44.2650   53.5350 C   0  0  0  0  0  0  0  0  0  0  0  0
   -0.6600   44.7850   54.8880 C   0  0  0  0  0  0  0  0  0  0  0  0
    0.3240   45.0890   55.8230 C   0  0  0  0  0  0  0  0  0  0  0  0
   -0.1950   45.5600   57.0350 C   0  0  0  0  0  0  0  0  0  0  0  0
   -1.5830   45.6260   57.0590 C   0  0  0  0  0  0  0  0  0  0  0  0
   -2.1640   45.0990   55.5730 S   0  0  0  0  0  0  0  0  0  0  0  0
    0.7420   44.4210   52.8730 N   0  0  0  0  0  0  0  0  0  0  0  0
    4.3470   45.6420   51.1840 C   0  0  0  0  0  0  0  0  0  0  0  0
    5.7530   46.1770   51.4650 C   0  0  0  0  0  0  0  0  0  0  0  0
    8.0420   46.3970   54.2790 C   0  0  0  0  0  0  0  0  0  0  0  0
    9.4416   48.1702   56.0920 H   0  0  0  0  0  0  0  0  0  0  0  0
   10.3547   48.8051   54.6814 H   0  0  0  0  0  0  0  0  0  0  0  0
    8.5589   48.8468   54.6814 H   0  0  0  0  0  0  0  0  0  0  0  0
   10.7495   47.8236   53.0039 H   0  0  0  0  0  0  0  0  0  0  0  0
   10.8094   45.9967   53.1424 H   0  0  0  0  0  0  0  0  0  0  0  0
    9.8520   47.0954   50.9635 H   0  0  0  0  0  0  0  0  0  0  0  0
    9.0204   45.6826   51.7273 H   0  0  0  0  0  0  0  0  0  0  0  0
    8.2662   48.6241   52.0563 H   0  0  0  0  0  0  0  0  0  0  0  0
    7.3897   47.3742   51.0781 H   0  0  0  0  0  0  0  0  0  0  0  0
    6.8468   48.0952   53.6542 H   0  0  0  0  0  0  0  0  0  0  0  0
    6.5557   44.3568   53.1985 H   0  0  0  0  0  0  0  0  0  0  0  0
    6.0299   45.2106   54.6897 H   0  0  0  0  0  0  0  0  0  0  0  0
    4.3652   43.4998   53.8600 H   0  0  0  0  0  0  0  0  0  0  0  0
    3.7033   45.1735   53.9552 H   0  0  0  0  0  0  0  0  0  0  0  0
    2.0602   44.8075   50.3080 H   0  0  0  0  0  0  0  0  0  0  0  0
    1.7768   43.0664   49.9649 H   0  0  0  0  0  0  0  0  0  0  0  0
   -0.6943   42.6514   50.3903 H   0  0  0  0  0  0  0  0  0  0  0  0
    1.4005   44.9713   55.6298 H   0  0  0  0  0  0  0  0  0  0  0  0
    0.4362   45.8504   57.8878 H   0  0  0  0  0  0  0  0  0  0  0  0
   -2.1967   45.9654   57.9064 H   0  0  0  0  0  0  0  0  0  0  0  0
    4.2714   45.3641   50.1224 H   0  0  0  0  0  0  0  0  0  0  0  0
    3.6143   46.4262   51.4250 H   0  0  0  0  0  0  0  0  0  0  0  0
    6.4969   45.4589   51.0895 H   0  0  0  0  0  0  0  0  0  0  0  0
    5.8767   47.1453   50.9580 H   0  0  0  0  0  0  0  0  0  0  0  0
    7.5550   46.4915   55.2608 H   0  0  0  0  0  0  0  0  0  0  0  0
    8.1207   45.3455   53.9657 H   0  0  0  0  0  0  0  0  0  0  0  0
  1  2  1  0
  2  3  1  0
  3  4  1  0
  4  5  1  0
  5  6  1  0
  6  7  1  0
  7  8  1  0
  8  9  1  0
  9 10  1  0
 10 11  1  0
 11 12  2  0
 11 13  1  0
 13 14  1  0
 14 15  2  0
 15 16  1  0
 16 17  1  0
 17 18  1  0
 18 19  2  0
 19 20  1  0
 20 21  2  0
 21 22  1  0
 17 23  2  0
 10 24  1  0
 24 25  1  0
  6 26  1  0
 26  2  1  0
 25  7  1  0
 23 14  1  0
 22 18  1  0
  1 27  1  0
  1 28  1  0
  1 29  1  0
  3 30  1  0
  3 31  1  0
  4 32  1  0
  4 33  1  0
  5 34  1  0
  5 35  1  0
  6 36  1  1
  8 37  1  0
  8 38  1  0
  9 39  1  0
  9 40  1  0
 13 41  1  0
 13 42  1  0
 15 43  1  0
 19 44  1  0
 20 45  1  0
 21 46  1  0
 24 47  1  0
 24 48  1  0
 25 49  1  0
 25 50  1  0
 26 51  1  0
 26 52  1  0
M  END
>  <meeko>  (3) 
{"is_sidechain": [false], "free_energy": -7.873, "intermolecular_energy": -9.255, "internal_energy": -0.723}

$$$$
ligand_94_conformer_3_docked
     RDKit          3D

 52 55  0  0  0  0  0  0  0  0999 V2000
   10.1260   47.5430   54.7180 C   0  0  0  0  0  0  0  0  0  0  0  0
    9.6640   46.5020   53.7840 N   0  0  0  0  0  0  0  0  0  0  0  0
    9.8780   46.8810   52.3610 C   0  0  0  0  0  0  0  0  0  0  0  0
    8.5810   47.1860   51.5850 C   0  0  0  0  0  0  0  0  0  0  0  0
    7.5760   47.9300   52.4620 C   0  0  0  0  0  0  0  0  0  0  0  0
    7.2220   47.1220   53.7440 C   0  0  1  0  0  0  0  0  0  0  0  0
    5.8590   46.5200   53.7370 N   0  0  0  0  0  0  0  0  0  0  0  0
    4.7440   47.4910   53.8030 C   0  0  0  0  0  0  0  0  0  0  0  0
    3.4250   46.7760   53.5110 C   0  0  0  0  0  0  0  0  0  0  0  0
    3.2680   45.6170   54.3950 N   0  0  0  0  0  0  0  0  0  0  0  0
    1.9350   45.1970   54.7490 C   0  0  0  0  0  0  0  0  0  0  0  0
    1.0980   46.0540   55.1400 O   0  0  0  0  0  0  0  0  0  0  0  0
    1.4840   43.7740   54.5660 C   0  0  0  0  0  0  0  0  0  0  0  0
    1.6570   43.3730   53.1340 C   0  0  0  0  0  0  0  0  0  0  0  0
    0.6490   43.4970   52.1810 C   0  0  0  0  0  0  0  0  0  0  0  0
    1.2860   43.0270   50.6970 S   0  0  0  0  0  0  0  0  0  0  0  0
    2.8120   42.6980   51.3280 C   0  0  0  0  0  0  0  0  0  0  0  0
    3.9710   42.2370   50.5530 C   0  0  0  0  0  0  0  0  0  0  0  0
    5.2500   42.7790   50.6080 C   0  0  0  0  0  0  0  0  0  0  0  0
    6.1560   42.1420   49.7510 C   0  0  0  0  0  0  0  0  0  0  0  0
    5.5940   41.1020   49.0210 C   0  0  0  0  0  0  0  0  0  0  0  0
    3.9710   40.9750   49.4410 S   0  0  0  0  0  0  0  0  0  0  0  0
    2.8550   42.9390   52.6560 N   0  0  0  0  0  0  0  0  0  0  0  0
    4.4070   44.7040   54.5590 C   0  0  0  0  0  0  0  0  0  0  0  0
    5.7010   45.4920   54.7840 C   0  0  0  0  0  0  0  0  0  0  0  0
    8.2900   46.0480   54.0830 C   0  0  0  0  0  0  0  0  0  0  0  0
    9.9742   47.2010   55.7524 H   0  0  0  0  0  0  0  0  0  0  0  0
   11.1953   47.7384   54.5495 H   0  0  0  0  0  0  0  0  0  0  0  0
    9.5535   48.4670   54.5495 H   0  0  0  0  0  0  0  0  0  0  0  0
   10.5143   47.7779   52.3351 H   0  0  0  0  0  0  0  0  0  0  0  0
   10.3430   46.0135   51.8699 H   0  0  0  0  0  0  0  0  0  0  0  0
    8.8236   47.8076   50.7105 H   0  0  0  0  0  0  0  0  0  0  0  0
    8.1307   46.2331   51.2700 H   0  0  0  0  0  0  0  0  0  0  0  0
    8.0086   48.8970   52.7582 H   0  0  0  0  0  0  0  0  0  0  0  0
    6.6531   48.0725   51.8807 H   0  0  0  0  0  0  0  0  0  0  0  0
    7.2209   47.8777   54.5433 H   0  0  0  0  0  0  0  0  0  0  0  0
    4.7048   47.9359   54.8082 H   0  0  0  0  0  0  0  0  0  0  0  0
    4.9039   48.2829   53.0564 H   0  0  0  0  0  0  0  0  0  0  0  0
    2.5902   47.4733   53.6751 H   0  0  0  0  0  0  0  0  0  0  0  0
    3.4284   46.4314   52.4664 H   0  0  0  0  0  0  0  0  0  0  0  0
    2.0869   43.1136   55.2066 H   0  0  0  0  0  0  0  0  0  0  0  0
    0.4232   43.6882   54.8440 H   0  0  0  0  0  0  0  0  0  0  0  0
   -0.3795   43.8407   52.3657 H   0  0  0  0  0  0  0  0  0  0  0  0
    5.5227   43.6228   51.2588 H   0  0  0  0  0  0  0  0  0  0  0  0
    7.2121   42.4370   49.6641 H   0  0  0  0  0  0  0  0  0  0  0  0
    6.1214   40.4692   48.2920 H   0  0  0  0  0  0  0  0  0  0  0  0
    4.2256   44.0516   55.4259 H   0  0  0  0  0  0  0  0  0  0  0  0
    4.5130   44.1013   53.6450 H   0  0  0  0  0  0  0  0  0  0  0  0
    5.6631   45.9795   55.7694 H   0  0  0  0  0  0  0  0  0  0  0  0
    6.5552   44.8003   54.7404 H   0  0  0  0  0  0  0  0  0  0  0  0
    8.2227   45.8096   55.1547 H   0  0  0  0  0  0  0  0  0  0  0  0
    8.0864   45.1655   53.4587 H   0  0  0  0  0  0  0  0  0  0  0  0
  1  2  1  0
  2  3  1  0
  3  4  1  0
  4  5  1  0
  5  6  1  0
  6  7  1  0
  7  8  1  0
  8  9  1  0
  9 10  1  0
 10 11  1  0
 11 12  2  0
 11 13  1  0
 13 14  1  0
 14 15  2  0
 15 16  1  0
 16 17  1  0
 17 18  1  0
 18 19  2  0
 19 20  1  0
 20 21  2  0
 21 22  1  0
 17 23  2  0
 10 24  1  0
 24 25  1  0
  6 26  1  0
 26  2  1  0
 25  7  1  0
 23 14  1  0
 22 18  1  0
  1 27  1  0
  1 28  1  0
  1 29  1  0
  3 30  1  0
  3 31  1  0
  4 32  1  0
  4 33  1  0
  5 34  1  0
  5 35  1  0
  6 36  1  1
  8 37  1  0
  8 38  1  0
  9 39  1  0
  9 40  1  0
 13 41  1  0
 13 42  1  0
 15 43  1  0
 19 44  1  0
 20 45  1  0
 21 46  1  0
 24 47  1  0
 24 48  1  0
 25 49  1  0
 25 50  1  0
 26 51  1  0
 26 52  1  0
M  END
>  <meeko>  (4) 
{"is_sidechain": [false], "free_energy": -7.842, "intermolecular_energy": -9.735, "internal_energy": -0.205}

$$$$
ligand_94_conformer_3_docked
     RDKit          3D

 52 55  0  0  0  0  0  0  0  0999 V2000
   -2.2130   45.2530   52.8170 C   0  0  0  0  0  0  0  0  0  0  0  0
   -1.2470   44.3910   52.1150 N   0  0  0  0  0  0  0  0  0  0  0  0
   -1.2450   42.9990   52.6380 C   0  0  0  0  0  0  0  0  0  0  0  0
    0.0270   42.6180   53.4220 C   0  0  0  0  0  0  0  0  0  0  0  0
    0.5200   43.7870   54.2730 C   0  0  0  0  0  0  0  0  0  0  0  0
    0.8140   45.0450   53.4070 C   0  0  1  0  0  0  0  0  0  0  0  0
    2.2630   45.3470   53.2310 N   0  0  0  0  0  0  0  0  0  0  0  0
    3.1140   45.0530   54.4050 C   0  0  0  0  0  0  0  0  0  0  0  0
    4.5860   45.1410   54.0050 C   0  0  0  0  0  0  0  0  0  0  0  0
    4.8650   46.4320   53.3690 N   0  0  0  0  0  0  0  0  0  0  0  0
    6.1910   46.9860   53.4860 C   0  0  0  0  0  0  0  0  0  0  0  0
    6.7510   47.0210   54.6150 O   0  0  0  0  0  0  0  0  0  0  0  0
    6.9680   47.4280   52.2770 C   0  0  0  0  0  0  0  0  0  0  0  0
    7.2480   46.2480   51.4000 C   0  0  0  0  0  0  0  0  0  0  0  0
    8.4900   46.0110   50.8150 C   0  0  0  0  0  0  0  0  0  0  0  0
    8.3990   44.5440   49.9980 S   0  0  0  0  0  0  0  0  0  0  0  0
    6.7950   44.2720   50.4300 C   0  0  0  0  0  0  0  0  0  0  0  0
    6.0060   43.0880   50.0650 C   0  0  0  0  0  0  0  0  0  0  0  0
    6.2810   42.2240   49.0120 C   0  0  0  0  0  0  0  0  0  0  0  0
    5.3510   41.1840   48.8960 C   0  0  0  0  0  0  0  0  0  0  0  0
    4.3450   41.2260   49.8530 C   0  0  0  0  0  0  0  0  0  0  0  0
    4.6120   42.5580   50.8430 S   0  0  0  0  0  0  0  0  0  0  0  0
    6.3160   45.2780   51.1920 N   0  0  0  0  0  0  0  0  0  0  0  0
    3.9440   46.9100   52.3290 C   0  0  0  0  0  0  0  0  0  0  0  0
    2.4900   46.7330   52.7730 C   0  0  0  0  0  0  0  0  0  0  0  0
    0.0950   45.0020   52.0330 C   0  0  0  0  0  0  0  0  0  0  0  0
   -2.0847   45.1385   53.9035 H   0  0  0  0  0  0  0  0  0  0  0  0
   -2.0399   46.3023   52.5359 H   0  0  0  0  0  0  0  0  0  0  0  0
   -3.2359   44.9620   52.5359 H   0  0  0  0  0  0  0  0  0  0  0  0
   -2.1103   42.8809   53.3068 H   0  0  0  0  0  0  0  0  0  0  0  0
   -1.2872   42.3335   51.7631 H   0  0  0  0  0  0  0  0  0  0  0  0
   -0.1981   41.7651   54.0792 H   0  0  0  0  0  0  0  0  0  0  0  0
    0.8152   42.3538   52.7016 H   0  0  0  0  0  0  0  0  0  0  0  0
   -0.2518   44.0378   55.0156 H   0  0  0  0  0  0  0  0  0  0  0  0
    1.4558   43.4827   54.7646 H   0  0  0  0  0  0  0  0  0  0  0  0
    0.3949   45.8762   53.9930 H   0  0  0  0  0  0  0  0  0  0  0  0
    2.9062   45.7841   55.2002 H   0  0  0  0  0  0  0  0  0  0  0  0
    2.8945   44.0391   54.7709 H   0  0  0  0  0  0  0  0  0  0  0  0
    5.2127   45.0360   54.9029 H   0  0  0  0  0  0  0  0  0  0  0  0
    4.8113   44.3348   53.2913 H   0  0  0  0  0  0  0  0  0  0  0  0
    6.3809   48.1699   51.7158 H   0  0  0  0  0  0  0  0  0  0  0  0
    7.9191   47.8774   52.5987 H   0  0  0  0  0  0  0  0  0  0  0  0
    9.3717   46.6658   50.8765 H   0  0  0  0  0  0  0  0  0  0  0  0
    7.1419   42.3449   48.3381 H   0  0  0  0  0  0  0  0  0  0  0  0
    5.4112   40.4067   48.1200 H   0  0  0  0  0  0  0  0  0  0  0  0
    3.5153   40.5099   49.9469 H   0  0  0  0  0  0  0  0  0  0  0  0
    4.1363   47.9761   52.1382 H   0  0  0  0  0  0  0  0  0  0  0  0
    4.1086   46.3234   51.4132 H   0  0  0  0  0  0  0  0  0  0  0  0
    2.2744   47.4284   53.5976 H   0  0  0  0  0  0  0  0  0  0  0  0
    1.8260   46.9437   51.9217 H   0  0  0  0  0  0  0  0  0  0  0  0
   -0.0082   46.0305   51.6567 H   0  0  0  0  0  0  0  0  0  0  0  0
    0.7031   44.3827   51.3572 H   0  0  0  0  0  0  0  0  0  0  0  0
  1  2  1  0
  2  3  1  0
  3  4  1  0
  4  5  1  0
  5  6  1  0
  6  7  1  0
  7  8  1  0
  8  9  1  0
  9 10  1  0
 10 11  1  0
 11 12  2  0
 11 13  1  0
 13 14  1  0
 14 15  2  0
 15 16  1  0
 16 17  1  0
 17 18  1  0
 18 19  2  0
 19 20  1  0
 20 21  2  0
 21 22  1  0
 17 23  2  0
 10 24  1  0
 24 25  1  0
  6 26  1  0
 26  2  1  0
 25  7  1  0
 23 14  1  0
 22 18  1  0
  1 27  1  0
  1 28  1  0
  1 29  1  0
  3 30  1  0
  3 31  1  0
  4 32  1  0
  4 33  1  0
  5 34  1  0
  5 35  1  0
  6 36  1  1
  8 37  1  0
  8 38  1  0
  9 39  1  0
  9 40  1  0
 13 41  1  0
 13 42  1  0
 15 43  1  0
 19 44  1  0
 20 45  1  0
 21 46  1  0
 24 47  1  0
 24 48  1  0
 25 49  1  0
 25 50  1  0
 26 51  1  0
 26 52  1  0
M  END
>  <meeko>  (5) 
{"is_sidechain": [false], "free_energy": -7.457, "intermolecular_energy": -9.535, "internal_energy": 0.071}

$$$$
