ligand_68_conformer_5_docked
     RDKit          3D

 49 51  0  0  0  0  0  0  0  0999 V2000
   10.9840   47.7650   56.0970 C   0  0  0  0  0  0  0  0  0  0  0  0
    9.8590   47.6370   55.1220 C   0  0  0  0  0  0  0  0  0  0  0  0
    8.8620   48.4010   55.2240 O   0  0  0  0  0  0  0  0  0  0  0  0
    9.9660   46.7130   54.0270 N   0  0  0  0  0  0  0  0  0  0  0  0
    8.8790   46.3750   53.1490 C   0  0  0  0  0  0  0  0  0  0  0  0
    7.6180   46.0040   53.6490 C   0  0  0  0  0  0  0  0  0  0  0  0
    6.5860   45.6550   52.7740 C   0  0  0  0  0  0  0  0  0  0  0  0
    6.7990   45.6620   51.3870 C   0  0  0  0  0  0  0  0  0  0  0  0
    5.6910   45.2530   50.4550 C   0  0  0  0  0  0  0  0  0  0  0  0
    4.5650   44.7190   51.2170 N   0  0  0  0  0  0  0  0  0  0  0  0
    3.2820   45.3630   51.2430 C   0  0  0  0  0  0  0  0  0  0  0  0
    3.1360   46.4980   50.7110 O   0  0  0  0  0  0  0  0  0  0  0  0
    2.0940   44.7010   51.8930 C   0  0  0  0  0  0  0  0  0  0  0  0
    0.9460   45.7050   52.1040 C   0  0  0  0  0  0  0  0  0  0  0  0
   -0.2540   45.0160   52.7590 C   0  0  0  0  0  0  0  0  0  0  0  0
    0.1650   44.3200   53.9860 N   0  0  0  0  0  0  0  0  0  0  0  0
   -0.7170   44.2560   55.1220 C   0  0  0  0  0  0  0  0  0  0  0  0
   -0.4000   44.9070   56.3250 C   0  0  0  0  0  0  0  0  0  0  0  0
   -1.2510   44.8150   57.3810 N   0  0  0  0  0  0  0  0  0  0  0  0
   -2.4040   44.1020   57.2990 C   0  0  0  0  0  0  0  0  0  0  0  0
   -2.7170   43.4420   56.1100 C   0  0  0  0  0  0  0  0  0  0  0  0
   -1.8680   43.5320   55.0530 N   0  0  0  0  0  0  0  0  0  0  0  0
    1.2840   43.3730   53.8860 C   0  0  0  0  0  0  0  0  0  0  0  0
    2.4930   44.0450   53.2270 C   0  0  0  0  0  0  0  0  0  0  0  0
    8.0640   46.0030   50.8880 C   0  0  0  0  0  0  0  0  0  0  0  0
    9.0960   46.3510   51.7630 C   0  0  0  0  0  0  0  0  0  0  0  0
   10.5877   47.7199   57.1221 H   0  0  0  0  0  0  0  0  0  0  0  0
   11.6978   46.9423   55.9433 H   0  0  0  0  0  0  0  0  0  0  0  0
   11.4947   48.7270   55.9433 H   0  0  0  0  0  0  0  0  0  0  0  0
   10.9120   46.3250   53.8110 H   0  0  0  0  0  0  0  0  0  0  0  0
    7.4431   45.9885   54.7349 H   0  0  0  0  0  0  0  0  0  0  0  0
    5.6011   45.3732   53.1747 H   0  0  0  0  0  0  0  0  0  0  0  0
    5.3578   46.1292   49.8794 H   0  0  0  0  0  0  0  0  0  0  0  0
    6.0640   44.4758   49.7717 H   0  0  0  0  0  0  0  0  0  0  0  0
    4.7020   43.8190   51.7290 H   0  0  0  0  0  0  0  0  0  0  0  0
    1.7363   43.9126   51.2144 H   0  0  0  0  0  0  0  0  0  0  0  0
    1.2939   46.5216   52.7538 H   0  0  0  0  0  0  0  0  0  0  0  0
    0.6377   46.1041   51.1264 H   0  0  0  0  0  0  0  0  0  0  0  0
   -1.0131   45.7711   53.0111 H   0  0  0  0  0  0  0  0  0  0  0  0
   -0.6731   44.2813   52.0557 H   0  0  0  0  0  0  0  0  0  0  0  0
    0.5304   45.4873   56.4123 H   0  0  0  0  0  0  0  0  0  0  0  0
   -3.0845   44.0453   58.1614 H   0  0  0  0  0  0  0  0  0  0  0  0
   -3.6431   42.8539   56.0292 H   0  0  0  0  0  0  0  0  0  0  0  0
    1.5628   43.0332   54.8944 H   0  0  0  0  0  0  0  0  0  0  0  0
    0.9727   42.5154   53.2716 H   0  0  0  0  0  0  0  0  0  0  0  0
    2.8901   44.8161   53.9035 H   0  0  0  0  0  0  0  0  0  0  0  0
    3.2573   43.2792   53.0286 H   0  0  0  0  0  0  0  0  0  0  0  0
    8.2447   45.9965   49.8030 H   0  0  0  0  0  0  0  0  0  0  0  0
   10.0874   46.6084   51.3618 H   0  0  0  0  0  0  0  0  0  0  0  0
  1  2  1  0
  2  3  2  0
  2  4  1  0
  4  5  1  0
  5  6  2  0
  6  7  1  0
  7  8  2  0
  8  9  1  0
  9 10  1  0
 10 11  1  0
 11 12  2  0
 11 13  1  0
 13 14  1  0
 14 15  1  0
 15 16  1  0
 16 17  1  0
 17 18  2  0
 18 19  1  0
 19 20  2  0
 20 21  1  0
 21 22  2  0
 16 23  1  0
 23 24  1  0
  8 25  1  0
 25 26  2  0
 26  5  1  0
 24 13  1  0
 22 17  1  0
  1 27  1  0
  1 28  1  0
  1 29  1  0
  4 30  1  0
  6 31  1  0
  7 32  1  0
  9 33  1  0
  9 34  1  0
 10 35  1  0
 13 36  1  0
 14 37  1  0
 14 38  1  0
 15 39  1  0
 15 40  1  0
 18 41  1  0
 20 42  1  0
 21 43  1  0
 23 44  1  0
 23 45  1  0
 24 46  1  0
 24 47  1  0
 25 48  1  0
 26 49  1  0
M  END
>  <meeko>  (1) 
{"is_sidechain": [false], "free_energy": -8.883, "intermolecular_energy": -11.48, "internal_energy": -0.499}

$$$$
ligand_68_conformer_5_docked
     RDKit          3D

 49 51  0  0  0  0  0  0  0  0999 V2000
   11.0260   47.6800   56.0510 C   0  0  0  0  0  0  0  0  0  0  0  0
    9.8690   47.6100   55.1080 C   0  0  0  0  0  0  0  0  0  0  0  0
    8.9190   48.4300   55.2330 O   0  0  0  0  0  0  0  0  0  0  0  0
    9.8920   46.6760   54.0170 N   0  0  0  0  0  0  0  0  0  0  0  0
    8.7640   46.3950   53.1720 C   0  0  0  0  0  0  0  0  0  0  0  0
    8.8720   46.4190   51.7690 C   0  0  0  0  0  0  0  0  0  0  0  0
    7.7540   46.1680   50.9700 C   0  0  0  0  0  0  0  0  0  0  0  0
    6.5090   45.8980   51.5570 C   0  0  0  0  0  0  0  0  0  0  0  0
    5.3040   45.6610   50.6880 C   0  0  0  0  0  0  0  0  0  0  0  0
    4.1680   45.2470   51.5080 N   0  0  0  0  0  0  0  0  0  0  0  0
    3.8270   43.8650   51.7040 C   0  0  0  0  0  0  0  0  0  0  0  0
    4.4270   42.9690   51.0480 O   0  0  0  0  0  0  0  0  0  0  0  0
    2.7610   43.4610   52.6910 C   0  0  0  0  0  0  0  0  0  0  0  0
    1.4970   42.9630   51.9690 C   0  0  0  0  0  0  0  0  0  0  0  0
    0.4270   42.5520   52.9840 C   0  0  0  0  0  0  0  0  0  0  0  0
    0.1800   43.6470   53.9340 N   0  0  0  0  0  0  0  0  0  0  0  0
   -1.1450   43.8750   54.4500 C   0  0  0  0  0  0  0  0  0  0  0  0
   -1.3460   44.3310   55.7630 C   0  0  0  0  0  0  0  0  0  0  0  0
   -2.6110   44.5240   56.2190 N   0  0  0  0  0  0  0  0  0  0  0  0
   -3.6910   44.2820   55.4320 C   0  0  0  0  0  0  0  0  0  0  0  0
   -3.4980   43.8150   54.1310 C   0  0  0  0  0  0  0  0  0  0  0  0
   -2.2340   43.6210   53.6720 N   0  0  0  0  0  0  0  0  0  0  0  0
    1.3370   44.2150   54.6400 C   0  0  0  0  0  0  0  0  0  0  0  0
    2.4200   44.6260   53.6370 C   0  0  0  0  0  0  0  0  0  0  0  0
    6.3920   45.9020   52.9540 C   0  0  0  0  0  0  0  0  0  0  0  0
    7.5110   46.1550   53.7540 C   0  0  0  0  0  0  0  0  0  0  0  0
   10.6566   47.6577   57.0869 H   0  0  0  0  0  0  0  0  0  0  0  0
   11.6908   46.8204   55.8802 H   0  0  0  0  0  0  0  0  0  0  0  0
   11.5823   48.6134   55.8802 H   0  0  0  0  0  0  0  0  0  0  0  0
   10.8080   46.2340   53.7770 H   0  0  0  0  0  0  0  0  0  0  0  0
    9.8424   46.6367   51.2989 H   0  0  0  0  0  0  0  0  0  0  0  0
    7.8505   46.1822   49.8743 H   0  0  0  0  0  0  0  0  0  0  0  0
    5.0500   46.5901   50.1568 H   0  0  0  0  0  0  0  0  0  0  0  0
    5.5335   44.8664   49.9628 H   0  0  0  0  0  0  0  0  0  0  0  0
    3.6140   45.9890   51.9900 H   0  0  0  0  0  0  0  0  0  0  0  0
    3.1589   42.6311   53.2935 H   0  0  0  0  0  0  0  0  0  0  0  0
    1.1021   43.7689   51.3329 H   0  0  0  0  0  0  0  0  0  0  0  0
    1.7591   42.0891   51.3545 H   0  0  0  0  0  0  0  0  0  0  0  0
   -0.5063   42.3151   52.4521 H   0  0  0  0  0  0  0  0  0  0  0  0
    0.7785   41.6690   53.5379 H   0  0  0  0  0  0  0  0  0  0  0  0
   -0.4849   44.5305   56.4178 H   0  0  0  0  0  0  0  0  0  0  0  0
   -4.7076   44.4523   55.8160 H   0  0  0  0  0  0  0  0  0  0  0  0
   -4.3618   43.6058   53.4828 H   0  0  0  0  0  0  0  0  0  0  0  0
    1.0162   45.0989   55.2108 H   0  0  0  0  0  0  0  0  0  0  0  0
    1.7489   43.4565   55.3219 H   0  0  0  0  0  0  0  0  0  0  0  0
    2.0568   45.4778   53.0433 H   0  0  0  0  0  0  0  0  0  0  0  0
    3.3272   44.9050   54.1931 H   0  0  0  0  0  0  0  0  0  0  0  0
    5.4165   45.7054   53.4227 H   0  0  0  0  0  0  0  0  0  0  0  0
    7.4073   46.1658   54.8490 H   0  0  0  0  0  0  0  0  0  0  0  0
  1  2  1  0
  2  3  2  0
  2  4  1  0
  4  5  1  0
  5  6  2  0
  6  7  1  0
  7  8  2  0
  8  9  1  0
  9 10  1  0
 10 11  1  0
 11 12  2  0
 11 13  1  0
 13 14  1  0
 14 15  1  0
 15 16  1  0
 16 17  1  0
 17 18  2  0
 18 19  1  0
 19 20  2  0
 20 21  1  0
 21 22  2  0
 16 23  1  0
 23 24  1  0
  8 25  1  0
 25 26  2  0
 26  5  1  0
 24 13  1  0
 22 17  1  0
  1 27  1  0
  1 28  1  0
  1 29  1  0
  4 30  1  0
  6 31  1  0
  7 32  1  0
  9 33  1  0
  9 34  1  0
 10 35  1  0
 13 36  1  0
 14 37  1  0
 14 38  1  0
 15 39  1  0
 15 40  1  0
 18 41  1  0
 20 42  1  0
 21 43  1  0
 23 44  1  0
 23 45  1  0
 24 46  1  0
 24 47  1  0
 25 48  1  0
 26 49  1  0
M  END
>  <meeko>  (2) 
{"is_sidechain": [false], "free_energy": -8.564, "intermolecular_energy": -11.099, "internal_energy": -0.467}

$$$$
ligand_68_conformer_5_docked
     RDKit          3D

 49 51  0  0  0  0  0  0  0  0999 V2000
   11.3890   47.7190   56.4720 C   0  0  0  0  0  0  0  0  0  0  0  0
   10.1650   47.7820   55.6170 C   0  0  0  0  0  0  0  0  0  0  0  0
    9.2820   48.6490   55.8630 O   0  0  0  0  0  0  0  0  0  0  0  0
   10.0480   46.9210   54.4730 N   0  0  0  0  0  0  0  0  0  0  0  0
    8.8460   46.7660   53.7000 C   0  0  0  0  0  0  0  0  0  0  0  0
    7.5800   46.7220   54.3110 C   0  0  0  0  0  0  0  0  0  0  0  0
    6.4280   46.5440   53.5400 C   0  0  0  0  0  0  0  0  0  0  0  0
    6.5230   46.3980   52.1480 C   0  0  0  0  0  0  0  0  0  0  0  0
    5.2810   46.1740   51.3290 C   0  0  0  0  0  0  0  0  0  0  0  0
    5.3500   44.8780   50.6570 N   0  0  0  0  0  0  0  0  0  0  0  0
    5.0260   43.6490   51.3260 C   0  0  0  0  0  0  0  0  0  0  0  0
    4.8050   43.6480   52.5690 O   0  0  0  0  0  0  0  0  0  0  0  0
    4.9370   42.3520   50.5650 C   0  0  0  0  0  0  0  0  0  0  0  0
    5.5350   42.4940   49.1540 C   0  0  0  0  0  0  0  0  0  0  0  0
    5.4420   41.1670   48.3960 C   0  0  0  0  0  0  0  0  0  0  0  0
    4.0580   40.6690   48.4100 N   0  0  0  0  0  0  0  0  0  0  0  0
    3.5280   39.9650   47.2720 C   0  0  0  0  0  0  0  0  0  0  0  0
    3.6940   40.4610   45.9690 C   0  0  0  0  0  0  0  0  0  0  0  0
    3.1690   39.7750   44.9190 N   0  0  0  0  0  0  0  0  0  0  0  0
    2.4830   38.6180   45.1030 C   0  0  0  0  0  0  0  0  0  0  0  0
    2.3030   38.1270   46.3970 C   0  0  0  0  0  0  0  0  0  0  0  0
    2.8260   38.8100   47.4490 N   0  0  0  0  0  0  0  0  0  0  0  0
    3.3910   40.5410   49.7140 C   0  0  0  0  0  0  0  0  0  0  0  0
    3.4800   41.8600   50.4880 C   0  0  0  0  0  0  0  0  0  0  0  0
    7.7870   46.4110   51.5400 C   0  0  0  0  0  0  0  0  0  0  0  0
    8.9380   46.5880   52.3120 C   0  0  0  0  0  0  0  0  0  0  0  0
   11.0967   47.7340   57.5324 H   0  0  0  0  0  0  0  0  0  0  0  0
   11.9395   46.7913   56.2565 H   0  0  0  0  0  0  0  0  0  0  0  0
   12.0318   48.5853   56.2565 H   0  0  0  0  0  0  0  0  0  0  0  0
   10.9140   46.4400   54.1390 H   0  0  0  0  0  0  0  0  0  0  0  0
    7.4960   46.8284   55.4026 H   0  0  0  0  0  0  0  0  0  0  0  0
    5.4420   46.5183   54.0270 H   0  0  0  0  0  0  0  0  0  0  0  0
    4.4012   46.1954   51.9889 H   0  0  0  0  0  0  0  0  0  0  0  0
    5.2004   46.9683   50.5723 H   0  0  0  0  0  0  0  0  0  0  0  0
    5.6110   44.8630   49.6470 H   0  0  0  0  0  0  0  0  0  0  0  0
    5.5273   41.6018   51.1115 H   0  0  0  0  0  0  0  0  0  0  0  0
    4.9796   43.2662   48.6015 H   0  0  0  0  0  0  0  0  0  0  0  0
    6.5936   42.7791   49.2434 H   0  0  0  0  0  0  0  0  0  0  0  0
    5.7624   41.3202   47.3549 H   0  0  0  0  0  0  0  0  0  0  0  0
    6.0939   40.4282   48.8851 H   0  0  0  0  0  0  0  0  0  0  0  0
    4.2448   41.3978   45.7989 H   0  0  0  0  0  0  0  0  0  0  0  0
    2.0729   38.0726   44.2403 H   0  0  0  0  0  0  0  0  0  0  0  0
    1.7427   37.1952   46.5639 H   0  0  0  0  0  0  0  0  0  0  0  0
    2.3333   40.2830   49.5569 H   0  0  0  0  0  0  0  0  0  0  0  0
    3.8891   39.7508   50.2949 H   0  0  0  0  0  0  0  0  0  0  0  0
    2.8695   42.6195   49.9776 H   0  0  0  0  0  0  0  0  0  0  0  0
    3.1095   41.6944   51.5104 H   0  0  0  0  0  0  0  0  0  0  0  0
    7.8724   46.2813   50.4510 H   0  0  0  0  0  0  0  0  0  0  0  0
    9.9252   46.5877   51.8267 H   0  0  0  0  0  0  0  0  0  0  0  0
  1  2  1  0
  2  3  2  0
  2  4  1  0
  4  5  1  0
  5  6  2  0
  6  7  1  0
  7  8  2  0
  8  9  1  0
  9 10  1  0
 10 11  1  0
 11 12  2  0
 11 13  1  0
 13 14  1  0
 14 15  1  0
 15 16  1  0
 16 17  1  0
 17 18  2  0
 18 19  1  0
 19 20  2  0
 20 21  1  0
 21 22  2  0
 16 23  1  0
 23 24  1  0
  8 25  1  0
 25 26  2  0
 26  5  1  0
 24 13  1  0
 22 17  1  0
  1 27  1  0
  1 28  1  0
  1 29  1  0
  4 30  1  0
  6 31  1  0
  7 32  1  0
  9 33  1  0
  9 34  1  0
 10 35  1  0
 13 36  1  0
 14 37  1  0
 14 38  1  0
 15 39  1  0
 15 40  1  0
 18 41  1  0
 20 42  1  0
 21 43  1  0
 23 44  1  0
 23 45  1  0
 24 46  1  0
 24 47  1  0
 25 48  1  0
 26 49  1  0
M  END
>  <meeko>  (3) 
{"is_sidechain": [false], "free_energy": -8.417, "intermolecular_energy": -11.059, "internal_energy": -0.317}

$$$$
ligand_68_conformer_5_docked
     RDKit          3D

 49 51  0  0  0  0  0  0  0  0999 V2000
    9.9730   47.0730   53.4160 C   0  0  0  0  0  0  0  0  0  0  0  0
    8.5180   46.7460   53.3190 C   0  0  0  0  0  0  0  0  0  0  0  0
    7.8480   46.5860   54.3760 O   0  0  0  0  0  0  0  0  0  0  0  0
    7.8790   46.7100   52.0340 N   0  0  0  0  0  0  0  0  0  0  0  0
    6.5430   46.2270   51.8110 C   0  0  0  0  0  0  0  0  0  0  0  0
    5.4330   46.8180   52.4410 C   0  0  0  0  0  0  0  0  0  0  0  0
    4.1470   46.3130   52.2280 C   0  0  0  0  0  0  0  0  0  0  0  0
    3.9510   45.2050   51.3900 C   0  0  0  0  0  0  0  0  0  0  0  0
    2.5670   44.6480   51.1920 C   0  0  0  0  0  0  0  0  0  0  0  0
    1.7580   44.8800   52.3860 N   0  0  0  0  0  0  0  0  0  0  0  0
    1.4930   43.8450   53.3460 C   0  0  0  0  0  0  0  0  0  0  0  0
    1.8430   42.6570   53.1040 O   0  0  0  0  0  0  0  0  0  0  0  0
    0.8040   44.1540   54.6510 C   0  0  0  0  0  0  0  0  0  0  0  0
   -0.5050   44.9290   54.4170 C   0  0  0  0  0  0  0  0  0  0  0  0
   -1.1940   45.2310   55.7510 C   0  0  0  0  0  0  0  0  0  0  0  0
   -0.2590   45.9010   56.6670 N   0  0  0  0  0  0  0  0  0  0  0  0
   -0.7330   46.9090   57.5790 C   0  0  0  0  0  0  0  0  0  0  0  0
   -1.8880   47.6570   57.2990 C   0  0  0  0  0  0  0  0  0  0  0  0
   -2.2990   48.6090   58.1780 N   0  0  0  0  0  0  0  0  0  0  0  0
   -1.6120   48.8570   59.3230 C   0  0  0  0  0  0  0  0  0  0  0  0
   -0.4550   48.1270   59.5990 C   0  0  0  0  0  0  0  0  0  0  0  0
   -0.0420   47.1750   58.7230 N   0  0  0  0  0  0  0  0  0  0  0  0
    1.0360   45.2530   56.9170 C   0  0  0  0  0  0  0  0  0  0  0  0
    1.7370   44.9380   55.5910 C   0  0  0  0  0  0  0  0  0  0  0  0
    5.0590   44.5960   50.7840 C   0  0  0  0  0  0  0  0  0  0  0  0
    6.3450   45.1010   50.9990 C   0  0  0  0  0  0  0  0  0  0  0  0
   10.2643   47.1385   54.4747 H   0  0  0  0  0  0  0  0  0  0  0  0
   10.5598   46.2843   52.9223 H   0  0  0  0  0  0  0  0  0  0  0  0
   10.1659   48.0369   52.9223 H   0  0  0  0  0  0  0  0  0  0  0  0
    8.3890   47.1340   51.2260 H   0  0  0  0  0  0  0  0  0  0  0  0
    5.5777   47.6827   53.1053 H   0  0  0  0  0  0  0  0  0  0  0  0
    3.2846   46.7866   52.7198 H   0  0  0  0  0  0  0  0  0  0  0  0
    2.0951   45.1433   50.3306 H   0  0  0  0  0  0  0  0  0  0  0  0
    2.6369   43.5656   51.0087 H   0  0  0  0  0  0  0  0  0  0  0  0
    1.3940   45.8440   52.5530 H   0  0  0  0  0  0  0  0  0  0  0  0
    0.5522   43.1976   55.1326 H   0  0  0  0  0  0  0  0  0  0  0  0
   -0.2789   45.8753   53.9038 H   0  0  0  0  0  0  0  0  0  0  0  0
   -1.1772   44.3148   53.7999 H   0  0  0  0  0  0  0  0  0  0  0  0
   -2.0595   45.8860   55.5725 H   0  0  0  0  0  0  0  0  0  0  0  0
   -1.5250   44.2855   56.2054 H   0  0  0  0  0  0  0  0  0  0  0  0
   -2.4561   47.4739   56.3750 H   0  0  0  0  0  0  0  0  0  0  0  0
   -1.9642   49.6260   60.0263 H   0  0  0  0  0  0  0  0  0  0  0  0
    0.1174   48.3210   60.5181 H   0  0  0  0  0  0  0  0  0  0  0  0
    1.6702   45.9267   57.5118 H   0  0  0  0  0  0  0  0  0  0  0  0
    0.8669   44.3141   57.4646 H   0  0  0  0  0  0  0  0  0  0  0  0
    2.0292   45.8806   55.1050 H   0  0  0  0  0  0  0  0  0  0  0  0
    2.6247   44.3228   55.7995 H   0  0  0  0  0  0  0  0  0  0  0  0
    4.9161   43.7178   50.1372 H   0  0  0  0  0  0  0  0  0  0  0  0
    7.2091   44.6106   50.5270 H   0  0  0  0  0  0  0  0  0  0  0  0
  1  2  1  0
  2  3  2  0
  2  4  1  0
  4  5  1  0
  5  6  2  0
  6  7  1  0
  7  8  2  0
  8  9  1  0
  9 10  1  0
 10 11  1  0
 11 12  2  0
 11 13  1  0
 13 14  1  0
 14 15  1  0
 15 16  1  0
 16 17  1  0
 17 18  2  0
 18 19  1  0
 19 20  2  0
 20 21  1  0
 21 22  2  0
 16 23  1  0
 23 24  1  0
  8 25  1  0
 25 26  2  0
 26  5  1  0
 24 13  1  0
 22 17  1  0
  1 27  1  0
  1 28  1  0
  1 29  1  0
  4 30  1  0
  6 31  1  0
  7 32  1  0
  9 33  1  0
  9 34  1  0
 10 35  1  0
 13 36  1  0
 14 37  1  0
 14 38  1  0
 15 39  1  0
 15 40  1  0
 18 41  1  0
 20 42  1  0
 21 43  1  0
 23 44  1  0
 23 45  1  0
 24 46  1  0
 24 47  1  0
 25 48  1  0
 26 49  1  0
M  END
>  <meeko>  (4) 
{"is_sidechain": [false], "free_energy": -8.339, "intermolecular_energy": -10.678, "internal_energy": -0.597}

$$$$
ligand_68_conformer_5_docked
     RDKit          3D

 49 51  0  0  0  0  0  0  0  0999 V2000
   -3.4800   46.9560   58.5550 C   0  0  0  0  0  0  0  0  0  0  0  0
   -2.7880   45.8840   57.7780 C   0  0  0  0  0  0  0  0  0  0  0  0
   -2.7570   44.7100   58.2380 O   0  0  0  0  0  0  0  0  0  0  0  0
   -2.2500   46.1770   56.4800 N   0  0  0  0  0  0  0  0  0  0  0  0
   -1.4080   45.2810   55.7340 C   0  0  0  0  0  0  0  0  0  0  0  0
   -0.0090   45.2930   55.8820 C   0  0  0  0  0  0  0  0  0  0  0  0
    0.7890   44.4300   55.1270 C   0  0  0  0  0  0  0  0  0  0  0  0
    0.2040   43.5470   54.2060 C   0  0  0  0  0  0  0  0  0  0  0  0
    1.0740   42.6440   53.3740 C   0  0  0  0  0  0  0  0  0  0  0  0
    2.3260   43.3200   53.0430 N   0  0  0  0  0  0  0  0  0  0  0  0
    2.4690   44.1380   51.8710 C   0  0  0  0  0  0  0  0  0  0  0  0
    1.5430   44.1800   51.0150 O   0  0  0  0  0  0  0  0  0  0  0  0
    3.7120   44.9600   51.6460 C   0  0  0  0  0  0  0  0  0  0  0  0
    4.9640   44.0670   51.5820 C   0  0  0  0  0  0  0  0  0  0  0  0
    6.2170   44.9160   51.3470 C   0  0  0  0  0  0  0  0  0  0  0  0
    6.3000   45.9880   52.3500 N   0  0  0  0  0  0  0  0  0  0  0  0
    7.5800   46.4140   52.8540 C   0  0  0  0  0  0  0  0  0  0  0  0
    7.7230   46.8890   54.1670 C   0  0  0  0  0  0  0  0  0  0  0  0
    8.9440   47.2930   54.6050 N   0  0  0  0  0  0  0  0  0  0  0  0
   10.0340   47.2520   53.7940 C   0  0  0  0  0  0  0  0  0  0  0  0
    9.8950   46.7950   52.4830 C   0  0  0  0  0  0  0  0  0  0  0  0
    8.6750   46.3900   52.0440 N   0  0  0  0  0  0  0  0  0  0  0  0
    5.1320   46.8660   52.5110 C   0  0  0  0  0  0  0  0  0  0  0  0
    3.8680   46.0310   52.7410 C   0  0  0  0  0  0  0  0  0  0  0  0
   -1.1880   43.5540   54.0360 C   0  0  0  0  0  0  0  0  0  0  0  0
   -1.9850   44.4190   54.7910 C   0  0  0  0  0  0  0  0  0  0  0  0
   -3.3573   46.7659   59.6315 H   0  0  0  0  0  0  0  0  0  0  0  0
   -3.0415   47.9328   58.3028 H   0  0  0  0  0  0  0  0  0  0  0  0
   -4.5507   46.9586   58.3028 H   0  0  0  0  0  0  0  0  0  0  0  0
   -2.5540   47.0640   56.0180 H   0  0  0  0  0  0  0  0  0  0  0  0
    0.4593   45.9860   56.5964 H   0  0  0  0  0  0  0  0  0  0  0  0
    1.8815   44.4425   55.2549 H   0  0  0  0  0  0  0  0  0  0  0  0
    1.2941   41.7273   53.9408 H   0  0  0  0  0  0  0  0  0  0  0  0
    0.5445   42.3904   52.4438 H   0  0  0  0  0  0  0  0  0  0  0  0
    3.1260   43.2240   53.7070 H   0  0  0  0  0  0  0  0  0  0  0  0
    3.6055   45.4689   50.6767 H   0  0  0  0  0  0  0  0  0  0  0  0
    5.0689   43.5220   52.5317 H   0  0  0  0  0  0  0  0  0  0  0  0
    4.8531   43.3581   50.7483 H   0  0  0  0  0  0  0  0  0  0  0  0
    7.1088   44.2766   51.4240 H   0  0  0  0  0  0  0  0  0  0  0  0
    6.1627   45.3659   50.3447 H   0  0  0  0  0  0  0  0  0  0  0  0
    6.8519   46.9339   54.8372 H   0  0  0  0  0  0  0  0  0  0  0  0
   11.0165   47.5761   54.1677 H   0  0  0  0  0  0  0  0  0  0  0  0
   10.7654   46.7630   51.8111 H   0  0  0  0  0  0  0  0  0  0  0  0
    5.2919   47.5281   53.3747 H   0  0  0  0  0  0  0  0  0  0  0  0
    5.0047   47.4642   51.5967 H   0  0  0  0  0  0  0  0  0  0  0  0
    3.9359   45.5368   53.7214 H   0  0  0  0  0  0  0  0  0  0  0  0
    2.9943   46.6984   52.7077 H   0  0  0  0  0  0  0  0  0  0  0  0
   -1.6543   42.8762   53.3058 H   0  0  0  0  0  0  0  0  0  0  0  0
   -3.0751   44.4234   54.6439 H   0  0  0  0  0  0  0  0  0  0  0  0
  1  2  1  0
  2  3  2  0
  2  4  1  0
  4  5  1  0
  5  6  2  0
  6  7  1  0
  7  8  2  0
  8  9  1  0
  9 10  1  0
 10 11  1  0
 11 12  2  0
 11 13  1  0
 13 14  1  0
 14 15  1  0
 15 16  1  0
 16 17  1  0
 17 18  2  0
 18 19  1  0
 19 20  2  0
 20 21  1  0
 21 22  2  0
 16 23  1  0
 23 24  1  0
  8 25  1  0
 25 26  2  0
 26  5  1  0
 24 13  1  0
 22 17  1  0
  1 27  1  0
  1 28  1  0
  1 29  1  0
  4 30  1  0
  6 31  1  0
  7 32  1  0
  9 33  1  0
  9 34  1  0
 10 35  1  0
 13 36  1  0
 14 37  1  0
 14 38  1  0
 15 39  1  0
 15 40  1  0
 18 41  1  0
 20 42  1  0
 21 43  1  0
 23 44  1  0
 23 45  1  0
 24 46  1  0
 24 47  1  0
 25 48  1  0
 26 49  1  0
M  END
>  <meeko>  (5) 
{"is_sidechain": [false], "free_energy": -7.865, "intermolecular_energy": -9.854, "internal_energy": -0.808}

$$$$
