ligand_67_conformer_3_docked
     RDKit          3D

 59 61  0  0  0  0  0  0  0  0999 V2000
    6.5430   45.0500   50.7480 C   0  0  0  0  0  0  0  0  0  0  0  0
    6.3460   45.3150   52.2340 C   0  0  0  0  0  0  0  0  0  0  0  0
    6.0430   46.7450   52.4470 N   0  0  0  0  0  0  0  0  0  0  0  0
    7.1050   47.5730   53.0790 C   0  0  0  0  0  0  0  0  0  0  0  0
    8.0360   48.1870   52.0010 C   0  0  0  0  0  0  0  0  0  0  0  0
    9.2480   47.3120   51.6230 C   0  0  0  0  0  0  0  0  0  0  0  0
    9.9430   46.6390   52.8280 C   0  0  0  0  0  0  0  0  0  0  0  0
    9.3810   47.0820   54.1830 C   0  0  0  0  0  0  0  0  0  0  0  0
    7.8660   46.8670   54.2420 C   0  0  0  0  0  0  0  0  0  0  0  0
    4.4570   46.9930   53.1570 S   0  0  0  0  0  0  0  0  0  0  0  0
    4.4680   48.2640   53.9610 O   0  0  0  0  0  0  0  0  0  0  0  0
    3.4460   47.1400   52.0530 O   0  0  0  0  0  0  0  0  0  0  0  0
    3.9590   45.6250   54.2060 C   0  0  0  0  0  0  0  0  0  0  0  0
    2.7260   44.9030   53.6510 C   0  0  0  0  0  0  0  0  0  0  0  0
    3.0520   43.5370   53.2450 N   0  0  0  0  0  0  0  0  0  0  0  0
    3.3900   43.1940   51.8930 C   0  0  0  0  0  0  0  0  0  0  0  0
    3.2790   44.0560   50.9800 O   0  0  0  0  0  0  0  0  0  0  0  0
    3.8860   41.8800   51.5980 N   0  0  0  0  0  0  0  0  0  0  0  0
    4.2470   41.4250   50.2860 C   0  0  0  0  0  0  0  0  0  0  0  0
    5.4280   41.6890   49.6100 C   0  0  0  0  0  0  0  0  0  0  0  0
    5.2640   41.0630   48.3930 C   0  0  0  0  0  0  0  0  0  0  0  0
    4.0530   40.4650   48.3720 N   0  0  0  0  0  0  0  0  0  0  0  0
    3.4650   39.7500   47.2710 C   0  0  0  0  0  0  0  0  0  0  0  0
    2.7560   38.5660   47.5310 C   0  0  0  0  0  0  0  0  0  0  0  0
    2.1790   37.8380   46.4870 C   0  0  0  0  0  0  0  0  0  0  0  0
    2.3120   38.2780   45.1710 C   0  0  0  0  0  0  0  0  0  0  0  0
    3.0260   39.4440   44.8900 C   0  0  0  0  0  0  0  0  0  0  0  0
    3.1630   39.8410   43.5990 F   0  0  0  0  0  0  0  0  0  0  0  0
    3.6130   40.1850   45.9310 C   0  0  0  0  0  0  0  0  0  0  0  0
    4.4110   41.3420   45.5970 C   0  0  0  0  0  0  0  0  0  0  0  0
    5.0480   42.2690   45.3270 N   0  0  0  0  0  0  0  0  0  0  0  0
    3.4180   40.7000   49.5100 N   0  0  0  0  0  0  0  0  0  0  0  0
    7.1945   44.1737   50.6150 H   0  0  0  0  0  0  0  0  0  0  0  0
    5.5677   44.8566   50.2776 H   0  0  0  0  0  0  0  0  0  0  0  0
    7.0092   45.9282   50.2776 H   0  0  0  0  0  0  0  0  0  0  0  0
    5.5106   44.7044   52.6071 H   0  0  0  0  0  0  0  0  0  0  0  0
    7.2659   45.0519   52.7768 H   0  0  0  0  0  0  0  0  0  0  0  0
    6.5966   48.4061   53.5865 H   0  0  0  0  0  0  0  0  0  0  0  0
    7.4409   48.3593   51.0921 H   0  0  0  0  0  0  0  0  0  0  0  0
    8.4436   49.1128   52.4331 H   0  0  0  0  0  0  0  0  0  0  0  0
    8.9038   46.5229   50.9383 H   0  0  0  0  0  0  0  0  0  0  0  0
    9.9901   47.9811   51.1630 H   0  0  0  0  0  0  0  0  0  0  0  0
    9.8179   45.5498   52.7384 H   0  0  0  0  0  0  0  0  0  0  0  0
   11.0004   46.9409   52.8018 H   0  0  0  0  0  0  0  0  0  0  0  0
    9.8595   46.4951   54.9808 H   0  0  0  0  0  0  0  0  0  0  0  0
    9.5897   48.1537   54.3170 H   0  0  0  0  0  0  0  0  0  0  0  0
    7.6629   45.7872   54.1893 H   0  0  0  0  0  0  0  0  0  0  0  0
    7.5077   47.3067   55.1845 H   0  0  0  0  0  0  0  0  0  0  0  0
    4.7905   44.9082   54.2753 H   0  0  0  0  0  0  0  0  0  0  0  0
    3.7023   46.0289   55.1965 H   0  0  0  0  0  0  0  0  0  0  0  0
    1.9488   44.8704   54.4288 H   0  0  0  0  0  0  0  0  0  0  0  0
    2.3681   45.4530   52.7682 H   0  0  0  0  0  0  0  0  0  0  0  0
    3.0240   42.7820   53.9660 H   0  0  0  0  0  0  0  0  0  0  0  0
    4.1060   41.2490   52.4020 H   0  0  0  0  0  0  0  0  0  0  0  0
    6.2959   42.2652   49.9633 H   0  0  0  0  0  0  0  0  0  0  0  0
    5.9982   41.0522   47.5740 H   0  0  0  0  0  0  0  0  0  0  0  0
    2.6539   38.2083   48.5662 H   0  0  0  0  0  0  0  0  0  0  0  0
    1.6190   36.9164   46.7040 H   0  0  0  0  0  0  0  0  0  0  0  0
    1.8531   37.7049   44.3519 H   0  0  0  0  0  0  0  0  0  0  0  0
  1  2  1  0
  2  3  1  0
  3  4  1  0
  4  5  1  0
  5  6  1  0
  6  7  1  0
  7  8  1  0
  8  9  1  0
  3 10  1  0
 10 11  2  0
 10 12  2  0
 10 13  1  0
 13 14  1  0
 14 15  1  0
 15 16  1  0
 16 17  2  0
 16 18  1  0
 18 19  1  0
 19 20  1  0
 20 21  2  0
 21 22  1  0
 22 23  1  0
 23 24  2  0
 24 25  1  0
 25 26  2  0
 26 27  1  0
 27 28  1  0
 27 29  2  0
 29 30  1  0
 30 31  3  0
 22 32  1  0
  9  4  1  0
 32 19  2  0
 29 23  1  0
  1 33  1  0
  1 34  1  0
  1 35  1  0
  2 36  1  0
  2 37  1  0
  4 38  1  0
  5 39  1  0
  5 40  1  0
  6 41  1  0
  6 42  1  0
  7 43  1  0
  7 44  1  0
  8 45  1  0
  8 46  1  0
  9 47  1  0
  9 48  1  0
 13 49  1  0
 13 50  1  0
 14 51  1  0
 14 52  1  0
 15 53  1  0
 18 54  1  0
 20 55  1  0
 21 56  1  0
 24 57  1  0
 25 58  1  0
 26 59  1  0
M  END
>  <meeko>  (1) 
{"is_sidechain": [false], "free_energy": -9.954, "intermolecular_energy": -14.609, "internal_energy": -0.945}

$$$$
ligand_67_conformer_3_docked
     RDKit          3D

 59 61  0  0  0  0  0  0  0  0999 V2000
   -3.4750   45.7480   53.2300 C   0  0  0  0  0  0  0  0  0  0  0  0
   -2.0280   45.2850   53.1260 C   0  0  0  0  0  0  0  0  0  0  0  0
   -1.9010   43.9260   53.6910 N   0  0  0  0  0  0  0  0  0  0  0  0
   -1.1100   43.7880   54.9430 C   0  0  0  0  0  0  0  0  0  0  0  0
   -2.0420   43.7770   56.1830 C   0  0  0  0  0  0  0  0  0  0  0  0
   -2.3340   45.1680   56.7800 C   0  0  0  0  0  0  0  0  0  0  0  0
   -1.1010   46.0970   56.8560 C   0  0  0  0  0  0  0  0  0  0  0  0
    0.2070   45.4080   56.4540 C   0  0  0  0  0  0  0  0  0  0  0  0
    0.0880   44.7790   55.0620 C   0  0  0  0  0  0  0  0  0  0  0  0
   -1.4850   42.7340   52.4730 S   0  0  0  0  0  0  0  0  0  0  0  0
   -0.6060   41.6800   53.0910 O   0  0  0  0  0  0  0  0  0  0  0  0
   -2.7450   42.0720   51.9870 O   0  0  0  0  0  0  0  0  0  0  0  0
   -0.6450   43.4620   51.0640 C   0  0  0  0  0  0  0  0  0  0  0  0
    0.7320   42.8290   50.8340 C   0  0  0  0  0  0  0  0  0  0  0  0
    1.6170   43.0610   51.9760 N   0  0  0  0  0  0  0  0  0  0  0  0
    2.5400   44.1580   52.0260 C   0  0  0  0  0  0  0  0  0  0  0  0
    2.7100   44.8820   51.0080 O   0  0  0  0  0  0  0  0  0  0  0  0
    3.2380   44.4410   53.2470 N   0  0  0  0  0  0  0  0  0  0  0  0
    4.1880   45.5040   53.4100 C   0  0  0  0  0  0  0  0  0  0  0  0
    3.9070   46.8480   53.5980 C   0  0  0  0  0  0  0  0  0  0  0  0
    5.1500   47.4440   53.6600 C   0  0  0  0  0  0  0  0  0  0  0  0
    6.0950   46.4900   53.5220 N   0  0  0  0  0  0  0  0  0  0  0  0
    7.5190   46.6910   53.4750 C   0  0  0  0  0  0  0  0  0  0  0  0
    8.1580   47.2810   54.5780 C   0  0  0  0  0  0  0  0  0  0  0  0
    9.5380   47.5020   54.5660 C   0  0  0  0  0  0  0  0  0  0  0  0
   10.2940   47.1460   53.4500 C   0  0  0  0  0  0  0  0  0  0  0  0
    9.6750   46.5720   52.3380 C   0  0  0  0  0  0  0  0  0  0  0  0
   10.4270   46.2550   51.2540 F   0  0  0  0  0  0  0  0  0  0  0  0
    8.2880   46.3450   52.3360 C   0  0  0  0  0  0  0  0  0  0  0  0
    7.6700   45.8230   51.1390 C   0  0  0  0  0  0  0  0  0  0  0  0
    7.1780   45.4040   50.1810 N   0  0  0  0  0  0  0  0  0  0  0  0
    5.5190   45.3100   53.3460 N   0  0  0  0  0  0  0  0  0  0  0  0
   -3.7559   45.8379   54.2897 H   0  0  0  0  0  0  0  0  0  0  0  0
   -3.5834   46.7257   52.7377 H   0  0  0  0  0  0  0  0  0  0  0  0
   -4.1309   45.0149   52.7377 H   0  0  0  0  0  0  0  0  0  0  0  0
   -1.7227   45.2722   52.0693 H   0  0  0  0  0  0  0  0  0  0  0  0
   -1.3820   45.9760   53.6874 H   0  0  0  0  0  0  0  0  0  0  0  0
   -0.6145   42.8070   54.8969 H   0  0  0  0  0  0  0  0  0  0  0  0
   -2.9994   43.3225   55.8884 H   0  0  0  0  0  0  0  0  0  0  0  0
   -1.5154   43.2077   56.9632 H   0  0  0  0  0  0  0  0  0  0  0  0
   -3.0968   45.6576   56.1567 H   0  0  0  0  0  0  0  0  0  0  0  0
   -2.6698   45.0036   57.8145 H   0  0  0  0  0  0  0  0  0  0  0  0
   -1.2662   46.9511   56.1828 H   0  0  0  0  0  0  0  0  0  0  0  0
   -0.9941   46.4087   57.9055 H   0  0  0  0  0  0  0  0  0  0  0  0
    1.0178   46.1514   56.4452 H   0  0  0  0  0  0  0  0  0  0  0  0
    0.4233   44.6123   57.1820 H   0  0  0  0  0  0  0  0  0  0  0  0
   -0.0475   45.5834   54.3240 H   0  0  0  0  0  0  0  0  0  0  0  0
    1.0091   44.2060   54.8794 H   0  0  0  0  0  0  0  0  0  0  0  0
   -1.2610   43.3113   50.1652 H   0  0  0  0  0  0  0  0  0  0  0  0
   -0.4996   44.5331   51.2681 H   0  0  0  0  0  0  0  0  0  0  0  0
    0.6094   41.7455   50.6890 H   0  0  0  0  0  0  0  0  0  0  0  0
    1.1836   43.2901   49.9433 H   0  0  0  0  0  0  0  0  0  0  0  0
    1.5810   42.3920   52.7770 H   0  0  0  0  0  0  0  0  0  0  0  0
    2.9560   43.9140   54.1040 H   0  0  0  0  0  0  0  0  0  0  0  0
    2.9209   47.3286   53.6791 H   0  0  0  0  0  0  0  0  0  0  0  0
    5.3394   48.5186   53.7989 H   0  0  0  0  0  0  0  0  0  0  0  0
    7.5670   47.5717   55.4591 H   0  0  0  0  0  0  0  0  0  0  0  0
   10.0286   47.9577   55.4387 H   0  0  0  0  0  0  0  0  0  0  0  0
   11.3805   47.3177   53.4456 H   0  0  0  0  0  0  0  0  0  0  0  0
  1  2  1  0
  2  3  1  0
  3  4  1  0
  4  5  1  0
  5  6  1  0
  6  7  1  0
  7  8  1  0
  8  9  1  0
  3 10  1  0
 10 11  2  0
 10 12  2  0
 10 13  1  0
 13 14  1  0
 14 15  1  0
 15 16  1  0
 16 17  2  0
 16 18  1  0
 18 19  1  0
 19 20  1  0
 20 21  2  0
 21 22  1  0
 22 23  1  0
 23 24  2  0
 24 25  1  0
 25 26  2  0
 26 27  1  0
 27 28  1  0
 27 29  2  0
 29 30  1  0
 30 31  3  0
 22 32  1  0
  9  4  1  0
 32 19  2  0
 29 23  1  0
  1 33  1  0
  1 34  1  0
  1 35  1  0
  2 36  1  0
  2 37  1  0
  4 38  1  0
  5 39  1  0
  5 40  1  0
  6 41  1  0
  6 42  1  0
  7 43  1  0
  7 44  1  0
  8 45  1  0
  8 46  1  0
  9 47  1  0
  9 48  1  0
 13 49  1  0
 13 50  1  0
 14 51  1  0
 14 52  1  0
 15 53  1  0
 18 54  1  0
 20 55  1  0
 21 56  1  0
 24 57  1  0
 25 58  1  0
 26 59  1  0
M  END
>  <meeko>  (2) 
{"is_sidechain": [false], "free_energy": -8.692, "intermolecular_energy": -12.125, "internal_energy": -1.578}

$$$$
ligand_67_conformer_3_docked
     RDKit          3D

 59 61  0  0  0  0  0  0  0  0999 V2000
    5.8880   44.2710   54.9210 C   0  0  0  0  0  0  0  0  0  0  0  0
    6.2310   45.6590   54.3990 C   0  0  0  0  0  0  0  0  0  0  0  0
    5.3650   45.9830   53.2460 N   0  0  0  0  0  0  0  0  0  0  0  0
    5.9820   46.7580   52.1360 C   0  0  0  0  0  0  0  0  0  0  0  0
    6.2400   45.8480   50.9080 C   0  0  0  0  0  0  0  0  0  0  0  0
    7.6180   45.1570   50.8980 C   0  0  0  0  0  0  0  0  0  0  0  0
    8.7880   46.0680   51.3350 C   0  0  0  0  0  0  0  0  0  0  0  0
    8.3730   47.5260   51.5600 C   0  0  0  0  0  0  0  0  0  0  0  0
    7.2130   47.6170   52.5560 C   0  0  0  0  0  0  0  0  0  0  0  0
    3.8010   46.6040   53.7400 S   0  0  0  0  0  0  0  0  0  0  0  0
    4.0020   47.7590   54.6830 O   0  0  0  0  0  0  0  0  0  0  0  0
    3.0700   47.1070   52.5260 O   0  0  0  0  0  0  0  0  0  0  0  0
    2.7890   45.3520   54.5340 C   0  0  0  0  0  0  0  0  0  0  0  0
    1.7860   44.7280   53.5570 C   0  0  0  0  0  0  0  0  0  0  0  0
    2.2280   43.4040   53.1200 N   0  0  0  0  0  0  0  0  0  0  0  0
    3.0180   43.2060   51.9380 C   0  0  0  0  0  0  0  0  0  0  0  0
    3.2380   44.1730   51.1610 O   0  0  0  0  0  0  0  0  0  0  0  0
    3.5800   41.9130   51.6700 N   0  0  0  0  0  0  0  0  0  0  0  0
    4.3760   41.5980   50.5190 C   0  0  0  0  0  0  0  0  0  0  0  0
    5.7550   41.4610   50.4740 C   0  0  0  0  0  0  0  0  0  0  0  0
    6.0210   41.1970   49.1470 C   0  0  0  0  0  0  0  0  0  0  0  0
    4.8560   41.1770   48.4660 N   0  0  0  0  0  0  0  0  0  0  0  0
    4.6900   40.9900   47.0490 C   0  0  0  0  0  0  0  0  0  0  0  0
    5.3350   41.8750   46.1680 C   0  0  0  0  0  0  0  0  0  0  0  0
    5.1900   41.7340   44.7860 C   0  0  0  0  0  0  0  0  0  0  0  0
    4.3950   40.7140   44.2660 C   0  0  0  0  0  0  0  0  0  0  0  0
    3.7340   39.8330   45.1250 C   0  0  0  0  0  0  0  0  0  0  0  0
    2.9460   38.8620   44.5980 F   0  0  0  0  0  0  0  0  0  0  0  0
    3.8700   39.9650   46.5180 C   0  0  0  0  0  0  0  0  0  0  0  0
    3.1090   39.0870   47.3770 C   0  0  0  0  0  0  0  0  0  0  0  0
    2.5010   38.3820   48.0620 N   0  0  0  0  0  0  0  0  0  0  0  0
    3.8520   41.4430   49.2880 N   0  0  0  0  0  0  0  0  0  0  0  0
    5.8907   44.2819   56.0209 H   0  0  0  0  0  0  0  0  0  0  0  0
    4.8908   43.9794   54.5597 H   0  0  0  0  0  0  0  0  0  0  0  0
    6.6346   43.5485   54.5597 H   0  0  0  0  0  0  0  0  0  0  0  0
    6.0713   46.3998   55.1963 H   0  0  0  0  0  0  0  0  0  0  0  0
    7.2842   45.6802   54.0822 H   0  0  0  0  0  0  0  0  0  0  0  0
    5.2450   47.5160   51.8321 H   0  0  0  0  0  0  0  0  0  0  0  0
    5.4650   45.0676   50.8907 H   0  0  0  0  0  0  0  0  0  0  0  0
    6.2138   46.5027   50.0245 H   0  0  0  0  0  0  0  0  0  0  0  0
    7.5771   44.2964   51.5819 H   0  0  0  0  0  0  0  0  0  0  0  0
    7.8172   44.8652   49.8563 H   0  0  0  0  0  0  0  0  0  0  0  0
    9.2039   45.6749   52.2744 H   0  0  0  0  0  0  0  0  0  0  0  0
    9.5259   46.0626   50.5192 H   0  0  0  0  0  0  0  0  0  0  0  0
    9.2320   48.0880   51.9554 H   0  0  0  0  0  0  0  0  0  0  0  0
    8.0453   47.9502   50.5994 H   0  0  0  0  0  0  0  0  0  0  0  0
    7.5656   47.2681   53.5378 H   0  0  0  0  0  0  0  0  0  0  0  0
    6.8869   48.6671   52.5868 H   0  0  0  0  0  0  0  0  0  0  0  0
    3.4443   44.5602   54.9259 H   0  0  0  0  0  0  0  0  0  0  0  0
    2.2227   45.8334   55.3449 H   0  0  0  0  0  0  0  0  0  0  0  0
    0.8101   44.6341   54.0557 H   0  0  0  0  0  0  0  0  0  0  0  0
    1.7087   45.3789   52.6736 H   0  0  0  0  0  0  0  0  0  0  0  0
    1.9450   42.5730   53.6850 H   0  0  0  0  0  0  0  0  0  0  0  0
    3.5000   41.1830   52.4140 H   0  0  0  0  0  0  0  0  0  0  0  0
    6.4712   41.5438   51.3048 H   0  0  0  0  0  0  0  0  0  0  0  0
    7.0186   41.0302   48.7146 H   0  0  0  0  0  0  0  0  0  0  0  0
    5.9597   42.6860   46.5705 H   0  0  0  0  0  0  0  0  0  0  0  0
    5.7043   42.4295   44.1065 H   0  0  0  0  0  0  0  0  0  0  0  0
    4.2879   40.6026   43.1769 H   0  0  0  0  0  0  0  0  0  0  0  0
  1  2  1  0
  2  3  1  0
  3  4  1  0
  4  5  1  0
  5  6  1  0
  6  7  1  0
  7  8  1  0
  8  9  1  0
  3 10  1  0
 10 11  2  0
 10 12  2  0
 10 13  1  0
 13 14  1  0
 14 15  1  0
 15 16  1  0
 16 17  2  0
 16 18  1  0
 18 19  1  0
 19 20  1  0
 20 21  2  0
 21 22  1  0
 22 23  1  0
 23 24  2  0
 24 25  1  0
 25 26  2  0
 26 27  1  0
 27 28  1  0
 27 29  2  0
 29 30  1  0
 30 31  3  0
 22 32  1  0
  9  4  1  0
 32 19  2  0
 29 23  1  0
  1 33  1  0
  1 34  1  0
  1 35  1  0
  2 36  1  0
  2 37  1  0
  4 38  1  0
  5 39  1  0
  5 40  1  0
  6 41  1  0
  6 42  1  0
  7 43  1  0
  7 44  1  0
  8 45  1  0
  8 46  1  0
  9 47  1  0
  9 48  1  0
 13 49  1  0
 13 50  1  0
 14 51  1  0
 14 52  1  0
 15 53  1  0
 18 54  1  0
 20 55  1  0
 21 56  1  0
 24 57  1  0
 25 58  1  0
 26 59  1  0
M  END
>  <meeko>  (3) 
{"is_sidechain": [false], "free_energy": -8.39, "intermolecular_energy": -11.937, "internal_energy": -1.322}

$$$$
ligand_67_conformer_3_docked
     RDKit          3D

 59 61  0  0  0  0  0  0  0  0999 V2000
    2.6070   45.4810   51.0760 C   0  0  0  0  0  0  0  0  0  0  0  0
    1.5770   44.3910   50.8130 C   0  0  0  0  0  0  0  0  0  0  0  0
    1.5510   43.4480   51.9510 N   0  0  0  0  0  0  0  0  0  0  0  0
    2.4550   42.2700   51.8710 C   0  0  0  0  0  0  0  0  0  0  0  0
    3.7300   42.4970   52.7240 C   0  0  0  0  0  0  0  0  0  0  0  0
    4.8970   43.1680   51.9720 C   0  0  0  0  0  0  0  0  0  0  0  0
    5.1170   42.6350   50.5390 C   0  0  0  0  0  0  0  0  0  0  0  0
    4.2220   41.4410   50.1880 C   0  0  0  0  0  0  0  0  0  0  0  0
    2.7460   41.7770   50.4200 C   0  0  0  0  0  0  0  0  0  0  0  0
   -0.0830   43.0360   52.4380 S   0  0  0  0  0  0  0  0  0  0  0  0
   -0.8940   42.6980   51.2170 O   0  0  0  0  0  0  0  0  0  0  0  0
   -0.0360   41.8230   53.3250 O   0  0  0  0  0  0  0  0  0  0  0  0
   -0.8830   44.3680   53.3380 C   0  0  0  0  0  0  0  0  0  0  0  0
   -0.4440   44.4060   54.8060 C   0  0  0  0  0  0  0  0  0  0  0  0
    0.9990   44.1980   54.9310 N   0  0  0  0  0  0  0  0  0  0  0  0
    1.9560   45.2210   54.6210 C   0  0  0  0  0  0  0  0  0  0  0  0
    1.5730   46.2990   54.0930 O   0  0  0  0  0  0  0  0  0  0  0  0
    3.3390   45.0200   54.9480 N   0  0  0  0  0  0  0  0  0  0  0  0
    4.3810   45.9680   54.6780 C   0  0  0  0  0  0  0  0  0  0  0  0
    4.2560   47.3470   54.6170 C   0  0  0  0  0  0  0  0  0  0  0  0
    5.5240   47.7840   54.2950 C   0  0  0  0  0  0  0  0  0  0  0  0
    6.3370   46.7120   54.1830 N   0  0  0  0  0  0  0  0  0  0  0  0
    7.7250   46.7210   53.8070 C   0  0  0  0  0  0  0  0  0  0  0  0
    8.6830   47.1150   54.7560 C   0  0  0  0  0  0  0  0  0  0  0  0
   10.0400   47.1480   54.4260 C   0  0  0  0  0  0  0  0  0  0  0  0
   10.4570   46.7970   53.1430 C   0  0  0  0  0  0  0  0  0  0  0  0
    9.5200   46.4170   52.1810 C   0  0  0  0  0  0  0  0  0  0  0  0
    9.9450   46.1020   50.9310 F   0  0  0  0  0  0  0  0  0  0  0  0
    8.1500   46.3810   52.4990 C   0  0  0  0  0  0  0  0  0  0  0  0
    7.2020   46.0610   51.4570 C   0  0  0  0  0  0  0  0  0  0  0  0
    6.4460   45.8030   50.6220 N   0  0  0  0  0  0  0  0  0  0  0  0
    5.6460   45.6020   54.3900 N   0  0  0  0  0  0  0  0  0  0  0  0
    2.7320   45.6133   52.1608 H   0  0  0  0  0  0  0  0  0  0  0  0
    3.5694   45.1917   50.6286 H   0  0  0  0  0  0  0  0  0  0  0  0
    2.2638   46.4255   50.6286 H   0  0  0  0  0  0  0  0  0  0  0  0
    0.5834   44.8475   50.6931 H   0  0  0  0  0  0  0  0  0  0  0  0
    1.8461   43.8481   49.8949 H   0  0  0  0  0  0  0  0  0  0  0  0
    1.9101   41.4237   52.3147 H   0  0  0  0  0  0  0  0  0  0  0  0
    3.4613   43.1349   53.5789 H   0  0  0  0  0  0  0  0  0  0  0  0
    4.0854   41.4999   53.0231 H   0  0  0  0  0  0  0  0  0  0  0  0
    4.6930   44.2472   51.9111 H   0  0  0  0  0  0  0  0  0  0  0  0
    5.8116   42.9383   52.5384 H   0  0  0  0  0  0  0  0  0  0  0  0
    4.9073   43.4483   49.8287 H   0  0  0  0  0  0  0  0  0  0  0  0
    6.1590   42.2878   50.4787 H   0  0  0  0  0  0  0  0  0  0  0  0
    4.3697   41.1791   49.1299 H   0  0  0  0  0  0  0  0  0  0  0  0
    4.4955   40.5947   50.8353 H   0  0  0  0  0  0  0  0  0  0  0  0
    2.4514   42.5684   49.7150 H   0  0  0  0  0  0  0  0  0  0  0  0
    2.1694   40.8533   50.2640 H   0  0  0  0  0  0  0  0  0  0  0  0
   -0.6223   45.3255   52.8634 H   0  0  0  0  0  0  0  0  0  0  0  0
   -1.9691   44.1960   53.3099 H   0  0  0  0  0  0  0  0  0  0  0  0
   -0.7039   45.3858   55.2332 H   0  0  0  0  0  0  0  0  0  0  0  0
   -0.9609   43.5988   55.3457 H   0  0  0  0  0  0  0  0  0  0  0  0
    1.3410   43.2630   55.2460 H   0  0  0  0  0  0  0  0  0  0  0  0
    3.5880   44.1810   55.5190 H   0  0  0  0  0  0  0  0  0  0  0  0
    3.3538   47.9531   54.7863 H   0  0  0  0  0  0  0  0  0  0  0  0
    5.8234   48.8329   54.1529 H   0  0  0  0  0  0  0  0  0  0  0  0
    8.3615   47.4002   55.7686 H   0  0  0  0  0  0  0  0  0  0  0  0
   10.7810   47.4516   55.1801 H   0  0  0  0  0  0  0  0  0  0  0  0
   11.5269   46.8196   52.8883 H   0  0  0  0  0  0  0  0  0  0  0  0
  1  2  1  0
  2  3  1  0
  3  4  1  0
  4  5  1  0
  5  6  1  0
  6  7  1  0
  7  8  1  0
  8  9  1  0
  3 10  1  0
 10 11  2  0
 10 12  2  0
 10 13  1  0
 13 14  1  0
 14 15  1  0
 15 16  1  0
 16 17  2  0
 16 18  1  0
 18 19  1  0
 19 20  1  0
 20 21  2  0
 21 22  1  0
 22 23  1  0
 23 24  2  0
 24 25  1  0
 25 26  2  0
 26 27  1  0
 27 28  1  0
 27 29  2  0
 29 30  1  0
 30 31  3  0
 22 32  1  0
  9  4  1  0
 32 19  2  0
 29 23  1  0
  1 33  1  0
  1 34  1  0
  1 35  1  0
  2 36  1  0
  2 37  1  0
  4 38  1  0
  5 39  1  0
  5 40  1  0
  6 41  1  0
  6 42  1  0
  7 43  1  0
  7 44  1  0
  8 45  1  0
  8 46  1  0
  9 47  1  0
  9 48  1  0
 13 49  1  0
 13 50  1  0
 14 51  1  0
 14 52  1  0
 15 53  1  0
 18 54  1  0
 20 55  1  0
 21 56  1  0
 24 57  1  0
 25 58  1  0
 26 59  1  0
M  END
>  <meeko>  (4) 
{"is_sidechain": [false], "free_energy": -8.228, "intermolecular_energy": -11.498, "internal_energy": -1.523}

$$$$
ligand_67_conformer_3_docked
     RDKit          3D

 59 61  0  0  0  0  0  0  0  0999 V2000
    5.6920   44.5570   55.0620 C   0  0  0  0  0  0  0  0  0  0  0  0
    4.9940   45.8530   54.6730 C   0  0  0  0  0  0  0  0  0  0  0  0
    4.3960   45.7100   53.3300 N   0  0  0  0  0  0  0  0  0  0  0  0
    5.0360   46.4690   52.2230 C   0  0  0  0  0  0  0  0  0  0  0  0
    4.9090   45.6980   50.8830 C   0  0  0  0  0  0  0  0  0  0  0  0
    6.0660   44.7230   50.5900 C   0  0  0  0  0  0  0  0  0  0  0  0
    7.4670   45.2790   50.9310 C   0  0  0  0  0  0  0  0  0  0  0  0
    7.4500   46.7490   51.3640 C   0  0  0  0  0  0  0  0  0  0  0  0
    6.4820   46.9640   52.5320 C   0  0  0  0  0  0  0  0  0  0  0  0
    2.6480   45.8660   53.3570 S   0  0  0  0  0  0  0  0  0  0  0  0
    2.1740   45.8730   54.7850 O   0  0  0  0  0  0  0  0  0  0  0  0
    2.2660   47.1760   52.7260 O   0  0  0  0  0  0  0  0  0  0  0  0
    1.8310   44.5430   52.4610 C   0  0  0  0  0  0  0  0  0  0  0  0
    1.9420   43.2040   53.1980 C   0  0  0  0  0  0  0  0  0  0  0  0
    2.9580   42.3480   52.5870 N   0  0  0  0  0  0  0  0  0  0  0  0
    2.9510   42.0190   51.1900 C   0  0  0  0  0  0  0  0  0  0  0  0
    1.9730   42.3560   50.4710 O   0  0  0  0  0  0  0  0  0  0  0  0
    4.0770   41.3370   50.6170 N   0  0  0  0  0  0  0  0  0  0  0  0
    4.1740   40.9520   49.2380 C   0  0  0  0  0  0  0  0  0  0  0  0
    5.1260   41.3740   48.3230 C   0  0  0  0  0  0  0  0  0  0  0  0
    4.7590   40.7510   47.1480 C   0  0  0  0  0  0  0  0  0  0  0  0
    3.6580   40.0040   47.3790 N   0  0  0  0  0  0  0  0  0  0  0  0
    2.9200   39.2380   46.4100 C   0  0  0  0  0  0  0  0  0  0  0  0
    2.9910   37.8350   46.4580 C   0  0  0  0  0  0  0  0  0  0  0  0
    2.2970   37.0560   45.5290 C   0  0  0  0  0  0  0  0  0  0  0  0
    1.5330   37.6670   44.5350 C   0  0  0  0  0  0  0  0  0  0  0  0
    1.4620   39.0590   44.4610 C   0  0  0  0  0  0  0  0  0  0  0  0
    0.7320   39.6320   43.4720 F   0  0  0  0  0  0  0  0  0  0  0  0
    2.1560   39.8550   45.3900 C   0  0  0  0  0  0  0  0  0  0  0  0
    2.1250   41.2910   45.2350 C   0  0  0  0  0  0  0  0  0  0  0  0
    2.0970   42.4400   45.1100 N   0  0  0  0  0  0  0  0  0  0  0  0
    3.2810   40.1390   48.6410 N   0  0  0  0  0  0  0  0  0  0  0  0
    5.7345   44.4782   56.1584 H   0  0  0  0  0  0  0  0  0  0  0  0
    5.1322   43.7024   54.6543 H   0  0  0  0  0  0  0  0  0  0  0  0
    6.7137   44.5541   54.6543 H   0  0  0  0  0  0  0  0  0  0  0  0
    4.2030   46.0765   55.4040 H   0  0  0  0  0  0  0  0  0  0  0  0
    5.7268   46.6732   54.6611 H   0  0  0  0  0  0  0  0  0  0  0  0
    4.4717   47.4071   52.1159 H   0  0  0  0  0  0  0  0  0  0  0  0
    3.9725   45.1215   50.9066 H   0  0  0  0  0  0  0  0  0  0  0  0
    4.9305   46.4550   50.0852 H   0  0  0  0  0  0  0  0  0  0  0  0
    5.9047   43.8093   51.1808 H   0  0  0  0  0  0  0  0  0  0  0  0
    6.0555   44.5380   49.5057 H   0  0  0  0  0  0  0  0  0  0  0  0
    7.8902   44.6792   51.7502 H   0  0  0  0  0  0  0  0  0  0  0  0
    8.0724   45.2175   50.0147 H   0  0  0  0  0  0  0  0  0  0  0  0
    8.4626   47.0441   51.6765 H   0  0  0  0  0  0  0  0  0  0  0  0
    7.1163   47.3619   50.5137 H   0  0  0  0  0  0  0  0  0  0  0  0
    6.8609   46.4155   53.4070 H   0  0  0  0  0  0  0  0  0  0  0  0
    6.4266   48.0466   52.7188 H   0  0  0  0  0  0  0  0  0  0  0  0
    0.7674   44.7971   52.3423 H   0  0  0  0  0  0  0  0  0  0  0  0
    2.3234   44.4371   51.4831 H   0  0  0  0  0  0  0  0  0  0  0  0
    2.2151   43.3930   54.2467 H   0  0  0  0  0  0  0  0  0  0  0  0
    0.9710   42.6908   53.1371 H   0  0  0  0  0  0  0  0  0  0  0  0
    3.7080   41.9520   53.1960 H   0  0  0  0  0  0  0  0  0  0  0  0
    4.9260   41.2120   51.2120 H   0  0  0  0  0  0  0  0  0  0  0  0
    5.9772   42.0494   48.4942 H   0  0  0  0  0  0  0  0  0  0  0  0
    5.2775   40.8469   46.1826 H   0  0  0  0  0  0  0  0  0  0  0  0
    3.5984   37.3461   47.2339 H   0  0  0  0  0  0  0  0  0  0  0  0
    2.3532   35.9587   45.5816 H   0  0  0  0  0  0  0  0  0  0  0  0
    0.9850   37.0503   43.8075 H   0  0  0  0  0  0  0  0  0  0  0  0
  1  2  1  0
  2  3  1  0
  3  4  1  0
  4  5  1  0
  5  6  1  0
  6  7  1  0
  7  8  1  0
  8  9  1  0
  3 10  1  0
 10 11  2  0
 10 12  2  0
 10 13  1  0
 13 14  1  0
 14 15  1  0
 15 16  1  0
 16 17  2  0
 16 18  1  0
 18 19  1  0
 19 20  1  0
 20 21  2  0
 21 22  1  0
 22 23  1  0
 23 24  2  0
 24 25  1  0
 25 26  2  0
 26 27  1  0
 27 28  1  0
 27 29  2  0
 29 30  1  0
 30 31  3  0
 22 32  1  0
  9  4  1  0
 32 19  2  0
 29 23  1  0
  1 33  1  0
  1 34  1  0
  1 35  1  0
  2 36  1  0
  2 37  1  0
  4 38  1  0
  5 39  1  0
  5 40  1  0
  6 41  1  0
  6 42  1  0
  7 43  1  0
  7 44  1  0
  8 45  1  0
  8 46  1  0
  9 47  1  0
  9 48  1  0
 13 49  1  0
 13 50  1  0
 14 51  1  0
 14 52  1  0
 15 53  1  0
 18 54  1  0
 20 55  1  0
 21 56  1  0
 24 57  1  0
 25 58  1  0
 26 59  1  0
M  END
>  <meeko>  (5) 
{"is_sidechain": [false], "free_energy": -8.063, "intermolecular_energy": -11.928, "internal_energy": -0.851}

$$$$
