ligand_19_conformer_2_docked
     RDKit          3D

 47 50  0  0  0  0  0  0  0  0999 V2000
    8.7180   48.2240   54.9610 O   0  0  0  0  0  0  0  0  0  0  0  0
    8.9140   47.6920   53.8370 C   0  0  0  0  0  0  0  0  0  0  0  0
   10.0850   46.8550   53.5130 C   0  0  0  0  0  0  0  0  0  0  0  0
    9.8800   46.5170   52.0270 C   0  0  0  0  0  0  0  0  0  0  0  0
    8.5090   47.1050   51.6050 C   0  0  1  0  0  0  0  0  0  0  0  0
    7.5280   46.0260   51.2000 C   0  0  0  0  0  0  0  0  0  0  0  0
    7.8470   45.1400   50.1590 C   0  0  0  0  0  0  0  0  0  0  0  0
    6.9580   44.1240   49.8010 C   0  0  0  0  0  0  0  0  0  0  0  0
    5.7420   43.9850   50.4720 C   0  0  0  0  0  0  0  0  0  0  0  0
    5.3980   44.8700   51.5090 C   0  0  0  0  0  0  0  0  0  0  0  0
    4.1660   44.7290   52.2370 N   0  0  0  0  0  0  0  0  0  0  0  0
    2.8970   45.2210   51.7720 C   0  0  0  0  0  0  0  0  0  0  0  0
    2.8540   46.0520   50.8240 O   0  0  0  0  0  0  0  0  0  0  0  0
    1.6430   44.7880   52.4240 C   0  0  0  0  0  0  0  0  0  0  0  0
    1.6630   43.9390   53.5420 C   0  0  0  0  0  0  0  0  0  0  0  0
    0.4580   43.5530   54.1340 C   0  0  0  0  0  0  0  0  0  0  0  0
   -0.7570   43.9970   53.6090 C   0  0  0  0  0  0  0  0  0  0  0  0
   -1.9520   43.6060   54.2330 O   0  0  0  0  0  0  0  0  0  0  0  0
   -2.4830   44.1720   55.4020 C   0  0  0  0  0  0  0  0  0  0  0  0
   -3.0430   45.4620   55.4170 C   0  0  0  0  0  0  0  0  0  0  0  0
   -3.5780   45.9830   56.5990 C   0  0  0  0  0  0  0  0  0  0  0  0
   -3.5670   45.2200   57.7690 C   0  0  0  0  0  0  0  0  0  0  0  0
   -3.0300   43.9290   57.7550 C   0  0  0  0  0  0  0  0  0  0  0  0
   -2.4950   43.4060   56.5740 C   0  0  0  0  0  0  0  0  0  0  0  0
   -0.7370   44.8610   52.5030 C   0  0  0  0  0  0  0  0  0  0  0  0
    0.4460   45.2270   51.9450 N   0  0  0  0  0  0  0  0  0  0  0  0
    6.3050   45.8740   51.8800 C   0  0  0  0  0  0  0  0  0  0  0  0
    8.0140   47.8320   52.7610 N   0  0  0  0  0  0  0  0  0  0  0  0
   11.0213   47.4121   53.6646 H   0  0  0  0  0  0  0  0  0  0  0  0
   10.1643   45.9617   54.1500 H   0  0  0  0  0  0  0  0  0  0  0  0
   10.6835   46.9658   51.4246 H   0  0  0  0  0  0  0  0  0  0  0  0
    9.9022   45.4287   51.8686 H   0  0  0  0  0  0  0  0  0  0  0  0
    8.6240   47.7553   50.7253 H   0  0  0  0  0  0  0  0  0  0  0  0
    8.8015   45.2464   49.6227 H   0  0  0  0  0  0  0  0  0  0  0  0
    7.2171   43.4308   48.9872 H   0  0  0  0  0  0  0  0  0  0  0  0
    5.0493   43.1790   50.1881 H   0  0  0  0  0  0  0  0  0  0  0  0
    4.2160   44.3260   53.2010 H   0  0  0  0  0  0  0  0  0  0  0  0
    2.6201   43.5805   53.9487 H   0  0  0  0  0  0  0  0  0  0  0  0
    0.4665   42.8969   55.0169 H   0  0  0  0  0  0  0  0  0  0  0  0
   -3.0601   46.0630   54.4958 H   0  0  0  0  0  0  0  0  0  0  0  0
   -4.0082   46.9953   56.6076 H   0  0  0  0  0  0  0  0  0  0  0  0
   -3.9803   45.6343   58.7004 H   0  0  0  0  0  0  0  0  0  0  0  0
   -3.0285   43.3244   58.6740 H   0  0  0  0  0  0  0  0  0  0  0  0
   -2.0811   42.3869   56.5655 H   0  0  0  0  0  0  0  0  0  0  0  0
   -1.6813   45.2425   52.0873 H   0  0  0  0  0  0  0  0  0  0  0  0
    6.0576   46.5501   52.7117 H   0  0  0  0  0  0  0  0  0  0  0  0
    7.1270   48.3820   52.7900 H   0  0  0  0  0  0  0  0  0  0  0  0
  1  2  2  0
  2  3  1  0
  3  4  1  0
  4  5  1  0
  5  6  1  0
  6  7  2  0
  7  8  1  0
  8  9  2  0
  9 10  1  0
 10 11  1  0
 11 12  1  0
 12 13  2  0
 12 14  1  0
 14 15  2  0
 15 16  1  0
 16 17  2  0
 17 18  1  0
 18 19  1  0
 19 20  2  0
 20 21  1  0
 21 22  2  0
 22 23  1  0
 23 24  2  0
 17 25  1  0
 25 26  2  0
 10 27  2  0
  5 28  1  0
 28  2  1  0
 27  6  1  0
 26 14  1  0
 24 19  1  0
  3 29  1  0
  3 30  1  0
  4 31  1  0
  4 32  1  0
  5 33  1  6
  7 34  1  0
  8 35  1  0
  9 36  1  0
 11 37  1  0
 15 38  1  0
 16 39  1  0
 20 40  1  0
 21 41  1  0
 22 42  1  0
 23 43  1  0
 24 44  1  0
 25 45  1  0
 27 46  1  0
 28 47  1  0
M  END
>  <meeko>  (1) 
{"is_sidechain": [false], "free_energy": -9.492, "intermolecular_energy": -12.266, "internal_energy": -0.932}

$$$$
ligand_19_conformer_2_docked
     RDKit          3D

 47 50  0  0  0  0  0  0  0  0999 V2000
    8.9400   48.3440   55.1590 O   0  0  0  0  0  0  0  0  0  0  0  0
    9.0510   47.8030   54.0270 C   0  0  0  0  0  0  0  0  0  0  0  0
   10.1120   46.8400   53.6740 C   0  0  0  0  0  0  0  0  0  0  0  0
    9.8410   46.5420   52.1910 C   0  0  0  0  0  0  0  0  0  0  0  0
    8.5390   47.2890   51.8000 C   0  0  1  0  0  0  0  0  0  0  0  0
    7.4320   46.3340   51.4070 C   0  0  0  0  0  0  0  0  0  0  0  0
    7.6530   45.3740   50.4070 C   0  0  0  0  0  0  0  0  0  0  0  0
    6.6460   44.4720   50.0600 C   0  0  0  0  0  0  0  0  0  0  0  0
    5.4070   44.5190   50.7040 C   0  0  0  0  0  0  0  0  0  0  0  0
    5.1620   45.4810   51.7000 C   0  0  0  0  0  0  0  0  0  0  0  0
    3.9070   45.5310   52.4000 N   0  0  0  0  0  0  0  0  0  0  0  0
    3.2880   44.3910   53.0230 C   0  0  0  0  0  0  0  0  0  0  0  0
    3.6850   43.2280   52.7420 O   0  0  0  0  0  0  0  0  0  0  0  0
    2.1630   44.5740   53.9640 C   0  0  0  0  0  0  0  0  0  0  0  0
    0.8390   44.3210   53.5700 C   0  0  0  0  0  0  0  0  0  0  0  0
   -0.1980   44.5010   54.4870 C   0  0  0  0  0  0  0  0  0  0  0  0
    0.0770   44.9420   55.7830 C   0  0  0  0  0  0  0  0  0  0  0  0
   -0.9830   45.1000   56.6880 O   0  0  0  0  0  0  0  0  0  0  0  0
   -1.6590   46.3020   56.9470 C   0  0  0  0  0  0  0  0  0  0  0  0
   -2.8760   46.6230   56.3170 C   0  0  0  0  0  0  0  0  0  0  0  0
   -3.5270   47.8240   56.6160 C   0  0  0  0  0  0  0  0  0  0  0  0
   -2.9770   48.7050   57.5500 C   0  0  0  0  0  0  0  0  0  0  0  0
   -1.7790   48.3820   58.1940 C   0  0  0  0  0  0  0  0  0  0  0  0
   -1.1260   47.1820   57.8970 C   0  0  0  0  0  0  0  0  0  0  0  0
    1.4140   45.1660   56.1470 C   0  0  0  0  0  0  0  0  0  0  0  0
    2.4090   44.9800   55.2400 N   0  0  0  0  0  0  0  0  0  0  0  0
    6.1860   46.3700   52.0590 C   0  0  0  0  0  0  0  0  0  0  0  0
    8.1530   48.0570   52.9710 N   0  0  0  0  0  0  0  0  0  0  0  0
   11.1088   47.2846   53.8107 H   0  0  0  0  0  0  0  0  0  0  0  0
   10.1006   45.9377   54.3031 H   0  0  0  0  0  0  0  0  0  0  0  0
   10.6796   46.9003   51.5758 H   0  0  0  0  0  0  0  0  0  0  0  0
    9.7336   45.4599   52.0248 H   0  0  0  0  0  0  0  0  0  0  0  0
    8.7120   47.9300   50.9230 H   0  0  0  0  0  0  0  0  0  0  0  0
    8.6252   45.3324   49.8940 H   0  0  0  0  0  0  0  0  0  0  0  0
    6.8285   43.7215   49.2768 H   0  0  0  0  0  0  0  0  0  0  0  0
    4.6200   43.8006   50.4308 H   0  0  0  0  0  0  0  0  0  0  0  0
    3.3730   46.4290   52.3740 H   0  0  0  0  0  0  0  0  0  0  0  0
    0.6207   43.9834   52.5461 H   0  0  0  0  0  0  0  0  0  0  0  0
   -1.2361   44.2946   54.1874 H   0  0  0  0  0  0  0  0  0  0  0  0
   -3.3162   45.9273   55.5875 H   0  0  0  0  0  0  0  0  0  0  0  0
   -4.4735   48.0752   56.1150 H   0  0  0  0  0  0  0  0  0  0  0  0
   -3.4864   49.6527   57.7787 H   0  0  0  0  0  0  0  0  0  0  0  0
   -1.3498   49.0725   58.9350 H   0  0  0  0  0  0  0  0  0  0  0  0
   -0.1882   46.9276   58.4125 H   0  0  0  0  0  0  0  0  0  0  0  0
    1.6571   45.4929   57.1688 H   0  0  0  0  0  0  0  0  0  0  0  0
    6.0126   47.1039   52.8598 H   0  0  0  0  0  0  0  0  0  0  0  0
    7.3360   48.7050   53.0220 H   0  0  0  0  0  0  0  0  0  0  0  0
  1  2  2  0
  2  3  1  0
  3  4  1  0
  4  5  1  0
  5  6  1  0
  6  7  2  0
  7  8  1  0
  8  9  2  0
  9 10  1  0
 10 11  1  0
 11 12  1  0
 12 13  2  0
 12 14  1  0
 14 15  2  0
 15 16  1  0
 16 17  2  0
 17 18  1  0
 18 19  1  0
 19 20  2  0
 20 21  1  0
 21 22  2  0
 22 23  1  0
 23 24  2  0
 17 25  1  0
 25 26  2  0
 10 27  2  0
  5 28  1  0
 28  2  1  0
 27  6  1  0
 26 14  1  0
 24 19  1  0
  3 29  1  0
  3 30  1  0
  4 31  1  0
  4 32  1  0
  5 33  1  6
  7 34  1  0
  8 35  1  0
  9 36  1  0
 11 37  1  0
 15 38  1  0
 16 39  1  0
 20 40  1  0
 21 41  1  0
 22 42  1  0
 23 43  1  0
 24 44  1  0
 25 45  1  0
 27 46  1  0
 28 47  1  0
M  END
>  <meeko>  (2) 
{"is_sidechain": [false], "free_energy": -9.281, "intermolecular_energy": -12.4, "internal_energy": -0.525}

$$$$
ligand_19_conformer_2_docked
     RDKit          3D

 47 50  0  0  0  0  0  0  0  0999 V2000
   -3.1740   47.2990   50.8920 O   0  0  0  0  0  0  0  0  0  0  0  0
   -3.0650   46.1860   51.4700 C   0  0  0  0  0  0  0  0  0  0  0  0
   -2.3040   45.0450   50.9260 C   0  0  0  0  0  0  0  0  0  0  0  0
   -2.5390   43.9340   51.9640 C   0  0  0  0  0  0  0  0  0  0  0  0
   -3.3530   44.5550   53.1280 C   0  0  1  0  0  0  0  0  0  0  0  0
   -2.5780   44.5540   54.4280 C   0  0  0  0  0  0  0  0  0  0  0  0
   -3.1810   44.0860   55.6060 C   0  0  0  0  0  0  0  0  0  0  0  0
   -2.4610   44.0550   56.8020 C   0  0  0  0  0  0  0  0  0  0  0  0
   -1.1350   44.4940   56.8370 C   0  0  0  0  0  0  0  0  0  0  0  0
   -0.5170   44.9770   55.6700 C   0  0  0  0  0  0  0  0  0  0  0  0
    0.8560   45.4050   55.6720 N   0  0  0  0  0  0  0  0  0  0  0  0
    1.8660   44.8640   54.8020 C   0  0  0  0  0  0  0  0  0  0  0  0
    1.6540   43.7850   54.1850 O   0  0  0  0  0  0  0  0  0  0  0  0
    3.1690   45.5470   54.6550 C   0  0  0  0  0  0  0  0  0  0  0  0
    4.3230   45.0520   55.2830 C   0  0  0  0  0  0  0  0  0  0  0  0
    5.5370   45.7230   55.1190 C   0  0  0  0  0  0  0  0  0  0  0  0
    5.6000   46.8850   54.3480 C   0  0  0  0  0  0  0  0  0  0  0  0
    6.8360   47.5290   54.1880 O   0  0  0  0  0  0  0  0  0  0  0  0
    7.9000   47.0640   53.4010 C   0  0  0  0  0  0  0  0  0  0  0  0
    7.6950   46.4980   52.1290 C   0  0  0  0  0  0  0  0  0  0  0  0
    8.7840   46.0630   51.3680 C   0  0  0  0  0  0  0  0  0  0  0  0
   10.0830   46.1980   51.8640 C   0  0  0  0  0  0  0  0  0  0  0  0
   10.2950   46.7780   53.1190 C   0  0  0  0  0  0  0  0  0  0  0  0
    9.2070   47.2140   53.8810 C   0  0  0  0  0  0  0  0  0  0  0  0
    4.4300   47.3390   53.7190 C   0  0  0  0  0  0  0  0  0  0  0  0
    3.2600   46.6700   53.8890 N   0  0  0  0  0  0  0  0  0  0  0  0
   -1.2390   44.9840   54.4670 C   0  0  0  0  0  0  0  0  0  0  0  0
   -3.6570   45.9160   52.7210 N   0  0  0  0  0  0  0  0  0  0  0  0
   -2.6891   44.7495   49.9389 H   0  0  0  0  0  0  0  0  0  0  0  0
   -1.2386   45.2724   50.7733 H   0  0  0  0  0  0  0  0  0  0  0  0
   -3.1039   43.1071   51.5089 H   0  0  0  0  0  0  0  0  0  0  0  0
   -1.5818   43.5331   52.3287 H   0  0  0  0  0  0  0  0  0  0  0  0
   -4.2628   43.9664   53.3171 H   0  0  0  0  0  0  0  0  0  0  0  0
   -4.2257   43.7420   55.5869 H   0  0  0  0  0  0  0  0  0  0  0  0
   -2.9396   43.6835   57.7201 H   0  0  0  0  0  0  0  0  0  0  0  0
   -0.5721   44.4616   57.7815 H   0  0  0  0  0  0  0  0  0  0  0  0
    1.1520   46.0830   56.4100 H   0  0  0  0  0  0  0  0  0  0  0  0
    4.2715   44.1425   55.8996 H   0  0  0  0  0  0  0  0  0  0  0  0
    6.4470   45.3342   55.5993 H   0  0  0  0  0  0  0  0  0  0  0  0
    6.6741   46.3975   51.7321 H   0  0  0  0  0  0  0  0  0  0  0  0
    8.6179   45.6140   50.3777 H   0  0  0  0  0  0  0  0  0  0  0  0
   10.9387   45.8483   51.2678 H   0  0  0  0  0  0  0  0  0  0  0  0
   11.3182   46.8911   53.5066 H   0  0  0  0  0  0  0  0  0  0  0  0
    9.3786   47.6777   54.8636 H   0  0  0  0  0  0  0  0  0  0  0  0
    4.4607   48.2387   53.0869 H   0  0  0  0  0  0  0  0  0  0  0  0
   -0.7523   45.3299   53.5432 H   0  0  0  0  0  0  0  0  0  0  0  0
   -4.2320   46.5930   53.2700 H   0  0  0  0  0  0  0  0  0  0  0  0
  1  2  2  0
  2  3  1  0
  3  4  1  0
  4  5  1  0
  5  6  1  0
  6  7  2  0
  7  8  1  0
  8  9  2  0
  9 10  1  0
 10 11  1  0
 11 12  1  0
 12 13  2  0
 12 14  1  0
 14 15  2  0
 15 16  1  0
 16 17  2  0
 17 18  1  0
 18 19  1  0
 19 20  2  0
 20 21  1  0
 21 22  2  0
 22 23  1  0
 23 24  2  0
 17 25  1  0
 25 26  2  0
 10 27  2  0
  5 28  1  0
 28  2  1  0
 27  6  1  0
 26 14  1  0
 24 19  1  0
  3 29  1  0
  3 30  1  0
  4 31  1  0
  4 32  1  0
  5 33  1  1
  7 34  1  0
  8 35  1  0
  9 36  1  0
 11 37  1  0
 15 38  1  0
 16 39  1  0
 20 40  1  0
 21 41  1  0
 22 42  1  0
 23 43  1  0
 24 44  1  0
 25 45  1  0
 27 46  1  0
 28 47  1  0
M  END
>  <meeko>  (3) 
{"is_sidechain": [false], "free_energy": -8.513, "intermolecular_energy": -11.195, "internal_energy": -0.738}

$$$$
ligand_19_conformer_2_docked
     RDKit          3D

 47 50  0  0  0  0  0  0  0  0999 V2000
   10.1800   47.1640   55.3590 O   0  0  0  0  0  0  0  0  0  0  0  0
    9.5860   47.0950   54.2510 C   0  0  0  0  0  0  0  0  0  0  0  0
   10.2570   46.7950   52.9710 C   0  0  0  0  0  0  0  0  0  0  0  0
    9.1200   46.8920   51.9420 C   0  0  0  0  0  0  0  0  0  0  0  0
    7.8060   47.1410   52.7280 C   0  0  1  0  0  0  0  0  0  0  0  0
    6.8240   45.9990   52.5700 C   0  0  0  0  0  0  0  0  0  0  0  0
    6.0590   45.5730   53.6660 C   0  0  0  0  0  0  0  0  0  0  0  0
    5.1320   44.5400   53.5200 C   0  0  0  0  0  0  0  0  0  0  0  0
    4.9610   43.9190   52.2800 C   0  0  0  0  0  0  0  0  0  0  0  0
    5.7260   44.3230   51.1730 C   0  0  0  0  0  0  0  0  0  0  0  0
    5.5480   43.7220   49.8790 N   0  0  0  0  0  0  0  0  0  0  0  0
    5.7320   42.3210   49.6120 C   0  0  0  0  0  0  0  0  0  0  0  0
    6.3340   41.5940   50.4480 O   0  0  0  0  0  0  0  0  0  0  0  0
    5.2510   41.7330   48.3430 C   0  0  0  0  0  0  0  0  0  0  0  0
    5.8150   42.1040   47.1120 C   0  0  0  0  0  0  0  0  0  0  0  0
    5.3370   41.5250   45.9340 C   0  0  0  0  0  0  0  0  0  0  0  0
    4.2980   40.5940   45.9800 C   0  0  0  0  0  0  0  0  0  0  0  0
    3.8480   40.0170   44.7830 O   0  0  0  0  0  0  0  0  0  0  0  0
    4.6080   39.1900   43.9420 C   0  0  0  0  0  0  0  0  0  0  0  0
    5.6360   39.6990   43.1270 C   0  0  0  0  0  0  0  0  0  0  0  0
    6.3820   38.8380   42.3160 C   0  0  0  0  0  0  0  0  0  0  0  0
    6.1170   37.4670   42.3200 C   0  0  0  0  0  0  0  0  0  0  0  0
    5.1100   36.9520   43.1420 C   0  0  0  0  0  0  0  0  0  0  0  0
    4.3630   37.8110   43.9550 C   0  0  0  0  0  0  0  0  0  0  0  0
    3.7720   40.2320   47.2300 C   0  0  0  0  0  0  0  0  0  0  0  0
    4.2540   40.8050   48.3640 N   0  0  0  0  0  0  0  0  0  0  0  0
    6.6400   45.3770   51.3210 C   0  0  0  0  0  0  0  0  0  0  0  0
    8.1950   47.2860   54.1190 N   0  0  0  0  0  0  0  0  0  0  0  0
   11.0451   47.5320   52.7575 H   0  0  0  0  0  0  0  0  0  0  0  0
   10.7572   45.8153   52.9675 H   0  0  0  0  0  0  0  0  0  0  0  0
    9.3086   47.7262   51.2502 H   0  0  0  0  0  0  0  0  0  0  0  0
    9.0504   45.9673   51.3504 H   0  0  0  0  0  0  0  0  0  0  0  0
    7.2933   48.0363   52.3464 H   0  0  0  0  0  0  0  0  0  0  0  0
    6.1905   46.0557   54.6456 H   0  0  0  0  0  0  0  0  0  0  0  0
    4.5341   44.2137   54.3837 H   0  0  0  0  0  0  0  0  0  0  0  0
    4.2239   43.1099   52.1700 H   0  0  0  0  0  0  0  0  0  0  0  0
    5.3630   44.3580   49.0700 H   0  0  0  0  0  0  0  0  0  0  0  0
    6.6271   42.8450   47.0754 H   0  0  0  0  0  0  0  0  0  0  0  0
    5.7809   41.8037   44.9669 H   0  0  0  0  0  0  0  0  0  0  0  0
    5.8534   40.7773   43.1278 H   0  0  0  0  0  0  0  0  0  0  0  0
    7.1788   39.2414   41.6739 H   0  0  0  0  0  0  0  0  0  0  0  0
    6.7005   36.7922   41.6765 H   0  0  0  0  0  0  0  0  0  0  0  0
    4.9051   35.8713   43.1494 H   0  0  0  0  0  0  0  0  0  0  0  0
    3.5787   37.4011   44.6083 H   0  0  0  0  0  0  0  0  0  0  0  0
    2.9684   39.4834   47.2917 H   0  0  0  0  0  0  0  0  0  0  0  0
    7.2191   45.7210   50.4514 H   0  0  0  0  0  0  0  0  0  0  0  0
    7.5440   47.5040   54.9050 H   0  0  0  0  0  0  0  0  0  0  0  0
  1  2  2  0
  2  3  1  0
  3  4  1  0
  4  5  1  0
  5  6  1  0
  6  7  2  0
  7  8  1  0
  8  9  2  0
  9 10  1  0
 10 11  1  0
 11 12  1  0
 12 13  2  0
 12 14  1  0
 14 15  2  0
 15 16  1  0
 16 17  2  0
 17 18  1  0
 18 19  1  0
 19 20  2  0
 20 21  1  0
 21 22  2  0
 22 23  1  0
 23 24  2  0
 17 25  1  0
 25 26  2  0
 10 27  2  0
  5 28  1  0
 28  2  1  0
 27  6  1  0
 26 14  1  0
 24 19  1  0
  3 29  1  0
  3 30  1  0
  4 31  1  0
  4 32  1  0
  5 33  1  6
  7 34  1  0
  8 35  1  0
  9 36  1  0
 11 37  1  0
 15 38  1  0
 16 39  1  0
 20 40  1  0
 21 41  1  0
 22 42  1  0
 23 43  1  0
 24 44  1  0
 25 45  1  0
 27 46  1  0
 28 47  1  0
M  END
>  <meeko>  (4) 
{"is_sidechain": [false], "free_energy": -8.423, "intermolecular_energy": -11.206, "internal_energy": -0.611}

$$$$
ligand_19_conformer_2_docked
     RDKit          3D

 47 50  0  0  0  0  0  0  0  0999 V2000
   -2.8380   45.0250   49.0550 O   0  0  0  0  0  0  0  0  0  0  0  0
   -3.1370   44.4350   50.1270 C   0  0  0  0  0  0  0  0  0  0  0  0
   -3.2470   42.9690   50.2590 C   0  0  0  0  0  0  0  0  0  0  0  0
   -3.6910   42.7770   51.7190 C   0  0  0  0  0  0  0  0  0  0  0  0
   -3.7030   44.1770   52.3860 C   0  0  1  0  0  0  0  0  0  0  0  0
   -2.6920   44.2810   53.5070 C   0  0  0  0  0  0  0  0  0  0  0  0
   -3.0750   44.0000   54.8280 C   0  0  0  0  0  0  0  0  0  0  0  0
   -2.1390   44.0660   55.8620 C   0  0  0  0  0  0  0  0  0  0  0  0
   -0.8150   44.4170   55.5920 C   0  0  0  0  0  0  0  0  0  0  0  0
   -0.4140   44.7140   54.2770 C   0  0  0  0  0  0  0  0  0  0  0  0
    0.9500   45.0470   53.9670 N   0  0  0  0  0  0  0  0  0  0  0  0
    1.8200   44.2150   53.1790 C   0  0  0  0  0  0  0  0  0  0  0  0
    1.5100   43.0130   52.9560 O   0  0  0  0  0  0  0  0  0  0  0  0
    3.0960   44.7510   52.6600 C   0  0  0  0  0  0  0  0  0  0  0  0
    3.2290   46.1050   52.3160 C   0  0  0  0  0  0  0  0  0  0  0  0
    4.4510   46.5760   51.8320 C   0  0  0  0  0  0  0  0  0  0  0  0
    5.5300   45.7030   51.6780 C   0  0  0  0  0  0  0  0  0  0  0  0
    6.7510   46.2050   51.2030 O   0  0  0  0  0  0  0  0  0  0  0  0
    7.8730   46.4960   51.9930 C   0  0  0  0  0  0  0  0  0  0  0  0
    9.1760   46.1380   51.5980 C   0  0  0  0  0  0  0  0  0  0  0  0
   10.2700   46.4610   52.4060 C   0  0  0  0  0  0  0  0  0  0  0  0
   10.0760   47.1500   53.6060 C   0  0  0  0  0  0  0  0  0  0  0  0
    8.7860   47.5260   53.9940 C   0  0  0  0  0  0  0  0  0  0  0  0
    7.6900   47.2040   53.1870 C   0  0  0  0  0  0  0  0  0  0  0  0
    5.3670   44.3590   52.0510 C   0  0  0  0  0  0  0  0  0  0  0  0
    4.1700   43.9230   52.5240 N   0  0  0  0  0  0  0  0  0  0  0  0
   -1.3530   44.6240   53.2390 C   0  0  0  0  0  0  0  0  0  0  0  0
   -3.3890   45.1240   51.3310 N   0  0  0  0  0  0  0  0  0  0  0  0
   -3.9973   42.5660   49.5628 H   0  0  0  0  0  0  0  0  0  0  0  0
   -2.3099   42.4441   50.0217 H   0  0  0  0  0  0  0  0  0  0  0  0
   -4.6983   42.3362   51.7511 H   0  0  0  0  0  0  0  0  0  0  0  0
   -3.0050   42.0995   52.2485 H   0  0  0  0  0  0  0  0  0  0  0  0
   -4.6834   44.3768   52.8430 H   0  0  0  0  0  0  0  0  0  0  0  0
   -4.1172   43.7266   55.0495 H   0  0  0  0  0  0  0  0  0  0  0  0
   -2.4462   43.8404   56.8939 H   0  0  0  0  0  0  0  0  0  0  0  0
   -0.0823   44.4615   56.4112 H   0  0  0  0  0  0  0  0  0  0  0  0
    1.3560   45.8990   54.4170 H   0  0  0  0  0  0  0  0  0  0  0  0
    2.3761   46.7907   52.4270 H   0  0  0  0  0  0  0  0  0  0  0  0
    4.5642   47.6386   51.5710 H   0  0  0  0  0  0  0  0  0  0  0  0
    9.3337   45.6023   50.6503 H   0  0  0  0  0  0  0  0  0  0  0  0
   11.2853   46.1723   52.0966 H   0  0  0  0  0  0  0  0  0  0  0  0
   10.9369   47.3964   54.2448 H   0  0  0  0  0  0  0  0  0  0  0  0
    8.6333   48.0754   54.9346 H   0  0  0  0  0  0  0  0  0  0  0  0
    6.6781   47.5088   53.4922 H   0  0  0  0  0  0  0  0  0  0  0  0
    6.2097   43.6579   51.9601 H   0  0  0  0  0  0  0  0  0  0  0  0
   -1.0397   44.8237   52.2036 H   0  0  0  0  0  0  0  0  0  0  0  0
   -3.3590   46.1620   51.4440 H   0  0  0  0  0  0  0  0  0  0  0  0
  1  2  2  0
  2  3  1  0
  3  4  1  0
  4  5  1  0
  5  6  1  0
  6  7  2  0
  7  8  1  0
  8  9  2  0
  9 10  1  0
 10 11  1  0
 11 12  1  0
 12 13  2  0
 12 14  1  0
 14 15  2  0
 15 16  1  0
 16 17  2  0
 17 18  1  0
 18 19  1  0
 19 20  2  0
 20 21  1  0
 21 22  2  0
 22 23  1  0
 23 24  2  0
 17 25  1  0
 25 26  2  0
 10 27  2  0
  5 28  1  0
 28  2  1  0
 27  6  1  0
 26 14  1  0
 24 19  1  0
  3 29  1  0
  3 30  1  0
  4 31  1  0
  4 32  1  0
  5 33  1  1
  7 34  1  0
  8 35  1  0
  9 36  1  0
 11 37  1  0
 15 38  1  0
 16 39  1  0
 20 40  1  0
 21 41  1  0
 22 42  1  0
 23 43  1  0
 24 44  1  0
 25 45  1  0
 27 46  1  0
 28 47  1  0
M  END
>  <meeko>  (5) 
{"is_sidechain": [false], "free_energy": -7.971, "intermolecular_energy": -10.42, "internal_energy": -0.812}

$$$$
