ligand_94_conformer_5_docked
     RDKit          3D

 52 55  0  0  0  0  0  0  0  0999 V2000
   10.2390   47.1660   54.8150 C   0  0  0  0  0  0  0  0  0  0  0  0
    9.1200   47.3610   53.8800 N   0  0  0  0  0  0  0  0  0  0  0  0
    9.3050   46.5320   52.6800 C   0  0  0  0  0  0  0  0  0  0  0  0
    8.3000   46.9570   51.6040 C   0  0  0  0  0  0  0  0  0  0  0  0
    6.9660   47.4470   52.1980 C   0  0  0  0  0  0  0  0  0  0  0  0
    6.6580   46.7750   53.5570 C   0  0  2  0  0  0  0  0  0  0  0  0
    5.3520   47.2310   54.1360 N   0  0  0  0  0  0  0  0  0  0  0  0
    4.7140   46.2260   55.0150 C   0  0  0  0  0  0  0  0  0  0  0  0
    4.3290   44.9460   54.2620 C   0  0  0  0  0  0  0  0  0  0  0  0
    3.8280   45.1910   52.8960 N   0  0  0  0  0  0  0  0  0  0  0  0
    3.3580   44.0730   52.1170 C   0  0  0  0  0  0  0  0  0  0  0  0
    2.4710   44.2520   51.2380 O   0  0  0  0  0  0  0  0  0  0  0  0
    3.9530   42.6980   52.2730 C   0  0  0  0  0  0  0  0  0  0  0  0
    4.4720   42.1980   50.9560 C   0  0  0  0  0  0  0  0  0  0  0  0
    5.7170   42.5580   50.4430 C   0  0  0  0  0  0  0  0  0  0  0  0
    5.8780   41.8370   48.9340 S   0  0  0  0  0  0  0  0  0  0  0  0
    4.3740   41.0880   49.0030 C   0  0  0  0  0  0  0  0  0  0  0  0
    3.7790   40.2760   47.9390 C   0  0  0  0  0  0  0  0  0  0  0  0
    3.1470   39.0470   48.0960 C   0  0  0  0  0  0  0  0  0  0  0  0
    2.7150   38.4910   46.8870 C   0  0  0  0  0  0  0  0  0  0  0  0
    3.0030   39.2740   45.7770 C   0  0  0  0  0  0  0  0  0  0  0  0
    3.8000   40.6590   46.3010 S   0  0  0  0  0  0  0  0  0  0  0  0
    3.7360   41.3760   50.1590 N   0  0  0  0  0  0  0  0  0  0  0  0
    3.9330   46.4910   52.2100 C   0  0  0  0  0  0  0  0  0  0  0  0
    4.3410   47.6400   53.1410 C   0  0  0  0  0  0  0  0  0  0  0  0
    7.8310   47.0630   54.5480 C   0  0  0  0  0  0  0  0  0  0  0  0
    9.8686   47.2306   55.8487 H   0  0  0  0  0  0  0  0  0  0  0  0
   10.6884   46.1760   54.6477 H   0  0  0  0  0  0  0  0  0  0  0  0
   10.9967   47.9456   54.6477 H   0  0  0  0  0  0  0  0  0  0  0  0
   10.3282   46.6633   52.2981 H   0  0  0  0  0  0  0  0  0  0  0  0
    9.1416   45.4749   52.9365 H   0  0  0  0  0  0  0  0  0  0  0  0
    8.7420   47.7717   51.0116 H   0  0  0  0  0  0  0  0  0  0  0  0
    8.0837   46.0746   50.9838 H   0  0  0  0  0  0  0  0  0  0  0  0
    7.0204   48.5359   52.3440 H   0  0  0  0  0  0  0  0  0  0  0  0
    6.1621   47.1806   51.4961 H   0  0  0  0  0  0  0  0  0  0  0  0
    6.5653   45.6917   53.3904 H   0  0  0  0  0  0  0  0  0  0  0  0
    5.4170   45.9640   55.8194 H   0  0  0  0  0  0  0  0  0  0  0  0
    3.7898   46.6697   55.4138 H   0  0  0  0  0  0  0  0  0  0  0  0
    5.2177   44.3011   54.1958 H   0  0  0  0  0  0  0  0  0  0  0  0
    3.5103   44.4747   54.8256 H   0  0  0  0  0  0  0  0  0  0  0  0
    4.7812   42.7417   52.9956 H   0  0  0  0  0  0  0  0  0  0  0  0
    3.1726   42.0110   52.6322 H   0  0  0  0  0  0  0  0  0  0  0  0
    6.4611   43.1995   50.9377 H   0  0  0  0  0  0  0  0  0  0  0  0
    3.0015   38.5612   49.0721 H   0  0  0  0  0  0  0  0  0  0  0  0
    2.1955   37.5236   46.8218 H   0  0  0  0  0  0  0  0  0  0  0  0
    2.7528   39.0302   44.7340 H   0  0  0  0  0  0  0  0  0  0  0  0
    4.6855   46.4046   51.4124 H   0  0  0  0  0  0  0  0  0  0  0  0
    2.9347   46.7316   51.8155 H   0  0  0  0  0  0  0  0  0  0  0  0
    4.7559   48.4568   52.5321 H   0  0  0  0  0  0  0  0  0  0  0  0
    3.4429   47.9598   53.6898 H   0  0  0  0  0  0  0  0  0  0  0  0
    7.5550   47.9272   55.1700 H   0  0  0  0  0  0  0  0  0  0  0  0
    7.9814   46.1483   55.1402 H   0  0  0  0  0  0  0  0  0  0  0  0
  1  2  1  0
  2  3  1  0
  3  4  1  0
  4  5  1  0
  5  6  1  0
  6  7  1  0
  7  8  1  0
  8  9  1  0
  9 10  1  0
 10 11  1  0
 11 12  2  0
 11 13  1  0
 13 14  1  0
 14 15  2  0
 15 16  1  0
 16 17  1  0
 17 18  1  0
 18 19  2  0
 19 20  1  0
 20 21  2  0
 21 22  1  0
 17 23  2  0
 10 24  1  0
 24 25  1  0
  6 26  1  0
 26  2  1  0
 25  7  1  0
 23 14  1  0
 22 18  1  0
  1 27  1  0
  1 28  1  0
  1 29  1  0
  3 30  1  0
  3 31  1  0
  4 32  1  0
  4 33  1  0
  5 34  1  0
  5 35  1  0
  6 36  1  6
  8 37  1  0
  8 38  1  0
  9 39  1  0
  9 40  1  0
 13 41  1  0
 13 42  1  0
 15 43  1  0
 19 44  1  0
 20 45  1  0
 21 46  1  0
 24 47  1  0
 24 48  1  0
 25 49  1  0
 25 50  1  0
 26 51  1  0
 26 52  1  0
M  END
>  <meeko>  (1) 
{"is_sidechain": [false], "free_energy": -8.11, "intermolecular_energy": -10.006, "internal_energy": -0.361}

$$$$
ligand_94_conformer_5_docked
     RDKit          3D

 52 55  0  0  0  0  0  0  0  0999 V2000
   -2.4280   43.9460   56.5690 C   0  0  0  0  0  0  0  0  0  0  0  0
   -2.3570   43.7530   55.1130 N   0  0  0  0  0  0  0  0  0  0  0  0
   -2.9020   44.9240   54.4120 C   0  0  0  0  0  0  0  0  0  0  0  0
   -3.0890   44.5930   52.9280 C   0  0  0  0  0  0  0  0  0  0  0  0
   -2.0280   43.6070   52.4020 C   0  0  0  0  0  0  0  0  0  0  0  0
   -0.6950   43.7270   53.1770 C   0  0  2  0  0  0  0  0  0  0  0  0
    0.3520   42.7840   52.6620 N   0  0  0  0  0  0  0  0  0  0  0  0
    1.6420   42.8850   53.3800 C   0  0  0  0  0  0  0  0  0  0  0  0
    2.3020   44.2600   53.2110 C   0  0  0  0  0  0  0  0  0  0  0  0
    2.1330   44.8360   51.8630 N   0  0  0  0  0  0  0  0  0  0  0  0
    2.7780   46.0880   51.5570 C   0  0  0  0  0  0  0  0  0  0  0  0
    3.1190   46.3410   50.3680 O   0  0  0  0  0  0  0  0  0  0  0  0
    2.9920   47.1420   52.6100 C   0  0  0  0  0  0  0  0  0  0  0  0
    4.3210   46.9520   53.2820 C   0  0  0  0  0  0  0  0  0  0  0  0
    4.4780   46.9440   54.6680 C   0  0  0  0  0  0  0  0  0  0  0  0
    6.1160   46.7690   54.9980 S   0  0  0  0  0  0  0  0  0  0  0  0
    6.5530   46.6940   53.3760 C   0  0  0  0  0  0  0  0  0  0  0  0
    7.9230   46.5890   52.8680 C   0  0  0  0  0  0  0  0  0  0  0  0
    9.0830   46.9320   53.5530 C   0  0  0  0  0  0  0  0  0  0  0  0
   10.2450   46.7600   52.7910 C   0  0  0  0  0  0  0  0  0  0  0  0
   10.0070   46.2840   51.5090 C   0  0  0  0  0  0  0  0  0  0  0  0
    8.3470   46.0810   51.3220 S   0  0  0  0  0  0  0  0  0  0  0  0
    5.4720   46.8040   52.5710 N   0  0  0  0  0  0  0  0  0  0  0  0
    1.2040   44.2940   50.8550 C   0  0  0  0  0  0  0  0  0  0  0  0
    0.6470   42.9120   51.2210 C   0  0  0  0  0  0  0  0  0  0  0  0
   -0.9610   43.4760   54.6960 C   0  0  0  0  0  0  0  0  0  0  0  0
   -2.0912   43.0304   57.0771 H   0  0  0  0  0  0  0  0  0  0  0  0
   -1.7801   44.7861   56.8595 H   0  0  0  0  0  0  0  0  0  0  0  0
   -3.4659   44.1659   56.8595 H   0  0  0  0  0  0  0  0  0  0  0  0
   -3.8731   45.1949   54.8519 H   0  0  0  0  0  0  0  0  0  0  0  0
   -2.2039   45.7681   54.5130 H   0  0  0  0  0  0  0  0  0  0  0  0
   -4.0845   44.1461   52.7896 H   0  0  0  0  0  0  0  0  0  0  0  0
   -2.9824   45.5301   52.3619 H   0  0  0  0  0  0  0  0  0  0  0  0
   -2.4110   42.5815   52.5098 H   0  0  0  0  0  0  0  0  0  0  0  0
   -1.8319   43.8480   51.3468 H   0  0  0  0  0  0  0  0  0  0  0  0
   -0.3029   44.7438   53.0271 H   0  0  0  0  0  0  0  0  0  0  0  0
    1.4645   42.7081   54.4511 H   0  0  0  0  0  0  0  0  0  0  0  0
    2.3220   42.1329   52.9534 H   0  0  0  0  0  0  0  0  0  0  0  0
    1.8576   44.9510   53.9424 H   0  0  0  0  0  0  0  0  0  0  0  0
    3.3817   44.1205   53.3686 H   0  0  0  0  0  0  0  0  0  0  0  0
    2.9635   48.1355   52.1387 H   0  0  0  0  0  0  0  0  0  0  0  0
    2.1964   47.0573   53.3649 H   0  0  0  0  0  0  0  0  0  0  0  0
    3.6731   47.0359   55.4121 H   0  0  0  0  0  0  0  0  0  0  0  0
    9.0875   47.3013   54.5892 H   0  0  0  0  0  0  0  0  0  0  0  0
   11.2526   46.9814   53.1727 H   0  0  0  0  0  0  0  0  0  0  0  0
   10.7719   46.0754   50.7465 H   0  0  0  0  0  0  0  0  0  0  0  0
    0.3610   44.9922   50.7465 H   0  0  0  0  0  0  0  0  0  0  0  0
    1.7709   44.1785   49.9195 H   0  0  0  0  0  0  0  0  0  0  0  0
   -0.2811   42.7447   50.6548 H   0  0  0  0  0  0  0  0  0  0  0  0
    1.4147   42.1653   50.9697 H   0  0  0  0  0  0  0  0  0  0  0  0
   -0.7352   42.4226   54.9182 H   0  0  0  0  0  0  0  0  0  0  0  0
   -0.3162   44.1714   55.2533 H   0  0  0  0  0  0  0  0  0  0  0  0
  1  2  1  0
  2  3  1  0
  3  4  1  0
  4  5  1  0
  5  6  1  0
  6  7  1  0
  7  8  1  0
  8  9  1  0
  9 10  1  0
 10 11  1  0
 11 12  2  0
 11 13  1  0
 13 14  1  0
 14 15  2  0
 15 16  1  0
 16 17  1  0
 17 18  1  0
 18 19  2  0
 19 20  1  0
 20 21  2  0
 21 22  1  0
 17 23  2  0
 10 24  1  0
 24 25  1  0
  6 26  1  0
 26  2  1  0
 25  7  1  0
 23 14  1  0
 22 18  1  0
  1 27  1  0
  1 28  1  0
  1 29  1  0
  3 30  1  0
  3 31  1  0
  4 32  1  0
  4 33  1  0
  5 34  1  0
  5 35  1  0
  6 36  1  1
  8 37  1  0
  8 38  1  0
  9 39  1  0
  9 40  1  0
 13 41  1  0
 13 42  1  0
 15 43  1  0
 19 44  1  0
 20 45  1  0
 21 46  1  0
 24 47  1  0
 24 48  1  0
 25 49  1  0
 25 50  1  0
 26 51  1  0
 26 52  1  0
M  END
>  <meeko>  (2) 
{"is_sidechain": [false], "free_energy": -7.771, "intermolecular_energy": -9.453, "internal_energy": -0.496}

$$$$
ligand_94_conformer_5_docked
     RDKit          3D

 52 55  0  0  0  0  0  0  0  0999 V2000
   -3.5960   46.8880   51.0830 C   0  0  0  0  0  0  0  0  0  0  0  0
   -3.1310   45.5090   51.2980 N   0  0  0  0  0  0  0  0  0  0  0  0
   -2.7430   44.8920   50.0220 C   0  0  0  0  0  0  0  0  0  0  0  0
   -2.5430   43.3860   50.2190 C   0  0  0  0  0  0  0  0  0  0  0  0
   -2.0060   43.0370   51.6200 C   0  0  0  0  0  0  0  0  0  0  0  0
   -1.1520   44.1840   52.2110 C   0  0  2  0  0  0  0  0  0  0  0  0
   -0.6070   43.8490   53.5680 N   0  0  0  0  0  0  0  0  0  0  0  0
    0.2530   44.9100   54.1370 C   0  0  0  0  0  0  0  0  0  0  0  0
    1.5210   45.1480   53.3050 C   0  0  0  0  0  0  0  0  0  0  0  0
    2.1030   43.9120   52.7470 N   0  0  0  0  0  0  0  0  0  0  0  0
    3.3420   43.9970   52.0150 C   0  0  0  0  0  0  0  0  0  0  0  0
    4.1250   43.0070   51.9950 O   0  0  0  0  0  0  0  0  0  0  0  0
    3.6970   45.2160   51.2060 C   0  0  0  0  0  0  0  0  0  0  0  0
    5.1870   45.3820   51.1330 C   0  0  0  0  0  0  0  0  0  0  0  0
    5.9560   44.8870   50.0800 C   0  0  0  0  0  0  0  0  0  0  0  0
    7.5670   45.2290   50.4170 S   0  0  0  0  0  0  0  0  0  0  0  0
    7.2190   46.0020   51.8700 C   0  0  0  0  0  0  0  0  0  0  0  0
    8.2100   46.5510   52.7990 C   0  0  0  0  0  0  0  0  0  0  0  0
    9.5860   46.5930   52.6050 C   0  0  0  0  0  0  0  0  0  0  0  0
   10.2790   47.1410   53.6900 C   0  0  0  0  0  0  0  0  0  0  0  0
    9.4570   47.5310   54.7390 C   0  0  0  0  0  0  0  0  0  0  0  0
    7.8650   47.1890   54.3160 S   0  0  0  0  0  0  0  0  0  0  0  0
    5.8910   46.0060   52.1170 N   0  0  0  0  0  0  0  0  0  0  0  0
    1.4100   42.6110   52.7480 C   0  0  0  0  0  0  0  0  0  0  0  0
    0.1590   42.5880   53.6350 C   0  0  0  0  0  0  0  0  0  0  0  0
   -2.0120   45.4860   52.2700 C   0  0  0  0  0  0  0  0  0  0  0  0
   -3.7603   47.3753   52.0554 H   0  0  0  0  0  0  0  0  0  0  0  0
   -2.8366   47.4469   50.5164 H   0  0  0  0  0  0  0  0  0  0  0  0
   -4.5387   46.8729   50.5164 H   0  0  0  0  0  0  0  0  0  0  0  0
   -3.5348   45.0618   49.2776 H   0  0  0  0  0  0  0  0  0  0  0  0
   -1.8033   45.3422   49.6694 H   0  0  0  0  0  0  0  0  0  0  0  0
   -3.5097   42.8808   50.0765 H   0  0  0  0  0  0  0  0  0  0  0  0
   -1.7970   43.0504   49.4836 H   0  0  0  0  0  0  0  0  0  0  0  0
   -2.8572   42.8454   52.2899 H   0  0  0  0  0  0  0  0  0  0  0  0
   -1.3662   42.1469   51.5286 H   0  0  0  0  0  0  0  0  0  0  0  0
   -0.2839   44.3375   51.5531 H   0  0  0  0  0  0  0  0  0  0  0  0
   -0.3227   45.8464   54.1784 H   0  0  0  0  0  0  0  0  0  0  0  0
    0.5672   44.5839   55.1394 H   0  0  0  0  0  0  0  0  0  0  0  0
    1.2689   45.8205   52.4718 H   0  0  0  0  0  0  0  0  0  0  0  0
    2.2730   45.5818   53.9805 H   0  0  0  0  0  0  0  0  0  0  0  0
    3.2947   45.1049   50.1882 H   0  0  0  0  0  0  0  0  0  0  0  0
    3.2632   46.1034   51.6901 H   0  0  0  0  0  0  0  0  0  0  0  0
    5.5763   44.3661   49.1886 H   0  0  0  0  0  0  0  0  0  0  0  0
   10.0800   46.2319   51.6909 H   0  0  0  0  0  0  0  0  0  0  0  0
   11.3732   47.2525   53.7101 H   0  0  0  0  0  0  0  0  0  0  0  0
    9.7895   47.9854   55.6840 H   0  0  0  0  0  0  0  0  0  0  0  0
    1.1103   42.3748   51.7163 H   0  0  0  0  0  0  0  0  0  0  0  0
    2.1119   41.8695   53.1572 H   0  0  0  0  0  0  0  0  0  0  0  0
   -0.4906   41.7632   53.3069 H   0  0  0  0  0  0  0  0  0  0  0  0
    0.4902   42.4538   54.6753 H   0  0  0  0  0  0  0  0  0  0  0  0
   -2.4306   45.5794   53.2829 H   0  0  0  0  0  0  0  0  0  0  0  0
   -1.3456   46.3219   52.0109 H   0  0  0  0  0  0  0  0  0  0  0  0
  1  2  1  0
  2  3  1  0
  3  4  1  0
  4  5  1  0
  5  6  1  0
  6  7  1  0
  7  8  1  0
  8  9  1  0
  9 10  1  0
 10 11  1  0
 11 12  2  0
 11 13  1  0
 13 14  1  0
 14 15  2  0
 15 16  1  0
 16 17  1  0
 17 18  1  0
 18 19  2  0
 19 20  1  0
 20 21  2  0
 21 22  1  0
 17 23  2  0
 10 24  1  0
 24 25  1  0
  6 26  1  0
 26  2  1  0
 25  7  1  0
 23 14  1  0
 22 18  1  0
  1 27  1  0
  1 28  1  0
  1 29  1  0
  3 30  1  0
  3 31  1  0
  4 32  1  0
  4 33  1  0
  5 34  1  0
  5 35  1  0
  6 36  1  6
  8 37  1  0
  8 38  1  0
  9 39  1  0
  9 40  1  0
 13 41  1  0
 13 42  1  0
 15 43  1  0
 19 44  1  0
 20 45  1  0
 21 46  1  0
 24 47  1  0
 24 48  1  0
 25 49  1  0
 25 50  1  0
 26 51  1  0
 26 52  1  0
M  END
>  <meeko>  (3) 
{"is_sidechain": [false], "free_energy": -7.56, "intermolecular_energy": -9.212, "internal_energy": -0.477}

$$$$
ligand_94_conformer_5_docked
     RDKit          3D

 52 55  0  0  0  0  0  0  0  0999 V2000
   -0.4020   45.1210   51.5980 C   0  0  0  0  0  0  0  0  0  0  0  0
    0.6980   44.6440   52.4500 N   0  0  0  0  0  0  0  0  0  0  0  0
    1.5090   43.6500   51.7330 C   0  0  0  0  0  0  0  0  0  0  0  0
    2.4590   42.9580   52.7150 C   0  0  0  0  0  0  0  0  0  0  0  0
    2.9240   43.8910   53.8500 C   0  0  0  0  0  0  0  0  0  0  0  0
    2.9500   45.3720   53.4030 C   0  0  2  0  0  0  0  0  0  0  0  0
    3.4190   46.2890   54.4940 N   0  0  0  0  0  0  0  0  0  0  0  0
    3.8900   47.6010   53.9990 C   0  0  0  0  0  0  0  0  0  0  0  0
    5.1250   47.4800   53.0960 C   0  0  0  0  0  0  0  0  0  0  0  0
    6.0790   46.4430   53.5340 N   0  0  0  0  0  0  0  0  0  0  0  0
    7.3170   46.2900   52.8130 C   0  0  0  0  0  0  0  0  0  0  0  0
    8.3390   45.8520   53.4110 O   0  0  0  0  0  0  0  0  0  0  0  0
    7.4090   46.5680   51.3350 C   0  0  0  0  0  0  0  0  0  0  0  0
    7.4190   45.2830   50.5590 C   0  0  0  0  0  0  0  0  0  0  0  0
    8.4950   44.8820   49.7670 C   0  0  0  0  0  0  0  0  0  0  0  0
    8.0760   43.4330   49.0270 S   0  0  0  0  0  0  0  0  0  0  0  0
    6.5600   43.3680   49.7540 C   0  0  0  0  0  0  0  0  0  0  0  0
    5.5480   42.3340   49.5180 C   0  0  0  0  0  0  0  0  0  0  0  0
    4.6400   41.8440   50.4500 C   0  0  0  0  0  0  0  0  0  0  0  0
    3.8230   40.8280   49.9410 C   0  0  0  0  0  0  0  0  0  0  0  0
    4.0830   40.5130   48.6140 C   0  0  0  0  0  0  0  0  0  0  0  0
    5.3330   41.5000   48.0740 S   0  0  0  0  0  0  0  0  0  0  0  0
    6.3530   44.4360   50.5550 N   0  0  0  0  0  0  0  0  0  0  0  0
    5.7720   45.4360   54.5660 C   0  0  0  0  0  0  0  0  0  0  0  0
    4.4890   45.7390   55.3490 C   0  0  0  0  0  0  0  0  0  0  0  0
    1.5260   45.7840   52.9110 C   0  0  0  0  0  0  0  0  0  0  0  0
   -1.2274   45.4789   52.2310 H   0  0  0  0  0  0  0  0  0  0  0  0
   -0.0433   45.9444   50.9629 H   0  0  0  0  0  0  0  0  0  0  0  0
   -0.7580   44.2964   50.9629 H   0  0  0  0  0  0  0  0  0  0  0  0
    0.8478   42.9006   51.2735 H   0  0  0  0  0  0  0  0  0  0  0  0
    2.0954   44.1529   50.9499 H   0  0  0  0  0  0  0  0  0  0  0  0
    1.9397   42.0958   53.1587 H   0  0  0  0  0  0  0  0  0  0  0  0
    3.3520   42.6492   52.1518 H   0  0  0  0  0  0  0  0  0  0  0  0
    2.2341   43.7880   54.7006 H   0  0  0  0  0  0  0  0  0  0  0  0
    3.9469   43.6015   54.1328 H   0  0  0  0  0  0  0  0  0  0  0  0
    3.6732   45.4686   52.5798 H   0  0  0  0  0  0  0  0  0  0  0  0
    3.0788   48.0736   53.4257 H   0  0  0  0  0  0  0  0  0  0  0  0
    4.1732   48.2058   54.8731 H   0  0  0  0  0  0  0  0  0  0  0  0
    4.7884   47.2349   52.0778 H   0  0  0  0  0  0  0  0  0  0  0  0
    5.6533   48.4437   53.1419 H   0  0  0  0  0  0  0  0  0  0  0  0
    6.5429   47.1714   51.0254 H   0  0  0  0  0  0  0  0  0  0  0  0
    8.3425   47.1136   51.1326 H   0  0  0  0  0  0  0  0  0  0  0  0
    9.4478   45.4187   49.6482 H   0  0  0  0  0  0  0  0  0  0  0  0
    4.5708   42.2170   51.4825 H   0  0  0  0  0  0  0  0  0  0  0  0
    3.0469   40.3256   50.5370 H   0  0  0  0  0  0  0  0  0  0  0  0
    3.5613   39.7494   48.0185 H   0  0  0  0  0  0  0  0  0  0  0  0
    5.6587   44.4577   54.0760 H   0  0  0  0  0  0  0  0  0  0  0  0
    6.6027   45.4458   55.2870 H   0  0  0  0  0  0  0  0  0  0  0  0
    4.1285   44.8070   55.8089 H   0  0  0  0  0  0  0  0  0  0  0  0
    4.7327   46.4977   56.1073 H   0  0  0  0  0  0  0  0  0  0  0  0
    1.0021   46.2793   53.7418 H   0  0  0  0  0  0  0  0  0  0  0  0
    1.6664   46.4481   52.0454 H   0  0  0  0  0  0  0  0  0  0  0  0
  1  2  1  0
  2  3  1  0
  3  4  1  0
  4  5  1  0
  5  6  1  0
  6  7  1  0
  7  8  1  0
  8  9  1  0
  9 10  1  0
 10 11  1  0
 11 12  2  0
 11 13  1  0
 13 14  1  0
 14 15  2  0
 15 16  1  0
 16 17  1  0
 17 18  1  0
 18 19  2  0
 19 20  1  0
 20 21  2  0
 21 22  1  0
 17 23  2  0
 10 24  1  0
 24 25  1  0
  6 26  1  0
 26  2  1  0
 25  7  1  0
 23 14  1  0
 22 18  1  0
  1 27  1  0
  1 28  1  0
  1 29  1  0
  3 30  1  0
  3 31  1  0
  4 32  1  0
  4 33  1  0
  5 34  1  0
  5 35  1  0
  6 36  1  6
  8 37  1  0
  8 38  1  0
  9 39  1  0
  9 40  1  0
 13 41  1  0
 13 42  1  0
 15 43  1  0
 19 44  1  0
 20 45  1  0
 21 46  1  0
 24 47  1  0
 24 48  1  0
 25 49  1  0
 25 50  1  0
 26 51  1  0
 26 52  1  0
M  END
>  <meeko>  (4) 
{"is_sidechain": [false], "free_energy": -7.408, "intermolecular_energy": -8.639, "internal_energy": -0.862}

$$$$
ligand_94_conformer_5_docked
     RDKit          3D

 52 55  0  0  0  0  0  0  0  0999 V2000
    5.6110   45.4090   50.3990 C   0  0  0  0  0  0  0  0  0  0  0  0
    4.7950   44.1860   50.4050 N   0  0  0  0  0  0  0  0  0  0  0  0
    5.5630   43.0590   50.9550 C   0  0  0  0  0  0  0  0  0  0  0  0
    4.8130   41.7490   50.6880 C   0  0  0  0  0  0  0  0  0  0  0  0
    3.2830   41.9270   50.7060 C   0  0  0  0  0  0  0  0  0  0  0  0
    2.8480   43.0860   51.6330 C   0  0  2  0  0  0  0  0  0  0  0  0
    1.3580   43.2570   51.6730 N   0  0  0  0  0  0  0  0  0  0  0  0
    0.9240   44.6690   51.5870 C   0  0  0  0  0  0  0  0  0  0  0  0
    1.3990   45.5040   52.7840 C   0  0  0  0  0  0  0  0  0  0  0  0
    1.3660   44.7730   54.0650 N   0  0  0  0  0  0  0  0  0  0  0  0
    1.7120   45.4760   55.2750 C   0  0  0  0  0  0  0  0  0  0  0  0
    1.2090   45.1130   56.3740 O   0  0  0  0  0  0  0  0  0  0  0  0
    2.7220   46.5930   55.2760 C   0  0  0  0  0  0  0  0  0  0  0  0
    4.0850   46.0700   54.9260 C   0  0  0  0  0  0  0  0  0  0  0  0
    4.5570   44.8320   55.3600 C   0  0  0  0  0  0  0  0  0  0  0  0
    6.1350   44.6620   54.8070 S   0  0  0  0  0  0  0  0  0  0  0  0
    6.1440   46.1530   54.0290 C   0  0  0  0  0  0  0  0  0  0  0  0
    7.2890   46.7380   53.3240 C   0  0  0  0  0  0  0  0  0  0  0  0
    7.2440   47.7740   52.3980 C   0  0  0  0  0  0  0  0  0  0  0  0
    8.4980   48.0880   51.8620 C   0  0  0  0  0  0  0  0  0  0  0  0
    9.5310   47.3050   52.3600 C   0  0  0  0  0  0  0  0  0  0  0  0
    8.8820   46.2170   53.4660 S   0  0  0  0  0  0  0  0  0  0  0  0
    4.9640   46.7940   54.1810 N   0  0  0  0  0  0  0  0  0  0  0  0
    1.1630   43.3160   54.1690 C   0  0  0  0  0  0  0  0  0  0  0  0
    0.6980   42.6720   52.8570 C   0  0  0  0  0  0  0  0  0  0  0  0
    3.5410   44.4050   51.1640 C   0  0  0  0  0  0  0  0  0  0  0  0
    5.8169   45.7175   51.4346 H   0  0  0  0  0  0  0  0  0  0  0  0
    6.5604   45.2138   49.8790 H   0  0  0  0  0  0  0  0  0  0  0  0
    5.0662   46.2107   49.8790 H   0  0  0  0  0  0  0  0  0  0  0  0
    6.5515   43.0198   50.4741 H   0  0  0  0  0  0  0  0  0  0  0  0
    5.6872   43.1952   52.0394 H   0  0  0  0  0  0  0  0  0  0  0  0
    5.1115   41.3673   49.7005 H   0  0  0  0  0  0  0  0  0  0  0  0
    5.0756   41.0454   51.4918 H   0  0  0  0  0  0  0  0  0  0  0  0
    2.9378   42.1406   49.6837 H   0  0  0  0  0  0  0  0  0  0  0  0
    2.8362   40.9978   51.0894 H   0  0  0  0  0  0  0  0  0  0  0  0
    3.1629   42.8406   52.6580 H   0  0  0  0  0  0  0  0  0  0  0  0
    1.3337   45.1085   50.6656 H   0  0  0  0  0  0  0  0  0  0  0  0
   -0.1759   44.6811   51.5866 H   0  0  0  0  0  0  0  0  0  0  0  0
    2.4334   45.8265   52.5943 H   0  0  0  0  0  0  0  0  0  0  0  0
    0.7065   46.3533   52.8796 H   0  0  0  0  0  0  0  0  0  0  0  0
    2.4242   47.3509   54.5364 H   0  0  0  0  0  0  0  0  0  0  0  0
    2.7592   47.0380   56.2813 H   0  0  0  0  0  0  0  0  0  0  0  0
    3.9968   44.0978   55.9575 H   0  0  0  0  0  0  0  0  0  0  0  0
    6.3168   48.2941   52.1153 H   0  0  0  0  0  0  0  0  0  0  0  0
    8.6511   48.8813   51.1156 H   0  0  0  0  0  0  0  0  0  0  0  0
   10.5917   47.3830   52.0793 H   0  0  0  0  0  0  0  0  0  0  0  0
    2.1144   42.8516   54.4677 H   0  0  0  0  0  0  0  0  0  0  0  0
    0.3690   43.1504   54.9120 H   0  0  0  0  0  0  0  0  0  0  0  0
    0.9260   41.5965   52.8921 H   0  0  0  0  0  0  0  0  0  0  0  0
   -0.3825   42.8544   52.7606 H   0  0  0  0  0  0  0  0  0  0  0  0
    2.8386   44.9560   50.5213 H   0  0  0  0  0  0  0  0  0  0  0  0
    3.8102   44.9651   52.0717 H   0  0  0  0  0  0  0  0  0  0  0  0
  1  2  1  0
  2  3  1  0
  3  4  1  0
  4  5  1  0
  5  6  1  0
  6  7  1  0
  7  8  1  0
  8  9  1  0
  9 10  1  0
 10 11  1  0
 11 12  2  0
 11 13  1  0
 13 14  1  0
 14 15  2  0
 15 16  1  0
 16 17  1  0
 17 18  1  0
 18 19  2  0
 19 20  1  0
 20 21  2  0
 21 22  1  0
 17 23  2  0
 10 24  1  0
 24 25  1  0
  6 26  1  0
 26  2  1  0
 25  7  1  0
 23 14  1  0
 22 18  1  0
  1 27  1  0
  1 28  1  0
  1 29  1  0
  3 30  1  0
  3 31  1  0
  4 32  1  0
  4 33  1  0
  5 34  1  0
  5 35  1  0
  6 36  1  1
  8 37  1  0
  8 38  1  0
  9 39  1  0
  9 40  1  0
 13 41  1  0
 13 42  1  0
 15 43  1  0
 19 44  1  0
 20 45  1  0
 21 46  1  0
 24 47  1  0
 24 48  1  0
 25 49  1  0
 25 50  1  0
 26 51  1  0
 26 52  1  0
M  END
>  <meeko>  (5) 
{"is_sidechain": [false], "free_energy": -6.813, "intermolecular_energy": -8.501, "internal_energy": -0.266}

$$$$
