ligand_0_conformer_1_docked
     RDKit          3D

 45 48  0  0  0  0  0  0  0  0999 V2000
    7.2480   42.5760   49.4360 C   0  0  0  0  0  0  0  0  0  0  0  0
    6.8170   43.8550   49.7940 C   0  0  0  0  0  0  0  0  0  0  0  0
    5.6270   44.0180   50.5110 C   0  0  0  0  0  0  0  0  0  0  0  0
    4.8480   42.8980   50.8570 C   0  0  0  0  0  0  0  0  0  0  0  0
    3.6220   43.0430   51.5930 N   0  0  0  0  0  0  0  0  0  0  0  0
    3.5050   43.8180   52.7940 C   0  0  0  0  0  0  0  0  0  0  0  0
    4.5810   44.5260   53.2740 N   0  0  0  0  0  0  0  0  0  0  0  0
    4.4900   45.2970   54.4000 C   0  0  0  0  0  0  0  0  0  0  0  0
    5.5870   46.0140   54.8890 O   0  0  0  0  0  0  0  0  0  0  0  0
    6.9110   45.8610   54.3780 C   0  0  0  0  0  0  0  0  0  0  0  0
    7.4220   47.1840   53.7670 C   0  0  0  0  0  0  0  0  0  0  0  0
    8.7940   47.5920   54.3430 C   0  0  0  0  0  0  0  0  0  0  0  0
    9.9360   46.7240   53.7960 C   0  0  0  0  0  0  0  0  0  0  0  0
    9.9610   46.7490   52.2660 C   0  0  0  0  0  0  0  0  0  0  0  0
    8.6180   46.2950   51.6820 C   0  0  0  0  0  0  0  0  0  0  0  0
    7.4600   47.1450   52.2230 C   0  0  0  0  0  0  0  0  0  0  0  0
    3.2610   45.3450   55.0400 C   0  0  0  0  0  0  0  0  0  0  0  0
    2.8880   46.0070   56.1390 N   0  0  0  0  0  0  0  0  0  0  0  0
    1.5780   45.6800   56.2790 C   0  0  0  0  0  0  0  0  0  0  0  0
    1.1150   44.8400   55.3110 N   0  0  0  0  0  0  0  0  0  0  0  0
    2.2080   44.6540   54.5520 C   0  0  0  0  0  0  0  0  0  0  0  0
    2.2980   43.8900   53.4360 N   0  0  0  0  0  0  0  0  0  0  0  0
    5.3040   41.6160   50.5160 C   0  0  0  0  0  0  0  0  0  0  0  0
    6.4960   41.4560   49.8020 C   0  0  0  0  0  0  0  0  0  0  0  0
    8.1800   42.4497   48.8655 H   0  0  0  0  0  0  0  0  0  0  0  0
    7.4137   44.7350   49.5120 H   0  0  0  0  0  0  0  0  0  0  0  0
    5.2987   45.0257   50.8056 H   0  0  0  0  0  0  0  0  0  0  0  0
    2.7470   42.6490   51.1810 H   0  0  0  0  0  0  0  0  0  0  0  0
    7.5807   45.5602   55.1972 H   0  0  0  0  0  0  0  0  0  0  0  0
    6.8975   45.0925   53.5911 H   0  0  0  0  0  0  0  0  0  0  0  0
    6.6933   47.9560   54.0550 H   0  0  0  0  0  0  0  0  0  0  0  0
    8.9902   48.6419   54.0799 H   0  0  0  0  0  0  0  0  0  0  0  0
    8.7568   47.4517   55.4334 H   0  0  0  0  0  0  0  0  0  0  0  0
   10.8937   47.1077   54.1775 H   0  0  0  0  0  0  0  0  0  0  0  0
    9.7766   45.6870   54.1265 H   0  0  0  0  0  0  0  0  0  0  0  0
   10.1713   47.7742   51.9273 H   0  0  0  0  0  0  0  0  0  0  0  0
   10.7432   46.0577   51.9191 H   0  0  0  0  0  0  0  0  0  0  0  0
    8.6523   46.3914   50.5868 H   0  0  0  0  0  0  0  0  0  0  0  0
    8.4475   45.2485   51.9748 H   0  0  0  0  0  0  0  0  0  0  0  0
    7.5720   48.1728   51.8473 H   0  0  0  0  0  0  0  0  0  0  0  0
    6.5212   46.6869   51.8782 H   0  0  0  0  0  0  0  0  0  0  0  0
    3.4630   46.6300   56.7480 H   0  0  0  0  0  0  0  0  0  0  0  0
    0.9485   46.0581   57.0980 H   0  0  0  0  0  0  0  0  0  0  0  0
    4.7208   40.7315   50.8118 H   0  0  0  0  0  0  0  0  0  0  0  0
    6.8419   40.4483   49.5283 H   0  0  0  0  0  0  0  0  0  0  0  0
  1  2  2  0
  2  3  1  0
  3  4  2  0
  4  5  1  0
  5  6  1  0
  6  7  2  0
  7  8  1  0
  8  9  1  0
  9 10  1  0
 10 11  1  0
 11 12  1  0
 12 13  1  0
 13 14  1  0
 14 15  1  0
 15 16  1  0
  8 17  2  0
 17 18  1  0
 18 19  1  0
 19 20  2  0
 20 21  1  0
 21 22  2  0
  4 23  1  0
 23 24  2  0
 24  1  1  0
 22  6  1  0
 16 11  1  0
 21 17  1  0
  1 25  1  0
  2 26  1  0
  3 27  1  0
  5 28  1  0
 10 29  1  0
 10 30  1  0
 11 31  1  0
 12 32  1  0
 12 33  1  0
 13 34  1  0
 13 35  1  0
 14 36  1  0
 14 37  1  0
 15 38  1  0
 15 39  1  0
 16 40  1  0
 16 41  1  0
 18 42  1  0
 19 43  1  0
 23 44  1  0
 24 45  1  0
M  END
>  <meeko>  (1) 
{"is_sidechain": [false], "free_energy": -9.66, "intermolecular_energy": -12.484, "internal_energy": -0.581}

$$$$
ligand_0_conformer_1_docked
     RDKit          3D

 45 48  0  0  0  0  0  0  0  0999 V2000
    9.4670   47.6410   53.2740 C   0  0  0  0  0  0  0  0  0  0  0  0
   10.1080   46.4550   52.9120 C   0  0  0  0  0  0  0  0  0  0  0  0
    9.6180   45.6900   51.8490 C   0  0  0  0  0  0  0  0  0  0  0  0
    8.4660   46.0990   51.1520 C   0  0  0  0  0  0  0  0  0  0  0  0
    7.9450   45.3270   50.0570 N   0  0  0  0  0  0  0  0  0  0  0  0
    6.9280   44.3270   50.2050 C   0  0  0  0  0  0  0  0  0  0  0  0
    6.0340   44.3910   51.2480 N   0  0  0  0  0  0  0  0  0  0  0  0
    5.0360   43.4680   51.3980 C   0  0  0  0  0  0  0  0  0  0  0  0
    4.1290   43.5330   52.4610 O   0  0  0  0  0  0  0  0  0  0  0  0
    3.5710   44.7580   52.9370 C   0  0  0  0  0  0  0  0  0  0  0  0
    3.8460   44.9370   54.4460 C   0  0  0  0  0  0  0  0  0  0  0  0
    5.2730   44.4920   54.8280 C   0  0  0  0  0  0  0  0  0  0  0  0
    6.3390   45.4940   54.3610 C   0  0  0  0  0  0  0  0  0  0  0  0
    6.0460   46.8980   54.8980 C   0  0  0  0  0  0  0  0  0  0  0  0
    4.6490   47.3710   54.4800 C   0  0  0  0  0  0  0  0  0  0  0  0
    3.5680   46.3780   54.9300 C   0  0  0  0  0  0  0  0  0  0  0  0
    4.9530   42.4620   50.4470 C   0  0  0  0  0  0  0  0  0  0  0  0
    4.0910   41.4460   50.3420 N   0  0  0  0  0  0  0  0  0  0  0  0
    4.4940   40.8010   49.2170 C   0  0  0  0  0  0  0  0  0  0  0  0
    5.5730   41.3740   48.6130 N   0  0  0  0  0  0  0  0  0  0  0  0
    5.8300   42.4160   49.4200 C   0  0  0  0  0  0  0  0  0  0  0  0
    6.8190   43.3310   49.2720 N   0  0  0  0  0  0  0  0  0  0  0  0
    7.8440   47.3060   51.5060 C   0  0  0  0  0  0  0  0  0  0  0  0
    8.3390   48.0700   52.5680 C   0  0  0  0  0  0  0  0  0  0  0  0
    9.8494   48.2382   54.1149 H   0  0  0  0  0  0  0  0  0  0  0  0
   10.9995   46.1218   53.4635 H   0  0  0  0  0  0  0  0  0  0  0  0
   10.1353   44.7644   51.5563 H   0  0  0  0  0  0  0  0  0  0  0  0
    8.2470   45.5740   49.0880 H   0  0  0  0  0  0  0  0  0  0  0  0
    4.0213   45.5972   52.3865 H   0  0  0  0  0  0  0  0  0  0  0  0
    2.4829   44.7348   52.7776 H   0  0  0  0  0  0  0  0  0  0  0  0
    3.1370   44.2765   54.9667 H   0  0  0  0  0  0  0  0  0  0  0  0
    5.3328   44.3957   55.9221 H   0  0  0  0  0  0  0  0  0  0  0  0
    5.4715   43.5317   54.3295 H   0  0  0  0  0  0  0  0  0  0  0  0
    7.3239   45.1676   54.7262 H   0  0  0  0  0  0  0  0  0  0  0  0
    6.3279   45.5302   53.2616 H   0  0  0  0  0  0  0  0  0  0  0  0
    6.1056   46.8818   55.9963 H   0  0  0  0  0  0  0  0  0  0  0  0
    6.7888   47.5930   54.4795 H   0  0  0  0  0  0  0  0  0  0  0  0
    4.4497   48.3505   54.9391 H   0  0  0  0  0  0  0  0  0  0  0  0
    4.6200   47.4434   53.3828 H   0  0  0  0  0  0  0  0  0  0  0  0
    3.5250   46.3783   56.0292 H   0  0  0  0  0  0  0  0  0  0  0  0
    2.6143   46.7002   54.4865 H   0  0  0  0  0  0  0  0  0  0  0  0
    3.2950   41.2020   50.9720 H   0  0  0  0  0  0  0  0  0  0  0  0
    3.9960   39.9000   48.8294 H   0  0  0  0  0  0  0  0  0  0  0  0
    6.9632   47.6529   50.9458 H   0  0  0  0  0  0  0  0  0  0  0  0
    7.8402   49.0095   52.8481 H   0  0  0  0  0  0  0  0  0  0  0  0
  1  2  2  0
  2  3  1  0
  3  4  2  0
  4  5  1  0
  5  6  1  0
  6  7  2  0
  7  8  1  0
  8  9  1  0
  9 10  1  0
 10 11  1  0
 11 12  1  0
 12 13  1  0
 13 14  1  0
 14 15  1  0
 15 16  1  0
  8 17  2  0
 17 18  1  0
 18 19  1  0
 19 20  2  0
 20 21  1  0
 21 22  2  0
  4 23  1  0
 23 24  2  0
 24  1  1  0
 22  6  1  0
 16 11  1  0
 21 17  1  0
  1 25  1  0
  2 26  1  0
  3 27  1  0
  5 28  1  0
 10 29  1  0
 10 30  1  0
 11 31  1  0
 12 32  1  0
 12 33  1  0
 13 34  1  0
 13 35  1  0
 14 36  1  0
 14 37  1  0
 15 38  1  0
 15 39  1  0
 16 40  1  0
 16 41  1  0
 18 42  1  0
 19 43  1  0
 23 44  1  0
 24 45  1  0
M  END
>  <meeko>  (2) 
{"is_sidechain": [false], "free_energy": -9.211, "intermolecular_energy": -11.276, "internal_energy": -1.208}

$$$$
ligand_0_conformer_1_docked
     RDKit          3D

 45 48  0  0  0  0  0  0  0  0999 V2000
    9.6700   47.1920   52.0180 C   0  0  0  0  0  0  0  0  0  0  0  0
    8.5270   47.9600   51.7830 C   0  0  0  0  0  0  0  0  0  0  0  0
    7.4450   47.8950   52.6660 C   0  0  0  0  0  0  0  0  0  0  0  0
    7.4920   47.0420   53.7840 C   0  0  0  0  0  0  0  0  0  0  0  0
    6.3910   46.9590   54.7040 N   0  0  0  0  0  0  0  0  0  0  0  0
    5.2230   46.1590   54.4730 C   0  0  0  0  0  0  0  0  0  0  0  0
    5.2180   45.2020   53.4860 N   0  0  0  0  0  0  0  0  0  0  0  0
    4.1300   44.4050   53.2630 C   0  0  0  0  0  0  0  0  0  0  0  0
    4.1260   43.4330   52.2570 O   0  0  0  0  0  0  0  0  0  0  0  0
    5.3080   43.0040   51.5800 C   0  0  0  0  0  0  0  0  0  0  0  0
    5.3640   43.5850   50.1510 C   0  0  0  0  0  0  0  0  0  0  0  0
    5.9680   45.0050   50.1300 C   0  0  0  0  0  0  0  0  0  0  0  0
    7.4880   44.9940   50.3470 C   0  0  0  0  0  0  0  0  0  0  0  0
    8.1830   44.0930   49.3220 C   0  0  0  0  0  0  0  0  0  0  0  0
    7.6260   42.6660   49.3710 C   0  0  0  0  0  0  0  0  0  0  0  0
    6.1050   42.6550   49.1640 C   0  0  0  0  0  0  0  0  0  0  0  0
    3.0260   44.5930   54.0800 C   0  0  0  0  0  0  0  0  0  0  0  0
    1.8460   43.9660   54.0910 N   0  0  0  0  0  0  0  0  0  0  0  0
    1.1740   44.5680   55.1050 C   0  0  0  0  0  0  0  0  0  0  0  0
    1.8860   45.5470   55.7300 N   0  0  0  0  0  0  0  0  0  0  0  0
    3.0460   45.5300   55.0530 C   0  0  0  0  0  0  0  0  0  0  0  0
    4.1250   46.3200   55.2750 N   0  0  0  0  0  0  0  0  0  0  0  0
    8.6550   46.2950   54.0270 C   0  0  0  0  0  0  0  0  0  0  0  0
    9.7370   46.3650   53.1430 C   0  0  0  0  0  0  0  0  0  0  0  0
   10.5172   47.2380   51.3179 H   0  0  0  0  0  0  0  0  0  0  0  0
    8.4782   48.6168   50.9020 H   0  0  0  0  0  0  0  0  0  0  0  0
    6.5532   48.5133   52.4859 H   0  0  0  0  0  0  0  0  0  0  0  0
    6.4860   47.4240   55.6350 H   0  0  0  0  0  0  0  0  0  0  0  0
    6.1895   43.3452   52.1426 H   0  0  0  0  0  0  0  0  0  0  0  0
    5.2969   41.9061   51.5135 H   0  0  0  0  0  0  0  0  0  0  0  0
    4.3210   43.6576   49.8092 H   0  0  0  0  0  0  0  0  0  0  0  0
    5.7530   45.4666   49.1550 H   0  0  0  0  0  0  0  0  0  0  0  0
    5.5143   45.5763   50.9532 H   0  0  0  0  0  0  0  0  0  0  0  0
    7.8733   46.0192   50.2444 H   0  0  0  0  0  0  0  0  0  0  0  0
    7.6951   44.6031   51.3541 H   0  0  0  0  0  0  0  0  0  0  0  0
    8.0239   44.5059   48.3149 H   0  0  0  0  0  0  0  0  0  0  0  0
    9.2561   44.0566   49.5610 H   0  0  0  0  0  0  0  0  0  0  0  0
    8.1001   42.0686   48.5783 H   0  0  0  0  0  0  0  0  0  0  0  0
    7.8453   42.2409   50.3616 H   0  0  0  0  0  0  0  0  0  0  0  0
    5.8868   42.9850   48.1376 H   0  0  0  0  0  0  0  0  0  0  0  0
    5.7518   41.6289   49.3441 H   0  0  0  0  0  0  0  0  0  0  0  0
    1.5150   43.1950   53.4690 H   0  0  0  0  0  0  0  0  0  0  0  0
    0.1497   44.2912   55.3952 H   0  0  0  0  0  0  0  0  0  0  0  0
    8.7161   45.6513   54.9169 H   0  0  0  0  0  0  0  0  0  0  0  0
   10.6415   45.7686   53.3334 H   0  0  0  0  0  0  0  0  0  0  0  0
  1  2  2  0
  2  3  1  0
  3  4  2  0
  4  5  1  0
  5  6  1  0
  6  7  2  0
  7  8  1  0
  8  9  1  0
  9 10  1  0
 10 11  1  0
 11 12  1  0
 12 13  1  0
 13 14  1  0
 14 15  1  0
 15 16  1  0
  8 17  2  0
 17 18  1  0
 18 19  1  0
 19 20  2  0
 20 21  1  0
 21 22  2  0
  4 23  1  0
 23 24  2  0
 24  1  1  0
 22  6  1  0
 16 11  1  0
 21 17  1  0
  1 25  1  0
  2 26  1  0
  3 27  1  0
  5 28  1  0
 10 29  1  0
 10 30  1  0
 11 31  1  0
 12 32  1  0
 12 33  1  0
 13 34  1  0
 13 35  1  0
 14 36  1  0
 14 37  1  0
 15 38  1  0
 15 39  1  0
 16 40  1  0
 16 41  1  0
 18 42  1  0
 19 43  1  0
 23 44  1  0
 24 45  1  0
M  END
>  <meeko>  (3) 
{"is_sidechain": [false], "free_energy": -9.113, "intermolecular_energy": -11.218, "internal_energy": -1.14}

$$$$
ligand_0_conformer_1_docked
     RDKit          3D

 45 48  0  0  0  0  0  0  0  0999 V2000
    4.0710   41.0670   45.4260 C   0  0  0  0  0  0  0  0  0  0  0  0
    5.2320   41.7870   45.7120 C   0  0  0  0  0  0  0  0  0  0  0  0
    5.7220   41.8350   47.0210 C   0  0  0  0  0  0  0  0  0  0  0  0
    5.0390   41.1760   48.0590 C   0  0  0  0  0  0  0  0  0  0  0  0
    5.5250   41.2130   49.4110 N   0  0  0  0  0  0  0  0  0  0  0  0
    5.0620   42.1480   50.3950 C   0  0  0  0  0  0  0  0  0  0  0  0
    5.7770   43.2910   50.6600 N   0  0  0  0  0  0  0  0  0  0  0  0
    5.3460   44.2160   51.5710 C   0  0  0  0  0  0  0  0  0  0  0  0
    6.0760   45.3770   51.8410 O   0  0  0  0  0  0  0  0  0  0  0  0
    7.3990   45.5990   51.3530 C   0  0  0  0  0  0  0  0  0  0  0  0
    7.8560   47.0460   51.6420 C   0  0  0  0  0  0  0  0  0  0  0  0
    7.3200   47.5590   52.9950 C   0  0  0  0  0  0  0  0  0  0  0  0
    8.0530   46.9290   54.1880 C   0  0  0  0  0  0  0  0  0  0  0  0
    9.5650   47.1500   54.0830 C   0  0  0  0  0  0  0  0  0  0  0  0
   10.1160   46.5970   52.7650 C   0  0  0  0  0  0  0  0  0  0  0  0
    9.3900   47.2080   51.5570 C   0  0  0  0  0  0  0  0  0  0  0  0
    4.1450   43.9580   52.2160 C   0  0  0  0  0  0  0  0  0  0  0  0
    3.4920   44.6750   53.1350 N   0  0  0  0  0  0  0  0  0  0  0  0
    2.3830   43.9340   53.3890 C   0  0  0  0  0  0  0  0  0  0  0  0
    2.3160   42.7820   52.6640 N   0  0  0  0  0  0  0  0  0  0  0  0
    3.4460   42.8370   51.9390 C   0  0  0  0  0  0  0  0  0  0  0  0
    3.8740   41.9210   51.0370 N   0  0  0  0  0  0  0  0  0  0  0  0
    3.8880   40.4320   47.7570 C   0  0  0  0  0  0  0  0  0  0  0  0
    3.4020   40.3830   46.4460 C   0  0  0  0  0  0  0  0  0  0  0  0
    3.6819   41.0375   44.3975 H   0  0  0  0  0  0  0  0  0  0  0  0
    5.7621   42.3172   44.9071 H   0  0  0  0  0  0  0  0  0  0  0  0
    6.6458   42.3907   47.2398 H   0  0  0  0  0  0  0  0  0  0  0  0
    6.1740   40.4570   49.7260 H   0  0  0  0  0  0  0  0  0  0  0  0
    8.0878   44.8980   51.8472 H   0  0  0  0  0  0  0  0  0  0  0  0
    7.4043   45.4388   50.2647 H   0  0  0  0  0  0  0  0  0  0  0  0
    7.4189   47.6702   50.8487 H   0  0  0  0  0  0  0  0  0  0  0  0
    7.4499   48.6505   53.0362 H   0  0  0  0  0  0  0  0  0  0  0  0
    6.2588   47.2781   53.0652 H   0  0  0  0  0  0  0  0  0  0  0  0
    7.6863   47.3875   55.1182 H   0  0  0  0  0  0  0  0  0  0  0  0
    7.8565   45.8467   54.1879 H   0  0  0  0  0  0  0  0  0  0  0  0
    9.7743   48.2287   54.1348 H   0  0  0  0  0  0  0  0  0  0  0  0
   10.0529   46.6196   54.9141 H   0  0  0  0  0  0  0  0  0  0  0  0
   11.1878   46.8347   52.6968 H   0  0  0  0  0  0  0  0  0  0  0  0
    9.9574   45.5086   52.7516 H   0  0  0  0  0  0  0  0  0  0  0  0
    9.6289   48.2806   51.5079 H   0  0  0  0  0  0  0  0  0  0  0  0
    9.7322   46.6748   50.6578 H   0  0  0  0  0  0  0  0  0  0  0  0
    3.7640   45.5890   53.5600 H   0  0  0  0  0  0  0  0  0  0  0  0
    1.6109   44.2353   54.1122 H   0  0  0  0  0  0  0  0  0  0  0  0
    3.3653   39.8846   48.5552 H   0  0  0  0  0  0  0  0  0  0  0  0
    2.4935   39.8064   46.2175 H   0  0  0  0  0  0  0  0  0  0  0  0
  1  2  2  0
  2  3  1  0
  3  4  2  0
  4  5  1  0
  5  6  1  0
  6  7  2  0
  7  8  1  0
  8  9  1  0
  9 10  1  0
 10 11  1  0
 11 12  1  0
 12 13  1  0
 13 14  1  0
 14 15  1  0
 15 16  1  0
  8 17  2  0
 17 18  1  0
 18 19  1  0
 19 20  2  0
 20 21  1  0
 21 22  2  0
  4 23  1  0
 23 24  2  0
 24  1  1  0
 22  6  1  0
 16 11  1  0
 21 17  1  0
  1 25  1  0
  2 26  1  0
  3 27  1  0
  5 28  1  0
 10 29  1  0
 10 30  1  0
 11 31  1  0
 12 32  1  0
 12 33  1  0
 13 34  1  0
 13 35  1  0
 14 36  1  0
 14 37  1  0
 15 38  1  0
 15 39  1  0
 16 40  1  0
 16 41  1  0
 18 42  1  0
 19 43  1  0
 23 44  1  0
 24 45  1  0
M  END
>  <meeko>  (4) 
{"is_sidechain": [false], "free_energy": -8.99, "intermolecular_energy": -11.6, "internal_energy": -0.599}

$$$$
ligand_0_conformer_1_docked
     RDKit          3D

 45 48  0  0  0  0  0  0  0  0999 V2000
   -0.9910   44.5680   54.1780 C   0  0  0  0  0  0  0  0  0  0  0  0
    0.2490   44.8790   54.7400 C   0  0  0  0  0  0  0  0  0  0  0  0
    1.3830   44.1410   54.3860 C   0  0  0  0  0  0  0  0  0  0  0  0
    1.2790   43.0690   53.4810 C   0  0  0  0  0  0  0  0  0  0  0  0
    2.4320   42.2970   53.1050 N   0  0  0  0  0  0  0  0  0  0  0  0
    3.5140   42.8190   52.3210 C   0  0  0  0  0  0  0  0  0  0  0  0
    4.0240   44.0680   52.5810 N   0  0  0  0  0  0  0  0  0  0  0  0
    5.0740   44.5790   51.8700 C   0  0  0  0  0  0  0  0  0  0  0  0
    5.5910   45.8520   52.1350 O   0  0  0  0  0  0  0  0  0  0  0  0
    6.6070   46.0950   53.1070 C   0  0  0  0  0  0  0  0  0  0  0  0
    7.5000   47.2820   52.6830 C   0  0  0  0  0  0  0  0  0  0  0  0
    8.5460   47.6290   53.7630 C   0  0  0  0  0  0  0  0  0  0  0  0
    9.6840   46.5990   53.8220 C   0  0  0  0  0  0  0  0  0  0  0  0
   10.3500   46.4370   52.4530 C   0  0  0  0  0  0  0  0  0  0  0  0
    9.3270   46.0410   51.3820 C   0  0  0  0  0  0  0  0  0  0  0  0
    8.1740   47.0540   51.3120 C   0  0  0  0  0  0  0  0  0  0  0  0
    5.6150   43.7810   50.8730 C   0  0  0  0  0  0  0  0  0  0  0  0
    6.6300   44.0170   50.0370 N   0  0  0  0  0  0  0  0  0  0  0  0
    6.7050   42.8810   49.2970 C   0  0  0  0  0  0  0  0  0  0  0  0
    5.7780   41.9430   49.6380 N   0  0  0  0  0  0  0  0  0  0  0  0
    5.1120   42.5500   50.6340 C   0  0  0  0  0  0  0  0  0  0  0  0
    4.0710   42.0440   51.3390 N   0  0  0  0  0  0  0  0  0  0  0  0
    0.0340   42.7820   52.9010 C   0  0  0  0  0  0  0  0  0  0  0  0
   -1.0980   43.5240   53.2540 C   0  0  0  0  0  0  0  0  0  0  0  0
   -1.8837   45.1444   54.4623 H   0  0  0  0  0  0  0  0  0  0  0  0
    0.3339   45.7049   55.4616 H   0  0  0  0  0  0  0  0  0  0  0  0
    2.3612   44.4001   54.8174 H   0  0  0  0  0  0  0  0  0  0  0  0
    2.5390   41.3380   53.5050 H   0  0  0  0  0  0  0  0  0  0  0  0
    6.1340   46.3266   54.0727 H   0  0  0  0  0  0  0  0  0  0  0  0
    7.2342   45.1955   53.1935 H   0  0  0  0  0  0  0  0  0  0  0  0
    6.8291   48.1469   52.5744 H   0  0  0  0  0  0  0  0  0  0  0  0
    8.9739   48.6169   53.5371 H   0  0  0  0  0  0  0  0  0  0  0  0
    8.0375   47.6261   54.7384 H   0  0  0  0  0  0  0  0  0  0  0  0
   10.4364   46.9358   54.5503 H   0  0  0  0  0  0  0  0  0  0  0  0
    9.2627   45.6286   54.1234 H   0  0  0  0  0  0  0  0  0  0  0  0
   10.8183   47.3903   52.1668 H   0  0  0  0  0  0  0  0  0  0  0  0
   11.1049   45.6402   52.5251 H   0  0  0  0  0  0  0  0  0  0  0  0
    9.8290   46.0009   50.4040 H   0  0  0  0  0  0  0  0  0  0  0  0
    8.9105   45.0576   51.6454 H   0  0  0  0  0  0  0  0  0  0  0  0
    8.5701   48.0143   50.9501 H   0  0  0  0  0  0  0  0  0  0  0  0
    7.4131   46.6463   50.6302 H   0  0  0  0  0  0  0  0  0  0  0  0
    7.2270   44.8700   49.9660 H   0  0  0  0  0  0  0  0  0  0  0  0
    7.4451   42.7321   48.4970 H   0  0  0  0  0  0  0  0  0  0  0  0
   -0.0523   41.9692   52.1648 H   0  0  0  0  0  0  0  0  0  0  0  0
   -2.0733   43.2860   52.8043 H   0  0  0  0  0  0  0  0  0  0  0  0
  1  2  2  0
  2  3  1  0
  3  4  2  0
  4  5  1  0
  5  6  1  0
  6  7  2  0
  7  8  1  0
  8  9  1  0
  9 10  1  0
 10 11  1  0
 11 12  1  0
 12 13  1  0
 13 14  1  0
 14 15  1  0
 15 16  1  0
  8 17  2  0
 17 18  1  0
 18 19  1  0
 19 20  2  0
 20 21  1  0
 21 22  2  0
  4 23  1  0
 23 24  2  0
 24  1  1  0
 22  6  1  0
 16 11  1  0
 21 17  1  0
  1 25  1  0
  2 26  1  0
  3 27  1  0
  5 28  1  0
 10 29  1  0
 10 30  1  0
 11 31  1  0
 12 32  1  0
 12 33  1  0
 13 34  1  0
 13 35  1  0
 14 36  1  0
 14 37  1  0
 15 38  1  0
 15 39  1  0
 16 40  1  0
 16 41  1  0
 18 42  1  0
 19 43  1  0
 23 44  1  0
 24 45  1  0
M  END
>  <meeko>  (5) 
{"is_sidechain": [false], "free_energy": -8.986, "intermolecular_energy": -11.687, "internal_energy": -0.506}

$$$$
