ligand_2_conformer_4_docked
     RDKit          3D

 59 62  0  0  0  0  0  0  0  0999 V2000
   -3.5750   44.9080   58.3080 C   0  0  0  0  0  0  0  0  0  0  0  0
   -2.5160   45.2830   57.3150 C   0  0  0  0  0  0  0  0  0  0  0  0
   -2.1020   44.4900   56.2650 C   0  0  0  0  0  0  0  0  0  0  0  0
   -1.1500   45.2600   55.6190 C   0  0  0  0  0  0  0  0  0  0  0  0
   -0.4190   44.9130   54.4320 N   0  0  0  0  0  0  0  0  0  0  0  0
    1.0010   45.0600   54.2750 C   0  0  0  0  0  0  0  0  0  0  0  0
    1.6900   45.6120   55.1760 O   0  0  0  0  0  0  0  0  0  0  0  0
    1.6270   44.6170   53.0630 N   0  0  0  0  0  0  0  0  0  0  0  0
    3.0530   44.8040   52.7810 C   0  0  0  0  0  0  0  0  0  0  0  0
    3.7020   43.4570   52.4050 C   0  0  0  0  0  0  0  0  0  0  0  0
    5.0220   43.6410   51.6290 C   0  0  0  0  0  0  0  0  0  0  0  0
    5.5920   44.9780   51.8910 N   0  0  0  0  0  0  0  0  0  0  0  0
    7.0150   45.1450   51.4980 C   0  0  1  0  0  0  0  0  0  0  0  0
    7.1270   45.6260   50.0450 C   0  0  0  0  0  0  0  0  0  0  0  0
    7.8300   45.9920   52.4750 C   0  0  0  0  0  0  0  0  0  0  0  0
    7.3010   46.4380   53.7040 C   0  0  0  0  0  0  0  0  0  0  0  0
    8.0790   47.2040   54.5770 C   0  0  0  0  0  0  0  0  0  0  0  0
    9.3910   47.5360   54.2400 C   0  0  0  0  0  0  0  0  0  0  0  0
    9.9290   47.1010   53.0280 C   0  0  0  0  0  0  0  0  0  0  0  0
    9.1540   46.3390   52.1490 C   0  0  0  0  0  0  0  0  0  0  0  0
    4.7310   46.0440   51.3290 C   0  0  0  0  0  0  0  0  0  0  0  0
    3.2350   45.8180   51.6470 C   0  0  0  0  0  0  0  0  0  0  0  0
   -1.0110   46.4470   56.2400 N   0  0  0  0  0  0  0  0  0  0  0  0
   -1.8310   46.4490   57.2820 N   0  0  0  0  0  0  0  0  0  0  0  0
   -1.9460   47.5610   58.1840 C   0  0  0  0  0  0  0  0  0  0  0  0
   -3.1460   48.2870   58.2750 C   0  0  0  0  0  0  0  0  0  0  0  0
   -3.2550   49.3610   59.1590 C   0  0  0  0  0  0  0  0  0  0  0  0
   -2.1740   49.7110   59.9700 C   0  0  0  0  0  0  0  0  0  0  0  0
   -2.2800   50.7570   60.8240 F   0  0  0  0  0  0  0  0  0  0  0  0
   -0.9800   48.9880   59.8960 C   0  0  0  0  0  0  0  0  0  0  0  0
   -0.8680   47.9090   59.0170 C   0  0  0  0  0  0  0  0  0  0  0  0
    0.3010   47.2250   58.9520 F   0  0  0  0  0  0  0  0  0  0  0  0
   -3.1865   45.0456   59.3279 H   0  0  0  0  0  0  0  0  0  0  0  0
   -4.4575   45.5483   58.1623 H   0  0  0  0  0  0  0  0  0  0  0  0
   -3.8579   43.8550   58.1623 H   0  0  0  0  0  0  0  0  0  0  0  0
   -2.4482   43.4796   56.0019 H   0  0  0  0  0  0  0  0  0  0  0  0
   -0.9730   44.6010   53.6030 H   0  0  0  0  0  0  0  0  0  0  0  0
    1.0450   44.1040   52.3630 H   0  0  0  0  0  0  0  0  0  0  0  0
    3.5473   45.1913   53.6842 H   0  0  0  0  0  0  0  0  0  0  0  0
    3.9090   42.8942   53.3272 H   0  0  0  0  0  0  0  0  0  0  0  0
    3.0007   42.9153   51.7533 H   0  0  0  0  0  0  0  0  0  0  0  0
    5.7405   42.8718   51.9487 H   0  0  0  0  0  0  0  0  0  0  0  0
    4.8189   43.5448   50.5522 H   0  0  0  0  0  0  0  0  0  0  0  0
    7.4787   44.1491   51.5548 H   0  0  0  0  0  0  0  0  0  0  0  0
    7.3764   46.6973   50.0316 H   0  0  0  0  0  0  0  0  0  0  0  0
    7.9172   45.0591   49.5310 H   0  0  0  0  0  0  0  0  0  0  0  0
    6.1677   45.4664   49.5310 H   0  0  0  0  0  0  0  0  0  0  0  0
    6.2672   46.1808   53.9780 H   0  0  0  0  0  0  0  0  0  0  0  0
    7.6551   47.5460   55.5327 H   0  0  0  0  0  0  0  0  0  0  0  0
   10.0007   48.1397   54.9283 H   0  0  0  0  0  0  0  0  0  0  0  0
   10.9653   47.3584   52.7638 H   0  0  0  0  0  0  0  0  0  0  0  0
    9.5838   46.0071   51.1923 H   0  0  0  0  0  0  0  0  0  0  0  0
    5.0410   47.0100   51.7540 H   0  0  0  0  0  0  0  0  0  0  0  0
    4.8486   46.0302   50.2354 H   0  0  0  0  0  0  0  0  0  0  0  0
    2.7840   46.7754   51.9468 H   0  0  0  0  0  0  0  0  0  0  0  0
    2.7448   45.4218   50.7455 H   0  0  0  0  0  0  0  0  0  0  0  0
   -4.0038   48.0070   57.6459 H   0  0  0  0  0  0  0  0  0  0  0  0
   -4.1933   49.9322   59.2169 H   0  0  0  0  0  0  0  0  0  0  0  0
   -0.1273   49.2696   60.5313 H   0  0  0  0  0  0  0  0  0  0  0  0
  1  2  1  0
  2  3  2  0
  3  4  1  0
  4  5  1  0
  5  6  1  0
  6  7  2  0
  6  8  1  0
  8  9  1  0
  9 10  1  0
 10 11  1  0
 11 12  1  0
 12 13  1  0
 13 14  1  0
 13 15  1  0
 15 16  2  0
 16 17  1  0
 17 18  2  0
 18 19  1  0
 19 20  2  0
 12 21  1  0
 21 22  1  0
  4 23  2  0
 23 24  1  0
 24 25  1  0
 25 26  2  0
 26 27  1  0
 27 28  2  0
 28 29  1  0
 28 30  1  0
 30 31  2  0
 31 32  1  0
 24  2  1  0
 31 25  1  0
 22  9  1  0
 20 15  1  0
  1 33  1  0
  1 34  1  0
  1 35  1  0
  3 36  1  0
  5 37  1  0
  8 38  1  0
  9 39  1  0
 10 40  1  0
 10 41  1  0
 11 42  1  0
 11 43  1  0
 13 44  1  6
 14 45  1  0
 14 46  1  0
 14 47  1  0
 16 48  1  0
 17 49  1  0
 18 50  1  0
 19 51  1  0
 20 52  1  0
 21 53  1  0
 21 54  1  0
 22 55  1  0
 22 56  1  0
 26 57  1  0
 27 58  1  0
 30 59  1  0
M  END
>  <meeko>  (1) 
{"is_sidechain": [false], "free_energy": -8.476, "intermolecular_energy": -10.954, "internal_energy": -0.75}

$$$$
ligand_2_conformer_4_docked
     RDKit          3D

 59 62  0  0  0  0  0  0  0  0999 V2000
    5.5430   42.9100   50.3880 C   0  0  0  0  0  0  0  0  0  0  0  0
    4.6840   43.3850   51.5210 C   0  0  0  0  0  0  0  0  0  0  0  0
    3.4550   42.8560   51.8550 C   0  0  0  0  0  0  0  0  0  0  0  0
    3.0670   43.5850   52.9670 C   0  0  0  0  0  0  0  0  0  0  0  0
    1.8660   43.4150   53.7350 N   0  0  0  0  0  0  0  0  0  0  0  0
    1.0910   44.4900   54.2870 C   0  0  0  0  0  0  0  0  0  0  0  0
    1.4960   45.6810   54.1990 O   0  0  0  0  0  0  0  0  0  0  0  0
   -0.1290   44.1970   54.9820 N   0  0  0  0  0  0  0  0  0  0  0  0
   -0.9390   45.2200   55.6490 C   0  0  0  0  0  0  0  0  0  0  0  0
   -2.3270   44.6510   56.0070 C   0  0  0  0  0  0  0  0  0  0  0  0
   -3.0220   45.4620   57.1180 C   0  0  0  0  0  0  0  0  0  0  0  0
   -2.4620   46.8280   57.1870 N   0  0  0  0  0  0  0  0  0  0  0  0
   -3.2750   47.8050   57.9570 C   0  0  1  0  0  0  0  0  0  0  0  0
   -2.8630   47.8130   59.4360 C   0  0  0  0  0  0  0  0  0  0  0  0
   -3.3110   49.2020   57.3370 C   0  0  0  0  0  0  0  0  0  0  0  0
   -3.5380   49.4060   55.9600 C   0  0  0  0  0  0  0  0  0  0  0  0
   -3.5740   50.6990   55.4300 C   0  0  0  0  0  0  0  0  0  0  0  0
   -3.3840   51.8030   56.2600 C   0  0  0  0  0  0  0  0  0  0  0  0
   -3.1600   51.6170   57.6250 C   0  0  0  0  0  0  0  0  0  0  0  0
   -3.1180   50.3270   58.1600 C   0  0  0  0  0  0  0  0  0  0  0  0
   -1.0510   46.8020   57.6350 C   0  0  0  0  0  0  0  0  0  0  0  0
   -0.2250   45.7160   56.9110 C   0  0  0  0  0  0  0  0  0  0  0  0
    4.0140   44.4890   53.2840 N   0  0  0  0  0  0  0  0  0  0  0  0
    4.9870   44.3770   52.3900 N   0  0  0  0  0  0  0  0  0  0  0  0
    6.1680   45.1940   52.4130 C   0  0  0  0  0  0  0  0  0  0  0  0
    6.7270   45.6760   51.2170 C   0  0  0  0  0  0  0  0  0  0  0  0
    7.8700   46.4770   51.2450 C   0  0  0  0  0  0  0  0  0  0  0  0
    8.4550   46.8160   52.4670 C   0  0  0  0  0  0  0  0  0  0  0  0
    9.5670   47.5890   52.4920 F   0  0  0  0  0  0  0  0  0  0  0  0
    7.8990   46.3530   53.6620 C   0  0  0  0  0  0  0  0  0  0  0  0
    6.7520   45.5560   53.6390 C   0  0  0  0  0  0  0  0  0  0  0  0
    6.2330   45.1070   54.8090 F   0  0  0  0  0  0  0  0  0  0  0  0
    6.4391   42.4145   50.7900 H   0  0  0  0  0  0  0  0  0  0  0  0
    4.9755   42.1975   49.7713 H   0  0  0  0  0  0  0  0  0  0  0  0
    5.8448   43.7695   49.7713 H   0  0  0  0  0  0  0  0  0  0  0  0
    2.9090   42.0430   51.3541 H   0  0  0  0  0  0  0  0  0  0  0  0
    1.5810   42.4370   53.9680 H   0  0  0  0  0  0  0  0  0  0  0  0
   -0.4760   43.2110   54.9830 H   0  0  0  0  0  0  0  0  0  0  0  0
   -1.0745   46.0692   54.9630 H   0  0  0  0  0  0  0  0  0  0  0  0
   -2.9596   44.6690   55.1073 H   0  0  0  0  0  0  0  0  0  0  0  0
   -2.1851   43.6250   56.3775 H   0  0  0  0  0  0  0  0  0  0  0  0
   -4.0990   45.5224   56.9027 H   0  0  0  0  0  0  0  0  0  0  0  0
   -2.8565   44.9598   58.0826 H   0  0  0  0  0  0  0  0  0  0  0  0
   -4.3183   47.4604   57.9048 H   0  0  0  0  0  0  0  0  0  0  0  0
   -3.7635   47.7955   60.0676 H   0  0  0  0  0  0  0  0  0  0  0  0
   -2.2477   46.9266   59.6500 H   0  0  0  0  0  0  0  0  0  0  0  0
   -2.2826   48.7226   59.6500 H   0  0  0  0  0  0  0  0  0  0  0  0
   -3.6879   48.5406   55.2977 H   0  0  0  0  0  0  0  0  0  0  0  0
   -3.7528   50.8459   54.3546 H   0  0  0  0  0  0  0  0  0  0  0  0
   -3.4106   52.8192   55.8397 H   0  0  0  0  0  0  0  0  0  0  0  0
   -3.0162   52.4881   58.2811 H   0  0  0  0  0  0  0  0  0  0  0  0
   -2.9322   50.1894   59.2354 H   0  0  0  0  0  0  0  0  0  0  0  0
   -0.5979   47.7839   57.4334 H   0  0  0  0  0  0  0  0  0  0  0  0
   -1.0439   46.5688   58.7100 H   0  0  0  0  0  0  0  0  0  0  0  0
    0.7508   46.1376   56.6280 H   0  0  0  0  0  0  0  0  0  0  0  0
   -0.0981   44.8638   57.5949 H   0  0  0  0  0  0  0  0  0  0  0  0
    6.2614   45.4207   50.2537 H   0  0  0  0  0  0  0  0  0  0  0  0
    8.3098   46.8411   50.3048 H   0  0  0  0  0  0  0  0  0  0  0  0
    8.3653   46.6165   54.6228 H   0  0  0  0  0  0  0  0  0  0  0  0
  1  2  1  0
  2  3  2  0
  3  4  1  0
  4  5  1  0
  5  6  1  0
  6  7  2  0
  6  8  1  0
  8  9  1  0
  9 10  1  0
 10 11  1  0
 11 12  1  0
 12 13  1  0
 13 14  1  0
 13 15  1  0
 15 16  2  0
 16 17  1  0
 17 18  2  0
 18 19  1  0
 19 20  2  0
 12 21  1  0
 21 22  1  0
  4 23  2  0
 23 24  1  0
 24 25  1  0
 25 26  2  0
 26 27  1  0
 27 28  2  0
 28 29  1  0
 28 30  1  0
 30 31  2  0
 31 32  1  0
 24  2  1  0
 31 25  1  0
 22  9  1  0
 20 15  1  0
  1 33  1  0
  1 34  1  0
  1 35  1  0
  3 36  1  0
  5 37  1  0
  8 38  1  0
  9 39  1  0
 10 40  1  0
 10 41  1  0
 11 42  1  0
 11 43  1  0
 13 44  1  1
 14 45  1  0
 14 46  1  0
 14 47  1  0
 16 48  1  0
 17 49  1  0
 18 50  1  0
 19 51  1  0
 20 52  1  0
 21 53  1  0
 21 54  1  0
 22 55  1  0
 22 56  1  0
 26 57  1  0
 27 58  1  0
 30 59  1  0
M  END
>  <meeko>  (2) 
{"is_sidechain": [false], "free_energy": -8.215, "intermolecular_energy": -11.264, "internal_energy": -0.103}

$$$$
ligand_2_conformer_4_docked
     RDKit          3D

 59 62  0  0  0  0  0  0  0  0999 V2000
   -3.5540   44.0710   54.9780 C   0  0  0  0  0  0  0  0  0  0  0  0
   -2.1010   44.3840   54.7870 C   0  0  0  0  0  0  0  0  0  0  0  0
   -1.2270   44.7250   55.7980 C   0  0  0  0  0  0  0  0  0  0  0  0
   -0.0130   44.8870   55.1530 C   0  0  0  0  0  0  0  0  0  0  0  0
    1.2480   45.2160   55.7550 N   0  0  0  0  0  0  0  0  0  0  0  0
    2.4030   45.6730   55.0330 C   0  0  0  0  0  0  0  0  0  0  0  0
    2.3930   45.7180   53.7730 O   0  0  0  0  0  0  0  0  0  0  0  0
    3.5890   46.0340   55.7550 N   0  0  0  0  0  0  0  0  0  0  0  0
    4.8390   46.4280   55.0990 C   0  0  0  0  0  0  0  0  0  0  0  0
    5.7010   45.1850   54.8050 C   0  0  0  0  0  0  0  0  0  0  0  0
    6.7490   45.4470   53.7050 C   0  0  0  0  0  0  0  0  0  0  0  0
    7.0230   46.8950   53.5880 N   0  0  0  0  0  0  0  0  0  0  0  0
    8.2520   47.2440   52.8300 C   0  0  1  0  0  0  0  0  0  0  0  0
    9.4170   47.5390   53.7850 C   0  0  0  0  0  0  0  0  0  0  0  0
    8.6120   46.2370   51.7380 C   0  0  0  0  0  0  0  0  0  0  0  0
    7.6660   45.7820   50.7960 C   0  0  0  0  0  0  0  0  0  0  0  0
    8.0340   44.8670   49.8050 C   0  0  0  0  0  0  0  0  0  0  0  0
    9.3440   44.3920   49.7400 C   0  0  0  0  0  0  0  0  0  0  0  0
   10.2910   44.8340   50.6640 C   0  0  0  0  0  0  0  0  0  0  0  0
    9.9270   45.7450   51.6600 C   0  0  0  0  0  0  0  0  0  0  0  0
    5.8340   47.6220   53.0880 C   0  0  0  0  0  0  0  0  0  0  0  0
    4.5350   47.1860   53.8020 C   0  0  0  0  0  0  0  0  0  0  0  0
   -0.1520   44.6470   53.8340 N   0  0  0  0  0  0  0  0  0  0  0  0
   -1.4270   44.3600   53.6140 N   0  0  0  0  0  0  0  0  0  0  0  0
   -1.9450   44.0540   52.3100 C   0  0  0  0  0  0  0  0  0  0  0  0
   -1.9830   42.7270   51.8490 C   0  0  0  0  0  0  0  0  0  0  0  0
   -2.4960   42.4340   50.5840 C   0  0  0  0  0  0  0  0  0  0  0  0
   -2.9880   43.4610   49.7750 C   0  0  0  0  0  0  0  0  0  0  0  0
   -3.4800   43.1750   48.5460 F   0  0  0  0  0  0  0  0  0  0  0  0
   -2.9670   44.7820   50.2290 C   0  0  0  0  0  0  0  0  0  0  0  0
   -2.4600   45.0790   51.4960 C   0  0  0  0  0  0  0  0  0  0  0  0
   -2.4370   46.3690   51.9160 F   0  0  0  0  0  0  0  0  0  0  0  0
   -3.7803   44.0223   56.0534 H   0  0  0  0  0  0  0  0  0  0  0  0
   -4.1633   44.8585   54.5104 H   0  0  0  0  0  0  0  0  0  0  0  0
   -3.7850   43.1025   54.5104 H   0  0  0  0  0  0  0  0  0  0  0  0
   -1.4446   44.8414   56.8700 H   0  0  0  0  0  0  0  0  0  0  0  0
    1.3500   45.0410   56.7800 H   0  0  0  0  0  0  0  0  0  0  0  0
    3.5490   46.0520   56.7990 H   0  0  0  0  0  0  0  0  0  0  0  0
    5.4010   47.0918   55.7725 H   0  0  0  0  0  0  0  0  0  0  0  0
    6.2225   44.8899   55.7275 H   0  0  0  0  0  0  0  0  0  0  0  0
    5.0318   44.3877   54.4494 H   0  0  0  0  0  0  0  0  0  0  0  0
    7.6810   44.9213   53.9599 H   0  0  0  0  0  0  0  0  0  0  0  0
    6.3578   45.0794   52.7449 H   0  0  0  0  0  0  0  0  0  0  0  0
    8.0314   48.1698   52.2785 H   0  0  0  0  0  0  0  0  0  0  0  0
    9.0698   47.4511   54.8251 H   0  0  0  0  0  0  0  0  0  0  0  0
   10.2285   46.8180   53.6071 H   0  0  0  0  0  0  0  0  0  0  0  0
    9.7876   48.5593   53.6071 H   0  0  0  0  0  0  0  0  0  0  0  0
    6.6304   46.1500   50.8414 H   0  0  0  0  0  0  0  0  0  0  0  0
    7.2883   44.5206   49.0743 H   0  0  0  0  0  0  0  0  0  0  0  0
    9.6299   43.6698   48.9611 H   0  0  0  0  0  0  0  0  0  0  0  0
   11.3258   44.4651   50.6088 H   0  0  0  0  0  0  0  0  0  0  0  0
   10.6776   46.0806   52.3908 H   0  0  0  0  0  0  0  0  0  0  0  0
    5.9833   48.6993   53.2527 H   0  0  0  0  0  0  0  0  0  0  0  0
    5.7235   47.3898   52.0185 H   0  0  0  0  0  0  0  0  0  0  0  0
    3.9401   48.0799   54.0406 H   0  0  0  0  0  0  0  0  0  0  0  0
    3.9785   46.5155   53.1307 H   0  0  0  0  0  0  0  0  0  0  0  0
   -1.6065   41.9148   52.4882 H   0  0  0  0  0  0  0  0  0  0  0  0
   -2.5127   41.3946   50.2244 H   0  0  0  0  0  0  0  0  0  0  0  0
   -3.3503   45.5893   49.5877 H   0  0  0  0  0  0  0  0  0  0  0  0
  1  2  1  0
  2  3  2  0
  3  4  1  0
  4  5  1  0
  5  6  1  0
  6  7  2  0
  6  8  1  0
  8  9  1  0
  9 10  1  0
 10 11  1  0
 11 12  1  0
 12 13  1  0
 13 14  1  0
 13 15  1  0
 15 16  2  0
 16 17  1  0
 17 18  2  0
 18 19  1  0
 19 20  2  0
 12 21  1  0
 21 22  1  0
  4 23  2  0
 23 24  1  0
 24 25  1  0
 25 26  2  0
 26 27  1  0
 27 28  2  0
 28 29  1  0
 28 30  1  0
 30 31  2  0
 31 32  1  0
 24  2  1  0
 31 25  1  0
 22  9  1  0
 20 15  1  0
  1 33  1  0
  1 34  1  0
  1 35  1  0
  3 36  1  0
  5 37  1  0
  8 38  1  0
  9 39  1  0
 10 40  1  0
 10 41  1  0
 11 42  1  0
 11 43  1  0
 13 44  1  6
 14 45  1  0
 14 46  1  0
 14 47  1  0
 16 48  1  0
 17 49  1  0
 18 50  1  0
 19 51  1  0
 20 52  1  0
 21 53  1  0
 21 54  1  0
 22 55  1  0
 22 56  1  0
 26 57  1  0
 27 58  1  0
 30 59  1  0
M  END
>  <meeko>  (3) 
{"is_sidechain": [false], "free_energy": -7.893, "intermolecular_energy": -11.49, "internal_energy": 0.541}

$$$$
ligand_2_conformer_4_docked
     RDKit          3D

 59 62  0  0  0  0  0  0  0  0999 V2000
   -3.9740   45.6680   59.0540 C   0  0  0  0  0  0  0  0  0  0  0  0
   -2.9180   45.7160   57.9910 C   0  0  0  0  0  0  0  0  0  0  0  0
   -2.5330   44.6450   57.2130 C   0  0  0  0  0  0  0  0  0  0  0  0
   -1.5700   45.1720   56.3690 C   0  0  0  0  0  0  0  0  0  0  0  0
   -0.8600   44.4820   55.3300 N   0  0  0  0  0  0  0  0  0  0  0  0
    0.4140   44.8840   54.8050 C   0  0  0  0  0  0  0  0  0  0  0  0
    0.9490   45.9620   55.1810 O   0  0  0  0  0  0  0  0  0  0  0  0
    1.0560   44.0740   53.8100 N   0  0  0  0  0  0  0  0  0  0  0  0
    2.3140   44.4500   53.1570 C   0  0  0  0  0  0  0  0  0  0  0  0
    2.0720   45.5960   52.1550 C   0  0  0  0  0  0  0  0  0  0  0  0
    3.3660   46.3630   51.8200 C   0  0  0  0  0  0  0  0  0  0  0  0
    4.5500   45.5240   52.1020 N   0  0  0  0  0  0  0  0  0  0  0  0
    5.8200   46.0020   51.4960 C   0  0  1  0  0  0  0  0  0  0  0  0
    6.7530   46.5800   52.5690 C   0  0  0  0  0  0  0  0  0  0  0  0
    6.5030   44.9690   50.6000 C   0  0  0  0  0  0  0  0  0  0  0  0
    7.8090   45.1570   50.1000 C   0  0  0  0  0  0  0  0  0  0  0  0
    8.4050   44.1860   49.2900 C   0  0  0  0  0  0  0  0  0  0  0  0
    7.7140   43.0190   48.9670 C   0  0  0  0  0  0  0  0  0  0  0  0
    6.4220   42.8180   49.4560 C   0  0  0  0  0  0  0  0  0  0  0  0
    5.8190   43.7880   50.2610 C   0  0  0  0  0  0  0  0  0  0  0  0
    4.6870   45.2680   53.5530 C   0  0  0  0  0  0  0  0  0  0  0  0
    3.3460   44.8710   54.2090 C   0  0  0  0  0  0  0  0  0  0  0  0
   -1.3980   46.4840   56.6230 N   0  0  0  0  0  0  0  0  0  0  0  0
   -2.2070   46.8060   57.6230 N   0  0  0  0  0  0  0  0  0  0  0  0
   -2.2870   48.1320   58.1670 C   0  0  0  0  0  0  0  0  0  0  0  0
   -3.2060   49.0630   57.6520 C   0  0  0  0  0  0  0  0  0  0  0  0
   -3.2860   50.3470   58.1920 C   0  0  0  0  0  0  0  0  0  0  0  0
   -2.4600   50.7100   59.2570 C   0  0  0  0  0  0  0  0  0  0  0  0
   -2.5350   51.9600   59.7760 F   0  0  0  0  0  0  0  0  0  0  0  0
   -1.5520   49.7890   59.7850 C   0  0  0  0  0  0  0  0  0  0  0  0
   -1.4730   48.5000   59.2520 C   0  0  0  0  0  0  0  0  0  0  0  0
   -0.5770   47.6230   59.7710 F   0  0  0  0  0  0  0  0  0  0  0  0
   -3.4977   45.6897   60.0453 H   0  0  0  0  0  0  0  0  0  0  0  0
   -4.6404   46.5368   58.9484 H   0  0  0  0  0  0  0  0  0  0  0  0
   -4.5588   44.7423   58.9484 H   0  0  0  0  0  0  0  0  0  0  0  0
   -2.9049   43.6106   57.2534 H   0  0  0  0  0  0  0  0  0  0  0  0
   -1.3410   43.6720   54.8770 H   0  0  0  0  0  0  0  0  0  0  0  0
    0.6260   43.1540   53.5650 H   0  0  0  0  0  0  0  0  0  0  0  0
    2.7038   43.5806   52.6073 H   0  0  0  0  0  0  0  0  0  0  0  0
    1.6610   45.1731   51.2264 H   0  0  0  0  0  0  0  0  0  0  0  0
    1.3706   46.3055   52.6182 H   0  0  0  0  0  0  0  0  0  0  0  0
    3.3603   46.6354   50.7543 H   0  0  0  0  0  0  0  0  0  0  0  0
    3.4147   47.2693   52.4415 H   0  0  0  0  0  0  0  0  0  0  0  0
    5.5562   46.8203   50.8098 H   0  0  0  0  0  0  0  0  0  0  0  0
    6.3596   46.3363   53.5669 H   0  0  0  0  0  0  0  0  0  0  0  0
    7.7570   46.1455   52.4545 H   0  0  0  0  0  0  0  0  0  0  0  0
    6.8110   47.6725   52.4545 H   0  0  0  0  0  0  0  0  0  0  0  0
    8.3622   46.0744   50.3494 H   0  0  0  0  0  0  0  0  0  0  0  0
    9.4236   44.3434   48.9058 H   0  0  0  0  0  0  0  0  0  0  0  0
    8.1860   42.2581   48.3281 H   0  0  0  0  0  0  0  0  0  0  0  0
    5.8780   41.8949   49.2073 H   0  0  0  0  0  0  0  0  0  0  0  0
    4.7970   43.6258   50.6340 H   0  0  0  0  0  0  0  0  0  0  0  0
    5.4085   44.4510   53.7012 H   0  0  0  0  0  0  0  0  0  0  0  0
    5.0303   46.1992   54.0274 H   0  0  0  0  0  0  0  0  0  0  0  0
    3.5189   44.0307   54.8975 H   0  0  0  0  0  0  0  0  0  0  0  0
    2.9529   45.7439   54.7508 H   0  0  0  0  0  0  0  0  0  0  0  0
   -3.8654   48.7777   56.8190 H   0  0  0  0  0  0  0  0  0  0  0  0
   -4.0005   51.0738   57.7781 H   0  0  0  0  0  0  0  0  0  0  0  0
   -0.8987   50.0789   60.6211 H   0  0  0  0  0  0  0  0  0  0  0  0
  1  2  1  0
  2  3  2  0
  3  4  1  0
  4  5  1  0
  5  6  1  0
  6  7  2  0
  6  8  1  0
  8  9  1  0
  9 10  1  0
 10 11  1  0
 11 12  1  0
 12 13  1  0
 13 14  1  0
 13 15  1  0
 15 16  2  0
 16 17  1  0
 17 18  2  0
 18 19  1  0
 19 20  2  0
 12 21  1  0
 21 22  1  0
  4 23  2  0
 23 24  1  0
 24 25  1  0
 25 26  2  0
 26 27  1  0
 27 28  2  0
 28 29  1  0
 28 30  1  0
 30 31  2  0
 31 32  1  0
 24  2  1  0
 31 25  1  0
 22  9  1  0
 20 15  1  0
  1 33  1  0
  1 34  1  0
  1 35  1  0
  3 36  1  0
  5 37  1  0
  8 38  1  0
  9 39  1  0
 10 40  1  0
 10 41  1  0
 11 42  1  0
 11 43  1  0
 13 44  1  6
 14 45  1  0
 14 46  1  0
 14 47  1  0
 16 48  1  0
 17 49  1  0
 18 50  1  0
 19 51  1  0
 20 52  1  0
 21 53  1  0
 21 54  1  0
 22 55  1  0
 22 56  1  0
 26 57  1  0
 27 58  1  0
 30 59  1  0
M  END
>  <meeko>  (4) 
{"is_sidechain": [false], "free_energy": -7.847, "intermolecular_energy": -10.649, "internal_energy": -0.241}

$$$$
