ligand_83_conformer_2_docked
     RDKit          3D

 45 48  0  0  0  0  0  0  0  0999 V2000
    5.4310   46.6070   54.7190 C   0  0  0  0  0  0  0  0  0  0  0  0
    5.2580   46.2010   53.2500 C   0  0  2  0  0  0  0  0  0  0  0  0
    5.3570   44.6680   53.1100 C   0  0  0  0  0  0  0  0  0  0  0  0
    5.1960   44.1850   51.7280 N   0  0  0  0  0  0  0  0  0  0  0  0
    4.2580   43.1160   51.5150 C   0  0  0  0  0  0  0  0  0  0  0  0
    4.6350   42.0580   50.9410 O   0  0  0  0  0  0  0  0  0  0  0  0
    2.8610   43.2420   51.9560 C   0  0  0  0  0  0  0  0  0  0  0  0
    2.0140   44.3280   51.6490 C   0  0  0  0  0  0  0  0  0  0  0  0
    0.8580   43.9880   52.3040 C   0  0  0  0  0  0  0  0  0  0  0  0
   -0.3310   44.4880   52.4960 O   0  0  0  0  0  0  0  0  0  0  0  0
   -0.9520   43.6070   53.2810 C   0  0  0  0  0  0  0  0  0  0  0  0
   -2.7450   43.8220   53.8950 Br  0  0  0  0  0  0  0  0  0  0  0  0
   -0.1230   42.5140   53.5960 C   0  0  0  0  0  0  0  0  0  0  0  0
    1.0200   42.8400   52.9200 C   0  0  0  0  0  0  0  0  0  0  0  0
    2.2420   42.3250   52.7540 N   0  0  0  0  0  0  0  0  0  0  0  0
    5.6400   44.9660   50.5550 C   0  0  0  0  0  0  0  0  0  0  0  0
    7.1170   45.4090   50.6320 C   0  0  0  0  0  0  0  0  0  0  0  0
    7.4170   46.0670   51.9270 N   0  0  0  0  0  0  0  0  0  0  0  0
    8.6950   46.8320   51.9910 C   0  0  0  0  0  0  0  0  0  0  0  0
    8.7580   47.9020   53.0830 C   0  0  0  0  0  0  0  0  0  0  0  0
    9.9420   47.1760   53.7150 C   0  0  0  0  0  0  0  0  0  0  0  0
    9.8850   46.1070   52.6290 C   0  0  0  0  0  0  0  0  0  0  0  0
    6.3030   46.9390   52.3720 C   0  0  0  0  0  0  0  0  0  0  0  0
    5.0830   45.7903   55.3686 H   0  0  0  0  0  0  0  0  0  0  0  0
    6.4933   46.8088   54.9210 H   0  0  0  0  0  0  0  0  0  0  0  0
    4.8408   47.5130   54.9210 H   0  0  0  0  0  0  0  0  0  0  0  0
    4.2597   46.4985   52.8966 H   0  0  0  0  0  0  0  0  0  0  0  0
    6.3443   44.3495   53.4757 H   0  0  0  0  0  0  0  0  0  0  0  0
    4.5316   44.2390   53.6972 H   0  0  0  0  0  0  0  0  0  0  0  0
    2.2265   45.2192   51.0402 H   0  0  0  0  0  0  0  0  0  0  0  0
   -0.3373   41.6333   54.2192 H   0  0  0  0  0  0  0  0  0  0  0  0
    2.6380   41.4610   53.1780 H   0  0  0  0  0  0  0  0  0  0  0  0
    5.5088   44.3473   49.6550 H   0  0  0  0  0  0  0  0  0  0  0  0
    5.0295   45.8806   50.5258 H   0  0  0  0  0  0  0  0  0  0  0  0
    7.7622   44.5249   50.5217 H   0  0  0  0  0  0  0  0  0  0  0  0
    7.3045   46.1319   49.8243 H   0  0  0  0  0  0  0  0  0  0  0  0
    8.7337   47.1126   50.9281 H   0  0  0  0  0  0  0  0  0  0  0  0
    8.9940   48.9104   52.7122 H   0  0  0  0  0  0  0  0  0  0  0  0
    7.8669   48.1445   53.6806 H   0  0  0  0  0  0  0  0  0  0  0  0
   10.8741   47.7601   53.7187 H   0  0  0  0  0  0  0  0  0  0  0  0
    9.9098   46.8872   54.7759 H   0  0  0  0  0  0  0  0  0  0  0  0
   10.7806   46.0640   51.9918 H   0  0  0  0  0  0  0  0  0  0  0  0
    9.8145   45.0420   52.8950 H   0  0  0  0  0  0  0  0  0  0  0  0
    6.7231   47.7717   52.9552 H   0  0  0  0  0  0  0  0  0  0  0  0
    5.7812   47.2871   51.4684 H   0  0  0  0  0  0  0  0  0  0  0  0
  1  2  1  0
  2  3  1  0
  3  4  1  0
  4  5  1  0
  5  6  2  0
  5  7  1  0
  7  8  2  0
  8  9  1  0
  9 10  1  0
 10 11  1  0
 11 12  1  0
 11 13  2  0
 13 14  1  0
 14 15  1  0
  4 16  1  0
 16 17  1  0
 17 18  1  0
 18 19  1  0
 19 20  1  0
 20 21  1  0
 21 22  1  0
 18 23  1  0
 23  2  1  0
 15  7  1  0
 22 19  1  0
 14  9  2  0
  1 24  1  0
  1 25  1  0
  1 26  1  0
  2 27  1  6
  3 28  1  0
  3 29  1  0
  8 30  1  0
 13 31  1  0
 15 32  1  0
 16 33  1  0
 16 34  1  0
 17 35  1  0
 17 36  1  0
 19 37  1  0
 20 38  1  0
 20 39  1  0
 21 40  1  0
 21 41  1  0
 22 42  1  0
 22 43  1  0
 23 44  1  0
 23 45  1  0
M  END
>  <meeko>  (1) 
{"is_sidechain": [false], "free_energy": -6.855, "intermolecular_energy": -10.462, "internal_energy": -0.16}

$$$$
ligand_83_conformer_2_docked
     RDKit          3D

 45 48  0  0  0  0  0  0  0  0999 V2000
    4.9520   45.4910   50.8490 C   0  0  0  0  0  0  0  0  0  0  0  0
    5.5090   44.6820   52.0280 C   0  0  2  0  0  0  0  0  0  0  0  0
    4.4460   44.5660   53.1390 C   0  0  0  0  0  0  0  0  0  0  0  0
    4.0440   45.8590   53.7160 N   0  0  0  0  0  0  0  0  0  0  0  0
    2.7040   46.3060   53.4480 C   0  0  0  0  0  0  0  0  0  0  0  0
    2.5010   47.1800   52.5620 O   0  0  0  0  0  0  0  0  0  0  0  0
    1.5650   45.7580   54.1990 C   0  0  0  0  0  0  0  0  0  0  0  0
    1.5370   45.5660   55.5960 C   0  0  0  0  0  0  0  0  0  0  0  0
    0.2960   45.0170   55.7900 C   0  0  0  0  0  0  0  0  0  0  0  0
   -0.4240   44.5680   56.7810 O   0  0  0  0  0  0  0  0  0  0  0  0
   -1.5560   44.1440   56.2200 C   0  0  0  0  0  0  0  0  0  0  0  0
   -2.9970   43.3760   57.2050 Br  0  0  0  0  0  0  0  0  0  0  0  0
   -1.5490   44.3300   54.8250 C   0  0  0  0  0  0  0  0  0  0  0  0
   -0.3220   44.9030   54.6370 C   0  0  0  0  0  0  0  0  0  0  0  0
    0.4110   45.3350   53.6060 N   0  0  0  0  0  0  0  0  0  0  0  0
    4.7840   46.5020   54.8220 C   0  0  0  0  0  0  0  0  0  0  0  0
    6.3140   46.5280   54.6070 C   0  0  0  0  0  0  0  0  0  0  0  0
    6.6560   46.6480   53.1690 N   0  0  0  0  0  0  0  0  0  0  0  0
    7.8340   47.5030   52.8460 C   0  0  0  0  0  0  0  0  0  0  0  0
    9.0320   47.3380   53.7830 C   0  0  0  0  0  0  0  0  0  0  0  0
    9.8840   46.8860   52.6010 C   0  0  0  0  0  0  0  0  0  0  0  0
    8.6930   47.0490   51.6620 C   0  0  0  0  0  0  0  0  0  0  0  0
    6.8270   45.3200   52.5330 C   0  0  0  0  0  0  0  0  0  0  0  0
    4.3670   46.3406   51.2311 H   0  0  0  0  0  0  0  0  0  0  0  0
    5.7846   45.8655   50.2354 H   0  0  0  0  0  0  0  0  0  0  0  0
    4.3051   44.8468   50.2354 H   0  0  0  0  0  0  0  0  0  0  0  0
    5.7473   43.6598   51.6988 H   0  0  0  0  0  0  0  0  0  0  0  0
    3.5531   44.0831   52.7152 H   0  0  0  0  0  0  0  0  0  0  0  0
    4.8969   43.9791   53.9528 H   0  0  0  0  0  0  0  0  0  0  0  0
    2.3132   45.7977   56.3402 H   0  0  0  0  0  0  0  0  0  0  0  0
   -2.3233   44.0811   54.0844 H   0  0  0  0  0  0  0  0  0  0  0  0
    0.1760   45.3040   52.5920 H   0  0  0  0  0  0  0  0  0  0  0  0
    4.4289   47.5382   54.9224 H   0  0  0  0  0  0  0  0  0  0  0  0
    4.5946   45.9065   55.7272 H   0  0  0  0  0  0  0  0  0  0  0  0
    6.7370   47.3870   55.1484 H   0  0  0  0  0  0  0  0  0  0  0  0
    6.7330   45.5838   54.9850 H   0  0  0  0  0  0  0  0  0  0  0  0
    7.2925   48.4589   52.7912 H   0  0  0  0  0  0  0  0  0  0  0  0
    9.3706   48.2746   54.2501 H   0  0  0  0  0  0  0  0  0  0  0  0
    8.9539   46.7157   54.6866 H   0  0  0  0  0  0  0  0  0  0  0  0
   10.7264   47.5563   52.3750 H   0  0  0  0  0  0  0  0  0  0  0  0
   10.4257   45.9296   52.6447 H   0  0  0  0  0  0  0  0  0  0  0  0
    8.8326   47.8163   50.8863 H   0  0  0  0  0  0  0  0  0  0  0  0
    8.3675   46.2166   51.0207 H   0  0  0  0  0  0  0  0  0  0  0  0
    7.5059   45.4335   51.6750 H   0  0  0  0  0  0  0  0  0  0  0  0
    7.2262   44.6484   53.3073 H   0  0  0  0  0  0  0  0  0  0  0  0
  1  2  1  0
  2  3  1  0
  3  4  1  0
  4  5  1  0
  5  6  2  0
  5  7  1  0
  7  8  2  0
  8  9  1  0
  9 10  1  0
 10 11  1  0
 11 12  1  0
 11 13  2  0
 13 14  1  0
 14 15  1  0
  4 16  1  0
 16 17  1  0
 17 18  1  0
 18 19  1  0
 19 20  1  0
 20 21  1  0
 21 22  1  0
 18 23  1  0
 23  2  1  0
 15  7  1  0
 22 19  1  0
 14  9  2  0
  1 24  1  0
  1 25  1  0
  1 26  1  0
  2 27  1  6
  3 28  1  0
  3 29  1  0
  8 30  1  0
 13 31  1  0
 15 32  1  0
 16 33  1  0
 16 34  1  0
 17 35  1  0
 17 36  1  0
 19 37  1  0
 20 38  1  0
 20 39  1  0
 21 40  1  0
 21 41  1  0
 22 42  1  0
 22 43  1  0
 23 44  1  0
 23 45  1  0
M  END
>  <meeko>  (2) 
{"is_sidechain": [false], "free_energy": -6.346, "intermolecular_energy": -9.917, "internal_energy": 0.072}

$$$$
ligand_83_conformer_2_docked
     RDKit          3D

 45 48  0  0  0  0  0  0  0  0999 V2000
    6.6500   44.3090   50.0630 C   0  0  0  0  0  0  0  0  0  0  0  0
    6.2760   44.9310   51.4160 C   0  0  2  0  0  0  0  0  0  0  0  0
    5.1610   45.9790   51.2250 C   0  0  0  0  0  0  0  0  0  0  0  0
    4.5140   46.3940   52.4810 N   0  0  0  0  0  0  0  0  0  0  0  0
    3.1660   46.8870   52.3890 C   0  0  0  0  0  0  0  0  0  0  0  0
    2.9480   48.1280   52.4450 O   0  0  0  0  0  0  0  0  0  0  0  0
    2.0350   45.9600   52.2350 C   0  0  0  0  0  0  0  0  0  0  0  0
    1.9400   44.9610   51.2430 C   0  0  0  0  0  0  0  0  0  0  0  0
    0.7150   44.4060   51.5060 C   0  0  0  0  0  0  0  0  0  0  0  0
   -0.0520   43.4690   51.0190 O   0  0  0  0  0  0  0  0  0  0  0  0
   -1.1480   43.4920   51.7770 C   0  0  0  0  0  0  0  0  0  0  0  0
   -2.6320   42.3230   51.5200 Br  0  0  0  0  0  0  0  0  0  0  0  0
   -1.0710   44.4810   52.7760 C   0  0  0  0  0  0  0  0  0  0  0  0
    0.1640   45.0150   52.5300 C   0  0  0  0  0  0  0  0  0  0  0  0
    0.9240   45.9950   53.0270 N   0  0  0  0  0  0  0  0  0  0  0  0
    5.0170   45.9860   53.8080 C   0  0  0  0  0  0  0  0  0  0  0  0
    6.4430   46.4940   54.1110 C   0  0  0  0  0  0  0  0  0  0  0  0
    7.1870   46.7920   52.8630 N   0  0  0  0  0  0  0  0  0  0  0  0
    8.4270   47.6040   53.0190 C   0  0  0  0  0  0  0  0  0  0  0  0
    8.8210   47.9180   54.4630 C   0  0  0  0  0  0  0  0  0  0  0  0
   10.1380   47.1760   54.2570 C   0  0  0  0  0  0  0  0  0  0  0  0
    9.7520   46.8610   52.8160 C   0  0  0  0  0  0  0  0  0  0  0  0
    7.5030   45.5580   52.1040 C   0  0  0  0  0  0  0  0  0  0  0  0
    7.2103   43.3772   50.2301 H   0  0  0  0  0  0  0  0  0  0  0  0
    5.7341   44.0892   49.4948 H   0  0  0  0  0  0  0  0  0  0  0  0
    7.2736   45.0149   49.4948 H   0  0  0  0  0  0  0  0  0  0  0  0
    5.9034   44.1304   52.0719 H   0  0  0  0  0  0  0  0  0  0  0  0
    5.5993   46.8691   50.7501 H   0  0  0  0  0  0  0  0  0  0  0  0
    4.3836   45.5101   50.6038 H   0  0  0  0  0  0  0  0  0  0  0  0
    2.6643   44.6955   50.4588 H   0  0  0  0  0  0  0  0  0  0  0  0
   -1.8068   44.7517   53.5476 H   0  0  0  0  0  0  0  0  0  0  0  0
    0.6970   46.6590   53.7960 H   0  0  0  0  0  0  0  0  0  0  0  0
    4.3360   46.3830   54.5752 H   0  0  0  0  0  0  0  0  0  0  0  0
    5.0580   44.8868   53.8136 H   0  0  0  0  0  0  0  0  0  0  0  0
    6.3757   47.4107   54.7153 H   0  0  0  0  0  0  0  0  0  0  0  0
    6.9829   45.7061   54.6566 H   0  0  0  0  0  0  0  0  0  0  0  0
    8.1431   48.4106   52.3271 H   0  0  0  0  0  0  0  0  0  0  0  0
    8.9372   48.9912   54.6747 H   0  0  0  0  0  0  0  0  0  0  0  0
    8.1532   47.6515   55.2955 H   0  0  0  0  0  0  0  0  0  0  0  0
   11.0296   47.8133   54.3518 H   0  0  0  0  0  0  0  0  0  0  0  0
   10.4270   46.3644   54.9409 H   0  0  0  0  0  0  0  0  0  0  0  0
   10.4126   47.3155   52.0630 H   0  0  0  0  0  0  0  0  0  0  0  0
    9.7621   45.8247   52.4473 H   0  0  0  0  0  0  0  0  0  0  0  0
    8.2472   45.8044   51.3324 H   0  0  0  0  0  0  0  0  0  0  0  0
    7.8816   44.8205   52.8270 H   0  0  0  0  0  0  0  0  0  0  0  0
  1  2  1  0
  2  3  1  0
  3  4  1  0
  4  5  1  0
  5  6  2  0
  5  7  1  0
  7  8  2  0
  8  9  1  0
  9 10  1  0
 10 11  1  0
 11 12  1  0
 11 13  2  0
 13 14  1  0
 14 15  1  0
  4 16  1  0
 16 17  1  0
 17 18  1  0
 18 19  1  0
 19 20  1  0
 20 21  1  0
 21 22  1  0
 18 23  1  0
 23  2  1  0
 15  7  1  0
 22 19  1  0
 14  9  2  0
  1 24  1  0
  1 25  1  0
  1 26  1  0
  2 27  1  1
  3 28  1  0
  3 29  1  0
  8 30  1  0
 13 31  1  0
 15 32  1  0
 16 33  1  0
 16 34  1  0
 17 35  1  0
 17 36  1  0
 19 37  1  0
 20 38  1  0
 20 39  1  0
 21 40  1  0
 21 41  1  0
 22 42  1  0
 22 43  1  0
 23 44  1  0
 23 45  1  0
M  END
>  <meeko>  (3) 
{"is_sidechain": [false], "free_energy": -6.248, "intermolecular_energy": -9.842, "internal_energy": 0.147}

$$$$
ligand_83_conformer_2_docked
     RDKit          3D

 45 48  0  0  0  0  0  0  0  0999 V2000
    3.2520   44.9290   51.8360 C   0  0  0  0  0  0  0  0  0  0  0  0
    4.4820   44.8110   50.9240 C   0  0  2  0  0  0  0  0  0  0  0  0
    5.2050   43.4740   51.1820 C   0  0  0  0  0  0  0  0  0  0  0  0
    6.3670   43.2480   50.3070 N   0  0  0  0  0  0  0  0  0  0  0  0
    6.5000   41.9410   49.7210 C   0  0  0  0  0  0  0  0  0  0  0  0
    7.4370   41.1830   50.0880 O   0  0  0  0  0  0  0  0  0  0  0  0
    5.5550   41.4800   48.6930 C   0  0  0  0  0  0  0  0  0  0  0  0
    4.3460   40.8010   48.9550 C   0  0  0  0  0  0  0  0  0  0  0  0
    3.8630   40.5710   47.6930 C   0  0  0  0  0  0  0  0  0  0  0  0
    2.8310   39.9970   47.1380 O   0  0  0  0  0  0  0  0  0  0  0  0
    3.0300   40.1260   45.8260 C   0  0  0  0  0  0  0  0  0  0  0  0
    1.8230   39.4630   44.5070 Br  0  0  0  0  0  0  0  0  0  0  0  0
    4.2300   40.8040   45.5440 C   0  0  0  0  0  0  0  0  0  0  0  0
    4.6980   41.0580   46.8040 C   0  0  0  0  0  0  0  0  0  0  0  0
    5.7740   41.6280   47.3540 N   0  0  0  0  0  0  0  0  0  0  0  0
    7.1510   44.3560   49.7230 C   0  0  0  0  0  0  0  0  0  0  0  0
    7.7390   45.3190   50.7780 C   0  0  0  0  0  0  0  0  0  0  0  0
    6.7150   45.7210   51.7730 N   0  0  0  0  0  0  0  0  0  0  0  0
    7.0970   46.8310   52.6920 C   0  0  0  0  0  0  0  0  0  0  0  0
    8.1490   46.4720   53.7430 C   0  0  0  0  0  0  0  0  0  0  0  0
    9.0800   47.5320   53.1620 C   0  0  0  0  0  0  0  0  0  0  0  0
    8.0350   47.8950   52.1120 C   0  0  0  0  0  0  0  0  0  0  0  0
    5.4200   46.0440   51.1280 C   0  0  0  0  0  0  0  0  0  0  0  0
    3.5714   44.8984   52.8882 H   0  0  0  0  0  0  0  0  0  0  0  0
    2.7376   45.8806   51.6365 H   0  0  0  0  0  0  0  0  0  0  0  0
    2.5660   44.0925   51.6365 H   0  0  0  0  0  0  0  0  0  0  0  0
    4.1650   44.8126   49.8707 H   0  0  0  0  0  0  0  0  0  0  0  0
    5.5499   43.4623   52.2264 H   0  0  0  0  0  0  0  0  0  0  0  0
    4.4824   42.6727   50.9680 H   0  0  0  0  0  0  0  0  0  0  0  0
    3.9041   40.5265   49.9242 H   0  0  0  0  0  0  0  0  0  0  0  0
    4.6733   41.0611   44.5707 H   0  0  0  0  0  0  0  0  0  0  0  0
    6.6020   42.0370   46.8740 H   0  0  0  0  0  0  0  0  0  0  0  0
    7.9810   43.9268   49.1426 H   0  0  0  0  0  0  0  0  0  0  0  0
    6.4634   44.9435   49.0969 H   0  0  0  0  0  0  0  0  0  0  0  0
    8.5670   44.8165   51.2994 H   0  0  0  0  0  0  0  0  0  0  0  0
    8.0946   46.2231   50.2620 H   0  0  0  0  0  0  0  0  0  0  0  0
    6.0764   47.1096   52.9931 H   0  0  0  0  0  0  0  0  0  0  0  0
    7.8353   46.6674   54.7791 H   0  0  0  0  0  0  0  0  0  0  0  0
    8.4895   45.4327   53.8613 H   0  0  0  0  0  0  0  0  0  0  0  0
    9.3163   48.3497   53.8588 H   0  0  0  0  0  0  0  0  0  0  0  0
   10.1008   47.2612   52.8542 H   0  0  0  0  0  0  0  0  0  0  0  0
    7.6539   48.9237   52.1925 H   0  0  0  0  0  0  0  0  0  0  0  0
    8.2915   47.8923   51.0423 H   0  0  0  0  0  0  0  0  0  0  0  0
    4.8943   46.7772   51.7574 H   0  0  0  0  0  0  0  0  0  0  0  0
    5.6538   46.4331   50.1260 H   0  0  0  0  0  0  0  0  0  0  0  0
  1  2  1  0
  2  3  1  0
  3  4  1  0
  4  5  1  0
  5  6  2  0
  5  7  1  0
  7  8  2  0
  8  9  1  0
  9 10  1  0
 10 11  1  0
 11 12  1  0
 11 13  2  0
 13 14  1  0
 14 15  1  0
  4 16  1  0
 16 17  1  0
 17 18  1  0
 18 19  1  0
 19 20  1  0
 20 21  1  0
 21 22  1  0
 18 23  1  0
 23  2  1  0
 15  7  1  0
 22 19  1  0
 14  9  2  0
  1 24  1  0
  1 25  1  0
  1 26  1  0
  2 27  1  6
  3 28  1  0
  3 29  1  0
  8 30  1  0
 13 31  1  0
 15 32  1  0
 16 33  1  0
 16 34  1  0
 17 35  1  0
 17 36  1  0
 19 37  1  0
 20 38  1  0
 20 39  1  0
 21 40  1  0
 21 41  1  0
 22 42  1  0
 22 43  1  0
 23 44  1  0
 23 45  1  0
M  END
>  <meeko>  (4) 
{"is_sidechain": [false], "free_energy": -6.074, "intermolecular_energy": -9.453, "internal_energy": 0.024}

$$$$
ligand_83_conformer_2_docked
     RDKit          3D

 45 48  0  0  0  0  0  0  0  0999 V2000
    2.9030   46.7740   53.0050 C   0  0  0  0  0  0  0  0  0  0  0  0
    2.2660   46.0600   51.8050 C   0  0  2  0  0  0  0  0  0  0  0  0
    0.9340   45.4060   52.2240 C   0  0  0  0  0  0  0  0  0  0  0  0
    1.0900   44.0730   52.8290 N   0  0  0  0  0  0  0  0  0  0  0  0
    0.2190   43.7480   53.9270 C   0  0  0  0  0  0  0  0  0  0  0  0
   -0.4320   42.6680   53.9110 O   0  0  0  0  0  0  0  0  0  0  0  0
    0.0740   44.6640   55.0680 C   0  0  0  0  0  0  0  0  0  0  0  0
    1.0820   44.9350   56.0180 C   0  0  0  0  0  0  0  0  0  0  0  0
    0.4520   45.8050   56.8690 C   0  0  0  0  0  0  0  0  0  0  0  0
    0.7240   46.4610   57.9640 O   0  0  0  0  0  0  0  0  0  0  0  0
   -0.3990   47.1130   58.2630 C   0  0  0  0  0  0  0  0  0  0  0  0
   -0.5860   48.2460   59.7850 Br  0  0  0  0  0  0  0  0  0  0  0  0
   -1.4160   46.8570   57.3250 C   0  0  0  0  0  0  0  0  0  0  0  0
   -0.7780   46.0110   56.4600 C   0  0  0  0  0  0  0  0  0  0  0  0
   -1.0830   45.3280   55.3530 N   0  0  0  0  0  0  0  0  0  0  0  0
    1.7950   42.9670   52.1490 C   0  0  0  0  0  0  0  0  0  0  0  0
    3.3040   42.9050   52.4730 C   0  0  0  0  0  0  0  0  0  0  0  0
    3.9580   44.2180   52.2540 N   0  0  0  0  0  0  0  0  0  0  0  0
    5.4160   44.1790   51.9470 C   0  0  0  0  0  0  0  0  0  0  0  0
    5.7880   44.5500   50.5100 C   0  0  0  0  0  0  0  0  0  0  0  0
    6.6140   45.7200   51.0330 C   0  0  0  0  0  0  0  0  0  0  0  0
    6.2490   45.3550   52.4680 C   0  0  0  0  0  0  0  0  0  0  0  0
    3.2610   45.0130   51.2140 C   0  0  0  0  0  0  0  0  0  0  0  0
    2.5154   46.3395   53.9382 H   0  0  0  0  0  0  0  0  0  0  0  0
    3.9953   46.6492   52.9684 H   0  0  0  0  0  0  0  0  0  0  0  0
    2.6549   47.8450   52.9684 H   0  0  0  0  0  0  0  0  0  0  0  0
    2.0456   46.7953   51.0171 H   0  0  0  0  0  0  0  0  0  0  0  0
    0.4402   46.0629   52.9552 H   0  0  0  0  0  0  0  0  0  0  0  0
    0.3402   45.2739   51.3075 H   0  0  0  0  0  0  0  0  0  0  0  0
    2.1103   44.5471   56.0637 H   0  0  0  0  0  0  0  0  0  0  0  0
   -2.4482   47.2359   57.2952 H   0  0  0  0  0  0  0  0  0  0  0  0
   -2.0000   45.2740   54.8620 H   0  0  0  0  0  0  0  0  0  0  0  0
    1.3334   42.0177   52.4585 H   0  0  0  0  0  0  0  0  0  0  0  0
    1.7039   43.1427   51.0670 H   0  0  0  0  0  0  0  0  0  0  0  0
    3.4325   42.6121   53.5255 H   0  0  0  0  0  0  0  0  0  0  0  0
    3.7723   42.1686   51.8034 H   0  0  0  0  0  0  0  0  0  0  0  0
    5.6033   43.1656   52.3316 H   0  0  0  0  0  0  0  0  0  0  0  0
    6.3762   43.7829   49.9850 H   0  0  0  0  0  0  0  0  0  0  0  0
    5.0055   44.7120   49.7541 H   0  0  0  0  0  0  0  0  0  0  0  0
    7.6887   45.6426   50.8117 H   0  0  0  0  0  0  0  0  0  0  0  0
    6.4289   46.7375   50.6582 H   0  0  0  0  0  0  0  0  0  0  0  0
    7.1069   45.0589   53.0896 H   0  0  0  0  0  0  0  0  0  0  0  0
    5.8027   46.1031   53.1397 H   0  0  0  0  0  0  0  0  0  0  0  0
    4.0157   45.5460   50.6170 H   0  0  0  0  0  0  0  0  0  0  0  0
    2.6731   44.3107   50.6048 H   0  0  0  0  0  0  0  0  0  0  0  0
  1  2  1  0
  2  3  1  0
  3  4  1  0
  4  5  1  0
  5  6  2  0
  5  7  1  0
  7  8  2  0
  8  9  1  0
  9 10  1  0
 10 11  1  0
 11 12  1  0
 11 13  2  0
 13 14  1  0
 14 15  1  0
  4 16  1  0
 16 17  1  0
 17 18  1  0
 18 19  1  0
 19 20  1  0
 20 21  1  0
 21 22  1  0
 18 23  1  0
 23  2  1  0
 15  7  1  0
 22 19  1  0
 14  9  2  0
  1 24  1  0
  1 25  1  0
  1 26  1  0
  2 27  1  6
  3 28  1  0
  3 29  1  0
  8 30  1  0
 13 31  1  0
 15 32  1  0
 16 33  1  0
 16 34  1  0
 17 35  1  0
 17 36  1  0
 19 37  1  0
 20 38  1  0
 20 39  1  0
 21 40  1  0
 21 41  1  0
 22 42  1  0
 22 43  1  0
 23 44  1  0
 23 45  1  0
M  END
>  <meeko>  (5) 
{"is_sidechain": [false], "free_energy": -5.761, "intermolecular_energy": -8.895, "internal_energy": -0.056}

$$$$
