MODEL 1
REMARK VINA RESULT:    -9.141      0.000      0.000
REMARK INTER + INTRA:         -13.134
REMARK INTER:                 -12.615
REMARK INTRA:                  -0.519
REMARK UNBOUND:                -0.519
REMARK SMILES O=C(Nc1cccc(C(=O)Nc2ccc(Cl)cn2)c1)N[C@H](CO)c1ccc(F)c(Cl)c1
REMARK SMILES IDX 1 1 2 2 3 3 20 4 4 7 5 8 19 9 6 10 8 11 7 12 9 13 10 14
REMARK SMILES IDX 11 15 12 17 13 18 18 19 14 20 17 21 15 22 16 23 21 24 22 25
REMARK SMILES IDX 23 26 24 28 25 29 31 30 26 31 29 32 27 33 30 34 28 35
REMARK H PARENT 3 5 20 6 11 16 23 27
ROOT
ATOM      1  O   UNL     1       3.073  44.984  51.550  1.00  0.00    -0.248 OA
ATOM      2  C   UNL     1       3.648  43.948  51.982  1.00  0.00     0.319 C 
ATOM      3  N   UNL     1       3.011  43.122  52.968  1.00  0.00    -0.308 N 
ATOM      4  N   UNL     1       4.964  43.613  51.519  1.00  0.00    -0.329 N 
ATOM      5  H   UNL     1       3.611  42.450  53.498  1.00  0.00     0.171 HD
ATOM      6  H   UNL     1       5.405  42.738  51.882  1.00  0.00     0.166 HD
ENDROOT
BRANCH   3   7
ATOM      7  C   UNL     1       1.632  43.248  53.357  1.00  0.00     0.043 A 
ATOM      8  C   UNL     1       0.633  42.731  52.521  1.00  0.00     0.026 A 
ATOM      9  C   UNL     1       1.260  43.935  54.528  1.00  0.00     0.040 A 
ATOM     10  C   UNL     1      -0.714  42.865  52.861  1.00  0.00     0.003 A 
ATOM     11  C   UNL     1      -0.095  44.063  54.886  1.00  0.00     0.042 A 
ATOM     12  C   UNL     1      -1.078  43.526  54.037  1.00  0.00     0.014 A 
BRANCH  11  13
ATOM     13  C   UNL     1      -0.491  44.780  56.122  1.00  0.00     0.256 C 
ATOM     14  O   UNL     1      -1.532  44.419  56.738  1.00  0.00    -0.269 OA
ATOM     15  N   UNL     1       0.315  45.852  56.644  1.00  0.00    -0.307 N 
ATOM     16  H   UNL     1       1.306  45.929  56.320  1.00  0.00     0.171 HD
BRANCH  15  17
ATOM     17  C   UNL     1      -0.146  46.798  57.623  1.00  0.00     0.132 A 
ATOM     18  C   UNL     1      -1.364  47.466  57.433  1.00  0.00     0.049 A 
ATOM     19  N   UNL     1       0.577  47.037  58.755  1.00  0.00    -0.238 NA
ATOM     20  C   UNL     1      -1.811  48.372  58.396  1.00  0.00     0.026 A 
ATOM     21  C   UNL     1       0.159  47.914  59.705  1.00  0.00     0.134 A 
ATOM     22  C   UNL     1      -1.046  48.601  59.542  1.00  0.00     0.059 A 
ATOM     23  Cl  UNL     1      -1.594  49.735  60.763  1.00  0.00    -0.083 Cl
ENDBRANCH  15  17
ENDBRANCH  11  13
ENDBRANCH   3   7
BRANCH   4  24
ATOM     24  C   UNL     1       5.679  44.438  50.538  1.00  0.00     0.139 C 
BRANCH  24  25
ATOM     25  C   UNL     1       6.518  43.566  49.590  1.00  0.00     0.185 C 
BRANCH  25  26
ATOM     26  O   UNL     1       6.221  42.207  49.768  1.00  0.00    -0.394 OA
ATOM     27  H   UNL     1       6.905  41.706  49.253  1.00  0.00     0.210 HD
ENDBRANCH  25  26
ENDBRANCH  24  25
BRANCH  24  28
ATOM     28  C   UNL     1       6.548  45.471  51.228  1.00  0.00    -0.022 A 
ATOM     29  C   UNL     1       5.981  46.465  52.049  1.00  0.00     0.009 A 
ATOM     30  C   UNL     1       7.946  45.416  51.090  1.00  0.00     0.029 A 
ATOM     31  C   UNL     1       6.797  47.396  52.696  1.00  0.00     0.041 A 
ATOM     32  C   UNL     1       8.761  46.350  51.740  1.00  0.00     0.077 A 
ATOM     33  C   UNL     1       8.184  47.343  52.542  1.00  0.00     0.141 A 
ATOM     34  Cl  UNL     1      10.504  46.268  51.546  1.00  0.00    -0.081 Cl
ATOM     35  F   UNL     1       8.966  48.252  53.176  1.00  0.00    -0.205 F 
ENDBRANCH  24  28
ENDBRANCH   4  24
TORSDOF 7
ENDMDL
MODEL 2
REMARK VINA RESULT:    -9.019      1.255      1.586
REMARK INTER + INTRA:         -12.965
REMARK INTER:                 -12.120
REMARK INTRA:                  -0.846
REMARK UNBOUND:                -0.519
REMARK SMILES O=C(Nc1cccc(C(=O)Nc2ccc(Cl)cn2)c1)N[C@H](CO)c1ccc(F)c(Cl)c1
REMARK SMILES IDX 1 1 2 2 3 3 20 4 4 7 5 8 19 9 6 10 8 11 7 12 9 13 10 14
REMARK SMILES IDX 11 15 12 17 13 18 18 19 14 20 17 21 15 22 16 23 21 24 22 25
REMARK SMILES IDX 23 26 24 28 25 29 31 30 26 31 29 32 27 33 30 34 28 35
REMARK H PARENT 3 5 20 6 11 16 23 27
ROOT
ATOM      1  O   UNL     1       2.811  45.906  52.723  1.00  0.00    -0.248 OA
ATOM      2  C   UNL     1       3.423  44.847  53.033  1.00  0.00     0.319 C 
ATOM      3  N   UNL     1       2.803  43.875  53.888  1.00  0.00    -0.308 N 
ATOM      4  N   UNL     1       4.761  44.630  52.565  1.00  0.00    -0.329 N 
ATOM      5  H   UNL     1       3.421  43.166  54.342  1.00  0.00     0.171 HD
ATOM      6  H   UNL     1       5.234  43.734  52.824  1.00  0.00     0.166 HD
ENDROOT
BRANCH   3   7
ATOM      7  C   UNL     1       1.412  43.893  54.254  1.00  0.00     0.043 A 
ATOM      8  C   UNL     1       0.482  43.219  53.450  1.00  0.00     0.026 A 
ATOM      9  C   UNL     1       0.956  44.624  55.367  1.00  0.00     0.040 A 
ATOM     10  C   UNL     1      -0.876  43.244  53.767  1.00  0.00     0.003 A 
ATOM     11  C   UNL     1      -0.411  44.643  55.703  1.00  0.00     0.042 A 
ATOM     12  C   UNL     1      -1.323  43.950  54.887  1.00  0.00     0.014 A 
BRANCH  11  13
ATOM     13  C   UNL     1      -0.896  45.407  56.878  1.00  0.00     0.256 C 
ATOM     14  O   UNL     1      -1.793  44.907  57.611  1.00  0.00    -0.269 OA
ATOM     15  N   UNL     1      -0.329  46.687  57.210  1.00  0.00    -0.307 N 
ATOM     16  H   UNL     1       0.600  46.938  56.802  1.00  0.00     0.171 HD
BRANCH  15  17
ATOM     17  C   UNL     1      -0.942  47.624  58.111  1.00  0.00     0.132 A 
ATOM     18  C   UNL     1      -0.309  47.951  59.319  1.00  0.00     0.049 A 
ATOM     19  N   UNL     1      -2.125  48.224  57.794  1.00  0.00    -0.238 NA
ATOM     20  C   UNL     1      -0.903  48.873  60.182  1.00  0.00     0.026 A 
ATOM     21  C   UNL     1      -2.720  49.125  58.620  1.00  0.00     0.134 A 
ATOM     22  C   UNL     1      -2.119  49.466  59.833  1.00  0.00     0.059 A 
ATOM     23  Cl  UNL     1      -2.879  50.628  60.906  1.00  0.00    -0.083 Cl
ENDBRANCH  15  17
ENDBRANCH  11  13
ENDBRANCH   3   7
BRANCH   4  24
ATOM     24  C   UNL     1       5.459  45.604  51.717  1.00  0.00     0.139 C 
BRANCH  24  25
ATOM     25  C   UNL     1       5.794  45.000  50.344  1.00  0.00     0.185 C 
BRANCH  25  26
ATOM     26  O   UNL     1       5.783  43.599  50.399  1.00  0.00    -0.394 OA
ATOM     27  H   UNL     1       5.399  43.362  51.283  1.00  0.00     0.210 HD
ENDBRANCH  25  26
ENDBRANCH  24  25
BRANCH  24  28
ATOM     28  C   UNL     1       6.712  46.118  52.398  1.00  0.00    -0.022 A 
ATOM     29  C   UNL     1       6.656  46.694  53.682  1.00  0.00     0.009 A 
ATOM     30  C   UNL     1       7.960  45.979  51.767  1.00  0.00     0.029 A 
ATOM     31  C   UNL     1       7.823  47.143  54.306  1.00  0.00     0.041 A 
ATOM     32  C   UNL     1       9.127  46.430  52.395  1.00  0.00     0.077 A 
ATOM     33  C   UNL     1       9.057  47.014  53.665  1.00  0.00     0.141 A 
ATOM     34  Cl  UNL     1      10.675  46.254  51.584  1.00  0.00    -0.081 Cl
ATOM     35  F   UNL     1      10.183  47.452  54.282  1.00  0.00    -0.205 F 
ENDBRANCH  24  28
ENDBRANCH   4  24
TORSDOF 7
ENDMDL
MODEL 3
REMARK VINA RESULT:    -8.543      1.768      2.347
REMARK INTER + INTRA:         -12.308
REMARK INTER:                 -11.872
REMARK INTRA:                  -0.435
REMARK UNBOUND:                -0.519
REMARK SMILES O=C(Nc1cccc(C(=O)Nc2ccc(Cl)cn2)c1)N[C@H](CO)c1ccc(F)c(Cl)c1
REMARK SMILES IDX 1 1 2 2 3 3 20 4 4 7 5 8 19 9 6 10 8 11 7 12 9 13 10 14
REMARK SMILES IDX 11 15 12 17 13 18 18 19 14 20 17 21 15 22 16 23 21 24 22 25
REMARK SMILES IDX 23 26 24 28 25 29 31 30 26 31 29 32 27 33 30 34 28 35
REMARK H PARENT 3 5 20 6 11 16 23 27
ROOT
ATOM      1  O   UNL     1       1.689  44.152  51.696  1.00  0.00    -0.248 OA
ATOM      2  C   UNL     1       2.283  43.517  52.610  1.00  0.00     0.319 C 
ATOM      3  N   UNL     1       1.697  43.406  53.915  1.00  0.00    -0.308 N 
ATOM      4  N   UNL     1       3.572  42.939  52.359  1.00  0.00    -0.329 N 
ATOM      5  H   UNL     1       2.323  43.127  54.704  1.00  0.00     0.171 HD
ATOM      6  H   UNL     1       4.030  42.403  53.131  1.00  0.00     0.166 HD
ENDROOT
BRANCH   3   7
ATOM      7  C   UNL     1       0.341  43.771  54.224  1.00  0.00     0.043 A 
ATOM      8  C   UNL     1      -0.688  43.395  53.351  1.00  0.00     0.026 A 
ATOM      9  C   UNL     1       0.032  44.554  55.353  1.00  0.00     0.040 A 
ATOM     10  C   UNL     1      -2.009  43.761  53.613  1.00  0.00     0.003 A 
ATOM     11  C   UNL     1      -1.299  44.916  55.633  1.00  0.00     0.042 A 
ATOM     12  C   UNL     1      -2.315  44.517  54.748  1.00  0.00     0.014 A 
BRANCH  11  13
ATOM     13  C   UNL     1      -1.631  45.736  56.824  1.00  0.00     0.256 C 
ATOM     14  O   UNL     1      -2.570  45.369  57.583  1.00  0.00    -0.269 OA
ATOM     15  N   UNL     1      -0.871  46.916  57.142  1.00  0.00    -0.307 N 
ATOM     16  H   UNL     1       0.073  47.030  56.707  1.00  0.00     0.171 HD
BRANCH  15  17
ATOM     17  C   UNL     1      -1.311  47.928  58.063  1.00  0.00     0.132 A 
ATOM     18  C   UNL     1      -0.620  48.128  59.266  1.00  0.00     0.049 A 
ATOM     19  N   UNL     1      -2.384  48.717  57.770  1.00  0.00    -0.238 NA
ATOM     20  C   UNL     1      -1.045  49.123  60.149  1.00  0.00     0.026 A 
ATOM     21  C   UNL     1      -2.815  49.691  58.615  1.00  0.00     0.134 A 
ATOM     22  C   UNL     1      -2.151  49.911  59.825  1.00  0.00     0.059 A 
ATOM     23  Cl  UNL     1      -2.698  51.167  60.922  1.00  0.00    -0.083 Cl
ENDBRANCH  15  17
ENDBRANCH  11  13
ENDBRANCH   3   7
BRANCH   4  24
ATOM     24  C   UNL     1       4.236  43.050  51.055  1.00  0.00     0.139 C 
BRANCH  24  25
ATOM     25  C   UNL     1       4.752  41.682  50.579  1.00  0.00     0.185 C 
BRANCH  25  26
ATOM     26  O   UNL     1       3.699  40.762  50.475  1.00  0.00    -0.394 OA
ATOM     27  H   UNL     1       3.189  41.018  49.663  1.00  0.00     0.210 HD
ENDBRANCH  25  26
ENDBRANCH  24  25
BRANCH  24  28
ATOM     28  C   UNL     1       5.365  44.062  51.104  1.00  0.00    -0.022 A 
ATOM     29  C   UNL     1       6.380  44.065  50.129  1.00  0.00     0.009 A 
ATOM     30  C   UNL     1       5.380  45.046  52.108  1.00  0.00     0.029 A 
ATOM     31  C   UNL     1       7.401  45.019  50.175  1.00  0.00     0.041 A 
ATOM     32  C   UNL     1       6.403  46.000  52.152  1.00  0.00     0.077 A 
ATOM     33  C   UNL     1       7.416  45.984  51.185  1.00  0.00     0.141 A 
ATOM     34  Cl  UNL     1       6.407  47.214  53.420  1.00  0.00    -0.081 Cl
ATOM     35  F   UNL     1       8.411  46.905  51.219  1.00  0.00    -0.205 F 
ENDBRANCH  24  28
ENDBRANCH   4  24
TORSDOF 7
ENDMDL
MODEL 4
REMARK VINA RESULT:    -8.295      2.197      2.723
REMARK INTER + INTRA:         -11.967
REMARK INTER:                 -11.926
REMARK INTRA:                  -0.041
REMARK UNBOUND:                -0.519
REMARK SMILES O=C(Nc1cccc(C(=O)Nc2ccc(Cl)cn2)c1)N[C@H](CO)c1ccc(F)c(Cl)c1
REMARK SMILES IDX 1 1 2 2 3 3 20 4 4 7 5 8 19 9 6 10 8 11 7 12 9 13 10 14
REMARK SMILES IDX 11 15 12 17 13 18 18 19 14 20 17 21 15 22 16 23 21 24 22 25
REMARK SMILES IDX 23 26 24 28 25 29 31 30 26 31 29 32 27 33 30 34 28 35
REMARK H PARENT 3 5 20 6 11 16 23 27
ROOT
ATOM      1  O   UNL     1       3.241  46.061  55.095  1.00  0.00    -0.248 OA
ATOM      2  C   UNL     1       3.631  45.272  54.192  1.00  0.00     0.319 C 
ATOM      3  N   UNL     1       2.815  44.159  53.798  1.00  0.00    -0.308 N 
ATOM      4  N   UNL     1       4.916  45.460  53.582  1.00  0.00    -0.329 N 
ATOM      5  H   UNL     1       3.275  43.386  53.266  1.00  0.00     0.171 HD
ATOM      6  H   UNL     1       5.202  44.800  52.823  1.00  0.00     0.166 HD
ENDROOT
BRANCH   3   7
ATOM      7  C   UNL     1       1.444  43.984  54.195  1.00  0.00     0.043 A 
ATOM      8  C   UNL     1       0.609  43.154  53.434  1.00  0.00     0.026 A 
ATOM      9  C   UNL     1       0.904  44.678  55.294  1.00  0.00     0.040 A 
ATOM     10  C   UNL     1      -0.732  42.989  53.781  1.00  0.00     0.003 A 
ATOM     11  C   UNL     1      -0.444  44.507  55.661  1.00  0.00     0.042 A 
ATOM     12  C   UNL     1      -1.258  43.660  54.888  1.00  0.00     0.014 A 
BRANCH  11  13
ATOM     13  C   UNL     1      -1.015  45.231  56.822  1.00  0.00     0.256 C 
ATOM     14  O   UNL     1      -1.859  44.648  57.558  1.00  0.00    -0.269 OA
ATOM     15  N   UNL     1      -0.591  46.569  57.138  1.00  0.00    -0.307 N 
ATOM     16  H   UNL     1       0.309  46.913  56.731  1.00  0.00     0.171 HD
BRANCH  15  17
ATOM     17  C   UNL     1      -1.306  47.448  58.022  1.00  0.00     0.132 A 
ATOM     18  C   UNL     1      -2.339  48.254  57.524  1.00  0.00     0.049 A 
ATOM     19  N   UNL     1      -1.009  47.491  59.353  1.00  0.00    -0.238 NA
ATOM     20  C   UNL     1      -3.039  49.095  58.392  1.00  0.00     0.026 A 
ATOM     21  C   UNL     1      -1.678  48.301  60.215  1.00  0.00     0.134 A 
ATOM     22  C   UNL     1      -2.708  49.122  59.748  1.00  0.00     0.059 A 
ATOM     23  Cl  UNL     1      -3.577  50.171  60.853  1.00  0.00    -0.083 Cl
ENDBRANCH  15  17
ENDBRANCH  11  13
ENDBRANCH   3   7
BRANCH   4  24
ATOM     24  C   UNL     1       5.808  46.560  53.968  1.00  0.00     0.139 C 
BRANCH  24  25
ATOM     25  C   UNL     1       5.139  47.923  53.732  1.00  0.00     0.185 C 
BRANCH  25  26
ATOM     26  O   UNL     1       4.616  48.434  54.929  1.00  0.00    -0.394 OA
ATOM     27  H   UNL     1       4.006  49.173  54.668  1.00  0.00     0.210 HD
ENDBRANCH  25  26
ENDBRANCH  24  25
BRANCH  24  28
ATOM     28  C   UNL     1       7.128  46.474  53.225  1.00  0.00    -0.022 A 
ATOM     29  C   UNL     1       8.312  46.990  53.787  1.00  0.00     0.009 A 
ATOM     30  C   UNL     1       7.190  45.829  51.978  1.00  0.00     0.029 A 
ATOM     31  C   UNL     1       9.524  46.883  53.101  1.00  0.00     0.041 A 
ATOM     32  C   UNL     1       8.406  45.723  51.293  1.00  0.00     0.077 A 
ATOM     33  C   UNL     1       9.573  46.253  51.855  1.00  0.00     0.141 A 
ATOM     34  Cl  UNL     1       8.458  44.921  49.732  1.00  0.00    -0.081 Cl
ATOM     35  F   UNL     1      10.757  46.154  51.199  1.00  0.00    -0.205 F 
ENDBRANCH  24  28
ENDBRANCH   4  24
TORSDOF 7
ENDMDL
MODEL 5
REMARK VINA RESULT:    -8.265      6.233     11.176
REMARK INTER + INTRA:         -11.925
REMARK INTER:                 -11.119
REMARK INTRA:                  -0.806
REMARK UNBOUND:                -0.519
REMARK SMILES O=C(Nc1cccc(C(=O)Nc2ccc(Cl)cn2)c1)N[C@H](CO)c1ccc(F)c(Cl)c1
REMARK SMILES IDX 1 1 2 2 3 3 20 4 4 7 5 8 19 9 6 10 8 11 7 12 9 13 10 14
REMARK SMILES IDX 11 15 12 17 13 18 18 19 14 20 17 21 15 22 16 23 21 24 22 25
REMARK SMILES IDX 23 26 24 28 25 29 31 30 26 31 29 32 27 33 30 34 28 35
REMARK H PARENT 3 5 20 6 11 16 23 27
ROOT
ATOM      1  O   UNL     1       3.155  44.301  51.476  1.00  0.00    -0.248 OA
ATOM      2  C   UNL     1       3.236  43.384  52.339  1.00  0.00     0.319 C 
ATOM      3  N   UNL     1       3.661  42.066  51.961  1.00  0.00    -0.308 N 
ATOM      4  N   UNL     1       2.860  43.645  53.699  1.00  0.00    -0.329 N 
ATOM      5  H   UNL     1       3.453  41.283  52.619  1.00  0.00     0.171 HD
ATOM      6  H   UNL     1       2.957  42.869  54.394  1.00  0.00     0.166 HD
ENDROOT
BRANCH   3   7
ATOM      7  C   UNL     1       4.241  41.742  50.685  1.00  0.00     0.043 A 
ATOM      8  C   UNL     1       5.550  42.154  50.401  1.00  0.00     0.026 A 
ATOM      9  C   UNL     1       3.501  41.073  49.692  1.00  0.00     0.040 A 
ATOM     10  C   UNL     1       6.126  41.876  49.161  1.00  0.00     0.003 A 
ATOM     11  C   UNL     1       4.078  40.775  48.444  1.00  0.00     0.042 A 
ATOM     12  C   UNL     1       5.397  41.190  48.186  1.00  0.00     0.014 A 
BRANCH  11  13
ATOM     13  C   UNL     1       3.304  40.066  47.396  1.00  0.00     0.256 C 
ATOM     14  O   UNL     1       2.434  40.699  46.736  1.00  0.00    -0.269 OA
ATOM     15  N   UNL     1       3.561  38.681  47.100  1.00  0.00    -0.307 N 
ATOM     16  H   UNL     1       4.469  38.267  47.415  1.00  0.00     0.171 HD
BRANCH  15  17
ATOM     17  C   UNL     1       2.665  37.842  46.353  1.00  0.00     0.132 A 
ATOM     18  C   UNL     1       1.711  37.065  47.023  1.00  0.00     0.049 A 
ATOM     19  N   UNL     1       2.714  37.810  44.990  1.00  0.00    -0.238 NA
ATOM     20  C   UNL     1       0.834  36.264  46.289  1.00  0.00     0.026 A 
ATOM     21  C   UNL     1       1.870  37.038  44.256  1.00  0.00     0.134 A 
ATOM     22  C   UNL     1       0.912  36.247  44.895  1.00  0.00     0.059 A 
ATOM     23  Cl  UNL     1      -0.182  35.246  43.956  1.00  0.00    -0.083 Cl
ENDBRANCH  15  17
ENDBRANCH  11  13
ENDBRANCH   3   7
BRANCH   4  24
ATOM     24  C   UNL     1       2.385  44.962  54.138  1.00  0.00     0.139 C 
BRANCH  24  25
ATOM     25  C   UNL     1       3.423  45.653  55.037  1.00  0.00     0.185 C 
BRANCH  25  26
ATOM     26  O   UNL     1       4.310  44.715  55.584  1.00  0.00    -0.394 OA
ATOM     27  H   UNL     1       4.940  44.474  54.856  1.00  0.00     0.210 HD
ENDBRANCH  25  26
ENDBRANCH  24  25
BRANCH  24  28
ATOM     28  C   UNL     1       1.050  44.850  54.847  1.00  0.00    -0.022 A 
ATOM     29  C   UNL     1       0.918  45.198  56.206  1.00  0.00     0.009 A 
ATOM     30  C   UNL     1      -0.090  44.438  54.135  1.00  0.00     0.029 A 
ATOM     31  C   UNL     1      -0.324  45.110  56.839  1.00  0.00     0.041 A 
ATOM     32  C   UNL     1      -1.333  44.352  54.772  1.00  0.00     0.077 A 
ATOM     33  C   UNL     1      -1.449  44.686  56.127  1.00  0.00     0.141 A 
ATOM     34  Cl  UNL     1      -2.741  43.827  53.865  1.00  0.00    -0.081 Cl
ATOM     35  F   UNL     1      -2.650  44.606  56.753  1.00  0.00    -0.205 F 
ENDBRANCH  24  28
ENDBRANCH   4  24
TORSDOF 7
ENDMDL
