MODEL 1
REMARK VINA RESULT:    -8.135      0.000      0.000
REMARK INTER + INTRA:         -11.803
REMARK INTER:                 -10.988
REMARK INTRA:                  -0.815
REMARK UNBOUND:                -0.815
REMARK SMILES N#Cc1cc(N(CC[C@H]2C[C@H](F)C2)Cc2ccns2)ncn1
REMARK SMILES IDX 7 1 6 2 5 3 1 4 2 5 3 6 4 7 22 8 21 9 20 10 14 11 15 12
REMARK SMILES IDX 16 13 19 14 17 15 18 16 8 17 9 18 10 19 13 20 11 21 12 22
REMARK H PARENT
ROOT
ATOM      1  C   UNL     1       7.622  45.807  51.587  1.00  0.00     0.119 C 
ENDROOT
BRANCH   1   2
ATOM      2  N   UNL     1       6.178  45.519  51.697  1.00  0.00    -0.351 N 
BRANCH   2   3
ATOM      3  C   UNL     1       5.568  45.402  52.997  1.00  0.00     0.133 A 
ATOM      4  N   UNL     1       1.073  45.481  54.801  1.00  0.00    -0.191 NA
ATOM      5  C   UNL     1       2.218  45.426  54.638  1.00  0.00     0.120 C 
ATOM      6  C   UNL     1       3.639  45.358  54.436  1.00  0.00     0.145 A 
ATOM      7  C   UNL     1       4.176  45.469  53.152  1.00  0.00     0.087 A 
ATOM      8  N   UNL     1       4.462  45.177  55.501  1.00  0.00    -0.225 NA
ATOM      9  C   UNL     1       5.807  45.101  55.337  1.00  0.00     0.225 A 
ATOM     10  N   UNL     1       6.348  45.210  54.097  1.00  0.00    -0.219 NA
ENDBRANCH   2   3
BRANCH   2  11
ATOM     11  C   UNL     1       5.418  45.090  50.512  1.00  0.00     0.166 C 
BRANCH  11  12
ATOM     12  C   UNL     1       5.480  43.605  50.347  1.00  0.00     0.045 A 
ATOM     13  C   UNL     1       6.482  42.867  49.733  1.00  0.00     0.039 A 
ATOM     14  S   UNL     1       4.404  42.483  50.945  1.00  0.00    -0.040 S 
ATOM     15  C   UNL     1       6.262  41.476  49.801  1.00  0.00     0.126 A 
ATOM     16  N   UNL     1       5.137  41.077  50.448  1.00  0.00    -0.201 NA
ENDBRANCH  11  12
ENDBRANCH   2  11
ENDBRANCH   1   2
BRANCH   1  17
ATOM     17  C   UNL     1       7.912  47.316  51.580  1.00  0.00     0.025 C 
BRANCH  17  18
ATOM     18  C   UNL     1       9.138  47.689  52.435  1.00  0.00    -0.004 C 
ATOM     19  C   UNL     1       8.791  47.999  53.892  1.00  0.00     0.041 C 
ATOM     20  C   UNL     1       9.978  46.495  52.893  1.00  0.00     0.041 C 
ATOM     21  C   UNL     1       9.642  46.820  54.342  1.00  0.00     0.167 C 
ATOM     22  F   UNL     1      10.758  47.227  55.054  1.00  0.00    -0.247 F 
ENDBRANCH  17  18
ENDBRANCH   1  17
TORSDOF 6
ENDMDL
MODEL 2
REMARK VINA RESULT:    -7.870      3.023      6.102
REMARK INTER + INTRA:         -11.446
REMARK INTER:                 -10.875
REMARK INTRA:                  -0.571
REMARK UNBOUND:                -0.815
REMARK SMILES N#Cc1cc(N(CC[C@H]2C[C@H](F)C2)Cc2ccns2)ncn1
REMARK SMILES IDX 7 1 6 2 5 3 1 4 2 5 3 6 4 7 22 8 21 9 20 10 14 11 15 12
REMARK SMILES IDX 16 13 19 14 17 15 18 16 8 17 9 18 10 19 13 20 11 21 12 22
REMARK H PARENT
ROOT
ATOM      1  C   UNL     1       5.543  45.940  51.164  1.00  0.00     0.119 C 
ENDROOT
BRANCH   1   2
ATOM      2  N   UNL     1       6.180  46.800  52.180  1.00  0.00    -0.351 N 
BRANCH   2   3
ATOM      3  C   UNL     1       7.602  46.718  52.398  1.00  0.00     0.133 A 
ATOM      4  N   UNL     1      10.661  47.558  56.059  1.00  0.00    -0.191 NA
ATOM      5  C   UNL     1      10.165  47.290  55.048  1.00  0.00     0.120 C 
ATOM      6  C   UNL     1       9.549  46.959  53.792  1.00  0.00     0.145 A 
ATOM      7  C   UNL     1       8.163  47.047  53.640  1.00  0.00     0.087 A 
ATOM      8  N   UNL     1      10.320  46.550  52.753  1.00  0.00    -0.225 NA
ATOM      9  C   UNL     1       9.763  46.223  51.558  1.00  0.00     0.225 A 
ATOM     10  N   UNL     1       8.419  46.305  51.390  1.00  0.00    -0.219 NA
ENDBRANCH   2   3
BRANCH   2  11
ATOM     11  C   UNL     1       5.351  47.536  53.149  1.00  0.00     0.166 C 
BRANCH  11  12
ATOM     12  C   UNL     1       4.353  46.630  53.796  1.00  0.00     0.045 A 
ATOM     13  C   UNL     1       4.526  45.872  54.945  1.00  0.00     0.039 A 
ATOM     14  S   UNL     1       2.770  46.393  53.339  1.00  0.00    -0.040 S 
ATOM     15  C   UNL     1       3.362  45.170  55.321  1.00  0.00     0.126 A 
ATOM     16  N   UNL     1       2.273  45.345  54.529  1.00  0.00    -0.201 NA
ENDBRANCH  11  12
ENDBRANCH   2  11
ENDBRANCH   1   2
BRANCH   1  17
ATOM     17  C   UNL     1       5.660  44.447  51.511  1.00  0.00     0.025 C 
BRANCH  17  18
ATOM     18  C   UNL     1       5.412  43.533  50.296  1.00  0.00    -0.004 C 
ATOM     19  C   UNL     1       6.699  43.052  49.625  1.00  0.00     0.041 C 
ATOM     20  C   UNL     1       5.060  42.088  50.652  1.00  0.00     0.041 C 
ATOM     21  C   UNL     1       6.335  41.613  49.968  1.00  0.00     0.167 C 
ATOM     22  F   UNL     1       6.066  40.862  48.835  1.00  0.00    -0.247 F 
ENDBRANCH  17  18
ENDBRANCH   1  17
TORSDOF 6
ENDMDL
MODEL 3
REMARK VINA RESULT:    -7.815      1.640      4.413
REMARK INTER + INTRA:         -11.371
REMARK INTER:                 -11.004
REMARK INTRA:                  -0.366
REMARK UNBOUND:                -0.815
REMARK SMILES N#Cc1cc(N(CC[C@H]2C[C@H](F)C2)Cc2ccns2)ncn1
REMARK SMILES IDX 7 1 6 2 5 3 1 4 2 5 3 6 4 7 22 8 21 9 20 10 14 11 15 12
REMARK SMILES IDX 16 13 19 14 17 15 18 16 8 17 9 18 10 19 13 20 11 21 12 22
REMARK H PARENT
ROOT
ATOM      1  C   UNL     1       6.844  46.393  52.994  1.00  0.00     0.119 C 
ENDROOT
BRANCH   1   2
ATOM      2  N   UNL     1       5.727  45.860  52.190  1.00  0.00    -0.351 N 
BRANCH   2   3
ATOM      3  C   UNL     1       5.960  44.775  51.270  1.00  0.00     0.133 A 
ATOM      4  N   UNL     1       3.768  40.618  50.095  1.00  0.00    -0.191 NA
ATOM      5  C   UNL     1       4.475  41.531  50.181  1.00  0.00     0.120 C 
ATOM      6  C   UNL     1       5.354  42.662  50.289  1.00  0.00     0.145 A 
ATOM      7  C   UNL     1       5.075  43.690  51.193  1.00  0.00     0.087 A 
ATOM      8  N   UNL     1       6.458  42.734  49.501  1.00  0.00    -0.225 NA
ATOM      9  C   UNL     1       7.300  43.796  49.577  1.00  0.00     0.225 A 
ATOM     10  N   UNL     1       7.047  44.804  50.451  1.00  0.00    -0.219 NA
ENDBRANCH   2   3
BRANCH   2  11
ATOM     11  C   UNL     1       4.452  46.592  52.121  1.00  0.00     0.166 C 
BRANCH  11  12
ATOM     12  C   UNL     1       3.508  46.123  53.182  1.00  0.00     0.045 A 
ATOM     13  C   UNL     1       3.768  45.986  54.538  1.00  0.00     0.039 A 
ATOM     14  S   UNL     1       1.898  45.744  52.996  1.00  0.00    -0.040 S 
ATOM     15  C   UNL     1       2.638  45.575  55.275  1.00  0.00     0.126 A 
ATOM     16  N   UNL     1       1.494  45.390  54.568  1.00  0.00    -0.201 NA
ENDBRANCH  11  12
ENDBRANCH   2  11
ENDBRANCH   1   2
BRANCH   1  17
ATOM     17  C   UNL     1       7.532  47.586  52.312  1.00  0.00     0.025 C 
BRANCH  17  18
ATOM     18  C   UNL     1       8.852  47.983  52.999  1.00  0.00    -0.004 C 
ATOM     19  C   UNL     1       8.769  47.975  54.526  1.00  0.00     0.041 C 
ATOM     20  C   UNL     1       9.898  46.868  53.053  1.00  0.00     0.041 C 
ATOM     21  C   UNL     1       9.823  46.877  54.573  1.00  0.00     0.167 C 
ATOM     22  F   UNL     1      11.004  47.316  55.148  1.00  0.00    -0.247 F 
ENDBRANCH  17  18
ENDBRANCH   1  17
TORSDOF 6
ENDMDL
MODEL 4
REMARK VINA RESULT:    -7.606      1.615      2.167
REMARK INTER + INTRA:         -11.089
REMARK INTER:                 -10.200
REMARK INTRA:                  -0.889
REMARK UNBOUND:                -0.815
REMARK SMILES N#Cc1cc(N(CC[C@H]2C[C@H](F)C2)Cc2ccns2)ncn1
REMARK SMILES IDX 7 1 6 2 5 3 1 4 2 5 3 6 4 7 22 8 21 9 20 10 14 11 15 12
REMARK SMILES IDX 16 13 19 14 17 15 18 16 8 17 9 18 10 19 13 20 11 21 12 22
REMARK H PARENT
ROOT
ATOM      1  C   UNL     1       6.751  45.853  53.499  1.00  0.00     0.119 C 
ENDROOT
BRANCH   1   2
ATOM      2  N   UNL     1       5.500  46.010  52.730  1.00  0.00    -0.351 N 
BRANCH   2   3
ATOM      3  C   UNL     1       4.230  45.808  53.380  1.00  0.00     0.133 A 
ATOM      4  N   UNL     1      -0.408  45.468  52.023  1.00  0.00    -0.191 NA
ATOM      5  C   UNL     1       0.593  45.512  52.602  1.00  0.00     0.120 C 
ATOM      6  C   UNL     1       1.836  45.567  53.322  1.00  0.00     0.145 A 
ATOM      7  C   UNL     1       3.040  45.757  52.640  1.00  0.00     0.087 A 
ATOM      8  N   UNL     1       1.837  45.427  54.673  1.00  0.00    -0.225 NA
ATOM      9  C   UNL     1       2.997  45.467  55.377  1.00  0.00     0.225 A 
ATOM     10  N   UNL     1       4.178  45.653  54.732  1.00  0.00    -0.219 NA
ENDBRANCH   2   3
BRANCH   2  11
ATOM     11  C   UNL     1       5.543  46.106  51.262  1.00  0.00     0.166 C 
BRANCH  11  12
ATOM     12  C   UNL     1       6.042  44.832  50.658  1.00  0.00     0.045 A 
ATOM     13  C   UNL     1       7.213  44.644  49.940  1.00  0.00     0.039 A 
ATOM     14  S   UNL     1       5.352  43.322  50.789  1.00  0.00    -0.040 S 
ATOM     15  C   UNL     1       7.417  43.301  49.560  1.00  0.00     0.126 A 
ATOM     16  N   UNL     1       6.465  42.415  49.953  1.00  0.00    -0.201 NA
ENDBRANCH  11  12
ENDBRANCH   2  11
ENDBRANCH   1   2
BRANCH   1  17
ATOM     17  C   UNL     1       7.341  47.205  53.928  1.00  0.00     0.025 C 
BRANCH  17  18
ATOM     18  C   UNL     1       8.783  47.410  53.424  1.00  0.00    -0.004 C 
ATOM     19  C   UNL     1       9.619  46.131  53.437  1.00  0.00     0.041 C 
ATOM     20  C   UNL     1       8.918  47.480  51.902  1.00  0.00     0.041 C 
ATOM     21  C   UNL     1       9.764  46.214  51.923  1.00  0.00     0.167 C 
ATOM     22  F   UNL     1      11.072  46.458  51.540  1.00  0.00    -0.247 F 
ENDBRANCH  17  18
ENDBRANCH   1  17
TORSDOF 6
ENDMDL
MODEL 5
REMARK VINA RESULT:    -7.260      2.944      5.824
REMARK INTER + INTRA:         -10.622
REMARK INTER:                 -10.053
REMARK INTRA:                  -0.569
REMARK UNBOUND:                -0.815
REMARK SMILES N#Cc1cc(N(CC[C@H]2C[C@H](F)C2)Cc2ccns2)ncn1
REMARK SMILES IDX 7 1 6 2 5 3 1 4 2 5 3 6 4 7 22 8 21 9 20 10 14 11 15 12
REMARK SMILES IDX 16 13 19 14 17 15 18 16 8 17 9 18 10 19 13 20 11 21 12 22
REMARK H PARENT
ROOT
ATOM      1  C   UNL     1       4.373  45.547  50.759  1.00  0.00     0.119 C 
ENDROOT
BRANCH   1   2
ATOM      2  N   UNL     1       4.502  46.534  51.848  1.00  0.00    -0.351 N 
BRANCH   2   3
ATOM      3  C   UNL     1       5.735  46.626  52.589  1.00  0.00     0.133 A 
ATOM      4  N   UNL     1      10.463  46.180  51.634  1.00  0.00    -0.191 NA
ATOM      5  C   UNL     1       9.425  46.336  52.122  1.00  0.00     0.120 C 
ATOM      6  C   UNL     1       8.136  46.527  52.728  1.00  0.00     0.145 A 
ATOM      7  C   UNL     1       6.973  46.435  51.959  1.00  0.00     0.087 A 
ATOM      8  N   UNL     1       8.051  46.807  54.054  1.00  0.00    -0.225 NA
ATOM      9  C   UNL     1       6.847  47.001  54.649  1.00  0.00     0.225 A 
ATOM     10  N   UNL     1       5.705  46.913  53.920  1.00  0.00    -0.219 NA
ENDBRANCH   2   3
BRANCH   2  11
ATOM     11  C   UNL     1       3.311  47.233  52.357  1.00  0.00     0.166 C 
BRANCH  11  12
ATOM     12  C   UNL     1       2.369  46.275  53.014  1.00  0.00     0.045 A 
ATOM     13  C   UNL     1       1.165  45.803  52.514  1.00  0.00     0.039 A 
ATOM     14  S   UNL     1       2.594  45.481  54.460  1.00  0.00    -0.040 S 
ATOM     15  C   UNL     1       0.549  44.860  53.362  1.00  0.00     0.126 A 
ATOM     16  N   UNL     1       1.213  44.558  54.508  1.00  0.00    -0.201 NA
ENDBRANCH  11  12
ENDBRANCH   2  11
ENDBRANCH   1   2
BRANCH   1  17
ATOM     17  C   UNL     1       4.009  44.149  51.284  1.00  0.00     0.025 C 
BRANCH  17  18
ATOM     18  C   UNL     1       5.206  43.179  51.270  1.00  0.00    -0.004 C 
ATOM     19  C   UNL     1       4.828  41.754  50.862  1.00  0.00     0.041 C 
ATOM     20  C   UNL     1       6.099  43.293  50.034  1.00  0.00     0.041 C 
ATOM     21  C   UNL     1       5.732  41.868  49.642  1.00  0.00     0.167 C 
ATOM     22  F   UNL     1       6.819  41.013  49.720  1.00  0.00    -0.247 F 
ENDBRANCH  17  18
ENDBRANCH   1  17
TORSDOF 6
ENDMDL
