ligand_24_conformer_5_docked
     RDKit          3D

 49 52  0  0  0  0  0  0  0  0999 V2000
    8.0160   44.5280   48.9020 C   0  0  0  0  0  0  0  0  0  0  0  0
    7.3970   44.9170   50.2010 C   0  0  0  0  0  0  0  0  0  0  0  0
    6.0960   44.6290   50.4470 N   0  0  0  0  0  0  0  0  0  0  0  0
    5.4890   45.0160   51.6000 C   0  0  0  0  0  0  0  0  0  0  0  0
    4.1140   44.6700   51.8090 N   0  0  0  0  0  0  0  0  0  0  0  0
    3.8040   43.5420   52.6970 C   0  0  0  0  0  0  0  0  0  0  0  0
    2.6140   42.7320   52.1710 C   0  0  0  0  0  0  0  0  0  0  0  0
    1.2610   43.4680   52.3310 C   0  0  0  0  0  0  0  0  0  0  0  0
    1.4090   44.7560   53.0280 N   0  0  0  0  0  0  0  0  0  0  0  0
    0.8780   44.9250   54.3650 C   0  0  0  0  0  0  0  0  0  0  0  0
    1.7040   45.3620   55.4120 C   0  0  0  0  0  0  0  0  0  0  0  0
    1.1680   45.5490   56.6920 C   0  0  0  0  0  0  0  0  0  0  0  0
   -0.1480   45.3070   56.9220 N   0  0  0  0  0  0  0  0  0  0  0  0
   -0.9760   44.8870   55.9320 C   0  0  0  0  0  0  0  0  0  0  0  0
   -0.4800   44.6770   54.6430 C   0  0  0  0  0  0  0  0  0  0  0  0
    1.9940   45.9340   52.3520 C   0  0  0  0  0  0  0  0  0  0  0  0
    3.0860   45.6020   51.3140 C   0  0  0  0  0  0  0  0  0  0  0  0
    6.2070   45.7690   52.5550 C   0  0  0  0  0  0  0  0  0  0  0  0
    5.5180   46.2960   53.7920 C   0  0  0  0  0  0  0  0  0  0  0  0
    7.5750   46.0370   52.2890 C   0  0  0  0  0  0  0  0  0  0  0  0
    8.4130   46.7600   53.2120 N   0  0  0  0  0  0  0  0  0  0  0  0
    9.6130   46.3510   53.6660 C   0  0  0  0  0  0  0  0  0  0  0  0
   10.0890   47.2890   54.5540 C   0  0  0  0  0  0  0  0  0  0  0  0
    9.1070   48.2590   54.6010 C   0  0  0  0  0  0  0  0  0  0  0  0
    8.0970   47.9110   53.7850 N   0  0  0  0  0  0  0  0  0  0  0  0
    8.1170   45.6180   51.1120 N   0  0  0  0  0  0  0  0  0  0  0  0
    8.9335   43.9514   49.0911 H   0  0  0  0  0  0  0  0  0  0  0  0
    7.3078   43.9123   48.3281 H   0  0  0  0  0  0  0  0  0  0  0  0
    8.2635   45.4332   48.3281 H   0  0  0  0  0  0  0  0  0  0  0  0
    4.6839   42.8851   52.7629 H   0  0  0  0  0  0  0  0  0  0  0  0
    3.5423   43.9412   53.6880 H   0  0  0  0  0  0  0  0  0  0  0  0
    2.7759   42.5250   51.1029 H   0  0  0  0  0  0  0  0  0  0  0  0
    2.5574   41.8080   52.7652 H   0  0  0  0  0  0  0  0  0  0  0  0
    0.8373   43.6518   51.3327 H   0  0  0  0  0  0  0  0  0  0  0  0
    0.5987   42.8306   52.9352 H   0  0  0  0  0  0  0  0  0  0  0  0
    2.7707   45.5573   55.2274 H   0  0  0  0  0  0  0  0  0  0  0  0
    1.8145   45.8927   57.5129 H   0  0  0  0  0  0  0  0  0  0  0  0
   -2.0408   44.7114   56.1452 H   0  0  0  0  0  0  0  0  0  0  0  0
   -1.1490   44.3186   53.8467 H   0  0  0  0  0  0  0  0  0  0  0  0
    1.1840   46.4719   51.8378 H   0  0  0  0  0  0  0  0  0  0  0  0
    2.4805   46.5335   53.1355 H   0  0  0  0  0  0  0  0  0  0  0  0
    2.6029   45.1504   50.4350 H   0  0  0  0  0  0  0  0  0  0  0  0
    3.5980   46.5458   51.0750 H   0  0  0  0  0  0  0  0  0  0  0  0
    6.0252   45.9080   54.6876 H   0  0  0  0  0  0  0  0  0  0  0  0
    5.5592   47.3952   53.7945 H   0  0  0  0  0  0  0  0  0  0  0  0
    4.4679   45.9684   53.7945 H   0  0  0  0  0  0  0  0  0  0  0  0
   10.1269   45.4227   53.3758 H   0  0  0  0  0  0  0  0  0  0  0  0
   11.0411   47.2701   55.1045 H   0  0  0  0  0  0  0  0  0  0  0  0
    9.1454   49.1736   55.2110 H   0  0  0  0  0  0  0  0  0  0  0  0
  1  2  1  0
  2  3  2  0
  3  4  1  0
  4  5  1  0
  5  6  1  0
  6  7  1  0
  7  8  1  0
  8  9  1  0
  9 10  1  0
 10 11  2  0
 11 12  1  0
 12 13  2  0
 13 14  1  0
 14 15  2  0
  9 16  1  0
 16 17  1  0
  4 18  2  0
 18 19  1  0
 18 20  1  0
 20 21  1  0
 21 22  1  0
 22 23  2  0
 23 24  1  0
 24 25  2  0
 20 26  2  0
 26  2  1  0
 17  5  1  0
 25 21  1  0
 15 10  1  0
  1 27  1  0
  1 28  1  0
  1 29  1  0
  6 30  1  0
  6 31  1  0
  7 32  1  0
  7 33  1  0
  8 34  1  0
  8 35  1  0
 11 36  1  0
 12 37  1  0
 14 38  1  0
 15 39  1  0
 16 40  1  0
 16 41  1  0
 17 42  1  0
 17 43  1  0
 19 44  1  0
 19 45  1  0
 19 46  1  0
 22 47  1  0
 23 48  1  0
 24 49  1  0
M  END
>  <meeko>  (1) 
{"is_sidechain": [false], "free_energy": -6.808, "intermolecular_energy": -10.39, "internal_energy": 0.091}

$$$$
ligand_24_conformer_5_docked
     RDKit          3D

 49 52  0  0  0  0  0  0  0  0999 V2000
    5.6710   41.6150   49.7510 C   0  0  0  0  0  0  0  0  0  0  0  0
    5.0380   42.5890   50.6850 C   0  0  0  0  0  0  0  0  0  0  0  0
    3.7150   42.4980   50.9670 N   0  0  0  0  0  0  0  0  0  0  0  0
    3.0990   43.4010   51.7740 C   0  0  0  0  0  0  0  0  0  0  0  0
    1.7000   43.2460   52.0460 N   0  0  0  0  0  0  0  0  0  0  0  0
    0.7360   43.7450   51.0560 C   0  0  0  0  0  0  0  0  0  0  0  0
   -0.0050   44.9820   51.5780 C   0  0  0  0  0  0  0  0  0  0  0  0
   -1.1590   44.6440   52.5490 C   0  0  0  0  0  0  0  0  0  0  0  0
   -0.7060   43.8510   53.7030 N   0  0  0  0  0  0  0  0  0  0  0  0
   -0.6550   44.4480   55.0220 C   0  0  0  0  0  0  0  0  0  0  0  0
   -1.7980   44.4830   55.8360 C   0  0  0  0  0  0  0  0  0  0  0  0
   -1.7240   45.0370   57.1190 C   0  0  0  0  0  0  0  0  0  0  0  0
   -0.5490   45.5420   57.5770 N   0  0  0  0  0  0  0  0  0  0  0  0
    0.5760   45.5230   56.8180 C   0  0  0  0  0  0  0  0  0  0  0  0
    0.5430   44.9890   55.5270 C   0  0  0  0  0  0  0  0  0  0  0  0
   -0.1900   42.4760   53.5360 C   0  0  0  0  0  0  0  0  0  0  0  0
    1.3090   42.3920   53.1800 C   0  0  0  0  0  0  0  0  0  0  0  0
    3.8310   44.4850   52.3060 C   0  0  0  0  0  0  0  0  0  0  0  0
    3.1370   45.5540   53.1180 C   0  0  0  0  0  0  0  0  0  0  0  0
    5.2190   44.5460   52.0190 C   0  0  0  0  0  0  0  0  0  0  0  0
    6.0700   45.5830   52.5440 N   0  0  0  0  0  0  0  0  0  0  0  0
    6.4100   46.7170   51.9020 C   0  0  0  0  0  0  0  0  0  0  0  0
    7.2620   47.4400   52.7070 C   0  0  0  0  0  0  0  0  0  0  0  0
    7.4070   46.6700   53.8440 C   0  0  0  0  0  0  0  0  0  0  0  0
    6.6820   45.5450   53.7170 N   0  0  0  0  0  0  0  0  0  0  0  0
    5.7700   43.6060   51.2030 N   0  0  0  0  0  0  0  0  0  0  0  0
    6.1808   40.8305   50.3295 H   0  0  0  0  0  0  0  0  0  0  0  0
    4.8966   41.1584   49.1171 H   0  0  0  0  0  0  0  0  0  0  0  0
    6.4027   42.1373   49.1171 H   0  0  0  0  0  0  0  0  0  0  0  0
    1.2738   44.0114   50.1341 H   0  0  0  0  0  0  0  0  0  0  0  0
   -0.0025   42.9538   50.8594 H   0  0  0  0  0  0  0  0  0  0  0  0
    0.7166   45.6239   52.1045 H   0  0  0  0  0  0  0  0  0  0  0  0
   -0.4511   45.4840   50.7068 H   0  0  0  0  0  0  0  0  0  0  0  0
   -1.5985   45.5832   52.9162 H   0  0  0  0  0  0  0  0  0  0  0  0
   -1.8968   44.0429   51.9974 H   0  0  0  0  0  0  0  0  0  0  0  0
   -2.7504   44.0756   55.4660 H   0  0  0  0  0  0  0  0  0  0  0  0
   -2.6191   45.0636   57.7579 H   0  0  0  0  0  0  0  0  0  0  0  0
    1.5160   45.9289   57.2200 H   0  0  0  0  0  0  0  0  0  0  0  0
    1.4512   44.9913   54.9064 H   0  0  0  0  0  0  0  0  0  0  0  0
   -0.3498   41.9325   54.4789 H   0  0  0  0  0  0  0  0  0  0  0  0
   -0.7371   42.0382   52.6880 H   0  0  0  0  0  0  0  0  0  0  0  0
    1.8922   42.6974   54.0612 H   0  0  0  0  0  0  0  0  0  0  0  0
    1.5093   41.3523   52.8817 H   0  0  0  0  0  0  0  0  0  0  0  0
    3.2720   45.3460   54.1897 H   0  0  0  0  0  0  0  0  0  0  0  0
    3.5702   46.5361   52.8777 H   0  0  0  0  0  0  0  0  0  0  0  0
    2.0636   45.5580   52.8777 H   0  0  0  0  0  0  0  0  0  0  0  0
    6.0647   47.0160   50.9013 H   0  0  0  0  0  0  0  0  0  0  0  0
    7.7244   48.4146   52.4919 H   0  0  0  0  0  0  0  0  0  0  0  0
    8.0203   46.9357   54.7177 H   0  0  0  0  0  0  0  0  0  0  0  0
  1  2  1  0
  2  3  2  0
  3  4  1  0
  4  5  1  0
  5  6  1  0
  6  7  1  0
  7  8  1  0
  8  9  1  0
  9 10  1  0
 10 11  2  0
 11 12  1  0
 12 13  2  0
 13 14  1  0
 14 15  2  0
  9 16  1  0
 16 17  1  0
  4 18  2  0
 18 19  1  0
 18 20  1  0
 20 21  1  0
 21 22  1  0
 22 23  2  0
 23 24  1  0
 24 25  2  0
 20 26  2  0
 26  2  1  0
 17  5  1  0
 25 21  1  0
 15 10  1  0
  1 27  1  0
  1 28  1  0
  1 29  1  0
  6 30  1  0
  6 31  1  0
  7 32  1  0
  7 33  1  0
  8 34  1  0
  8 35  1  0
 11 36  1  0
 12 37  1  0
 14 38  1  0
 15 39  1  0
 16 40  1  0
 16 41  1  0
 17 42  1  0
 17 43  1  0
 19 44  1  0
 19 45  1  0
 19 46  1  0
 22 47  1  0
 23 48  1  0
 24 49  1  0
M  END
>  <meeko>  (2) 
{"is_sidechain": [false], "free_energy": -6.347, "intermolecular_energy": -9.16, "internal_energy": -0.436}

$$$$
ligand_24_conformer_5_docked
     RDKit          3D

 49 52  0  0  0  0  0  0  0  0999 V2000
    0.5260   45.2610   57.2040 C   0  0  0  0  0  0  0  0  0  0  0  0
    0.8400   45.0760   55.7580 C   0  0  0  0  0  0  0  0  0  0  0  0
    2.0420   45.4680   55.2680 N   0  0  0  0  0  0  0  0  0  0  0  0
    2.3380   45.3600   53.9460 C   0  0  0  0  0  0  0  0  0  0  0  0
    3.6300   45.7790   53.4900 N   0  0  0  0  0  0  0  0  0  0  0  0
    4.6900   44.7690   53.3720 C   0  0  0  0  0  0  0  0  0  0  0  0
    5.0830   44.5450   51.9070 C   0  0  0  0  0  0  0  0  0  0  0  0
    5.7460   45.7870   51.2590 C   0  0  0  0  0  0  0  0  0  0  0  0
    6.1820   46.7810   52.2520 N   0  0  0  0  0  0  0  0  0  0  0  0
    7.5670   46.8340   52.6700 C   0  0  0  0  0  0  0  0  0  0  0  0
    8.5940   46.4460   51.7940 C   0  0  0  0  0  0  0  0  0  0  0  0
    9.9290   46.5310   52.2040 C   0  0  0  0  0  0  0  0  0  0  0  0
   10.2340   46.9860   53.4470 N   0  0  0  0  0  0  0  0  0  0  0  0
    9.2670   47.3710   54.3190 C   0  0  0  0  0  0  0  0  0  0  0  0
    7.9210   47.2920   53.9540 C   0  0  0  0  0  0  0  0  0  0  0  0
    5.2110   47.6680   52.9290 C   0  0  0  0  0  0  0  0  0  0  0  0
    3.7610   47.1410   52.9450 C   0  0  0  0  0  0  0  0  0  0  0  0
    1.3680   44.8670   53.0460 C   0  0  0  0  0  0  0  0  0  0  0  0
    1.6450   44.8400   51.5600 C   0  0  0  0  0  0  0  0  0  0  0  0
    0.1270   44.4400   53.5830 C   0  0  0  0  0  0  0  0  0  0  0  0
   -0.9180   43.8820   52.7630 N   0  0  0  0  0  0  0  0  0  0  0  0
   -1.9310   44.5730   52.2070 C   0  0  0  0  0  0  0  0  0  0  0  0
   -2.7430   43.6930   51.5270 C   0  0  0  0  0  0  0  0  0  0  0  0
   -2.1590   42.4570   51.7200 C   0  0  0  0  0  0  0  0  0  0  0  0
   -1.0590   42.5960   52.4800 N   0  0  0  0  0  0  0  0  0  0  0  0
   -0.1010   44.5770   54.9190 N   0  0  0  0  0  0  0  0  0  0  0  0
    1.3152   44.7960   57.8130 H   0  0  0  0  0  0  0  0  0  0  0  0
    0.4715   46.3356   57.4328 H   0  0  0  0  0  0  0  0  0  0  0  0
   -0.4403   44.7879   57.4328 H   0  0  0  0  0  0  0  0  0  0  0  0
    5.5734   45.1091   53.9323 H   0  0  0  0  0  0  0  0  0  0  0  0
    4.3130   43.8196   53.7802 H   0  0  0  0  0  0  0  0  0  0  0  0
    5.7914   43.7049   51.8590 H   0  0  0  0  0  0  0  0  0  0  0  0
    4.1590   44.3369   51.3475 H   0  0  0  0  0  0  0  0  0  0  0  0
    6.6230   45.4573   50.6827 H   0  0  0  0  0  0  0  0  0  0  0  0
    4.9939   46.2676   50.6161 H   0  0  0  0  0  0  0  0  0  0  0  0
    8.3492   46.0760   50.7874 H   0  0  0  0  0  0  0  0  0  0  0  0
   10.7338   46.2285   51.5179 H   0  0  0  0  0  0  0  0  0  0  0  0
    9.5442   47.7460   55.3152 H   0  0  0  0  0  0  0  0  0  0  0  0
    7.1385   47.5871   54.6685 H   0  0  0  0  0  0  0  0  0  0  0  0
    5.5382   47.8032   53.9705 H   0  0  0  0  0  0  0  0  0  0  0  0
    5.1948   48.6068   52.3560 H   0  0  0  0  0  0  0  0  0  0  0  0
    3.1517   47.8205   53.5591 H   0  0  0  0  0  0  0  0  0  0  0  0
    3.4226   47.1017   51.8991 H   0  0  0  0  0  0  0  0  0  0  0  0
    2.7267   44.7346   51.3905 H   0  0  0  0  0  0  0  0  0  0  0  0
    1.1178   43.9890   51.1041 H   0  0  0  0  0  0  0  0  0  0  0  0
    1.2920   45.7768   51.1041 H   0  0  0  0  0  0  0  0  0  0  0  0
   -2.0844   45.6596   52.2833 H   0  0  0  0  0  0  0  0  0  0  0  0
   -3.6548   43.9237   50.9565 H   0  0  0  0  0  0  0  0  0  0  0  0
   -2.5354   41.5061   51.3148 H   0  0  0  0  0  0  0  0  0  0  0  0
  1  2  1  0
  2  3  2  0
  3  4  1  0
  4  5  1  0
  5  6  1  0
  6  7  1  0
  7  8  1  0
  8  9  1  0
  9 10  1  0
 10 11  2  0
 11 12  1  0
 12 13  2  0
 13 14  1  0
 14 15  2  0
  9 16  1  0
 16 17  1  0
  4 18  2  0
 18 19  1  0
 18 20  1  0
 20 21  1  0
 21 22  1  0
 22 23  2  0
 23 24  1  0
 24 25  2  0
 20 26  2  0
 26  2  1  0
 17  5  1  0
 25 21  1  0
 15 10  1  0
  1 27  1  0
  1 28  1  0
  1 29  1  0
  6 30  1  0
  6 31  1  0
  7 32  1  0
  7 33  1  0
  8 34  1  0
  8 35  1  0
 11 36  1  0
 12 37  1  0
 14 38  1  0
 15 39  1  0
 16 40  1  0
 16 41  1  0
 17 42  1  0
 17 43  1  0
 19 44  1  0
 19 45  1  0
 19 46  1  0
 22 47  1  0
 23 48  1  0
 24 49  1  0
M  END
>  <meeko>  (3) 
{"is_sidechain": [false], "free_energy": -6.307, "intermolecular_energy": -9.54, "internal_energy": 0.006}

$$$$
ligand_24_conformer_5_docked
     RDKit          3D

 49 52  0  0  0  0  0  0  0  0999 V2000
    3.8090   41.2340   50.0970 C   0  0  0  0  0  0  0  0  0  0  0  0
    3.0640   42.2770   50.8590 C   0  0  0  0  0  0  0  0  0  0  0  0
    3.7390   43.1880   51.6020 N   0  0  0  0  0  0  0  0  0  0  0  0
    3.0870   44.1170   52.3490 C   0  0  0  0  0  0  0  0  0  0  0  0
    3.8570   45.0620   53.1040 N   0  0  0  0  0  0  0  0  0  0  0  0
    4.8680   44.5520   54.0380 C   0  0  0  0  0  0  0  0  0  0  0  0
    4.9880   45.4520   55.2730 C   0  0  0  0  0  0  0  0  0  0  0  0
    5.7350   46.7680   54.9830 C   0  0  0  0  0  0  0  0  0  0  0  0
    6.1240   46.8920   53.5690 N   0  0  0  0  0  0  0  0  0  0  0  0
    7.5220   46.8550   53.1920 C   0  0  0  0  0  0  0  0  0  0  0  0
    8.5170   47.2550   54.0980 C   0  0  0  0  0  0  0  0  0  0  0  0
    9.8650   47.1850   53.7280 C   0  0  0  0  0  0  0  0  0  0  0  0
   10.2120   46.7320   52.4950 N   0  0  0  0  0  0  0  0  0  0  0  0
    9.2760   46.3340   51.5960 C   0  0  0  0  0  0  0  0  0  0  0  0
    7.9180   46.3990   51.9210 C   0  0  0  0  0  0  0  0  0  0  0  0
    5.1220   47.1690   52.5180 C   0  0  0  0  0  0  0  0  0  0  0  0
    3.7560   46.4850   52.7350 C   0  0  0  0  0  0  0  0  0  0  0  0
    1.6760   44.1230   52.3900 C   0  0  0  0  0  0  0  0  0  0  0  0
    0.9400   45.0830   53.2960 C   0  0  0  0  0  0  0  0  0  0  0  0
    0.9890   43.1780   51.5850 C   0  0  0  0  0  0  0  0  0  0  0  0
   -0.4490   43.1220   51.5180 N   0  0  0  0  0  0  0  0  0  0  0  0
   -1.2300   43.9110   50.7560 C   0  0  0  0  0  0  0  0  0  0  0  0
   -2.5470   43.5830   50.9890 C   0  0  0  0  0  0  0  0  0  0  0  0
   -2.4950   42.5720   51.9270 C   0  0  0  0  0  0  0  0  0  0  0  0
   -1.2120   42.3160   52.2390 N   0  0  0  0  0  0  0  0  0  0  0  0
    1.7080   42.2760   50.8620 N   0  0  0  0  0  0  0  0  0  0  0  0
    4.3002   40.5463   50.8011 H   0  0  0  0  0  0  0  0  0  0  0  0
    3.1073   40.6711   49.4639 H   0  0  0  0  0  0  0  0  0  0  0  0
    4.5690   41.7152   49.4639 H   0  0  0  0  0  0  0  0  0  0  0  0
    4.5816   43.5395   54.3587 H   0  0  0  0  0  0  0  0  0  0  0  0
    5.8401   44.5362   53.5235 H   0  0  0  0  0  0  0  0  0  0  0  0
    3.9765   45.6937   55.6312 H   0  0  0  0  0  0  0  0  0  0  0  0
    5.5680   44.9017   56.0285 H   0  0  0  0  0  0  0  0  0  0  0  0
    5.0791   47.6115   55.2443 H   0  0  0  0  0  0  0  0  0  0  0  0
    6.6552   46.7714   55.5857 H   0  0  0  0  0  0  0  0  0  0  0  0
    8.2378   47.6226   55.0965 H   0  0  0  0  0  0  0  0  0  0  0  0
   10.6455   47.4976   54.4373 H   0  0  0  0  0  0  0  0  0  0  0  0
    9.5869   45.9595   50.6095 H   0  0  0  0  0  0  0  0  0  0  0  0
    7.1601   46.0942   51.1844 H   0  0  0  0  0  0  0  0  0  0  0  0
    4.9586   48.2561   52.4780 H   0  0  0  0  0  0  0  0  0  0  0  0
    5.5304   46.7587   51.5827 H   0  0  0  0  0  0  0  0  0  0  0  0
    3.2261   47.0155   53.5399 H   0  0  0  0  0  0  0  0  0  0  0  0
    3.2182   46.5307   51.7765 H   0  0  0  0  0  0  0  0  0  0  0  0
    1.1397   44.8225   54.3459 H   0  0  0  0  0  0  0  0  0  0  0  0
    1.2851   46.1091   53.1008 H   0  0  0  0  0  0  0  0  0  0  0  0
   -0.1405   45.0161   53.1008 H   0  0  0  0  0  0  0  0  0  0  0  0
   -0.8752   44.6880   50.0629 H   0  0  0  0  0  0  0  0  0  0  0  0
   -3.4419   44.0280   50.5295 H   0  0  0  0  0  0  0  0  0  0  0  0
   -3.3676   42.0556   52.3534 H   0  0  0  0  0  0  0  0  0  0  0  0
  1  2  1  0
  2  3  2  0
  3  4  1  0
  4  5  1  0
  5  6  1  0
  6  7  1  0
  7  8  1  0
  8  9  1  0
  9 10  1  0
 10 11  2  0
 11 12  1  0
 12 13  2  0
 13 14  1  0
 14 15  2  0
  9 16  1  0
 16 17  1  0
  4 18  2  0
 18 19  1  0
 18 20  1  0
 20 21  1  0
 21 22  1  0
 22 23  2  0
 23 24  1  0
 24 25  2  0
 20 26  2  0
 26  2  1  0
 17  5  1  0
 25 21  1  0
 15 10  1  0
  1 27  1  0
  1 28  1  0
  1 29  1  0
  6 30  1  0
  6 31  1  0
  7 32  1  0
  7 33  1  0
  8 34  1  0
  8 35  1  0
 11 36  1  0
 12 37  1  0
 14 38  1  0
 15 39  1  0
 16 40  1  0
 16 41  1  0
 17 42  1  0
 17 43  1  0
 19 44  1  0
 19 45  1  0
 19 46  1  0
 22 47  1  0
 23 48  1  0
 24 49  1  0
M  END
>  <meeko>  (4) 
{"is_sidechain": [false], "free_energy": -6.302, "intermolecular_energy": -9.532, "internal_energy": 0.006}

$$$$
ligand_24_conformer_5_docked
     RDKit          3D

 49 52  0  0  0  0  0  0  0  0999 V2000
   -0.0080   45.8540   57.2050 C   0  0  0  0  0  0  0  0  0  0  0  0
    0.5790   45.3780   55.9200 C   0  0  0  0  0  0  0  0  0  0  0  0
    1.8620   45.6820   55.6060 N   0  0  0  0  0  0  0  0  0  0  0  0
    2.4090   45.3070   54.4200 C   0  0  0  0  0  0  0  0  0  0  0  0
    3.7760   45.6460   54.1500 N   0  0  0  0  0  0  0  0  0  0  0  0
    4.8130   44.6460   54.4350 C   0  0  0  0  0  0  0  0  0  0  0  0
    6.1530   45.3130   54.7620 C   0  0  0  0  0  0  0  0  0  0  0  0
    6.8860   45.8950   53.5240 C   0  0  0  0  0  0  0  0  0  0  0  0
    6.0770   45.8110   52.2970 N   0  0  0  0  0  0  0  0  0  0  0  0
    6.5090   44.9750   51.1960 C   0  0  0  0  0  0  0  0  0  0  0  0
    5.7690   43.8400   50.8270 C   0  0  0  0  0  0  0  0  0  0  0  0
    6.1840   43.0610   49.7410 C   0  0  0  0  0  0  0  0  0  0  0  0
    7.3010   43.3980   49.0460 N   0  0  0  0  0  0  0  0  0  0  0  0
    8.0380   44.4900   49.3730 C   0  0  0  0  0  0  0  0  0  0  0  0
    7.6650   45.2890   50.4570 C   0  0  0  0  0  0  0  0  0  0  0  0
    4.8760   46.6520   52.1100 C   0  0  0  0  0  0  0  0  0  0  0  0
    4.0430   46.8780   53.3890 C   0  0  0  0  0  0  0  0  0  0  0  0
    1.6240   44.6200   53.4680 C   0  0  0  0  0  0  0  0  0  0  0  0
    2.1870   44.2890   52.1050 C   0  0  0  0  0  0  0  0  0  0  0  0
    0.2920   44.2900   53.8280 C   0  0  0  0  0  0  0  0  0  0  0  0
   -0.5840   43.5540   52.9520 N   0  0  0  0  0  0  0  0  0  0  0  0
   -1.5700   44.0850   52.2040 C   0  0  0  0  0  0  0  0  0  0  0  0
   -2.2070   43.0660   51.5300 C   0  0  0  0  0  0  0  0  0  0  0  0
   -1.5500   41.9190   51.9270 C   0  0  0  0  0  0  0  0  0  0  0  0
   -0.5750   42.2400   52.7970 N   0  0  0  0  0  0  0  0  0  0  0  0
   -0.1900   44.6980   55.0340 N   0  0  0  0  0  0  0  0  0  0  0  0
    0.5420   45.4080   58.0468 H   0  0  0  0  0  0  0  0  0  0  0  0
    0.0661   46.9502   57.2582 H   0  0  0  0  0  0  0  0  0  0  0  0
   -1.0652   45.5550   57.2582 H   0  0  0  0  0  0  0  0  0  0  0  0
    4.4968   44.0364   55.2943 H   0  0  0  0  0  0  0  0  0  0  0  0
    4.9459   44.0185   53.5414 H   0  0  0  0  0  0  0  0  0  0  0  0
    5.9675   46.1329   55.4715 H   0  0  0  0  0  0  0  0  0  0  0  0
    6.8045   44.5313   55.1798 H   0  0  0  0  0  0  0  0  0  0  0  0
    7.1223   46.9515   53.7187 H   0  0  0  0  0  0  0  0  0  0  0  0
    7.7966   45.2988   53.3647 H   0  0  0  0  0  0  0  0  0  0  0  0
    4.8653   43.5639   51.3902 H   0  0  0  0  0  0  0  0  0  0  0  0
    5.6037   42.1731   49.4495 H   0  0  0  0  0  0  0  0  0  0  0  0
    8.9306   44.7464   48.7835 H   0  0  0  0  0  0  0  0  0  0  0  0
    8.2742   46.1625   50.7325 H   0  0  0  0  0  0  0  0  0  0  0  0
    5.2000   47.6336   51.7340 H   0  0  0  0  0  0  0  0  0  0  0  0
    4.2251   46.1128   51.4060 H   0  0  0  0  0  0  0  0  0  0  0  0
    4.5896   47.5761   54.0400 H   0  0  0  0  0  0  0  0  0  0  0  0
    3.0680   47.2752   53.0702 H   0  0  0  0  0  0  0  0  0  0  0  0
    3.1298   43.7347   52.2225 H   0  0  0  0  0  0  0  0  0  0  0  0
    1.4653   43.6715   51.5503 H   0  0  0  0  0  0  0  0  0  0  0  0
    2.3757   45.2200   51.5503 H   0  0  0  0  0  0  0  0  0  0  0  0
   -1.8242   45.1534   52.1416 H   0  0  0  0  0  0  0  0  0  0  0  0
   -3.0519   43.1484   50.8305 H   0  0  0  0  0  0  0  0  0  0  0  0
   -1.7867   40.9006   51.5853 H   0  0  0  0  0  0  0  0  0  0  0  0
  1  2  1  0
  2  3  2  0
  3  4  1  0
  4  5  1  0
  5  6  1  0
  6  7  1  0
  7  8  1  0
  8  9  1  0
  9 10  1  0
 10 11  2  0
 11 12  1  0
 12 13  2  0
 13 14  1  0
 14 15  2  0
  9 16  1  0
 16 17  1  0
  4 18  2  0
 18 19  1  0
 18 20  1  0
 20 21  1  0
 21 22  1  0
 22 23  2  0
 23 24  1  0
 24 25  2  0
 20 26  2  0
 26  2  1  0
 17  5  1  0
 25 21  1  0
 15 10  1  0
  1 27  1  0
  1 28  1  0
  1 29  1  0
  6 30  1  0
  6 31  1  0
  7 32  1  0
  7 33  1  0
  8 34  1  0
  8 35  1  0
 11 36  1  0
 12 37  1  0
 14 38  1  0
 15 39  1  0
 16 40  1  0
 16 41  1  0
 17 42  1  0
 17 43  1  0
 19 44  1  0
 19 45  1  0
 19 46  1  0
 22 47  1  0
 23 48  1  0
 24 49  1  0
M  END
>  <meeko>  (5) 
{"is_sidechain": [false], "free_energy": -6.151, "intermolecular_energy": -8.961, "internal_energy": -0.334}

$$$$
