ligand_15_conformer_5_docked
     RDKit          3D

 46 48  0  0  0  0  0  0  0  0999 V2000
   10.9030   47.5660   56.1250 C   0  0  0  0  0  0  0  0  0  0  0  0
    9.6510   47.8510   55.5080 O   0  0  0  0  0  0  0  0  0  0  0  0
    9.2690   47.3870   54.2410 C   0  0  0  0  0  0  0  0  0  0  0  0
   10.2660   46.9220   53.3760 C   0  0  0  0  0  0  0  0  0  0  0  0
    9.9370   46.4410   52.1060 C   0  0  0  0  0  0  0  0  0  0  0  0
    8.6050   46.4250   51.6880 C   0  0  0  0  0  0  0  0  0  0  0  0
    7.5900   46.8930   52.5370 C   0  0  0  0  0  0  0  0  0  0  0  0
    6.1450   46.8110   52.1130 C   0  0  0  0  0  0  0  0  0  0  0  0
    5.4180   45.6400   52.7870 C   0  0  0  0  0  0  0  0  0  0  0  0
    4.8420   44.6930   51.7730 C   0  0  0  0  0  0  0  0  0  0  0  0
    3.8770   45.0720   51.0560 O   0  0  0  0  0  0  0  0  0  0  0  0
    5.4600   43.4140   51.5580 N   0  0  0  0  0  0  0  0  0  0  0  0
    5.0550   42.4920   50.5320 C   0  0  0  0  0  0  0  0  0  0  0  0
    5.8440   42.3580   49.3810 C   0  0  0  0  0  0  0  0  0  0  0  0
    5.4800   41.4590   48.3740 C   0  0  0  0  0  0  0  0  0  0  0  0
    4.3190   40.6780   48.5060 C   0  0  0  0  0  0  0  0  0  0  0  0
    3.9390   39.7280   47.4970 N   0  0  0  0  0  0  0  0  0  0  0  0
    3.2360   40.0670   46.2940 C   0  0  0  0  0  0  0  0  0  0  0  0
    3.5480   39.4330   45.1310 N   0  0  0  0  0  0  0  0  0  0  0  0
    2.8820   39.7080   43.9800 C   0  0  0  0  0  0  0  0  0  0  0  0
    1.8520   40.6470   43.9800 C   0  0  0  0  0  0  0  0  0  0  0  0
    1.5330   41.2800   45.1790 C   0  0  0  0  0  0  0  0  0  0  0  0
    2.2220   40.9780   46.3100 N   0  0  0  0  0  0  0  0  0  0  0  0
    3.5580   40.7800   49.6790 C   0  0  0  0  0  0  0  0  0  0  0  0
    3.9190   41.6800   50.6840 C   0  0  0  0  0  0  0  0  0  0  0  0
    7.9260   47.3680   53.8160 C   0  0  0  0  0  0  0  0  0  0  0  0
   10.7873   47.5923   57.2186 H   0  0  0  0  0  0  0  0  0  0  0  0
   11.2449   46.5671   55.8164 H   0  0  0  0  0  0  0  0  0  0  0  0
   11.6436   48.3185   55.8164 H   0  0  0  0  0  0  0  0  0  0  0  0
   11.3176   46.9353   53.6986 H   0  0  0  0  0  0  0  0  0  0  0  0
   10.7280   46.0747   51.4351 H   0  0  0  0  0  0  0  0  0  0  0  0
    8.3497   46.0437   50.6883 H   0  0  0  0  0  0  0  0  0  0  0  0
    5.6398   47.7488   52.3874 H   0  0  0  0  0  0  0  0  0  0  0  0
    6.1169   46.6498   51.0252 H   0  0  0  0  0  0  0  0  0  0  0  0
    6.1315   45.0938   53.4214 H   0  0  0  0  0  0  0  0  0  0  0  0
    4.5915   46.0468   53.3881 H   0  0  0  0  0  0  0  0  0  0  0  0
    6.3520   43.2130   52.0650 H   0  0  0  0  0  0  0  0  0  0  0  0
    6.7552   42.9640   49.2694 H   0  0  0  0  0  0  0  0  0  0  0  0
    6.1053   41.3625   47.4741 H   0  0  0  0  0  0  0  0  0  0  0  0
    4.1140   38.7140   47.6830 H   0  0  0  0  0  0  0  0  0  0  0  0
    3.1551   39.1903   43.0487 H   0  0  0  0  0  0  0  0  0  0  0  0
    1.3043   40.8825   43.0555 H   0  0  0  0  0  0  0  0  0  0  0  0
    0.7235   42.0241   45.2100 H   0  0  0  0  0  0  0  0  0  0  0  0
    2.6688   40.1456   49.8089 H   0  0  0  0  0  0  0  0  0  0  0  0
    3.3114   41.7533   51.5980 H   0  0  0  0  0  0  0  0  0  0  0  0
    7.1347   47.7276   54.4902 H   0  0  0  0  0  0  0  0  0  0  0  0
  1  2  1  0
  2  3  1  0
  3  4  2  0
  4  5  1  0
  5  6  2  0
  6  7  1  0
  7  8  1  0
  8  9  1  0
  9 10  1  0
 10 11  2  0
 10 12  1  0
 12 13  1  0
 13 14  2  0
 14 15  1  0
 15 16  2  0
 16 17  1  0
 17 18  1  0
 18 19  2  0
 19 20  1  0
 20 21  2  0
 21 22  1  0
 22 23  2  0
 16 24  1  0
 24 25  2  0
  7 26  2  0
 26  3  1  0
 25 13  1  0
 23 18  1  0
  1 27  1  0
  1 28  1  0
  1 29  1  0
  4 30  1  0
  5 31  1  0
  6 32  1  0
  8 33  1  0
  8 34  1  0
  9 35  1  0
  9 36  1  0
 12 37  1  0
 14 38  1  0
 15 39  1  0
 17 40  1  0
 20 41  1  0
 21 42  1  0
 22 43  1  0
 24 44  1  0
 25 45  1  0
 26 46  1  0
M  END
>  <meeko>  (1) 
{"is_sidechain": [false], "free_energy": -8.573, "intermolecular_energy": -12.082, "internal_energy": -0.672}

$$$$
ligand_15_conformer_5_docked
     RDKit          3D

 46 48  0  0  0  0  0  0  0  0999 V2000
    8.8630   44.3750   49.3120 C   0  0  0  0  0  0  0  0  0  0  0  0
    9.6940   44.8130   50.3820 O   0  0  0  0  0  0  0  0  0  0  0  0
    9.2970   45.7280   51.3680 C   0  0  0  0  0  0  0  0  0  0  0  0
   10.2690   46.2240   52.2440 C   0  0  0  0  0  0  0  0  0  0  0  0
    9.9280   47.1440   53.2380 C   0  0  0  0  0  0  0  0  0  0  0  0
    8.6060   47.5740   53.3680 C   0  0  0  0  0  0  0  0  0  0  0  0
    7.6130   47.0850   52.5040 C   0  0  0  0  0  0  0  0  0  0  0  0
    6.2000   47.6020   52.5990 C   0  0  0  0  0  0  0  0  0  0  0  0
    5.2470   46.5550   53.1920 C   0  0  0  0  0  0  0  0  0  0  0  0
    4.8160   45.5550   52.1580 C   0  0  0  0  0  0  0  0  0  0  0  0
    4.2780   45.9630   51.0930 O   0  0  0  0  0  0  0  0  0  0  0  0
    5.1130   44.1610   52.3430 N   0  0  0  0  0  0  0  0  0  0  0  0
    4.8470   43.1480   51.3590 C   0  0  0  0  0  0  0  0  0  0  0  0
    5.8380   42.8290   50.4190 C   0  0  0  0  0  0  0  0  0  0  0  0
    5.6100   41.8380   49.4600 C   0  0  0  0  0  0  0  0  0  0  0  0
    4.3840   41.1500   49.4270 C   0  0  0  0  0  0  0  0  0  0  0  0
    4.1360   40.1100   48.4670 N   0  0  0  0  0  0  0  0  0  0  0  0
    3.6870   40.3420   47.1240 C   0  0  0  0  0  0  0  0  0  0  0  0
    4.4790   41.0340   46.2610 N   0  0  0  0  0  0  0  0  0  0  0  0
    4.0990   41.2450   44.9750 C   0  0  0  0  0  0  0  0  0  0  0  0
    2.8820   40.7400   44.5180 C   0  0  0  0  0  0  0  0  0  0  0  0
    2.0870   40.0210   45.4070 C   0  0  0  0  0  0  0  0  0  0  0  0
    2.5020   39.8310   46.6860 N   0  0  0  0  0  0  0  0  0  0  0  0
    3.4140   41.4390   50.3960 C   0  0  0  0  0  0  0  0  0  0  0  0
    3.6400   42.4310   51.3540 C   0  0  0  0  0  0  0  0  0  0  0  0
    7.9640   46.1660   51.5010 C   0  0  0  0  0  0  0  0  0  0  0  0
    7.9595   43.8988   49.7207 H   0  0  0  0  0  0  0  0  0  0  0  0
    8.5749   45.2384   48.6943 H   0  0  0  0  0  0  0  0  0  0  0  0
    9.4125   43.6494   48.6943 H   0  0  0  0  0  0  0  0  0  0  0  0
   11.3115   45.8861   52.1489 H   0  0  0  0  0  0  0  0  0  0  0  0
   10.7012   47.5299   53.9186 H   0  0  0  0  0  0  0  0  0  0  0  0
    8.3411   48.2995   54.1512 H   0  0  0  0  0  0  0  0  0  0  0  0
    6.1905   48.4956   53.2404 H   0  0  0  0  0  0  0  0  0  0  0  0
    5.8548   47.8406   51.5822 H   0  0  0  0  0  0  0  0  0  0  0  0
    5.7604   46.0262   54.0086 H   0  0  0  0  0  0  0  0  0  0  0  0
    4.3516   47.0746   53.5640 H   0  0  0  0  0  0  0  0  0  0  0  0
    5.7010   43.8950   53.1660 H   0  0  0  0  0  0  0  0  0  0  0  0
    6.8002   43.3618   50.4366 H   0  0  0  0  0  0  0  0  0  0  0  0
    6.3937   41.5950   48.7273 H   0  0  0  0  0  0  0  0  0  0  0  0
    4.2120   39.1170   48.7850 H   0  0  0  0  0  0  0  0  0  0  0  0
    4.7500   41.8134   44.2944 H   0  0  0  0  0  0  0  0  0  0  0  0
    2.5578   40.9057   43.4800 H   0  0  0  0  0  0  0  0  0  0  0  0
    1.1238   39.6074   45.0735 H   0  0  0  0  0  0  0  0  0  0  0  0
    2.4665   40.8802   50.4027 H   0  0  0  0  0  0  0  0  0  0  0  0
    2.8691   42.6509   52.1072 H   0  0  0  0  0  0  0  0  0  0  0  0
    7.1931   45.7856   50.8147 H   0  0  0  0  0  0  0  0  0  0  0  0
  1  2  1  0
  2  3  1  0
  3  4  2  0
  4  5  1  0
  5  6  2  0
  6  7  1  0
  7  8  1  0
  8  9  1  0
  9 10  1  0
 10 11  2  0
 10 12  1  0
 12 13  1  0
 13 14  2  0
 14 15  1  0
 15 16  2  0
 16 17  1  0
 17 18  1  0
 18 19  2  0
 19 20  1  0
 20 21  2  0
 21 22  1  0
 22 23  2  0
 16 24  1  0
 24 25  2  0
  7 26  2  0
 26  3  1  0
 25 13  1  0
 23 18  1  0
  1 27  1  0
  1 28  1  0
  1 29  1  0
  4 30  1  0
  5 31  1  0
  6 32  1  0
  8 33  1  0
  8 34  1  0
  9 35  1  0
  9 36  1  0
 12 37  1  0
 14 38  1  0
 15 39  1  0
 17 40  1  0
 20 41  1  0
 21 42  1  0
 22 43  1  0
 24 44  1  0
 25 45  1  0
 26 46  1  0
M  END
>  <meeko>  (2) 
{"is_sidechain": [false], "free_energy": -8.133, "intermolecular_energy": -11.46, "internal_energy": -0.673}

$$$$
ligand_15_conformer_5_docked
     RDKit          3D

 46 48  0  0  0  0  0  0  0  0999 V2000
    5.7770   46.8220   54.9560 C   0  0  0  0  0  0  0  0  0  0  0  0
    7.1550   47.1710   54.8700 O   0  0  0  0  0  0  0  0  0  0  0  0
    7.9740   46.8930   53.7660 C   0  0  0  0  0  0  0  0  0  0  0  0
    9.3620   46.9670   53.9320 C   0  0  0  0  0  0  0  0  0  0  0  0
   10.2210   46.6910   52.8670 C   0  0  0  0  0  0  0  0  0  0  0  0
    9.7000   46.3400   51.6200 C   0  0  0  0  0  0  0  0  0  0  0  0
    8.3110   46.2670   51.4290 C   0  0  0  0  0  0  0  0  0  0  0  0
    7.7480   45.8210   50.1020 C   0  0  0  0  0  0  0  0  0  0  0  0
    7.5850   44.2970   50.0340 C   0  0  0  0  0  0  0  0  0  0  0  0
    6.1880   43.8760   50.3860 C   0  0  0  0  0  0  0  0  0  0  0  0
    5.8780   42.6560   50.3200 O   0  0  0  0  0  0  0  0  0  0  0  0
    5.2550   44.8450   50.8920 N   0  0  0  0  0  0  0  0  0  0  0  0
    3.9380   44.5180   51.3650 C   0  0  0  0  0  0  0  0  0  0  0  0
    3.7670   43.4020   52.1970 C   0  0  0  0  0  0  0  0  0  0  0  0
    2.4990   43.0690   52.6820 C   0  0  0  0  0  0  0  0  0  0  0  0
    1.3810   43.8510   52.3420 C   0  0  0  0  0  0  0  0  0  0  0  0
    0.0720   43.5440   52.8500 N   0  0  0  0  0  0  0  0  0  0  0  0
   -0.4090   43.9520   54.1390 C   0  0  0  0  0  0  0  0  0  0  0  0
   -1.5300   43.3750   54.6510 N   0  0  0  0  0  0  0  0  0  0  0  0
   -1.9950   43.7150   55.8810 C   0  0  0  0  0  0  0  0  0  0  0  0
   -1.3140   44.6620   56.6440 C   0  0  0  0  0  0  0  0  0  0  0  0
   -0.1610   45.2360   56.1140 C   0  0  0  0  0  0  0  0  0  0  0  0
    0.2730   44.8690   54.8800 N   0  0  0  0  0  0  0  0  0  0  0  0
    1.5630   44.9930   51.5500 C   0  0  0  0  0  0  0  0  0  0  0  0
    2.8290   45.3250   51.0620 C   0  0  0  0  0  0  0  0  0  0  0  0
    7.4510   46.5380   52.5060 C   0  0  0  0  0  0  0  0  0  0  0  0
    5.4829   46.7475   56.0133 H   0  0  0  0  0  0  0  0  0  0  0  0
    5.1713   47.5951   54.4605 H   0  0  0  0  0  0  0  0  0  0  0  0
    5.6124   45.8538   54.4605 H   0  0  0  0  0  0  0  0  0  0  0  0
    9.7796   47.2452   54.9109 H   0  0  0  0  0  0  0  0  0  0  0  0
   11.3100   46.7501   53.0103 H   0  0  0  0  0  0  0  0  0  0  0  0
   10.3804   46.1199   50.7841 H   0  0  0  0  0  0  0  0  0  0  0  0
    6.7641   46.2909   49.9569 H   0  0  0  0  0  0  0  0  0  0  0  0
    8.4520   46.1245   49.3132 H   0  0  0  0  0  0  0  0  0  0  0  0
    7.8135   43.9585   49.0126 H   0  0  0  0  0  0  0  0  0  0  0  0
    8.2751   43.8437   50.7609 H   0  0  0  0  0  0  0  0  0  0  0  0
    5.6100   45.8110   51.0780 H   0  0  0  0  0  0  0  0  0  0  0  0
    4.6359   42.7850   52.4695 H   0  0  0  0  0  0  0  0  0  0  0  0
    2.3752   42.1909   53.3328 H   0  0  0  0  0  0  0  0  0  0  0  0
   -0.5440   42.9190   52.2810 H   0  0  0  0  0  0  0  0  0  0  0  0
   -2.9077   43.2437   56.2744 H   0  0  0  0  0  0  0  0  0  0  0  0
   -1.6786   44.9493   57.6413 H   0  0  0  0  0  0  0  0  0  0  0  0
    0.3976   45.9856   56.6938 H   0  0  0  0  0  0  0  0  0  0  0  0
    0.7013   45.6334   51.3106 H   0  0  0  0  0  0  0  0  0  0  0  0
    2.9580   46.2217   50.4381 H   0  0  0  0  0  0  0  0  0  0  0  0
    6.3620   46.4728   52.3653 H   0  0  0  0  0  0  0  0  0  0  0  0
  1  2  1  0
  2  3  1  0
  3  4  2  0
  4  5  1  0
  5  6  2  0
  6  7  1  0
  7  8  1  0
  8  9  1  0
  9 10  1  0
 10 11  2  0
 10 12  1  0
 12 13  1  0
 13 14  2  0
 14 15  1  0
 15 16  2  0
 16 17  1  0
 17 18  1  0
 18 19  2  0
 19 20  1  0
 20 21  2  0
 21 22  1  0
 22 23  2  0
 16 24  1  0
 24 25  2  0
  7 26  2  0
 26  3  1  0
 25 13  1  0
 23 18  1  0
  1 27  1  0
  1 28  1  0
  1 29  1  0
  4 30  1  0
  5 31  1  0
  6 32  1  0
  8 33  1  0
  8 34  1  0
  9 35  1  0
  9 36  1  0
 12 37  1  0
 14 38  1  0
 15 39  1  0
 17 40  1  0
 20 41  1  0
 21 42  1  0
 22 43  1  0
 24 44  1  0
 25 45  1  0
 26 46  1  0
M  END
>  <meeko>  (3) 
{"is_sidechain": [false], "free_energy": -8.125, "intermolecular_energy": -11.939, "internal_energy": -0.183}

$$$$
ligand_15_conformer_5_docked
     RDKit          3D

 46 48  0  0  0  0  0  0  0  0999 V2000
    5.8400   47.0000   54.9570 C   0  0  0  0  0  0  0  0  0  0  0  0
    7.2450   47.2090   54.8560 O   0  0  0  0  0  0  0  0  0  0  0  0
    8.0140   46.8850   53.7290 C   0  0  0  0  0  0  0  0  0  0  0  0
    9.4080   46.9560   53.8330 C   0  0  0  0  0  0  0  0  0  0  0  0
   10.2200   46.6360   52.7430 C   0  0  0  0  0  0  0  0  0  0  0  0
    9.6430   46.2430   51.5340 C   0  0  0  0  0  0  0  0  0  0  0  0
    8.2470   46.1710   51.4050 C   0  0  0  0  0  0  0  0  0  0  0  0
    7.6250   45.6800   50.1220 C   0  0  0  0  0  0  0  0  0  0  0  0
    6.9070   44.3370   50.3120 C   0  0  0  0  0  0  0  0  0  0  0  0
    5.5470   44.5220   50.9210 C   0  0  0  0  0  0  0  0  0  0  0  0
    4.7690   45.3880   50.4380 O   0  0  0  0  0  0  0  0  0  0  0  0
    5.1090   43.6450   51.9720 N   0  0  0  0  0  0  0  0  0  0  0  0
    3.7860   43.6680   52.5340 C   0  0  0  0  0  0  0  0  0  0  0  0
    3.4710   44.6270   53.5070 C   0  0  0  0  0  0  0  0  0  0  0  0
    2.1880   44.6790   54.0600 C   0  0  0  0  0  0  0  0  0  0  0  0
    1.1990   43.7700   53.6450 C   0  0  0  0  0  0  0  0  0  0  0  0
   -0.1340   43.8220   54.1790 N   0  0  0  0  0  0  0  0  0  0  0  0
   -1.2990   44.1500   53.4090 C   0  0  0  0  0  0  0  0  0  0  0  0
   -1.2410   45.1600   52.5000 N   0  0  0  0  0  0  0  0  0  0  0  0
   -2.3160   45.4770   51.7320 C   0  0  0  0  0  0  0  0  0  0  0  0
   -3.5010   44.7550   51.8640 C   0  0  0  0  0  0  0  0  0  0  0  0
   -3.5440   43.7140   52.7890 C   0  0  0  0  0  0  0  0  0  0  0  0
   -2.4480   43.4280   53.5380 N   0  0  0  0  0  0  0  0  0  0  0  0
    1.5030   42.8440   52.6380 C   0  0  0  0  0  0  0  0  0  0  0  0
    2.7850   42.7890   52.0870 C   0  0  0  0  0  0  0  0  0  0  0  0
    7.4350   46.4860   52.5080 C   0  0  0  0  0  0  0  0  0  0  0  0
    5.5510   46.9570   56.0175 H   0  0  0  0  0  0  0  0  0  0  0  0
    5.3097   47.8291   54.4658 H   0  0  0  0  0  0  0  0  0  0  0  0
    5.5740   46.0524   54.4658 H   0  0  0  0  0  0  0  0  0  0  0  0
    9.8683   47.2669   54.7825 H   0  0  0  0  0  0  0  0  0  0  0  0
   11.3145   46.6936   52.8369 H   0  0  0  0  0  0  0  0  0  0  0  0
   10.2855   45.9885   50.6782 H   0  0  0  0  0  0  0  0  0  0  0  0
    6.8968   46.4262   49.7714 H   0  0  0  0  0  0  0  0  0  0  0  0
    8.4298   45.5354   49.3862 H   0  0  0  0  0  0  0  0  0  0  0  0
    6.7967   43.8488   49.3325 H   0  0  0  0  0  0  0  0  0  0  0  0
    7.5088   43.7169   50.9927 H   0  0  0  0  0  0  0  0  0  0  0  0
    5.7290   42.8430   52.2270 H   0  0  0  0  0  0  0  0  0  0  0  0
    4.2380   45.3429   53.8373 H   0  0  0  0  0  0  0  0  0  0  0  0
    1.9512   45.4347   54.8234 H   0  0  0  0  0  0  0  0  0  0  0  0
   -0.2580   43.6890   55.2090 H   0  0  0  0  0  0  0  0  0  0  0  0
   -2.2513   46.3020   51.0073 H   0  0  0  0  0  0  0  0  0  0  0  0
   -4.3814   45.0013   51.2523 H   0  0  0  0  0  0  0  0  0  0  0  0
   -4.4645   43.1246   52.9124 H   0  0  0  0  0  0  0  0  0  0  0  0
    0.7250   42.1545   52.2785 H   0  0  0  0  0  0  0  0  0  0  0  0
    3.0121   42.0548   51.3000 H   0  0  0  0  0  0  0  0  0  0  0  0
    6.3407   46.4206   52.4175 H   0  0  0  0  0  0  0  0  0  0  0  0
  1  2  1  0
  2  3  1  0
  3  4  2  0
  4  5  1  0
  5  6  2  0
  6  7  1  0
  7  8  1  0
  8  9  1  0
  9 10  1  0
 10 11  2  0
 10 12  1  0
 12 13  1  0
 13 14  2  0
 14 15  1  0
 15 16  2  0
 16 17  1  0
 17 18  1  0
 18 19  2  0
 19 20  1  0
 20 21  2  0
 21 22  1  0
 22 23  2  0
 16 24  1  0
 24 25  2  0
  7 26  2  0
 26  3  1  0
 25 13  1  0
 23 18  1  0
  1 27  1  0
  1 28  1  0
  1 29  1  0
  4 30  1  0
  5 31  1  0
  6 32  1  0
  8 33  1  0
  8 34  1  0
  9 35  1  0
  9 36  1  0
 12 37  1  0
 14 38  1  0
 15 39  1  0
 17 40  1  0
 20 41  1  0
 21 42  1  0
 22 43  1  0
 24 44  1  0
 25 45  1  0
 26 46  1  0
M  END
>  <meeko>  (4) 
{"is_sidechain": [false], "free_energy": -8.014, "intermolecular_energy": -11.423, "internal_energy": -0.543}

$$$$
ligand_15_conformer_5_docked
     RDKit          3D

 46 48  0  0  0  0  0  0  0  0999 V2000
   11.0540   47.5170   56.2580 C   0  0  0  0  0  0  0  0  0  0  0  0
    9.8100   47.9030   55.6820 O   0  0  0  0  0  0  0  0  0  0  0  0
    9.3400   47.4530   54.4390 C   0  0  0  0  0  0  0  0  0  0  0  0
   10.2770   47.0430   53.4830 C   0  0  0  0  0  0  0  0  0  0  0  0
    9.8610   46.5790   52.2340 C   0  0  0  0  0  0  0  0  0  0  0  0
    8.5010   46.5240   51.9260 C   0  0  0  0  0  0  0  0  0  0  0  0
    7.5440   46.9360   52.8670 C   0  0  0  0  0  0  0  0  0  0  0  0
    6.0720   46.8110   52.5610 C   0  0  0  0  0  0  0  0  0  0  0  0
    5.7770   45.6060   51.6590 C   0  0  0  0  0  0  0  0  0  0  0  0
    4.3960   45.0650   51.8970 C   0  0  0  0  0  0  0  0  0  0  0  0
    4.1010   43.9190   51.4630 O   0  0  0  0  0  0  0  0  0  0  0  0
    3.4660   45.8090   52.7010 N   0  0  0  0  0  0  0  0  0  0  0  0
    2.1690   45.3220   53.0810 C   0  0  0  0  0  0  0  0  0  0  0  0
    2.0000   44.7330   54.3430 C   0  0  0  0  0  0  0  0  0  0  0  0
    0.7460   44.2630   54.7430 C   0  0  0  0  0  0  0  0  0  0  0  0
   -0.3610   44.3760   53.8840 C   0  0  0  0  0  0  0  0  0  0  0  0
   -1.6660   43.9240   54.2830 N   0  0  0  0  0  0  0  0  0  0  0  0
   -2.2110   44.0980   55.5980 C   0  0  0  0  0  0  0  0  0  0  0  0
   -2.4740   45.3520   56.0570 N   0  0  0  0  0  0  0  0  0  0  0  0
   -3.0190   45.5510   57.2840 C   0  0  0  0  0  0  0  0  0  0  0  0
   -3.3280   44.4580   58.0930 C   0  0  0  0  0  0  0  0  0  0  0  0
   -3.0670   43.1790   57.6080 C   0  0  0  0  0  0  0  0  0  0  0  0
   -2.5220   43.0210   56.3740 N   0  0  0  0  0  0  0  0  0  0  0  0
   -0.2000   45.0070   52.6430 C   0  0  0  0  0  0  0  0  0  0  0  0
    1.0530   45.4750   52.2410 C   0  0  0  0  0  0  0  0  0  0  0  0
    7.9680   47.3950   54.1260 C   0  0  0  0  0  0  0  0  0  0  0  0
   10.9737   47.5419   57.3548 H   0  0  0  0  0  0  0  0  0  0  0  0
   11.3084   46.4977   55.9321 H   0  0  0  0  0  0  0  0  0  0  0  0
   11.8407   48.2133   55.9321 H   0  0  0  0  0  0  0  0  0  0  0  0
   11.3507   47.0869   53.7183 H   0  0  0  0  0  0  0  0  0  0  0  0
   10.6059   46.2564   51.4917 H   0  0  0  0  0  0  0  0  0  0  0  0
    8.1773   46.1561   50.9412 H   0  0  0  0  0  0  0  0  0  0  0  0
    5.5210   46.6918   53.5056 H   0  0  0  0  0  0  0  0  0  0  0  0
    5.7552   47.7207   52.0300 H   0  0  0  0  0  0  0  0  0  0  0  0
    5.8626   45.9172   50.6074 H   0  0  0  0  0  0  0  0  0  0  0  0
    6.5031   44.8136   51.8933 H   0  0  0  0  0  0  0  0  0  0  0  0
    3.8140   46.6770   53.1690 H   0  0  0  0  0  0  0  0  0  0  0  0
    2.8602   44.6405   55.0223 H   0  0  0  0  0  0  0  0  0  0  0  0
    0.6247   43.8025   55.7346 H   0  0  0  0  0  0  0  0  0  0  0  0
   -2.2250   43.3650   53.5990 H   0  0  0  0  0  0  0  0  0  0  0  0
   -3.2167   46.5729   57.6398 H   0  0  0  0  0  0  0  0  0  0  0  0
   -3.7676   44.6027   59.0909 H   0  0  0  0  0  0  0  0  0  0  0  0
   -3.3019   42.2980   58.2234 H   0  0  0  0  0  0  0  0  0  0  0  0
   -1.0682   45.1348   51.9797 H   0  0  0  0  0  0  0  0  0  0  0  0
    1.1667   45.9653   51.2629 H   0  0  0  0  0  0  0  0  0  0  0  0
    7.2235   47.7109   54.8716 H   0  0  0  0  0  0  0  0  0  0  0  0
  1  2  1  0
  2  3  1  0
  3  4  2  0
  4  5  1  0
  5  6  2  0
  6  7  1  0
  7  8  1  0
  8  9  1  0
  9 10  1  0
 10 11  2  0
 10 12  1  0
 12 13  1  0
 13 14  2  0
 14 15  1  0
 15 16  2  0
 16 17  1  0
 17 18  1  0
 18 19  2  0
 19 20  1  0
 20 21  2  0
 21 22  1  0
 22 23  2  0
 16 24  1  0
 24 25  2  0
  7 26  2  0
 26  3  1  0
 25 13  1  0
 23 18  1  0
  1 27  1  0
  1 28  1  0
  1 29  1  0
  4 30  1  0
  5 31  1  0
  6 32  1  0
  8 33  1  0
  8 34  1  0
  9 35  1  0
  9 36  1  0
 12 37  1  0
 14 38  1  0
 15 39  1  0
 17 40  1  0
 20 41  1  0
 21 42  1  0
 22 43  1  0
 24 44  1  0
 25 45  1  0
 26 46  1  0
M  END
>  <meeko>  (5) 
{"is_sidechain": [false], "free_energy": -7.876, "intermolecular_energy": -11.079, "internal_energy": -0.692}

$$$$
