ligand_17_conformer_3_docked
     RDKit          3D

 40 42  0  0  0  0  0  0  0  0999 V2000
    2.5240   42.3360   52.6480 O   0  0  0  0  0  0  0  0  0  0  0  0
    3.3110   43.3210   52.6440 C   0  0  0  0  0  0  0  0  0  0  0  0
    3.1510   44.3640   53.6210 N   0  0  0  0  0  0  0  0  0  0  0  0
    1.9200   44.6230   54.3190 C   0  0  0  0  0  0  0  0  0  0  0  0
    0.7020   44.4920   53.6360 C   0  0  0  0  0  0  0  0  0  0  0  0
   -0.5060   44.7210   54.2970 C   0  0  0  0  0  0  0  0  0  0  0  0
   -0.5110   45.0690   55.6490 C   0  0  0  0  0  0  0  0  0  0  0  0
    0.6910   45.1850   56.3570 C   0  0  0  0  0  0  0  0  0  0  0  0
    0.6300   45.5240   57.7170 O   0  0  0  0  0  0  0  0  0  0  0  0
    0.9170   46.8140   58.2480 C   0  0  0  0  0  0  0  0  0  0  0  0
    1.6630   46.6720   59.4020 F   0  0  0  0  0  0  0  0  0  0  0  0
   -0.2610   47.4720   58.5530 F   0  0  0  0  0  0  0  0  0  0  0  0
    1.9090   44.9520   55.6880 C   0  0  0  0  0  0  0  0  0  0  0  0
    4.4240   43.3640   51.6650 C   0  0  0  0  0  0  0  0  0  0  0  0
    4.6910   42.2510   50.8490 C   0  0  0  0  0  0  0  0  0  0  0  0
    5.7280   42.2930   49.9140 C   0  0  0  0  0  0  0  0  0  0  0  0
    6.5120   43.4410   49.7840 C   0  0  0  0  0  0  0  0  0  0  0  0
    6.2730   44.5570   50.5960 C   0  0  0  0  0  0  0  0  0  0  0  0
    7.0760   45.7370   50.4250 N   0  0  0  0  0  0  0  0  0  0  0  0
    8.0130   46.2220   51.3970 C   0  0  0  0  0  0  0  0  0  0  0  0
    9.3140   45.8210   51.3740 N   0  0  0  0  0  0  0  0  0  0  0  0
   10.2110   46.2970   52.2760 C   0  0  0  0  0  0  0  0  0  0  0  0
    9.8050   47.2200   53.2380 C   0  0  0  0  0  0  0  0  0  0  0  0
    8.4740   47.6340   53.2410 C   0  0  0  0  0  0  0  0  0  0  0  0
    7.6070   47.1330   52.3230 N   0  0  0  0  0  0  0  0  0  0  0  0
    5.2110   44.5220   51.5180 C   0  0  0  0  0  0  0  0  0  0  0  0
    4.0040   44.8890   53.9230 H   0  0  0  0  0  0  0  0  0  0  0  0
    0.6986   44.2072   52.5735 H   0  0  0  0  0  0  0  0  0  0  0  0
   -1.4564   44.6270   53.7512 H   0  0  0  0  0  0  0  0  0  0  0  0
   -1.4666   45.2534   56.1617 H   0  0  0  0  0  0  0  0  0  0  0  0
    1.4775   47.3962   57.5018 H   0  0  0  0  0  0  0  0  0  0  0  0
    2.8580   45.0277   56.2391 H   0  0  0  0  0  0  0  0  0  0  0  0
    4.0798   41.3417   50.9473 H   0  0  0  0  0  0  0  0  0  0  0  0
    5.9277   41.4182   49.2777 H   0  0  0  0  0  0  0  0  0  0  0  0
    7.3217   43.4692   49.0399 H   0  0  0  0  0  0  0  0  0  0  0  0
    7.0360   46.2310   49.5040 H   0  0  0  0  0  0  0  0  0  0  0  0
   11.2560   45.9546   52.2473 H   0  0  0  0  0  0  0  0  0  0  0  0
   10.5182   47.6127   53.9777 H   0  0  0  0  0  0  0  0  0  0  0  0
    8.1262   48.3652   53.9855 H   0  0  0  0  0  0  0  0  0  0  0  0
    4.9932   45.4092   52.1308 H   0  0  0  0  0  0  0  0  0  0  0  0
  1  2  2  0
  2  3  1  0
  3  4  1  0
  4  5  2  0
  5  6  1  0
  6  7  2  0
  7  8  1  0
  8  9  1  0
  9 10  1  0
 10 11  1  0
 10 12  1  0
  8 13  2  0
  2 14  1  0
 14 15  2  0
 15 16  1  0
 16 17  2  0
 17 18  1  0
 18 19  1  0
 19 20  1  0
 20 21  2  0
 21 22  1  0
 22 23  2  0
 23 24  1  0
 24 25  2  0
 18 26  2  0
 13  4  1  0
 26 14  1  0
 25 20  1  0
  3 27  1  0
  5 28  1  0
  6 29  1  0
  7 30  1  0
 10 31  1  0
 13 32  1  0
 15 33  1  0
 16 34  1  0
 17 35  1  0
 19 36  1  0
 22 37  1  0
 23 38  1  0
 24 39  1  0
 26 40  1  0
M  END
>  <meeko>  (1) 
{"is_sidechain": [false], "free_energy": -8.977, "intermolecular_energy": -12.126, "internal_energy": -0.474}

$$$$
ligand_17_conformer_3_docked
     RDKit          3D

 40 42  0  0  0  0  0  0  0  0999 V2000
    3.2280   46.8030   51.6340 O   0  0  0  0  0  0  0  0  0  0  0  0
    3.2810   45.9410   52.5540 C   0  0  0  0  0  0  0  0  0  0  0  0
    4.5480   45.3680   52.9200 N   0  0  0  0  0  0  0  0  0  0  0  0
    5.6950   45.3430   52.0520 C   0  0  0  0  0  0  0  0  0  0  0  0
    5.6990   44.4850   50.9420 C   0  0  0  0  0  0  0  0  0  0  0  0
    6.7930   44.4570   50.0750 C   0  0  0  0  0  0  0  0  0  0  0  0
    7.8870   45.2950   50.2990 C   0  0  0  0  0  0  0  0  0  0  0  0
    7.8960   46.1750   51.3870 C   0  0  0  0  0  0  0  0  0  0  0  0
    9.0140   47.0050   51.5600 O   0  0  0  0  0  0  0  0  0  0  0  0
    9.7660   47.1180   52.7650 C   0  0  0  0  0  0  0  0  0  0  0  0
    9.8130   45.8850   53.3860 F   0  0  0  0  0  0  0  0  0  0  0  0
    9.1620   48.0270   53.6140 F   0  0  0  0  0  0  0  0  0  0  0  0
    6.7900   46.2020   52.2600 C   0  0  0  0  0  0  0  0  0  0  0  0
    2.0420   45.5700   53.2810 C   0  0  0  0  0  0  0  0  0  0  0  0
    0.8700   45.2650   52.5700 C   0  0  0  0  0  0  0  0  0  0  0  0
   -0.2950   44.8990   53.2490 C   0  0  0  0  0  0  0  0  0  0  0  0
   -0.3040   44.8380   54.6440 C   0  0  0  0  0  0  0  0  0  0  0  0
    0.8500   45.1510   55.3750 C   0  0  0  0  0  0  0  0  0  0  0  0
    0.8230   45.0540   56.8090 N   0  0  0  0  0  0  0  0  0  0  0  0
    0.3870   46.1090   57.6800 C   0  0  0  0  0  0  0  0  0  0  0  0
   -0.8910   46.5760   57.6250 N   0  0  0  0  0  0  0  0  0  0  0  0
   -1.3160   47.5560   58.4640 C   0  0  0  0  0  0  0  0  0  0  0  0
   -0.4410   48.0890   59.4080 C   0  0  0  0  0  0  0  0  0  0  0  0
    0.8600   47.5910   59.4640 C   0  0  0  0  0  0  0  0  0  0  0  0
    1.2480   46.6110   58.6060 N   0  0  0  0  0  0  0  0  0  0  0  0
    2.0280   45.4920   54.6860 C   0  0  0  0  0  0  0  0  0  0  0  0
    4.6770   45.0530   53.9090 H   0  0  0  0  0  0  0  0  0  0  0  0
    4.8352   43.8305   50.7537 H   0  0  0  0  0  0  0  0  0  0  0  0
    6.7930   43.7731   49.2134 H   0  0  0  0  0  0  0  0  0  0  0  0
    8.7481   45.2633   49.6153 H   0  0  0  0  0  0  0  0  0  0  0  0
   10.7834   47.4618   52.5268 H   0  0  0  0  0  0  0  0  0  0  0  0
    6.7826   46.8998   53.1103 H   0  0  0  0  0  0  0  0  0  0  0  0
    0.8692   45.3146   51.4711 H   0  0  0  0  0  0  0  0  0  0  0  0
   -1.2072   44.6583   52.6833 H   0  0  0  0  0  0  0  0  0  0  0  0
   -1.2224   44.5425   55.1724 H   0  0  0  0  0  0  0  0  0  0  0  0
    1.0590   44.1340   57.2450 H   0  0  0  0  0  0  0  0  0  0  0  0
   -2.3491   47.9281   58.3982 H   0  0  0  0  0  0  0  0  0  0  0  0
   -0.7690   48.8844   60.0934 H   0  0  0  0  0  0  0  0  0  0  0  0
    1.5715   47.9907   60.2016 H   0  0  0  0  0  0  0  0  0  0  0  0
    2.9482   45.6999   55.2516 H   0  0  0  0  0  0  0  0  0  0  0  0
  1  2  2  0
  2  3  1  0
  3  4  1  0
  4  5  2  0
  5  6  1  0
  6  7  2  0
  7  8  1  0
  8  9  1  0
  9 10  1  0
 10 11  1  0
 10 12  1  0
  8 13  2  0
  2 14  1  0
 14 15  2  0
 15 16  1  0
 16 17  2  0
 17 18  1  0
 18 19  1  0
 19 20  1  0
 20 21  2  0
 21 22  1  0
 22 23  2  0
 23 24  1  0
 24 25  2  0
 18 26  2  0
 13  4  1  0
 26 14  1  0
 25 20  1  0
  3 27  1  0
  5 28  1  0
  6 29  1  0
  7 30  1  0
 10 31  1  0
 13 32  1  0
 15 33  1  0
 16 34  1  0
 17 35  1  0
 19 36  1  0
 22 37  1  0
 23 38  1  0
 24 39  1  0
 26 40  1  0
M  END
>  <meeko>  (2) 
{"is_sidechain": [false], "free_energy": -8.801, "intermolecular_energy": -11.58, "internal_energy": -0.782}

$$$$
ligand_17_conformer_3_docked
     RDKit          3D

 40 42  0  0  0  0  0  0  0  0999 V2000
    5.0690   47.5610   54.4230 O   0  0  0  0  0  0  0  0  0  0  0  0
    4.7370   46.4130   54.0180 C   0  0  0  0  0  0  0  0  0  0  0  0
    5.7410   45.5280   53.4900 N   0  0  0  0  0  0  0  0  0  0  0  0
    7.0030   45.9730   52.9640 C   0  0  0  0  0  0  0  0  0  0  0  0
    7.1920   46.0180   51.5750 C   0  0  0  0  0  0  0  0  0  0  0  0
    8.4020   46.4640   51.0410 C   0  0  0  0  0  0  0  0  0  0  0  0
    9.4300   46.8830   51.8870 C   0  0  0  0  0  0  0  0  0  0  0  0
    9.2580   46.8680   53.2760 C   0  0  0  0  0  0  0  0  0  0  0  0
   10.3170   47.3120   54.0820 O   0  0  0  0  0  0  0  0  0  0  0  0
   10.2490   47.4860   55.4940 C   0  0  0  0  0  0  0  0  0  0  0  0
    9.5660   48.6540   55.7730 F   0  0  0  0  0  0  0  0  0  0  0  0
   11.5240   47.5740   56.0210 F   0  0  0  0  0  0  0  0  0  0  0  0
    8.0350   46.4180   53.8120 C   0  0  0  0  0  0  0  0  0  0  0  0
    3.3260   45.9740   54.1410 C   0  0  0  0  0  0  0  0  0  0  0  0
    2.5250   45.8390   52.9940 C   0  0  0  0  0  0  0  0  0  0  0  0
    1.2010   45.4090   53.1040 C   0  0  0  0  0  0  0  0  0  0  0  0
    0.6590   45.1130   54.3560 C   0  0  0  0  0  0  0  0  0  0  0  0
    1.4350   45.2530   55.5150 C   0  0  0  0  0  0  0  0  0  0  0  0
    0.8640   44.9160   56.7890 N   0  0  0  0  0  0  0  0  0  0  0  0
   -0.4150   45.3810   57.2480 C   0  0  0  0  0  0  0  0  0  0  0  0
   -0.5850   46.6700   57.6520 N   0  0  0  0  0  0  0  0  0  0  0  0
   -1.7980   47.1230   58.0620 C   0  0  0  0  0  0  0  0  0  0  0  0
   -2.8950   46.2640   58.0620 C   0  0  0  0  0  0  0  0  0  0  0  0
   -2.7110   44.9510   57.6320 C   0  0  0  0  0  0  0  0  0  0  0  0
   -1.4800   44.5360   57.2310 N   0  0  0  0  0  0  0  0  0  0  0  0
    2.7770   45.6600   55.3980 C   0  0  0  0  0  0  0  0  0  0  0  0
    5.5920   44.4980   53.5970 H   0  0  0  0  0  0  0  0  0  0  0  0
    6.3818   45.6999   50.9024 H   0  0  0  0  0  0  0  0  0  0  0  0
    8.5458   46.4853   49.9506 H   0  0  0  0  0  0  0  0  0  0  0  0
   10.3828   47.2277   51.4588 H   0  0  0  0  0  0  0  0  0  0  0  0
    9.7289   46.6256   55.9403 H   0  0  0  0  0  0  0  0  0  0  0  0
    7.8854   46.4144   54.9018 H   0  0  0  0  0  0  0  0  0  0  0  0
    2.9434   46.0734   52.0041 H   0  0  0  0  0  0  0  0  0  0  0  0
    0.5826   45.3031   52.2005 H   0  0  0  0  0  0  0  0  0  0  0  0
   -0.3826   44.7680   54.4335 H   0  0  0  0  0  0  0  0  0  0  0  0
    1.3710   44.2270   57.3900 H   0  0  0  0  0  0  0  0  0  0  0  0
   -1.9141   48.1655   58.3932 H   0  0  0  0  0  0  0  0  0  0  0  0
   -3.8836   46.6140   58.3938 H   0  0  0  0  0  0  0  0  0  0  0  0
   -3.5601   44.2519   57.6171 H   0  0  0  0  0  0  0  0  0  0  0  0
    3.4037   45.7335   56.2990 H   0  0  0  0  0  0  0  0  0  0  0  0
  1  2  2  0
  2  3  1  0
  3  4  1  0
  4  5  2  0
  5  6  1  0
  6  7  2  0
  7  8  1  0
  8  9  1  0
  9 10  1  0
 10 11  1  0
 10 12  1  0
  8 13  2  0
  2 14  1  0
 14 15  2  0
 15 16  1  0
 16 17  2  0
 17 18  1  0
 18 19  1  0
 19 20  1  0
 20 21  2  0
 21 22  1  0
 22 23  2  0
 23 24  1  0
 24 25  2  0
 18 26  2  0
 13  4  1  0
 26 14  1  0
 25 20  1  0
  3 27  1  0
  5 28  1  0
  6 29  1  0
  7 30  1  0
 10 31  1  0
 13 32  1  0
 15 33  1  0
 16 34  1  0
 17 35  1  0
 19 36  1  0
 22 37  1  0
 23 38  1  0
 24 39  1  0
 26 40  1  0
M  END
>  <meeko>  (3) 
{"is_sidechain": [false], "free_energy": -8.6, "intermolecular_energy": -11.441, "internal_energy": -0.65}

$$$$
ligand_17_conformer_3_docked
     RDKit          3D

 40 42  0  0  0  0  0  0  0  0999 V2000
    3.9480   41.6210   50.8710 O   0  0  0  0  0  0  0  0  0  0  0  0
    4.1960   42.8250   51.1560 C   0  0  0  0  0  0  0  0  0  0  0  0
    3.2760   43.5660   51.9760 N   0  0  0  0  0  0  0  0  0  0  0  0
    1.8890   43.2190   52.1360 C   0  0  0  0  0  0  0  0  0  0  0  0
    1.4470   42.7010   53.3620 C   0  0  0  0  0  0  0  0  0  0  0  0
    0.1020   42.3740   53.5470 C   0  0  0  0  0  0  0  0  0  0  0  0
   -0.8160   42.5740   52.5150 C   0  0  0  0  0  0  0  0  0  0  0  0
   -0.4030   43.1100   51.2900 C   0  0  0  0  0  0  0  0  0  0  0  0
   -1.3680   43.3030   50.2910 O   0  0  0  0  0  0  0  0  0  0  0  0
   -2.2850   44.3930   50.2450 C   0  0  0  0  0  0  0  0  0  0  0  0
   -1.8380   45.3950   51.0840 F   0  0  0  0  0  0  0  0  0  0  0  0
   -3.5340   43.9760   50.6690 F   0  0  0  0  0  0  0  0  0  0  0  0
    0.9550   43.4400   51.1070 C   0  0  0  0  0  0  0  0  0  0  0  0
    5.4600   43.4430   50.6860 C   0  0  0  0  0  0  0  0  0  0  0  0
    6.2780   42.7660   49.7660 C   0  0  0  0  0  0  0  0  0  0  0  0
    7.4610   43.3500   49.3070 C   0  0  0  0  0  0  0  0  0  0  0  0
    7.8430   44.6140   49.7630 C   0  0  0  0  0  0  0  0  0  0  0  0
    7.0490   45.3020   50.6910 C   0  0  0  0  0  0  0  0  0  0  0  0
    7.4500   46.6120   51.1240 N   0  0  0  0  0  0  0  0  0  0  0  0
    8.2550   46.8660   52.2850 C   0  0  0  0  0  0  0  0  0  0  0  0
    9.5270   46.3880   52.3710 N   0  0  0  0  0  0  0  0  0  0  0  0
   10.3020   46.6470   53.4560 C   0  0  0  0  0  0  0  0  0  0  0  0
    9.8000   47.4240   54.4980 C   0  0  0  0  0  0  0  0  0  0  0  0
    8.5020   47.9200   54.3910 C   0  0  0  0  0  0  0  0  0  0  0  0
    7.7570   47.6370   53.2900 N   0  0  0  0  0  0  0  0  0  0  0  0
    5.8450   44.7220   51.1300 C   0  0  0  0  0  0  0  0  0  0  0  0
    3.6600   44.3310   52.5770 H   0  0  0  0  0  0  0  0  0  0  0  0
    2.1640   42.5514   54.1827 H   0  0  0  0  0  0  0  0  0  0  0  0
   -0.2346   41.9580   54.5081 H   0  0  0  0  0  0  0  0  0  0  0  0
   -1.8727   42.3082   52.6657 H   0  0  0  0  0  0  0  0  0  0  0  0
   -2.3551   44.7650   49.2122 H   0  0  0  0  0  0  0  0  0  0  0  0
    1.2873   43.8737   50.1523 H   0  0  0  0  0  0  0  0  0  0  0  0
    5.9849   41.7692   49.4047 H   0  0  0  0  0  0  0  0  0  0  0  0
    8.0934   42.8132   48.5846 H   0  0  0  0  0  0  0  0  0  0  0  0
    8.7718   45.0718   49.3919 H   0  0  0  0  0  0  0  0  0  0  0  0
    7.2090   47.4270   50.5160 H   0  0  0  0  0  0  0  0  0  0  0  0
   11.3240   46.2441   53.5120 H   0  0  0  0  0  0  0  0  0  0  0  0
   10.4140   47.6409   55.3846 H   0  0  0  0  0  0  0  0  0  0  0  0
    8.0810   48.5397   55.1965 H   0  0  0  0  0  0  0  0  0  0  0  0
    5.1976   45.2737   51.8275 H   0  0  0  0  0  0  0  0  0  0  0  0
  1  2  2  0
  2  3  1  0
  3  4  1  0
  4  5  2  0
  5  6  1  0
  6  7  2  0
  7  8  1  0
  8  9  1  0
  9 10  1  0
 10 11  1  0
 10 12  1  0
  8 13  2  0
  2 14  1  0
 14 15  2  0
 15 16  1  0
 16 17  2  0
 17 18  1  0
 18 19  1  0
 19 20  1  0
 20 21  2  0
 21 22  1  0
 22 23  2  0
 23 24  1  0
 24 25  2  0
 18 26  2  0
 13  4  1  0
 26 14  1  0
 25 20  1  0
  3 27  1  0
  5 28  1  0
  6 29  1  0
  7 30  1  0
 10 31  1  0
 13 32  1  0
 15 33  1  0
 16 34  1  0
 17 35  1  0
 19 36  1  0
 22 37  1  0
 23 38  1  0
 24 39  1  0
 26 40  1  0
M  END
>  <meeko>  (4) 
{"is_sidechain": [false], "free_energy": -8.588, "intermolecular_energy": -11.183, "internal_energy": -0.892}

$$$$
ligand_17_conformer_3_docked
     RDKit          3D

 40 42  0  0  0  0  0  0  0  0999 V2000
    1.8930   44.8960   51.5330 O   0  0  0  0  0  0  0  0  0  0  0  0
    2.7080   44.0960   52.0700 C   0  0  0  0  0  0  0  0  0  0  0  0
    2.3440   43.4200   53.2850 N   0  0  0  0  0  0  0  0  0  0  0  0
    1.3330   43.8930   54.1920 C   0  0  0  0  0  0  0  0  0  0  0  0
    1.6770   44.8290   55.1790 C   0  0  0  0  0  0  0  0  0  0  0  0
    0.7100   45.3160   56.0580 C   0  0  0  0  0  0  0  0  0  0  0  0
   -0.6150   44.8860   55.9530 C   0  0  0  0  0  0  0  0  0  0  0  0
   -0.9870   43.9700   54.9630 C   0  0  0  0  0  0  0  0  0  0  0  0
   -2.3330   43.5810   54.8910 O   0  0  0  0  0  0  0  0  0  0  0  0
   -3.2770   44.0850   53.9510 C   0  0  0  0  0  0  0  0  0  0  0  0
   -3.0410   43.5060   52.7190 F   0  0  0  0  0  0  0  0  0  0  0  0
   -3.1420   45.4560   53.8360 F   0  0  0  0  0  0  0  0  0  0  0  0
   -0.0080   43.4800   54.0760 C   0  0  0  0  0  0  0  0  0  0  0  0
    4.0070   43.8240   51.4090 C   0  0  0  0  0  0  0  0  0  0  0  0
    4.2890   42.5440   50.9020 C   0  0  0  0  0  0  0  0  0  0  0  0
    5.5040   42.2870   50.2640 C   0  0  0  0  0  0  0  0  0  0  0  0
    6.4540   43.3020   50.1280 C   0  0  0  0  0  0  0  0  0  0  0  0
    6.2010   44.5820   50.6380 C   0  0  0  0  0  0  0  0  0  0  0  0
    7.1830   45.6170   50.4620 N   0  0  0  0  0  0  0  0  0  0  0  0
    8.0610   46.0810   51.4990 C   0  0  0  0  0  0  0  0  0  0  0  0
    9.4120   45.9990   51.3580 N   0  0  0  0  0  0  0  0  0  0  0  0
   10.2480   46.4600   52.3250 C   0  0  0  0  0  0  0  0  0  0  0  0
    9.7210   47.0380   53.4790 C   0  0  0  0  0  0  0  0  0  0  0  0
    8.3360   47.1290   53.6040 C   0  0  0  0  0  0  0  0  0  0  0  0
    7.5340   46.6550   52.6140 N   0  0  0  0  0  0  0  0  0  0  0  0
    4.9650   44.8440   51.2550 C   0  0  0  0  0  0  0  0  0  0  0  0
    2.7570   42.4760   53.4640 H   0  0  0  0  0  0  0  0  0  0  0  0
    2.7160   45.1809   55.2600 H   0  0  0  0  0  0  0  0  0  0  0  0
    0.9914   46.0408   56.8362 H   0  0  0  0  0  0  0  0  0  0  0  0
   -1.3711   45.2702   56.6535 H   0  0  0  0  0  0  0  0  0  0  0  0
   -4.2941   43.8460   54.2950 H   0  0  0  0  0  0  0  0  0  0  0  0
   -0.2937   42.7692   53.2866 H   0  0  0  0  0  0  0  0  0  0  0  0
    3.5472   41.7388   51.0086 H   0  0  0  0  0  0  0  0  0  0  0  0
    5.7137   41.2826   49.8674 H   0  0  0  0  0  0  0  0  0  0  0  0
    7.4062   43.0950   49.6175 H   0  0  0  0  0  0  0  0  0  0  0  0
    7.3250   46.0030   49.5010 H   0  0  0  0  0  0  0  0  0  0  0  0
   11.3375   46.3774   52.1976 H   0  0  0  0  0  0  0  0  0  0  0  0
   10.3833   47.4137   54.2728 H   0  0  0  0  0  0  0  0  0  0  0  0
    7.8925   47.5836   54.5022 H   0  0  0  0  0  0  0  0  0  0  0  0
    4.7441   45.8574   51.6215 H   0  0  0  0  0  0  0  0  0  0  0  0
  1  2  2  0
  2  3  1  0
  3  4  1  0
  4  5  2  0
  5  6  1  0
  6  7  2  0
  7  8  1  0
  8  9  1  0
  9 10  1  0
 10 11  1  0
 10 12  1  0
  8 13  2  0
  2 14  1  0
 14 15  2  0
 15 16  1  0
 16 17  2  0
 17 18  1  0
 18 19  1  0
 19 20  1  0
 20 21  2  0
 21 22  1  0
 22 23  2  0
 23 24  1  0
 24 25  2  0
 18 26  2  0
 13  4  1  0
 26 14  1  0
 25 20  1  0
  3 27  1  0
  5 28  1  0
  6 29  1  0
  7 30  1  0
 10 31  1  0
 13 32  1  0
 15 33  1  0
 16 34  1  0
 17 35  1  0
 19 36  1  0
 22 37  1  0
 23 38  1  0
 24 39  1  0
 26 40  1  0
M  END
>  <meeko>  (5) 
{"is_sidechain": [false], "free_energy": -8.527, "intermolecular_energy": -11.179, "internal_energy": -0.813}

$$$$
