ligand_47_conformer_4_docked
     RDKit          3D

 43 46  0  0  0  0  0  0  0  0999 V2000
    8.1900   43.6190   48.6770 C   0  0  0  0  0  0  0  0  0  0  0  0
    7.0410   43.6640   49.5770 N   0  0  0  0  0  0  0  0  0  0  0  0
    6.0920   42.7130   49.7620 C   0  0  0  0  0  0  0  0  0  0  0  0
    6.0450   41.6400   49.1040 O   0  0  0  0  0  0  0  0  0  0  0  0
    5.2120   43.0260   50.7460 N   0  0  0  0  0  0  0  0  0  0  0  0
    4.1230   42.2080   51.2690 C   0  0  0  0  0  0  0  0  0  0  0  0
    5.6570   44.2070   51.2210 C   0  0  0  0  0  0  0  0  0  0  0  0
    5.1660   44.9590   52.2880 C   0  0  0  0  0  0  0  0  0  0  0  0
    5.8410   46.1520   52.6310 C   0  0  0  0  0  0  0  0  0  0  0  0
    5.2380   47.1270   53.9760 S   0  0  0  0  0  0  0  0  0  0  0  0
    6.3410   47.3930   54.9610 O   0  0  0  0  0  0  0  0  0  0  0  0
    4.7320   48.4340   53.4320 O   0  0  0  0  0  0  0  0  0  0  0  0
    3.9560   46.2720   54.7760 N   0  0  0  0  0  0  0  0  0  0  0  0
    2.8710   45.6450   54.0750 C   0  0  0  0  0  0  0  0  0  0  0  0
    2.0810   46.3580   53.1370 C   0  0  0  0  0  0  0  0  0  0  0  0
    1.0390   45.7140   52.4470 C   0  0  0  0  0  0  0  0  0  0  0  0
    0.7950   44.3670   52.7130 C   0  0  0  0  0  0  0  0  0  0  0  0
    1.5380   43.6830   53.6300 C   0  0  0  0  0  0  0  0  0  0  0  0
    2.5790   44.2890   54.3320 C   0  0  0  0  0  0  0  0  0  0  0  0
    1.1310   42.3360   53.7320 N   0  0  0  0  0  0  0  0  0  0  0  0
    0.0360   42.1080   52.7920 C   0  0  0  0  0  0  0  0  0  0  0  0
   -0.2200   43.4680   52.0940 C   0  0  0  0  0  0  0  0  0  0  0  0
    6.9990   46.5450   51.8960 C   0  0  0  0  0  0  0  0  0  0  0  0
    7.9880   48.1370   52.3210 Br  0  0  0  0  0  0  0  0  0  0  0  0
    7.4670   45.7540   50.8280 C   0  0  0  0  0  0  0  0  0  0  0  0
    6.7640   44.5920   50.5160 C   0  0  0  0  0  0  0  0  0  0  0  0
    9.1172   43.5827   49.2677 H   0  0  0  0  0  0  0  0  0  0  0  0
    8.1240   42.7228   48.0427 H   0  0  0  0  0  0  0  0  0  0  0  0
    8.1943   44.5177   48.0427 H   0  0  0  0  0  0  0  0  0  0  0  0
    4.1466   42.2257   52.3686 H   0  0  0  0  0  0  0  0  0  0  0  0
    3.1613   42.6089   50.9164 H   0  0  0  0  0  0  0  0  0  0  0  0
    4.2401   41.1727   50.9164 H   0  0  0  0  0  0  0  0  0  0  0  0
    4.2771   44.6322   52.8475 H   0  0  0  0  0  0  0  0  0  0  0  0
    4.0680   46.0930   55.7970 H   0  0  0  0  0  0  0  0  0  0  0  0
    2.2851   47.4223   52.9482 H   0  0  0  0  0  0  0  0  0  0  0  0
    0.4292   46.2610   51.7129 H   0  0  0  0  0  0  0  0  0  0  0  0
    3.1615   43.7207   55.0721 H   0  0  0  0  0  0  0  0  0  0  0  0
    1.5480   41.6210   54.3690 H   0  0  0  0  0  0  0  0  0  0  0  0
    0.3208   41.3462   52.0514 H   0  0  0  0  0  0  0  0  0  0  0  0
   -0.8658   41.7434   53.3056 H   0  0  0  0  0  0  0  0  0  0  0  0
   -0.0660   43.3886   51.0077 H   0  0  0  0  0  0  0  0  0  0  0  0
   -1.2508   43.8301   52.2214 H   0  0  0  0  0  0  0  0  0  0  0  0
    8.3611   46.0452   50.2572 H   0  0  0  0  0  0  0  0  0  0  0  0
  1  2  1  0
  2  3  1  0
  3  4  2  0
  3  5  1  0
  5  6  1  0
  5  7  1  0
  7  8  2  0
  8  9  1  0
  9 10  1  0
 10 11  2  0
 10 12  2  0
 10 13  1  0
 13 14  1  0
 14 15  2  0
 15 16  1  0
 16 17  2  0
 17 18  1  0
 18 19  2  0
 18 20  1  0
 20 21  1  0
 21 22  1  0
  9 23  2  0
 23 24  1  0
 23 25  1  0
 25 26  2  0
 26  2  1  0
 26  7  1  0
 19 14  1  0
 22 17  1  0
  1 27  1  0
  1 28  1  0
  1 29  1  0
  6 30  1  0
  6 31  1  0
  6 32  1  0
  8 33  1  0
 13 34  1  0
 15 35  1  0
 16 36  1  0
 19 37  1  0
 20 38  1  0
 21 39  1  0
 21 40  1  0
 22 41  1  0
 22 42  1  0
 25 43  1  0
M  END
>  <meeko>  (1) 
{"is_sidechain": [false], "free_energy": -9.356, "intermolecular_energy": -10.997, "internal_energy": 0.032}

$$$$
ligand_47_conformer_4_docked
     RDKit          3D

 43 46  0  0  0  0  0  0  0  0999 V2000
   -2.0440   43.7640   56.1730 C   0  0  0  0  0  0  0  0  0  0  0  0
   -1.6290   43.9490   54.7840 N   0  0  0  0  0  0  0  0  0  0  0  0
   -2.3920   43.8410   53.6690 C   0  0  0  0  0  0  0  0  0  0  0  0
   -3.6030   43.4930   53.6840 O   0  0  0  0  0  0  0  0  0  0  0  0
   -1.7230   44.1710   52.5350 N   0  0  0  0  0  0  0  0  0  0  0  0
   -2.2470   44.2530   51.1750 C   0  0  0  0  0  0  0  0  0  0  0  0
   -0.5010   44.5390   52.9700 C   0  0  0  0  0  0  0  0  0  0  0  0
    0.5740   45.0360   52.2350 C   0  0  0  0  0  0  0  0  0  0  0  0
    1.7470   45.4020   52.9310 C   0  0  0  0  0  0  0  0  0  0  0  0
    3.1270   46.0320   52.0230 S   0  0  0  0  0  0  0  0  0  0  0  0
    2.8010   46.0960   50.5580 O   0  0  0  0  0  0  0  0  0  0  0  0
    3.4410   47.4140   52.5230 O   0  0  0  0  0  0  0  0  0  0  0  0
    4.4930   44.9850   52.2560 N   0  0  0  0  0  0  0  0  0  0  0  0
    5.8540   45.4350   52.1700 C   0  0  0  0  0  0  0  0  0  0  0  0
    6.5680   45.4120   50.9440 C   0  0  0  0  0  0  0  0  0  0  0  0
    7.8930   45.8800   50.8820 C   0  0  0  0  0  0  0  0  0  0  0  0
    8.4870   46.3570   52.0500 C   0  0  0  0  0  0  0  0  0  0  0  0
    7.8110   46.3620   53.2350 C   0  0  0  0  0  0  0  0  0  0  0  0
    6.4970   45.9060   53.3330 C   0  0  0  0  0  0  0  0  0  0  0  0
    8.5930   46.8960   54.2800 N   0  0  0  0  0  0  0  0  0  0  0  0
    9.8910   47.2910   53.7360 C   0  0  0  0  0  0  0  0  0  0  0  0
    9.8510   46.9290   52.2290 C   0  0  0  0  0  0  0  0  0  0  0  0
    1.7990   45.2680   54.3510 C   0  0  0  0  0  0  0  0  0  0  0  0
    3.3470   45.7730   55.3710 Br  0  0  0  0  0  0  0  0  0  0  0  0
    0.6880   44.7670   55.0580 C   0  0  0  0  0  0  0  0  0  0  0  0
   -0.4450   44.4060   54.3310 C   0  0  0  0  0  0  0  0  0  0  0  0
   -1.2478   44.1189   56.8439 H   0  0  0  0  0  0  0  0  0  0  0  0
   -2.9640   44.3372   56.3603 H   0  0  0  0  0  0  0  0  0  0  0  0
   -2.2326   42.6966   56.3603 H   0  0  0  0  0  0  0  0  0  0  0  0
   -3.3332   44.4230   51.2102 H   0  0  0  0  0  0  0  0  0  0  0  0
   -1.7625   45.0863   50.6450 H   0  0  0  0  0  0  0  0  0  0  0  0
   -2.0402   43.3116   50.6450 H   0  0  0  0  0  0  0  0  0  0  0  0
    0.5104   45.1404   51.1418 H   0  0  0  0  0  0  0  0  0  0  0  0
    4.3010   44.0240   52.6130 H   0  0  0  0  0  0  0  0  0  0  0  0
    6.0821   45.0256   50.0360 H   0  0  0  0  0  0  0  0  0  0  0  0
    8.4486   45.8699   49.9327 H   0  0  0  0  0  0  0  0  0  0  0  0
    5.9719   45.9136   54.2995 H   0  0  0  0  0  0  0  0  0  0  0  0
    8.2920   46.9970   55.2760 H   0  0  0  0  0  0  0  0  0  0  0  0
   10.0466   48.3722   53.8653 H   0  0  0  0  0  0  0  0  0  0  0  0
   10.7167   46.7787   54.2516 H   0  0  0  0  0  0  0  0  0  0  0  0
    9.9878   47.8244   51.6049 H   0  0  0  0  0  0  0  0  0  0  0  0
   10.6511   46.2352   51.9316 H   0  0  0  0  0  0  0  0  0  0  0  0
    0.7141   44.6637   56.1528 H   0  0  0  0  0  0  0  0  0  0  0  0
  1  2  1  0
  2  3  1  0
  3  4  2  0
  3  5  1  0
  5  6  1  0
  5  7  1  0
  7  8  2  0
  8  9  1  0
  9 10  1  0
 10 11  2  0
 10 12  2  0
 10 13  1  0
 13 14  1  0
 14 15  2  0
 15 16  1  0
 16 17  2  0
 17 18  1  0
 18 19  2  0
 18 20  1  0
 20 21  1  0
 21 22  1  0
  9 23  2  0
 23 24  1  0
 23 25  1  0
 25 26  2  0
 26  2  1  0
 26  7  1  0
 19 14  1  0
 22 17  1  0
  1 27  1  0
  1 28  1  0
  1 29  1  0
  6 30  1  0
  6 31  1  0
  6 32  1  0
  8 33  1  0
 13 34  1  0
 15 35  1  0
 16 36  1  0
 19 37  1  0
 20 38  1  0
 21 39  1  0
 21 40  1  0
 22 41  1  0
 22 42  1  0
 25 43  1  0
M  END
>  <meeko>  (2) 
{"is_sidechain": [false], "free_energy": -9.292, "intermolecular_energy": -10.635, "internal_energy": -0.255}

$$$$
ligand_47_conformer_4_docked
     RDKit          3D

 43 46  0  0  0  0  0  0  0  0999 V2000
    3.4320   40.1830   49.4430 C   0  0  0  0  0  0  0  0  0  0  0  0
    4.2270   41.3110   49.9230 N   0  0  0  0  0  0  0  0  0  0  0  0
    5.4030   41.7690   49.4290 C   0  0  0  0  0  0  0  0  0  0  0  0
    6.0220   41.2150   48.4810 O   0  0  0  0  0  0  0  0  0  0  0  0
    5.8330   42.8990   50.0440 N   0  0  0  0  0  0  0  0  0  0  0  0
    7.0030   43.7080   49.7190 C   0  0  0  0  0  0  0  0  0  0  0  0
    4.8610   43.1780   50.9350 C   0  0  0  0  0  0  0  0  0  0  0  0
    4.7520   44.2710   51.7940 C   0  0  0  0  0  0  0  0  0  0  0  0
    3.6010   44.3700   52.6070 C   0  0  0  0  0  0  0  0  0  0  0  0
    3.4390   45.7430   53.7090 S   0  0  0  0  0  0  0  0  0  0  0  0
    2.0160   46.2260   53.7320 O   0  0  0  0  0  0  0  0  0  0  0  0
    3.8350   45.3000   55.0890 O   0  0  0  0  0  0  0  0  0  0  0  0
    4.4690   47.0340   53.1730 N   0  0  0  0  0  0  0  0  0  0  0  0
    5.9000   46.9910   53.2720 C   0  0  0  0  0  0  0  0  0  0  0  0
    6.5670   47.2100   54.5040 C   0  0  0  0  0  0  0  0  0  0  0  0
    7.9700   47.1410   54.5780 C   0  0  0  0  0  0  0  0  0  0  0  0
    8.6860   46.8610   53.4150 C   0  0  0  0  0  0  0  0  0  0  0  0
    8.0500   46.6700   52.2230 C   0  0  0  0  0  0  0  0  0  0  0  0
    6.6620   46.7320   52.1130 C   0  0  0  0  0  0  0  0  0  0  0  0
    8.9620   46.3900   51.1840 N   0  0  0  0  0  0  0  0  0  0  0  0
   10.3130   46.3790   51.7400 C   0  0  0  0  0  0  0  0  0  0  0  0
   10.1590   46.7050   53.2470 C   0  0  0  0  0  0  0  0  0  0  0  0
    2.5860   43.3700   52.5210 C   0  0  0  0  0  0  0  0  0  0  0  0
    0.9780   43.4510   53.5710 Br  0  0  0  0  0  0  0  0  0  0  0  0
    2.7320   42.2850   51.6350 C   0  0  0  0  0  0  0  0  0  0  0  0
    3.8880   42.2190   50.8610 C   0  0  0  0  0  0  0  0  0  0  0  0
    3.0362   39.6214   50.3021 H   0  0  0  0  0  0  0  0  0  0  0  0
    2.5965   40.5566   48.8328 H   0  0  0  0  0  0  0  0  0  0  0  0
    4.0648   39.5218   48.8328 H   0  0  0  0  0  0  0  0  0  0  0  0
    7.4870   44.0427   50.6484 H   0  0  0  0  0  0  0  0  0  0  0  0
    7.7128   43.1069   49.1318 H   0  0  0  0  0  0  0  0  0  0  0  0
    6.6912   44.5844   49.1318 H   0  0  0  0  0  0  0  0  0  0  0  0
    5.5414   45.0359   51.8374 H   0  0  0  0  0  0  0  0  0  0  0  0
    4.0220   47.8040   52.6290 H   0  0  0  0  0  0  0  0  0  0  0  0
    5.9830   47.4355   55.4085 H   0  0  0  0  0  0  0  0  0  0  0  0
    8.4910   47.3044   55.5329 H   0  0  0  0  0  0  0  0  0  0  0  0
    6.1698   46.5818   51.1408 H   0  0  0  0  0  0  0  0  0  0  0  0
    8.7110   46.2120   50.1850 H   0  0  0  0  0  0  0  0  0  0  0  0
   10.7721   45.3880   51.6086 H   0  0  0  0  0  0  0  0  0  0  0  0
   10.9619   47.1094   51.2347 H   0  0  0  0  0  0  0  0  0  0  0  0
   10.5417   45.8826   53.8692 H   0  0  0  0  0  0  0  0  0  0  0  0
   10.7243   47.5971   53.5545 H   0  0  0  0  0  0  0  0  0  0  0  0
    1.9544   41.5110   51.5565 H   0  0  0  0  0  0  0  0  0  0  0  0
  1  2  1  0
  2  3  1  0
  3  4  2  0
  3  5  1  0
  5  6  1  0
  5  7  1  0
  7  8  2  0
  8  9  1  0
  9 10  1  0
 10 11  2  0
 10 12  2  0
 10 13  1  0
 13 14  1  0
 14 15  2  0
 15 16  1  0
 16 17  2  0
 17 18  1  0
 18 19  2  0
 18 20  1  0
 20 21  1  0
 21 22  1  0
  9 23  2  0
 23 24  1  0
 23 25  1  0
 25 26  2  0
 26  2  1  0
 26  7  1  0
 19 14  1  0
 22 17  1  0
  1 27  1  0
  1 28  1  0
  1 29  1  0
  6 30  1  0
  6 31  1  0
  6 32  1  0
  8 33  1  0
 13 34  1  0
 15 35  1  0
 16 36  1  0
 19 37  1  0
 20 38  1  0
 21 39  1  0
 21 40  1  0
 22 41  1  0
 22 42  1  0
 25 43  1  0
M  END
>  <meeko>  (3) 
{"is_sidechain": [false], "free_energy": -9.022, "intermolecular_energy": -10.752, "internal_energy": 0.18}

$$$$
ligand_47_conformer_4_docked
     RDKit          3D

 43 46  0  0  0  0  0  0  0  0999 V2000
    8.0220   43.5990   48.6100 C   0  0  0  0  0  0  0  0  0  0  0  0
    6.9050   43.5220   49.5480 N   0  0  0  0  0  0  0  0  0  0  0  0
    6.0290   42.5000   49.7150 C   0  0  0  0  0  0  0  0  0  0  0  0
    6.0320   41.4590   49.0060 O   0  0  0  0  0  0  0  0  0  0  0  0
    5.1640   42.7050   50.7400 N   0  0  0  0  0  0  0  0  0  0  0  0
    4.1520   41.7900   51.2560 C   0  0  0  0  0  0  0  0  0  0  0  0
    5.5450   43.8900   51.2590 C   0  0  0  0  0  0  0  0  0  0  0  0
    5.0420   44.5550   52.3760 C   0  0  0  0  0  0  0  0  0  0  0  0
    5.6470   45.7740   52.7560 C   0  0  0  0  0  0  0  0  0  0  0  0
    5.0270   46.6410   54.1670 S   0  0  0  0  0  0  0  0  0  0  0  0
    6.1540   47.3050   54.9060 O   0  0  0  0  0  0  0  0  0  0  0  0
    4.0550   47.6880   53.6980 O   0  0  0  0  0  0  0  0  0  0  0  0
    4.2340   45.5180   55.2280 N   0  0  0  0  0  0  0  0  0  0  0  0
    2.8160   45.2970   55.2230 C   0  0  0  0  0  0  0  0  0  0  0  0
    2.1840   44.5440   54.2000 C   0  0  0  0  0  0  0  0  0  0  0  0
    0.7970   44.3230   54.2310 C   0  0  0  0  0  0  0  0  0  0  0  0
    0.0580   44.8660   55.2810 C   0  0  0  0  0  0  0  0  0  0  0  0
    0.6580   45.6090   56.2560 C   0  0  0  0  0  0  0  0  0  0  0  0
    2.0310   45.8480   56.2580 C   0  0  0  0  0  0  0  0  0  0  0  0
   -0.2710   46.0480   57.2230 N   0  0  0  0  0  0  0  0  0  0  0  0
   -1.5940   45.5410   56.8640 C   0  0  0  0  0  0  0  0  0  0  0  0
   -1.4040   44.7440   55.5480 C   0  0  0  0  0  0  0  0  0  0  0  0
    6.7500   46.2800   52.0060 C   0  0  0  0  0  0  0  0  0  0  0  0
    7.6440   47.9150   52.4790 Br  0  0  0  0  0  0  0  0  0  0  0  0
    7.2320   45.5740   50.8870 C   0  0  0  0  0  0  0  0  0  0  0  0
    6.5990   44.3830   50.5390 C   0  0  0  0  0  0  0  0  0  0  0  0
    8.9668   43.6641   49.1695 H   0  0  0  0  0  0  0  0  0  0  0  0
    8.0320   42.6994   47.9770 H   0  0  0  0  0  0  0  0  0  0  0  0
    7.9084   44.4914   47.9770 H   0  0  0  0  0  0  0  0  0  0  0  0
    4.1697   41.8060   52.3557 H   0  0  0  0  0  0  0  0  0  0  0  0
    3.1592   42.1032   50.9007 H   0  0  0  0  0  0  0  0  0  0  0  0
    4.3639   40.7708   50.9007 H   0  0  0  0  0  0  0  0  0  0  0  0
    4.1969   44.1419   52.9462 H   0  0  0  0  0  0  0  0  0  0  0  0
    4.8430   44.8820   55.7880 H   0  0  0  0  0  0  0  0  0  0  0  0
    2.7845   44.1302   53.3765 H   0  0  0  0  0  0  0  0  0  0  0  0
    0.3045   43.7339   53.4434 H   0  0  0  0  0  0  0  0  0  0  0  0
    2.4936   46.4542   57.0508 H   0  0  0  0  0  0  0  0  0  0  0  0
   -0.0480   46.6340   58.0590 H   0  0  0  0  0  0  0  0  0  0  0  0
   -1.9792   44.8831   57.6570 H   0  0  0  0  0  0  0  0  0  0  0  0
   -2.3184   46.3592   56.7383 H   0  0  0  0  0  0  0  0  0  0  0  0
   -1.6940   43.6911   55.6796 H   0  0  0  0  0  0  0  0  0  0  0  0
   -2.0253   45.1217   54.7225 H   0  0  0  0  0  0  0  0  0  0  0  0
    8.0846   45.9525   50.3040 H   0  0  0  0  0  0  0  0  0  0  0  0
  1  2  1  0
  2  3  1  0
  3  4  2  0
  3  5  1  0
  5  6  1  0
  5  7  1  0
  7  8  2  0
  8  9  1  0
  9 10  1  0
 10 11  2  0
 10 12  2  0
 10 13  1  0
 13 14  1  0
 14 15  2  0
 15 16  1  0
 16 17  2  0
 17 18  1  0
 18 19  2  0
 18 20  1  0
 20 21  1  0
 21 22  1  0
  9 23  2  0
 23 24  1  0
 23 25  1  0
 25 26  2  0
 26  2  1  0
 26  7  1  0
 19 14  1  0
 22 17  1  0
  1 27  1  0
  1 28  1  0
  1 29  1  0
  6 30  1  0
  6 31  1  0
  6 32  1  0
  8 33  1  0
 13 34  1  0
 15 35  1  0
 16 36  1  0
 19 37  1  0
 20 38  1  0
 21 39  1  0
 21 40  1  0
 22 41  1  0
 22 42  1  0
 25 43  1  0
M  END
>  <meeko>  (4) 
{"is_sidechain": [false], "free_energy": -8.963, "intermolecular_energy": -10.492, "internal_energy": -0.011}

$$$$
ligand_47_conformer_4_docked
     RDKit          3D

 43 46  0  0  0  0  0  0  0  0999 V2000
    9.3420   46.3590   51.3990 C   0  0  0  0  0  0  0  0  0  0  0  0
    8.1960   45.6070   50.8930 N   0  0  0  0  0  0  0  0  0  0  0  0
    8.1990   44.5990   49.9870 C   0  0  0  0  0  0  0  0  0  0  0  0
    9.2360   44.2010   49.3910 O   0  0  0  0  0  0  0  0  0  0  0  0
    6.9740   44.0460   49.8050 N   0  0  0  0  0  0  0  0  0  0  0  0
    6.6220   42.8960   48.9780 C   0  0  0  0  0  0  0  0  0  0  0  0
    6.1810   44.7140   50.6660 C   0  0  0  0  0  0  0  0  0  0  0  0
    4.8300   44.5120   50.9460 C   0  0  0  0  0  0  0  0  0  0  0  0
    4.2250   45.3160   51.9370 C   0  0  0  0  0  0  0  0  0  0  0  0
    2.5120   45.0830   52.3100 S   0  0  0  0  0  0  0  0  0  0  0  0
    1.8150   46.4120   52.3990 O   0  0  0  0  0  0  0  0  0  0  0  0
    1.8890   44.2680   51.2120 O   0  0  0  0  0  0  0  0  0  0  0  0
    2.3620   44.2590   53.8300 N   0  0  0  0  0  0  0  0  0  0  0  0
    1.2680   44.4700   54.7350 C   0  0  0  0  0  0  0  0  0  0  0  0
    1.4630   45.0470   56.0160 C   0  0  0  0  0  0  0  0  0  0  0  0
    0.3710   45.2640   56.8740 C   0  0  0  0  0  0  0  0  0  0  0  0
   -0.9010   44.8910   56.4430 C   0  0  0  0  0  0  0  0  0  0  0  0
   -1.0910   44.3160   55.2200 C   0  0  0  0  0  0  0  0  0  0  0  0
   -0.0320   44.0870   54.3430 C   0  0  0  0  0  0  0  0  0  0  0  0
   -2.4520   44.0310   54.9830 N   0  0  0  0  0  0  0  0  0  0  0  0
   -3.2290   44.4690   56.1410 C   0  0  0  0  0  0  0  0  0  0  0  0
   -2.2040   45.0480   57.1500 C   0  0  0  0  0  0  0  0  0  0  0  0
    5.0020   46.2940   52.6270 C   0  0  0  0  0  0  0  0  0  0  0  0
    4.2590   47.4050   54.0080 Br  0  0  0  0  0  0  0  0  0  0  0  0
    6.3670   46.4630   52.3180 C   0  0  0  0  0  0  0  0  0  0  0  0
    6.9210   45.6570   51.3260 C   0  0  0  0  0  0  0  0  0  0  0  0
    9.3293   46.3507   52.4989 H   0  0  0  0  0  0  0  0  0  0  0  0
   10.2725   45.8953   51.0395 H   0  0  0  0  0  0  0  0  0  0  0  0
    9.2870   47.3971   51.0395 H   0  0  0  0  0  0  0  0  0  0  0  0
    6.3616   42.0452   49.6248 H   0  0  0  0  0  0  0  0  0  0  0  0
    5.7608   43.1509   48.3430 H   0  0  0  0  0  0  0  0  0  0  0  0
    7.4784   42.6252   48.3430 H   0  0  0  0  0  0  0  0  0  0  0  0
    4.2506   43.7465   50.4091 H   0  0  0  0  0  0  0  0  0  0  0  0
    3.0270   43.4760   54.0150 H   0  0  0  0  0  0  0  0  0  0  0  0
    2.4762   45.3267   56.3403 H   0  0  0  0  0  0  0  0  0  0  0  0
    0.5172   45.7187   57.8649 H   0  0  0  0  0  0  0  0  0  0  0  0
   -0.2066   43.6167   53.3641 H   0  0  0  0  0  0  0  0  0  0  0  0
   -2.8410   43.5870   54.1210 H   0  0  0  0  0  0  0  0  0  0  0  0
   -3.9527   45.2427   55.8450 H   0  0  0  0  0  0  0  0  0  0  0  0
   -3.8007   43.6381   56.5799 H   0  0  0  0  0  0  0  0  0  0  0  0
   -2.4132   46.1073   57.3602 H   0  0  0  0  0  0  0  0  0  0  0  0
   -2.2278   44.5418   58.1263 H   0  0  0  0  0  0  0  0  0  0  0  0
    6.9777   47.2105   52.8455 H   0  0  0  0  0  0  0  0  0  0  0  0
  1  2  1  0
  2  3  1  0
  3  4  2  0
  3  5  1  0
  5  6  1  0
  5  7  1  0
  7  8  2  0
  8  9  1  0
  9 10  1  0
 10 11  2  0
 10 12  2  0
 10 13  1  0
 13 14  1  0
 14 15  2  0
 15 16  1  0
 16 17  2  0
 17 18  1  0
 18 19  2  0
 18 20  1  0
 20 21  1  0
 21 22  1  0
  9 23  2  0
 23 24  1  0
 23 25  1  0
 25 26  2  0
 26  2  1  0
 26  7  1  0
 19 14  1  0
 22 17  1  0
  1 27  1  0
  1 28  1  0
  1 29  1  0
  6 30  1  0
  6 31  1  0
  6 32  1  0
  8 33  1  0
 13 34  1  0
 15 35  1  0
 16 36  1  0
 19 37  1  0
 20 38  1  0
 21 39  1  0
 21 40  1  0
 22 41  1  0
 22 42  1  0
 25 43  1  0
M  END
>  <meeko>  (5) 
{"is_sidechain": [false], "free_energy": -8.89, "intermolecular_energy": -10.187, "internal_energy": -0.23}

$$$$
