ligand_88_conformer_3_docked
     RDKit          3D

 47 49  0  0  0  0  0  0  0  0999 V2000
    5.9040   41.3720   49.3630 C   0  0  0  0  0  0  0  0  0  0  0  0
    6.4170   42.7460   49.6750 C   0  0  0  0  0  0  0  0  0  0  0  0
    5.6270   43.6480   50.4020 C   0  0  0  0  0  0  0  0  0  0  0  0
    6.1200   44.9150   50.7280 C   0  0  0  0  0  0  0  0  0  0  0  0
    7.4220   45.2900   50.3550 C   0  0  0  0  0  0  0  0  0  0  0  0
    7.9660   46.6560   50.7230 C   0  0  0  0  0  0  0  0  0  0  0  0
    7.7790   47.0370   52.2250 C   0  0  0  0  0  0  0  0  0  0  0  0
    8.7630   46.2260   53.1000 C   0  0  0  0  0  0  0  0  0  0  0  0
    8.0830   48.5400   52.3750 C   0  0  0  0  0  0  0  0  0  0  0  0
    6.3850   46.7800   52.6370 N   0  0  0  0  0  0  0  0  0  0  0  0
    5.9260   46.7060   54.0000 C   0  0  0  0  0  0  0  0  0  0  0  0
    6.6240   47.1730   54.9390 O   0  0  0  0  0  0  0  0  0  0  0  0
    4.6260   46.0920   54.3200 C   0  0  0  0  0  0  0  0  0  0  0  0
    3.7880   45.4250   53.4460 C   0  0  0  0  0  0  0  0  0  0  0  0
    2.7380   45.0310   54.2480 C   0  0  0  0  0  0  0  0  0  0  0  0
    1.5570   44.2740   53.8220 C   0  0  0  0  0  0  0  0  0  0  0  0
    1.5690   43.0400   53.1990 C   0  0  0  0  0  0  0  0  0  0  0  0
    0.2360   42.7400   53.0110 C   0  0  0  0  0  0  0  0  0  0  0  0
   -0.5010   43.7570   53.4930 N   0  0  0  0  0  0  0  0  0  0  0  0
   -1.9560   43.8060   53.5490 C   0  0  0  0  0  0  0  0  0  0  0  0
    0.2880   44.6900   54.0010 N   0  0  0  0  0  0  0  0  0  0  0  0
    2.9610   45.4380   55.4760 O   0  0  0  0  0  0  0  0  0  0  0  0
    4.0910   46.0780   55.5580 N   0  0  0  0  0  0  0  0  0  0  0  0
    8.2100   44.3840   49.6250 C   0  0  0  0  0  0  0  0  0  0  0  0
    7.7160   43.1180   49.2990 C   0  0  0  0  0  0  0  0  0  0  0  0
    5.7031   40.8339   50.3011 H   0  0  0  0  0  0  0  0  0  0  0  0
    4.9749   41.4512   48.7795 H   0  0  0  0  0  0  0  0  0  0  0  0
    6.6577   40.8229   48.7795 H   0  0  0  0  0  0  0  0  0  0  0  0
    4.6141   43.3572   50.7175 H   0  0  0  0  0  0  0  0  0  0  0  0
    5.4845   45.6231   51.2801 H   0  0  0  0  0  0  0  0  0  0  0  0
    9.0419   46.6715   50.4948 H   0  0  0  0  0  0  0  0  0  0  0  0
    7.3948   47.3914   50.1374 H   0  0  0  0  0  0  0  0  0  0  0  0
    8.5435   46.4069   54.1626 H   0  0  0  0  0  0  0  0  0  0  0  0
    8.6515   45.1540   52.8799 H   0  0  0  0  0  0  0  0  0  0  0  0
    9.7939   46.5402   52.8799 H   0  0  0  0  0  0  0  0  0  0  0  0
    8.1353   48.7987   53.4429 H   0  0  0  0  0  0  0  0  0  0  0  0
    9.0457   48.7691   51.8946 H   0  0  0  0  0  0  0  0  0  0  0  0
    7.2850   49.1252   51.8946 H   0  0  0  0  0  0  0  0  0  0  0  0
    5.6600   46.6790   51.8950 H   0  0  0  0  0  0  0  0  0  0  0  0
    3.9259   45.2504   52.3687 H   0  0  0  0  0  0  0  0  0  0  0  0
    2.4432   42.4348   52.9172 H   0  0  0  0  0  0  0  0  0  0  0  0
   -0.1578   41.8243   52.5458 H   0  0  0  0  0  0  0  0  0  0  0  0
   -2.2823   43.8170   54.5994 H   0  0  0  0  0  0  0  0  0  0  0  0
   -2.3119   44.7166   53.0449 H   0  0  0  0  0  0  0  0  0  0  0  0
   -2.3723   42.9214   53.0449 H   0  0  0  0  0  0  0  0  0  0  0  0
    9.2228   44.6733   49.3079 H   0  0  0  0  0  0  0  0  0  0  0  0
    8.3492   42.4096   48.7447 H   0  0  0  0  0  0  0  0  0  0  0  0
  1  2  1  0
  2  3  2  0
  3  4  1  0
  4  5  2  0
  5  6  1  0
  6  7  1  0
  7  8  1  0
  7  9  1  0
  7 10  1  0
 10 11  1  0
 11 12  2  0
 11 13  1  0
 13 14  1  0
 14 15  2  0
 15 16  1  0
 16 17  1  0
 17 18  2  0
 18 19  1  0
 19 20  1  0
 19 21  1  0
 15 22  1  0
 22 23  1  0
  5 24  1  0
 24 25  2  0
 25  2  1  0
 23 13  2  0
 21 16  2  0
  1 26  1  0
  1 27  1  0
  1 28  1  0
  3 29  1  0
  4 30  1  0
  6 31  1  0
  6 32  1  0
  8 33  1  0
  8 34  1  0
  8 35  1  0
  9 36  1  0
  9 37  1  0
  9 38  1  0
 10 39  1  0
 14 40  1  0
 17 41  1  0
 18 42  1  0
 20 43  1  0
 20 44  1  0
 20 45  1  0
 24 46  1  0
 25 47  1  0
M  END
>  <meeko>  (1) 
{"is_sidechain": [false], "free_energy": -9.079, "intermolecular_energy": -11.733, "internal_energy": 0.171}

$$$$
ligand_88_conformer_3_docked
     RDKit          3D

 47 49  0  0  0  0  0  0  0  0999 V2000
    6.7110   41.3190   50.0720 C   0  0  0  0  0  0  0  0  0  0  0  0
    5.4170   41.9810   50.4440 C   0  0  0  0  0  0  0  0  0  0  0  0
    5.3740   43.3610   50.6880 C   0  0  0  0  0  0  0  0  0  0  0  0
    4.1610   43.9850   50.9960 C   0  0  0  0  0  0  0  0  0  0  0  0
    2.9690   43.2440   51.0390 C   0  0  0  0  0  0  0  0  0  0  0  0
    1.6500   43.9210   51.3540 C   0  0  0  0  0  0  0  0  0  0  0  0
    1.3690   44.0930   52.8800 C   0  0  0  0  0  0  0  0  0  0  0  0
    0.0800   44.9220   53.0880 C   0  0  0  0  0  0  0  0  0  0  0  0
    1.1760   42.6900   53.4890 C   0  0  0  0  0  0  0  0  0  0  0  0
    2.5190   44.7510   53.5310 N   0  0  0  0  0  0  0  0  0  0  0  0
    2.9200   46.1180   53.3170 C   0  0  0  0  0  0  0  0  0  0  0  0
    2.1230   46.9460   52.8000 O   0  0  0  0  0  0  0  0  0  0  0  0
    4.2630   46.5740   53.7090 C   0  0  0  0  0  0  0  0  0  0  0  0
    5.4610   46.2280   53.1150 C   0  0  0  0  0  0  0  0  0  0  0  0
    6.3950   46.9410   53.8360 C   0  0  0  0  0  0  0  0  0  0  0  0
    7.8450   46.9430   53.6180 C   0  0  0  0  0  0  0  0  0  0  0  0
    8.7890   47.4990   54.4630 C   0  0  0  0  0  0  0  0  0  0  0  0
    9.9940   47.2420   53.8440 C   0  0  0  0  0  0  0  0  0  0  0  0
    9.7500   46.5840   52.6960 N   0  0  0  0  0  0  0  0  0  0  0  0
   10.7570   46.0690   51.7770 C   0  0  0  0  0  0  0  0  0  0  0  0
    8.4500   46.3830   52.5530 N   0  0  0  0  0  0  0  0  0  0  0  0
    5.7790   47.6360   54.7630 O   0  0  0  0  0  0  0  0  0  0  0  0
    4.4930   47.4420   54.7150 N   0  0  0  0  0  0  0  0  0  0  0  0
    3.0170   41.8600   50.7960 C   0  0  0  0  0  0  0  0  0  0  0  0
    4.2300   41.2360   50.4890 C   0  0  0  0  0  0  0  0  0  0  0  0
    7.2562   41.0401   50.9858 H   0  0  0  0  0  0  0  0  0  0  0  0
    6.5037   40.4162   49.4787 H   0  0  0  0  0  0  0  0  0  0  0  0
    7.3218   42.0154   49.4787 H   0  0  0  0  0  0  0  0  0  0  0  0
    6.2982   43.9553   50.6369 H   0  0  0  0  0  0  0  0  0  0  0  0
    4.1405   45.0645   51.2062 H   0  0  0  0  0  0  0  0  0  0  0  0
    1.6540   44.9180   50.8892 H   0  0  0  0  0  0  0  0  0  0  0  0
    0.8571   43.2698   50.9574 H   0  0  0  0  0  0  0  0  0  0  0  0
   -0.1083   45.0431   54.1650 H   0  0  0  0  0  0  0  0  0  0  0  0
    0.2016   45.9117   52.6235 H   0  0  0  0  0  0  0  0  0  0  0  0
   -0.7701   44.4009   52.6235 H   0  0  0  0  0  0  0  0  0  0  0  0
    1.1859   42.7622   54.5866 H   0  0  0  0  0  0  0  0  0  0  0  0
    0.2124   42.2758   53.1575 H   0  0  0  0  0  0  0  0  0  0  0  0
    1.9919   42.0310   53.1575 H   0  0  0  0  0  0  0  0  0  0  0  0
    3.0700   44.2080   54.2290 H   0  0  0  0  0  0  0  0  0  0  0  0
    5.6296   45.5461   52.2685 H   0  0  0  0  0  0  0  0  0  0  0  0
    8.6172   48.0263   55.4129 H   0  0  0  0  0  0  0  0  0  0  0  0
   10.9862   47.5266   54.2241 H   0  0  0  0  0  0  0  0  0  0  0  0
   11.5926   45.6416   52.3507 H   0  0  0  0  0  0  0  0  0  0  0  0
   10.3103   45.2887   51.1433 H   0  0  0  0  0  0  0  0  0  0  0  0
   11.1282   46.8880   51.1433 H   0  0  0  0  0  0  0  0  0  0  0  0
    2.0939   41.2640   50.8478 H   0  0  0  0  0  0  0  0  0  0  0  0
    4.2532   40.1559   50.2819 H   0  0  0  0  0  0  0  0  0  0  0  0
  1  2  1  0
  2  3  2  0
  3  4  1  0
  4  5  2  0
  5  6  1  0
  6  7  1  0
  7  8  1  0
  7  9  1  0
  7 10  1  0
 10 11  1  0
 11 12  2  0
 11 13  1  0
 13 14  1  0
 14 15  2  0
 15 16  1  0
 16 17  1  0
 17 18  2  0
 18 19  1  0
 19 20  1  0
 19 21  1  0
 15 22  1  0
 22 23  1  0
  5 24  1  0
 24 25  2  0
 25  2  1  0
 23 13  2  0
 21 16  2  0
  1 26  1  0
  1 27  1  0
  1 28  1  0
  3 29  1  0
  4 30  1  0
  6 31  1  0
  6 32  1  0
  8 33  1  0
  8 34  1  0
  8 35  1  0
  9 36  1  0
  9 37  1  0
  9 38  1  0
 10 39  1  0
 14 40  1  0
 17 41  1  0
 18 42  1  0
 20 43  1  0
 20 44  1  0
 20 45  1  0
 24 46  1  0
 25 47  1  0
M  END
>  <meeko>  (2) 
{"is_sidechain": [false], "free_energy": -9.057, "intermolecular_energy": -11.55, "internal_energy": 0.016}

$$$$
ligand_88_conformer_3_docked
     RDKit          3D

 47 49  0  0  0  0  0  0  0  0999 V2000
   10.6560   46.2580   51.8590 C   0  0  0  0  0  0  0  0  0  0  0  0
    9.1820   46.4090   52.0920 C   0  0  0  0  0  0  0  0  0  0  0  0
    8.2650   45.9450   51.1380 C   0  0  0  0  0  0  0  0  0  0  0  0
    6.8900   46.0500   51.3710 C   0  0  0  0  0  0  0  0  0  0  0  0
    6.4110   46.5960   52.5740 C   0  0  0  0  0  0  0  0  0  0  0  0
    4.9220   46.6950   52.8380 C   0  0  0  0  0  0  0  0  0  0  0  0
    4.2460   45.3370   53.2060 C   0  0  0  0  0  0  0  0  0  0  0  0
    5.0390   44.6440   54.3380 C   0  0  0  0  0  0  0  0  0  0  0  0
    2.8150   45.6350   53.6940 C   0  0  0  0  0  0  0  0  0  0  0  0
    4.1800   44.4700   52.0120 N   0  0  0  0  0  0  0  0  0  0  0  0
    3.7600   43.0920   52.0130 C   0  0  0  0  0  0  0  0  0  0  0  0
    3.1120   42.6200   52.9850 O   0  0  0  0  0  0  0  0  0  0  0  0
    4.0710   42.2140   50.8730 C   0  0  0  0  0  0  0  0  0  0  0  0
    3.1650   41.5890   50.0380 C   0  0  0  0  0  0  0  0  0  0  0  0
    3.9670   40.9230   49.1360 C   0  0  0  0  0  0  0  0  0  0  0  0
    3.5120   40.0940   48.0150 C   0  0  0  0  0  0  0  0  0  0  0  0
    3.6430   40.4050   46.6740 C   0  0  0  0  0  0  0  0  0  0  0  0
    3.0830   39.3290   46.0180 C   0  0  0  0  0  0  0  0  0  0  0  0
    2.6430   38.4520   46.9390 N   0  0  0  0  0  0  0  0  0  0  0  0
    2.0480   37.1510   46.6630 C   0  0  0  0  0  0  0  0  0  0  0  0
    2.9090   38.8980   48.1560 N   0  0  0  0  0  0  0  0  0  0  0  0
    5.2250   41.1520   49.4320 O   0  0  0  0  0  0  0  0  0  0  0  0
    5.3270   41.9280   50.4720 N   0  0  0  0  0  0  0  0  0  0  0  0
    7.3330   47.0620   53.5260 C   0  0  0  0  0  0  0  0  0  0  0  0
    8.7080   46.9580   53.2920 C   0  0  0  0  0  0  0  0  0  0  0  0
   11.1766   46.2047   52.8265 H   0  0  0  0  0  0  0  0  0  0  0  0
   10.8447   45.3358   51.2898 H   0  0  0  0  0  0  0  0  0  0  0  0
   11.0277   47.1228   51.2898 H   0  0  0  0  0  0  0  0  0  0  0  0
    8.6289   45.4963   50.2019 H   0  0  0  0  0  0  0  0  0  0  0  0
    6.1785   45.7028   50.6073 H   0  0  0  0  0  0  0  0  0  0  0  0
    4.7652   47.3955   53.6715 H   0  0  0  0  0  0  0  0  0  0  0  0
    4.4568   47.0362   51.9014 H   0  0  0  0  0  0  0  0  0  0  0  0
    4.6553   44.9793   55.3129 H   0  0  0  0  0  0  0  0  0  0  0  0
    4.9219   43.5535   54.2533 H   0  0  0  0  0  0  0  0  0  0  0  0
    6.1039   44.9061   54.2533 H   0  0  0  0  0  0  0  0  0  0  0  0
    2.7960   45.6389   54.7938 H   0  0  0  0  0  0  0  0  0  0  0  0
    2.4968   46.6187   53.3183 H   0  0  0  0  0  0  0  0  0  0  0  0
    2.1306   44.8601   53.3183 H   0  0  0  0  0  0  0  0  0  0  0  0
    4.4180   44.8840   51.0860 H   0  0  0  0  0  0  0  0  0  0  0  0
    2.0662   41.6163   50.0823 H   0  0  0  0  0  0  0  0  0  0  0  0
    4.0920   41.3062   46.2310 H   0  0  0  0  0  0  0  0  0  0  0  0
    3.0086   39.2081   44.9272 H   0  0  0  0  0  0  0  0  0  0  0  0
    1.8166   36.6449   47.6119 H   0  0  0  0  0  0  0  0  0  0  0  0
    1.1223   37.2865   46.0844 H   0  0  0  0  0  0  0  0  0  0  0  0
    2.7559   36.5394   46.0844 H   0  0  0  0  0  0  0  0  0  0  0  0
    6.9709   47.5119   54.4622 H   0  0  0  0  0  0  0  0  0  0  0  0
    9.4209   47.3085   54.0529 H   0  0  0  0  0  0  0  0  0  0  0  0
  1  2  1  0
  2  3  2  0
  3  4  1  0
  4  5  2  0
  5  6  1  0
  6  7  1  0
  7  8  1  0
  7  9  1  0
  7 10  1  0
 10 11  1  0
 11 12  2  0
 11 13  1  0
 13 14  1  0
 14 15  2  0
 15 16  1  0
 16 17  1  0
 17 18  2  0
 18 19  1  0
 19 20  1  0
 19 21  1  0
 15 22  1  0
 22 23  1  0
  5 24  1  0
 24 25  2  0
 25  2  1  0
 23 13  2  0
 21 16  2  0
  1 26  1  0
  1 27  1  0
  1 28  1  0
  3 29  1  0
  4 30  1  0
  6 31  1  0
  6 32  1  0
  8 33  1  0
  8 34  1  0
  8 35  1  0
  9 36  1  0
  9 37  1  0
  9 38  1  0
 10 39  1  0
 14 40  1  0
 17 41  1  0
 18 42  1  0
 20 43  1  0
 20 44  1  0
 20 45  1  0
 24 46  1  0
 25 47  1  0
M  END
>  <meeko>  (3) 
{"is_sidechain": [false], "free_energy": -8.559, "intermolecular_energy": -10.833, "internal_energy": -0.057}

$$$$
ligand_88_conformer_3_docked
     RDKit          3D

 47 49  0  0  0  0  0  0  0  0999 V2000
    9.6800   47.0000   52.6790 C   0  0  0  0  0  0  0  0  0  0  0  0
    9.0190   46.0780   51.6980 C   0  0  0  0  0  0  0  0  0  0  0  0
    7.6260   46.1030   51.5330 C   0  0  0  0  0  0  0  0  0  0  0  0
    7.0120   45.2720   50.5910 C   0  0  0  0  0  0  0  0  0  0  0  0
    7.7840   44.4230   49.7800 C   0  0  0  0  0  0  0  0  0  0  0  0
    7.1230   43.5340   48.7450 C   0  0  0  0  0  0  0  0  0  0  0  0
    6.3400   42.3250   49.3460 C   0  0  0  0  0  0  0  0  0  0  0  0
    5.6230   41.5490   48.2180 C   0  0  0  0  0  0  0  0  0  0  0  0
    7.3570   41.3960   50.0370 C   0  0  0  0  0  0  0  0  0  0  0  0
    5.3650   42.8060   50.3450 N   0  0  0  0  0  0  0  0  0  0  0  0
    4.2560   42.0410   50.8540 C   0  0  0  0  0  0  0  0  0  0  0  0
    4.2250   40.7890   50.7190 O   0  0  0  0  0  0  0  0  0  0  0  0
    3.1430   42.7080   51.5510 C   0  0  0  0  0  0  0  0  0  0  0  0
    3.0920   43.0540   52.8870 C   0  0  0  0  0  0  0  0  0  0  0  0
    1.8650   43.6680   53.0130 C   0  0  0  0  0  0  0  0  0  0  0  0
    1.2990   44.2370   54.2400 C   0  0  0  0  0  0  0  0  0  0  0  0
    1.9950   44.9590   55.1920 C   0  0  0  0  0  0  0  0  0  0  0  0
    1.0440   45.2830   56.1370 C   0  0  0  0  0  0  0  0  0  0  0  0
   -0.1350   44.7620   55.7500 N   0  0  0  0  0  0  0  0  0  0  0  0
   -1.4100   44.9310   56.4350 C   0  0  0  0  0  0  0  0  0  0  0  0
    0.0020   44.1350   54.5920 N   0  0  0  0  0  0  0  0  0  0  0  0
    1.2670   43.6730   51.8440 O   0  0  0  0  0  0  0  0  0  0  0  0
    2.0090   43.1050   50.9380 N   0  0  0  0  0  0  0  0  0  0  0  0
    9.1790   44.4000   49.9500 C   0  0  0  0  0  0  0  0  0  0  0  0
    9.7920   45.2300   50.8930 C   0  0  0  0  0  0  0  0  0  0  0  0
    9.4464   46.6741   53.7033 H   0  0  0  0  0  0  0  0  0  0  0  0
   10.7692   46.9778   52.5266 H   0  0  0  0  0  0  0  0  0  0  0  0
    9.3093   48.0244   52.5266 H   0  0  0  0  0  0  0  0  0  0  0  0
    7.0140   46.7795   52.1476 H   0  0  0  0  0  0  0  0  0  0  0  0
    5.9173   45.2829   50.4840 H   0  0  0  0  0  0  0  0  0  0  0  0
    6.4183   44.1467   48.1636 H   0  0  0  0  0  0  0  0  0  0  0  0
    7.9306   43.1124   48.1285 H   0  0  0  0  0  0  0  0  0  0  0  0
    4.9392   40.8090   48.6594 H   0  0  0  0  0  0  0  0  0  0  0  0
    5.0501   42.2524   47.5959 H   0  0  0  0  0  0  0  0  0  0  0  0
    6.3694   41.0334   47.5959 H   0  0  0  0  0  0  0  0  0  0  0  0
    7.2556   41.4886   51.1284 H   0  0  0  0  0  0  0  0  0  0  0  0
    7.1649   40.3550   49.7379 H   0  0  0  0  0  0  0  0  0  0  0  0
    8.3764   41.6813   49.7379 H   0  0  0  0  0  0  0  0  0  0  0  0
    5.5000   43.7570   50.7500 H   0  0  0  0  0  0  0  0  0  0  0  0
    3.8501   42.8807   53.6650 H   0  0  0  0  0  0  0  0  0  0  0  0
    3.0644   45.2165   55.1950 H   0  0  0  0  0  0  0  0  0  0  0  0
    1.2195   45.8680   57.0519 H   0  0  0  0  0  0  0  0  0  0  0  0
   -1.2475   44.9095   57.5227 H   0  0  0  0  0  0  0  0  0  0  0  0
   -1.8545   45.8959   56.1497 H   0  0  0  0  0  0  0  0  0  0  0  0
   -2.0905   44.1152   56.1497 H   0  0  0  0  0  0  0  0  0  0  0  0
    9.7928   43.7240   49.3366 H   0  0  0  0  0  0  0  0  0  0  0  0
   10.8863   45.2176   51.0039 H   0  0  0  0  0  0  0  0  0  0  0  0
  1  2  1  0
  2  3  2  0
  3  4  1  0
  4  5  2  0
  5  6  1  0
  6  7  1  0
  7  8  1  0
  7  9  1  0
  7 10  1  0
 10 11  1  0
 11 12  2  0
 11 13  1  0
 13 14  1  0
 14 15  2  0
 15 16  1  0
 16 17  1  0
 17 18  2  0
 18 19  1  0
 19 20  1  0
 19 21  1  0
 15 22  1  0
 22 23  1  0
  5 24  1  0
 24 25  2  0
 25  2  1  0
 23 13  2  0
 21 16  2  0
  1 26  1  0
  1 27  1  0
  1 28  1  0
  3 29  1  0
  4 30  1  0
  6 31  1  0
  6 32  1  0
  8 33  1  0
  8 34  1  0
  8 35  1  0
  9 36  1  0
  9 37  1  0
  9 38  1  0
 10 39  1  0
 14 40  1  0
 17 41  1  0
 18 42  1  0
 20 43  1  0
 20 44  1  0
 20 45  1  0
 24 46  1  0
 25 47  1  0
M  END
>  <meeko>  (4) 
{"is_sidechain": [false], "free_energy": -8.425, "intermolecular_energy": -10.838, "internal_energy": 0.121}

$$$$
ligand_88_conformer_3_docked
     RDKit          3D

 47 49  0  0  0  0  0  0  0  0999 V2000
    8.3870   44.0520   49.0410 C   0  0  0  0  0  0  0  0  0  0  0  0
    7.4740   44.6300   50.0800 C   0  0  0  0  0  0  0  0  0  0  0  0
    7.8830   45.7290   50.8480 C   0  0  0  0  0  0  0  0  0  0  0  0
    7.0170   46.2940   51.7900 C   0  0  0  0  0  0  0  0  0  0  0  0
    5.7190   45.7850   51.9590 C   0  0  0  0  0  0  0  0  0  0  0  0
    4.7720   46.4060   52.9660 C   0  0  0  0  0  0  0  0  0  0  0  0
    4.3500   45.4470   54.1240 C   0  0  0  0  0  0  0  0  0  0  0  0
    5.5700   44.6210   54.5930 C   0  0  0  0  0  0  0  0  0  0  0  0
    3.8390   46.3110   55.2930 C   0  0  0  0  0  0  0  0  0  0  0  0
    3.2650   44.5570   53.6670 N   0  0  0  0  0  0  0  0  0  0  0  0
    1.9850   44.9980   53.1740 C   0  0  0  0  0  0  0  0  0  0  0  0
    1.8200   46.1890   52.7960 O   0  0  0  0  0  0  0  0  0  0  0  0
    0.8510   44.0630   53.0920 C   0  0  0  0  0  0  0  0  0  0  0  0
    0.0900   43.7810   51.9730 C   0  0  0  0  0  0  0  0  0  0  0  0
   -0.8040   42.8340   52.4250 C   0  0  0  0  0  0  0  0  0  0  0  0
   -1.8510   42.1800   51.6340 C   0  0  0  0  0  0  0  0  0  0  0  0
   -2.4880   42.7210   50.5310 C   0  0  0  0  0  0  0  0  0  0  0  0
   -3.3700   41.7390   50.1320 C   0  0  0  0  0  0  0  0  0  0  0  0
   -3.2520   40.6940   50.9720 N   0  0  0  0  0  0  0  0  0  0  0  0
   -3.9600   39.4250   50.8610 C   0  0  0  0  0  0  0  0  0  0  0  0
   -2.3240   40.9430   51.8810 N   0  0  0  0  0  0  0  0  0  0  0  0
   -0.5700   42.5960   53.6950 O   0  0  0  0  0  0  0  0  0  0  0  0
    0.4230   43.3170   54.1300 N   0  0  0  0  0  0  0  0  0  0  0  0
    5.3130   44.6820   51.1890 C   0  0  0  0  0  0  0  0  0  0  0  0
    6.1800   44.1170   50.2480 C   0  0  0  0  0  0  0  0  0  0  0  0
    9.2176   43.5261   49.5344 H   0  0  0  0  0  0  0  0  0  0  0  0
    7.8262   43.3440   48.4131 H   0  0  0  0  0  0  0  0  0  0  0  0
    8.7871   44.8617   48.4131 H   0  0  0  0  0  0  0  0  0  0  0  0
    8.8900   46.1492   50.7092 H   0  0  0  0  0  0  0  0  0  0  0  0
    7.3549   47.1428   52.4026 H   0  0  0  0  0  0  0  0  0  0  0  0
    5.2657   47.2841   53.4079 H   0  0  0  0  0  0  0  0  0  0  0  0
    3.8534   46.6640   52.4187 H   0  0  0  0  0  0  0  0  0  0  0  0
    5.5988   44.6015   55.6924 H   0  0  0  0  0  0  0  0  0  0  0  0
    5.4860   43.5932   54.2101 H   0  0  0  0  0  0  0  0  0  0  0  0
    6.4931   45.0807   54.2101 H   0  0  0  0  0  0  0  0  0  0  0  0
    4.1179   45.8394   56.2468 H   0  0  0  0  0  0  0  0  0  0  0  0
    4.2902   47.3124   55.2334 H   0  0  0  0  0  0  0  0  0  0  0  0
    2.7441   46.3980   55.2334 H   0  0  0  0  0  0  0  0  0  0  0  0
    3.4370   43.5300   53.6600 H   0  0  0  0  0  0  0  0  0  0  0  0
    0.1770   44.2096   50.9637 H   0  0  0  0  0  0  0  0  0  0  0  0
   -2.3273   43.7095   50.0760 H   0  0  0  0  0  0  0  0  0  0  0  0
   -4.0541   41.7994   49.2728 H   0  0  0  0  0  0  0  0  0  0  0  0
   -4.1766   39.0368   51.8672 H   0  0  0  0  0  0  0  0  0  0  0  0
   -4.9032   39.5778   50.3160 H   0  0  0  0  0  0  0  0  0  0  0  0
   -3.3346   38.7026   50.3160 H   0  0  0  0  0  0  0  0  0  0  0  0
    4.3066   44.2600   51.3272 H   0  0  0  0  0  0  0  0  0  0  0  0
    5.8450   43.2660   49.6368 H   0  0  0  0  0  0  0  0  0  0  0  0
  1  2  1  0
  2  3  2  0
  3  4  1  0
  4  5  2  0
  5  6  1  0
  6  7  1  0
  7  8  1  0
  7  9  1  0
  7 10  1  0
 10 11  1  0
 11 12  2  0
 11 13  1  0
 13 14  1  0
 14 15  2  0
 15 16  1  0
 16 17  1  0
 17 18  2  0
 18 19  1  0
 19 20  1  0
 19 21  1  0
 15 22  1  0
 22 23  1  0
  5 24  1  0
 24 25  2  0
 25  2  1  0
 23 13  2  0
 21 16  2  0
  1 26  1  0
  1 27  1  0
  1 28  1  0
  3 29  1  0
  4 30  1  0
  6 31  1  0
  6 32  1  0
  8 33  1  0
  8 34  1  0
  8 35  1  0
  9 36  1  0
  9 37  1  0
  9 38  1  0
 10 39  1  0
 14 40  1  0
 17 41  1  0
 18 42  1  0
 20 43  1  0
 20 44  1  0
 20 45  1  0
 24 46  1  0
 25 47  1  0
M  END
>  <meeko>  (5) 
{"is_sidechain": [false], "free_energy": -7.931, "intermolecular_energy": -10.065, "internal_energy": -0.014}

$$$$
