MODEL 1
REMARK VINA RESULT:    -8.758      0.000      0.000
REMARK INTER + INTRA:         -11.472
REMARK INTER:                 -10.806
REMARK INTRA:                  -0.667
REMARK UNBOUND:                -0.667
REMARK SMILES c1ccc(Oc2ccnc(N[C@H]3CC[C@H]4OCC[C@@H]4C3)n2)cc1
REMARK SMILES IDX 6 1 7 2 8 3 9 4 10 5 21 6 5 7 4 8 1 9 2 10 23 11 3 12 22 13
REMARK SMILES IDX 11 14 12 16 13 17 20 18 14 19 19 20 15 21 18 22 16 23 17 24
REMARK H PARENT 11 15
ROOT
ATOM      1  C   UNL     1       7.562  47.055  54.111  1.00  0.00     0.224 A 
ATOM      2  C   UNL     1       8.742  47.675  54.524  1.00  0.00     0.089 A 
ATOM      3  C   UNL     1       9.904  47.461  53.783  1.00  0.00     0.121 A 
ATOM      4  N   UNL     1       9.873  46.656  52.690  1.00  0.00    -0.221 NA
ATOM      5  C   UNL     1       8.720  46.052  52.297  1.00  0.00     0.226 A 
ATOM      6  N   UNL     1       7.578  46.252  53.011  1.00  0.00    -0.177 NA
ENDROOT
BRANCH   1   7
ATOM      7  O   UNL     1       6.392  47.232  54.859  1.00  0.00    -0.439 OA
BRANCH   7   8
ATOM      8  C   UNL     1       5.117  46.803  54.465  1.00  0.00     0.129 A 
ATOM      9  C   UNL     1       2.570  45.988  53.613  1.00  0.00     0.000 A 
ATOM     10  C   UNL     1       3.196  45.326  54.673  1.00  0.00     0.004 A 
ATOM     11  C   UNL     1       3.221  47.042  52.967  1.00  0.00     0.004 A 
ATOM     12  C   UNL     1       4.468  45.725  55.095  1.00  0.00     0.047 A 
ATOM     13  C   UNL     1       4.493  47.443  53.388  1.00  0.00     0.047 A 
ENDBRANCH   7   8
ENDBRANCH   1   7
BRANCH   5  14
ATOM     14  N   UNL     1       8.723  45.193  51.149  1.00  0.00    -0.351 N 
ATOM     15  H   UNL     1       9.423  44.417  51.132  1.00  0.00     0.163 HD
BRANCH  14  16
ATOM     16  C   UNL     1       7.734  45.313  50.069  1.00  0.00     0.082 C 
ATOM     17  C   UNL     1       7.968  44.209  48.996  1.00  0.00     0.027 C 
ATOM     18  C   UNL     1       6.287  45.291  50.635  1.00  0.00     0.031 C 
ATOM     19  C   UNL     1       7.451  42.817  49.420  1.00  0.00     0.034 C 
ATOM     20  C   UNL     1       5.907  43.862  51.041  1.00  0.00     0.022 C 
ATOM     21  C   UNL     1       5.991  42.949  49.849  1.00  0.00     0.121 C 
ATOM     22  C   UNL     1       4.499  43.604  51.486  1.00  0.00     0.035 C 
ATOM     23  O   UNL     1       5.392  41.743  50.241  1.00  0.00    -0.378 OA
ATOM     24  C   UNL     1       4.328  42.128  51.098  1.00  0.00     0.161 C 
ENDBRANCH  14  16
ENDBRANCH   5  14
TORSDOF 4
ENDMDL
MODEL 2
REMARK VINA RESULT:    -8.674      2.449      5.616
REMARK INTER + INTRA:         -11.369
REMARK INTER:                 -10.792
REMARK INTRA:                  -0.577
REMARK UNBOUND:                -0.667
REMARK SMILES c1ccc(Oc2ccnc(N[C@H]3CC[C@H]4OCC[C@@H]4C3)n2)cc1
REMARK SMILES IDX 6 1 7 2 8 3 9 4 10 5 21 6 5 7 4 8 1 9 2 10 23 11 3 12 22 13
REMARK SMILES IDX 11 14 12 16 13 17 20 18 14 19 19 20 15 21 18 22 16 23 17 24
REMARK H PARENT 11 15
ROOT
ATOM      1  C   UNL     1       7.717  44.846  50.208  1.00  0.00     0.224 A 
ATOM      2  C   UNL     1       7.970  43.806  49.313  1.00  0.00     0.089 A 
ATOM      3  C   UNL     1       6.977  42.850  49.101  1.00  0.00     0.121 A 
ATOM      4  N   UNL     1       5.796  42.940  49.766  1.00  0.00    -0.221 NA
ATOM      5  C   UNL     1       5.559  43.954  50.640  1.00  0.00     0.226 A 
ATOM      6  N   UNL     1       6.521  44.894  50.856  1.00  0.00    -0.177 NA
ENDROOT
BRANCH   1   7
ATOM      7  O   UNL     1       8.713  45.798  50.457  1.00  0.00    -0.439 OA
BRANCH   7   8
ATOM      8  C   UNL     1       8.863  46.503  51.659  1.00  0.00     0.129 A 
ATOM      9  C   UNL     1       9.228  47.874  54.081  1.00  0.00     0.000 A 
ATOM     10  C   UNL     1       8.281  48.329  53.158  1.00  0.00     0.004 A 
ATOM     11  C   UNL     1      10.004  46.750  53.789  1.00  0.00     0.004 A 
ATOM     12  C   UNL     1       8.103  47.652  51.948  1.00  0.00     0.047 A 
ATOM     13  C   UNL     1       9.826  46.071  52.579  1.00  0.00     0.047 A 
ENDBRANCH   7   8
ENDBRANCH   1   7
BRANCH   5  14
ATOM     14  N   UNL     1       4.310  44.012  51.342  1.00  0.00    -0.351 N 
ATOM     15  H   UNL     1       3.991  43.142  51.824  1.00  0.00     0.163 HD
BRANCH  14  16
ATOM     16  C   UNL     1       3.535  45.252  51.475  1.00  0.00     0.082 C 
ATOM     17  C   UNL     1       2.028  44.982  51.189  1.00  0.00     0.027 C 
ATOM     18  C   UNL     1       3.765  45.907  52.866  1.00  0.00     0.031 C 
ATOM     19  C   UNL     1       1.290  44.304  52.364  1.00  0.00     0.034 C 
ATOM     20  C   UNL     1       3.003  45.125  53.943  1.00  0.00     0.022 C 
ATOM     21  C   UNL     1       1.532  45.121  53.630  1.00  0.00     0.121 C 
ATOM     22  C   UNL     1       2.987  45.676  55.337  1.00  0.00     0.035 C 
ATOM     23  O   UNL     1       0.894  44.620  54.774  1.00  0.00    -0.378 OA
ATOM     24  C   UNL     1       1.656  45.118  55.863  1.00  0.00     0.161 C 
ENDBRANCH  14  16
ENDBRANCH   5  14
TORSDOF 4
ENDMDL
MODEL 3
REMARK VINA RESULT:    -8.525      3.140      6.291
REMARK INTER + INTRA:         -11.186
REMARK INTER:                 -10.677
REMARK INTRA:                  -0.509
REMARK UNBOUND:                -0.667
REMARK SMILES c1ccc(Oc2ccnc(N[C@H]3CC[C@H]4OCC[C@@H]4C3)n2)cc1
REMARK SMILES IDX 6 1 7 2 8 3 9 4 10 5 21 6 5 7 4 8 1 9 2 10 23 11 3 12 22 13
REMARK SMILES IDX 11 14 12 16 13 17 20 18 14 19 19 20 15 21 18 22 16 23 17 24
REMARK H PARENT 11 15
ROOT
ATOM      1  C   UNL     1       5.909  45.024  51.271  1.00  0.00     0.224 A 
ATOM      2  C   UNL     1       5.963  43.849  50.521  1.00  0.00     0.089 A 
ATOM      3  C   UNL     1       5.053  42.831  50.806  1.00  0.00     0.121 A 
ATOM      4  N   UNL     1       4.145  42.994  51.803  1.00  0.00    -0.221 NA
ATOM      5  C   UNL     1       4.102  44.140  52.533  1.00  0.00     0.226 A 
ATOM      6  N   UNL     1       4.984  45.141  52.264  1.00  0.00    -0.177 NA
ENDROOT
BRANCH   1   7
ATOM      7  O   UNL     1       6.833  46.045  51.021  1.00  0.00    -0.439 OA
BRANCH   7   8
ATOM      8  C   UNL     1       7.864  46.423  51.892  1.00  0.00     0.129 A 
ATOM      9  C   UNL     1       9.981  47.155  53.584  1.00  0.00     0.000 A 
ATOM     10  C   UNL     1       8.674  47.551  53.889  1.00  0.00     0.004 A 
ATOM     11  C   UNL     1      10.233  46.412  52.429  1.00  0.00     0.004 A 
ATOM     12  C   UNL     1       7.620  47.193  53.044  1.00  0.00     0.047 A 
ATOM     13  C   UNL     1       9.179  46.053  51.583  1.00  0.00     0.047 A 
ENDBRANCH   7   8
ENDBRANCH   1   7
BRANCH   5  14
ATOM     14  N   UNL     1       3.143  44.274  53.591  1.00  0.00    -0.351 N 
ATOM     15  H   UNL     1       3.091  43.501  54.292  1.00  0.00     0.163 HD
BRANCH  14  16
ATOM     16  C   UNL     1       2.321  45.478  53.764  1.00  0.00     0.082 C 
ATOM     17  C   UNL     1       1.665  45.885  52.411  1.00  0.00     0.027 C 
ATOM     18  C   UNL     1       1.272  45.279  54.893  1.00  0.00     0.031 C 
ATOM     19  C   UNL     1       0.448  45.014  52.030  1.00  0.00     0.034 C 
ATOM     20  C   UNL     1       0.134  44.379  54.396  1.00  0.00     0.022 C 
ATOM     21  C   UNL     1      -0.531  45.004  53.201  1.00  0.00     0.121 C 
ATOM     22  C   UNL     1      -1.048  44.173  55.294  1.00  0.00     0.035 C 
ATOM     23  O   UNL     1      -1.699  44.260  52.974  1.00  0.00    -0.378 OA
ATOM     24  C   UNL     1      -2.159  43.903  54.268  1.00  0.00     0.161 C 
ENDBRANCH  14  16
ENDBRANCH   5  14
TORSDOF 4
ENDMDL
MODEL 4
REMARK VINA RESULT:    -8.489      2.047      4.631
REMARK INTER + INTRA:         -11.141
REMARK INTER:                 -10.730
REMARK INTRA:                  -0.411
REMARK UNBOUND:                -0.667
REMARK SMILES c1ccc(Oc2ccnc(N[C@H]3CC[C@H]4OCC[C@@H]4C3)n2)cc1
REMARK SMILES IDX 6 1 7 2 8 3 9 4 10 5 21 6 5 7 4 8 1 9 2 10 23 11 3 12 22 13
REMARK SMILES IDX 11 14 12 16 13 17 20 18 14 19 19 20 15 21 18 22 16 23 17 24
REMARK H PARENT 11 15
ROOT
ATOM      1  C   UNL     1       5.391  45.999  54.758  1.00  0.00     0.224 A 
ATOM      2  C   UNL     1       4.264  46.624  55.294  1.00  0.00     0.089 A 
ATOM      3  C   UNL     1       3.010  46.063  55.052  1.00  0.00     0.121 A 
ATOM      4  N   UNL     1       2.905  44.937  54.300  1.00  0.00    -0.221 NA
ATOM      5  C   UNL     1       4.007  44.338  53.776  1.00  0.00     0.226 A 
ATOM      6  N   UNL     1       5.237  44.875  54.006  1.00  0.00    -0.177 NA
ENDROOT
BRANCH   1   7
ATOM      7  O   UNL     1       6.655  46.564  54.965  1.00  0.00    -0.439 OA
BRANCH   7   8
ATOM      8  C   UNL     1       7.602  46.797  53.958  1.00  0.00     0.129 A 
ATOM      9  C   UNL     1       9.552  47.227  51.986  1.00  0.00     0.000 A 
ATOM     10  C   UNL     1       8.206  47.475  51.701  1.00  0.00     0.004 A 
ATOM     11  C   UNL     1       9.923  46.747  53.245  1.00  0.00     0.004 A 
ATOM     12  C   UNL     1       7.232  47.254  52.680  1.00  0.00     0.047 A 
ATOM     13  C   UNL     1       8.950  46.527  54.225  1.00  0.00     0.047 A 
ENDBRANCH   7   8
ENDBRANCH   1   7
BRANCH   5  14
ATOM     14  N   UNL     1       3.862  43.160  52.971  1.00  0.00    -0.351 N 
ATOM     15  H   UNL     1       3.915  42.237  53.457  1.00  0.00     0.163 HD
BRANCH  14  16
ATOM     16  C   UNL     1       3.556  43.218  51.536  1.00  0.00     0.082 C 
ATOM     17  C   UNL     1       3.688  44.679  51.012  1.00  0.00     0.027 C 
ATOM     18  C   UNL     1       4.442  42.221  50.737  1.00  0.00     0.031 C 
ATOM     19  C   UNL     1       5.150  45.127  50.798  1.00  0.00     0.034 C 
ATOM     20  C   UNL     1       5.869  42.770  50.618  1.00  0.00     0.022 C 
ATOM     21  C   UNL     1       5.852  44.099  49.913  1.00  0.00     0.121 C 
ATOM     22  C   UNL     1       6.846  42.019  49.766  1.00  0.00     0.035 C 
ATOM     23  O   UNL     1       7.190  44.401  49.623  1.00  0.00    -0.378 OA
ATOM     24  C   UNL     1       7.788  43.149  49.325  1.00  0.00     0.161 C 
ENDBRANCH  14  16
ENDBRANCH   5  14
TORSDOF 4
ENDMDL
MODEL 5
REMARK VINA RESULT:    -8.480      1.888      4.950
REMARK INTER + INTRA:         -11.129
REMARK INTER:                 -11.104
REMARK INTRA:                  -0.025
REMARK UNBOUND:                -0.667
REMARK SMILES c1ccc(Oc2ccnc(N[C@H]3CC[C@H]4OCC[C@@H]4C3)n2)cc1
REMARK SMILES IDX 6 1 7 2 8 3 9 4 10 5 21 6 5 7 4 8 1 9 2 10 23 11 3 12 22 13
REMARK SMILES IDX 11 14 12 16 13 17 20 18 14 19 19 20 15 21 18 22 16 23 17 24
REMARK H PARENT 11 15
ROOT
ATOM      1  C   UNL     1       8.186  46.507  52.166  1.00  0.00     0.224 A 
ATOM      2  C   UNL     1       9.094  47.414  52.714  1.00  0.00     0.089 A 
ATOM      3  C   UNL     1       8.870  47.886  54.006  1.00  0.00     0.121 A 
ATOM      4  N   UNL     1       7.781  47.468  54.702  1.00  0.00    -0.221 NA
ATOM      5  C   UNL     1       6.898  46.588  54.159  1.00  0.00     0.226 A 
ATOM      6  N   UNL     1       7.105  46.119  52.897  1.00  0.00    -0.177 NA
ENDROOT
BRANCH   1   7
ATOM      7  O   UNL     1       8.377  46.045  50.858  1.00  0.00    -0.439 OA
BRANCH   7   8
ATOM      8  C   UNL     1       7.685  44.973  50.279  1.00  0.00     0.129 A 
ATOM      9  C   UNL     1       6.366  42.801  49.086  1.00  0.00     0.000 A 
ATOM     10  C   UNL     1       5.715  43.563  50.061  1.00  0.00     0.004 A 
ATOM     11  C   UNL     1       7.679  43.111  48.720  1.00  0.00     0.004 A 
ATOM     12  C   UNL     1       6.372  44.640  50.662  1.00  0.00     0.047 A 
ATOM     13  C   UNL     1       8.337  44.189  49.319  1.00  0.00     0.047 A 
ENDBRANCH   7   8
ENDBRANCH   1   7
BRANCH   5  14
ATOM     14  N   UNL     1       5.747  46.179  54.911  1.00  0.00    -0.351 N 
ATOM     15  H   UNL     1       5.835  45.313  55.488  1.00  0.00     0.163 HD
BRANCH  14  16
ATOM     16  C   UNL     1       4.515  46.976  54.964  1.00  0.00     0.082 C 
ATOM     17  C   UNL     1       4.302  47.734  53.620  1.00  0.00     0.027 C 
ATOM     18  C   UNL     1       3.295  46.090  55.343  1.00  0.00     0.031 C 
ATOM     19  C   UNL     1       3.765  46.835  52.484  1.00  0.00     0.034 C 
ATOM     20  C   UNL     1       2.880  45.232  54.142  1.00  0.00     0.022 C 
ATOM     21  C   UNL     1       2.514  46.115  52.981  1.00  0.00     0.121 C 
ATOM     22  C   UNL     1       1.636  44.404  54.261  1.00  0.00     0.035 C 
ATOM     23  O   UNL     1       1.912  45.277  52.030  1.00  0.00    -0.378 OA
ATOM     24  C   UNL     1       1.188  44.324  52.794  1.00  0.00     0.161 C 
ENDBRANCH  14  16
ENDBRANCH   5  14
TORSDOF 4
ENDMDL
