MODEL 1
REMARK VINA RESULT:    -8.592      0.000      0.000
REMARK INTER + INTRA:         -11.329
REMARK INTER:                 -10.602
REMARK INTRA:                  -0.727
REMARK UNBOUND:                -0.727
REMARK SMILES CSc1cc(C)ccc1C(=O)Nc1[nH]nnc1C(=O)N1CCCC1
REMARK SMILES IDX 3 1 4 2 5 3 6 4 7 5 8 6 9 7 2 8 1 9 10 10 11 11 12 12 13 14
REMARK SMILES IDX 14 15 17 16 15 17 16 18 18 20 19 21 20 22 21 23 24 24 22 25
REMARK SMILES IDX 23 26
REMARK H PARENT 12 13 14 19
ROOT
ATOM      1  C   UNL     1       6.502  46.315  52.215  1.00  0.00     0.020 A 
ATOM      2  C   UNL     1       7.783  46.220  51.653  1.00  0.00     0.019 A 
ATOM      3  C   UNL     1       8.924  46.467  52.429  1.00  0.00    -0.050 A 
ATOM      4  C   UNL     1      10.289  46.396  51.811  1.00  0.00     0.044 C 
ATOM      5  C   UNL     1       8.777  46.837  53.773  1.00  0.00     0.004 A 
ATOM      6  C   UNL     1       7.504  46.938  54.339  1.00  0.00     0.015 A 
ATOM      7  C   UNL     1       6.357  46.695  53.568  1.00  0.00     0.053 A 
ENDROOT
BRANCH   1   8
ATOM      8  S   UNL     1       5.088  45.883  51.187  1.00  0.00    -0.129 SA
ATOM      9  C   UNL     1       5.354  44.091  51.358  1.00  0.00     0.091 C 
ENDBRANCH   1   8
BRANCH   7  10
ATOM     10  C   UNL     1       5.034  46.827  54.206  1.00  0.00     0.258 C 
ATOM     11  O   UNL     1       4.604  47.978  54.489  1.00  0.00    -0.269 OA
ATOM     12  N   UNL     1       4.238  45.665  54.485  1.00  0.00    -0.305 N 
ATOM     13  H   UNL     1       4.656  44.718  54.349  1.00  0.00     0.171 HD
BRANCH  12  14
ATOM     14  C   UNL     1       2.952  45.737  55.111  1.00  0.00     0.162 A 
ATOM     15  N   UNL     1       2.769  45.819  56.436  1.00  0.00    -0.242 N 
ATOM     16  C   UNL     1       1.704  45.723  54.516  1.00  0.00     0.194 A 
ATOM     17  N   UNL     1       1.465  45.871  56.654  1.00  0.00    -0.067 NA
ATOM     18  N   UNL     1       0.796  45.808  55.509  1.00  0.00    -0.123 NA
ATOM     19  H   UNL     1       3.503  45.851  57.178  1.00  0.00     0.194 HD
BRANCH  16  20
ATOM     20  C   UNL     1       1.379  45.489  53.092  1.00  0.00     0.278 C 
ATOM     21  O   UNL     1       1.717  46.359  52.244  1.00  0.00    -0.267 OA
ATOM     22  N   UNL     1       0.697  44.302  52.645  1.00  0.00    -0.337 N 
ATOM     23  C   UNL     1       0.293  44.115  51.261  1.00  0.00     0.120 C 
ATOM     24  C   UNL     1       0.224  43.234  53.512  1.00  0.00     0.120 C 
ATOM     25  C   UNL     1      -0.657  42.926  51.261  1.00  0.00     0.023 C 
ATOM     26  C   UNL     1      -0.442  42.216  52.594  1.00  0.00     0.023 C 
ENDBRANCH  16  20
ENDBRANCH  12  14
ENDBRANCH   7  10
TORSDOF 4
ENDMDL
MODEL 2
REMARK VINA RESULT:    -8.205      2.005      3.735
REMARK INTER + INTRA:         -10.850
REMARK INTER:                 -10.274
REMARK INTRA:                  -0.576
REMARK UNBOUND:                -0.727
REMARK SMILES CSc1cc(C)ccc1C(=O)Nc1[nH]nnc1C(=O)N1CCCC1
REMARK SMILES IDX 3 1 4 2 5 3 6 4 7 5 8 6 9 7 2 8 1 9 10 10 11 11 12 12 13 14
REMARK SMILES IDX 14 15 17 16 15 17 16 18 18 20 19 21 20 22 21 23 24 24 22 25
REMARK SMILES IDX 23 26
REMARK H PARENT 12 13 14 19
ROOT
ATOM      1  C   UNL     1       5.695  46.719  52.439  1.00  0.00     0.020 A 
ATOM      2  C   UNL     1       7.066  46.956  52.608  1.00  0.00     0.019 A 
ATOM      3  C   UNL     1       8.003  46.386  51.735  1.00  0.00    -0.050 A 
ATOM      4  C   UNL     1       9.470  46.618  51.944  1.00  0.00     0.044 C 
ATOM      5  C   UNL     1       7.562  45.552  50.700  1.00  0.00     0.004 A 
ATOM      6  C   UNL     1       6.197  45.306  50.527  1.00  0.00     0.015 A 
ATOM      7  C   UNL     1       5.254  45.871  51.398  1.00  0.00     0.053 A 
ENDROOT
BRANCH   1   8
ATOM      8  S   UNL     1       4.543  47.566  53.534  1.00  0.00    -0.129 SA
ATOM      9  C   UNL     1       4.970  46.542  54.977  1.00  0.00     0.091 C 
ENDBRANCH   1   8
BRANCH   7  10
ATOM     10  C   UNL     1       3.826  45.573  51.184  1.00  0.00     0.258 C 
ATOM     11  O   UNL     1       3.139  46.349  50.467  1.00  0.00    -0.269 OA
ATOM     12  N   UNL     1       3.228  44.404  51.768  1.00  0.00    -0.305 N 
ATOM     13  H   UNL     1       3.780  43.837  52.448  1.00  0.00     0.171 HD
BRANCH  12  14
ATOM     14  C   UNL     1       1.845  44.074  51.600  1.00  0.00     0.162 A 
ATOM     15  N   UNL     1       1.337  43.523  50.489  1.00  0.00    -0.242 N 
ATOM     16  C   UNL     1       0.803  44.257  52.491  1.00  0.00     0.194 A 
ATOM     17  N   UNL     1       0.039  43.355  50.687  1.00  0.00    -0.067 NA
ATOM     18  N   UNL     1      -0.312  43.796  51.889  1.00  0.00    -0.123 NA
ATOM     19  H   UNL     1       1.851  43.255  49.622  1.00  0.00     0.194 HD
BRANCH  16  20
ATOM     20  C   UNL     1       0.831  44.968  53.787  1.00  0.00     0.278 C 
ATOM     21  O   UNL     1       1.746  45.811  53.996  1.00  0.00    -0.267 OA
ATOM     22  N   UNL     1      -0.154  44.734  54.813  1.00  0.00    -0.337 N 
ATOM     23  C   UNL     1      -0.074  45.362  56.122  1.00  0.00     0.120 C 
ATOM     24  C   UNL     1      -1.244  43.775  54.722  1.00  0.00     0.120 C 
ATOM     25  C   UNL     1      -1.080  44.629  56.998  1.00  0.00     0.023 C 
ATOM     26  C   UNL     1      -1.998  43.874  56.042  1.00  0.00     0.023 C 
ENDBRANCH  16  20
ENDBRANCH  12  14
ENDBRANCH   7  10
TORSDOF 4
ENDMDL
MODEL 3
REMARK VINA RESULT:    -8.141      1.997      2.710
REMARK INTER + INTRA:         -10.771
REMARK INTER:                  -9.964
REMARK INTRA:                  -0.807
REMARK UNBOUND:                -0.727
REMARK SMILES CSc1cc(C)ccc1C(=O)Nc1[nH]nnc1C(=O)N1CCCC1
REMARK SMILES IDX 3 1 4 2 5 3 6 4 7 5 8 6 9 7 2 8 1 9 10 10 11 11 12 12 13 14
REMARK SMILES IDX 14 15 17 16 15 17 16 18 18 20 19 21 20 22 21 23 24 24 22 25
REMARK SMILES IDX 23 26
REMARK H PARENT 12 13 14 19
ROOT
ATOM      1  C   UNL     1       5.049  43.764  50.971  1.00  0.00     0.020 A 
ATOM      2  C   UNL     1       6.150  43.516  50.139  1.00  0.00     0.019 A 
ATOM      3  C   UNL     1       7.213  44.428  50.068  1.00  0.00    -0.050 A 
ATOM      4  C   UNL     1       8.370  44.170  49.151  1.00  0.00     0.044 C 
ATOM      5  C   UNL     1       7.156  45.610  50.819  1.00  0.00     0.004 A 
ATOM      6  C   UNL     1       6.061  45.868  51.646  1.00  0.00     0.015 A 
ATOM      7  C   UNL     1       4.993  44.961  51.720  1.00  0.00     0.053 A 
ENDROOT
BRANCH   1   8
ATOM      8  S   UNL     1       3.771  42.501  51.090  1.00  0.00    -0.129 SA
ATOM      9  C   UNL     1       4.775  41.231  50.259  1.00  0.00     0.091 C 
ENDBRANCH   1   8
BRANCH   7  10
ATOM     10  C   UNL     1       3.852  45.282  52.597  1.00  0.00     0.258 C 
ATOM     11  O   UNL     1       3.024  46.158  52.228  1.00  0.00    -0.269 OA
ATOM     12  N   UNL     1       3.673  44.594  53.845  1.00  0.00    -0.305 N 
ATOM     13  H   UNL     1       4.427  43.957  54.186  1.00  0.00     0.171 HD
BRANCH  12  14
ATOM     14  C   UNL     1       2.589  44.874  54.738  1.00  0.00     0.162 A 
ATOM     15  N   UNL     1       2.703  45.629  55.839  1.00  0.00    -0.242 N 
ATOM     16  C   UNL     1       1.279  44.438  54.663  1.00  0.00     0.194 A 
ATOM     17  N   UNL     1       1.511  45.675  56.414  1.00  0.00    -0.067 NA
ATOM     18  N   UNL     1       0.632  44.956  55.726  1.00  0.00    -0.123 NA
ATOM     19  H   UNL     1       3.557  46.113  56.191  1.00  0.00     0.194 HD
BRANCH  16  20
ATOM     20  C   UNL     1       0.701  43.458  53.718  1.00  0.00     0.278 C 
ATOM     21  O   UNL     1       1.088  42.259  53.777  1.00  0.00    -0.267 OA
ATOM     22  N   UNL     1      -0.290  43.827  52.739  1.00  0.00    -0.337 N 
ATOM     23  C   UNL     1      -0.789  42.887  51.749  1.00  0.00     0.120 C 
ATOM     24  C   UNL     1      -0.805  45.172  52.539  1.00  0.00     0.120 C 
ATOM     25  C   UNL     1      -1.549  43.721  50.727  1.00  0.00     0.023 C 
ATOM     26  C   UNL     1      -1.806  45.069  51.394  1.00  0.00     0.023 C 
ENDBRANCH  16  20
ENDBRANCH  12  14
ENDBRANCH   7  10
TORSDOF 4
ENDMDL
MODEL 4
REMARK VINA RESULT:    -8.075      2.368      3.840
REMARK INTER + INTRA:         -10.690
REMARK INTER:                  -9.964
REMARK INTRA:                  -0.726
REMARK UNBOUND:                -0.727
REMARK SMILES CSc1cc(C)ccc1C(=O)Nc1[nH]nnc1C(=O)N1CCCC1
REMARK SMILES IDX 3 1 4 2 5 3 6 4 7 5 8 6 9 7 2 8 1 9 10 10 11 11 12 12 13 14
REMARK SMILES IDX 14 15 17 16 15 17 16 18 18 20 19 21 20 22 21 23 24 24 22 25
REMARK SMILES IDX 23 26
REMARK H PARENT 12 13 14 19
ROOT
ATOM      1  C   UNL     1       6.305  46.152  53.583  1.00  0.00     0.020 A 
ATOM      2  C   UNL     1       7.233  46.894  54.326  1.00  0.00     0.019 A 
ATOM      3  C   UNL     1       8.507  47.168  53.808  1.00  0.00    -0.050 A 
ATOM      4  C   UNL     1       9.506  47.934  54.624  1.00  0.00     0.044 C 
ATOM      5  C   UNL     1       8.859  46.672  52.546  1.00  0.00     0.004 A 
ATOM      6  C   UNL     1       7.941  45.928  51.801  1.00  0.00     0.015 A 
ATOM      7  C   UNL     1       6.666  45.647  52.314  1.00  0.00     0.053 A 
ENDROOT
BRANCH   1   8
ATOM      8  S   UNL     1       4.654  45.925  54.268  1.00  0.00    -0.129 SA
ATOM      9  C   UNL     1       3.979  47.406  53.453  1.00  0.00     0.091 C 
ENDBRANCH   1   8
BRANCH   7  10
ATOM     10  C   UNL     1       5.735  44.846  51.497  1.00  0.00     0.258 C 
ATOM     11  O   UNL     1       5.429  45.251  50.343  1.00  0.00    -0.269 OA
ATOM     12  N   UNL     1       5.198  43.612  51.999  1.00  0.00    -0.305 N 
ATOM     13  H   UNL     1       5.372  43.351  52.995  1.00  0.00     0.171 HD
BRANCH  12  14
ATOM     14  C   UNL     1       4.284  42.802  51.252  1.00  0.00     0.162 A 
ATOM     15  N   UNL     1       4.649  41.729  50.537  1.00  0.00    -0.242 N 
ATOM     16  C   UNL     1       2.918  42.956  51.109  1.00  0.00     0.194 A 
ATOM     17  N   UNL     1       3.554  41.228  49.987  1.00  0.00    -0.067 NA
ATOM     18  N   UNL     1       2.492  41.956  50.312  1.00  0.00    -0.123 NA
ATOM     19  H   UNL     1       5.608  41.334  50.429  1.00  0.00     0.194 HD
BRANCH  16  20
ATOM     20  C   UNL     1       2.076  44.079  51.578  1.00  0.00     0.278 C 
ATOM     21  O   UNL     1       2.286  45.230  51.107  1.00  0.00    -0.267 OA
ATOM     22  N   UNL     1       1.027  43.898  52.549  1.00  0.00    -0.337 N 
ATOM     23  C   UNL     1       0.263  45.016  53.080  1.00  0.00     0.120 C 
ATOM     24  C   UNL     1       0.694  42.639  53.195  1.00  0.00     0.120 C 
ATOM     25  C   UNL     1      -0.497  44.467  54.279  1.00  0.00     0.023 C 
ATOM     26  C   UNL     1      -0.458  42.948  54.143  1.00  0.00     0.023 C 
ENDBRANCH  16  20
ENDBRANCH  12  14
ENDBRANCH   7  10
TORSDOF 4
ENDMDL
MODEL 5
REMARK VINA RESULT:    -8.041      1.800      2.785
REMARK INTER + INTRA:         -10.648
REMARK INTER:                  -9.932
REMARK INTRA:                  -0.717
REMARK UNBOUND:                -0.727
REMARK SMILES CSc1cc(C)ccc1C(=O)Nc1[nH]nnc1C(=O)N1CCCC1
REMARK SMILES IDX 3 1 4 2 5 3 6 4 7 5 8 6 9 7 2 8 1 9 10 10 11 11 12 12 13 14
REMARK SMILES IDX 14 15 17 16 15 17 16 18 18 20 19 21 20 22 21 23 24 24 22 25
REMARK SMILES IDX 23 26
REMARK H PARENT 12 13 14 19
ROOT
ATOM      1  C   UNL     1       6.534  45.914  51.700  1.00  0.00     0.020 A 
ATOM      2  C   UNL     1       7.586  45.572  50.840  1.00  0.00     0.019 A 
ATOM      3  C   UNL     1       7.470  44.482  49.966  1.00  0.00    -0.050 A 
ATOM      4  C   UNL     1       8.614  44.103  49.074  1.00  0.00     0.044 C 
ATOM      5  C   UNL     1       6.297  43.716  49.973  1.00  0.00     0.004 A 
ATOM      6  C   UNL     1       5.245  44.047  50.830  1.00  0.00     0.015 A 
ATOM      7  C   UNL     1       5.355  45.134  51.710  1.00  0.00     0.053 A 
ENDROOT
BRANCH   1   8
ATOM      8  S   UNL     1       6.714  47.387  52.722  1.00  0.00    -0.129 SA
ATOM      9  C   UNL     1       8.328  47.833  52.010  1.00  0.00     0.091 C 
ENDBRANCH   1   8
BRANCH   7  10
ATOM     10  C   UNL     1       4.224  45.438  52.606  1.00  0.00     0.258 C 
ATOM     11  O   UNL     1       3.466  46.407  52.328  1.00  0.00    -0.269 OA
ATOM     12  N   UNL     1       3.975  44.632  53.767  1.00  0.00    -0.305 N 
ATOM     13  H   UNL     1       4.675  43.907  54.042  1.00  0.00     0.171 HD
BRANCH  12  14
ATOM     14  C   UNL     1       2.897  44.889  54.674  1.00  0.00     0.162 A 
ATOM     15  N   UNL     1       3.026  45.589  55.809  1.00  0.00    -0.242 N 
ATOM     16  C   UNL     1       1.579  44.480  54.582  1.00  0.00     0.194 A 
ATOM     17  N   UNL     1       1.836  45.629  56.389  1.00  0.00    -0.067 NA
ATOM     18  N   UNL     1       0.943  44.959  55.669  1.00  0.00    -0.123 NA
ATOM     19  H   UNL     1       3.889  46.041  56.182  1.00  0.00     0.194 HD
BRANCH  16  20
ATOM     20  C   UNL     1       0.982  43.555  53.593  1.00  0.00     0.278 C 
ATOM     21  O   UNL     1       1.421  42.374  53.527  1.00  0.00    -0.267 OA
ATOM     22  N   UNL     1      -0.083  43.958  52.711  1.00  0.00    -0.337 N 
ATOM     23  C   UNL     1      -0.605  43.081  51.676  1.00  0.00     0.120 C 
ATOM     24  C   UNL     1      -0.664  45.290  52.657  1.00  0.00     0.120 C 
ATOM     25  C   UNL     1      -1.462  43.961  50.777  1.00  0.00     0.023 C 
ATOM     26  C   UNL     1      -1.731  45.236  51.570  1.00  0.00     0.023 C 
ENDBRANCH  16  20
ENDBRANCH  12  14
ENDBRANCH   7  10
TORSDOF 4
ENDMDL
