MODEL 1
REMARK VINA RESULT:    -8.912      0.000      0.000
REMARK INTER + INTRA:         -11.598
REMARK INTER:                 -10.996
REMARK INTRA:                  -0.602
REMARK UNBOUND:                -0.602
REMARK SMILES O=C(c1ccc2cc(-c3ccccc3)[nH]c2c1)N1CC(NC2CCOCC2)C1
REMARK SMILES IDX 1 1 2 2 18 3 19 4 20 5 28 6 3 7 4 8 17 9 5 10 16 11 6 12
REMARK SMILES IDX 15 13 7 14 8 15 9 17 10 18 14 19 11 20 13 21 12 22 21 23
REMARK SMILES IDX 22 25 23 26 27 27 24 28 26 29 25 30
REMARK H PARENT 15 16 21 24
ROOT
ATOM      1  O   UNL     1       0.308  42.714  52.450  1.00  0.00    -0.269 OA
ATOM      2  C   UNL     1       0.756  43.704  53.088  1.00  0.00     0.254 C 
ATOM      3  N   UNL     1       0.032  44.176  54.227  1.00  0.00    -0.335 N 
ATOM      4  C   UNL     1       0.020  45.336  55.141  1.00  0.00     0.140 C 
ATOM      5  C   UNL     1      -1.251  44.972  55.845  1.00  0.00     0.093 C 
ATOM      6  C   UNL     1      -1.218  43.801  54.914  1.00  0.00     0.140 C 
ENDROOT
BRANCH   2   7
ATOM      7  C   UNL     1       1.984  44.378  52.616  1.00  0.00     0.042 A 
ATOM      8  C   UNL     1       2.025  44.924  51.304  1.00  0.00     0.014 A 
ATOM      9  C   UNL     1       3.129  44.465  53.439  1.00  0.00     0.040 A 
ATOM     10  C   UNL     1       3.180  45.570  50.828  1.00  0.00     0.011 A 
ATOM     11  C   UNL     1       4.257  45.111  52.935  1.00  0.00     0.047 A 
ATOM     12  C   UNL     1       4.278  45.647  51.678  1.00  0.00     0.000 A 
ATOM     13  N   UNL     1       5.435  45.294  53.555  1.00  0.00    -0.355 N 
ATOM     14  C   UNL     1       5.522  46.204  51.485  1.00  0.00     0.037 A 
ATOM     15  C   UNL     1       6.219  45.965  52.673  1.00  0.00     0.046 A 
ATOM     16  H   UNL     1       5.673  44.995  54.526  1.00  0.00     0.167 HD
BRANCH  15  17
ATOM     17  C   UNL     1       7.617  46.379  52.950  1.00  0.00    -0.002 A 
ATOM     18  C   UNL     1       8.617  46.229  51.971  1.00  0.00     0.010 A 
ATOM     19  C   UNL     1       7.967  46.932  54.198  1.00  0.00     0.010 A 
ATOM     20  C   UNL     1       9.933  46.620  52.235  1.00  0.00     0.001 A 
ATOM     21  C   UNL     1       9.286  47.321  54.456  1.00  0.00     0.001 A 
ATOM     22  C   UNL     1      10.267  47.165  53.477  1.00  0.00     0.000 A 
ENDBRANCH  15  17
ENDBRANCH   2   7
BRANCH   5  23
ATOM     23  N   UNL     1      -2.351  45.899  55.543  1.00  0.00    -0.308 NA
ATOM     24  H   UNL     1      -2.972  45.450  54.831  1.00  0.00     0.123 HD
BRANCH  23  25
ATOM     25  C   UNL     1      -3.125  46.240  56.755  1.00  0.00     0.058 C 
ATOM     26  C   UNL     1      -2.172  46.399  57.949  1.00  0.00     0.047 C 
ATOM     27  C   UNL     1      -3.974  47.519  56.576  1.00  0.00     0.047 C 
ATOM     28  C   UNL     1      -1.445  47.748  57.892  1.00  0.00     0.161 C 
ATOM     29  C   UNL     1      -3.116  48.791  56.675  1.00  0.00     0.161 C 
ATOM     30  O   UNL     1      -2.373  48.816  57.878  1.00  0.00    -0.381 OA
ENDBRANCH  23  25
ENDBRANCH   5  23
TORSDOF 4
ENDMDL
MODEL 2
REMARK VINA RESULT:    -8.884      2.800      8.934
REMARK INTER + INTRA:         -11.563
REMARK INTER:                 -11.190
REMARK INTRA:                  -0.374
REMARK UNBOUND:                -0.602
REMARK SMILES O=C(c1ccc2cc(-c3ccccc3)[nH]c2c1)N1CC(NC2CCOCC2)C1
REMARK SMILES IDX 1 1 2 2 18 3 19 4 20 5 28 6 3 7 4 8 17 9 5 10 16 11 6 12
REMARK SMILES IDX 15 13 7 14 8 15 9 17 10 18 14 19 11 20 13 21 12 22 21 23
REMARK SMILES IDX 22 25 23 26 27 27 24 28 26 29 25 30
REMARK H PARENT 15 16 21 24
ROOT
ATOM      1  O   UNL     1       3.717  42.028  51.324  1.00  0.00    -0.269 OA
ATOM      2  C   UNL     1       3.632  43.205  51.767  1.00  0.00     0.254 C 
ATOM      3  N   UNL     1       4.603  44.169  51.353  1.00  0.00    -0.335 N 
ATOM      4  C   UNL     1       5.042  45.535  51.703  1.00  0.00     0.140 C 
ATOM      5  C   UNL     1       6.259  45.542  50.831  1.00  0.00     0.093 C 
ATOM      6  C   UNL     1       5.796  44.161  50.485  1.00  0.00     0.140 C 
ENDROOT
BRANCH   2   7
ATOM      7  C   UNL     1       2.568  43.542  52.735  1.00  0.00     0.042 A 
ATOM      8  C   UNL     1       1.309  42.888  52.652  1.00  0.00     0.014 A 
ATOM      9  C   UNL     1       2.774  44.527  53.728  1.00  0.00     0.040 A 
ATOM     10  C   UNL     1       0.279  43.190  53.560  1.00  0.00     0.011 A 
ATOM     11  C   UNL     1       1.730  44.802  54.610  1.00  0.00     0.047 A 
ATOM     12  C   UNL     1       0.530  44.153  54.531  1.00  0.00     0.000 A 
ATOM     13  N   UNL     1       1.727  45.696  55.613  1.00  0.00    -0.355 N 
ATOM     14  C   UNL     1      -0.278  44.649  55.529  1.00  0.00     0.037 A 
ATOM     15  C   UNL     1       0.498  45.610  56.185  1.00  0.00     0.046 A 
ATOM     16  H   UNL     1       2.524  46.308  55.896  1.00  0.00     0.167 HD
BRANCH  15  17
ATOM     17  C   UNL     1       0.060  46.428  57.342  1.00  0.00    -0.002 A 
ATOM     18  C   UNL     1      -1.279  46.846  57.458  1.00  0.00     0.010 A 
ATOM     19  C   UNL     1       0.976  46.800  58.346  1.00  0.00     0.010 A 
ATOM     20  C   UNL     1      -1.689  47.617  58.551  1.00  0.00     0.001 A 
ATOM     21  C   UNL     1       0.560  47.572  59.436  1.00  0.00     0.001 A 
ATOM     22  C   UNL     1      -0.770  47.980  59.538  1.00  0.00     0.000 A 
ENDBRANCH  15  17
ENDBRANCH   2   7
BRANCH   5  23
ATOM     23  N   UNL     1       7.509  45.538  51.604  1.00  0.00    -0.308 NA
ATOM     24  H   UNL     1       8.044  44.673  51.358  1.00  0.00     0.123 HD
BRANCH  23  25
ATOM     25  C   UNL     1       8.324  46.739  51.329  1.00  0.00     0.058 C 
ATOM     26  C   UNL     1       7.876  47.888  52.245  1.00  0.00     0.047 C 
ATOM     27  C   UNL     1       9.839  46.481  51.502  1.00  0.00     0.047 C 
ATOM     28  C   UNL     1       8.421  47.700  53.666  1.00  0.00     0.161 C 
ATOM     29  C   UNL     1      10.247  46.451  52.984  1.00  0.00     0.161 C 
ATOM     30  O   UNL     1       9.833  47.626  53.653  1.00  0.00    -0.381 OA
ENDBRANCH  23  25
ENDBRANCH   5  23
TORSDOF 4
ENDMDL
MODEL 3
REMARK VINA RESULT:    -8.761      3.301      9.070
REMARK INTER + INTRA:         -11.412
REMARK INTER:                 -11.347
REMARK INTRA:                  -0.065
REMARK UNBOUND:                -0.602
REMARK SMILES O=C(c1ccc2cc(-c3ccccc3)[nH]c2c1)N1CC(NC2CCOCC2)C1
REMARK SMILES IDX 1 1 2 2 18 3 19 4 20 5 28 6 3 7 4 8 17 9 5 10 16 11 6 12
REMARK SMILES IDX 15 13 7 14 8 15 9 17 10 18 14 19 11 20 13 21 12 22 21 23
REMARK SMILES IDX 22 25 23 26 27 27 24 28 26 29 25 30
REMARK H PARENT 15 16 21 24
ROOT
ATOM      1  O   UNL     1       6.148  41.691  49.622  1.00  0.00    -0.269 OA
ATOM      2  C   UNL     1       5.770  42.742  50.205  1.00  0.00     0.254 C 
ATOM      3  N   UNL     1       6.646  43.873  50.223  1.00  0.00    -0.335 N 
ATOM      4  C   UNL     1       6.761  45.186  50.888  1.00  0.00     0.140 C 
ATOM      5  C   UNL     1       8.136  45.501  50.387  1.00  0.00     0.093 C 
ATOM      6  C   UNL     1       7.998  44.169  49.717  1.00  0.00     0.140 C 
ENDROOT
BRANCH   2   7
ATOM      7  C   UNL     1       4.463  42.763  50.894  1.00  0.00     0.042 A 
ATOM      8  C   UNL     1       3.387  41.988  50.382  1.00  0.00     0.014 A 
ATOM      9  C   UNL     1       4.257  43.563  52.041  1.00  0.00     0.040 A 
ATOM     10  C   UNL     1       2.132  41.989  51.017  1.00  0.00     0.011 A 
ATOM     11  C   UNL     1       3.000  43.541  52.644  1.00  0.00     0.047 A 
ATOM     12  C   UNL     1       1.979  42.778  52.152  1.00  0.00     0.000 A 
ATOM     13  N   UNL     1       2.607  44.227  53.730  1.00  0.00    -0.355 N 
ATOM     14  C   UNL     1       0.884  42.978  52.961  1.00  0.00     0.037 A 
ATOM     15  C   UNL     1       1.309  43.887  53.935  1.00  0.00     0.046 A 
ATOM     16  H   UNL     1       3.201  44.867  54.303  1.00  0.00     0.167 HD
BRANCH  15  17
ATOM     17  C   UNL     1       0.475  44.418  55.042  1.00  0.00    -0.002 A 
ATOM     18  C   UNL     1      -0.908  44.156  55.086  1.00  0.00     0.010 A 
ATOM     19  C   UNL     1       1.053  45.190  56.069  1.00  0.00     0.010 A 
ATOM     20  C   UNL     1      -1.691  44.656  56.131  1.00  0.00     0.001 A 
ATOM     21  C   UNL     1       0.264  45.688  57.111  1.00  0.00     0.001 A 
ATOM     22  C   UNL     1      -1.106  45.422  57.142  1.00  0.00     0.000 A 
ENDBRANCH  15  17
ENDBRANCH   2   7
BRANCH   5  23
ATOM     23  N   UNL     1       9.145  45.490  51.455  1.00  0.00    -0.308 NA
ATOM     24  H   UNL     1       9.890  44.802  51.196  1.00  0.00     0.123 HD
BRANCH  23  25
ATOM     25  C   UNL     1       9.734  46.829  51.663  1.00  0.00     0.058 C 
ATOM     26  C   UNL     1       8.655  47.904  51.465  1.00  0.00     0.047 C 
ATOM     27  C   UNL     1      10.387  46.980  53.056  1.00  0.00     0.047 C 
ATOM     28  C   UNL     1       7.736  47.989  52.689  1.00  0.00     0.161 C 
ATOM     29  C   UNL     1       9.336  47.188  54.159  1.00  0.00     0.161 C 
ATOM     30  O   UNL     1       8.484  48.275  53.856  1.00  0.00    -0.381 OA
ENDBRANCH  23  25
ENDBRANCH   5  23
TORSDOF 4
ENDMDL
MODEL 4
REMARK VINA RESULT:    -8.678      2.871      9.416
REMARK INTER + INTRA:         -11.310
REMARK INTER:                 -10.694
REMARK INTRA:                  -0.616
REMARK UNBOUND:                -0.602
REMARK SMILES O=C(c1ccc2cc(-c3ccccc3)[nH]c2c1)N1CC(NC2CCOCC2)C1
REMARK SMILES IDX 1 1 2 2 18 3 19 4 20 5 28 6 3 7 4 8 17 9 5 10 16 11 6 12
REMARK SMILES IDX 15 13 7 14 8 15 9 17 10 18 14 19 11 20 13 21 12 22 21 23
REMARK SMILES IDX 22 25 23 26 27 27 24 28 26 29 25 30
REMARK H PARENT 15 16 21 24
ROOT
ATOM      1  O   UNL     1       4.265  41.659  51.007  1.00  0.00    -0.269 OA
ATOM      2  C   UNL     1       3.880  42.844  51.196  1.00  0.00     0.254 C 
ATOM      3  N   UNL     1       4.796  43.914  50.950  1.00  0.00    -0.335 N 
ATOM      4  C   UNL     1       4.905  45.368  51.185  1.00  0.00     0.140 C 
ATOM      5  C   UNL     1       6.331  45.496  50.748  1.00  0.00     0.093 C 
ATOM      6  C   UNL     1       6.199  44.023  50.512  1.00  0.00     0.140 C 
ENDROOT
BRANCH   2   7
ATOM      7  C   UNL     1       2.518  43.092  51.714  1.00  0.00     0.042 A 
ATOM      8  C   UNL     1       1.408  43.026  50.829  1.00  0.00     0.014 A 
ATOM      9  C   UNL     1       2.304  43.422  53.071  1.00  0.00     0.040 A 
ATOM     10  C   UNL     1       0.101  43.259  51.293  1.00  0.00     0.011 A 
ATOM     11  C   UNL     1       0.996  43.647  53.497  1.00  0.00     0.047 A 
ATOM     12  C   UNL     1      -0.065  43.563  52.641  1.00  0.00     0.000 A 
ATOM     13  N   UNL     1       0.588  43.971  54.736  1.00  0.00    -0.355 N 
ATOM     14  C   UNL     1      -1.205  43.839  53.361  1.00  0.00     0.037 A 
ATOM     15  C   UNL     1      -0.762  44.091  54.663  1.00  0.00     0.046 A 
ATOM     16  H   UNL     1       1.198  44.080  55.577  1.00  0.00     0.167 HD
BRANCH  15  17
ATOM     17  C   UNL     1      -1.629  44.439  55.816  1.00  0.00    -0.002 A 
ATOM     18  C   UNL     1      -1.665  45.756  56.314  1.00  0.00     0.010 A 
ATOM     19  C   UNL     1      -2.434  43.460  56.431  1.00  0.00     0.010 A 
ATOM     20  C   UNL     1      -2.483  46.081  57.400  1.00  0.00     0.001 A 
ATOM     21  C   UNL     1      -3.250  43.792  57.517  1.00  0.00     0.001 A 
ATOM     22  C   UNL     1      -3.274  45.100  58.002  1.00  0.00     0.000 A 
ENDBRANCH  15  17
ENDBRANCH   2   7
BRANCH   5  23
ATOM     23  N   UNL     1       7.239  45.807  51.861  1.00  0.00    -0.308 NA
ATOM     24  H   UNL     1       7.701  44.919  52.166  1.00  0.00     0.123 HD
BRANCH  23  25
ATOM     25  C   UNL     1       8.255  46.807  51.473  1.00  0.00     0.058 C 
ATOM     26  C   UNL     1       8.085  48.073  52.324  1.00  0.00     0.047 C 
ATOM     27  C   UNL     1       9.698  46.267  51.603  1.00  0.00     0.047 C 
ATOM     28  C   UNL     1       8.656  47.868  53.732  1.00  0.00     0.161 C 
ATOM     29  C   UNL     1      10.169  46.246  53.067  1.00  0.00     0.161 C 
ATOM     30  O   UNL     1      10.025  47.518  53.669  1.00  0.00    -0.381 OA
ENDBRANCH  23  25
ENDBRANCH   5  23
TORSDOF 4
ENDMDL
MODEL 5
REMARK VINA RESULT:    -8.380      1.738      2.001
REMARK INTER + INTRA:         -10.941
REMARK INTER:                 -10.561
REMARK INTRA:                  -0.381
REMARK UNBOUND:                -0.602
REMARK SMILES O=C(c1ccc2cc(-c3ccccc3)[nH]c2c1)N1CC(NC2CCOCC2)C1
REMARK SMILES IDX 1 1 2 2 18 3 19 4 20 5 28 6 3 7 4 8 17 9 5 10 16 11 6 12
REMARK SMILES IDX 15 13 7 14 8 15 9 17 10 18 14 19 11 20 13 21 12 22 21 23
REMARK SMILES IDX 22 25 23 26 27 27 24 28 26 29 25 30
REMARK H PARENT 15 16 21 24
ROOT
ATOM      1  O   UNL     1      -0.359  43.138  50.090  1.00  0.00    -0.269 OA
ATOM      2  C   UNL     1       0.215  43.343  51.193  1.00  0.00     0.254 C 
ATOM      3  N   UNL     1      -0.586  43.530  52.362  1.00  0.00    -0.335 N 
ATOM      4  C   UNL     1      -0.430  43.965  53.765  1.00  0.00     0.140 C 
ATOM      5  C   UNL     1      -1.892  44.017  54.081  1.00  0.00     0.093 C 
ATOM      6  C   UNL     1      -2.029  43.571  52.659  1.00  0.00     0.140 C 
ENDROOT
BRANCH   2   7
ATOM      7  C   UNL     1       1.689  43.434  51.239  1.00  0.00     0.042 A 
ATOM      8  C   UNL     1       2.475  42.329  50.812  1.00  0.00     0.014 A 
ATOM      9  C   UNL     1       2.331  44.595  51.727  1.00  0.00     0.040 A 
ATOM     10  C   UNL     1       3.879  42.388  50.847  1.00  0.00     0.011 A 
ATOM     11  C   UNL     1       3.725  44.618  51.748  1.00  0.00     0.047 A 
ATOM     12  C   UNL     1       4.470  43.556  51.318  1.00  0.00     0.000 A 
ATOM     13  N   UNL     1       4.516  45.617  52.173  1.00  0.00    -0.355 N 
ATOM     14  C   UNL     1       5.796  43.890  51.469  1.00  0.00     0.037 A 
ATOM     15  C   UNL     1       5.790  45.181  52.005  1.00  0.00     0.046 A 
ATOM     16  H   UNL     1       4.198  46.544  52.533  1.00  0.00     0.167 HD
BRANCH  15  17
ATOM     17  C   UNL     1       6.994  45.978  52.348  1.00  0.00    -0.002 A 
ATOM     18  C   UNL     1       7.906  46.366  51.347  1.00  0.00     0.010 A 
ATOM     19  C   UNL     1       7.245  46.362  53.680  1.00  0.00     0.010 A 
ATOM     20  C   UNL     1       9.039  47.117  51.674  1.00  0.00     0.001 A 
ATOM     21  C   UNL     1       8.381  47.113  54.000  1.00  0.00     0.001 A 
ATOM     22  C   UNL     1       9.277  47.489  52.998  1.00  0.00     0.000 A 
ENDBRANCH  15  17
ENDBRANCH   2   7
BRANCH   5  23
ATOM     23  N   UNL     1      -2.380  45.387  54.290  1.00  0.00    -0.308 NA
ATOM     24  H   UNL     1      -2.887  45.690  53.426  1.00  0.00     0.123 HD
BRANCH  23  25
ATOM     25  C   UNL     1      -3.269  45.477  55.466  1.00  0.00     0.058 C 
ATOM     26  C   UNL     1      -2.944  44.342  56.447  1.00  0.00     0.047 C 
ATOM     27  C   UNL     1      -3.171  46.844  56.181  1.00  0.00     0.047 C 
ATOM     28  C   UNL     1      -1.671  44.652  57.242  1.00  0.00     0.161 C 
ATOM     29  C   UNL     1      -1.901  46.948  57.041  1.00  0.00     0.161 C 
ATOM     30  O   UNL     1      -1.809  45.869  57.950  1.00  0.00    -0.381 OA
ENDBRANCH  23  25
ENDBRANCH   5  23
TORSDOF 4
ENDMDL
