MODEL 1
REMARK VINA RESULT:    -9.042      0.000      0.000
REMARK INTER + INTRA:         -11.184
REMARK INTER:                 -10.892
REMARK INTRA:                  -0.293
REMARK UNBOUND:                -0.293
REMARK SMILES Cc1ccc(SCC(=O)N2CCC3(CC2)C[C@H](O)CCO3)cc1
REMARK SMILES IDX 7 1 6 2 5 3 2 4 3 5 23 6 4 7 22 8 1 9 8 10 9 11 10 12 11 13
REMARK SMILES IDX 15 14 12 15 14 16 13 17 16 18 21 19 17 20 20 21 19 22 18 23
REMARK H PARENT 18 24
ROOT
ATOM      1  C   UNL     1       5.679  45.818  51.000  1.00  0.00     0.175 C 
ENDROOT
BRANCH   1   2
ATOM      2  S   UNL     1       7.363  45.410  50.410  1.00  0.00    -0.116 SA
BRANCH   2   3
ATOM      3  C   UNL     1       8.211  46.070  51.849  1.00  0.00     0.008 A 
ATOM      4  C   UNL     1       9.547  47.087  54.099  1.00  0.00    -0.051 A 
ATOM      5  C   UNL     1      10.264  46.763  52.936  1.00  0.00     0.004 A 
ATOM      6  C   UNL     1       8.159  46.877  54.135  1.00  0.00     0.004 A 
ATOM      7  C   UNL     1       9.597  46.258  51.816  1.00  0.00     0.015 A 
ATOM      8  C   UNL     1       7.494  46.372  53.013  1.00  0.00     0.015 A 
ATOM      9  C   UNL     1      10.259  47.598  55.317  1.00  0.00     0.044 C 
ENDBRANCH   2   3
ENDBRANCH   1   2
BRANCH   1  10
ATOM     10  C   UNL     1       4.901  44.579  51.354  1.00  0.00     0.232 C 
ATOM     11  O   UNL     1       5.521  43.480  51.369  1.00  0.00    -0.274 OA
ATOM     12  N   UNL     1       3.500  44.611  51.716  1.00  0.00    -0.342 N 
ATOM     13  C   UNL     1       2.669  45.818  51.588  1.00  0.00     0.122 C 
ATOM     14  C   UNL     1       2.875  43.371  52.206  1.00  0.00     0.122 C 
ATOM     15  C   UNL     1       1.902  46.061  52.894  1.00  0.00     0.057 C 
ATOM     16  C   UNL     1       1.384  43.568  52.519  1.00  0.00     0.057 C 
ATOM     17  C   UNL     1       1.134  44.802  53.431  1.00  0.00     0.074 C 
ATOM     18  C   UNL     1       1.621  44.485  54.891  1.00  0.00     0.067 C 
ATOM     19  O   UNL     1      -0.260  45.123  53.372  1.00  0.00    -0.375 OA
ATOM     20  C   UNL     1       0.809  45.295  55.902  1.00  0.00     0.119 C 
ATOM     21  C   UNL     1      -1.029  44.452  54.352  1.00  0.00     0.163 C 
ATOM     22  C   UNL     1      -0.690  44.963  55.762  1.00  0.00     0.060 C 
BRANCH  20  23
ATOM     23  O   UNL     1       1.254  45.003  57.202  1.00  0.00    -0.393 OA
ATOM     24  H   UNL     1       1.463  45.873  57.632  1.00  0.00     0.210 HD
ENDBRANCH  20  23
ENDBRANCH   1  10
TORSDOF 4
ENDMDL
MODEL 2
REMARK VINA RESULT:    -8.559      2.644      6.746
REMARK INTER + INTRA:         -10.603
REMARK INTER:                  -9.977
REMARK INTRA:                  -0.626
REMARK UNBOUND:                -0.293
REMARK SMILES Cc1ccc(SCC(=O)N2CCC3(CC2)C[C@H](O)CCO3)cc1
REMARK SMILES IDX 7 1 6 2 5 3 2 4 3 5 23 6 4 7 22 8 1 9 8 10 9 11 10 12 11 13
REMARK SMILES IDX 15 14 12 15 14 16 13 17 16 18 21 19 17 20 20 21 19 22 18 23
REMARK H PARENT 18 24
ROOT
ATOM      1  C   UNL     1       1.979  46.119  53.114  1.00  0.00     0.175 C 
ENDROOT
BRANCH   1   2
ATOM      2  S   UNL     1       1.385  44.913  51.872  1.00  0.00    -0.116 SA
BRANCH   2   3
ATOM      3  C   UNL     1       3.020  44.431  51.308  1.00  0.00     0.008 A 
ATOM      4  C   UNL     1       5.574  43.682  50.412  1.00  0.00    -0.051 A 
ATOM      5  C   UNL     1       5.182  45.031  50.388  1.00  0.00     0.004 A 
ATOM      6  C   UNL     1       4.670  42.709  50.867  1.00  0.00     0.004 A 
ATOM      7  C   UNL     1       3.911  45.402  50.836  1.00  0.00     0.015 A 
ATOM      8  C   UNL     1       3.399  43.083  51.315  1.00  0.00     0.015 A 
ATOM      9  C   UNL     1       6.923  43.271  49.902  1.00  0.00     0.044 C 
ENDBRANCH   2   3
ENDBRANCH   1   2
BRANCH   1  10
ATOM     10  C   UNL     1       3.071  45.539  53.971  1.00  0.00     0.232 C 
ATOM     11  O   UNL     1       2.869  44.410  54.498  1.00  0.00    -0.274 OA
ATOM     12  N   UNL     1       4.343  46.200  54.173  1.00  0.00    -0.342 N 
ATOM     13  C   UNL     1       4.611  47.573  53.718  1.00  0.00     0.122 C 
ATOM     14  C   UNL     1       5.404  45.474  54.891  1.00  0.00     0.122 C 
ATOM     15  C   UNL     1       5.934  47.615  52.944  1.00  0.00     0.057 C 
ATOM     16  C   UNL     1       6.675  46.323  55.043  1.00  0.00     0.057 C 
ATOM     17  C   UNL     1       7.136  46.936  53.690  1.00  0.00     0.074 C 
ATOM     18  C   UNL     1       7.738  45.807  52.778  1.00  0.00     0.067 C 
ATOM     19  O   UNL     1       8.077  47.978  53.972  1.00  0.00    -0.375 OA
ATOM     20  C   UNL     1       8.783  46.399  51.832  1.00  0.00     0.119 C 
ATOM     21  C   UNL     1       9.415  47.520  54.030  1.00  0.00     0.163 C 
ATOM     22  C   UNL     1       9.905  47.077  52.642  1.00  0.00     0.060 C 
BRANCH  20  23
ATOM     23  O   UNL     1       9.312  45.380  51.022  1.00  0.00    -0.393 OA
ATOM     24  H   UNL     1       9.901  45.823  50.357  1.00  0.00     0.210 HD
ENDBRANCH  20  23
ENDBRANCH   1  10
TORSDOF 4
ENDMDL
MODEL 3
REMARK VINA RESULT:    -8.142      1.527      1.782
REMARK INTER + INTRA:         -10.100
REMARK INTER:                  -9.851
REMARK INTRA:                  -0.250
REMARK UNBOUND:                -0.293
REMARK SMILES Cc1ccc(SCC(=O)N2CCC3(CC2)C[C@H](O)CCO3)cc1
REMARK SMILES IDX 7 1 6 2 5 3 2 4 3 5 23 6 4 7 22 8 1 9 8 10 9 11 10 12 11 13
REMARK SMILES IDX 15 14 12 15 14 16 13 17 16 18 21 19 17 20 20 21 19 22 18 23
REMARK H PARENT 18 24
ROOT
ATOM      1  C   UNL     1       5.170  44.461  52.169  1.00  0.00     0.175 C 
ENDROOT
BRANCH   1   2
ATOM      2  S   UNL     1       6.118  45.397  50.915  1.00  0.00    -0.116 SA
BRANCH   2   3
ATOM      3  C   UNL     1       7.332  46.046  52.068  1.00  0.00     0.008 A 
ATOM      4  C   UNL     1       9.239  47.047  53.869  1.00  0.00    -0.051 A 
ATOM      5  C   UNL     1       9.605  46.737  52.549  1.00  0.00     0.004 A 
ATOM      6  C   UNL     1       7.916  46.831  54.286  1.00  0.00     0.004 A 
ATOM      7  C   UNL     1       8.654  46.240  51.653  1.00  0.00     0.015 A 
ATOM      8  C   UNL     1       6.966  46.334  53.388  1.00  0.00     0.015 A 
ATOM      9  C   UNL     1      10.260  47.548  54.846  1.00  0.00     0.044 C 
ENDBRANCH   2   3
ENDBRANCH   1   2
BRANCH   1  10
ATOM     10  C   UNL     1       4.039  43.689  51.546  1.00  0.00     0.232 C 
ATOM     11  O   UNL     1       4.285  42.526  51.122  1.00  0.00    -0.274 OA
ATOM     12  N   UNL     1       2.690  44.208  51.458  1.00  0.00    -0.342 N 
ATOM     13  C   UNL     1       2.345  45.598  51.794  1.00  0.00     0.122 C 
ATOM     14  C   UNL     1       1.624  43.310  50.983  1.00  0.00     0.122 C 
ATOM     15  C   UNL     1       1.139  45.619  52.741  1.00  0.00     0.057 C 
ATOM     16  C   UNL     1       0.264  44.021  50.923  1.00  0.00     0.057 C 
ATOM     17  C   UNL     1      -0.075  44.753  52.253  1.00  0.00     0.074 C 
ATOM     18  C   UNL     1      -0.432  43.696  53.360  1.00  0.00     0.067 C 
ATOM     19  O   UNL     1      -1.147  45.666  51.997  1.00  0.00    -0.375 OA
ATOM     20  C   UNL     1      -1.398  44.306  54.376  1.00  0.00     0.119 C 
ATOM     21  C   UNL     1      -2.427  45.091  52.181  1.00  0.00     0.163 C 
ATOM     22  C   UNL     1      -2.681  44.781  53.666  1.00  0.00     0.060 C 
BRANCH  20  23
ATOM     23  O   UNL     1      -1.707  43.352  55.359  1.00  0.00    -0.393 OA
ATOM     24  H   UNL     1      -1.002  43.421  56.054  1.00  0.00     0.210 HD
ENDBRANCH  20  23
ENDBRANCH   1  10
TORSDOF 4
ENDMDL
MODEL 4
REMARK VINA RESULT:    -8.099      1.362      2.105
REMARK INTER + INTRA:         -10.049
REMARK INTER:                  -9.818
REMARK INTRA:                  -0.231
REMARK UNBOUND:                -0.293
REMARK SMILES Cc1ccc(SCC(=O)N2CCC3(CC2)C[C@H](O)CCO3)cc1
REMARK SMILES IDX 7 1 6 2 5 3 2 4 3 5 23 6 4 7 22 8 1 9 8 10 9 11 10 12 11 13
REMARK SMILES IDX 15 14 12 15 14 16 13 17 16 18 21 19 17 20 20 21 19 22 18 23
REMARK H PARENT 18 24
ROOT
ATOM      1  C   UNL     1       6.039  44.634  51.317  1.00  0.00     0.175 C 
ENDROOT
BRANCH   1   2
ATOM      2  S   UNL     1       7.410  45.408  50.384  1.00  0.00    -0.116 SA
BRANCH   2   3
ATOM      3  C   UNL     1       8.245  46.071  51.829  1.00  0.00     0.008 A 
ATOM      4  C   UNL     1       9.560  47.094  54.089  1.00  0.00    -0.051 A 
ATOM      5  C   UNL     1      10.281  46.814  52.916  1.00  0.00     0.004 A 
ATOM      6  C   UNL     1       8.181  46.838  54.128  1.00  0.00     0.004 A 
ATOM      7  C   UNL     1       9.624  46.306  51.792  1.00  0.00     0.015 A 
ATOM      8  C   UNL     1       7.525  46.329  53.002  1.00  0.00     0.015 A 
ATOM      9  C   UNL     1      10.262  47.609  55.311  1.00  0.00     0.044 C 
ENDBRANCH   2   3
ENDBRANCH   1   2
BRANCH   1  10
ATOM     10  C   UNL     1       4.764  45.424  51.184  1.00  0.00     0.232 C 
ATOM     11  O   UNL     1       4.560  46.033  50.098  1.00  0.00    -0.274 OA
ATOM     12  N   UNL     1       3.760  45.471  52.226  1.00  0.00    -0.342 N 
ATOM     13  C   UNL     1       3.976  44.913  53.570  1.00  0.00     0.122 C 
ATOM     14  C   UNL     1       2.478  46.134  51.934  1.00  0.00     0.122 C 
ATOM     15  C   UNL     1       2.790  44.023  53.959  1.00  0.00     0.057 C 
ATOM     16  C   UNL     1       1.539  46.121  53.149  1.00  0.00     0.057 C 
ATOM     17  C   UNL     1       1.388  44.698  53.759  1.00  0.00     0.074 C 
ATOM     18  C   UNL     1       0.517  43.805  52.803  1.00  0.00     0.067 C 
ATOM     19  O   UNL     1       0.813  44.832  55.063  1.00  0.00    -0.375 OA
ATOM     20  C   UNL     1      -0.219  42.735  53.610  1.00  0.00     0.119 C 
ATOM     21  C   UNL     1      -0.602  44.798  55.056  1.00  0.00     0.163 C 
ATOM     22  C   UNL     1      -1.116  43.400  54.673  1.00  0.00     0.060 C 
BRANCH  20  23
ATOM     23  O   UNL     1      -0.992  41.944  52.745  1.00  0.00    -0.393 OA
ATOM     24  H   UNL     1      -0.404  41.701  51.982  1.00  0.00     0.210 HD
ENDBRANCH  20  23
ENDBRANCH   1  10
TORSDOF 4
ENDMDL
MODEL 5
REMARK VINA RESULT:    -7.411      2.487      8.153
REMARK INTER + INTRA:          -9.220
REMARK INTER:                  -8.876
REMARK INTRA:                  -0.343
REMARK UNBOUND:                -0.293
REMARK SMILES Cc1ccc(SCC(=O)N2CCC3(CC2)C[C@H](O)CCO3)cc1
REMARK SMILES IDX 7 1 6 2 5 3 2 4 3 5 23 6 4 7 22 8 1 9 8 10 9 11 10 12 11 13
REMARK SMILES IDX 15 14 12 15 14 16 13 17 16 18 21 19 17 20 20 21 19 22 18 23
REMARK H PARENT 18 24
ROOT
ATOM      1  C   UNL     1       1.048  44.219  53.870  1.00  0.00     0.175 C 
ENDROOT
BRANCH   1   2
ATOM      2  S   UNL     1       1.663  44.800  55.492  1.00  0.00    -0.116 SA
BRANCH   2   3
ATOM      3  C   UNL     1       0.051  45.268  56.128  1.00  0.00     0.008 A 
ATOM      4  C   UNL     1      -2.466  45.994  57.137  1.00  0.00    -0.051 A 
ATOM      5  C   UNL     1      -1.302  46.606  57.630  1.00  0.00     0.004 A 
ATOM      6  C   UNL     1      -2.359  45.000  56.152  1.00  0.00     0.004 A 
ATOM      7  C   UNL     1      -0.050  46.244  57.125  1.00  0.00     0.015 A 
ATOM      8  C   UNL     1      -1.105  44.639  55.648  1.00  0.00     0.015 A 
ATOM      9  C   UNL     1      -3.811  46.352  57.697  1.00  0.00     0.044 C 
ENDBRANCH   2   3
ENDBRANCH   1   2
BRANCH   1  10
ATOM     10  C   UNL     1       1.502  45.117  52.751  1.00  0.00     0.232 C 
ATOM     11  O   UNL     1       0.718  46.034  52.379  1.00  0.00    -0.274 OA
ATOM     12  N   UNL     1       2.802  44.996  52.126  1.00  0.00    -0.342 N 
ATOM     13  C   UNL     1       3.717  43.876  52.396  1.00  0.00     0.122 C 
ATOM     14  C   UNL     1       3.213  46.026  51.158  1.00  0.00     0.122 C 
ATOM     15  C   UNL     1       5.116  44.414  52.718  1.00  0.00     0.057 C 
ATOM     16  C   UNL     1       4.602  45.737  50.571  1.00  0.00     0.057 C 
ATOM     17  C   UNL     1       5.659  45.454  51.676  1.00  0.00     0.074 C 
ATOM     18  C   UNL     1       6.014  46.792  52.420  1.00  0.00     0.067 C 
ATOM     19  O   UNL     1       6.799  44.849  51.056  1.00  0.00    -0.375 OA
ATOM     20  C   UNL     1       7.443  46.729  52.960  1.00  0.00     0.119 C 
ATOM     21  C   UNL     1       7.759  45.789  50.612  1.00  0.00     0.163 C 
ATOM     22  C   UNL     1       8.434  46.489  51.803  1.00  0.00     0.060 C 
BRANCH  20  23
ATOM     23  O   UNL     1       7.747  47.929  53.623  1.00  0.00    -0.393 OA
ATOM     24  H   UNL     1       7.588  47.767  54.589  1.00  0.00     0.210 HD
ENDBRANCH  20  23
ENDBRANCH   1  10
TORSDOF 4
ENDMDL
