MODEL 1
REMARK VINA RESULT:   -10.110      0.000      0.000
REMARK INTER + INTRA:         -12.434
REMARK INTER:                 -11.883
REMARK INTRA:                  -0.551
REMARK UNBOUND:                -0.551
REMARK SMILES c1ccc2c(c1)OCC[C@@H]2Nc1nnc(-c2ccc3ccccc3n2)o1
REMARK SMILES IDX 15 1 14 2 13 3 12 4 26 5 16 6 21 7 22 8 20 9 23 10 19 11
REMARK SMILES IDX 24 12 18 13 25 14 17 15 11 16 10 18 9 19 4 20 8 21 3 22 5 23
REMARK SMILES IDX 7 24 2 25 6 26 1 27
REMARK H PARENT 11 17
ROOT
ATOM      1  C   UNL     1       4.628  43.696  51.786  1.00  0.00     0.268 A 
ATOM      2  N   UNL     1       4.370  42.786  50.825  1.00  0.00    -0.104 NA
ATOM      3  N   UNL     1       3.233  42.197  51.162  1.00  0.00    -0.090 NA
ATOM      4  C   UNL     1       2.847  42.773  52.316  1.00  0.00     0.316 A 
ATOM      5  O   UNL     1       3.694  43.692  52.708  1.00  0.00    -0.402 OA
ENDROOT
BRANCH   1   6
ATOM      6  C   UNL     1       5.807  44.573  51.793  1.00  0.00     0.128 A 
ATOM      7  C   UNL     1       9.521  47.663  53.145  1.00  0.00     0.001 A 
ATOM      8  C   UNL     1       8.779  47.396  54.299  1.00  0.00     0.002 A 
ATOM      9  C   UNL     1       9.154  47.091  51.922  1.00  0.00     0.010 A 
ATOM     10  C   UNL     1       7.663  46.553  54.239  1.00  0.00     0.029 A 
ATOM     11  C   UNL     1       8.037  46.244  51.853  1.00  0.00     0.000 A 
ATOM     12  C   UNL     1       7.288  45.975  53.021  1.00  0.00     0.071 A 
ATOM     13  C   UNL     1       7.643  45.655  50.646  1.00  0.00     0.013 A 
ATOM     14  N   UNL     1       6.205  45.155  52.958  1.00  0.00    -0.243 NA
ATOM     15  C   UNL     1       6.526  44.817  50.614  1.00  0.00     0.035 A 
ENDBRANCH   1   6
BRANCH   4  16
ATOM     16  N   UNL     1       1.659  42.427  53.035  1.00  0.00    -0.331 N 
ATOM     17  H   UNL     1       1.627  41.495  53.507  1.00  0.00     0.166 HD
BRANCH  16  18
ATOM     18  C   UNL     1       0.436  43.231  52.959  1.00  0.00     0.121 C 
ATOM     19  C   UNL     1      -0.726  42.331  52.498  1.00  0.00     0.071 C 
ATOM     20  C   UNL     1       0.141  43.886  54.297  1.00  0.00     0.017 A 
ATOM     21  C   UNL     1      -2.059  43.066  52.632  1.00  0.00     0.232 C 
ATOM     22  C   UNL     1       1.174  44.461  55.060  1.00  0.00     0.010 A 
ATOM     23  C   UNL     1      -1.192  44.004  54.746  1.00  0.00     0.124 A 
ATOM     24  O   UNL     1      -2.246  43.499  53.978  1.00  0.00    -0.493 OA
ATOM     25  C   UNL     1       0.887  45.085  56.278  1.00  0.00     0.001 A 
ATOM     26  C   UNL     1      -1.467  44.622  55.970  1.00  0.00     0.047 A 
ATOM     27  C   UNL     1      -0.430  45.159  56.736  1.00  0.00     0.004 A 
ENDBRANCH  16  18
ENDBRANCH   4  16
TORSDOF 3
ENDMDL
MODEL 2
REMARK VINA RESULT:    -9.500      2.040      2.895
REMARK INTER + INTRA:         -11.717
REMARK INTER:                 -11.312
REMARK INTRA:                  -0.406
REMARK UNBOUND:                -0.551
REMARK SMILES c1ccc2c(c1)OCC[C@@H]2Nc1nnc(-c2ccc3ccccc3n2)o1
REMARK SMILES IDX 15 1 14 2 13 3 12 4 26 5 16 6 21 7 22 8 20 9 23 10 19 11
REMARK SMILES IDX 24 12 18 13 25 14 17 15 11 16 10 18 9 19 4 20 8 21 3 22 5 23
REMARK SMILES IDX 7 24 2 25 6 26 1 27
REMARK H PARENT 11 17
ROOT
ATOM      1  C   UNL     1       3.856  46.124  52.509  1.00  0.00     0.268 A 
ATOM      2  N   UNL     1       3.051  47.195  52.348  1.00  0.00    -0.104 NA
ATOM      3  N   UNL     1       1.831  46.798  52.673  1.00  0.00    -0.090 NA
ATOM      4  C   UNL     1       1.944  45.501  53.018  1.00  0.00     0.316 A 
ATOM      5  O   UNL     1       3.179  45.078  52.922  1.00  0.00    -0.402 OA
ENDROOT
BRANCH   1   6
ATOM      6  C   UNL     1       5.303  46.137  52.253  1.00  0.00     0.128 A 
ATOM      7  C   UNL     1      10.269  46.739  52.625  1.00  0.00     0.001 A 
ATOM      8  C   UNL     1       9.714  47.220  53.815  1.00  0.00     0.002 A 
ATOM      9  C   UNL     1       9.445  46.220  51.622  1.00  0.00     0.010 A 
ATOM     10  C   UNL     1       8.329  47.186  54.010  1.00  0.00     0.029 A 
ATOM     11  C   UNL     1       8.054  46.181  51.809  1.00  0.00     0.000 A 
ATOM     12  C   UNL     1       7.495  46.668  53.013  1.00  0.00     0.071 A 
ATOM     13  C   UNL     1       7.201  45.668  50.826  1.00  0.00     0.013 A 
ATOM     14  N   UNL     1       6.148  46.632  53.198  1.00  0.00    -0.243 NA
ATOM     15  C   UNL     1       5.821  45.645  51.046  1.00  0.00     0.035 A 
ENDBRANCH   1   6
BRANCH   4  16
ATOM     16  N   UNL     1       0.851  44.678  53.439  1.00  0.00    -0.331 N 
ATOM     17  H   UNL     1       0.149  44.393  52.719  1.00  0.00     0.166 HD
BRANCH  16  18
ATOM     18  C   UNL     1       0.578  44.400  54.852  1.00  0.00     0.121 C 
ATOM     19  C   UNL     1       1.373  45.394  55.720  1.00  0.00     0.071 C 
ATOM     20  C   UNL     1      -0.911  44.474  55.135  1.00  0.00     0.017 A 
ATOM     21  C   UNL     1       0.938  45.294  57.182  1.00  0.00     0.232 C 
ATOM     22  C   UNL     1      -1.843  43.921  54.238  1.00  0.00     0.010 A 
ATOM     23  C   UNL     1      -1.372  45.022  56.352  1.00  0.00     0.124 A 
ATOM     24  O   UNL     1      -0.465  45.523  57.292  1.00  0.00    -0.493 OA
ATOM     25  C   UNL     1      -3.211  43.971  54.521  1.00  0.00     0.001 A 
ATOM     26  C   UNL     1      -2.743  45.077  56.621  1.00  0.00     0.047 A 
ATOM     27  C   UNL     1      -3.661  44.555  55.708  1.00  0.00     0.004 A 
ENDBRANCH  16  18
ENDBRANCH   4  16
TORSDOF 3
ENDMDL
MODEL 3
REMARK VINA RESULT:    -9.430      2.424      8.868
REMARK INTER + INTRA:         -11.635
REMARK INTER:                 -11.207
REMARK INTRA:                  -0.427
REMARK UNBOUND:                -0.551
REMARK SMILES c1ccc2c(c1)OCC[C@@H]2Nc1nnc(-c2ccc3ccccc3n2)o1
REMARK SMILES IDX 15 1 14 2 13 3 12 4 26 5 16 6 21 7 22 8 20 9 23 10 19 11
REMARK SMILES IDX 24 12 18 13 25 14 17 15 11 16 10 18 9 19 4 20 8 21 3 22 5 23
REMARK SMILES IDX 7 24 2 25 6 26 1 27
REMARK H PARENT 11 17
ROOT
ATOM      1  C   UNL     1       1.899  45.915  53.657  1.00  0.00     0.268 A 
ATOM      2  N   UNL     1       1.632  46.167  52.359  1.00  0.00    -0.104 NA
ATOM      3  N   UNL     1       2.773  46.556  51.812  1.00  0.00    -0.090 NA
ATOM      4  C   UNL     1       3.687  46.526  52.801  1.00  0.00     0.316 A 
ATOM      5  O   UNL     1       3.163  46.135  53.935  1.00  0.00    -0.402 OA
ENDROOT
BRANCH   1   6
ATOM      6  C   UNL     1       0.896  45.455  54.629  1.00  0.00     0.128 A 
ATOM      7  C   UNL     1      -3.263  43.690  56.808  1.00  0.00     0.001 A 
ATOM      8  C   UNL     1      -3.506  43.707  55.431  1.00  0.00     0.002 A 
ATOM      9  C   UNL     1      -2.032  44.122  57.312  1.00  0.00     0.010 A 
ATOM     10  C   UNL     1      -2.517  44.155  54.548  1.00  0.00     0.029 A 
ATOM     11  C   UNL     1      -1.035  44.573  56.434  1.00  0.00     0.000 A 
ATOM     12  C   UNL     1      -1.282  44.589  55.042  1.00  0.00     0.071 A 
ATOM     13  C   UNL     1       0.207  45.011  56.905  1.00  0.00     0.013 A 
ATOM     14  N   UNL     1      -0.318  45.025  54.188  1.00  0.00    -0.243 NA
ATOM     15  C   UNL     1       1.177  45.453  56.003  1.00  0.00     0.035 A 
ENDBRANCH   1   6
BRANCH   4  16
ATOM     16  N   UNL     1       5.064  46.878  52.640  1.00  0.00    -0.331 N 
ATOM     17  H   UNL     1       5.313  47.894  52.648  1.00  0.00     0.166 HD
BRANCH  16  18
ATOM     18  C   UNL     1       6.086  45.897  52.266  1.00  0.00     0.121 C 
ATOM     19  C   UNL     1       6.003  45.641  50.749  1.00  0.00     0.071 C 
ATOM     20  C   UNL     1       7.466  46.375  52.680  1.00  0.00     0.017 A 
ATOM     21  C   UNL     1       7.196  44.808  50.281  1.00  0.00     0.232 C 
ATOM     22  C   UNL     1       7.671  46.988  53.930  1.00  0.00     0.010 A 
ATOM     23  C   UNL     1       8.578  46.126  51.847  1.00  0.00     0.124 A 
ATOM     24  O   UNL     1       8.415  45.462  50.627  1.00  0.00    -0.493 OA
ATOM     25  C   UNL     1       8.951  47.401  54.312  1.00  0.00     0.001 A 
ATOM     26  C   UNL     1       9.853  46.552  52.233  1.00  0.00     0.047 A 
ATOM     27  C   UNL     1      10.039  47.190  53.462  1.00  0.00     0.004 A 
ENDBRANCH  16  18
ENDBRANCH   4  16
TORSDOF 3
ENDMDL
MODEL 4
REMARK VINA RESULT:    -9.350      1.150      2.481
REMARK INTER + INTRA:         -11.541
REMARK INTER:                 -11.020
REMARK INTRA:                  -0.521
REMARK UNBOUND:                -0.551
REMARK SMILES c1ccc2c(c1)OCC[C@@H]2Nc1nnc(-c2ccc3ccccc3n2)o1
REMARK SMILES IDX 15 1 14 2 13 3 12 4 26 5 16 6 21 7 22 8 20 9 23 10 19 11
REMARK SMILES IDX 24 12 18 13 25 14 17 15 11 16 10 18 9 19 4 20 8 21 3 22 5 23
REMARK SMILES IDX 7 24 2 25 6 26 1 27
REMARK H PARENT 11 17
ROOT
ATOM      1  C   UNL     1       4.150  44.673  51.802  1.00  0.00     0.268 A 
ATOM      2  N   UNL     1       3.146  45.195  51.068  1.00  0.00    -0.104 NA
ATOM      3  N   UNL     1       2.068  44.481  51.348  1.00  0.00    -0.090 NA
ATOM      4  C   UNL     1       2.460  43.553  52.241  1.00  0.00     0.316 A 
ATOM      5  O   UNL     1       3.733  43.662  52.527  1.00  0.00    -0.402 OA
ENDROOT
BRANCH   1   6
ATOM      6  C   UNL     1       5.530  45.179  51.786  1.00  0.00     0.128 A 
ATOM      7  C   UNL     1       9.975  47.130  53.052  1.00  0.00     0.001 A 
ATOM      8  C   UNL     1       9.192  47.124  54.211  1.00  0.00     0.002 A 
ATOM      9  C   UNL     1       9.455  46.644  51.848  1.00  0.00     0.010 A 
ATOM     10  C   UNL     1       7.883  46.632  54.173  1.00  0.00     0.029 A 
ATOM     11  C   UNL     1       8.143  46.148  51.801  1.00  0.00     0.000 A 
ATOM     12  C   UNL     1       7.353  46.143  52.973  1.00  0.00     0.071 A 
ATOM     13  C   UNL     1       7.593  45.654  50.613  1.00  0.00     0.013 A 
ATOM     14  N   UNL     1       6.082  45.663  52.932  1.00  0.00    -0.243 NA
ATOM     15  C   UNL     1       6.283  45.168  50.603  1.00  0.00     0.035 A 
ENDBRANCH   1   6
BRANCH   4  16
ATOM     16  N   UNL     1       1.598  42.565  52.813  1.00  0.00    -0.331 N 
ATOM     17  H   UNL     1       1.636  41.597  52.420  1.00  0.00     0.166 HD
BRANCH  16  18
ATOM     18  C   UNL     1       0.540  42.905  53.769  1.00  0.00     0.121 C 
ATOM     19  C   UNL     1       0.965  44.158  54.559  1.00  0.00     0.071 C 
ATOM     20  C   UNL     1      -0.782  43.116  53.053  1.00  0.00     0.017 A 
ATOM     21  C   UNL     1      -0.201  44.684  55.396  1.00  0.00     0.232 C 
ATOM     22  C   UNL     1      -1.185  42.254  52.016  1.00  0.00     0.010 A 
ATOM     23  C   UNL     1      -1.665  44.129  53.486  1.00  0.00     0.124 A 
ATOM     24  O   UNL     1      -1.320  44.961  54.556  1.00  0.00    -0.493 OA
ATOM     25  C   UNL     1      -2.416  42.441  51.382  1.00  0.00     0.001 A 
ATOM     26  C   UNL     1      -2.891  44.315  52.838  1.00  0.00     0.047 A 
ATOM     27  C   UNL     1      -3.265  43.474  51.787  1.00  0.00     0.004 A 
ENDBRANCH  16  18
ENDBRANCH   4  16
TORSDOF 3
ENDMDL
MODEL 5
REMARK VINA RESULT:    -9.218      4.917      8.946
REMARK INTER + INTRA:         -11.386
REMARK INTER:                 -10.979
REMARK INTRA:                  -0.406
REMARK UNBOUND:                -0.551
REMARK SMILES c1ccc2c(c1)OCC[C@@H]2Nc1nnc(-c2ccc3ccccc3n2)o1
REMARK SMILES IDX 15 1 14 2 13 3 12 4 26 5 16 6 21 7 22 8 20 9 23 10 19 11
REMARK SMILES IDX 24 12 18 13 25 14 17 15 11 16 10 18 9 19 4 20 8 21 3 22 5 23
REMARK SMILES IDX 7 24 2 25 6 26 1 27
REMARK H PARENT 11 17
ROOT
ATOM      1  C   UNL     1       5.891  41.881  48.190  1.00  0.00     0.268 A 
ATOM      2  N   UNL     1       6.049  41.209  49.349  1.00  0.00    -0.104 NA
ATOM      3  N   UNL     1       6.790  41.979  50.130  1.00  0.00    -0.090 NA
ATOM      4  C   UNL     1       7.054  43.087  49.413  1.00  0.00     0.316 A 
ATOM      5  O   UNL     1       6.508  43.039  48.223  1.00  0.00    -0.402 OA
ENDROOT
BRANCH   1   6
ATOM      6  C   UNL     1       5.125  41.374  47.043  1.00  0.00     0.128 A 
ATOM      7  C   UNL     1       1.886  38.916  44.104  1.00  0.00     0.001 A 
ATOM      8  C   UNL     1       1.649  38.486  45.414  1.00  0.00     0.002 A 
ATOM      9  C   UNL     1       2.882  39.863  43.843  1.00  0.00     0.010 A 
ATOM     10  C   UNL     1       2.407  39.000  46.471  1.00  0.00     0.029 A 
ATOM     11  C   UNL     1       3.647  40.384  44.898  1.00  0.00     0.000 A 
ATOM     12  C   UNL     1       3.406  39.948  46.220  1.00  0.00     0.071 A 
ATOM     13  C   UNL     1       4.650  41.332  44.671  1.00  0.00     0.013 A 
ATOM     14  N   UNL     1       4.145  40.451  47.246  1.00  0.00    -0.243 NA
ATOM     15  C   UNL     1       5.393  41.830  45.744  1.00  0.00     0.035 A 
ENDBRANCH   1   6
BRANCH   4  16
ATOM     16  N   UNL     1       7.837  44.189  49.885  1.00  0.00    -0.331 N 
ATOM     17  H   UNL     1       8.868  44.048  49.988  1.00  0.00     0.166 HD
BRANCH  16  18
ATOM     18  C   UNL     1       7.228  45.413  50.412  1.00  0.00     0.121 C 
ATOM     19  C   UNL     1       5.787  45.103  50.859  1.00  0.00     0.071 C 
ATOM     20  C   UNL     1       8.059  45.978  51.550  1.00  0.00     0.017 A 
ATOM     21  C   UNL     1       5.199  46.286  51.628  1.00  0.00     0.232 C 
ATOM     22  C   UNL     1       9.464  46.009  51.470  1.00  0.00     0.010 A 
ATOM     23  C   UNL     1       7.422  46.563  52.666  1.00  0.00     0.124 A 
ATOM     24  O   UNL     1       6.027  46.604  52.745  1.00  0.00    -0.493 OA
ATOM     25  C   UNL     1      10.218  46.555  52.512  1.00  0.00     0.001 A 
ATOM     26  C   UNL     1       8.186  47.098  53.709  1.00  0.00     0.047 A 
ATOM     27  C   UNL     1       9.581  47.092  53.633  1.00  0.00     0.004 A 
ENDBRANCH  16  18
ENDBRANCH   4  16
TORSDOF 3
ENDMDL
