ligand_75_conformer_3_docked
     RDKit          3D

 51 56  0  0  0  0  0  0  0  0999 V2000
   -1.8460   41.9180   52.2270 O   0  0  0  0  0  0  0  0  0  0  0  0
   -0.7600   42.4620   52.5630 C   0  0  0  0  0  0  0  0  0  0  0  0
    0.3710   42.2930   51.8130 N   0  0  0  0  0  0  0  0  0  0  0  0
    1.5660   42.8730   52.1790 C   0  0  0  0  0  0  0  0  0  0  0  0
    2.7990   42.6680   51.3440 C   0  0  0  0  0  0  0  0  0  0  0  0
    3.9770   43.4050   51.8450 N   0  0  0  0  0  0  0  0  0  0  0  0
    3.8130   44.8600   52.0410 C   0  0  0  0  0  0  0  0  0  0  0  0
    4.2720   45.6800   50.8310 C   0  0  0  0  0  0  0  0  0  0  0  0
    5.6930   45.3170   50.3890 C   0  0  0  0  0  0  0  0  0  0  0  0
    6.7310   45.8810   51.3320 C   0  0  0  0  0  0  0  0  0  0  0  0
    8.0710   45.8360   51.1010 N   0  0  0  0  0  0  0  0  0  0  0  0
    8.5860   46.3850   52.2150 C   0  0  0  0  0  0  0  0  0  0  0  0
    9.9290   46.5900   52.5220 C   0  0  0  0  0  0  0  0  0  0  0  0
   10.2330   47.1770   53.7670 C   0  0  0  0  0  0  0  0  0  0  0  0
    9.1970   47.5340   54.6610 C   0  0  0  0  0  0  0  0  0  0  0  0
    7.8500   47.3090   54.3190 C   0  0  0  0  0  0  0  0  0  0  0  0
    7.5900   46.7300   53.0790 C   0  0  0  0  0  0  0  0  0  0  0  0
    6.4080   46.4130   52.5380 N   0  0  0  0  0  0  0  0  0  0  0  0
    5.8270   43.8010   50.1720 C   0  0  0  0  0  0  0  0  0  0  0  0
    5.2950   42.9600   51.3480 C   0  0  0  0  0  0  0  0  0  0  0  0
    1.6380   43.6580   53.2980 N   0  0  0  0  0  0  0  0  0  0  0  0
    0.5160   43.8210   54.0350 C   0  0  0  0  0  0  0  0  0  0  0  0
   -0.6760   43.2460   53.7030 C   0  0  0  0  0  0  0  0  0  0  0  0
   -1.6120   43.5500   54.5820 O   0  0  0  0  0  0  0  0  0  0  0  0
   -1.0320   44.3210   55.4850 C   0  0  0  0  0  0  0  0  0  0  0  0
   -1.6130   44.8930   56.6150 C   0  0  0  0  0  0  0  0  0  0  0  0
   -0.7970   45.6830   57.4480 C   0  0  0  0  0  0  0  0  0  0  0  0
    0.5690   45.8820   57.1390 C   0  0  0  0  0  0  0  0  0  0  0  0
    1.1370   45.2950   55.9920 C   0  0  0  0  0  0  0  0  0  0  0  0
    0.3030   44.5220   55.1900 C   0  0  0  0  0  0  0  0  0  0  0  0
    0.3240   41.7020   50.9510 H   0  0  0  0  0  0  0  0  0  0  0  0
    3.0382   41.5944   51.3334 H   0  0  0  0  0  0  0  0  0  0  0  0
    2.5778   43.0551   50.3384 H   0  0  0  0  0  0  0  0  0  0  0  0
    2.7494   45.0716   52.2254 H   0  0  0  0  0  0  0  0  0  0  0  0
    4.4423   45.1511   52.8950 H   0  0  0  0  0  0  0  0  0  0  0  0
    3.5825   45.4929   49.9946 H   0  0  0  0  0  0  0  0  0  0  0  0
    4.2705   46.7406   51.1227 H   0  0  0  0  0  0  0  0  0  0  0  0
    5.8871   45.7915   49.4158 H   0  0  0  0  0  0  0  0  0  0  0  0
   10.7242   46.3040   51.8179 H   0  0  0  0  0  0  0  0  0  0  0  0
   11.2818   47.3584   54.0447 H   0  0  0  0  0  0  0  0  0  0  0  0
    9.4454   47.9907   55.6304 H   0  0  0  0  0  0  0  0  0  0  0  0
    7.0339   47.5801   55.0049 H   0  0  0  0  0  0  0  0  0  0  0  0
    5.4590   46.5370   52.9560 H   0  0  0  0  0  0  0  0  0  0  0  0
    5.2644   43.5282   49.2669 H   0  0  0  0  0  0  0  0  0  0  0  0
    6.9010   43.5822   50.0790 H   0  0  0  0  0  0  0  0  0  0  0  0
    5.2068   41.9149   51.0162 H   0  0  0  0  0  0  0  0  0  0  0  0
    6.0085   43.0771   52.1769 H   0  0  0  0  0  0  0  0  0  0  0  0
   -2.6757   44.7326   56.8492 H   0  0  0  0  0  0  0  0  0  0  0  0
   -1.2259   46.1495   58.3471 H   0  0  0  0  0  0  0  0  0  0  0  0
    1.1930   46.5008   57.8006 H   0  0  0  0  0  0  0  0  0  0  0  0
    2.1977   45.4417   55.7400 H   0  0  0  0  0  0  0  0  0  0  0  0
  1  2  2  0
  2  3  1  0
  3  4  1  0
  4  5  1  0
  5  6  1  0
  6  7  1  0
  7  8  1  0
  8  9  1  0
  9 10  1  0
 10 11  2  0
 11 12  1  0
 12 13  2  0
 13 14  1  0
 14 15  2  0
 15 16  1  0
 16 17  2  0
 17 18  1  0
  9 19  1  0
 19 20  1  0
  4 21  2  0
 21 22  1  0
 22 23  2  0
 23 24  1  0
 24 25  1  0
 25 26  2  0
 26 27  1  0
 27 28  2  0
 28 29  1  0
 29 30  2  0
 23  2  1  0
 30 25  1  0
 20  6  1  0
 30 22  1  0
 18 10  1  0
 17 12  1  0
  3 31  1  0
  5 32  1  0
  5 33  1  0
  7 34  1  0
  7 35  1  0
  8 36  1  0
  8 37  1  0
  9 38  1  0
 13 39  1  0
 14 40  1  0
 15 41  1  0
 16 42  1  0
 18 43  1  0
 19 44  1  0
 19 45  1  0
 20 46  1  0
 20 47  1  0
 26 48  1  0
 27 49  1  0
 28 50  1  0
 29 51  1  0
M  END
>  <meeko>  (1) 
{"is_sidechain": [false], "free_energy": -10.872, "intermolecular_energy": -12.779, "internal_energy": 0.284}

$$$$
ligand_75_conformer_3_docked
     RDKit          3D

 51 56  0  0  0  0  0  0  0  0999 V2000
    7.1800   43.8140   48.9750 O   0  0  0  0  0  0  0  0  0  0  0  0
    6.6130   44.2860   49.9960 C   0  0  0  0  0  0  0  0  0  0  0  0
    5.2810   44.0690   50.2220 N   0  0  0  0  0  0  0  0  0  0  0  0
    4.6490   44.5920   51.3290 C   0  0  0  0  0  0  0  0  0  0  0  0
    3.1830   44.3470   51.5550 C   0  0  0  0  0  0  0  0  0  0  0  0
    2.6580   45.0030   52.7700 N   0  0  0  0  0  0  0  0  0  0  0  0
    2.6330   44.1880   54.0020 C   0  0  0  0  0  0  0  0  0  0  0  0
    1.2830   43.4990   54.2340 C   0  0  0  0  0  0  0  0  0  0  0  0
    0.1110   44.4840   54.1720 C   0  0  0  0  0  0  0  0  0  0  0  0
    0.0370   45.3410   55.4140 C   0  0  0  0  0  0  0  0  0  0  0  0
    1.0630   45.4890   56.2970 N   0  0  0  0  0  0  0  0  0  0  0  0
    0.5270   46.2680   57.2520 C   0  0  0  0  0  0  0  0  0  0  0  0
    1.1380   46.7370   58.4120 C   0  0  0  0  0  0  0  0  0  0  0  0
    0.3670   47.5350   59.2800 C   0  0  0  0  0  0  0  0  0  0  0  0
   -0.9790   47.8370   58.9690 C   0  0  0  0  0  0  0  0  0  0  0  0
   -1.5660   47.3420   57.7880 C   0  0  0  0  0  0  0  0  0  0  0  0
   -0.7710   46.5600   56.9550 C   0  0  0  0  0  0  0  0  0  0  0  0
   -1.0990   45.9760   55.7960 N   0  0  0  0  0  0  0  0  0  0  0  0
    0.1520   45.3010   52.8700 C   0  0  0  0  0  0  0  0  0  0  0  0
    1.5260   45.9340   52.5820 C   0  0  0  0  0  0  0  0  0  0  0  0
    5.3540   45.3250   52.2450 N   0  0  0  0  0  0  0  0  0  0  0  0
    6.6700   45.5360   52.0160 C   0  0  0  0  0  0  0  0  0  0  0  0
    7.3170   45.0420   50.9200 C   0  0  0  0  0  0  0  0  0  0  0  0
    8.5900   45.3910   50.9220 O   0  0  0  0  0  0  0  0  0  0  0  0
    8.7720   46.1110   52.0160 C   0  0  0  0  0  0  0  0  0  0  0  0
    9.9520   46.7070   52.4550 C   0  0  0  0  0  0  0  0  0  0  0  0
    9.9140   47.4380   53.6580 C   0  0  0  0  0  0  0  0  0  0  0  0
    8.7090   47.5590   54.3890 C   0  0  0  0  0  0  0  0  0  0  0  0
    7.5270   46.9490   53.9280 C   0  0  0  0  0  0  0  0  0  0  0  0
    7.5990   46.2330   52.7370 C   0  0  0  0  0  0  0  0  0  0  0  0
    4.7350   43.5020   49.5330 H   0  0  0  0  0  0  0  0  0  0  0  0
    2.6278   44.7285   50.6854 H   0  0  0  0  0  0  0  0  0  0  0  0
    3.0523   43.2631   51.6895 H   0  0  0  0  0  0  0  0  0  0  0  0
    3.4130   43.4159   53.9280 H   0  0  0  0  0  0  0  0  0  0  0  0
    2.8077   44.8663   54.8502 H   0  0  0  0  0  0  0  0  0  0  0  0
    1.1404   42.7300   53.4605 H   0  0  0  0  0  0  0  0  0  0  0  0
    1.2988   43.0567   55.2410 H   0  0  0  0  0  0  0  0  0  0  0  0
   -0.8264   43.9087   54.1521 H   0  0  0  0  0  0  0  0  0  0  0  0
    2.1856   46.4931   58.6425 H   0  0  0  0  0  0  0  0  0  0  0  0
    0.8149   47.9257   60.2056 H   0  0  0  0  0  0  0  0  0  0  0  0
   -1.5712   48.4622   59.6534 H   0  0  0  0  0  0  0  0  0  0  0  0
   -2.6127   47.5650   57.5338 H   0  0  0  0  0  0  0  0  0  0  0  0
   -2.0220   45.9970   55.3080 H   0  0  0  0  0  0  0  0  0  0  0  0
   -0.1063   44.6351   52.0334 H   0  0  0  0  0  0  0  0  0  0  0  0
   -0.5657   46.1267   52.9847 H   0  0  0  0  0  0  0  0  0  0  0  0
    1.5349   46.2862   51.5400 H   0  0  0  0  0  0  0  0  0  0  0  0
    1.6603   46.7543   53.3024 H   0  0  0  0  0  0  0  0  0  0  0  0
   10.8846   46.6097   51.8798 H   0  0  0  0  0  0  0  0  0  0  0  0
   10.8295   47.9192   54.0326 H   0  0  0  0  0  0  0  0  0  0  0  0
    8.6955   48.1349   55.3261 H   0  0  0  0  0  0  0  0  0  0  0  0
    6.5837   47.0350   54.4872 H   0  0  0  0  0  0  0  0  0  0  0  0
  1  2  2  0
  2  3  1  0
  3  4  1  0
  4  5  1  0
  5  6  1  0
  6  7  1  0
  7  8  1  0
  8  9  1  0
  9 10  1  0
 10 11  2  0
 11 12  1  0
 12 13  2  0
 13 14  1  0
 14 15  2  0
 15 16  1  0
 16 17  2  0
 17 18  1  0
  9 19  1  0
 19 20  1  0
  4 21  2  0
 21 22  1  0
 22 23  2  0
 23 24  1  0
 24 25  1  0
 25 26  2  0
 26 27  1  0
 27 28  2  0
 28 29  1  0
 29 30  2  0
 23  2  1  0
 30 25  1  0
 20  6  1  0
 30 22  1  0
 18 10  1  0
 17 12  1  0
  3 31  1  0
  5 32  1  0
  5 33  1  0
  7 34  1  0
  7 35  1  0
  8 36  1  0
  8 37  1  0
  9 38  1  0
 13 39  1  0
 14 40  1  0
 15 41  1  0
 16 42  1  0
 18 43  1  0
 19 44  1  0
 19 45  1  0
 20 46  1  0
 20 47  1  0
 26 48  1  0
 27 49  1  0
 28 50  1  0
 29 51  1  0
M  END
>  <meeko>  (2) 
{"is_sidechain": [false], "free_energy": -10.299, "intermolecular_energy": -11.542, "internal_energy": -0.279}

$$$$
ligand_75_conformer_3_docked
     RDKit          3D

 51 56  0  0  0  0  0  0  0  0999 V2000
   -2.9560   44.9250   54.0560 O   0  0  0  0  0  0  0  0  0  0  0  0
   -1.7440   44.9080   54.4000 C   0  0  0  0  0  0  0  0  0  0  0  0
   -0.8080   44.2620   53.6400 N   0  0  0  0  0  0  0  0  0  0  0  0
    0.5180   44.2270   54.0150 C   0  0  0  0  0  0  0  0  0  0  0  0
    1.5290   43.5050   53.1690 C   0  0  0  0  0  0  0  0  0  0  0  0
    2.8860   44.0810   53.2550 N   0  0  0  0  0  0  0  0  0  0  0  0
    2.9980   45.5410   53.0600 C   0  0  0  0  0  0  0  0  0  0  0  0
    3.3230   45.9270   51.6130 C   0  0  0  0  0  0  0  0  0  0  0  0
    4.5470   45.1800   51.0750 C   0  0  0  0  0  0  0  0  0  0  0  0
    5.8320   45.7300   51.6500 C   0  0  0  0  0  0  0  0  0  0  0  0
    7.0310   45.6870   51.0070 N   0  0  0  0  0  0  0  0  0  0  0  0
    7.8740   46.2200   51.9090 C   0  0  0  0  0  0  0  0  0  0  0  0
    9.2460   46.4200   51.7790 C   0  0  0  0  0  0  0  0  0  0  0  0
    9.9300   46.9900   52.8720 C   0  0  0  0  0  0  0  0  0  0  0  0
    9.2300   47.3360   54.0510 C   0  0  0  0  0  0  0  0  0  0  0  0
    7.8430   47.1170   54.1480 C   0  0  0  0  0  0  0  0  0  0  0  0
    7.2030   46.5550   53.0460 C   0  0  0  0  0  0  0  0  0  0  0  0
    5.9090   46.2470   52.9010 N   0  0  0  0  0  0  0  0  0  0  0  0
    4.3920   43.6630   51.2710 C   0  0  0  0  0  0  0  0  0  0  0  0
    3.9870   43.2650   52.7030 C   0  0  0  0  0  0  0  0  0  0  0  0
    0.9310   44.8670   55.1510 N   0  0  0  0  0  0  0  0  0  0  0  0
    0.0010   45.5050   55.8980 C   0  0  0  0  0  0  0  0  0  0  0  0
   -1.3210   45.5420   55.5580 C   0  0  0  0  0  0  0  0  0  0  0  0
   -2.0230   46.2170   56.4480 O   0  0  0  0  0  0  0  0  0  0  0  0
   -1.1610   46.6190   57.3660 C   0  0  0  0  0  0  0  0  0  0  0  0
   -1.4270   47.3660   58.5130 C   0  0  0  0  0  0  0  0  0  0  0  0
   -0.3470   47.6790   59.3600 C   0  0  0  0  0  0  0  0  0  0  0  0
    0.9630   47.2430   59.0500 C   0  0  0  0  0  0  0  0  0  0  0  0
    1.2100   46.4900   57.8860 C   0  0  0  0  0  0  0  0  0  0  0  0
    0.1210   46.1990   57.0700 C   0  0  0  0  0  0  0  0  0  0  0  0
   -1.1120   43.7770   52.7640 H   0  0  0  0  0  0  0  0  0  0  0  0
    1.5740   42.4565   53.4985 H   0  0  0  0  0  0  0  0  0  0  0  0
    1.2026   43.5991   52.1228 H   0  0  0  0  0  0  0  0  0  0  0  0
    2.0420   46.0069   53.3411 H   0  0  0  0  0  0  0  0  0  0  0  0
    3.8273   45.8952   53.6900 H   0  0  0  0  0  0  0  0  0  0  0  0
    2.4559   45.6884   50.9796 H   0  0  0  0  0  0  0  0  0  0  0  0
    3.5493   47.0033   51.5937 H   0  0  0  0  0  0  0  0  0  0  0  0
    4.6099   45.3505   49.9901 H   0  0  0  0  0  0  0  0  0  0  0  0
    9.7771   46.1431   50.8564 H   0  0  0  0  0  0  0  0  0  0  0  0
   11.0138   47.1665   52.8074 H   0  0  0  0  0  0  0  0  0  0  0  0
    9.7734   47.7795   54.8984 H   0  0  0  0  0  0  0  0  0  0  0  0
    7.2858   47.3797   55.0593 H   0  0  0  0  0  0  0  0  0  0  0  0
    5.1400   46.3660   53.5990 H   0  0  0  0  0  0  0  0  0  0  0  0
    3.6194   43.2998   50.5773 H   0  0  0  0  0  0  0  0  0  0  0  0
    5.3753   43.2101   51.0759 H   0  0  0  0  0  0  0  0  0  0  0  0
    3.6689   42.2120   52.6944 H   0  0  0  0  0  0  0  0  0  0  0  0
    4.8649   43.4318   53.3445 H   0  0  0  0  0  0  0  0  0  0  0  0
   -2.4482   47.7001   58.7485 H   0  0  0  0  0  0  0  0  0  0  0  0
   -0.5232   48.2684   60.2719 H   0  0  0  0  0  0  0  0  0  0  0  0
    1.7953   47.4944   59.7239 H   0  0  0  0  0  0  0  0  0  0  0  0
    2.2233   46.1456   57.6319 H   0  0  0  0  0  0  0  0  0  0  0  0
  1  2  2  0
  2  3  1  0
  3  4  1  0
  4  5  1  0
  5  6  1  0
  6  7  1  0
  7  8  1  0
  8  9  1  0
  9 10  1  0
 10 11  2  0
 11 12  1  0
 12 13  2  0
 13 14  1  0
 14 15  2  0
 15 16  1  0
 16 17  2  0
 17 18  1  0
  9 19  1  0
 19 20  1  0
  4 21  2  0
 21 22  1  0
 22 23  2  0
 23 24  1  0
 24 25  1  0
 25 26  2  0
 26 27  1  0
 27 28  2  0
 28 29  1  0
 29 30  2  0
 23  2  1  0
 30 25  1  0
 20  6  1  0
 30 22  1  0
 18 10  1  0
 17 12  1  0
  3 31  1  0
  5 32  1  0
  5 33  1  0
  7 34  1  0
  7 35  1  0
  8 36  1  0
  8 37  1  0
  9 38  1  0
 13 39  1  0
 14 40  1  0
 15 41  1  0
 16 42  1  0
 18 43  1  0
 19 44  1  0
 19 45  1  0
 20 46  1  0
 20 47  1  0
 26 48  1  0
 27 49  1  0
 28 50  1  0
 29 51  1  0
M  END
>  <meeko>  (3) 
{"is_sidechain": [false], "free_energy": -10.145, "intermolecular_energy": -11.726, "internal_energy": 0.086}

$$$$
ligand_75_conformer_3_docked
     RDKit          3D

 51 56  0  0  0  0  0  0  0  0999 V2000
    5.4230   47.9590   53.3950 O   0  0  0  0  0  0  0  0  0  0  0  0
    4.9390   46.8310   53.1100 C   0  0  0  0  0  0  0  0  0  0  0  0
    3.7890   46.3900   53.7060 N   0  0  0  0  0  0  0  0  0  0  0  0
    3.2590   45.1530   53.4100 C   0  0  0  0  0  0  0  0  0  0  0  0
    1.9990   44.6850   54.0820 C   0  0  0  0  0  0  0  0  0  0  0  0
    1.0920   43.9460   53.1800 N   0  0  0  0  0  0  0  0  0  0  0  0
    0.4920   44.7140   52.0710 C   0  0  0  0  0  0  0  0  0  0  0  0
   -0.8960   45.2700   52.4120 C   0  0  0  0  0  0  0  0  0  0  0  0
   -1.8410   44.1860   52.9380 C   0  0  0  0  0  0  0  0  0  0  0  0
   -2.3300   43.2860   51.8270 C   0  0  0  0  0  0  0  0  0  0  0  0
   -2.8060   42.0260   52.0230 N   0  0  0  0  0  0  0  0  0  0  0  0
   -3.0510   41.6000   50.7720 C   0  0  0  0  0  0  0  0  0  0  0  0
   -3.5530   40.3620   50.3770 C   0  0  0  0  0  0  0  0  0  0  0  0
   -3.7170   40.1350   48.9960 C   0  0  0  0  0  0  0  0  0  0  0  0
   -3.3740   41.1380   48.0600 C   0  0  0  0  0  0  0  0  0  0  0  0
   -2.8660   42.3770   48.4960 C   0  0  0  0  0  0  0  0  0  0  0  0
   -2.7220   42.5640   49.8680 C   0  0  0  0  0  0  0  0  0  0  0  0
   -2.2590   43.6380   50.5190 N   0  0  0  0  0  0  0  0  0  0  0  0
   -1.1980   43.4190   54.1050 C   0  0  0  0  0  0  0  0  0  0  0  0
    0.2280   42.9230   53.8050 C   0  0  0  0  0  0  0  0  0  0  0  0
    3.8650   44.3460   52.4860 N   0  0  0  0  0  0  0  0  0  0  0  0
    5.0010   44.7880   51.9000 C   0  0  0  0  0  0  0  0  0  0  0  0
    5.5550   46.0020   52.1860 C   0  0  0  0  0  0  0  0  0  0  0  0
    6.6600   46.1960   51.4910 O   0  0  0  0  0  0  0  0  0  0  0  0
    6.8260   45.1110   50.7540 C   0  0  0  0  0  0  0  0  0  0  0  0
    7.8570   44.8430   49.8560 C   0  0  0  0  0  0  0  0  0  0  0  0
    7.8350   43.6090   49.1770 C   0  0  0  0  0  0  0  0  0  0  0  0
    6.7960   42.6770   49.4080 C   0  0  0  0  0  0  0  0  0  0  0  0
    5.7630   42.9680   50.3200 C   0  0  0  0  0  0  0  0  0  0  0  0
    5.8140   44.1960   50.9730 C   0  0  0  0  0  0  0  0  0  0  0  0
    3.3130   47.0040   54.4060 H   0  0  0  0  0  0  0  0  0  0  0  0
    2.2742   44.0244   54.9174 H   0  0  0  0  0  0  0  0  0  0  0  0
    1.4597   45.5818   54.4209 H   0  0  0  0  0  0  0  0  0  0  0  0
    1.1569   45.5556   51.8269 H   0  0  0  0  0  0  0  0  0  0  0  0
    0.3723   44.0267   51.2206 H   0  0  0  0  0  0  0  0  0  0  0  0
   -0.7864   46.0482   53.1817 H   0  0  0  0  0  0  0  0  0  0  0  0
   -1.3320   45.6785   51.4884 H   0  0  0  0  0  0  0  0  0  0  0  0
   -2.7401   44.6743   53.3418 H   0  0  0  0  0  0  0  0  0  0  0  0
   -3.8120   39.5897   51.1163 H   0  0  0  0  0  0  0  0  0  0  0  0
   -4.1143   39.1716   48.6438 H   0  0  0  0  0  0  0  0  0  0  0  0
   -3.5049   40.9492   46.9843 H   0  0  0  0  0  0  0  0  0  0  0  0
   -2.5935   43.1665   47.7801 H   0  0  0  0  0  0  0  0  0  0  0  0
   -1.9110   44.5340   50.1090 H   0  0  0  0  0  0  0  0  0  0  0  0
   -1.1577   44.0856   54.9791 H   0  0  0  0  0  0  0  0  0  0  0  0
   -1.8178   42.5285   54.2863 H   0  0  0  0  0  0  0  0  0  0  0  0
    0.6922   42.6068   54.7508 H   0  0  0  0  0  0  0  0  0  0  0  0
    0.1366   42.0956   53.0860 H   0  0  0  0  0  0  0  0  0  0  0  0
    8.6625   45.5718   49.6828 H   0  0  0  0  0  0  0  0  0  0  0  0
    8.6336   43.3676   48.4601 H   0  0  0  0  0  0  0  0  0  0  0  0
    6.7950   41.7171   48.8708 H   0  0  0  0  0  0  0  0  0  0  0  0
    4.9484   42.2533   50.5087 H   0  0  0  0  0  0  0  0  0  0  0  0
  1  2  2  0
  2  3  1  0
  3  4  1  0
  4  5  1  0
  5  6  1  0
  6  7  1  0
  7  8  1  0
  8  9  1  0
  9 10  1  0
 10 11  2  0
 11 12  1  0
 12 13  2  0
 13 14  1  0
 14 15  2  0
 15 16  1  0
 16 17  2  0
 17 18  1  0
  9 19  1  0
 19 20  1  0
  4 21  2  0
 21 22  1  0
 22 23  2  0
 23 24  1  0
 24 25  1  0
 25 26  2  0
 26 27  1  0
 27 28  2  0
 28 29  1  0
 29 30  2  0
 23  2  1  0
 30 25  1  0
 20  6  1  0
 30 22  1  0
 18 10  1  0
 17 12  1  0
  3 31  1  0
  5 32  1  0
  5 33  1  0
  7 34  1  0
  7 35  1  0
  8 36  1  0
  8 37  1  0
  9 38  1  0
 13 39  1  0
 14 40  1  0
 15 41  1  0
 16 42  1  0
 18 43  1  0
 19 44  1  0
 19 45  1  0
 20 46  1  0
 20 47  1  0
 26 48  1  0
 27 49  1  0
 28 50  1  0
 29 51  1  0
M  END
>  <meeko>  (4) 
{"is_sidechain": [false], "free_energy": -9.794, "intermolecular_energy": -10.729, "internal_energy": -0.499}

$$$$
ligand_75_conformer_3_docked
     RDKit          3D

 51 56  0  0  0  0  0  0  0  0999 V2000
    7.4100   48.3160   52.7790 O   0  0  0  0  0  0  0  0  0  0  0  0
    6.6330   47.3250   52.7640 C   0  0  0  0  0  0  0  0  0  0  0  0
    5.5970   47.2320   53.6530 N   0  0  0  0  0  0  0  0  0  0  0  0
    4.7500   46.1450   53.6530 C   0  0  0  0  0  0  0  0  0  0  0  0
    3.6220   46.0600   54.6430 C   0  0  0  0  0  0  0  0  0  0  0  0
    2.3290   45.6940   54.0290 N   0  0  0  0  0  0  0  0  0  0  0  0
    1.8760   44.3020   54.2230 C   0  0  0  0  0  0  0  0  0  0  0  0
    2.2700   43.3790   53.0640 C   0  0  0  0  0  0  0  0  0  0  0  0
    1.8400   43.9390   51.7050 C   0  0  0  0  0  0  0  0  0  0  0  0
    0.3510   43.7940   51.4890 C   0  0  0  0  0  0  0  0  0  0  0  0
   -0.3660   42.6960   51.8550 N   0  0  0  0  0  0  0  0  0  0  0  0
   -1.6020   42.9850   51.4140 C   0  0  0  0  0  0  0  0  0  0  0  0
   -2.7490   42.2010   51.5180 C   0  0  0  0  0  0  0  0  0  0  0  0
   -3.9410   42.7100   50.9650 C   0  0  0  0  0  0  0  0  0  0  0  0
   -3.9520   43.9730   50.3280 C   0  0  0  0  0  0  0  0  0  0  0  0
   -2.7720   44.7370   50.2370 C   0  0  0  0  0  0  0  0  0  0  0  0
   -1.6160   44.2010   50.7990 C   0  0  0  0  0  0  0  0  0  0  0  0
   -0.3850   44.7250   50.8330 N   0  0  0  0  0  0  0  0  0  0  0  0
    2.3440   45.3800   51.5230 C   0  0  0  0  0  0  0  0  0  0  0  0
    2.0250   46.3000   52.7160 C   0  0  0  0  0  0  0  0  0  0  0  0
    4.9150   45.1410   52.7380 N   0  0  0  0  0  0  0  0  0  0  0  0
    5.9410   45.2380   51.8630 C   0  0  0  0  0  0  0  0  0  0  0  0
    6.8040   46.2960   51.8510 C   0  0  0  0  0  0  0  0  0  0  0  0
    7.7190   46.1540   50.9110 O   0  0  0  0  0  0  0  0  0  0  0  0
    7.4540   45.0060   50.3120 C   0  0  0  0  0  0  0  0  0  0  0  0
    8.1460   44.4180   49.2550 C   0  0  0  0  0  0  0  0  0  0  0  0
    7.6850   43.1780   48.7730 C   0  0  0  0  0  0  0  0  0  0  0  0
    6.5550   42.5550   49.3520 C   0  0  0  0  0  0  0  0  0  0  0  0
    5.8690   43.1650   50.4190 C   0  0  0  0  0  0  0  0  0  0  0  0
    6.3490   44.3910   50.8700 C   0  0  0  0  0  0  0  0  0  0  0  0
    5.4560   47.9990   54.3500 H   0  0  0  0  0  0  0  0  0  0  0  0
    3.8768   45.3014   55.3977 H   0  0  0  0  0  0  0  0  0  0  0  0
    3.5006   47.0605   55.0838 H   0  0  0  0  0  0  0  0  0  0  0  0
    2.3240   43.9130   55.1493 H   0  0  0  0  0  0  0  0  0  0  0  0
    0.7773   44.3167   54.2742 H   0  0  0  0  0  0  0  0  0  0  0  0
    3.3630   43.2550   53.0660 H   0  0  0  0  0  0  0  0  0  0  0  0
    1.7570   42.4169   53.2098 H   0  0  0  0  0  0  0  0  0  0  0  0
    2.3150   43.3388   50.9150 H   0  0  0  0  0  0  0  0  0  0  0  0
   -2.7250   41.2195   52.0142 H   0  0  0  0  0  0  0  0  0  0  0  0
   -4.8683   42.1218   51.0290 H   0  0  0  0  0  0  0  0  0  0  0  0
   -4.8884   44.3612   49.9008 H   0  0  0  0  0  0  0  0  0  0  0  0
   -2.7640   45.7189   49.7412 H   0  0  0  0  0  0  0  0  0  0  0  0
   -0.0660   45.6360   50.4330 H   0  0  0  0  0  0  0  0  0  0  0  0
    3.4352   45.3522   51.3873 H   0  0  0  0  0  0  0  0  0  0  0  0
    1.8240   45.7954   50.6472 H   0  0  0  0  0  0  0  0  0  0  0  0
    2.6173   47.2211   52.6128 H   0  0  0  0  0  0  0  0  0  0  0  0
    0.9424   46.4936   52.6933 H   0  0  0  0  0  0  0  0  0  0  0  0
    9.0253   44.9075   48.8109 H   0  0  0  0  0  0  0  0  0  0  0  0
    8.2087   42.6892   47.9382 H   0  0  0  0  0  0  0  0  0  0  0  0
    6.2092   41.5851   48.9650 H   0  0  0  0  0  0  0  0  0  0  0  0
    4.9886   42.6916   50.8781 H   0  0  0  0  0  0  0  0  0  0  0  0
  1  2  2  0
  2  3  1  0
  3  4  1  0
  4  5  1  0
  5  6  1  0
  6  7  1  0
  7  8  1  0
  8  9  1  0
  9 10  1  0
 10 11  2  0
 11 12  1  0
 12 13  2  0
 13 14  1  0
 14 15  2  0
 15 16  1  0
 16 17  2  0
 17 18  1  0
  9 19  1  0
 19 20  1  0
  4 21  2  0
 21 22  1  0
 22 23  2  0
 23 24  1  0
 24 25  1  0
 25 26  2  0
 26 27  1  0
 27 28  2  0
 28 29  1  0
 29 30  2  0
 23  2  1  0
 30 25  1  0
 20  6  1  0
 30 22  1  0
 18 10  1  0
 17 12  1  0
  3 31  1  0
  5 32  1  0
  5 33  1  0
  7 34  1  0
  7 35  1  0
  8 36  1  0
  8 37  1  0
  9 38  1  0
 13 39  1  0
 14 40  1  0
 15 41  1  0
 16 42  1  0
 18 43  1  0
 19 44  1  0
 19 45  1  0
 20 46  1  0
 20 47  1  0
 26 48  1  0
 27 49  1  0
 28 50  1  0
 29 51  1  0
M  END
>  <meeko>  (5) 
{"is_sidechain": [false], "free_energy": -9.782, "intermolecular_energy": -11.489, "internal_energy": 0.276}

$$$$
