ligand_95_conformer_4_docked
     RDKit          3D

 30 32  0  0  0  0  0  0  0  0999 V2000
    1.9640   42.9380   53.0790 N   0  0  0  0  0  0  0  0  0  0  0  0
    2.8390   42.7790   52.3390 C   0  0  0  0  0  0  0  0  0  0  0  0
    3.9290   42.5820   51.4210 C   0  0  0  0  0  0  0  0  0  0  0  0
    4.0610   41.4250   50.6410 C   0  0  0  0  0  0  0  0  0  0  0  0
    5.1900   41.4320   49.8290 C   0  0  0  0  0  0  0  0  0  0  0  0
    6.0200   42.8740   50.0840 S   0  0  0  0  0  0  0  0  0  0  0  0
    4.9540   43.5000   51.2210 C   0  0  0  0  0  0  0  0  0  0  0  0
    5.1500   45.0460   52.0350 S   0  0  0  0  0  0  0  0  0  0  0  0
    5.6750   44.7970   53.4220 O   0  0  0  0  0  0  0  0  0  0  0  0
    3.8290   45.7550   52.1290 O   0  0  0  0  0  0  0  0  0  0  0  0
    6.2750   46.0370   51.1620 N   0  0  0  0  0  0  0  0  0  0  0  0
    7.6980   45.9370   51.3360 C   0  0  0  0  0  0  0  0  0  0  0  0
    8.5080   45.2210   50.4270 C   0  0  0  0  0  0  0  0  0  0  0  0
    9.8990   45.1330   50.6200 C   0  0  0  0  0  0  0  0  0  0  0  0
   10.5050   45.7590   51.7190 C   0  0  0  0  0  0  0  0  0  0  0  0
    9.7010   46.4690   52.6070 C   0  0  0  0  0  0  0  0  0  0  0  0
    8.3350   46.5600   52.4200 C   0  0  0  0  0  0  0  0  0  0  0  0
    7.7180   47.2980   53.4640 N   0  0  0  0  0  0  0  0  0  0  0  0
    8.7860   47.6740   54.3240 C   0  0  0  0  0  0  0  0  0  0  0  0
    8.6130   48.3430   55.3770 O   0  0  0  0  0  0  0  0  0  0  0  0
   10.1210   47.1870   53.8490 C   0  0  0  0  0  0  0  0  0  0  0  0
    3.3420   40.5929   50.6684 H   0  0  0  0  0  0  0  0  0  0  0  0
    5.4898   40.6309   49.1373 H   0  0  0  0  0  0  0  0  0  0  0  0
    5.8750   46.8130   50.5900 H   0  0  0  0  0  0  0  0  0  0  0  0
    8.0466   44.7271   49.5592 H   0  0  0  0  0  0  0  0  0  0  0  0
   10.5153   44.5694   49.9041 H   0  0  0  0  0  0  0  0  0  0  0  0
   11.5916   45.6906   51.8761 H   0  0  0  0  0  0  0  0  0  0  0  0
    6.7020   47.4850   53.6120 H   0  0  0  0  0  0  0  0  0  0  0  0
   10.8057   48.0193   53.6289 H   0  0  0  0  0  0  0  0  0  0  0  0
   10.6790   46.5763   54.5740 H   0  0  0  0  0  0  0  0  0  0  0  0
  1  2  3  0
  2  3  1  0
  3  4  1  0
  4  5  2  0
  5  6  1  0
  6  7  1  0
  7  8  1  0
  8  9  2  0
  8 10  2  0
  8 11  1  0
 11 12  1  0
 12 13  2  0
 13 14  1  0
 14 15  2  0
 15 16  1  0
 16 17  2  0
 17 18  1  0
 18 19  1  0
 19 20  2  0
 19 21  1  0
  7  3  2  0
 17 12  1  0
 21 16  1  0
  4 22  1  0
  5 23  1  0
 11 24  1  0
 13 25  1  0
 14 26  1  0
 15 27  1  0
 18 28  1  0
 21 29  1  0
 21 30  1  0
M  END
>  <meeko>  (1) 
{"is_sidechain": [false], "free_energy": -8.967, "intermolecular_energy": -10.54, "internal_energy": -0.302}

$$$$
ligand_95_conformer_4_docked
     RDKit          3D

 30 32  0  0  0  0  0  0  0  0999 V2000
    5.4300   43.1300   50.8230 N   0  0  0  0  0  0  0  0  0  0  0  0
    4.5180   43.7260   51.2130 C   0  0  0  0  0  0  0  0  0  0  0  0
    3.3860   44.4710   51.6990 C   0  0  0  0  0  0  0  0  0  0  0  0
    2.0800   44.2460   51.2410 C   0  0  0  0  0  0  0  0  0  0  0  0
    1.1370   45.0790   51.8310 C   0  0  0  0  0  0  0  0  0  0  0  0
    1.9280   46.0920   52.9180 S   0  0  0  0  0  0  0  0  0  0  0  0
    3.4680   45.4800   52.6510 C   0  0  0  0  0  0  0  0  0  0  0  0
    4.9300   46.0670   53.4320 S   0  0  0  0  0  0  0  0  0  0  0  0
    5.6350   44.9040   54.0730 O   0  0  0  0  0  0  0  0  0  0  0  0
    4.5840   47.0760   54.4910 O   0  0  0  0  0  0  0  0  0  0  0  0
    5.9760   46.8020   52.2590 N   0  0  0  0  0  0  0  0  0  0  0  0
    7.4090   46.7280   52.3410 C   0  0  0  0  0  0  0  0  0  0  0  0
    8.1360   47.4570   53.3070 C   0  0  0  0  0  0  0  0  0  0  0  0
    9.5400   47.3720   53.3650 C   0  0  0  0  0  0  0  0  0  0  0  0
   10.2400   46.5570   52.4630 C   0  0  0  0  0  0  0  0  0  0  0  0
    9.5150   45.8360   51.5170 C   0  0  0  0  0  0  0  0  0  0  0  0
    8.1370   45.9150   51.4580 C   0  0  0  0  0  0  0  0  0  0  0  0
    7.6190   45.1280   50.3970 N   0  0  0  0  0  0  0  0  0  0  0  0
    8.7620   44.5390   49.7880 C   0  0  0  0  0  0  0  0  0  0  0  0
    8.6870   43.7720   48.7920 O   0  0  0  0  0  0  0  0  0  0  0  0
   10.0460   44.9340   50.4490 C   0  0  0  0  0  0  0  0  0  0  0  0
    1.8267   43.4847   50.4885 H   0  0  0  0  0  0  0  0  0  0  0  0
    0.0569   45.0768   51.6230 H   0  0  0  0  0  0  0  0  0  0  0  0
    5.5280   47.4200   51.5480 H   0  0  0  0  0  0  0  0  0  0  0  0
    7.5997   48.0982   54.0220 H   0  0  0  0  0  0  0  0  0  0  0  0
   10.0916   47.9483   54.1224 H   0  0  0  0  0  0  0  0  0  0  0  0
   11.3372   46.4888   52.5019 H   0  0  0  0  0  0  0  0  0  0  0  0
    6.6270   45.0340   50.0840 H   0  0  0  0  0  0  0  0  0  0  0  0
   10.5728   44.0656   50.8714 H   0  0  0  0  0  0  0  0  0  0  0  0
   10.7915   45.3912   49.7818 H   0  0  0  0  0  0  0  0  0  0  0  0
  1  2  3  0
  2  3  1  0
  3  4  1  0
  4  5  2  0
  5  6  1  0
  6  7  1  0
  7  8  1  0
  8  9  2  0
  8 10  2  0
  8 11  1  0
 11 12  1  0
 12 13  2  0
 13 14  1  0
 14 15  2  0
 15 16  1  0
 16 17  2  0
 17 18  1  0
 18 19  1  0
 19 20  2  0
 19 21  1  0
  7  3  2  0
 17 12  1  0
 21 16  1  0
  4 22  1  0
  5 23  1  0
 11 24  1  0
 13 25  1  0
 14 26  1  0
 15 27  1  0
 18 28  1  0
 21 29  1  0
 21 30  1  0
M  END
>  <meeko>  (2) 
{"is_sidechain": [false], "free_energy": -8.811, "intermolecular_energy": -9.879, "internal_energy": -0.78}

$$$$
ligand_95_conformer_4_docked
     RDKit          3D

 30 32  0  0  0  0  0  0  0  0999 V2000
    9.0020   48.3220   55.3270 N   0  0  0  0  0  0  0  0  0  0  0  0
    9.0410   47.7100   54.3460 C   0  0  0  0  0  0  0  0  0  0  0  0
    9.0870   46.9490   53.1240 C   0  0  0  0  0  0  0  0  0  0  0  0
   10.2820   46.6880   52.4410 C   0  0  0  0  0  0  0  0  0  0  0  0
   10.1040   45.9460   51.2790 C   0  0  0  0  0  0  0  0  0  0  0  0
    8.4620   45.6190   51.1040 S   0  0  0  0  0  0  0  0  0  0  0  0
    7.9680   46.4110   52.5000 C   0  0  0  0  0  0  0  0  0  0  0  0
    6.2990   46.5530   53.0350 S   0  0  0  0  0  0  0  0  0  0  0  0
    6.0170   47.9930   53.3590 O   0  0  0  0  0  0  0  0  0  0  0  0
    6.0750   45.7190   54.2650 O   0  0  0  0  0  0  0  0  0  0  0  0
    5.2260   46.0240   51.7780 N   0  0  0  0  0  0  0  0  0  0  0  0
    4.3170   44.9230   51.9440 C   0  0  0  0  0  0  0  0  0  0  0  0
    3.1050   45.0620   52.6570 C   0  0  0  0  0  0  0  0  0  0  0  0
    2.2320   43.9680   52.8100 C   0  0  0  0  0  0  0  0  0  0  0  0
    2.5520   42.7210   52.2530 C   0  0  0  0  0  0  0  0  0  0  0  0
    3.7450   42.5940   51.5460 C   0  0  0  0  0  0  0  0  0  0  0  0
    4.6040   43.6650   51.3920 C   0  0  0  0  0  0  0  0  0  0  0  0
    5.7690   43.2950   50.6700 N   0  0  0  0  0  0  0  0  0  0  0  0
    5.5890   41.9160   50.3730 C   0  0  0  0  0  0  0  0  0  0  0  0
    6.4410   41.2370   49.7400 O   0  0  0  0  0  0  0  0  0  0  0  0
    4.2980   41.3670   50.8960 C   0  0  0  0  0  0  0  0  0  0  0  0
   11.2653   47.0362   52.7902 H   0  0  0  0  0  0  0  0  0  0  0  0
   10.9006   45.6268   50.5909 H   0  0  0  0  0  0  0  0  0  0  0  0
    5.3520   46.4550   50.8370 H   0  0  0  0  0  0  0  0  0  0  0  0
    2.8408   46.0349   53.0970 H   0  0  0  0  0  0  0  0  0  0  0  0
    1.2932   44.0919   53.3698 H   0  0  0  0  0  0  0  0  0  0  0  0
    1.8752   41.8620   52.3721 H   0  0  0  0  0  0  0  0  0  0  0  0
    6.6060   43.8780   50.4480 H   0  0  0  0  0  0  0  0  0  0  0  0
    3.6486   41.0056   50.0850 H   0  0  0  0  0  0  0  0  0  0  0  0
    4.3976   40.4942   51.5581 H   0  0  0  0  0  0  0  0  0  0  0  0
  1  2  3  0
  2  3  1  0
  3  4  1  0
  4  5  2  0
  5  6  1  0
  6  7  1  0
  7  8  1  0
  8  9  2  0
  8 10  2  0
  8 11  1  0
 11 12  1  0
 12 13  2  0
 13 14  1  0
 14 15  2  0
 15 16  1  0
 16 17  2  0
 17 18  1  0
 18 19  1  0
 19 20  2  0
 19 21  1  0
  7  3  2  0
 17 12  1  0
 21 16  1  0
  4 22  1  0
  5 23  1  0
 11 24  1  0
 13 25  1  0
 14 26  1  0
 15 27  1  0
 18 28  1  0
 21 29  1  0
 21 30  1  0
M  END
>  <meeko>  (3) 
{"is_sidechain": [false], "free_energy": -8.78, "intermolecular_energy": -10.214, "internal_energy": -0.408}

$$$$
ligand_95_conformer_4_docked
     RDKit          3D

 30 32  0  0  0  0  0  0  0  0999 V2000
    4.6180   42.7370   51.1920 N   0  0  0  0  0  0  0  0  0  0  0  0
    3.8520   43.1620   51.9480 C   0  0  0  0  0  0  0  0  0  0  0  0
    2.9000   43.6940   52.8870 C   0  0  0  0  0  0  0  0  0  0  0  0
    1.5770   43.2390   52.9630 C   0  0  0  0  0  0  0  0  0  0  0  0
    0.8220   43.8920   53.9310 C   0  0  0  0  0  0  0  0  0  0  0  0
    1.8010   45.0340   54.6880 S   0  0  0  0  0  0  0  0  0  0  0  0
    3.1860   44.7050   53.7980 C   0  0  0  0  0  0  0  0  0  0  0  0
    4.7190   45.5460   53.9820 S   0  0  0  0  0  0  0  0  0  0  0  0
    5.7390   44.5790   54.5150 O   0  0  0  0  0  0  0  0  0  0  0  0
    4.5730   46.6890   54.9480 O   0  0  0  0  0  0  0  0  0  0  0  0
    5.2500   46.1560   52.4470 N   0  0  0  0  0  0  0  0  0  0  0  0
    6.6130   46.0620   52.0020 C   0  0  0  0  0  0  0  0  0  0  0  0
    6.9590   45.4000   50.8030 C   0  0  0  0  0  0  0  0  0  0  0  0
    8.3020   45.3170   50.3900 C   0  0  0  0  0  0  0  0  0  0  0  0
    9.3210   45.8940   51.1630 C   0  0  0  0  0  0  0  0  0  0  0  0
    8.9710   46.5510   52.3400 C   0  0  0  0  0  0  0  0  0  0  0  0
    7.6540   46.6370   52.7490 C   0  0  0  0  0  0  0  0  0  0  0  0
    7.5400   47.3150   53.9900 N   0  0  0  0  0  0  0  0  0  0  0  0
    8.8750   47.6590   54.3400 C   0  0  0  0  0  0  0  0  0  0  0  0
    9.1670   48.2720   55.4010 O   0  0  0  0  0  0  0  0  0  0  0  0
    9.8810   47.2100   53.3260 C   0  0  0  0  0  0  0  0  0  0  0  0
    1.1747   42.4427   52.3195 H   0  0  0  0  0  0  0  0  0  0  0  0
   -0.2352   43.6959   54.1629 H   0  0  0  0  0  0  0  0  0  0  0  0
    4.5640   46.7180   51.8990 H   0  0  0  0  0  0  0  0  0  0  0  0
    6.1706   44.9446   50.1857 H   0  0  0  0  0  0  0  0  0  0  0  0
    8.5545   44.7961   49.4546 H   0  0  0  0  0  0  0  0  0  0  0  0
   10.3725   45.8289   50.8465 H   0  0  0  0  0  0  0  0  0  0  0  0
    6.6820   47.4840   54.5600 H   0  0  0  0  0  0  0  0  0  0  0  0
   10.4204   48.0591   52.8810 H   0  0  0  0  0  0  0  0  0  0  0  0
   10.6839   46.5690   53.7191 H   0  0  0  0  0  0  0  0  0  0  0  0
  1  2  3  0
  2  3  1  0
  3  4  1  0
  4  5  2  0
  5  6  1  0
  6  7  1  0
  7  8  1  0
  8  9  2  0
  8 10  2  0
  8 11  1  0
 11 12  1  0
 12 13  2  0
 13 14  1  0
 14 15  2  0
 15 16  1  0
 16 17  2  0
 17 18  1  0
 18 19  1  0
 19 20  2  0
 19 21  1  0
  7  3  2  0
 17 12  1  0
 21 16  1  0
  4 22  1  0
  5 23  1  0
 11 24  1  0
 13 25  1  0
 14 26  1  0
 15 27  1  0
 18 28  1  0
 21 29  1  0
 21 30  1  0
M  END
>  <meeko>  (4) 
{"is_sidechain": [false], "free_energy": -8.762, "intermolecular_energy": -9.987, "internal_energy": -0.614}

$$$$
ligand_95_conformer_4_docked
     RDKit          3D

 30 32  0  0  0  0  0  0  0  0999 V2000
    6.0650   45.2090   55.5320 N   0  0  0  0  0  0  0  0  0  0  0  0
    4.9550   45.2510   55.2090 C   0  0  0  0  0  0  0  0  0  0  0  0
    3.5750   45.3020   54.8040 C   0  0  0  0  0  0  0  0  0  0  0  0
    2.5210   45.4050   55.7220 C   0  0  0  0  0  0  0  0  0  0  0  0
    1.2670   45.4290   55.1230 C   0  0  0  0  0  0  0  0  0  0  0  0
    1.4710   45.3220   53.4550 S   0  0  0  0  0  0  0  0  0  0  0  0
    3.1480   45.2480   53.4820 C   0  0  0  0  0  0  0  0  0  0  0  0
    4.1670   45.0880   52.0580 S   0  0  0  0  0  0  0  0  0  0  0  0
    3.2980   45.1530   50.8330 O   0  0  0  0  0  0  0  0  0  0  0  0
    4.8870   43.7690   52.0790 O   0  0  0  0  0  0  0  0  0  0  0  0
    5.3280   46.3760   52.0110 N   0  0  0  0  0  0  0  0  0  0  0  0
    6.7190   46.1590   51.7210 C   0  0  0  0  0  0  0  0  0  0  0  0
    7.1360   45.4330   50.5820 C   0  0  0  0  0  0  0  0  0  0  0  0
    8.5040   45.2300   50.3220 C   0  0  0  0  0  0  0  0  0  0  0  0
    9.4780   45.7480   51.1890 C   0  0  0  0  0  0  0  0  0  0  0  0
    9.0590   46.4680   52.3050 C   0  0  0  0  0  0  0  0  0  0  0  0
    7.7170   46.6720   52.5640 C   0  0  0  0  0  0  0  0  0  0  0  0
    7.5270   47.3970   53.7690 N   0  0  0  0  0  0  0  0  0  0  0  0
    8.8410   47.6440   54.2560 C   0  0  0  0  0  0  0  0  0  0  0  0
    9.0660   48.2660   55.3280 O   0  0  0  0  0  0  0  0  0  0  0  0
    9.9100   47.0830   53.3690 C   0  0  0  0  0  0  0  0  0  0  0  0
    2.6715   45.4613   56.8102 H   0  0  0  0  0  0  0  0  0  0  0  0
    0.3042   45.5050   55.6495 H   0  0  0  0  0  0  0  0  0  0  0  0
    5.0060   47.3140   52.3310 H   0  0  0  0  0  0  0  0  0  0  0  0
    6.3838   45.0227   49.8922 H   0  0  0  0  0  0  0  0  0  0  0  0
    8.8120   44.6610   49.4324 H   0  0  0  0  0  0  0  0  0  0  0  0
   10.5484   45.5890   50.9917 H   0  0  0  0  0  0  0  0  0  0  0  0
    6.6300   47.6520   54.2370 H   0  0  0  0  0  0  0  0  0  0  0  0
   10.5630   47.8712   52.9662 H   0  0  0  0  0  0  0  0  0  0  0  0
   10.6100   46.3927   53.8625 H   0  0  0  0  0  0  0  0  0  0  0  0
  1  2  3  0
  2  3  1  0
  3  4  1  0
  4  5  2  0
  5  6  1  0
  6  7  1  0
  7  8  1  0
  8  9  2  0
  8 10  2  0
  8 11  1  0
 11 12  1  0
 12 13  2  0
 13 14  1  0
 14 15  2  0
 15 16  1  0
 16 17  2  0
 17 18  1  0
 18 19  1  0
 19 20  2  0
 19 21  1  0
  7  3  2  0
 17 12  1  0
 21 16  1  0
  4 22  1  0
  5 23  1  0
 11 24  1  0
 13 25  1  0
 14 26  1  0
 15 27  1  0
 18 28  1  0
 21 29  1  0
 21 30  1  0
M  END
>  <meeko>  (5) 
{"is_sidechain": [false], "free_energy": -8.72, "intermolecular_energy": -9.879, "internal_energy": -0.673}

$$$$
