MODEL 1
REMARK VINA RESULT:    -7.478      0.000      0.000
REMARK INTER + INTRA:         -11.503
REMARK INTER:                 -11.412
REMARK INTRA:                  -0.091
REMARK UNBOUND:                -0.091
REMARK SMILES CC(C)c1nnc2ccc(NC(=O)N3CCCc4ccccc4CC3)cn12
REMARK SMILES IDX 14 1 12 2 11 3 13 4 10 6 4 7 5 8 27 9 6 10 26 11 7 12 8 13
REMARK SMILES IDX 9 14 2 15 1 16 3 17 15 18 16 19 25 21 24 22 23 23 22 24
REMARK SMILES IDX 18 25 21 26 19 27 20 28 17 29
REMARK H PARENT 11 5
REMARK Flexibility Score:   60.900
ROOT
ATOM      1  N   UNL     1       4.873  44.719  53.028  1.00  0.00    -0.324 N 
ENDROOT
BRANCH   1   2
ATOM      2  C   UNL     1       3.425  44.737  53.048  1.00  0.00     0.321 C 
ATOM      3  N   UNL     1       2.668  43.523  53.214  1.00  0.00    -0.306 N 
ATOM      4  O   UNL     1       2.818  45.828  52.865  1.00  0.00    -0.248 OA
ATOM      5  H   UNL     1       3.170  42.611  53.231  1.00  0.00     0.171 HD
BRANCH   3   6
ATOM      6  C   UNL     1       1.241  43.459  53.064  1.00  0.00     0.059 A 
ATOM      7  C   UNL     1      -1.955  43.872  54.844  1.00  0.00     0.140 A 
ATOM      8  N   UNL     1      -3.131  43.632  54.214  1.00  0.00    -0.134 NA
ATOM      9  N   UNL     1      -0.927  43.687  53.997  1.00  0.00    -0.284 N 
ATOM     10  N   UNL     1      -2.854  43.313  52.953  1.00  0.00    -0.130 NA
ATOM     11  C   UNL     1       0.417  43.762  54.164  1.00  0.00     0.120 A 
ATOM     12  C   UNL     1      -1.514  43.350  52.843  1.00  0.00     0.160 A 
ATOM     13  C   UNL     1      -0.761  43.064  51.709  1.00  0.00     0.052 A 
ATOM     14  C   UNL     1       0.638  43.128  51.826  1.00  0.00     0.031 A 
BRANCH   7  15
ATOM     15  C   UNL     1      -1.820  44.180  56.315  1.00  0.00     0.052 C 
ATOM     16  C   UNL     1      -3.032  43.635  57.077  1.00  0.00     0.016 C 
ATOM     17  C   UNL     1      -1.655  45.684  56.559  1.00  0.00     0.016 C 
ENDBRANCH   7  15
ENDBRANCH   3   6
ENDBRANCH   1   2
BRANCH   1  18
ATOM     18  C   UNL     1       5.594  44.593  54.309  1.00  0.00     0.121 C 
BRANCH  18  19
ATOM     19  C   UNL     1       5.700  45.915  55.088  1.00  0.00     0.026 CG0
ATOM     20  G   UNL     1       6.199  47.130  54.271  1.00  0.00     0.000 G0
ENDBRANCH  18  19
ENDBRANCH   1  18
BRANCH   1  21
ATOM     21  C   UNL     1       5.612  44.714  51.749  1.00  0.00     0.126 C 
BRANCH  21  22
ATOM     22  C   UNL     1       6.204  46.101  51.396  1.00  0.00     0.057 C 
BRANCH  22  23
ATOM     23  C   UNL     1       7.478  46.403  52.151  1.00  0.00    -0.043 A 
ATOM     24  C   UNL     1       8.708  46.191  51.502  1.00  0.00     0.004 A 
ATOM     25  C   UNL     1       7.462  47.004  53.441  1.00  0.00    -0.045 A 
ATOM     26  C   UNL     1       9.906  46.581  52.099  1.00  0.00     0.000 A 
ATOM     27  C   UNL     1       8.688  47.383  54.024  1.00  0.00     0.004 A 
ATOM     28  C   UNL     1       9.895  47.183  53.354  1.00  0.00     0.000 A 
BRANCH  25  29
ATOM     29  C   UNL     1       6.197  47.149  54.279  1.00  0.00     0.037 CG0
ATOM     30  G   UNL     1       5.711  45.909  55.065  1.00  0.00     0.000 G0
ENDBRANCH  25  29
ENDBRANCH  22  23
ENDBRANCH  21  22
ENDBRANCH   1  21
TORSDOF 3
ENDMDL
MODEL 2
REMARK VINA RESULT:    -6.900      2.804      8.726
REMARK INTER + INTRA:         -10.621
REMARK INTER:                 -10.365
REMARK INTRA:                  -0.256
REMARK UNBOUND:                -0.091
REMARK SMILES CC(C)c1nnc2ccc(NC(=O)N3CCCc4ccccc4CC3)cn12
REMARK SMILES IDX 14 1 12 2 11 3 13 4 10 6 4 7 5 8 27 9 6 10 26 11 7 12 8 13
REMARK SMILES IDX 9 14 2 15 1 16 3 17 15 18 16 19 25 21 24 22 23 23 22 24
REMARK SMILES IDX 18 25 21 26 19 27 20 28 17 29
REMARK H PARENT 11 5
REMARK Flexibility Score:   60.900
ROOT
ATOM      1  N   UNL     1       0.945  44.652  54.503  1.00  0.00    -0.324 N 
ENDROOT
BRANCH   1   2
ATOM      2  C   UNL     1       1.937  44.765  53.453  1.00  0.00     0.321 C 
ATOM      3  N   UNL     1       3.105  43.922  53.437  1.00  0.00    -0.306 N 
ATOM      4  O   UNL     1       1.799  45.653  52.567  1.00  0.00    -0.248 OA
ATOM      5  H   UNL     1       3.280  43.285  54.242  1.00  0.00     0.171 HD
BRANCH   3   6
ATOM      6  C   UNL     1       4.199  44.112  52.527  1.00  0.00     0.059 A 
ATOM      7  C   UNL     1       7.156  46.191  51.829  1.00  0.00     0.140 A 
ATOM      8  N   UNL     1       7.906  45.975  50.721  1.00  0.00    -0.134 NA
ATOM      9  N   UNL     1       6.151  45.300  51.894  1.00  0.00    -0.284 N 
ATOM     10  N   UNL     1       7.390  44.926  50.085  1.00  0.00    -0.130 NA
ATOM     11  C   UNL     1       5.131  45.137  52.773  1.00  0.00     0.120 A 
ATOM     12  C   UNL     1       6.328  44.534  50.811  1.00  0.00     0.160 A 
ATOM     13  C   UNL     1       5.460  43.486  50.521  1.00  0.00     0.052 A 
ATOM     14  C   UNL     1       4.385  43.273  51.401  1.00  0.00     0.031 A 
BRANCH   7  15
ATOM     15  C   UNL     1       7.352  47.346  52.782  1.00  0.00     0.052 C 
ATOM     16  C   UNL     1       8.096  48.484  52.078  1.00  0.00     0.016 C 
ATOM     17  C   UNL     1       8.099  46.906  54.046  1.00  0.00     0.016 C 
ENDBRANCH   7  15
ENDBRANCH   3   6
ENDBRANCH   1   2
BRANCH   1  18
ATOM     18  C   UNL     1      -0.216  43.769  54.283  1.00  0.00     0.121 C 
BRANCH  18  19
ATOM     19  C   UNL     1      -1.504  44.526  53.922  1.00  0.00     0.026 CG0
ATOM     20  G   UNL     1      -2.481  44.773  55.094  1.00  0.00     0.000 G0
ENDBRANCH  18  19
ENDBRANCH   1  18
BRANCH   1  21
ATOM     21  C   UNL     1       1.146  45.314  55.808  1.00  0.00     0.126 C 
BRANCH  21  22
ATOM     22  C   UNL     1       0.058  44.934  56.843  1.00  0.00     0.057 C 
BRANCH  22  23
ATOM     23  C   UNL     1      -1.052  45.956  56.926  1.00  0.00    -0.043 A 
ATOM     24  C   UNL     1      -0.917  47.021  57.835  1.00  0.00     0.004 A 
ATOM     25  C   UNL     1      -2.160  45.935  56.033  1.00  0.00    -0.045 A 
ATOM     26  C   UNL     1      -1.843  48.063  57.855  1.00  0.00     0.000 A 
ATOM     27  C   UNL     1      -3.084  46.998  56.078  1.00  0.00     0.004 A 
ATOM     28  C   UNL     1      -2.919  48.055  56.973  1.00  0.00     0.000 A 
BRANCH  25  29
ATOM     29  C   UNL     1      -2.467  44.760  55.111  1.00  0.00     0.037 CG0
ATOM     30  G   UNL     1      -1.515  44.518  53.917  1.00  0.00     0.000 G0
ENDBRANCH  25  29
ENDBRANCH  22  23
ENDBRANCH  21  22
ENDBRANCH   1  21
TORSDOF 3
ENDMDL
MODEL 3
REMARK VINA RESULT:    -6.654      2.771      8.898
REMARK INTER + INTRA:         -10.246
REMARK INTER:                 -10.589
REMARK INTRA:                   0.343
REMARK UNBOUND:                -0.091
REMARK SMILES CC(C)c1nnc2ccc(NC(=O)N3CCCc4ccccc4CC3)cn12
REMARK SMILES IDX 14 1 12 2 11 3 13 4 10 6 4 7 5 8 27 9 6 10 26 11 7 12 8 13
REMARK SMILES IDX 9 14 2 15 1 16 3 17 15 18 16 19 25 21 24 22 23 23 22 24
REMARK SMILES IDX 18 25 21 26 19 27 20 28 17 29
REMARK H PARENT 11 5
REMARK Flexibility Score:   60.900
ROOT
ATOM      1  N   UNL     1       2.454  45.394  53.431  1.00  0.00    -0.324 N 
ENDROOT
BRANCH   1   2
ATOM      2  C   UNL     1       3.807  45.133  52.985  1.00  0.00     0.321 C 
ATOM      3  N   UNL     1       4.217  45.429  51.636  1.00  0.00    -0.306 N 
ATOM      4  O   UNL     1       4.625  44.588  53.777  1.00  0.00    -0.248 OA
ATOM      5  H   UNL     1       3.503  45.753  50.950  1.00  0.00     0.171 HD
BRANCH   3   6
ATOM      6  C   UNL     1       5.484  45.028  51.093  1.00  0.00     0.059 A 
ATOM      7  C   UNL     1       9.093  45.755  51.124  1.00  0.00     0.140 A 
ATOM      8  N   UNL     1       9.944  45.059  50.331  1.00  0.00    -0.134 NA
ATOM      9  N   UNL     1       7.836  45.302  50.970  1.00  0.00    -0.284 N 
ATOM     10  N   UNL     1       9.230  44.143  49.682  1.00  0.00    -0.130 NA
ATOM     11  C   UNL     1       6.653  45.695  51.504  1.00  0.00     0.120 A 
ATOM     12  C   UNL     1       7.957  44.309  50.082  1.00  0.00     0.160 A 
ATOM     13  C   UNL     1       6.846  43.589  49.652  1.00  0.00     0.052 A 
ATOM     14  C   UNL     1       5.594  43.955  50.175  1.00  0.00     0.031 A 
BRANCH   7  15
ATOM     15  C   UNL     1       9.488  46.946  51.963  1.00  0.00     0.052 C 
ATOM     16  C   UNL     1       9.728  46.510  53.410  1.00  0.00     0.016 C 
ATOM     17  C   UNL     1       8.428  48.052  51.896  1.00  0.00     0.016 C 
ENDBRANCH   7  15
ENDBRANCH   3   6
ENDBRANCH   1   2
BRANCH   1  18
ATOM     18  C   UNL     1       1.334  44.988  52.562  1.00  0.00     0.121 C 
BRANCH  18  19
ATOM     19  C   UNL     1       1.045  43.479  52.596  1.00  0.00     0.026 CG0
ATOM     20  G   UNL     1       0.205  42.989  53.798  1.00  0.00     0.000 G0
ENDBRANCH  18  19
ENDBRANCH   1  18
BRANCH   1  21
ATOM     21  C   UNL     1       2.196  45.951  54.775  1.00  0.00     0.126 C 
BRANCH  21  22
ATOM     22  C   UNL     1       1.590  44.908  55.746  1.00  0.00     0.057 C 
BRANCH  22  23
ATOM     23  C   UNL     1       0.087  44.804  55.631  1.00  0.00    -0.043 A 
ATOM     24  C   UNL     1      -0.707  45.631  56.446  1.00  0.00     0.004 A 
ATOM     25  C   UNL     1      -0.536  43.989  54.645  1.00  0.00    -0.045 A 
ATOM     26  C   UNL     1      -2.091  45.676  56.284  1.00  0.00     0.000 A 
ATOM     27  C   UNL     1      -1.937  44.049  54.505  1.00  0.00     0.004 A 
ATOM     28  C   UNL     1      -2.703  44.893  55.310  1.00  0.00     0.000 A 
BRANCH  25  29
ATOM     29  C   UNL     1       0.221  42.962  53.810  1.00  0.00     0.037 CG0
ATOM     30  G   UNL     1       1.041  43.481  52.606  1.00  0.00     0.000 G0
ENDBRANCH  25  29
ENDBRANCH  22  23
ENDBRANCH  21  22
ENDBRANCH   1  21
TORSDOF 3
ENDMDL
MODEL 4
REMARK VINA RESULT:    -6.613      1.226      2.719
REMARK INTER + INTRA:         -10.184
REMARK INTER:                 -10.302
REMARK INTRA:                   0.118
REMARK UNBOUND:                -0.091
REMARK SMILES CC(C)c1nnc2ccc(NC(=O)N3CCCc4ccccc4CC3)cn12
REMARK SMILES IDX 14 1 12 2 11 3 13 4 10 6 4 7 5 8 27 9 6 10 26 11 7 12 8 13
REMARK SMILES IDX 9 14 2 15 1 16 3 17 15 18 16 19 25 21 24 22 23 23 22 24
REMARK SMILES IDX 18 25 21 26 19 27 20 28 17 29
REMARK H PARENT 11 5
REMARK Flexibility Score:   60.900
ROOT
ATOM      1  N   UNL     1       4.340  46.089  53.738  1.00  0.00    -0.324 N 
ENDROOT
BRANCH   1   2
ATOM      2  C   UNL     1       2.907  45.956  53.894  1.00  0.00     0.321 C 
ATOM      3  N   UNL     1       2.343  45.052  54.864  1.00  0.00    -0.306 N 
ATOM      4  O   UNL     1       2.139  46.607  53.132  1.00  0.00    -0.248 OA
ATOM      5  H   UNL     1       2.978  44.421  55.396  1.00  0.00     0.171 HD
BRANCH   3   6
ATOM      6  C   UNL     1       0.941  44.752  54.938  1.00  0.00     0.059 A 
ATOM      7  C   UNL     1      -1.913  43.407  53.041  1.00  0.00     0.140 A 
ATOM      8  N   UNL     1      -3.152  43.373  53.591  1.00  0.00    -0.134 NA
ATOM      9  N   UNL     1      -1.027  43.907  53.920  1.00  0.00    -0.284 N 
ATOM     10  N   UNL     1      -3.053  43.834  54.834  1.00  0.00    -0.130 NA
ATOM     11  C   UNL     1       0.300  44.174  53.827  1.00  0.00     0.120 A 
ATOM     12  C   UNL     1      -1.759  44.154  55.013  1.00  0.00     0.160 A 
ATOM     13  C   UNL     1      -1.184  44.700  56.156  1.00  0.00     0.052 A 
ATOM     14  C   UNL     1       0.190  44.994  56.114  1.00  0.00     0.031 A 
BRANCH   7  15
ATOM     15  C   UNL     1      -1.604  43.050  51.607  1.00  0.00     0.052 C 
ATOM     16  C   UNL     1      -1.725  44.293  50.722  1.00  0.00     0.016 C 
ATOM     17  C   UNL     1      -2.517  41.929  51.101  1.00  0.00     0.016 C 
ENDBRANCH   7  15
ENDBRANCH   3   6
ENDBRANCH   1   2
BRANCH   1  18
ATOM     18  C   UNL     1       5.096  46.829  54.765  1.00  0.00     0.121 C 
BRANCH  18  19
ATOM     19  C   UNL     1       6.549  46.352  54.924  1.00  0.00     0.026 CG0
ATOM     20  G   UNL     1       7.605  47.159  54.134  1.00  0.00     0.000 G0
ENDBRANCH  18  19
ENDBRANCH   1  18
BRANCH   1  21
ATOM     21  C   UNL     1       5.048  45.403  52.636  1.00  0.00     0.126 C 
BRANCH  21  22
ATOM     22  C   UNL     1       5.856  46.380  51.747  1.00  0.00     0.057 C 
BRANCH  22  23
ATOM     23  C   UNL     1       7.342  46.111  51.783  1.00  0.00    -0.043 A 
ATOM     24  C   UNL     1       7.935  45.469  50.680  1.00  0.00     0.004 A 
ATOM     25  C   UNL     1       8.168  46.593  52.837  1.00  0.00    -0.045 A 
ATOM     26  C   UNL     1       9.318  45.319  50.600  1.00  0.00     0.000 A 
ATOM     27  C   UNL     1       9.563  46.424  52.734  1.00  0.00     0.004 A 
ATOM     28  C   UNL     1      10.131  45.804  51.621  1.00  0.00     0.000 A 
BRANCH  25  29
ATOM     29  C   UNL     1       7.613  47.176  54.132  1.00  0.00     0.037 CG0
ATOM     30  G   UNL     1       6.568  46.339  54.906  1.00  0.00     0.000 G0
ENDBRANCH  25  29
ENDBRANCH  22  23
ENDBRANCH  21  22
ENDBRANCH   1  21
TORSDOF 3
ENDMDL
MODEL 5
REMARK VINA RESULT:    -6.505      1.470      2.224
REMARK INTER + INTRA:         -10.018
REMARK INTER:                 -10.016
REMARK INTRA:                  -0.002
REMARK UNBOUND:                -0.091
REMARK SMILES CC(C)c1nnc2ccc(NC(=O)N3CCCc4ccccc4CC3)cn12
REMARK SMILES IDX 14 1 12 2 11 3 13 4 10 6 4 7 5 8 27 9 6 10 26 11 7 12 8 13
REMARK SMILES IDX 9 14 2 15 1 16 3 17 15 18 16 19 25 21 24 22 23 23 22 24
REMARK SMILES IDX 18 25 21 26 19 27 20 28 17 29
REMARK H PARENT 11 5
REMARK Flexibility Score:   60.900
ROOT
ATOM      1  N   UNL     1       4.041  46.259  53.239  1.00  0.00    -0.324 N 
ENDROOT
BRANCH   1   2
ATOM      2  C   UNL     1       2.616  46.000  53.255  1.00  0.00     0.321 C 
ATOM      3  N   UNL     1       2.086  44.784  53.815  1.00  0.00    -0.306 N 
ATOM      4  O   UNL     1       1.831  46.833  52.723  1.00  0.00    -0.248 OA
ATOM      5  H   UNL     1       2.746  44.042  54.131  1.00  0.00     0.171 HD
BRANCH   3   6
ATOM      6  C   UNL     1       0.708  44.399  53.698  1.00  0.00     0.059 A 
ATOM      7  C   UNL     1      -2.583  44.602  55.336  1.00  0.00     0.140 A 
ATOM      8  N   UNL     1      -3.661  43.979  54.799  1.00  0.00    -0.134 NA
ATOM      9  N   UNL     1      -1.502  44.418  54.557  1.00  0.00    -0.284 N 
ATOM     10  N   UNL     1      -3.271  43.412  53.661  1.00  0.00    -0.130 NA
ATOM     11  C   UNL     1      -0.208  44.801  54.688  1.00  0.00     0.120 A 
ATOM     12  C   UNL     1      -1.961  43.688  53.534  1.00  0.00     0.160 A 
ATOM     13  C   UNL     1      -1.117  43.279  52.507  1.00  0.00     0.052 A 
ATOM     14  C   UNL     1       0.236  43.650  52.592  1.00  0.00     0.031 A 
BRANCH   7  15
ATOM     15  C   UNL     1      -2.577  45.294  56.677  1.00  0.00     0.052 C 
ATOM     16  C   UNL     1      -3.081  44.338  57.762  1.00  0.00     0.016 C 
ATOM     17  C   UNL     1      -3.415  46.577  56.648  1.00  0.00     0.016 C 
ENDBRANCH   7  15
ENDBRANCH   3   6
ENDBRANCH   1   2
BRANCH   1  18
ATOM     18  C   UNL     1       4.640  46.828  52.017  1.00  0.00     0.121 C 
BRANCH  18  19
ATOM     19  C   UNL     1       5.022  45.770  50.969  1.00  0.00     0.026 CG0
ATOM     20  G   UNL     1       6.443  45.178  51.109  1.00  0.00     0.000 G0
ENDBRANCH  18  19
ENDBRANCH   1  18
BRANCH   1  21
ATOM     21  C   UNL     1       4.859  46.064  54.453  1.00  0.00     0.126 C 
BRANCH  21  22
ATOM     22  C   UNL     1       6.135  45.228  54.186  1.00  0.00     0.057 C 
BRANCH  22  23
ATOM     23  C   UNL     1       7.211  46.015  53.472  1.00  0.00    -0.043 A 
ATOM     24  C   UNL     1       8.091  46.797  54.242  1.00  0.00     0.004 A 
ATOM     25  C   UNL     1       7.429  45.889  52.072  1.00  0.00    -0.045 A 
ATOM     26  C   UNL     1       9.183  47.432  53.651  1.00  0.00     0.000 A 
ATOM     27  C   UNL     1       8.537  46.545  51.500  1.00  0.00     0.004 A 
ATOM     28  C   UNL     1       9.410  47.299  52.285  1.00  0.00     0.000 A 
BRANCH  25  29
ATOM     29  C   UNL     1       6.458  45.180  51.136  1.00  0.00     0.037 CG0
ATOM     30  G   UNL     1       5.042  45.783  50.980  1.00  0.00     0.000 G0
ENDBRANCH  25  29
ENDBRANCH  22  23
ENDBRANCH  21  22
ENDBRANCH   1  21
TORSDOF 3
ENDMDL
