ligand_84_conformer_3_docked
     RDKit          3D

 51 53  0  0  0  0  0  0  0  0999 V2000
    2.9730   47.9540   52.6290 C   0  0  0  0  0  0  0  0  0  0  0  0
    3.8340   46.9980   51.9230 N   0  0  0  0  0  0  0  0  0  0  0  0
    3.2940   46.2110   50.8080 C   0  0  0  0  0  0  0  0  0  0  0  0
    5.2090   46.8510   52.3480 C   0  0  0  0  0  0  0  0  0  0  0  0
    5.6390   47.5580   53.3030 O   0  0  0  0  0  0  0  0  0  0  0  0
    6.1710   45.9120   51.6460 C   0  0  2  0  0  0  0  0  0  0  0  0
    5.8160   44.5130   51.9140 N   0  0  0  0  0  0  0  0  0  0  0  0
    5.6890   43.5440   50.8630 C   0  0  0  0  0  0  0  0  0  0  0  0
    6.1490   43.7870   49.7130 O   0  0  0  0  0  0  0  0  0  0  0  0
    4.9520   42.2670   51.1140 C   0  0  0  0  0  0  0  0  0  0  0  0
    3.5680   42.5780   51.5910 C   0  0  0  0  0  0  0  0  0  0  0  0
    2.4300   42.3710   50.8170 C   0  0  0  0  0  0  0  0  0  0  0  0
    1.1150   42.9710   51.6750 S   0  0  0  0  0  0  0  0  0  0  0  0
    2.0430   43.4670   52.9940 C   0  0  0  0  0  0  0  0  0  0  0  0
    1.5650   44.1780   54.1590 N   0  0  0  0  0  0  0  0  0  0  0  0
    0.1340   44.0630   54.5000 C   0  0  0  0  0  0  0  0  0  0  0  0
   -0.3180   45.1460   55.4860 C   0  0  0  0  0  0  0  0  0  0  0  0
    0.5840   45.1460   56.7190 C   0  0  0  0  0  0  0  0  0  0  0  0
    1.9700   45.3540   56.3190 N   0  0  0  0  0  0  0  0  0  0  0  0
    2.4620   44.8540   55.0720 C   0  0  0  0  0  0  0  0  0  0  0  0
    3.6670   45.0610   54.7650 O   0  0  0  0  0  0  0  0  0  0  0  0
    3.3520   43.1950   52.7850 N   0  0  0  0  0  0  0  0  0  0  0  0
    7.5930   46.1820   52.0960 C   0  0  0  0  0  0  0  0  0  0  0  0
    7.9350   46.0900   53.4580 C   0  0  0  0  0  0  0  0  0  0  0  0
    9.2420   46.3600   53.8790 C   0  0  0  0  0  0  0  0  0  0  0  0
   10.2170   46.7310   52.9490 C   0  0  0  0  0  0  0  0  0  0  0  0
    9.8860   46.8340   51.5960 C   0  0  0  0  0  0  0  0  0  0  0  0
    8.5830   46.5640   51.1690 C   0  0  0  0  0  0  0  0  0  0  0  0
    3.0918   47.8221   53.7146 H   0  0  0  0  0  0  0  0  0  0  0  0
    3.2583   48.9793   52.3508 H   0  0  0  0  0  0  0  0  0  0  0  0
    1.9236   47.7772   52.3508 H   0  0  0  0  0  0  0  0  0  0  0  0
    2.7133   45.3648   51.2039 H   0  0  0  0  0  0  0  0  0  0  0  0
    2.6414   46.8474   50.1922 H   0  0  0  0  0  0  0  0  0  0  0  0
    4.1225   45.8311   50.1922 H   0  0  0  0  0  0  0  0  0  0  0  0
    6.0997   46.0909   50.5630 H   0  0  0  0  0  0  0  0  0  0  0  0
    5.5370   44.2260   52.8800 H   0  0  0  0  0  0  0  0  0  0  0  0
    4.8970   41.6856   50.1818 H   0  0  0  0  0  0  0  0  0  0  0  0
    5.4818   41.6811   51.8796 H   0  0  0  0  0  0  0  0  0  0  0  0
    2.3971   41.9000   49.8235 H   0  0  0  0  0  0  0  0  0  0  0  0
   -0.4580   44.1552   53.5775 H   0  0  0  0  0  0  0  0  0  0  0  0
   -0.0200   43.0854   54.9802 H   0  0  0  0  0  0  0  0  0  0  0  0
   -0.2636   46.1293   54.9959 H   0  0  0  0  0  0  0  0  0  0  0  0
   -1.3523   44.9387   55.7977 H   0  0  0  0  0  0  0  0  0  0  0  0
    0.2747   45.9549   57.3973 H   0  0  0  0  0  0  0  0  0  0  0  0
    0.4964   44.1769   57.2321 H   0  0  0  0  0  0  0  0  0  0  0  0
    2.6130   45.8730   56.9570 H   0  0  0  0  0  0  0  0  0  0  0  0
    7.1707   45.8043   54.1958 H   0  0  0  0  0  0  0  0  0  0  0  0
    9.5026   46.2800   54.9447 H   0  0  0  0  0  0  0  0  0  0  0  0
   11.2439   46.9416   53.2822 H   0  0  0  0  0  0  0  0  0  0  0  0
   10.6530   47.1284   50.8645 H   0  0  0  0  0  0  0  0  0  0  0  0
    8.3286   46.6503   50.1023 H   0  0  0  0  0  0  0  0  0  0  0  0
  1  2  1  0
  2  3  1  0
  2  4  1  0
  4  5  2  0
  4  6  1  0
  6  7  1  0
  7  8  1  0
  8  9  2  0
  8 10  1  0
 10 11  1  0
 11 12  2  0
 12 13  1  0
 13 14  1  0
 14 15  1  0
 15 16  1  0
 16 17  1  0
 17 18  1  0
 18 19  1  0
 19 20  1  0
 20 21  2  0
 14 22  2  0
  6 23  1  0
 23 24  2  0
 24 25  1  0
 25 26  2  0
 26 27  1  0
 27 28  2  0
 22 11  1  0
 28 23  1  0
 20 15  1  0
  1 29  1  0
  1 30  1  0
  1 31  1  0
  3 32  1  0
  3 33  1  0
  3 34  1  0
  6 35  1  6
  7 36  1  0
 10 37  1  0
 10 38  1  0
 12 39  1  0
 16 40  1  0
 16 41  1  0
 17 42  1  0
 17 43  1  0
 18 44  1  0
 18 45  1  0
 19 46  1  0
 24 47  1  0
 25 48  1  0
 26 49  1  0
 27 50  1  0
 28 51  1  0
M  END
>  <meeko>  (1) 
{"is_sidechain": [false], "free_energy": -8.844, "intermolecular_energy": -11.946, "internal_energy": -0.481}

$$$$
ligand_84_conformer_3_docked
     RDKit          3D

 51 53  0  0  0  0  0  0  0  0999 V2000
   -0.6520   44.3360   51.1570 C   0  0  0  0  0  0  0  0  0  0  0  0
    0.3720   43.5360   51.8390 N   0  0  0  0  0  0  0  0  0  0  0  0
   -0.0080   42.2970   52.5280 C   0  0  0  0  0  0  0  0  0  0  0  0
    1.7440   43.9920   51.8180 C   0  0  0  0  0  0  0  0  0  0  0  0
    2.0310   45.0570   51.2010 O   0  0  0  0  0  0  0  0  0  0  0  0
    2.8650   43.2020   52.4670 C   0  0  2  0  0  0  0  0  0  0  0  0
    3.5230   44.0020   53.5070 N   0  0  0  0  0  0  0  0  0  0  0  0
    2.7980   44.5600   54.6120 C   0  0  0  0  0  0  0  0  0  0  0  0
    1.6340   44.1560   54.8810 O   0  0  0  0  0  0  0  0  0  0  0  0
    3.4010   45.6740   55.4100 C   0  0  0  0  0  0  0  0  0  0  0  0
    4.3240   46.4660   54.5380 C   0  0  0  0  0  0  0  0  0  0  0  0
    3.9180   47.5830   53.8150 C   0  0  0  0  0  0  0  0  0  0  0  0
    5.2210   48.0850   52.8790 S   0  0  0  0  0  0  0  0  0  0  0  0
    6.2470   46.8650   53.4320 C   0  0  0  0  0  0  0  0  0  0  0  0
    7.5970   46.6100   52.9790 N   0  0  0  0  0  0  0  0  0  0  0  0
    7.7840   46.1420   51.5920 C   0  0  0  0  0  0  0  0  0  0  0  0
    9.1760   45.5410   51.3650 C   0  0  0  0  0  0  0  0  0  0  0  0
   10.2550   46.5310   51.8020 C   0  0  0  0  0  0  0  0  0  0  0  0
   10.0640   46.8820   53.2040 N   0  0  0  0  0  0  0  0  0  0  0  0
    8.7550   46.9490   53.7780 C   0  0  0  0  0  0  0  0  0  0  0  0
    8.6380   47.2540   54.9950 O   0  0  0  0  0  0  0  0  0  0  0  0
    5.6060   46.0650   54.3140 N   0  0  0  0  0  0  0  0  0  0  0  0
    3.8760   42.7690   51.4250 C   0  0  0  0  0  0  0  0  0  0  0  0
    3.6590   41.6040   50.6670 C   0  0  0  0  0  0  0  0  0  0  0  0
    4.6010   41.1910   49.7200 C   0  0  0  0  0  0  0  0  0  0  0  0
    5.7720   41.9290   49.5240 C   0  0  0  0  0  0  0  0  0  0  0  0
    6.0020   43.0830   50.2780 C   0  0  0  0  0  0  0  0  0  0  0  0
    5.0630   43.5010   51.2240 C   0  0  0  0  0  0  0  0  0  0  0  0
   -1.2876   44.8326   51.9049 H   0  0  0  0  0  0  0  0  0  0  0  0
   -0.1650   45.0953   50.5275 H   0  0  0  0  0  0  0  0  0  0  0  0
   -1.2709   43.6798   50.5275 H   0  0  0  0  0  0  0  0  0  0  0  0
    0.0398   42.4529   53.6158 H   0  0  0  0  0  0  0  0  0  0  0  0
   -1.0330   42.0181   52.2423 H   0  0  0  0  0  0  0  0  0  0  0  0
    0.6844   41.4914   52.2423 H   0  0  0  0  0  0  0  0  0  0  0  0
    2.4320   42.3055   52.9348 H   0  0  0  0  0  0  0  0  0  0  0  0
    4.5280   44.2710   53.3950 H   0  0  0  0  0  0  0  0  0  0  0  0
    2.6021   46.3284   55.7889 H   0  0  0  0  0  0  0  0  0  0  0  0
    3.9640   45.2563   56.2577 H   0  0  0  0  0  0  0  0  0  0  0  0
    2.9240   48.0528   53.8495 H   0  0  0  0  0  0  0  0  0  0  0  0
    7.0270   45.3748   51.3721 H   0  0  0  0  0  0  0  0  0  0  0  0
    7.6793   47.0111   50.9259 H   0  0  0  0  0  0  0  0  0  0  0  0
    9.2725   44.6156   51.9519 H   0  0  0  0  0  0  0  0  0  0  0  0
    9.3023   45.3213   50.2946 H   0  0  0  0  0  0  0  0  0  0  0  0
   11.2461   46.0719   51.6722 H   0  0  0  0  0  0  0  0  0  0  0  0
   10.1845   47.4402   51.1869 H   0  0  0  0  0  0  0  0  0  0  0  0
   10.8990   47.0920   53.7950 H   0  0  0  0  0  0  0  0  0  0  0  0
    2.7430   41.0146   50.8202 H   0  0  0  0  0  0  0  0  0  0  0  0
    4.4201   40.2823   49.1271 H   0  0  0  0  0  0  0  0  0  0  0  0
    6.5110   41.6020   48.7777 H   0  0  0  0  0  0  0  0  0  0  0  0
    6.9241   43.6632   50.1263 H   0  0  0  0  0  0  0  0  0  0  0  0
    5.2517   44.4084   51.8164 H   0  0  0  0  0  0  0  0  0  0  0  0
  1  2  1  0
  2  3  1  0
  2  4  1  0
  4  5  2  0
  4  6  1  0
  6  7  1  0
  7  8  1  0
  8  9  2  0
  8 10  1  0
 10 11  1  0
 11 12  2  0
 12 13  1  0
 13 14  1  0
 14 15  1  0
 15 16  1  0
 16 17  1  0
 17 18  1  0
 18 19  1  0
 19 20  1  0
 20 21  2  0
 14 22  2  0
  6 23  1  0
 23 24  2  0
 24 25  1  0
 25 26  2  0
 26 27  1  0
 27 28  2  0
 22 11  1  0
 28 23  1  0
 20 15  1  0
  1 29  1  0
  1 30  1  0
  1 31  1  0
  3 32  1  0
  3 33  1  0
  3 34  1  0
  6 35  1  1
  7 36  1  0
 10 37  1  0
 10 38  1  0
 12 39  1  0
 16 40  1  0
 16 41  1  0
 17 42  1  0
 17 43  1  0
 18 44  1  0
 18 45  1  0
 19 46  1  0
 24 47  1  0
 25 48  1  0
 26 49  1  0
 27 50  1  0
 28 51  1  0
M  END
>  <meeko>  (2) 
{"is_sidechain": [false], "free_energy": -8.672, "intermolecular_energy": -10.736, "internal_energy": -1.458}

$$$$
ligand_84_conformer_3_docked
     RDKit          3D

 51 53  0  0  0  0  0  0  0  0999 V2000
    4.7100   47.2320   54.4270 C   0  0  0  0  0  0  0  0  0  0  0  0
    4.0000   46.5090   53.3660 N   0  0  0  0  0  0  0  0  0  0  0  0
    3.1760   47.2480   52.4020 C   0  0  0  0  0  0  0  0  0  0  0  0
    4.1260   45.0690   53.2960 C   0  0  0  0  0  0  0  0  0  0  0  0
    4.8560   44.4720   54.1370 O   0  0  0  0  0  0  0  0  0  0  0  0
    3.4530   44.2550   52.2080 C   0  0  2  0  0  0  0  0  0  0  0  0
    2.5390   43.2670   52.7930 N   0  0  0  0  0  0  0  0  0  0  0  0
    1.2110   43.0650   52.2890 C   0  0  0  0  0  0  0  0  0  0  0  0
    0.8810   43.5220   51.1600 O   0  0  0  0  0  0  0  0  0  0  0  0
    0.1930   42.3650   53.1330 C   0  0  0  0  0  0  0  0  0  0  0  0
   -0.5280   43.3690   53.9760 C   0  0  0  0  0  0  0  0  0  0  0  0
   -1.8370   43.7720   53.7310 C   0  0  0  0  0  0  0  0  0  0  0  0
   -2.2070   44.9950   54.8230 S   0  0  0  0  0  0  0  0  0  0  0  0
   -0.6910   44.9630   55.5630 C   0  0  0  0  0  0  0  0  0  0  0  0
   -0.2300   45.8480   56.6100 N   0  0  0  0  0  0  0  0  0  0  0  0
   -1.2400   46.4500   57.5000 C   0  0  0  0  0  0  0  0  0  0  0  0
   -0.6840   47.6440   58.2860 C   0  0  0  0  0  0  0  0  0  0  0  0
    0.5890   47.2400   59.0270 C   0  0  0  0  0  0  0  0  0  0  0  0
    1.5760   46.7390   58.0780 N   0  0  0  0  0  0  0  0  0  0  0  0
    1.1760   46.0280   56.9020 C   0  0  0  0  0  0  0  0  0  0  0  0
    2.0630   45.6160   56.1080 O   0  0  0  0  0  0  0  0  0  0  0  0
    0.1050   44.0380   54.9790 N   0  0  0  0  0  0  0  0  0  0  0  0
    4.4930   43.5590   51.3530 C   0  0  0  0  0  0  0  0  0  0  0  0
    5.5520   44.2920   50.7860 C   0  0  0  0  0  0  0  0  0  0  0  0
    6.5010   43.6560   49.9790 C   0  0  0  0  0  0  0  0  0  0  0  0
    6.3990   42.2850   49.7230 C   0  0  0  0  0  0  0  0  0  0  0  0
    5.3480   41.5490   50.2730 C   0  0  0  0  0  0  0  0  0  0  0  0
    4.3980   42.1800   51.0810 C   0  0  0  0  0  0  0  0  0  0  0  0
    4.3619   46.8776   55.4084 H   0  0  0  0  0  0  0  0  0  0  0  0
    5.7910   47.0509   54.3340 H   0  0  0  0  0  0  0  0  0  0  0  0
    4.5094   48.3095   54.3340 H   0  0  0  0  0  0  0  0  0  0  0  0
    2.4631   47.8874   52.9432 H   0  0  0  0  0  0  0  0  0  0  0  0
    3.8234   47.8739   51.7702 H   0  0  0  0  0  0  0  0  0  0  0  0
    2.6240   46.5366   51.7702 H   0  0  0  0  0  0  0  0  0  0  0  0
    2.8703   44.9393   51.5738 H   0  0  0  0  0  0  0  0  0  0  0  0
    2.8100   42.7660   53.6710 H   0  0  0  0  0  0  0  0  0  0  0  0
   -0.5274   41.8455   52.4840 H   0  0  0  0  0  0  0  0  0  0  0  0
    0.6947   41.6323   53.7822 H   0  0  0  0  0  0  0  0  0  0  0  0
   -2.5086   43.3638   52.9614 H   0  0  0  0  0  0  0  0  0  0  0  0
   -2.0897   46.7920   56.8909 H   0  0  0  0  0  0  0  0  0  0  0  0
   -1.5494   45.6835   58.2257 H   0  0  0  0  0  0  0  0  0  0  0  0
   -0.4542   48.4630   57.5886 H   0  0  0  0  0  0  0  0  0  0  0  0
   -1.4362   47.9741   59.0176 H   0  0  0  0  0  0  0  0  0  0  0  0
    0.9990   48.1153   59.5522 H   0  0  0  0  0  0  0  0  0  0  0  0
    0.3504   46.4494   59.7537 H   0  0  0  0  0  0  0  0  0  0  0  0
    2.5910   46.8980   58.2660 H   0  0  0  0  0  0  0  0  0  0  0  0
    5.6340   45.3719   50.9786 H   0  0  0  0  0  0  0  0  0  0  0  0
    7.3292   44.2354   49.5449 H   0  0  0  0  0  0  0  0  0  0  0  0
    7.1467   41.7867   49.0885 H   0  0  0  0  0  0  0  0  0  0  0  0
    5.2674   40.4709   50.0702 H   0  0  0  0  0  0  0  0  0  0  0  0
    3.5698   41.5953   51.5078 H   0  0  0  0  0  0  0  0  0  0  0  0
  1  2  1  0
  2  3  1  0
  2  4  1  0
  4  5  2  0
  4  6  1  0
  6  7  1  0
  7  8  1  0
  8  9  2  0
  8 10  1  0
 10 11  1  0
 11 12  2  0
 12 13  1  0
 13 14  1  0
 14 15  1  0
 15 16  1  0
 16 17  1  0
 17 18  1  0
 18 19  1  0
 19 20  1  0
 20 21  2  0
 14 22  2  0
  6 23  1  0
 23 24  2  0
 24 25  1  0
 25 26  2  0
 26 27  1  0
 27 28  2  0
 22 11  1  0
 28 23  1  0
 20 15  1  0
  1 29  1  0
  1 30  1  0
  1 31  1  0
  3 32  1  0
  3 33  1  0
  3 34  1  0
  6 35  1  6
  7 36  1  0
 10 37  1  0
 10 38  1  0
 12 39  1  0
 16 40  1  0
 16 41  1  0
 17 42  1  0
 17 43  1  0
 18 44  1  0
 18 45  1  0
 19 46  1  0
 24 47  1  0
 25 48  1  0
 26 49  1  0
 27 50  1  0
 28 51  1  0
M  END
>  <meeko>  (3) 
{"is_sidechain": [false], "free_energy": -8.641, "intermolecular_energy": -11.166, "internal_energy": -0.987}

$$$$
ligand_84_conformer_3_docked
     RDKit          3D

 51 53  0  0  0  0  0  0  0  0999 V2000
    3.4720   46.0400   55.3960 C   0  0  0  0  0  0  0  0  0  0  0  0
    4.3230   46.4010   54.2560 N   0  0  0  0  0  0  0  0  0  0  0  0
    3.9590   47.5390   53.4030 C   0  0  0  0  0  0  0  0  0  0  0  0
    5.5100   45.6170   53.9950 C   0  0  0  0  0  0  0  0  0  0  0  0
    5.7950   44.6540   54.7620 O   0  0  0  0  0  0  0  0  0  0  0  0
    6.4590   45.9490   52.8590 C   0  0  2  0  0  0  0  0  0  0  0  0
    6.7010   44.7650   52.0260 N   0  0  0  0  0  0  0  0  0  0  0  0
    6.8570   44.8550   50.6020 C   0  0  0  0  0  0  0  0  0  0  0  0
    7.0720   45.9700   50.0530 O   0  0  0  0  0  0  0  0  0  0  0  0
    6.7010   43.6300   49.7580 C   0  0  0  0  0  0  0  0  0  0  0  0
    5.4890   42.8720   50.2030 C   0  0  0  0  0  0  0  0  0  0  0  0
    5.2430   41.5490   49.8480 C   0  0  0  0  0  0  0  0  0  0  0  0
    3.7280   41.1340   50.4450 S   0  0  0  0  0  0  0  0  0  0  0  0
    3.4460   42.6500   51.1310 C   0  0  0  0  0  0  0  0  0  0  0  0
    2.2340   43.0780   51.7940 N   0  0  0  0  0  0  0  0  0  0  0  0
    2.3140   43.4210   53.2260 C   0  0  0  0  0  0  0  0  0  0  0  0
    0.9330   43.4710   53.8900 C   0  0  0  0  0  0  0  0  0  0  0  0
    0.0070   44.4040   53.1120 C   0  0  0  0  0  0  0  0  0  0  0  0
   -0.0980   43.9560   51.7290 N   0  0  0  0  0  0  0  0  0  0  0  0
    1.0060   43.3280   51.0690 C   0  0  0  0  0  0  0  0  0  0  0  0
    0.8690   42.9530   49.8740 O   0  0  0  0  0  0  0  0  0  0  0  0
    4.4890   43.4800   50.9000 N   0  0  0  0  0  0  0  0  0  0  0  0
    7.7700   46.4770   53.4060 C   0  0  0  0  0  0  0  0  0  0  0  0
    7.7760   47.3980   54.4690 C   0  0  0  0  0  0  0  0  0  0  0  0
    8.9840   47.9030   54.9620 C   0  0  0  0  0  0  0  0  0  0  0  0
   10.1970   47.5000   54.3950 C   0  0  0  0  0  0  0  0  0  0  0  0
   10.2030   46.5920   53.3330 C   0  0  0  0  0  0  0  0  0  0  0  0
    8.9990   46.0840   52.8380 C   0  0  0  0  0  0  0  0  0  0  0  0
    4.0010   46.2644   56.3340 H   0  0  0  0  0  0  0  0  0  0  0  0
    2.5379   46.6193   55.3542 H   0  0  0  0  0  0  0  0  0  0  0  0
    3.2394   44.9657   55.3542 H   0  0  0  0  0  0  0  0  0  0  0  0
    3.6845   48.3972   54.0340 H   0  0  0  0  0  0  0  0  0  0  0  0
    4.8153   47.8099   52.7679 H   0  0  0  0  0  0  0  0  0  0  0  0
    3.1044   47.2626   52.7679 H   0  0  0  0  0  0  0  0  0  0  0  0
    5.9943   46.7272   52.2358 H   0  0  0  0  0  0  0  0  0  0  0  0
    6.6510   43.8120   52.4530 H   0  0  0  0  0  0  0  0  0  0  0  0
    6.5846   43.9226   48.7040 H   0  0  0  0  0  0  0  0  0  0  0  0
    7.5922   42.9941   49.8642 H   0  0  0  0  0  0  0  0  0  0  0  0
    5.9185   40.8932   49.2792 H   0  0  0  0  0  0  0  0  0  0  0  0
    2.9254   42.6631   53.7377 H   0  0  0  0  0  0  0  0  0  0  0  0
    2.7634   44.4217   53.3079 H   0  0  0  0  0  0  0  0  0  0  0  0
    0.5005   42.4597   53.9055 H   0  0  0  0  0  0  0  0  0  0  0  0
    1.0422   43.8485   54.9174 H   0  0  0  0  0  0  0  0  0  0  0  0
   -0.9909   44.3971   53.5747 H   0  0  0  0  0  0  0  0  0  0  0  0
    0.4185   45.4239   53.1328 H   0  0  0  0  0  0  0  0  0  0  0  0
   -0.9940   44.1010   51.2120 H   0  0  0  0  0  0  0  0  0  0  0  0
    6.8248   47.7233   54.9156 H   0  0  0  0  0  0  0  0  0  0  0  0
    8.9796   48.6186   55.7974 H   0  0  0  0  0  0  0  0  0  0  0  0
   11.1457   47.8975   54.7847 H   0  0  0  0  0  0  0  0  0  0  0  0
   11.1572   46.2765   52.8858 H   0  0  0  0  0  0  0  0  0  0  0  0
    9.0102   45.3724   51.9992 H   0  0  0  0  0  0  0  0  0  0  0  0
  1  2  1  0
  2  3  1  0
  2  4  1  0
  4  5  2  0
  4  6  1  0
  6  7  1  0
  7  8  1  0
  8  9  2  0
  8 10  1  0
 10 11  1  0
 11 12  2  0
 12 13  1  0
 13 14  1  0
 14 15  1  0
 15 16  1  0
 16 17  1  0
 17 18  1  0
 18 19  1  0
 19 20  1  0
 20 21  2  0
 14 22  2  0
  6 23  1  0
 23 24  2  0
 24 25  1  0
 25 26  2  0
 26 27  1  0
 27 28  2  0
 22 11  1  0
 28 23  1  0
 20 15  1  0
  1 29  1  0
  1 30  1  0
  1 31  1  0
  3 32  1  0
  3 33  1  0
  3 34  1  0
  6 35  1  6
  7 36  1  0
 10 37  1  0
 10 38  1  0
 12 39  1  0
 16 40  1  0
 16 41  1  0
 17 42  1  0
 17 43  1  0
 18 44  1  0
 18 45  1  0
 19 46  1  0
 24 47  1  0
 25 48  1  0
 26 49  1  0
 27 50  1  0
 28 51  1  0
M  END
>  <meeko>  (4) 
{"is_sidechain": [false], "free_energy": -8.564, "intermolecular_energy": -10.884, "internal_energy": -1.165}

$$$$
ligand_84_conformer_3_docked
     RDKit          3D

 51 53  0  0  0  0  0  0  0  0999 V2000
    4.3040   48.3350   53.8310 C   0  0  0  0  0  0  0  0  0  0  0  0
    4.0490   46.8900   53.8630 N   0  0  0  0  0  0  0  0  0  0  0  0
    4.3800   46.1150   55.0650 C   0  0  0  0  0  0  0  0  0  0  0  0
    3.4750   46.2560   52.6960 C   0  0  0  0  0  0  0  0  0  0  0  0
    3.1920   46.9620   51.6870 O   0  0  0  0  0  0  0  0  0  0  0  0
    3.1490   44.7750   52.6650 C   0  0  2  0  0  0  0  0  0  0  0  0
    3.5450   44.1870   51.3800 N   0  0  0  0  0  0  0  0  0  0  0  0
    4.1620   42.8940   51.2930 C   0  0  0  0  0  0  0  0  0  0  0  0
    4.1290   42.1030   52.2760 O   0  0  0  0  0  0  0  0  0  0  0  0
    4.9020   42.5050   50.0520 C   0  0  0  0  0  0  0  0  0  0  0  0
    6.1330   43.3480   49.9240 C   0  0  0  0  0  0  0  0  0  0  0  0
    7.1460   43.0850   49.0070 C   0  0  0  0  0  0  0  0  0  0  0  0
    8.3850   44.1850   49.2880 S   0  0  0  0  0  0  0  0  0  0  0  0
    7.5850   44.9510   50.5610 C   0  0  0  0  0  0  0  0  0  0  0  0
    8.1110   46.0160   51.3860 N   0  0  0  0  0  0  0  0  0  0  0  0
    7.1570   46.9880   51.9510 C   0  0  0  0  0  0  0  0  0  0  0  0
    7.8520   48.2580   52.4580 C   0  0  0  0  0  0  0  0  0  0  0  0
    8.9680   47.8930   53.4350 C   0  0  0  0  0  0  0  0  0  0  0  0
    9.9230   47.0030   52.7860 N   0  0  0  0  0  0  0  0  0  0  0  0
    9.4990   46.0580   51.7980 C   0  0  0  0  0  0  0  0  0  0  0  0
   10.3590   45.3110   51.2600 O   0  0  0  0  0  0  0  0  0  0  0  0
    6.3850   44.3700   50.7890 N   0  0  0  0  0  0  0  0  0  0  0  0
    1.6670   44.5580   52.9010 C   0  0  0  0  0  0  0  0  0  0  0  0
    1.1860   44.3030   54.1980 C   0  0  0  0  0  0  0  0  0  0  0  0
   -0.1780   44.0800   54.4160 C   0  0  0  0  0  0  0  0  0  0  0  0
   -1.0730   44.1030   53.3430 C   0  0  0  0  0  0  0  0  0  0  0  0
   -0.6050   44.3470   52.0500 C   0  0  0  0  0  0  0  0  0  0  0  0
    0.7560   44.5710   51.8270 C   0  0  0  0  0  0  0  0  0  0  0  0
    4.3716   48.7183   54.8599 H   0  0  0  0  0  0  0  0  0  0  0  0
    5.2502   48.5288   53.3046 H   0  0  0  0  0  0  0  0  0  0  0  0
    3.4813   48.8410   53.3046 H   0  0  0  0  0  0  0  0  0  0  0  0
    4.1291   46.7024   55.9606 H   0  0  0  0  0  0  0  0  0  0  0  0
    3.8035   45.1782   55.0675 H   0  0  0  0  0  0  0  0  0  0  0  0
    5.4554   45.8837   55.0675 H   0  0  0  0  0  0  0  0  0  0  0  0
    3.7142   44.2786   53.4676 H   0  0  0  0  0  0  0  0  0  0  0  0
    3.4840   44.7590   50.5070 H   0  0  0  0  0  0  0  0  0  0  0  0
    5.1877   41.4444   50.1120 H   0  0  0  0  0  0  0  0  0  0  0  0
    4.2567   42.6602   49.1748 H   0  0  0  0  0  0  0  0  0  0  0  0
    7.1374   42.2992   48.2373 H   0  0  0  0  0  0  0  0  0  0  0  0
    6.4335   47.2679   51.1711 H   0  0  0  0  0  0  0  0  0  0  0  0
    6.6590   46.5116   52.8084 H   0  0  0  0  0  0  0  0  0  0  0  0
    8.2803   48.8036   51.6042 H   0  0  0  0  0  0  0  0  0  0  0  0
    7.1143   48.8895   52.9747 H   0  0  0  0  0  0  0  0  0  0  0  0
    9.4842   48.8091   53.7581 H   0  0  0  0  0  0  0  0  0  0  0  0
    8.5335   47.3840   54.3080 H   0  0  0  0  0  0  0  0  0  0  0  0
   10.9310   47.0540   53.0520 H   0  0  0  0  0  0  0  0  0  0  0  0
    1.8863   44.2788   55.0459 H   0  0  0  0  0  0  0  0  0  0  0  0
   -0.5466   43.8862   55.4341 H   0  0  0  0  0  0  0  0  0  0  0  0
   -2.1452   43.9291   53.5167 H   0  0  0  0  0  0  0  0  0  0  0  0
   -1.3094   44.3629   51.2053 H   0  0  0  0  0  0  0  0  0  0  0  0
    1.1185   44.7588   50.8056 H   0  0  0  0  0  0  0  0  0  0  0  0
  1  2  1  0
  2  3  1  0
  2  4  1  0
  4  5  2  0
  4  6  1  0
  6  7  1  0
  7  8  1  0
  8  9  2  0
  8 10  1  0
 10 11  1  0
 11 12  2  0
 12 13  1  0
 13 14  1  0
 14 15  1  0
 15 16  1  0
 16 17  1  0
 17 18  1  0
 18 19  1  0
 19 20  1  0
 20 21  2  0
 14 22  2  0
  6 23  1  0
 23 24  2  0
 24 25  1  0
 25 26  2  0
 26 27  1  0
 27 28  2  0
 22 11  1  0
 28 23  1  0
 20 15  1  0
  1 29  1  0
  1 30  1  0
  1 31  1  0
  3 32  1  0
  3 33  1  0
  3 34  1  0
  6 35  1  1
  7 36  1  0
 10 37  1  0
 10 38  1  0
 12 39  1  0
 16 40  1  0
 16 41  1  0
 17 42  1  0
 17 43  1  0
 18 44  1  0
 18 45  1  0
 19 46  1  0
 24 47  1  0
 25 48  1  0
 26 49  1  0
 27 50  1  0
 28 51  1  0
M  END
>  <meeko>  (5) 
{"is_sidechain": [false], "free_energy": -8.222, "intermolecular_energy": -10.423, "internal_energy": -1.163}

$$$$
