MODEL 1
REMARK VINA RESULT:    -8.009      0.000      0.000
REMARK INTER + INTRA:         -12.335
REMARK INTER:                 -10.818
REMARK INTRA:                  -1.518
REMARK UNBOUND:                -1.518
REMARK SMILES CN(C)C(=O)[C@H](NC(=O)Cc1csc(N2CCCNC2=O)n1)c1ccccc1
REMARK SMILES IDX 7 1 8 2 9 3 6 5 4 6 2 7 5 8 1 9 3 10 23 11 24 12 28 13 25 14
REMARK SMILES IDX 27 15 26 16 10 17 11 18 12 19 22 20 13 21 14 22 15 23 16 24
REMARK SMILES IDX 20 25 17 26 19 27 21 28 18 29
REMARK H PARENT 7 4 19 30
ROOT
ATOM      1  N   UNL     1       3.265  44.060  53.348  1.00  0.00    -0.340 N 
ATOM      2  C   UNL     1       2.655  44.538  54.557  1.00  0.00     0.226 C 
ATOM      3  O   UNL     1       1.488  44.173  54.870  1.00  0.00    -0.275 OA
ATOM      4  H   UNL     1       4.215  44.421  53.108  1.00  0.00     0.164 HD
ENDROOT
BRANCH   1   5
ATOM      5  C   UNL     1       2.563  43.163  52.422  1.00  0.00     0.202 C 
BRANCH   5   6
ATOM      6  C   UNL     1       1.452  43.899  51.696  1.00  0.00     0.249 C 
ATOM      7  N   UNL     1       0.063  43.507  51.799  1.00  0.00    -0.347 N 
ATOM      8  O   UNL     1       1.761  44.863  50.943  1.00  0.00    -0.272 OA
ATOM      9  C   UNL     1      -0.345  42.308  52.542  1.00  0.00     0.146 C 
ATOM     10  C   UNL     1      -0.951  44.318  51.117  1.00  0.00     0.146 C 
ENDBRANCH   5   6
BRANCH   5  11
ATOM     11  C   UNL     1       3.532  42.579  51.416  1.00  0.00    -0.016 A 
ATOM     12  C   UNL     1       4.841  43.084  51.318  1.00  0.00     0.006 A 
ATOM     13  C   UNL     1       3.142  41.522  50.572  1.00  0.00     0.006 A 
ATOM     14  C   UNL     1       5.739  42.543  50.393  1.00  0.00     0.000 A 
ATOM     15  C   UNL     1       4.044  40.986  49.648  1.00  0.00     0.000 A 
ATOM     16  C   UNL     1       5.340  41.496  49.559  1.00  0.00     0.000 A 
ENDBRANCH   5  11
ENDBRANCH   1   5
BRANCH   2  17
ATOM     17  C   UNL     1       3.376  45.520  55.425  1.00  0.00     0.157 C 
BRANCH  17  18
ATOM     18  C   UNL     1       4.302  46.347  54.588  1.00  0.00     0.063 A 
ATOM     19  C   UNL     1       3.922  47.549  53.995  1.00  0.00     0.093 A 
ATOM     20  N   UNL     1       5.563  45.929  54.295  1.00  0.00    -0.224 NA
ATOM     21  S   UNL     1       5.223  48.106  53.089  1.00  0.00    -0.105 S 
ATOM     22  C   UNL     1       6.208  46.796  53.482  1.00  0.00     0.193 A 
BRANCH  22  23
ATOM     23  N   UNL     1       7.553  46.589  53.000  1.00  0.00    -0.270 N 
ATOM     24  C   UNL     1       8.683  46.721  53.934  1.00  0.00     0.132 C 
ATOM     25  C   UNL     1       7.802  46.116  51.657  1.00  0.00     0.323 C 
ATOM     26  C   UNL     1       9.986  47.056  53.203  1.00  0.00     0.043 C 
ATOM     27  N   UNL     1       9.144  45.909  51.207  1.00  0.00    -0.338 N 
ATOM     28  O   UNL     1       6.849  45.890  50.863  1.00  0.00    -0.248 OA
ATOM     29  C   UNL     1      10.274  46.015  52.124  1.00  0.00     0.119 C 
ATOM     30  H   UNL     1       9.312  45.558  50.238  1.00  0.00     0.165 HD
ENDBRANCH  22  23
ENDBRANCH  17  18
ENDBRANCH   2  17
TORSDOF 6
ENDMDL
MODEL 2
REMARK VINA RESULT:    -7.887      2.902      6.423
REMARK INTER + INTRA:         -12.171
REMARK INTER:                 -11.470
REMARK INTRA:                  -0.701
REMARK UNBOUND:                -1.518
REMARK SMILES CN(C)C(=O)[C@H](NC(=O)Cc1csc(N2CCCNC2=O)n1)c1ccccc1
REMARK SMILES IDX 7 1 8 2 9 3 6 5 4 6 2 7 5 8 1 9 3 10 23 11 24 12 28 13 25 14
REMARK SMILES IDX 27 15 26 16 10 17 11 18 12 19 22 20 13 21 14 22 15 23 16 24
REMARK SMILES IDX 20 25 17 26 19 27 21 28 18 29
REMARK H PARENT 7 4 19 30
ROOT
ATOM      1  N   UNL     1       3.596  43.872  51.774  1.00  0.00    -0.340 N 
ATOM      2  C   UNL     1       2.225  43.999  51.366  1.00  0.00     0.226 C 
ATOM      3  O   UNL     1       1.829  45.039  50.772  1.00  0.00    -0.275 OA
ATOM      4  H   UNL     1       3.869  43.012  52.299  1.00  0.00     0.164 HD
ENDROOT
BRANCH   1   5
ATOM      5  C   UNL     1       4.578  44.939  51.548  1.00  0.00     0.202 C 
BRANCH   5   6
ATOM      6  C   UNL     1       5.063  45.515  52.865  1.00  0.00     0.249 C 
ATOM      7  N   UNL     1       4.530  46.739  53.422  1.00  0.00    -0.347 N 
ATOM      8  O   UNL     1       5.996  44.921  53.474  1.00  0.00    -0.272 OA
ATOM      9  C   UNL     1       3.548  47.552  52.693  1.00  0.00     0.146 C 
ATOM     10  C   UNL     1       5.010  47.184  54.734  1.00  0.00     0.146 C 
ENDBRANCH   5   6
BRANCH   5  11
ATOM     11  C   UNL     1       5.756  44.413  50.755  1.00  0.00    -0.016 A 
ATOM     12  C   UNL     1       5.769  43.081  50.305  1.00  0.00     0.006 A 
ATOM     13  C   UNL     1       6.849  45.247  50.451  1.00  0.00     0.006 A 
ATOM     14  C   UNL     1       6.854  42.594  49.570  1.00  0.00     0.000 A 
ATOM     15  C   UNL     1       7.932  44.755  49.717  1.00  0.00     0.000 A 
ATOM     16  C   UNL     1       7.934  43.429  49.277  1.00  0.00     0.000 A 
ENDBRANCH   5  11
ENDBRANCH   1   5
BRANCH   2  17
ATOM     17  C   UNL     1       1.241  42.921  51.697  1.00  0.00     0.157 C 
BRANCH  17  18
ATOM     18  C   UNL     1       0.393  43.351  52.853  1.00  0.00     0.063 A 
ATOM     19  C   UNL     1      -0.970  43.077  52.940  1.00  0.00     0.093 A 
ATOM     20  N   UNL     1       0.897  44.109  53.864  1.00  0.00    -0.224 NA
ATOM     21  S   UNL     1      -1.549  43.798  54.342  1.00  0.00    -0.105 S 
ATOM     22  C   UNL     1      -0.048  44.432  54.776  1.00  0.00     0.193 A 
BRANCH  22  23
ATOM     23  N   UNL     1       0.210  45.244  55.941  1.00  0.00    -0.270 N 
ATOM     24  C   UNL     1      -0.915  45.655  56.797  1.00  0.00     0.132 C 
ATOM     25  C   UNL     1       1.560  45.539  56.363  1.00  0.00     0.323 C 
ATOM     26  C   UNL     1      -0.590  46.926  57.587  1.00  0.00     0.043 C 
ATOM     27  N   UNL     1       1.789  46.337  57.529  1.00  0.00    -0.338 N 
ATOM     28  O   UNL     1       2.551  45.111  55.711  1.00  0.00    -0.248 OA
ATOM     29  C   UNL     1       0.689  46.736  58.399  1.00  0.00     0.119 C 
ATOM     30  H   UNL     1       2.769  46.536  57.830  1.00  0.00     0.165 HD
ENDBRANCH  22  23
ENDBRANCH  17  18
ENDBRANCH   2  17
TORSDOF 6
ENDMDL
MODEL 3
REMARK VINA RESULT:    -7.485      2.147      6.927
REMARK INTER + INTRA:         -11.628
REMARK INTER:                 -11.985
REMARK INTRA:                   0.357
REMARK UNBOUND:                -1.518
REMARK SMILES CN(C)C(=O)[C@H](NC(=O)Cc1csc(N2CCCNC2=O)n1)c1ccccc1
REMARK SMILES IDX 7 1 8 2 9 3 6 5 4 6 2 7 5 8 1 9 3 10 23 11 24 12 28 13 25 14
REMARK SMILES IDX 27 15 26 16 10 17 11 18 12 19 22 20 13 21 14 22 15 23 16 24
REMARK SMILES IDX 20 25 17 26 19 27 21 28 18 29
REMARK H PARENT 7 4 19 30
ROOT
ATOM      1  N   UNL     1       6.433  45.202  51.822  1.00  0.00    -0.340 N 
ATOM      2  C   UNL     1       6.840  44.843  50.493  1.00  0.00     0.226 C 
ATOM      3  O   UNL     1       7.306  45.715  49.711  1.00  0.00    -0.275 OA
ATOM      4  H   UNL     1       6.013  44.456  52.421  1.00  0.00     0.164 HD
ENDROOT
BRANCH   1   5
ATOM      5  C   UNL     1       6.513  46.582  52.316  1.00  0.00     0.202 C 
BRANCH   5   6
ATOM      6  C   UNL     1       5.376  46.879  53.276  1.00  0.00     0.249 C 
ATOM      7  N   UNL     1       4.915  45.920  54.256  1.00  0.00    -0.347 N 
ATOM      8  O   UNL     1       4.787  47.992  53.185  1.00  0.00    -0.272 OA
ATOM      9  C   UNL     1       5.461  44.558  54.315  1.00  0.00     0.146 C 
ATOM     10  C   UNL     1       3.856  46.318  55.189  1.00  0.00     0.146 C 
ENDBRANCH   5   6
BRANCH   5  11
ATOM     11  C   UNL     1       7.840  46.820  53.005  1.00  0.00    -0.016 A 
ATOM     12  C   UNL     1       7.881  47.429  54.272  1.00  0.00     0.006 A 
ATOM     13  C   UNL     1       9.047  46.431  52.394  1.00  0.00     0.006 A 
ATOM     14  C   UNL     1       9.106  47.645  54.912  1.00  0.00     0.000 A 
ATOM     15  C   UNL     1      10.268  46.651  53.038  1.00  0.00     0.000 A 
ATOM     16  C   UNL     1      10.297  47.257  54.295  1.00  0.00     0.000 A 
ENDBRANCH   5  11
ENDBRANCH   1   5
BRANCH   2  17
ATOM     17  C   UNL     1       6.657  43.440  50.006  1.00  0.00     0.157 C 
BRANCH  17  18
ATOM     18  C   UNL     1       5.312  42.933  50.422  1.00  0.00     0.063 A 
ATOM     19  C   UNL     1       4.817  41.688  50.041  1.00  0.00     0.093 A 
ATOM     20  N   UNL     1       4.453  43.701  51.146  1.00  0.00    -0.224 NA
ATOM     21  S   UNL     1       3.258  41.548  50.651  1.00  0.00    -0.105 S 
ATOM     22  C   UNL     1       3.275  43.075  51.366  1.00  0.00     0.193 A 
BRANCH  22  23
ATOM     23  N   UNL     1       2.177  43.669  52.091  1.00  0.00    -0.270 N 
ATOM     24  C   UNL     1       1.565  42.930  53.207  1.00  0.00     0.132 C 
ATOM     25  C   UNL     1       1.763  45.030  51.838  1.00  0.00     0.323 C 
ATOM     26  C   UNL     1       0.125  43.382  53.464  1.00  0.00     0.043 C 
ATOM     27  N   UNL     1       0.679  45.600  52.579  1.00  0.00    -0.338 N 
ATOM     28  O   UNL     1       2.338  45.730  50.960  1.00  0.00    -0.248 OA
ATOM     29  C   UNL     1       0.075  44.890  53.700  1.00  0.00     0.119 C 
ATOM     30  H   UNL     1       0.395  46.587  52.394  1.00  0.00     0.165 HD
ENDBRANCH  22  23
ENDBRANCH  17  18
ENDBRANCH   2  17
TORSDOF 6
ENDMDL
MODEL 4
REMARK VINA RESULT:    -7.327      2.495      7.780
REMARK INTER + INTRA:         -11.414
REMARK INTER:                 -10.702
REMARK INTRA:                  -0.713
REMARK UNBOUND:                -1.518
REMARK SMILES CN(C)C(=O)[C@H](NC(=O)Cc1csc(N2CCCNC2=O)n1)c1ccccc1
REMARK SMILES IDX 7 1 8 2 9 3 6 5 4 6 2 7 5 8 1 9 3 10 23 11 24 12 28 13 25 14
REMARK SMILES IDX 27 15 26 16 10 17 11 18 12 19 22 20 13 21 14 22 15 23 16 24
REMARK SMILES IDX 20 25 17 26 19 27 21 28 18 29
REMARK H PARENT 7 4 19 30
ROOT
ATOM      1  N   UNL     1       4.723  46.224  52.570  1.00  0.00    -0.340 N 
ATOM      2  C   UNL     1       3.500  46.521  51.880  1.00  0.00     0.226 C 
ATOM      3  O   UNL     1       3.500  46.715  50.634  1.00  0.00    -0.275 OA
ATOM      4  H   UNL     1       4.682  46.112  53.607  1.00  0.00     0.164 HD
ENDROOT
BRANCH   1   5
ATOM      5  C   UNL     1       6.014  46.159  51.873  1.00  0.00     0.202 C 
BRANCH   5   6
ATOM      6  C   UNL     1       7.164  46.267  52.857  1.00  0.00     0.249 C 
ATOM      7  N   UNL     1       8.273  47.175  52.661  1.00  0.00    -0.347 N 
ATOM      8  O   UNL     1       7.169  45.503  53.862  1.00  0.00    -0.272 OA
ATOM      9  C   UNL     1       8.398  47.984  51.443  1.00  0.00     0.146 C 
ATOM     10  C   UNL     1       9.305  47.261  53.699  1.00  0.00     0.146 C 
ENDBRANCH   5   6
BRANCH   5  11
ATOM     11  C   UNL     1       6.128  44.867  51.092  1.00  0.00    -0.016 A 
ATOM     12  C   UNL     1       7.129  44.715  50.117  1.00  0.00     0.006 A 
ATOM     13  C   UNL     1       5.243  43.800  51.334  1.00  0.00     0.006 A 
ATOM     14  C   UNL     1       7.239  43.521  49.397  1.00  0.00     0.000 A 
ATOM     15  C   UNL     1       5.356  42.609  50.611  1.00  0.00     0.000 A 
ATOM     16  C   UNL     1       6.353  42.470  49.644  1.00  0.00     0.000 A 
ENDBRANCH   5  11
ENDBRANCH   1   5
BRANCH   2  17
ATOM     17  C   UNL     1       2.222  46.663  52.646  1.00  0.00     0.157 C 
BRANCH  17  18
ATOM     18  C   UNL     1       1.500  45.352  52.670  1.00  0.00     0.063 A 
ATOM     19  C   UNL     1       2.037  44.198  53.236  1.00  0.00     0.093 A 
ATOM     20  N   UNL     1       0.292  45.193  52.066  1.00  0.00    -0.224 NA
ATOM     21  S   UNL     1       0.946  42.947  52.980  1.00  0.00    -0.105 S 
ATOM     22  C   UNL     1      -0.158  43.921  52.157  1.00  0.00     0.193 A 
BRANCH  22  23
ATOM     23  N   UNL     1      -1.405  43.471  51.587  1.00  0.00    -0.270 N 
ATOM     24  C   UNL     1      -1.485  43.208  50.141  1.00  0.00     0.132 C 
ATOM     25  C   UNL     1      -2.532  43.135  52.427  1.00  0.00     0.323 C 
ATOM     26  C   UNL     1      -2.921  43.322  49.623  1.00  0.00     0.043 C 
ATOM     27  N   UNL     1      -3.755  42.680  51.837  1.00  0.00    -0.338 N 
ATOM     28  O   UNL     1      -2.463  43.246  53.681  1.00  0.00    -0.248 OA
ATOM     29  C   UNL     1      -3.846  42.395  50.410  1.00  0.00     0.119 C 
ATOM     30  H   UNL     1      -4.560  42.431  52.454  1.00  0.00     0.165 HD
ENDBRANCH  22  23
ENDBRANCH  17  18
ENDBRANCH   2  17
TORSDOF 6
ENDMDL
MODEL 5
REMARK VINA RESULT:    -7.218      2.636      7.164
REMARK INTER + INTRA:         -11.267
REMARK INTER:                  -9.873
REMARK INTRA:                  -1.394
REMARK UNBOUND:                -1.518
REMARK SMILES CN(C)C(=O)[C@H](NC(=O)Cc1csc(N2CCCNC2=O)n1)c1ccccc1
REMARK SMILES IDX 7 1 8 2 9 3 6 5 4 6 2 7 5 8 1 9 3 10 23 11 24 12 28 13 25 14
REMARK SMILES IDX 27 15 26 16 10 17 11 18 12 19 22 20 13 21 14 22 15 23 16 24
REMARK SMILES IDX 20 25 17 26 19 27 21 28 18 29
REMARK H PARENT 7 4 19 30
ROOT
ATOM      1  N   UNL     1       3.387  44.393  53.972  1.00  0.00    -0.340 N 
ATOM      2  C   UNL     1       2.602  45.333  54.721  1.00  0.00     0.226 C 
ATOM      3  O   UNL     1       2.763  46.573  54.558  1.00  0.00    -0.275 OA
ATOM      4  H   UNL     1       3.250  43.377  54.170  1.00  0.00     0.164 HD
ENDROOT
BRANCH   1   5
ATOM      5  C   UNL     1       4.415  44.824  53.016  1.00  0.00     0.202 C 
BRANCH   5   6
ATOM      6  C   UNL     1       5.708  45.168  53.732  1.00  0.00     0.249 C 
ATOM      7  N   UNL     1       6.463  46.367  53.441  1.00  0.00    -0.347 N 
ATOM      8  O   UNL     1       6.158  44.353  54.585  1.00  0.00    -0.272 OA
ATOM      9  C   UNL     1       6.069  47.280  52.361  1.00  0.00     0.146 C 
ATOM     10  C   UNL     1       7.664  46.653  54.231  1.00  0.00     0.146 C 
ENDBRANCH   5   6
BRANCH   5  11
ATOM     11  C   UNL     1       4.671  43.738  51.992  1.00  0.00    -0.016 A 
ATOM     12  C   UNL     1       3.889  42.570  51.987  1.00  0.00     0.006 A 
ATOM     13  C   UNL     1       5.688  43.884  51.029  1.00  0.00     0.006 A 
ATOM     14  C   UNL     1       4.121  41.568  51.040  1.00  0.00     0.000 A 
ATOM     15  C   UNL     1       5.916  42.878  50.084  1.00  0.00     0.000 A 
ATOM     16  C   UNL     1       5.134  41.722  50.090  1.00  0.00     0.000 A 
ENDBRANCH   5  11
ENDBRANCH   1   5
BRANCH   2  17
ATOM     17  C   UNL     1       1.628  44.846  55.748  1.00  0.00     0.157 C 
BRANCH  17  18
ATOM     18  C   UNL     1       0.262  44.757  55.144  1.00  0.00     0.063 A 
ATOM     19  C   UNL     1      -0.909  44.872  55.890  1.00  0.00     0.093 A 
ATOM     20  N   UNL     1       0.083  44.482  53.824  1.00  0.00    -0.224 NA
ATOM     21  S   UNL     1      -2.206  44.636  54.848  1.00  0.00    -0.105 S 
ATOM     22  C   UNL     1      -1.226  44.392  53.497  1.00  0.00     0.193 A 
BRANCH  22  23
ATOM     23  N   UNL     1      -1.700  44.091  52.167  1.00  0.00    -0.270 N 
ATOM     24  C   UNL     1      -1.954  45.192  51.225  1.00  0.00     0.132 C 
ATOM     25  C   UNL     1      -1.791  42.727  51.697  1.00  0.00     0.323 C 
ATOM     26  C   UNL     1      -2.961  44.792  50.143  1.00  0.00     0.043 C 
ATOM     27  N   UNL     1      -2.253  42.456  50.370  1.00  0.00    -0.338 N 
ATOM     28  O   UNL     1      -1.479  41.761  52.445  1.00  0.00    -0.248 OA
ATOM     29  C   UNL     1      -2.490  43.534  49.417  1.00  0.00     0.119 C 
ATOM     30  H   UNL     1      -2.307  41.467  50.037  1.00  0.00     0.165 HD
ENDBRANCH  22  23
ENDBRANCH  17  18
ENDBRANCH   2  17
TORSDOF 6
ENDMDL
