ligand_66_conformer_3_docked
     RDKit          3D

 42 43  0  0  0  0  0  0  0  0999 V2000
   -1.3080   44.4360   53.9520 C   0  0  0  0  0  0  0  0  0  0  0  0
   -1.4850   43.2290   53.0330 C   0  0  0  0  0  0  0  0  0  0  0  0
   -0.2340   42.3460   52.9880 C   0  0  0  0  0  0  0  0  0  0  0  0
    0.9740   43.1450   53.2000 N   0  0  0  0  0  0  0  0  0  0  0  0
    1.8670   43.5010   52.1340 C   0  0  0  0  0  0  0  0  0  0  0  0
    1.7000   43.0240   50.9780 O   0  0  0  0  0  0  0  0  0  0  0  0
    3.0210   44.4380   52.3920 C   0  0  0  0  0  0  0  0  0  0  0  0
    4.3270   43.6480   52.6000 C   0  0  0  0  0  0  0  0  0  0  0  0
    5.5090   44.6160   52.7550 C   0  0  0  0  0  0  0  0  0  0  0  0
    5.1580   45.7670   53.6050 N   0  0  0  0  0  0  0  0  0  0  0  0
    5.8740   47.0090   53.4640 C   0  0  0  0  0  0  0  0  0  0  0  0
    5.2380   48.0980   53.4790 O   0  0  0  0  0  0  0  0  0  0  0  0
    7.3420   47.0360   53.2830 C   0  0  0  0  0  0  0  0  0  0  0  0
    7.8960   46.9390   51.9940 C   0  0  0  0  0  0  0  0  0  0  0  0
    9.2830   46.9730   51.8170 C   0  0  0  0  0  0  0  0  0  0  0  0
   10.1270   47.1190   52.9210 C   0  0  0  0  0  0  0  0  0  0  0  0
    9.5850   47.2360   54.2050 C   0  0  0  0  0  0  0  0  0  0  0  0
   10.6450   47.4380   55.5890 Cl  0  0  0  0  0  0  0  0  0  0  0  0
    8.1980   47.2010   54.3850 C   0  0  0  0  0  0  0  0  0  0  0  0
    3.9510   45.7030   54.4400 C   0  0  0  0  0  0  0  0  0  0  0  0
    2.7130   45.3830   53.5850 C   0  0  0  0  0  0  0  0  0  0  0  0
   -1.3560   44.1083   55.0010 H   0  0  0  0  0  0  0  0  0  0  0  0
   -0.3316   44.9042   53.7585 H   0  0  0  0  0  0  0  0  0  0  0  0
   -2.1089   45.1648   53.7585 H   0  0  0  0  0  0  0  0  0  0  0  0
   -2.3302   42.6271   53.3980 H   0  0  0  0  0  0  0  0  0  0  0  0
   -1.6697   43.6041   52.0156 H   0  0  0  0  0  0  0  0  0  0  0  0
   -0.3036   41.5815   53.7759 H   0  0  0  0  0  0  0  0  0  0  0  0
   -0.1732   41.8708   51.9978 H   0  0  0  0  0  0  0  0  0  0  0  0
    1.1250   43.5550   54.1490 H   0  0  0  0  0  0  0  0  0  0  0  0
    3.1608   45.0740   51.5054 H   0  0  0  0  0  0  0  0  0  0  0  0
    4.2394   43.0322   53.5073 H   0  0  0  0  0  0  0  0  0  0  0  0
    4.5013   43.0032   51.7260 H   0  0  0  0  0  0  0  0  0  0  0  0
    6.3531   44.0787   53.2120 H   0  0  0  0  0  0  0  0  0  0  0  0
    5.7782   44.9937   51.7575 H   0  0  0  0  0  0  0  0  0  0  0  0
    7.2352   46.8359   51.1207 H   0  0  0  0  0  0  0  0  0  0  0  0
    9.7101   46.8847   50.8071 H   0  0  0  0  0  0  0  0  0  0  0  0
   11.2177   47.1419   52.7802 H   0  0  0  0  0  0  0  0  0  0  0  0
    7.7751   47.3033   55.3953 H   0  0  0  0  0  0  0  0  0  0  0  0
    4.0785   44.9169   55.1988 H   0  0  0  0  0  0  0  0  0  0  0  0
    3.8035   46.6803   54.9229 H   0  0  0  0  0  0  0  0  0  0  0  0
    1.9599   44.9021   54.2265 H   0  0  0  0  0  0  0  0  0  0  0  0
    2.3517   46.3331   53.1645 H   0  0  0  0  0  0  0  0  0  0  0  0
  1  2  1  0
  2  3  1  0
  3  4  1  0
  4  5  1  0
  5  6  2  0
  5  7  1  0
  7  8  1  0
  8  9  1  0
  9 10  1  0
 10 11  1  0
 11 12  2  0
 11 13  1  0
 13 14  2  0
 14 15  1  0
 15 16  2  0
 16 17  1  0
 17 18  1  0
 17 19  2  0
 10 20  1  0
 20 21  1  0
 21  7  1  0
 19 13  1  0
  1 22  1  0
  1 23  1  0
  1 24  1  0
  2 25  1  0
  2 26  1  0
  3 27  1  0
  3 28  1  0
  4 29  1  0
  7 30  1  0
  8 31  1  0
  8 32  1  0
  9 33  1  0
  9 34  1  0
 14 35  1  0
 15 36  1  0
 16 37  1  0
 19 38  1  0
 20 39  1  0
 20 40  1  0
 21 41  1  0
 21 42  1  0
M  END
>  <meeko>  (1) 
{"is_sidechain": [false], "free_energy": -7.946, "intermolecular_energy": -9.804, "internal_energy": -0.442}

$$$$
ligand_66_conformer_3_docked
     RDKit          3D

 42 43  0  0  0  0  0  0  0  0999 V2000
    0.5450   47.1890   58.7020 C   0  0  0  0  0  0  0  0  0  0  0  0
   -0.1860   46.5360   57.5300 C   0  0  0  0  0  0  0  0  0  0  0  0
    0.3670   45.1460   57.2040 C   0  0  0  0  0  0  0  0  0  0  0  0
    1.6010   45.2460   56.4240 N   0  0  0  0  0  0  0  0  0  0  0  0
    1.6230   45.1720   54.9900 C   0  0  0  0  0  0  0  0  0  0  0  0
    0.5730   44.8890   54.3520 O   0  0  0  0  0  0  0  0  0  0  0  0
    2.9080   45.4180   54.2370 C   0  0  0  0  0  0  0  0  0  0  0  0
    3.9670   46.0460   55.1630 C   0  0  0  0  0  0  0  0  0  0  0  0
    5.3000   46.1920   54.4130 C   0  0  0  0  0  0  0  0  0  0  0  0
    5.0960   46.6710   53.0350 N   0  0  0  0  0  0  0  0  0  0  0  0
    6.0790   46.3830   52.0220 C   0  0  0  0  0  0  0  0  0  0  0  0
    5.7010   46.0240   50.8740 O   0  0  0  0  0  0  0  0  0  0  0  0
    7.5290   46.4800   52.3040 C   0  0  0  0  0  0  0  0  0  0  0  0
    8.4640   46.0330   51.3540 C   0  0  0  0  0  0  0  0  0  0  0  0
    9.8340   46.1310   51.6130 C   0  0  0  0  0  0  0  0  0  0  0  0
   10.2830   46.6870   52.8130 C   0  0  0  0  0  0  0  0  0  0  0  0
    9.3610   47.1520   53.7560 C   0  0  0  0  0  0  0  0  0  0  0  0
    9.9260   47.8670   55.2560 Cl  0  0  0  0  0  0  0  0  0  0  0  0
    7.9890   47.0540   53.5010 C   0  0  0  0  0  0  0  0  0  0  0  0
    3.8010   47.2540   52.6610 C   0  0  0  0  0  0  0  0  0  0  0  0
    2.6530   46.2790   52.9710 C   0  0  0  0  0  0  0  0  0  0  0  0
    0.1271   46.8157   59.6486 H   0  0  0  0  0  0  0  0  0  0  0  0
    1.6154   46.9409   58.6506 H   0  0  0  0  0  0  0  0  0  0  0  0
    0.4187   48.2805   58.6506 H   0  0  0  0  0  0  0  0  0  0  0  0
   -1.2518   46.4420   57.7856 H   0  0  0  0  0  0  0  0  0  0  0  0
   -0.0406   47.1728   56.6449 H   0  0  0  0  0  0  0  0  0  0  0  0
    0.5763   44.6122   58.1427 H   0  0  0  0  0  0  0  0  0  0  0  0
   -0.3811   44.5998   56.6107 H   0  0  0  0  0  0  0  0  0  0  0  0
    2.4810   45.4880   56.9350 H   0  0  0  0  0  0  0  0  0  0  0  0
    3.3048   44.4513   53.8933 H   0  0  0  0  0  0  0  0  0  0  0  0
    3.6225   47.0381   55.4903 H   0  0  0  0  0  0  0  0  0  0  0  0
    4.1139   45.3951   56.0375 H   0  0  0  0  0  0  0  0  0  0  0  0
    5.9355   46.9111   54.9507 H   0  0  0  0  0  0  0  0  0  0  0  0
    5.7793   45.2030   54.3666 H   0  0  0  0  0  0  0  0  0  0  0  0
    8.1158   45.6043   50.4027 H   0  0  0  0  0  0  0  0  0  0  0  0
   10.5602   45.7694   50.8701 H   0  0  0  0  0  0  0  0  0  0  0  0
   11.3616   46.7591   53.0163 H   0  0  0  0  0  0  0  0  0  0  0  0
    7.2667   47.4282   54.2414 H   0  0  0  0  0  0  0  0  0  0  0  0
    3.6471   48.1841   53.2278 H   0  0  0  0  0  0  0  0  0  0  0  0
    3.8062   47.4603   51.5805 H   0  0  0  0  0  0  0  0  0  0  0  0
    1.7318   46.8605   53.1233 H   0  0  0  0  0  0  0  0  0  0  0  0
    2.5698   45.5897   52.1178 H   0  0  0  0  0  0  0  0  0  0  0  0
  1  2  1  0
  2  3  1  0
  3  4  1  0
  4  5  1  0
  5  6  2  0
  5  7  1  0
  7  8  1  0
  8  9  1  0
  9 10  1  0
 10 11  1  0
 11 12  2  0
 11 13  1  0
 13 14  2  0
 14 15  1  0
 15 16  2  0
 16 17  1  0
 17 18  1  0
 17 19  2  0
 10 20  1  0
 20 21  1  0
 21  7  1  0
 19 13  1  0
  1 22  1  0
  1 23  1  0
  1 24  1  0
  2 25  1  0
  2 26  1  0
  3 27  1  0
  3 28  1  0
  4 29  1  0
  7 30  1  0
  8 31  1  0
  8 32  1  0
  9 33  1  0
  9 34  1  0
 14 35  1  0
 15 36  1  0
 16 37  1  0
 19 38  1  0
 20 39  1  0
 20 40  1  0
 21 41  1  0
 21 42  1  0
M  END
>  <meeko>  (2) 
{"is_sidechain": [false], "free_energy": -7.777, "intermolecular_energy": -10.141, "internal_energy": 0.104}

$$$$
ligand_66_conformer_3_docked
     RDKit          3D

 42 43  0  0  0  0  0  0  0  0999 V2000
   -1.1220   43.5580   52.8330 C   0  0  0  0  0  0  0  0  0  0  0  0
   -1.7750   43.7990   54.1930 C   0  0  0  0  0  0  0  0  0  0  0  0
   -1.0890   44.9250   54.9730 C   0  0  0  0  0  0  0  0  0  0  0  0
    0.1800   45.2960   54.3450 N   0  0  0  0  0  0  0  0  0  0  0  0
    1.4520   45.0730   54.9710 C   0  0  0  0  0  0  0  0  0  0  0  0
    1.5120   44.6540   56.1590 O   0  0  0  0  0  0  0  0  0  0  0  0
    2.7290   45.3520   54.2160 C   0  0  0  0  0  0  0  0  0  0  0  0
    3.7770   45.9970   55.1420 C   0  0  0  0  0  0  0  0  0  0  0  0
    5.1050   46.1770   54.3910 C   0  0  0  0  0  0  0  0  0  0  0  0
    4.8860   46.6600   53.0160 N   0  0  0  0  0  0  0  0  0  0  0  0
    5.8720   46.4000   51.9990 C   0  0  0  0  0  0  0  0  0  0  0  0
    5.4990   46.0410   50.8490 O   0  0  0  0  0  0  0  0  0  0  0  0
    7.3200   46.5270   52.2770 C   0  0  0  0  0  0  0  0  0  0  0  0
    8.2620   46.0720   51.3380 C   0  0  0  0  0  0  0  0  0  0  0  0
    9.6310   46.1980   51.5940 C   0  0  0  0  0  0  0  0  0  0  0  0
   10.0710   46.7900   52.7800 C   0  0  0  0  0  0  0  0  0  0  0  0
    9.1420   47.2630   53.7110 C   0  0  0  0  0  0  0  0  0  0  0  0
    9.6950   48.0240   55.1920 Cl  0  0  0  0  0  0  0  0  0  0  0  0
    7.7710   47.1380   53.4590 C   0  0  0  0  0  0  0  0  0  0  0  0
    3.5780   47.2180   52.6490 C   0  0  0  0  0  0  0  0  0  0  0  0
    2.4520   46.2160   52.9560 C   0  0  0  0  0  0  0  0  0  0  0  0
   -0.0992   43.1805   52.9791 H   0  0  0  0  0  0  0  0  0  0  0  0
   -1.7093   42.8174   52.2703 H   0  0  0  0  0  0  0  0  0  0  0  0
   -1.0874   44.5026   52.2703 H   0  0  0  0  0  0  0  0  0  0  0  0
   -2.8300   44.0681   54.0367 H   0  0  0  0  0  0  0  0  0  0  0  0
   -1.6806   42.8745   54.7815 H   0  0  0  0  0  0  0  0  0  0  0  0
   -1.7507   45.8034   54.9947 H   0  0  0  0  0  0  0  0  0  0  0  0
   -0.8861   44.5723   55.9950 H   0  0  0  0  0  0  0  0  0  0  0  0
    0.1510   45.6380   53.3580 H   0  0  0  0  0  0  0  0  0  0  0  0
    3.1449   44.3960   53.8653 H   0  0  0  0  0  0  0  0  0  0  0  0
    3.4119   46.9794   55.4762 H   0  0  0  0  0  0  0  0  0  0  0  0
    3.9406   45.3432   56.0113 H   0  0  0  0  0  0  0  0  0  0  0  0
    5.7255   46.9068   54.9317 H   0  0  0  0  0  0  0  0  0  0  0  0
    5.6070   45.1997   54.3379 H   0  0  0  0  0  0  0  0  0  0  0  0
    7.9207   45.6148   50.3976 H   0  0  0  0  0  0  0  0  0  0  0  0
   10.3628   45.8301   50.8598 H   0  0  0  0  0  0  0  0  0  0  0  0
   11.1483   46.8840   52.9813 H   0  0  0  0  0  0  0  0  0  0  0  0
    7.0431   47.5200   54.1899 H   0  0  0  0  0  0  0  0  0  0  0  0
    3.4058   48.1409   53.2222 H   0  0  0  0  0  0  0  0  0  0  0  0
    3.5757   47.4318   51.5700 H   0  0  0  0  0  0  0  0  0  0  0  0
    1.5189   46.7765   53.1146 H   0  0  0  0  0  0  0  0  0  0  0  0
    2.3816   45.5305   52.0986 H   0  0  0  0  0  0  0  0  0  0  0  0
  1  2  1  0
  2  3  1  0
  3  4  1  0
  4  5  1  0
  5  6  2  0
  5  7  1  0
  7  8  1  0
  8  9  1  0
  9 10  1  0
 10 11  1  0
 11 12  2  0
 11 13  1  0
 13 14  2  0
 14 15  1  0
 15 16  2  0
 16 17  1  0
 17 18  1  0
 17 19  2  0
 10 20  1  0
 20 21  1  0
 21  7  1  0
 19 13  1  0
  1 22  1  0
  1 23  1  0
  1 24  1  0
  2 25  1  0
  2 26  1  0
  3 27  1  0
  3 28  1  0
  4 29  1  0
  7 30  1  0
  8 31  1  0
  8 32  1  0
  9 33  1  0
  9 34  1  0
 14 35  1  0
 15 36  1  0
 16 37  1  0
 19 38  1  0
 20 39  1  0
 20 40  1  0
 21 41  1  0
 21 42  1  0
M  END
>  <meeko>  (3) 
{"is_sidechain": [false], "free_energy": -7.606, "intermolecular_energy": -9.847, "internal_energy": 0.021}

$$$$
ligand_66_conformer_3_docked
     RDKit          3D

 42 43  0  0  0  0  0  0  0  0999 V2000
    9.8710   47.1510   54.1120 C   0  0  0  0  0  0  0  0  0  0  0  0
   10.1360   46.7830   52.6540 C   0  0  0  0  0  0  0  0  0  0  0  0
    9.1420   47.4500   51.6970 C   0  0  0  0  0  0  0  0  0  0  0  0
    7.7660   47.1050   52.0540 N   0  0  0  0  0  0  0  0  0  0  0  0
    7.0490   46.0260   51.4350 C   0  0  0  0  0  0  0  0  0  0  0  0
    7.5520   45.4070   50.4580 O   0  0  0  0  0  0  0  0  0  0  0  0
    5.6830   45.6340   51.9400 C   0  0  0  0  0  0  0  0  0  0  0  0
    4.6650   45.6020   50.7830 C   0  0  0  0  0  0  0  0  0  0  0  0
    3.3060   45.0980   51.2920 C   0  0  0  0  0  0  0  0  0  0  0  0
    2.9690   45.6830   52.6010 N   0  0  0  0  0  0  0  0  0  0  0  0
    2.0630   44.9930   53.4830 C   0  0  0  0  0  0  0  0  0  0  0  0
    2.3240   44.9280   54.7160 O   0  0  0  0  0  0  0  0  0  0  0  0
    0.8380   44.3370   52.9730 C   0  0  0  0  0  0  0  0  0  0  0  0
    0.6790   42.9460   53.0940 C   0  0  0  0  0  0  0  0  0  0  0  0
   -0.4810   42.3240   52.6210 C   0  0  0  0  0  0  0  0  0  0  0  0
   -1.4960   43.0850   52.0370 C   0  0  0  0  0  0  0  0  0  0  0  0
   -1.3550   44.4720   51.9290 C   0  0  0  0  0  0  0  0  0  0  0  0
   -2.6390   45.4310   51.2120 Cl  0  0  0  0  0  0  0  0  0  0  0  0
   -0.1950   45.0980   52.4010 C   0  0  0  0  0  0  0  0  0  0  0  0
    3.7150   46.8530   53.0810 C   0  0  0  0  0  0  0  0  0  0  0  0
    5.2270   46.5690   53.0930 C   0  0  0  0  0  0  0  0  0  0  0  0
   10.3861   46.4358   54.7701 H   0  0  0  0  0  0  0  0  0  0  0  0
   10.2469   48.1660   54.3081 H   0  0  0  0  0  0  0  0  0  0  0  0
    8.7892   47.1163   54.3081 H   0  0  0  0  0  0  0  0  0  0  0  0
   11.1538   47.1039   52.3873 H   0  0  0  0  0  0  0  0  0  0  0  0
   10.0199   45.6936   52.5550 H   0  0  0  0  0  0  0  0  0  0  0  0
    9.2659   48.5416   51.7516 H   0  0  0  0  0  0  0  0  0  0  0  0
    9.3416   47.0927   50.6760 H   0  0  0  0  0  0  0  0  0  0  0  0
    7.3350   47.6030   52.8650 H   0  0  0  0  0  0  0  0  0  0  0  0
    5.7415   44.6168   52.3547 H   0  0  0  0  0  0  0  0  0  0  0  0
    4.5472   46.6161   50.3734 H   0  0  0  0  0  0  0  0  0  0  0  0
    5.0311   44.9229   49.9989 H   0  0  0  0  0  0  0  0  0  0  0  0
    2.5274   45.3746   50.5658 H   0  0  0  0  0  0  0  0  0  0  0  0
    3.3641   44.0056   51.4069 H   0  0  0  0  0  0  0  0  0  0  0  0
    1.4708   42.3434   53.5630 H   0  0  0  0  0  0  0  0  0  0  0  0
   -0.5941   41.2334   52.7091 H   0  0  0  0  0  0  0  0  0  0  0  0
   -2.4059   42.5935   51.6622 H   0  0  0  0  0  0  0  0  0  0  0  0
   -0.0921   46.1904   52.3236 H   0  0  0  0  0  0  0  0  0  0  0  0
    3.5135   47.7065   52.4170 H   0  0  0  0  0  0  0  0  0  0  0  0
    3.3908   47.0815   54.1070 H   0  0  0  0  0  0  0  0  0  0  0  0
    5.7630   47.5251   53.0005 H   0  0  0  0  0  0  0  0  0  0  0  0
    5.4559   46.0568   54.0392 H   0  0  0  0  0  0  0  0  0  0  0  0
  1  2  1  0
  2  3  1  0
  3  4  1  0
  4  5  1  0
  5  6  2  0
  5  7  1  0
  7  8  1  0
  8  9  1  0
  9 10  1  0
 10 11  1  0
 11 12  2  0
 11 13  1  0
 13 14  2  0
 14 15  1  0
 15 16  2  0
 16 17  1  0
 17 18  1  0
 17 19  2  0
 10 20  1  0
 20 21  1  0
 21  7  1  0
 19 13  1  0
  1 22  1  0
  1 23  1  0
  1 24  1  0
  2 25  1  0
  2 26  1  0
  3 27  1  0
  3 28  1  0
  4 29  1  0
  7 30  1  0
  8 31  1  0
  8 32  1  0
  9 33  1  0
  9 34  1  0
 14 35  1  0
 15 36  1  0
 16 37  1  0
 19 38  1  0
 20 39  1  0
 20 40  1  0
 21 41  1  0
 21 42  1  0
M  END
>  <meeko>  (4) 
{"is_sidechain": [false], "free_energy": -7.5, "intermolecular_energy": -9.188, "internal_energy": -0.508}

$$$$
ligand_66_conformer_3_docked
     RDKit          3D

 42 43  0  0  0  0  0  0  0  0999 V2000
    9.8220   47.2600   54.0360 C   0  0  0  0  0  0  0  0  0  0  0  0
    9.8030   46.4780   52.7230 C   0  0  0  0  0  0  0  0  0  0  0  0
    8.9850   47.1870   51.6390 C   0  0  0  0  0  0  0  0  0  0  0  0
    7.5840   46.7660   51.6850 N   0  0  0  0  0  0  0  0  0  0  0  0
    7.0730   45.6770   50.9010 C   0  0  0  0  0  0  0  0  0  0  0  0
    7.8040   45.1160   50.0400 O   0  0  0  0  0  0  0  0  0  0  0  0
    5.6530   45.2040   51.0930 C   0  0  0  0  0  0  0  0  0  0  0  0
    5.1460   45.5670   52.5020 C   0  0  0  0  0  0  0  0  0  0  0  0
    3.6680   45.1760   52.6460 C   0  0  0  0  0  0  0  0  0  0  0  0
    3.3950   43.8610   52.0420 N   0  0  0  0  0  0  0  0  0  0  0  0
    2.0650   43.5390   51.5920 C   0  0  0  0  0  0  0  0  0  0  0  0
    1.9080   42.9470   50.4900 O   0  0  0  0  0  0  0  0  0  0  0  0
    0.8720   43.9070   52.3870 C   0  0  0  0  0  0  0  0  0  0  0  0
    0.7590   43.4910   53.7250 C   0  0  0  0  0  0  0  0  0  0  0  0
   -0.3620   43.8440   54.4820 C   0  0  0  0  0  0  0  0  0  0  0  0
   -1.3730   44.6240   53.9160 C   0  0  0  0  0  0  0  0  0  0  0  0
   -1.2610   45.0580   52.5920 C   0  0  0  0  0  0  0  0  0  0  0  0
   -2.5220   46.0550   51.8860 Cl  0  0  0  0  0  0  0  0  0  0  0  0
   -0.1400   44.7070   51.8310 C   0  0  0  0  0  0  0  0  0  0  0  0
    4.5180   42.9720   51.7150 C   0  0  0  0  0  0  0  0  0  0  0  0
    5.5290   43.6850   50.8010 C   0  0  0  0  0  0  0  0  0  0  0  0
    9.8049   46.5569   54.8818 H   0  0  0  0  0  0  0  0  0  0  0  0
   10.7353   47.8711   54.0856 H   0  0  0  0  0  0  0  0  0  0  0  0
    8.9395   47.9148   54.0856 H   0  0  0  0  0  0  0  0  0  0  0  0
   10.8368   46.3597   52.3662 H   0  0  0  0  0  0  0  0  0  0  0  0
    9.3325   45.5029   52.9175 H   0  0  0  0  0  0  0  0  0  0  0  0
    9.0402   48.2739   51.7989 H   0  0  0  0  0  0  0  0  0  0  0  0
    9.4000   46.9226   50.6552 H   0  0  0  0  0  0  0  0  0  0  0  0
    6.9650   47.2140   52.3980 H   0  0  0  0  0  0  0  0  0  0  0  0
    5.0093   45.7240   50.3683 H   0  0  0  0  0  0  0  0  0  0  0  0
    5.7405   45.0266   53.2534 H   0  0  0  0  0  0  0  0  0  0  0  0
    5.2487   46.6516   52.6541 H   0  0  0  0  0  0  0  0  0  0  0  0
    3.4110   45.1384   53.7149 H   0  0  0  0  0  0  0  0  0  0  0  0
    3.0599   45.9285   52.1226 H   0  0  0  0  0  0  0  0  0  0  0  0
    1.5568   42.8846   54.1787 H   0  0  0  0  0  0  0  0  0  0  0  0
   -0.4480   43.5068   55.5255 H   0  0  0  0  0  0  0  0  0  0  0  0
   -2.2567   44.8965   54.5117 H   0  0  0  0  0  0  0  0  0  0  0  0
   -0.0510   45.0592   50.7927 H   0  0  0  0  0  0  0  0  0  0  0  0
    5.0223   42.6706   52.6450 H   0  0  0  0  0  0  0  0  0  0  0  0
    4.1275   42.0887   51.1884 H   0  0  0  0  0  0  0  0  0  0  0  0
    6.5160   43.2203   50.9421 H   0  0  0  0  0  0  0  0  0  0  0  0
    5.1661   43.5796   49.7679 H   0  0  0  0  0  0  0  0  0  0  0  0
  1  2  1  0
  2  3  1  0
  3  4  1  0
  4  5  1  0
  5  6  2  0
  5  7  1  0
  7  8  1  0
  8  9  1  0
  9 10  1  0
 10 11  1  0
 11 12  2  0
 11 13  1  0
 13 14  2  0
 14 15  1  0
 15 16  2  0
 16 17  1  0
 17 18  1  0
 17 19  2  0
 10 20  1  0
 20 21  1  0
 21  7  1  0
 19 13  1  0
  1 22  1  0
  1 23  1  0
  1 24  1  0
  2 25  1  0
  2 26  1  0
  3 27  1  0
  3 28  1  0
  4 29  1  0
  7 30  1  0
  8 31  1  0
  8 32  1  0
  9 33  1  0
  9 34  1  0
 14 35  1  0
 15 36  1  0
 16 37  1  0
 19 38  1  0
 20 39  1  0
 20 40  1  0
 21 41  1  0
 21 42  1  0
M  END
>  <meeko>  (5) 
{"is_sidechain": [false], "free_energy": -7.427, "intermolecular_energy": -9.198, "internal_energy": -0.408}

$$$$
