ligand_61_conformer_1_docked
     RDKit          3D

 41 44  0  0  0  0  0  0  0  0999 V2000
    1.4820   43.4800   53.5710 O   0  0  0  0  0  0  0  0  0  0  0  0
    1.0140   44.5600   54.0220 C   0  0  0  0  0  0  0  0  0  0  0  0
    1.4220   45.8110   53.4400 N   0  0  0  0  0  0  0  0  0  0  0  0
    2.6390   45.9840   52.6940 C   0  0  0  0  0  0  0  0  0  0  0  0
    2.6800   45.7730   51.3040 C   0  0  0  0  0  0  0  0  0  0  0  0
    3.8820   45.9090   50.6070 C   0  0  0  0  0  0  0  0  0  0  0  0
    5.0540   46.2520   51.2860 C   0  0  0  0  0  0  0  0  0  0  0  0
    5.0330   46.4640   52.6730 C   0  0  0  0  0  0  0  0  0  0  0  0
    6.2790   46.8120   53.3840 C   0  0  0  0  0  0  0  0  0  0  0  0
    6.3600   47.0280   54.7160 N   0  0  0  0  0  0  0  0  0  0  0  0
    7.6260   47.2170   55.0670 N   0  0  0  0  0  0  0  0  0  0  0  0
    8.3600   47.1190   53.9450 C   0  0  0  0  0  0  0  0  0  0  0  0
    7.5590   46.8920   52.8620 C   0  0  0  0  0  0  0  0  0  0  0  0
    8.1380   46.4790   51.5410 C   0  0  0  0  0  0  0  0  0  0  0  0
    9.4820   46.9340   51.4250 O   0  0  0  0  0  0  0  0  0  0  0  0
   10.2710   46.4800   52.5220 C   0  0  0  0  0  0  0  0  0  0  0  0
    9.8470   47.1630   53.8400 C   0  0  0  0  0  0  0  0  0  0  0  0
    3.8250   46.3070   53.3720 C   0  0  0  0  0  0  0  0  0  0  0  0
    0.0090   44.5210   55.1120 C   0  0  0  0  0  0  0  0  0  0  0  0
    0.2340   45.2140   56.3140 C   0  0  0  0  0  0  0  0  0  0  0  0
   -0.6910   45.1810   57.3100 N   0  0  0  0  0  0  0  0  0  0  0  0
   -1.8560   44.4930   57.1840 C   0  0  0  0  0  0  0  0  0  0  0  0
   -2.1340   43.7970   56.0070 C   0  0  0  0  0  0  0  0  0  0  0  0
   -3.3330   43.1000   55.8800 O   0  0  0  0  0  0  0  0  0  0  0  0
   -1.1970   43.8130   54.9670 C   0  0  0  0  0  0  0  0  0  0  0  0
    0.7440   46.6060   53.4600 H   0  0  0  0  0  0  0  0  0  0  0  0
    1.7614   45.4998   50.7640 H   0  0  0  0  0  0  0  0  0  0  0  0
    3.9065   45.7456   49.5195 H   0  0  0  0  0  0  0  0  0  0  0  0
    5.9977   46.3564   50.7306 H   0  0  0  0  0  0  0  0  0  0  0  0
    5.5640   47.0330   55.3910 H   0  0  0  0  0  0  0  0  0  0  0  0
    8.1187   45.3819   51.4637 H   0  0  0  0  0  0  0  0  0  0  0  0
    7.5390   46.9250   50.7334 H   0  0  0  0  0  0  0  0  0  0  0  0
   10.1468   45.3920   52.6264 H   0  0  0  0  0  0  0  0  0  0  0  0
   11.3222   46.7349   52.3220 H   0  0  0  0  0  0  0  0  0  0  0  0
   10.2941   46.6313   54.6929 H   0  0  0  0  0  0  0  0  0  0  0  0
   10.1924   48.2073   53.8487 H   0  0  0  0  0  0  0  0  0  0  0  0
    3.8080   46.4387   54.4640 H   0  0  0  0  0  0  0  0  0  0  0  0
    1.1636   45.7862   56.4497 H   0  0  0  0  0  0  0  0  0  0  0  0
   -2.5811   44.4847   58.0112 H   0  0  0  0  0  0  0  0  0  0  0  0
   -3.8700   42.8170   56.6910 H   0  0  0  0  0  0  0  0  0  0  0  0
   -1.4050   43.2699   54.0333 H   0  0  0  0  0  0  0  0  0  0  0  0
  1  2  2  0
  2  3  1  0
  3  4  1  0
  4  5  2  0
  5  6  1  0
  6  7  2  0
  7  8  1  0
  8  9  1  0
  9 10  1  0
 10 11  1  0
 11 12  2  0
 12 13  1  0
 13 14  1  0
 14 15  1  0
 15 16  1  0
 16 17  1  0
  8 18  2  0
  2 19  1  0
 19 20  2  0
 20 21  1  0
 21 22  2  0
 22 23  1  0
 23 24  1  0
 23 25  2  0
 18  4  1  0
 25 19  1  0
 13  9  2  0
 17 12  1  0
  3 26  1  0
  5 27  1  0
  6 28  1  0
  7 29  1  0
 10 30  1  0
 14 31  1  0
 14 32  1  0
 16 33  1  0
 16 34  1  0
 17 35  1  0
 17 36  1  0
 18 37  1  0
 20 38  1  0
 22 39  1  0
 24 40  1  0
 25 41  1  0
M  END
>  <meeko>  (1) 
{"is_sidechain": [false], "free_energy": -9.27, "intermolecular_energy": -11.167, "internal_energy": -0.164}

$$$$
ligand_61_conformer_1_docked
     RDKit          3D

 41 44  0  0  0  0  0  0  0  0999 V2000
    0.9810   45.6310   53.0660 O   0  0  0  0  0  0  0  0  0  0  0  0
    1.1340   44.8170   54.0170 C   0  0  0  0  0  0  0  0  0  0  0  0
    2.3620   44.0770   54.1290 N   0  0  0  0  0  0  0  0  0  0  0  0
    3.2550   43.8410   53.0270 C   0  0  0  0  0  0  0  0  0  0  0  0
    3.0140   42.8120   52.0980 C   0  0  0  0  0  0  0  0  0  0  0  0
    3.9170   42.5760   51.0590 C   0  0  0  0  0  0  0  0  0  0  0  0
    5.0680   43.3580   50.9370 C   0  0  0  0  0  0  0  0  0  0  0  0
    5.3270   44.3870   51.8560 C   0  0  0  0  0  0  0  0  0  0  0  0
    6.5530   45.1990   51.7260 C   0  0  0  0  0  0  0  0  0  0  0  0
    7.1770   45.4530   50.5540 N   0  0  0  0  0  0  0  0  0  0  0  0
    8.1850   46.2930   50.7520 N   0  0  0  0  0  0  0  0  0  0  0  0
    8.2040   46.5770   52.0670 C   0  0  0  0  0  0  0  0  0  0  0  0
    7.2180   45.8950   52.7210 C   0  0  0  0  0  0  0  0  0  0  0  0
    6.8490   46.2320   54.1360 C   0  0  0  0  0  0  0  0  0  0  0  0
    7.9550   46.8260   54.8080 O   0  0  0  0  0  0  0  0  0  0  0  0
    8.4370   47.9610   54.0940 C   0  0  0  0  0  0  0  0  0  0  0  0
    9.0970   47.5490   52.7610 C   0  0  0  0  0  0  0  0  0  0  0  0
    4.4250   44.6080   52.9100 C   0  0  0  0  0  0  0  0  0  0  0  0
    0.0650   44.6750   55.0350 C   0  0  0  0  0  0  0  0  0  0  0  0
    0.2480   45.1750   56.3360 C   0  0  0  0  0  0  0  0  0  0  0  0
   -0.7360   45.0490   57.2650 N   0  0  0  0  0  0  0  0  0  0  0  0
   -1.9210   44.4490   56.9780 C   0  0  0  0  0  0  0  0  0  0  0  0
   -2.1590   43.9460   55.6990 C   0  0  0  0  0  0  0  0  0  0  0  0
   -3.3790   43.3410   55.4070 O   0  0  0  0  0  0  0  0  0  0  0  0
   -1.1620   44.0620   54.7230 C   0  0  0  0  0  0  0  0  0  0  0  0
    2.6800   43.7950   55.0840 H   0  0  0  0  0  0  0  0  0  0  0  0
    2.1108   42.1910   52.1904 H   0  0  0  0  0  0  0  0  0  0  0  0
    3.7212   41.7718   50.3345 H   0  0  0  0  0  0  0  0  0  0  0  0
    5.7751   43.1665   50.1165 H   0  0  0  0  0  0  0  0  0  0  0  0
    6.9130   45.0740   49.6190 H   0  0  0  0  0  0  0  0  0  0  0  0
    6.0052   46.9376   54.1325 H   0  0  0  0  0  0  0  0  0  0  0  0
    6.5660   45.3079   54.6613 H   0  0  0  0  0  0  0  0  0  0  0  0
    7.5940   48.6353   53.8826 H   0  0  0  0  0  0  0  0  0  0  0  0
    9.1935   48.4644   54.7139 H   0  0  0  0  0  0  0  0  0  0  0  0
    9.2401   48.4375   52.1284 H   0  0  0  0  0  0  0  0  0  0  0  0
   10.0764   47.0870   52.9542 H   0  0  0  0  0  0  0  0  0  0  0  0
    4.6379   45.3913   53.6524 H   0  0  0  0  0  0  0  0  0  0  0  0
    1.1927   45.6709   56.6036 H   0  0  0  0  0  0  0  0  0  0  0  0
   -2.6938   44.3598   57.7557 H   0  0  0  0  0  0  0  0  0  0  0  0
   -3.6910   42.5130   55.8990 H   0  0  0  0  0  0  0  0  0  0  0  0
   -1.3386   43.6727   53.7095 H   0  0  0  0  0  0  0  0  0  0  0  0
  1  2  2  0
  2  3  1  0
  3  4  1  0
  4  5  2  0
  5  6  1  0
  6  7  2  0
  7  8  1  0
  8  9  1  0
  9 10  1  0
 10 11  1  0
 11 12  2  0
 12 13  1  0
 13 14  1  0
 14 15  1  0
 15 16  1  0
 16 17  1  0
  8 18  2  0
  2 19  1  0
 19 20  2  0
 20 21  1  0
 21 22  2  0
 22 23  1  0
 23 24  1  0
 23 25  2  0
 18  4  1  0
 25 19  1  0
 13  9  2  0
 17 12  1  0
  3 26  1  0
  5 27  1  0
  6 28  1  0
  7 29  1  0
 10 30  1  0
 14 31  1  0
 14 32  1  0
 16 33  1  0
 16 34  1  0
 17 35  1  0
 17 36  1  0
 18 37  1  0
 20 38  1  0
 22 39  1  0
 24 40  1  0
 25 41  1  0
M  END
>  <meeko>  (2) 
{"is_sidechain": [false], "free_energy": -8.948, "intermolecular_energy": -10.672, "internal_energy": -0.27}

$$$$
ligand_61_conformer_1_docked
     RDKit          3D

 41 44  0  0  0  0  0  0  0  0999 V2000
    2.8690   46.5550   52.1510 O   0  0  0  0  0  0  0  0  0  0  0  0
    3.7800   45.8720   52.6910 C   0  0  0  0  0  0  0  0  0  0  0  0
    3.4340   44.8310   53.6210 N   0  0  0  0  0  0  0  0  0  0  0  0
    2.1850   44.7800   54.3330 C   0  0  0  0  0  0  0  0  0  0  0  0
    1.0870   44.0580   53.8320 C   0  0  0  0  0  0  0  0  0  0  0  0
   -0.1270   44.0550   54.5210 C   0  0  0  0  0  0  0  0  0  0  0  0
   -0.2610   44.7740   55.7110 C   0  0  0  0  0  0  0  0  0  0  0  0
    0.8220   45.5030   56.2250 C   0  0  0  0  0  0  0  0  0  0  0  0
    0.6660   46.2710   57.4760 C   0  0  0  0  0  0  0  0  0  0  0  0
    1.6510   46.4560   58.3830 N   0  0  0  0  0  0  0  0  0  0  0  0
    1.2350   47.2730   59.3430 N   0  0  0  0  0  0  0  0  0  0  0  0
   -0.0320   47.6130   59.0420 C   0  0  0  0  0  0  0  0  0  0  0  0
   -0.4400   46.9900   57.8980 C   0  0  0  0  0  0  0  0  0  0  0  0
   -1.7030   47.3990   57.1990 C   0  0  0  0  0  0  0  0  0  0  0  0
   -2.6120   47.9880   58.1250 O   0  0  0  0  0  0  0  0  0  0  0  0
   -2.0040   49.0760   58.8150 C   0  0  0  0  0  0  0  0  0  0  0  0
   -0.8940   48.5870   59.7710 C   0  0  0  0  0  0  0  0  0  0  0  0
    2.0360   45.5170   55.5180 C   0  0  0  0  0  0  0  0  0  0  0  0
    5.1950   46.1190   52.3190 C   0  0  0  0  0  0  0  0  0  0  0  0
    5.7920   45.4000   51.2690 C   0  0  0  0  0  0  0  0  0  0  0  0
    7.0860   45.6320   50.9260 N   0  0  0  0  0  0  0  0  0  0  0  0
    7.8430   46.5590   51.5690 C   0  0  0  0  0  0  0  0  0  0  0  0
    7.2960   47.3090   52.6110 C   0  0  0  0  0  0  0  0  0  0  0  0
    8.0740   48.2650   53.2610 O   0  0  0  0  0  0  0  0  0  0  0  0
    5.9650   47.0880   52.9850 C   0  0  0  0  0  0  0  0  0  0  0  0
    4.0730   44.0070   53.6960 H   0  0  0  0  0  0  0  0  0  0  0  0
    1.1853   43.4932   52.8932 H   0  0  0  0  0  0  0  0  0  0  0  0
   -0.9806   43.4848   54.1257 H   0  0  0  0  0  0  0  0  0  0  0  0
   -1.2209   44.7687   56.2481 H   0  0  0  0  0  0  0  0  0  0  0  0
    2.6100   46.0450   58.3470 H   0  0  0  0  0  0  0  0  0  0  0  0
   -1.4623   48.1292   56.4123 H   0  0  0  0  0  0  0  0  0  0  0  0
   -2.1712   46.5079   56.7554 H   0  0  0  0  0  0  0  0  0  0  0  0
   -1.5645   49.7657   58.0793 H   0  0  0  0  0  0  0  0  0  0  0  0
   -2.7767   49.5826   59.4119 H   0  0  0  0  0  0  0  0  0  0  0  0
   -0.2874   49.4426   60.1027 H   0  0  0  0  0  0  0  0  0  0  0  0
   -1.3429   48.1050   60.6520 H   0  0  0  0  0  0  0  0  0  0  0  0
    2.8794   46.1125   55.8976 H   0  0  0  0  0  0  0  0  0  0  0  0
    5.2082   44.6452   50.7219 H   0  0  0  0  0  0  0  0  0  0  0  0
    8.8888   46.7186   51.2678 H   0  0  0  0  0  0  0  0  0  0  0  0
    8.3500   49.1240   52.8020 H   0  0  0  0  0  0  0  0  0  0  0  0
    5.5206   47.6745   53.8026 H   0  0  0  0  0  0  0  0  0  0  0  0
  1  2  2  0
  2  3  1  0
  3  4  1  0
  4  5  2  0
  5  6  1  0
  6  7  2  0
  7  8  1  0
  8  9  1  0
  9 10  1  0
 10 11  1  0
 11 12  2  0
 12 13  1  0
 13 14  1  0
 14 15  1  0
 15 16  1  0
 16 17  1  0
  8 18  2  0
  2 19  1  0
 19 20  2  0
 20 21  1  0
 21 22  2  0
 22 23  1  0
 23 24  1  0
 23 25  2  0
 18  4  1  0
 25 19  1  0
 13  9  2  0
 17 12  1  0
  3 26  1  0
  5 27  1  0
  6 28  1  0
  7 29  1  0
 10 30  1  0
 14 31  1  0
 14 32  1  0
 16 33  1  0
 16 34  1  0
 17 35  1  0
 17 36  1  0
 18 37  1  0
 20 38  1  0
 22 39  1  0
 24 40  1  0
 25 41  1  0
M  END
>  <meeko>  (3) 
{"is_sidechain": [false], "free_energy": -8.717, "intermolecular_energy": -10.236, "internal_energy": -0.429}

$$$$
ligand_61_conformer_1_docked
     RDKit          3D

 41 44  0  0  0  0  0  0  0  0999 V2000
    5.5510   45.0530   54.0690 O   0  0  0  0  0  0  0  0  0  0  0  0
    6.2640   45.3700   53.0790 C   0  0  0  0  0  0  0  0  0  0  0  0
    5.8170   45.0540   51.7490 N   0  0  0  0  0  0  0  0  0  0  0  0
    4.8560   44.0260   51.4530 C   0  0  0  0  0  0  0  0  0  0  0  0
    5.2560   42.7730   50.9560 C   0  0  0  0  0  0  0  0  0  0  0  0
    4.3020   41.8040   50.6380 C   0  0  0  0  0  0  0  0  0  0  0  0
    2.9420   42.0740   50.8080 C   0  0  0  0  0  0  0  0  0  0  0  0
    2.5240   43.3200   51.3010 C   0  0  0  0  0  0  0  0  0  0  0  0
    1.0830   43.6010   51.4640 C   0  0  0  0  0  0  0  0  0  0  0  0
    0.1720   43.5010   50.4720 N   0  0  0  0  0  0  0  0  0  0  0  0
   -1.0460   43.7150   50.9530 N   0  0  0  0  0  0  0  0  0  0  0  0
   -0.9080   43.9530   52.2700 C   0  0  0  0  0  0  0  0  0  0  0  0
    0.4090   43.9180   52.6310 C   0  0  0  0  0  0  0  0  0  0  0  0
    0.8170   43.8850   54.0740 C   0  0  0  0  0  0  0  0  0  0  0  0
   -0.1920   44.4740   54.8880 O   0  0  0  0  0  0  0  0  0  0  0  0
   -1.4530   43.8470   54.6730 C   0  0  0  0  0  0  0  0  0  0  0  0
   -2.0020   44.1550   53.2630 C   0  0  0  0  0  0  0  0  0  0  0  0
    3.4870   44.2970   51.6010 C   0  0  0  0  0  0  0  0  0  0  0  0
    7.5290   46.1110   53.2990 C   0  0  0  0  0  0  0  0  0  0  0  0
    8.6210   45.9330   52.4320 C   0  0  0  0  0  0  0  0  0  0  0  0
    9.7780   46.6170   52.6320 N   0  0  0  0  0  0  0  0  0  0  0  0
    9.9240   47.4930   53.6600 C   0  0  0  0  0  0  0  0  0  0  0  0
    8.8680   47.7160   54.5440 C   0  0  0  0  0  0  0  0  0  0  0  0
    9.0190   48.6230   55.5920 O   0  0  0  0  0  0  0  0  0  0  0  0
    7.6650   47.0230   54.3610 C   0  0  0  0  0  0  0  0  0  0  0  0
    6.1160   45.6810   50.9680 H   0  0  0  0  0  0  0  0  0  0  0  0
    6.3252   42.5550   50.8170 H   0  0  0  0  0  0  0  0  0  0  0  0
    4.6225   40.8249   50.2524 H   0  0  0  0  0  0  0  0  0  0  0  0
    2.1955   41.3069   50.5544 H   0  0  0  0  0  0  0  0  0  0  0  0
    0.3680   43.2730   49.4720 H   0  0  0  0  0  0  0  0  0  0  0  0
    0.9691   42.8406   54.3840 H   0  0  0  0  0  0  0  0  0  0  0  0
    1.7504   44.4544   54.1943 H   0  0  0  0  0  0  0  0  0  0  0  0
   -1.3347   42.7587   54.7812 H   0  0  0  0  0  0  0  0  0  0  0  0
   -2.1650   44.2378   55.4148 H   0  0  0  0  0  0  0  0  0  0  0  0
   -2.8384   43.4779   53.0353 H   0  0  0  0  0  0  0  0  0  0  0  0
   -2.3613   45.1937   53.2191 H   0  0  0  0  0  0  0  0  0  0  0  0
    3.1644   45.2868   51.9563 H   0  0  0  0  0  0  0  0  0  0  0  0
    8.5384   45.2351   51.5857 H   0  0  0  0  0  0  0  0  0  0  0  0
   10.8760   48.0271   53.7956 H   0  0  0  0  0  0  0  0  0  0  0  0
    9.0790   48.3150   56.5550 H   0  0  0  0  0  0  0  0  0  0  0  0
    6.8242   47.1924   55.0497 H   0  0  0  0  0  0  0  0  0  0  0  0
  1  2  2  0
  2  3  1  0
  3  4  1  0
  4  5  2  0
  5  6  1  0
  6  7  2  0
  7  8  1  0
  8  9  1  0
  9 10  1  0
 10 11  1  0
 11 12  2  0
 12 13  1  0
 13 14  1  0
 14 15  1  0
 15 16  1  0
 16 17  1  0
  8 18  2  0
  2 19  1  0
 19 20  2  0
 20 21  1  0
 21 22  2  0
 22 23  1  0
 23 24  1  0
 23 25  2  0
 18  4  1  0
 25 19  1  0
 13  9  2  0
 17 12  1  0
  3 26  1  0
  5 27  1  0
  6 28  1  0
  7 29  1  0
 10 30  1  0
 14 31  1  0
 14 32  1  0
 16 33  1  0
 16 34  1  0
 17 35  1  0
 17 36  1  0
 18 37  1  0
 20 38  1  0
 22 39  1  0
 24 40  1  0
 25 41  1  0
M  END
>  <meeko>  (4) 
{"is_sidechain": [false], "free_energy": -8.61, "intermolecular_energy": -10.012, "internal_energy": -0.524}

$$$$
ligand_61_conformer_1_docked
     RDKit          3D

 41 44  0  0  0  0  0  0  0  0999 V2000
    5.0270   46.7890   51.9410 O   0  0  0  0  0  0  0  0  0  0  0  0
    5.8760   45.9170   52.2710 C   0  0  0  0  0  0  0  0  0  0  0  0
    5.4900   44.5330   52.3280 N   0  0  0  0  0  0  0  0  0  0  0  0
    4.1300   44.0890   52.4780 C   0  0  0  0  0  0  0  0  0  0  0  0
    3.4950   43.3290   51.4800 C   0  0  0  0  0  0  0  0  0  0  0  0
    2.1620   42.9430   51.6290 C   0  0  0  0  0  0  0  0  0  0  0  0
    1.4460   43.3140   52.7710 C   0  0  0  0  0  0  0  0  0  0  0  0
    2.0620   44.0760   53.7760 C   0  0  0  0  0  0  0  0  0  0  0  0
    1.2940   44.4750   54.9720 C   0  0  0  0  0  0  0  0  0  0  0  0
    1.8520   44.9070   56.1250 N   0  0  0  0  0  0  0  0  0  0  0  0
    0.9030   45.2870   56.9710 N   0  0  0  0  0  0  0  0  0  0  0  0
   -0.2740   45.0960   56.3490 C   0  0  0  0  0  0  0  0  0  0  0  0
   -0.0810   44.5650   55.1060 C   0  0  0  0  0  0  0  0  0  0  0  0
   -1.1980   44.5050   54.1050 C   0  0  0  0  0  0  0  0  0  0  0  0
   -2.4570   44.4780   54.7710 O   0  0  0  0  0  0  0  0  0  0  0  0
   -2.5900   45.5850   55.6570 C   0  0  0  0  0  0  0  0  0  0  0  0
   -1.6270   45.4640   56.8580 C   0  0  0  0  0  0  0  0  0  0  0  0
    3.3980   44.4770   53.6110 C   0  0  0  0  0  0  0  0  0  0  0  0
    7.2750   46.3280   52.5440 C   0  0  0  0  0  0  0  0  0  0  0  0
    8.2610   46.2050   51.5500 C   0  0  0  0  0  0  0  0  0  0  0  0
    9.5410   46.5880   51.8000 N   0  0  0  0  0  0  0  0  0  0  0  0
    9.9140   47.1020   53.0010 C   0  0  0  0  0  0  0  0  0  0  0  0
    8.9720   47.2560   54.0190 C   0  0  0  0  0  0  0  0  0  0  0  0
    9.3570   47.7920   55.2460 O   0  0  0  0  0  0  0  0  0  0  0  0
    7.6460   46.8680   53.7870 C   0  0  0  0  0  0  0  0  0  0  0  0
    6.2200   43.8100   52.1340 H   0  0  0  0  0  0  0  0  0  0  0  0
    4.0516   43.0371   50.5772 H   0  0  0  0  0  0  0  0  0  0  0  0
    1.6734   42.3451   50.8456 H   0  0  0  0  0  0  0  0  0  0  0  0
    0.3955   43.0075   52.8824 H   0  0  0  0  0  0  0  0  0  0  0  0
    2.8720   44.9600   56.3360 H   0  0  0  0  0  0  0  0  0  0  0  0
   -1.1504   45.3907   53.4545 H   0  0  0  0  0  0  0  0  0  0  0  0
   -1.0913   43.5901   53.5037 H   0  0  0  0  0  0  0  0  0  0  0  0
   -2.3638   46.5114   55.1088 H   0  0  0  0  0  0  0  0  0  0  0  0
   -3.6211   45.6000   56.0400 H   0  0  0  0  0  0  0  0  0  0  0  0
   -1.5741   46.4260   57.3887 H   0  0  0  0  0  0  0  0  0  0  0  0
   -1.9892   44.6925   57.5534 H   0  0  0  0  0  0  0  0  0  0  0  0
    3.8763   45.1026   54.3790 H   0  0  0  0  0  0  0  0  0  0  0  0
    7.9953   45.7964   50.5639 H   0  0  0  0  0  0  0  0  0  0  0  0
   10.9599   47.3972   53.1712 H   0  0  0  0  0  0  0  0  0  0  0  0
    9.4970   48.7880   55.3680 H   0  0  0  0  0  0  0  0  0  0  0  0
    6.8931   46.9864   54.5802 H   0  0  0  0  0  0  0  0  0  0  0  0
  1  2  2  0
  2  3  1  0
  3  4  1  0
  4  5  2  0
  5  6  1  0
  6  7  2  0
  7  8  1  0
  8  9  1  0
  9 10  1  0
 10 11  1  0
 11 12  2  0
 12 13  1  0
 13 14  1  0
 14 15  1  0
 15 16  1  0
 16 17  1  0
  8 18  2  0
  2 19  1  0
 19 20  2  0
 20 21  1  0
 21 22  2  0
 22 23  1  0
 23 24  1  0
 23 25  2  0
 18  4  1  0
 25 19  1  0
 13  9  2  0
 17 12  1  0
  3 26  1  0
  5 27  1  0
  6 28  1  0
  7 29  1  0
 10 30  1  0
 14 31  1  0
 14 32  1  0
 16 33  1  0
 16 34  1  0
 17 35  1  0
 17 36  1  0
 18 37  1  0
 20 38  1  0
 22 39  1  0
 24 40  1  0
 25 41  1  0
M  END
>  <meeko>  (5) 
{"is_sidechain": [false], "free_energy": -8.55, "intermolecular_energy": -10.235, "internal_energy": -0.228}

$$$$
