ligand_79_conformer_5_docked
     RDKit          3D

 45 47  0  0  0  0  0  0  0  0999 V2000
    4.5270   47.5280   53.9410 C   0  0  0  0  0  0  0  0  0  0  0  0
    4.6730   46.6840   52.6740 C   0  0  2  0  0  0  0  0  0  0  0  0
    4.0860   45.3130   52.8850 C   0  0  0  0  0  0  0  0  0  0  0  0
    4.3540   44.6730   53.9390 O   0  0  0  0  0  0  0  0  0  0  0  0
    3.1830   44.7630   51.9140 N   0  0  0  0  0  0  0  0  0  0  0  0
    2.5680   43.4330   52.0480 C   0  0  0  0  0  0  0  0  0  0  0  0
    3.6080   42.2910   52.1680 C   0  0  0  0  0  0  0  0  0  0  0  0
    4.3260   42.0360   50.8650 C   0  0  0  0  0  0  0  0  0  0  0  0
    3.8570   41.0610   49.9680 C   0  0  0  0  0  0  0  0  0  0  0  0
    4.5470   40.8070   48.7780 C   0  0  0  0  0  0  0  0  0  0  0  0
    5.7080   41.5220   48.4750 C   0  0  0  0  0  0  0  0  0  0  0  0
    6.1800   42.4960   49.3590 C   0  0  0  0  0  0  0  0  0  0  0  0
    5.4920   42.7550   50.5480 C   0  0  0  0  0  0  0  0  0  0  0  0
    1.4740   43.4000   53.1290 C   0  0  0  0  0  0  0  0  0  0  0  0
    0.4210   43.1530   52.0580 C   0  0  0  0  0  0  0  0  0  0  0  0
    1.4960   43.1790   50.9810 C   0  0  0  0  0  0  0  0  0  0  0  0
    6.0790   46.5840   52.2720 N   0  0  0  0  0  0  0  0  0  0  0  0
    6.5300   46.0380   51.1260 C   0  0  0  0  0  0  0  0  0  0  0  0
    7.9090   46.0470   51.1490 C   0  0  0  0  0  0  0  0  0  0  0  0
    8.2290   46.6270   52.3630 C   0  0  0  0  0  0  0  0  0  0  0  0
    9.6080   46.7920   52.9180 C   0  0  0  0  0  0  0  0  0  0  0  0
    9.9090   45.7340   53.7580 F   0  0  0  0  0  0  0  0  0  0  0  0
   10.5200   46.8220   51.8800 F   0  0  0  0  0  0  0  0  0  0  0  0
    9.6910   47.9730   53.6350 F   0  0  0  0  0  0  0  0  0  0  0  0
    7.1040   46.9250   53.0410 N   0  0  0  0  0  0  0  0  0  0  0  0
    4.6384   46.8837   54.8256 H   0  0  0  0  0  0  0  0  0  0  0  0
    5.3038   48.3067   53.9544 H   0  0  0  0  0  0  0  0  0  0  0  0
    3.5338   48.0006   53.9544 H   0  0  0  0  0  0  0  0  0  0  0  0
    4.1199   47.1817   51.8639 H   0  0  0  0  0  0  0  0  0  0  0  0
    2.9290   45.3570   51.0930 H   0  0  0  0  0  0  0  0  0  0  0  0
    4.3490   42.5654   52.9332 H   0  0  0  0  0  0  0  0  0  0  0  0
    3.0705   41.3717   52.4435 H   0  0  0  0  0  0  0  0  0  0  0  0
    2.9434   40.4952   50.2027 H   0  0  0  0  0  0  0  0  0  0  0  0
    4.1747   40.0429   48.0797 H   0  0  0  0  0  0  0  0  0  0  0  0
    6.2510   41.3184   47.5403 H   0  0  0  0  0  0  0  0  0  0  0  0
    7.0938   43.0594   49.1190 H   0  0  0  0  0  0  0  0  0  0  0  0
    5.8647   43.5253   51.2392 H   0  0  0  0  0  0  0  0  0  0  0  0
    1.5813   42.5772   53.8512 H   0  0  0  0  0  0  0  0  0  0  0  0
    1.3640   44.2366   53.8347 H   0  0  0  0  0  0  0  0  0  0  0  0
   -0.0950   42.1861   52.1522 H   0  0  0  0  0  0  0  0  0  0  0  0
   -0.4556   43.8131   51.9811 H   0  0  0  0  0  0  0  0  0  0  0  0
    1.6153   42.2265   50.4438 H   0  0  0  0  0  0  0  0  0  0  0  0
    1.4008   43.8551   50.1186 H   0  0  0  0  0  0  0  0  0  0  0  0
    5.9037   45.6501   50.3091 H   0  0  0  0  0  0  0  0  0  0  0  0
    8.5986   45.6765   50.3762 H   0  0  0  0  0  0  0  0  0  0  0  0
  1  2  1  0
  2  3  1  0
  3  4  2  0
  3  5  1  0
  5  6  1  0
  6  7  1  0
  7  8  1  0
  8  9  2  0
  9 10  1  0
 10 11  2  0
 11 12  1  0
 12 13  2  0
  6 14  1  0
 14 15  1  0
 15 16  1  0
  2 17  1  0
 17 18  1  0
 18 19  2  0
 19 20  1  0
 20 21  1  0
 21 22  1  0
 21 23  1  0
 21 24  1  0
 20 25  2  0
 16  6  1  0
 25 17  1  0
 13  8  1  0
  1 26  1  0
  1 27  1  0
  1 28  1  0
  2 29  1  6
  5 30  1  0
  7 31  1  0
  7 32  1  0
  9 33  1  0
 10 34  1  0
 11 35  1  0
 12 36  1  0
 13 37  1  0
 14 38  1  0
 14 39  1  0
 15 40  1  0
 15 41  1  0
 16 42  1  0
 16 43  1  0
 18 44  1  0
 19 45  1  0
M  END
>  <meeko>  (1) 
{"is_sidechain": [false], "free_energy": -9.079, "intermolecular_energy": -12.263, "internal_energy": -0.683}

$$$$
ligand_79_conformer_5_docked
     RDKit          3D

 45 47  0  0  0  0  0  0  0  0999 V2000
    4.0200   46.7110   55.2720 C   0  0  0  0  0  0  0  0  0  0  0  0
    4.7400   45.8510   54.2320 C   0  0  2  0  0  0  0  0  0  0  0  0
    5.8830   46.6150   53.6180 C   0  0  0  0  0  0  0  0  0  0  0  0
    5.7690   47.8540   53.4130 O   0  0  0  0  0  0  0  0  0  0  0  0
    7.1160   45.9420   53.3190 N   0  0  0  0  0  0  0  0  0  0  0  0
    8.2780   46.6180   52.7200 C   0  0  0  0  0  0  0  0  0  0  0  0
    8.1610   46.7820   51.1840 C   0  0  0  0  0  0  0  0  0  0  0  0
    7.6480   45.5300   50.5150 C   0  0  0  0  0  0  0  0  0  0  0  0
    6.2940   45.1670   50.6150 C   0  0  0  0  0  0  0  0  0  0  0  0
    5.8330   43.9880   50.0200 C   0  0  0  0  0  0  0  0  0  0  0  0
    6.7190   43.1630   49.3220 C   0  0  0  0  0  0  0  0  0  0  0  0
    8.0660   43.5170   49.2140 C   0  0  0  0  0  0  0  0  0  0  0  0
    8.5300   44.6960   49.8040 C   0  0  0  0  0  0  0  0  0  0  0  0
    8.6490   47.9130   53.4630 C   0  0  0  0  0  0  0  0  0  0  0  0
    9.9610   47.2830   53.9090 C   0  0  0  0  0  0  0  0  0  0  0  0
    9.6070   45.9990   53.1740 C   0  0  0  0  0  0  0  0  0  0  0  0
    3.8090   45.3980   53.1950 N   0  0  0  0  0  0  0  0  0  0  0  0
    2.9810   46.1900   52.4860 C   0  0  0  0  0  0  0  0  0  0  0  0
    2.2000   45.3930   51.6750 C   0  0  0  0  0  0  0  0  0  0  0  0
    2.6210   44.1050   51.9510 C   0  0  0  0  0  0  0  0  0  0  0  0
    2.0250   42.8510   51.3940 C   0  0  0  0  0  0  0  0  0  0  0  0
    1.2100   42.2540   52.3400 F   0  0  0  0  0  0  0  0  0  0  0  0
    1.2740   43.1560   50.2760 F   0  0  0  0  0  0  0  0  0  0  0  0
    3.0290   41.9650   51.0430 F   0  0  0  0  0  0  0  0  0  0  0  0
    3.5830   44.1270   52.8940 N   0  0  0  0  0  0  0  0  0  0  0  0
    4.3001   46.3765   56.2818 H   0  0  0  0  0  0  0  0  0  0  0  0
    4.3097   47.7640   55.1411 H   0  0  0  0  0  0  0  0  0  0  0  0
    2.9324   46.6109   55.1411 H   0  0  0  0  0  0  0  0  0  0  0  0
    5.1449   44.9635   54.7403 H   0  0  0  0  0  0  0  0  0  0  0  0
    7.1950   44.9320   53.5750 H   0  0  0  0  0  0  0  0  0  0  0  0
    7.4683   47.6087   50.9676 H   0  0  0  0  0  0  0  0  0  0  0  0
    9.1665   46.9887   50.7886 H   0  0  0  0  0  0  0  0  0  0  0  0
    5.5933   45.8133   51.1639 H   0  0  0  0  0  0  0  0  0  0  0  0
    4.7719   43.7099   50.1016 H   0  0  0  0  0  0  0  0  0  0  0  0
    6.3556   42.2345   48.8574 H   0  0  0  0  0  0  0  0  0  0  0  0
    8.7624   42.8670   48.6639 H   0  0  0  0  0  0  0  0  0  0  0  0
    9.5905   44.9733   49.7119 H   0  0  0  0  0  0  0  0  0  0  0  0
    8.7711   48.7876   52.8071 H   0  0  0  0  0  0  0  0  0  0  0  0
    7.9602   48.3465   54.2030 H   0  0  0  0  0  0  0  0  0  0  0  0
   10.8561   47.7897   53.5189 H   0  0  0  0  0  0  0  0  0  0  0  0
   10.2261   47.2543   54.9762 H   0  0  0  0  0  0  0  0  0  0  0  0
   10.2912   45.7517   52.3490 H   0  0  0  0  0  0  0  0  0  0  0  0
    9.6176   45.0353   53.7043 H   0  0  0  0  0  0  0  0  0  0  0  0
    2.9355   47.2875   52.5441 H   0  0  0  0  0  0  0  0  0  0  0  0
    1.4189   45.7103   50.9685 H   0  0  0  0  0  0  0  0  0  0  0  0
  1  2  1  0
  2  3  1  0
  3  4  2  0
  3  5  1  0
  5  6  1  0
  6  7  1  0
  7  8  1  0
  8  9  2  0
  9 10  1  0
 10 11  2  0
 11 12  1  0
 12 13  2  0
  6 14  1  0
 14 15  1  0
 15 16  1  0
  2 17  1  0
 17 18  1  0
 18 19  2  0
 19 20  1  0
 20 21  1  0
 21 22  1  0
 21 23  1  0
 21 24  1  0
 20 25  2  0
 16  6  1  0
 25 17  1  0
 13  8  1  0
  1 26  1  0
  1 27  1  0
  1 28  1  0
  2 29  1  1
  5 30  1  0
  7 31  1  0
  7 32  1  0
  9 33  1  0
 10 34  1  0
 11 35  1  0
 12 36  1  0
 13 37  1  0
 14 38  1  0
 14 39  1  0
 15 40  1  0
 15 41  1  0
 16 42  1  0
 16 43  1  0
 18 44  1  0
 19 45  1  0
M  END
>  <meeko>  (2) 
{"is_sidechain": [false], "free_energy": -8.972, "intermolecular_energy": -12.305, "internal_energy": -0.497}

$$$$
ligand_79_conformer_5_docked
     RDKit          3D

 45 47  0  0  0  0  0  0  0  0999 V2000
    5.4440   44.9060   55.6410 C   0  0  0  0  0  0  0  0  0  0  0  0
    5.0180   46.1430   54.8460 C   0  0  2  0  0  0  0  0  0  0  0  0
    3.7910   45.8430   54.0260 C   0  0  0  0  0  0  0  0  0  0  0  0
    3.1500   46.7880   53.4910 O   0  0  0  0  0  0  0  0  0  0  0  0
    3.3880   44.4810   53.8120 N   0  0  0  0  0  0  0  0  0  0  0  0
    2.2030   44.1060   53.0230 C   0  0  0  0  0  0  0  0  0  0  0  0
    2.4290   44.2270   51.4950 C   0  0  0  0  0  0  0  0  0  0  0  0
    3.7160   43.5740   51.0560 C   0  0  0  0  0  0  0  0  0  0  0  0
    4.8530   44.3490   50.7710 C   0  0  0  0  0  0  0  0  0  0  0  0
    6.0330   43.7390   50.3320 C   0  0  0  0  0  0  0  0  0  0  0  0
    6.0870   42.3520   50.1740 C   0  0  0  0  0  0  0  0  0  0  0  0
    4.9630   41.5720   50.4590 C   0  0  0  0  0  0  0  0  0  0  0  0
    3.7830   42.1770   50.9010 C   0  0  0  0  0  0  0  0  0  0  0  0
    1.6070   42.7590   53.4650 C   0  0  0  0  0  0  0  0  0  0  0  0
    0.3540   43.4730   53.9530 C   0  0  0  0  0  0  0  0  0  0  0  0
    0.9320   44.8100   53.5150 C   0  0  0  0  0  0  0  0  0  0  0  0
    6.1090   46.6110   53.9870 N   0  0  0  0  0  0  0  0  0  0  0  0
    5.9620   47.1880   52.7780 C   0  0  0  0  0  0  0  0  0  0  0  0
    7.2130   47.4060   52.2410 C   0  0  0  0  0  0  0  0  0  0  0  0
    8.0870   46.9270   53.2000 C   0  0  0  0  0  0  0  0  0  0  0  0
    9.5740   46.8470   53.0670 C   0  0  0  0  0  0  0  0  0  0  0  0
   10.0010   45.5510   53.2990 F   0  0  0  0  0  0  0  0  0  0  0  0
    9.9430   47.2240   51.7900 F   0  0  0  0  0  0  0  0  0  0  0  0
   10.1770   47.6900   53.9840 F   0  0  0  0  0  0  0  0  0  0  0  0
    7.3960   46.4270   54.2430 N   0  0  0  0  0  0  0  0  0  0  0  0
    5.3707   45.1189   56.7177 H   0  0  0  0  0  0  0  0  0  0  0  0
    4.7845   44.0627   55.3883 H   0  0  0  0  0  0  0  0  0  0  0  0
    6.4829   44.6476   55.3883 H   0  0  0  0  0  0  0  0  0  0  0  0
    4.7754   46.9449   55.5588 H   0  0  0  0  0  0  0  0  0  0  0  0
    3.9910   43.7260   54.2100 H   0  0  0  0  0  0  0  0  0  0  0  0
    1.5902   43.7429   50.9734 H   0  0  0  0  0  0  0  0  0  0  0  0
    2.4911   45.2967   51.2464 H   0  0  0  0  0  0  0  0  0  0  0  0
    4.8150   45.4415   50.8938 H   0  0  0  0  0  0  0  0  0  0  0  0
    6.9192   44.3521   50.1110 H   0  0  0  0  0  0  0  0  0  0  0  0
    7.0142   41.8738   49.8253 H   0  0  0  0  0  0  0  0  0  0  0  0
    5.0070   40.4799   50.3353 H   0  0  0  0  0  0  0  0  0  0  0  0
    2.9026   41.5581   51.1288 H   0  0  0  0  0  0  0  0  0  0  0  0
    1.4294   42.0541   52.6394 H   0  0  0  0  0  0  0  0  0  0  0  0
    2.1687   42.0965   54.1400 H   0  0  0  0  0  0  0  0  0  0  0  0
   -0.5625   43.1847   53.4174 H   0  0  0  0  0  0  0  0  0  0  0  0
    0.0050   43.3333   54.9868 H   0  0  0  0  0  0  0  0  0  0  0  0
    0.3583   45.3072   52.7190 H   0  0  0  0  0  0  0  0  0  0  0  0
    1.0008   45.6449   54.2278 H   0  0  0  0  0  0  0  0  0  0  0  0
    5.0046   47.4424   52.2999 H   0  0  0  0  0  0  0  0  0  0  0  0
    7.4602   47.8586   51.2694 H   0  0  0  0  0  0  0  0  0  0  0  0
  1  2  1  0
  2  3  1  0
  3  4  2  0
  3  5  1  0
  5  6  1  0
  6  7  1  0
  7  8  1  0
  8  9  2  0
  9 10  1  0
 10 11  2  0
 11 12  1  0
 12 13  2  0
  6 14  1  0
 14 15  1  0
 15 16  1  0
  2 17  1  0
 17 18  1  0
 18 19  2  0
 19 20  1  0
 20 21  1  0
 21 22  1  0
 21 23  1  0
 21 24  1  0
 20 25  2  0
 16  6  1  0
 25 17  1  0
 13  8  1  0
  1 26  1  0
  1 27  1  0
  1 28  1  0
  2 29  1  1
  5 30  1  0
  7 31  1  0
  7 32  1  0
  9 33  1  0
 10 34  1  0
 11 35  1  0
 12 36  1  0
 13 37  1  0
 14 38  1  0
 14 39  1  0
 15 40  1  0
 15 41  1  0
 16 42  1  0
 16 43  1  0
 18 44  1  0
 19 45  1  0
M  END
>  <meeko>  (3) 
{"is_sidechain": [false], "free_energy": -8.867, "intermolecular_energy": -12.268, "internal_energy": -0.392}

$$$$
ligand_79_conformer_5_docked
     RDKit          3D

 45 47  0  0  0  0  0  0  0  0999 V2000
    2.0770   42.8500   50.8750 C   0  0  0  0  0  0  0  0  0  0  0  0
    3.3660   42.7770   51.6960 C   0  0  2  0  0  0  0  0  0  0  0  0
    3.5640   44.0490   52.4770 C   0  0  0  0  0  0  0  0  0  0  0  0
    2.6150   44.8740   52.5820 O   0  0  0  0  0  0  0  0  0  0  0  0
    4.8130   44.2940   53.1440 N   0  0  0  0  0  0  0  0  0  0  0  0
    5.0830   45.5100   53.9270 C   0  0  0  0  0  0  0  0  0  0  0  0
    5.6100   46.6830   53.0640 C   0  0  0  0  0  0  0  0  0  0  0  0
    7.1170   46.7680   53.0760 C   0  0  0  0  0  0  0  0  0  0  0  0
    7.8760   46.1930   52.0440 C   0  0  0  0  0  0  0  0  0  0  0  0
    9.2730   46.2470   52.0800 C   0  0  0  0  0  0  0  0  0  0  0  0
    9.9220   46.8750   53.1450 C   0  0  0  0  0  0  0  0  0  0  0  0
    9.1760   47.4540   54.1750 C   0  0  0  0  0  0  0  0  0  0  0  0
    7.7800   47.4050   54.1410 C   0  0  0  0  0  0  0  0  0  0  0  0
    3.9100   45.8860   54.8490 C   0  0  0  0  0  0  0  0  0  0  0  0
    4.7730   45.5940   56.0680 C   0  0  0  0  0  0  0  0  0  0  0  0
    5.9410   45.2230   55.1660 C   0  0  0  0  0  0  0  0  0  0  0  0
    4.5210   42.5200   50.8310 N   0  0  0  0  0  0  0  0  0  0  0  0
    4.9220   41.3090   50.3990 C   0  0  0  0  0  0  0  0  0  0  0  0
    6.0920   41.4630   49.6860 C   0  0  0  0  0  0  0  0  0  0  0  0
    6.3440   42.8230   49.7280 C   0  0  0  0  0  0  0  0  0  0  0  0
    7.5530   43.5070   49.1750 C   0  0  0  0  0  0  0  0  0  0  0  0
    8.6990   42.9620   49.7280 F   0  0  0  0  0  0  0  0  0  0  0  0
    7.5880   43.3400   47.8030 F   0  0  0  0  0  0  0  0  0  0  0  0
    7.5100   44.8580   49.4700 F   0  0  0  0  0  0  0  0  0  0  0  0
    5.3900   43.4440   50.4480 N   0  0  0  0  0  0  0  0  0  0  0  0
    1.2125   42.8990   51.5534 H   0  0  0  0  0  0  0  0  0  0  0  0
    2.0967   43.7485   50.2407 H   0  0  0  0  0  0  0  0  0  0  0  0
    1.9951   41.9551   50.2407 H   0  0  0  0  0  0  0  0  0  0  0  0
    3.2762   41.9408   52.4050 H   0  0  0  0  0  0  0  0  0  0  0  0
    5.5450   43.5500   53.0960 H   0  0  0  0  0  0  0  0  0  0  0  0
    5.2716   46.5399   52.0272 H   0  0  0  0  0  0  0  0  0  0  0  0
    5.2158   47.6181   53.4885 H   0  0  0  0  0  0  0  0  0  0  0  0
    7.3691   45.6975   51.2028 H   0  0  0  0  0  0  0  0  0  0  0  0
    9.8613   45.7942   51.2683 H   0  0  0  0  0  0  0  0  0  0  0  0
   11.0209   46.9139   53.1732 H   0  0  0  0  0  0  0  0  0  0  0  0
    9.6882   47.9488   55.0133 H   0  0  0  0  0  0  0  0  0  0  0  0
    7.1964   47.8668   54.9510 H   0  0  0  0  0  0  0  0  0  0  0  0
    3.5918   46.9356   54.7653 H   0  0  0  0  0  0  0  0  0  0  0  0
    2.9310   45.3985   54.7307 H   0  0  0  0  0  0  0  0  0  0  0  0
    4.9602   46.4716   56.7043 H   0  0  0  0  0  0  0  0  0  0  0  0
    4.4232   44.8901   56.8375 H   0  0  0  0  0  0  0  0  0  0  0  0
    6.8144   45.8836   55.2692 H   0  0  0  0  0  0  0  0  0  0  0  0
    6.4431   44.2510   55.2801 H   0  0  0  0  0  0  0  0  0  0  0  0
    4.4031   40.3569   50.5840 H   0  0  0  0  0  0  0  0  0  0  0  0
    6.6900   40.6813   49.1947 H   0  0  0  0  0  0  0  0  0  0  0  0
  1  2  1  0
  2  3  1  0
  3  4  2  0
  3  5  1  0
  5  6  1  0
  6  7  1  0
  7  8  1  0
  8  9  2  0
  9 10  1  0
 10 11  2  0
 11 12  1  0
 12 13  2  0
  6 14  1  0
 14 15  1  0
 15 16  1  0
  2 17  1  0
 17 18  1  0
 18 19  2  0
 19 20  1  0
 20 21  1  0
 21 22  1  0
 21 23  1  0
 21 24  1  0
 20 25  2  0
 16  6  1  0
 25 17  1  0
 13  8  1  0
  1 26  1  0
  1 27  1  0
  1 28  1  0
  2 29  1  1
  5 30  1  0
  7 31  1  0
  7 32  1  0
  9 33  1  0
 10 34  1  0
 11 35  1  0
 12 36  1  0
 13 37  1  0
 14 38  1  0
 14 39  1  0
 15 40  1  0
 15 41  1  0
 16 42  1  0
 16 43  1  0
 18 44  1  0
 19 45  1  0
M  END
>  <meeko>  (4) 
{"is_sidechain": [false], "free_energy": -8.575, "intermolecular_energy": -11.606, "internal_energy": -0.659}

$$$$
ligand_79_conformer_5_docked
     RDKit          3D

 45 47  0  0  0  0  0  0  0  0999 V2000
    1.6680   44.3840   51.1710 C   0  0  0  0  0  0  0  0  0  0  0  0
    1.3460   45.5600   52.0960 C   0  0  2  0  0  0  0  0  0  0  0  0
    2.6150   46.2090   52.5810 C   0  0  0  0  0  0  0  0  0  0  0  0
    2.6720   47.4640   52.6950 O   0  0  0  0  0  0  0  0  0  0  0  0
    3.7360   45.3960   52.9620 N   0  0  0  0  0  0  0  0  0  0  0  0
    5.0080   45.9540   53.4470 C   0  0  0  0  0  0  0  0  0  0  0  0
    5.6310   46.9830   52.4710 C   0  0  0  0  0  0  0  0  0  0  0  0
    7.1270   46.8270   52.3560 C   0  0  0  0  0  0  0  0  0  0  0  0
    7.9870   47.4800   53.2560 C   0  0  0  0  0  0  0  0  0  0  0  0
    9.3740   47.3570   53.1230 C   0  0  0  0  0  0  0  0  0  0  0  0
    9.9130   46.5840   52.0920 C   0  0  0  0  0  0  0  0  0  0  0  0
    9.0660   45.9270   51.1950 C   0  0  0  0  0  0  0  0  0  0  0  0
    7.6800   46.0450   51.3260 C   0  0  0  0  0  0  0  0  0  0  0  0
    4.9170   46.4440   54.9020 C   0  0  0  0  0  0  0  0  0  0  0  0
    5.8860   45.3520   55.3320 C   0  0  0  0  0  0  0  0  0  0  0  0
    5.9870   44.8610   53.8960 C   0  0  0  0  0  0  0  0  0  0  0  0
    0.5270   45.1220   53.2290 N   0  0  0  0  0  0  0  0  0  0  0  0
   -0.6740   44.5170   53.1410 C   0  0  0  0  0  0  0  0  0  0  0  0
   -1.1710   44.3420   54.4150 C   0  0  0  0  0  0  0  0  0  0  0  0
   -0.1970   44.8740   55.2410 C   0  0  0  0  0  0  0  0  0  0  0  0
   -0.2890   45.0120   56.7270 C   0  0  0  0  0  0  0  0  0  0  0  0
   -1.3010   44.2040   57.2150 F   0  0  0  0  0  0  0  0  0  0  0  0
    0.9110   44.6320   57.2990 F   0  0  0  0  0  0  0  0  0  0  0  0
   -0.5610   46.3260   57.0640 F   0  0  0  0  0  0  0  0  0  0  0  0
    0.8160   45.3630   54.5000 N   0  0  0  0  0  0  0  0  0  0  0  0
    1.9107   43.4977   51.7756 H   0  0  0  0  0  0  0  0  0  0  0  0
    0.7961   44.1673   50.5363 H   0  0  0  0  0  0  0  0  0  0  0  0
    2.5286   44.6417   50.5363 H   0  0  0  0  0  0  0  0  0  0  0  0
    0.7698   46.3018   51.5235 H   0  0  0  0  0  0  0  0  0  0  0  0
    3.6190   44.3580   52.9250 H   0  0  0  0  0  0  0  0  0  0  0  0
    5.1829   46.8437   51.4761 H   0  0  0  0  0  0  0  0  0  0  0  0
    5.4260   47.9892   52.8655 H   0  0  0  0  0  0  0  0  0  0  0  0
    7.5672   48.0907   54.0689 H   0  0  0  0  0  0  0  0  0  0  0  0
   10.0413   47.8698   53.8314 H   0  0  0  0  0  0  0  0  0  0  0  0
   11.0040   46.4923   51.9860 H   0  0  0  0  0  0  0  0  0  0  0  0
    9.4912   45.3163   50.3849 H   0  0  0  0  0  0  0  0  0  0  0  0
    7.0175   45.5234   50.6196 H   0  0  0  0  0  0  0  0  0  0  0  0
    5.2948   47.4655   55.0561 H   0  0  0  0  0  0  0  0  0  0  0  0
    3.9387   46.5451   55.3947 H   0  0  0  0  0  0  0  0  0  0  0  0
    6.8334   45.7309   55.7430 H   0  0  0  0  0  0  0  0  0  0  0  0
    5.6114   44.6545   56.1370 H   0  0  0  0  0  0  0  0  0  0  0  0
    6.9928   44.9537   53.4603 H   0  0  0  0  0  0  0  0  0  0  0  0
    5.7891   43.8061   53.6552 H   0  0  0  0  0  0  0  0  0  0  0  0
   -1.1738   44.2137   52.2092 H   0  0  0  0  0  0  0  0  0  0  0  0
   -2.1265   43.8829   54.7086 H   0  0  0  0  0  0  0  0  0  0  0  0
  1  2  1  0
  2  3  1  0
  3  4  2  0
  3  5  1  0
  5  6  1  0
  6  7  1  0
  7  8  1  0
  8  9  2  0
  9 10  1  0
 10 11  2  0
 11 12  1  0
 12 13  2  0
  6 14  1  0
 14 15  1  0
 15 16  1  0
  2 17  1  0
 17 18  1  0
 18 19  2  0
 19 20  1  0
 20 21  1  0
 21 22  1  0
 21 23  1  0
 21 24  1  0
 20 25  2  0
 16  6  1  0
 25 17  1  0
 13  8  1  0
  1 26  1  0
  1 27  1  0
  1 28  1  0
  2 29  1  6
  5 30  1  0
  7 31  1  0
  7 32  1  0
  9 33  1  0
 10 34  1  0
 11 35  1  0
 12 36  1  0
 13 37  1  0
 14 38  1  0
 14 39  1  0
 15 40  1  0
 15 41  1  0
 16 42  1  0
 16 43  1  0
 18 44  1  0
 19 45  1  0
M  END
>  <meeko>  (5) 
{"is_sidechain": [false], "free_energy": -8.42, "intermolecular_energy": -11.464, "internal_energy": -0.593}

$$$$
