ligand_12_conformer_1_docked
     RDKit          3D

 48 51  0  0  0  0  0  0  0  0999 V2000
   -2.9660   43.4720   56.7460 C   0  0  0  0  0  0  0  0  0  0  0  0
   -2.3610   44.1870   55.6750 O   0  0  0  0  0  0  0  0  0  0  0  0
   -1.0160   44.5650   55.6820 C   0  0  0  0  0  0  0  0  0  0  0  0
   -0.4390   45.0390   56.8810 C   0  0  0  0  0  0  0  0  0  0  0  0
    0.9110   45.4230   56.9050 C   0  0  0  0  0  0  0  0  0  0  0  0
    1.6480   45.3220   55.7280 C   0  0  0  0  0  0  0  0  0  0  0  0
    2.9570   45.6530   55.5950 N   0  0  0  0  0  0  0  0  0  0  0  0
    3.3750   45.4370   54.3210 C   0  0  0  0  0  0  0  0  0  0  0  0
    4.7110   45.6880   53.8650 N   0  0  0  0  0  0  0  0  0  0  0  0
    5.3950   46.9440   54.0440 C   0  0  0  0  0  0  0  0  0  0  0  0
    4.7740   47.9260   54.5350 O   0  0  0  0  0  0  0  0  0  0  0  0
    6.7810   47.1020   53.6570 N   0  0  0  0  0  0  0  0  0  0  0  0
    7.8310   46.9350   54.6770 C   0  0  0  0  0  0  0  0  0  0  0  0
    9.2040   47.3860   54.1910 C   0  0  0  0  0  0  0  0  0  0  0  0
    9.4930   46.7520   52.8410 C   0  0  0  0  0  0  0  0  0  0  0  0
    8.5210   47.2990   51.7870 C   0  0  1  0  0  0  0  0  0  0  0  0
    8.5560   46.4810   50.5640 N   0  0  0  0  0  0  0  0  0  0  0  0
    7.7640   45.3050   50.2840 C   0  0  0  0  0  0  0  0  0  0  0  0
    6.4390   45.1530   50.7450 C   0  0  0  0  0  0  0  0  0  0  0  0
    5.7100   43.9990   50.4410 C   0  0  0  0  0  0  0  0  0  0  0  0
    6.2880   42.9850   49.6750 C   0  0  0  0  0  0  0  0  0  0  0  0
    7.5970   43.1230   49.2100 C   0  0  0  0  0  0  0  0  0  0  0  0
    8.3300   44.2760   49.5110 C   0  0  0  0  0  0  0  0  0  0  0  0
    7.0650   47.5480   52.2770 C   0  0  0  0  0  0  0  0  0  0  0  0
    2.1460   44.8290   53.3190 S   0  0  0  0  0  0  0  0  0  0  0  0
    1.0440   44.8520   54.5800 C   0  0  0  0  0  0  0  0  0  0  0  0
   -0.2590   44.4790   54.5450 N   0  0  0  0  0  0  0  0  0  0  0  0
   -2.6176   43.8837   57.7047 H   0  0  0  0  0  0  0  0  0  0  0  0
   -4.0597   43.5699   56.6806 H   0  0  0  0  0  0  0  0  0  0  0  0
   -2.6884   42.4096   56.6806 H   0  0  0  0  0  0  0  0  0  0  0  0
   -1.0470   45.1072   57.7951 H   0  0  0  0  0  0  0  0  0  0  0  0
    1.3751   45.7944   57.8306 H   0  0  0  0  0  0  0  0  0  0  0  0
    5.1830   44.9110   53.3550 H   0  0  0  0  0  0  0  0  0  0  0  0
    7.5589   47.5289   55.5620 H   0  0  0  0  0  0  0  0  0  0  0  0
    7.8983   45.8622   54.9104 H   0  0  0  0  0  0  0  0  0  0  0  0
    9.2172   48.4815   54.0927 H   0  0  0  0  0  0  0  0  0  0  0  0
    9.9713   47.0753   54.9154 H   0  0  0  0  0  0  0  0  0  0  0  0
   10.5252   46.9865   52.5416 H   0  0  0  0  0  0  0  0  0  0  0  0
    9.3663   45.6621   52.9187 H   0  0  0  0  0  0  0  0  0  0  0  0
    8.8944   48.3080   51.5580 H   0  0  0  0  0  0  0  0  0  0  0  0
    9.2360   46.7860   49.8300 H   0  0  0  0  0  0  0  0  0  0  0  0
    5.9761   45.9481   51.3479 H   0  0  0  0  0  0  0  0  0  0  0  0
    4.6782   43.8899   50.8065 H   0  0  0  0  0  0  0  0  0  0  0  0
    5.7124   42.0780   49.4381 H   0  0  0  0  0  0  0  0  0  0  0  0
    8.0526   42.3243   48.6063 H   0  0  0  0  0  0  0  0  0  0  0  0
    9.3601   44.3786   49.1389 H   0  0  0  0  0  0  0  0  0  0  0  0
    6.8671   48.6286   52.2210 H   0  0  0  0  0  0  0  0  0  0  0  0
    6.4156   46.9481   51.6224 H   0  0  0  0  0  0  0  0  0  0  0  0
  1  2  1  0
  2  3  1  0
  3  4  2  0
  4  5  1  0
  5  6  2  0
  6  7  1  0
  7  8  2  0
  8  9  1  0
  9 10  1  0
 10 11  2  0
 10 12  1  0
 12 13  1  0
 13 14  1  0
 14 15  1  0
 15 16  1  0
 16 17  1  0
 17 18  1  0
 18 19  2  0
 19 20  1  0
 20 21  2  0
 21 22  1  0
 22 23  2  0
 16 24  1  0
  8 25  1  0
 25 26  1  0
 26 27  2  0
 27  3  1  0
 26  6  1  0
 24 12  1  0
 23 18  1  0
  1 28  1  0
  1 29  1  0
  1 30  1  0
  4 31  1  0
  5 32  1  0
  9 33  1  0
 13 34  1  0
 13 35  1  0
 14 36  1  0
 14 37  1  0
 15 38  1  0
 15 39  1  0
 16 40  1  6
 17 41  1  0
 19 42  1  0
 20 43  1  0
 21 44  1  0
 22 45  1  0
 23 46  1  0
 24 47  1  0
 24 48  1  0
M  END
>  <meeko>  (1) 
{"is_sidechain": [false], "free_energy": -9.307, "intermolecular_energy": -12.027, "internal_energy": -0.027}

$$$$
ligand_12_conformer_1_docked
     RDKit          3D

 48 51  0  0  0  0  0  0  0  0999 V2000
   -2.7890   47.8280   60.2510 C   0  0  0  0  0  0  0  0  0  0  0  0
   -3.4690   47.2020   59.1690 O   0  0  0  0  0  0  0  0  0  0  0  0
   -2.7980   46.5480   58.1320 C   0  0  0  0  0  0  0  0  0  0  0  0
   -3.5470   45.9610   57.0890 C   0  0  0  0  0  0  0  0  0  0  0  0
   -2.8890   45.2990   56.0400 C   0  0  0  0  0  0  0  0  0  0  0  0
   -1.4980   45.2440   56.0630 C   0  0  0  0  0  0  0  0  0  0  0  0
   -0.7240   44.6430   55.1250 N   0  0  0  0  0  0  0  0  0  0  0  0
    0.5910   44.7670   55.4420 C   0  0  0  0  0  0  0  0  0  0  0  0
    1.6590   44.2400   54.6440 N   0  0  0  0  0  0  0  0  0  0  0  0
    2.0370   44.7740   53.3600 C   0  0  0  0  0  0  0  0  0  0  0  0
    1.3450   45.6910   52.8390 O   0  0  0  0  0  0  0  0  0  0  0  0
    3.1920   44.2670   52.6500 N   0  0  0  0  0  0  0  0  0  0  0  0
    2.9970   43.2550   51.5980 C   0  0  0  0  0  0  0  0  0  0  0  0
    4.3060   42.6290   51.1290 C   0  0  0  0  0  0  0  0  0  0  0  0
    5.3020   43.7290   50.8050 C   0  0  0  0  0  0  0  0  0  0  0  0
    5.6820   44.4860   52.0860 C   0  0  1  0  0  0  0  0  0  0  0  0
    6.3780   45.7430   51.7660 N   0  0  0  0  0  0  0  0  0  0  0  0
    7.5760   46.2540   52.3910 C   0  0  0  0  0  0  0  0  0  0  0  0
    7.5990   46.7270   53.7210 C   0  0  0  0  0  0  0  0  0  0  0  0
    8.7860   47.2050   54.2840 C   0  0  0  0  0  0  0  0  0  0  0  0
    9.9640   47.2160   53.5350 C   0  0  0  0  0  0  0  0  0  0  0  0
    9.9570   46.7500   52.2190 C   0  0  0  0  0  0  0  0  0  0  0  0
    8.7720   46.2700   51.6510 C   0  0  0  0  0  0  0  0  0  0  0  0
    4.5290   44.7040   53.1070 C   0  0  0  0  0  0  0  0  0  0  0  0
    0.8410   45.6230   56.8870 S   0  0  0  0  0  0  0  0  0  0  0  0
   -0.8070   45.8330   57.1020 C   0  0  0  0  0  0  0  0  0  0  0  0
   -1.4320   46.4740   58.1200 N   0  0  0  0  0  0  0  0  0  0  0  0
   -3.1939   47.4552   61.2034 H   0  0  0  0  0  0  0  0  0  0  0  0
   -1.7154   47.5956   60.1930 H   0  0  0  0  0  0  0  0  0  0  0  0
   -2.9320   48.9171   60.1930 H   0  0  0  0  0  0  0  0  0  0  0  0
   -4.6453   46.0222   57.0982 H   0  0  0  0  0  0  0  0  0  0  0  0
   -3.4582   44.8355   55.2207 H   0  0  0  0  0  0  0  0  0  0  0  0
    2.1570   43.4060   55.0230 H   0  0  0  0  0  0  0  0  0  0  0  0
    2.3483   42.4589   51.9923 H   0  0  0  0  0  0  0  0  0  0  0  0
    2.5434   43.7605   50.7327 H   0  0  0  0  0  0  0  0  0  0  0  0
    4.7127   41.9882   51.9253 H   0  0  0  0  0  0  0  0  0  0  0  0
    4.1225   42.0222   50.2300 H   0  0  0  0  0  0  0  0  0  0  0  0
    6.2056   43.2839   50.3630 H   0  0  0  0  0  0  0  0  0  0  0  0
    4.8457   44.4313   50.0919 H   0  0  0  0  0  0  0  0  0  0  0  0
    6.3735   43.8142   52.6156 H   0  0  0  0  0  0  0  0  0  0  0  0
    5.9470   46.3240   51.0120 H   0  0  0  0  0  0  0  0  0  0  0  0
    6.6757   46.7194   54.3189 H   0  0  0  0  0  0  0  0  0  0  0  0
    8.7918   47.5736   55.3204 H   0  0  0  0  0  0  0  0  0  0  0  0
   10.8967   47.5914   53.9812 H   0  0  0  0  0  0  0  0  0  0  0  0
   10.8846   46.7603   51.6278 H   0  0  0  0  0  0  0  0  0  0  0  0
    8.7757   45.9012   50.6147 H   0  0  0  0  0  0  0  0  0  0  0  0
    4.7750   44.1458   54.0224 H   0  0  0  0  0  0  0  0  0  0  0  0
    4.4588   45.7910   53.2606 H   0  0  0  0  0  0  0  0  0  0  0  0
  1  2  1  0
  2  3  1  0
  3  4  2  0
  4  5  1  0
  5  6  2  0
  6  7  1  0
  7  8  2  0
  8  9  1  0
  9 10  1  0
 10 11  2  0
 10 12  1  0
 12 13  1  0
 13 14  1  0
 14 15  1  0
 15 16  1  0
 16 17  1  0
 17 18  1  0
 18 19  2  0
 19 20  1  0
 20 21  2  0
 21 22  1  0
 22 23  2  0
 16 24  1  0
  8 25  1  0
 25 26  1  0
 26 27  2  0
 27  3  1  0
 26  6  1  0
 24 12  1  0
 23 18  1  0
  1 28  1  0
  1 29  1  0
  1 30  1  0
  4 31  1  0
  5 32  1  0
  9 33  1  0
 13 34  1  0
 13 35  1  0
 14 36  1  0
 14 37  1  0
 15 38  1  0
 15 39  1  0
 16 40  1  1
 17 41  1  0
 19 42  1  0
 20 43  1  0
 21 44  1  0
 22 45  1  0
 23 46  1  0
 24 47  1  0
 24 48  1  0
M  END
>  <meeko>  (2) 
{"is_sidechain": [false], "free_energy": -9.07, "intermolecular_energy": -11.234, "internal_energy": -0.514}

$$$$
ligand_12_conformer_1_docked
     RDKit          3D

 48 51  0  0  0  0  0  0  0  0999 V2000
   -3.2650   45.6340   57.9810 C   0  0  0  0  0  0  0  0  0  0  0  0
   -2.3230   44.5750   57.8660 O   0  0  0  0  0  0  0  0  0  0  0  0
   -1.3980   44.4950   56.8210 C   0  0  0  0  0  0  0  0  0  0  0  0
   -1.7700   43.8570   55.6190 C   0  0  0  0  0  0  0  0  0  0  0  0
   -0.8530   43.7680   54.5590 C   0  0  0  0  0  0  0  0  0  0  0  0
    0.4120   44.3220   54.7320 C   0  0  0  0  0  0  0  0  0  0  0  0
    1.4020   44.3160   53.8050 N   0  0  0  0  0  0  0  0  0  0  0  0
    2.5100   44.9370   54.2860 C   0  0  0  0  0  0  0  0  0  0  0  0
    3.7250   45.0970   53.5410 N   0  0  0  0  0  0  0  0  0  0  0  0
    4.1730   46.3560   53.0000 C   0  0  0  0  0  0  0  0  0  0  0  0
    3.4270   47.3700   53.0850 O   0  0  0  0  0  0  0  0  0  0  0  0
    5.4600   46.4740   52.3500 N   0  0  0  0  0  0  0  0  0  0  0  0
    6.5360   47.2200   53.0240 C   0  0  0  0  0  0  0  0  0  0  0  0
    7.7320   47.4840   52.1160 C   0  0  0  0  0  0  0  0  0  0  0  0
    8.1530   46.1860   51.4490 C   0  0  0  0  0  0  0  0  0  0  0  0
    7.0500   45.7080   50.4930 C   0  0  1  0  0  0  0  0  0  0  0  0
    7.2770   44.3120   50.0850 N   0  0  0  0  0  0  0  0  0  0  0  0
    6.2950   43.2550   50.0280 C   0  0  0  0  0  0  0  0  0  0  0  0
    5.3050   43.0800   51.0180 C   0  0  0  0  0  0  0  0  0  0  0  0
    4.3710   42.0450   50.9140 C   0  0  0  0  0  0  0  0  0  0  0  0
    4.4080   41.1740   49.8250 C   0  0  0  0  0  0  0  0  0  0  0  0
    5.3800   41.3340   48.8360 C   0  0  0  0  0  0  0  0  0  0  0  0
    6.3160   42.3690   48.9360 C   0  0  0  0  0  0  0  0  0  0  0  0
    5.5900   45.9410   50.9770 C   0  0  0  0  0  0  0  0  0  0  0  0
    2.3030   45.5170   55.8690 S   0  0  0  0  0  0  0  0  0  0  0  0
    0.7320   44.9380   55.9250 C   0  0  0  0  0  0  0  0  0  0  0  0
   -0.1450   45.0300   56.9540 N   0  0  0  0  0  0  0  0  0  0  0  0
   -3.4522   45.8444   59.0443 H   0  0  0  0  0  0  0  0  0  0  0  0
   -2.8647   46.5353   57.4938 H   0  0  0  0  0  0  0  0  0  0  0  0
   -4.2068   45.3415   57.4938 H   0  0  0  0  0  0  0  0  0  0  0  0
   -2.7778   43.4294   55.5121 H   0  0  0  0  0  0  0  0  0  0  0  0
   -1.1276   43.2730   53.6159 H   0  0  0  0  0  0  0  0  0  0  0  0
    4.2840   44.2330   53.3710 H   0  0  0  0  0  0  0  0  0  0  0  0
    6.1339   48.1855   53.3648 H   0  0  0  0  0  0  0  0  0  0  0  0
    6.8886   46.6045   53.8647 H   0  0  0  0  0  0  0  0  0  0  0  0
    7.4537   48.2190   51.3464 H   0  0  0  0  0  0  0  0  0  0  0  0
    8.5673   47.8790   52.7129 H   0  0  0  0  0  0  0  0  0  0  0  0
    9.0808   46.3516   50.8818 H   0  0  0  0  0  0  0  0  0  0  0  0
    8.3206   45.4201   52.2205 H   0  0  0  0  0  0  0  0  0  0  0  0
    7.1387   46.3616   49.6127 H   0  0  0  0  0  0  0  0  0  0  0  0
    8.2590   44.0680   49.8180 H   0  0  0  0  0  0  0  0  0  0  0  0
    5.2678   43.7637   51.8789 H   0  0  0  0  0  0  0  0  0  0  0  0
    3.6049   41.9171   51.6929 H   0  0  0  0  0  0  0  0  0  0  0  0
    3.6712   40.3611   49.7456 H   0  0  0  0  0  0  0  0  0  0  0  0
    5.4100   40.6463   47.9780 H   0  0  0  0  0  0  0  0  0  0  0  0
    7.0772   42.4912   48.1514 H   0  0  0  0  0  0  0  0  0  0  0  0
    5.1128   46.6539   50.2885 H   0  0  0  0  0  0  0  0  0  0  0  0
    5.1098   44.9514   50.9867 H   0  0  0  0  0  0  0  0  0  0  0  0
  1  2  1  0
  2  3  1  0
  3  4  2  0
  4  5  1  0
  5  6  2  0
  6  7  1  0
  7  8  2  0
  8  9  1  0
  9 10  1  0
 10 11  2  0
 10 12  1  0
 12 13  1  0
 13 14  1  0
 14 15  1  0
 15 16  1  0
 16 17  1  0
 17 18  1  0
 18 19  2  0
 19 20  1  0
 20 21  2  0
 21 22  1  0
 22 23  2  0
 16 24  1  0
  8 25  1  0
 25 26  1  0
 26 27  2  0
 27  3  1  0
 26  6  1  0
 24 12  1  0
 23 18  1  0
  1 28  1  0
  1 29  1  0
  1 30  1  0
  4 31  1  0
  5 32  1  0
  9 33  1  0
 13 34  1  0
 13 35  1  0
 14 36  1  0
 14 37  1  0
 15 38  1  0
 15 39  1  0
 16 40  1  6
 17 41  1  0
 19 42  1  0
 20 43  1  0
 21 44  1  0
 22 45  1  0
 23 46  1  0
 24 47  1  0
 24 48  1  0
M  END
>  <meeko>  (3) 
{"is_sidechain": [false], "free_energy": -8.509, "intermolecular_energy": -10.947, "internal_energy": -0.076}

$$$$
ligand_12_conformer_1_docked
     RDKit          3D

 48 51  0  0  0  0  0  0  0  0999 V2000
   -3.5290   44.4000   57.2020 C   0  0  0  0  0  0  0  0  0  0  0  0
   -2.9440   45.2700   56.2400 O   0  0  0  0  0  0  0  0  0  0  0  0
   -1.6140   45.1540   55.8270 C   0  0  0  0  0  0  0  0  0  0  0  0
   -0.5810   45.3090   56.7760 C   0  0  0  0  0  0  0  0  0  0  0  0
    0.7610   45.1950   56.3780 C   0  0  0  0  0  0  0  0  0  0  0  0
    1.0320   44.9290   55.0380 C   0  0  0  0  0  0  0  0  0  0  0  0
    2.2700   44.7920   54.5040 N   0  0  0  0  0  0  0  0  0  0  0  0
    2.1900   44.5370   53.1720 C   0  0  0  0  0  0  0  0  0  0  0  0
    3.3290   44.3390   52.3250 N   0  0  0  0  0  0  0  0  0  0  0  0
    3.7950   43.0430   51.9000 C   0  0  0  0  0  0  0  0  0  0  0  0
    3.2510   42.0040   52.3650 O   0  0  0  0  0  0  0  0  0  0  0  0
    4.8860   42.9120   50.9590 N   0  0  0  0  0  0  0  0  0  0  0  0
    4.6940   42.0890   49.7520 C   0  0  0  0  0  0  0  0  0  0  0  0
    5.9950   41.8320   48.9990 C   0  0  0  0  0  0  0  0  0  0  0  0
    6.7230   43.1470   48.7870 C   0  0  0  0  0  0  0  0  0  0  0  0
    7.1760   43.7190   50.1390 C   0  0  1  0  0  0  0  0  0  0  0  0
    7.5870   45.1250   50.0030 N   0  0  0  0  0  0  0  0  0  0  0  0
    8.1340   45.9720   51.0370 C   0  0  0  0  0  0  0  0  0  0  0  0
    9.4870   45.9120   51.4350 C   0  0  0  0  0  0  0  0  0  0  0  0
    9.9710   46.7580   52.4360 C   0  0  0  0  0  0  0  0  0  0  0  0
    9.1190   47.6760   53.0530 C   0  0  0  0  0  0  0  0  0  0  0  0
    7.7790   47.7490   52.6690 C   0  0  0  0  0  0  0  0  0  0  0  0
    7.2900   46.9040   51.6670 C   0  0  0  0  0  0  0  0  0  0  0  0
    6.1870   43.5140   51.3220 C   0  0  0  0  0  0  0  0  0  0  0  0
    0.5880   44.4700   52.6120 S   0  0  0  0  0  0  0  0  0  0  0  0
   -0.0100   44.7840   54.1450 C   0  0  0  0  0  0  0  0  0  0  0  0
   -1.3090   44.8910   54.5190 N   0  0  0  0  0  0  0  0  0  0  0  0
   -3.2885   44.7577   58.2140 H   0  0  0  0  0  0  0  0  0  0  0  0
   -4.6207   44.3860   57.0678 H   0  0  0  0  0  0  0  0  0  0  0  0
   -3.1301   43.3837   57.0678 H   0  0  0  0  0  0  0  0  0  0  0  0
   -0.8270   45.5191   57.8274 H   0  0  0  0  0  0  0  0  0  0  0  0
    1.5772   45.3128   57.1060 H   0  0  0  0  0  0  0  0  0  0  0  0
    3.8490   45.1950   52.0340 H   0  0  0  0  0  0  0  0  0  0  0  0
    4.2639   41.1217   50.0509 H   0  0  0  0  0  0  0  0  0  0  0  0
    4.0243   42.6421   49.0770 H   0  0  0  0  0  0  0  0  0  0  0  0
    6.6300   41.1513   49.5851 H   0  0  0  0  0  0  0  0  0  0  0  0
    5.7710   41.3746   48.0240 H   0  0  0  0  0  0  0  0  0  0  0  0
    7.6033   42.9777   48.1494 H   0  0  0  0  0  0  0  0  0  0  0  0
    6.0433   43.8625   48.3010 H   0  0  0  0  0  0  0  0  0  0  0  0
    8.0493   43.1135   50.4232 H   0  0  0  0  0  0  0  0  0  0  0  0
    7.4580   45.5490   49.0560 H   0  0  0  0  0  0  0  0  0  0  0  0
   10.1659   45.1932   50.9530 H   0  0  0  0  0  0  0  0  0  0  0  0
   11.0269   46.7006   52.7390 H   0  0  0  0  0  0  0  0  0  0  0  0
    9.5032   48.3408   53.8407 H   0  0  0  0  0  0  0  0  0  0  0  0
    7.1068   48.4717   53.1547 H   0  0  0  0  0  0  0  0  0  0  0  0
    6.2333   46.9693   51.3685 H   0  0  0  0  0  0  0  0  0  0  0  0
    6.6712   42.8579   52.0603 H   0  0  0  0  0  0  0  0  0  0  0  0
    5.9608   44.5189   51.7079 H   0  0  0  0  0  0  0  0  0  0  0  0
  1  2  1  0
  2  3  1  0
  3  4  2  0
  4  5  1  0
  5  6  2  0
  6  7  1  0
  7  8  2  0
  8  9  1  0
  9 10  1  0
 10 11  2  0
 10 12  1  0
 12 13  1  0
 13 14  1  0
 14 15  1  0
 15 16  1  0
 16 17  1  0
 17 18  1  0
 18 19  2  0
 19 20  1  0
 20 21  2  0
 21 22  1  0
 22 23  2  0
 16 24  1  0
  8 25  1  0
 25 26  1  0
 26 27  2  0
 27  3  1  0
 26  6  1  0
 24 12  1  0
 23 18  1  0
  1 28  1  0
  1 29  1  0
  1 30  1  0
  4 31  1  0
  5 32  1  0
  9 33  1  0
 13 34  1  0
 13 35  1  0
 14 36  1  0
 14 37  1  0
 15 38  1  0
 15 39  1  0
 16 40  1  1
 17 41  1  0
 19 42  1  0
 20 43  1  0
 21 44  1  0
 22 45  1  0
 23 46  1  0
 24 47  1  0
 24 48  1  0
M  END
>  <meeko>  (4) 
{"is_sidechain": [false], "free_energy": -8.008, "intermolecular_energy": -9.761, "internal_energy": -0.614}

$$$$
ligand_12_conformer_1_docked
     RDKit          3D

 48 51  0  0  0  0  0  0  0  0999 V2000
   -1.2130   35.3120   43.0980 C   0  0  0  0  0  0  0  0  0  0  0  0
    0.0460   34.9900   43.6780 O   0  0  0  0  0  0  0  0  0  0  0  0
    0.6510   35.7810   44.6580 C   0  0  0  0  0  0  0  0  0  0  0  0
    0.4600   35.4590   46.0190 C   0  0  0  0  0  0  0  0  0  0  0  0
    1.0610   36.2440   47.0170 C   0  0  0  0  0  0  0  0  0  0  0  0
    1.8380   37.3300   46.6240 C   0  0  0  0  0  0  0  0  0  0  0  0
    2.4800   38.1770   47.4660 N   0  0  0  0  0  0  0  0  0  0  0  0
    3.1500   39.1290   46.7660 C   0  0  0  0  0  0  0  0  0  0  0  0
    3.9280   40.1690   47.3730 N   0  0  0  0  0  0  0  0  0  0  0  0
    3.9340   40.4420   48.7880 C   0  0  0  0  0  0  0  0  0  0  0  0
    3.1450   39.8140   49.5460 O   0  0  0  0  0  0  0  0  0  0  0  0
    4.8220   41.4340   49.3540 N   0  0  0  0  0  0  0  0  0  0  0  0
    5.9710   41.9020   48.5590 C   0  0  0  0  0  0  0  0  0  0  0  0
    6.9540   42.7370   49.3740 C   0  0  0  0  0  0  0  0  0  0  0  0
    6.1940   43.8150   50.1260 C   0  0  0  0  0  0  0  0  0  0  0  0
    5.2800   43.1730   51.1800 C   0  0  1  0  0  0  0  0  0  0  0  0
    4.3040   44.1480   51.6930 N   0  0  0  0  0  0  0  0  0  0  0  0
    4.5420   45.1740   52.6820 C   0  0  0  0  0  0  0  0  0  0  0  0
    4.0600   46.4930   52.5420 C   0  0  0  0  0  0  0  0  0  0  0  0
    4.3110   47.4490   53.5310 C   0  0  0  0  0  0  0  0  0  0  0  0
    5.0400   47.1060   54.6710 C   0  0  0  0  0  0  0  0  0  0  0  0
    5.5210   45.8050   54.8240 C   0  0  0  0  0  0  0  0  0  0  0  0
    5.2730   44.8450   53.8370 C   0  0  0  0  0  0  0  0  0  0  0  0
    4.5990   41.8390   50.7590 C   0  0  0  0  0  0  0  0  0  0  0  0
    2.9740   38.9550   45.0850 S   0  0  0  0  0  0  0  0  0  0  0  0
    1.9990   37.6070   45.2810 C   0  0  0  0  0  0  0  0  0  0  0  0
    1.4230   36.8560   44.3100 N   0  0  0  0  0  0  0  0  0  0  0  0
   -1.9469   35.4997   43.8956 H   0  0  0  0  0  0  0  0  0  0  0  0
   -1.1101   36.2127   42.4750 H   0  0  0  0  0  0  0  0  0  0  0  0
   -1.5552   34.4725   42.4750 H   0  0  0  0  0  0  0  0  0  0  0  0
   -0.1592   34.5937   46.2980 H   0  0  0  0  0  0  0  0  0  0  0  0
    0.9211   36.0065   48.0819 H   0  0  0  0  0  0  0  0  0  0  0  0
    4.4940   40.7640   46.7290 H   0  0  0  0  0  0  0  0  0  0  0  0
    6.5018   41.0255   48.1591 H   0  0  0  0  0  0  0  0  0  0  0  0
    5.5785   42.5433   47.7560 H   0  0  0  0  0  0  0  0  0  0  0  0
    7.4794   42.0895   50.0914 H   0  0  0  0  0  0  0  0  0  0  0  0
    7.6869   43.2049   48.7003 H   0  0  0  0  0  0  0  0  0  0  0  0
    6.9097   44.4856   50.6240 H   0  0  0  0  0  0  0  0  0  0  0  0
    5.5800   44.3874   49.4152 H   0  0  0  0  0  0  0  0  0  0  0  0
    5.9567   42.8745   51.9942 H   0  0  0  0  0  0  0  0  0  0  0  0
    3.3380   44.0780   51.3000 H   0  0  0  0  0  0  0  0  0  0  0  0
    3.4825   46.7711   51.6481 H   0  0  0  0  0  0  0  0  0  0  0  0
    3.9327   48.4748   53.4103 H   0  0  0  0  0  0  0  0  0  0  0  0
    5.2350   47.8602   55.4476 H   0  0  0  0  0  0  0  0  0  0  0  0
    6.0959   45.5339   55.7218 H   0  0  0  0  0  0  0  0  0  0  0  0
    5.6542   43.8213   53.9661 H   0  0  0  0  0  0  0  0  0  0  0  0
    4.9852   41.0399   51.4089 H   0  0  0  0  0  0  0  0  0  0  0  0
    3.5162   42.0036   50.8610 H   0  0  0  0  0  0  0  0  0  0  0  0
  1  2  1  0
  2  3  1  0
  3  4  2  0
  4  5  1  0
  5  6  2  0
  6  7  1  0
  7  8  2  0
  8  9  1  0
  9 10  1  0
 10 11  2  0
 10 12  1  0
 12 13  1  0
 13 14  1  0
 14 15  1  0
 15 16  1  0
 16 17  1  0
 17 18  1  0
 18 19  2  0
 19 20  1  0
 20 21  2  0
 21 22  1  0
 22 23  2  0
 16 24  1  0
  8 25  1  0
 25 26  1  0
 26 27  2  0
 27  3  1  0
 26  6  1  0
 24 12  1  0
 23 18  1  0
  1 28  1  0
  1 29  1  0
  1 30  1  0
  4 31  1  0
  5 32  1  0
  9 33  1  0
 13 34  1  0
 13 35  1  0
 14 36  1  0
 14 37  1  0
 15 38  1  0
 15 39  1  0
 16 40  1  1
 17 41  1  0
 19 42  1  0
 20 43  1  0
 21 44  1  0
 22 45  1  0
 23 46  1  0
 24 47  1  0
 24 48  1  0
M  END
>  <meeko>  (5) 
{"is_sidechain": [false], "free_energy": -7.421, "intermolecular_energy": -9.558, "internal_energy": -0.059}

$$$$
