ligand_12_conformer_3_docked
     RDKit          3D

 48 51  0  0  0  0  0  0  0  0999 V2000
   -1.9540   47.3730   58.2440 C   0  0  0  0  0  0  0  0  0  0  0  0
   -2.1480   46.0140   57.8700 O   0  0  0  0  0  0  0  0  0  0  0  0
   -1.3940   45.3900   56.8730 C   0  0  0  0  0  0  0  0  0  0  0  0
   -2.0130   44.4360   56.0370 C   0  0  0  0  0  0  0  0  0  0  0  0
   -1.2690   43.7960   55.0320 C   0  0  0  0  0  0  0  0  0  0  0  0
    0.0750   44.1320   54.8910 C   0  0  0  0  0  0  0  0  0  0  0  0
    0.9230   43.5980   53.9760 N   0  0  0  0  0  0  0  0  0  0  0  0
    2.1630   44.1370   54.0970 C   0  0  0  0  0  0  0  0  0  0  0  0
    3.2610   43.7070   53.2800 N   0  0  0  0  0  0  0  0  0  0  0  0
    3.1200   43.1470   51.9660 C   0  0  0  0  0  0  0  0  0  0  0  0
    2.0250   42.6270   51.6140 O   0  0  0  0  0  0  0  0  0  0  0  0
    4.2430   43.1230   51.0650 N   0  0  0  0  0  0  0  0  0  0  0  0
    4.4540   41.9740   50.1760 C   0  0  0  0  0  0  0  0  0  0  0  0
    5.9510   41.6640   50.0620 C   0  0  0  0  0  0  0  0  0  0  0  0
    6.7470   42.9220   49.6910 C   0  0  0  0  0  0  0  0  0  0  0  0
    6.4950   44.0500   50.7100 C   0  0  1  0  0  0  0  0  0  0  0  0
    7.2400   45.2580   50.3310 N   0  0  0  0  0  0  0  0  0  0  0  0
    8.0140   46.0610   51.2460 C   0  0  0  0  0  0  0  0  0  0  0  0
    7.4580   47.1540   51.9430 C   0  0  0  0  0  0  0  0  0  0  0  0
    8.2440   47.9060   52.8220 C   0  0  0  0  0  0  0  0  0  0  0  0
    9.5860   47.5760   53.0220 C   0  0  0  0  0  0  0  0  0  0  0  0
   10.1460   46.4930   52.3430 C   0  0  0  0  0  0  0  0  0  0  0  0
    9.3660   45.7380   51.4620 C   0  0  0  0  0  0  0  0  0  0  0  0
    4.9900   44.3540   50.7790 C   0  0  0  0  0  0  0  0  0  0  0  0
    2.2580   45.2790   55.3560 S   0  0  0  0  0  0  0  0  0  0  0  0
    0.6380   45.0720   55.7300 C   0  0  0  0  0  0  0  0  0  0  0  0
   -0.0700   45.6930   56.7050 N   0  0  0  0  0  0  0  0  0  0  0  0
   -1.9425   47.4533   59.3410 H   0  0  0  0  0  0  0  0  0  0  0  0
   -0.9956   47.7312   57.8401 H   0  0  0  0  0  0  0  0  0  0  0  0
   -2.7739   47.9851   57.8401 H   0  0  0  0  0  0  0  0  0  0  0  0
   -3.0774   44.1938   56.1724 H   0  0  0  0  0  0  0  0  0  0  0  0
   -1.7359   43.0488   54.3735 H   0  0  0  0  0  0  0  0  0  0  0  0
    4.2210   43.7860   53.6850 H   0  0  0  0  0  0  0  0  0  0  0  0
    3.9309   41.0969   50.5847 H   0  0  0  0  0  0  0  0  0  0  0  0
    4.0590   42.2138   49.1778 H   0  0  0  0  0  0  0  0  0  0  0  0
    6.3134   41.2808   51.0273 H   0  0  0  0  0  0  0  0  0  0  0  0
    6.0939   40.9132   49.2708 H   0  0  0  0  0  0  0  0  0  0  0  0
    7.8199   42.6795   49.6796 H   0  0  0  0  0  0  0  0  0  0  0  0
    6.4211   43.2650   48.6979 H   0  0  0  0  0  0  0  0  0  0  0  0
    6.8445   43.7236   51.7006 H   0  0  0  0  0  0  0  0  0  0  0  0
    7.1950   45.5720   49.3330 H   0  0  0  0  0  0  0  0  0  0  0  0
    6.4001   47.4164   51.7944 H   0  0  0  0  0  0  0  0  0  0  0  0
    7.8037   48.7601   53.3575 H   0  0  0  0  0  0  0  0  0  0  0  0
   10.2014   48.1693   53.7143 H   0  0  0  0  0  0  0  0  0  0  0  0
   11.2030   46.2329   52.5013 H   0  0  0  0  0  0  0  0  0  0  0  0
    9.8135   44.8837   50.9330 H   0  0  0  0  0  0  0  0  0  0  0  0
    4.8025   45.0878   51.5767 H   0  0  0  0  0  0  0  0  0  0  0  0
    4.6587   44.7618   49.8126 H   0  0  0  0  0  0  0  0  0  0  0  0
  1  2  1  0
  2  3  1  0
  3  4  2  0
  4  5  1  0
  5  6  2  0
  6  7  1  0
  7  8  2  0
  8  9  1  0
  9 10  1  0
 10 11  2  0
 10 12  1  0
 12 13  1  0
 13 14  1  0
 14 15  1  0
 15 16  1  0
 16 17  1  0
 17 18  1  0
 18 19  2  0
 19 20  1  0
 20 21  2  0
 21 22  1  0
 22 23  2  0
 16 24  1  0
  8 25  1  0
 25 26  1  0
 26 27  2  0
 27  3  1  0
 26  6  1  0
 24 12  1  0
 23 18  1  0
  1 28  1  0
  1 29  1  0
  1 30  1  0
  4 31  1  0
  5 32  1  0
  9 33  1  0
 13 34  1  0
 13 35  1  0
 14 36  1  0
 14 37  1  0
 15 38  1  0
 15 39  1  0
 16 40  1  1
 17 41  1  0
 19 42  1  0
 20 43  1  0
 21 44  1  0
 22 45  1  0
 23 46  1  0
 24 47  1  0
 24 48  1  0
M  END
>  <meeko>  (1) 
{"is_sidechain": [false], "free_energy": -9.11, "intermolecular_energy": -11.773, "internal_energy": -0.191}

$$$$
ligand_12_conformer_3_docked
     RDKit          3D

 48 51  0  0  0  0  0  0  0  0999 V2000
   -2.9170   47.7540   59.5630 C   0  0  0  0  0  0  0  0  0  0  0  0
   -2.9690   46.3900   59.1640 O   0  0  0  0  0  0  0  0  0  0  0  0
   -2.4700   45.9410   57.9380 C   0  0  0  0  0  0  0  0  0  0  0  0
   -3.3730   45.5210   56.9380 C   0  0  0  0  0  0  0  0  0  0  0  0
   -2.8880   45.0640   55.7020 C   0  0  0  0  0  0  0  0  0  0  0  0
   -1.5100   45.0430   55.5010 C   0  0  0  0  0  0  0  0  0  0  0  0
   -0.8920   44.6230   54.3680 N   0  0  0  0  0  0  0  0  0  0  0  0
    0.4560   44.7290   54.4900 C   0  0  0  0  0  0  0  0  0  0  0  0
    1.3480   44.3020   53.4500 N   0  0  0  0  0  0  0  0  0  0  0  0
    2.0210   45.1930   52.5470 C   0  0  0  0  0  0  0  0  0  0  0  0
    1.5660   46.3530   52.3450 O   0  0  0  0  0  0  0  0  0  0  0  0
    3.1830   44.7480   51.8220 N   0  0  0  0  0  0  0  0  0  0  0  0
    3.1780   43.4470   51.1420 C   0  0  0  0  0  0  0  0  0  0  0  0
    4.5470   42.7730   51.2810 C   0  0  0  0  0  0  0  0  0  0  0  0
    5.6750   43.7220   50.8530 C   0  0  0  0  0  0  0  0  0  0  0  0
    5.6230   45.0340   51.6580 C   0  0  1  0  0  0  0  0  0  0  0  0
    6.6880   45.9460   51.2200 N   0  0  0  0  0  0  0  0  0  0  0  0
    7.7970   46.3610   52.0430 C   0  0  0  0  0  0  0  0  0  0  0  0
    9.1380   46.1960   51.6370 C   0  0  0  0  0  0  0  0  0  0  0  0
   10.1840   46.6140   52.4650 C   0  0  0  0  0  0  0  0  0  0  0  0
    9.9100   47.2040   53.7000 C   0  0  0  0  0  0  0  0  0  0  0  0
    8.5880   47.3780   54.1110 C   0  0  0  0  0  0  0  0  0  0  0  0
    7.5370   46.9620   53.2880 C   0  0  0  0  0  0  0  0  0  0  0  0
    4.2480   45.6970   51.4740 C   0  0  0  0  0  0  0  0  0  0  0  0
    0.9300   45.3260   56.0120 S   0  0  0  0  0  0  0  0  0  0  0  0
   -0.6640   45.4640   56.5070 C   0  0  0  0  0  0  0  0  0  0  0  0
   -1.1220   45.9050   57.7050 N   0  0  0  0  0  0  0  0  0  0  0  0
   -2.9147   47.8149   60.6613 H   0  0  0  0  0  0  0  0  0  0  0  0
   -2.0006   48.2169   59.1682 H   0  0  0  0  0  0  0  0  0  0  0  0
   -3.7955   48.2853   59.1682 H   0  0  0  0  0  0  0  0  0  0  0  0
   -4.4563   45.5516   57.1267 H   0  0  0  0  0  0  0  0  0  0  0  0
   -3.5785   44.7312   54.9130 H   0  0  0  0  0  0  0  0  0  0  0  0
    1.4930   43.2740   53.3320 H   0  0  0  0  0  0  0  0  0  0  0  0
    2.4085   42.8037   51.5937 H   0  0  0  0  0  0  0  0  0  0  0  0
    2.9596   43.6002   50.0748 H   0  0  0  0  0  0  0  0  0  0  0  0
    4.7000   42.4833   52.3311 H   0  0  0  0  0  0  0  0  0  0  0  0
    4.5687   41.8873   50.6290 H   0  0  0  0  0  0  0  0  0  0  0  0
    6.6440   43.2311   51.0262 H   0  0  0  0  0  0  0  0  0  0  0  0
    5.5500   43.9586   49.7860 H   0  0  0  0  0  0  0  0  0  0  0  0
    5.7765   44.8072   52.7234 H   0  0  0  0  0  0  0  0  0  0  0  0
    6.6340   46.3370   50.2510 H   0  0  0  0  0  0  0  0  0  0  0  0
    9.3618   45.7358   50.6633 H   0  0  0  0  0  0  0  0  0  0  0  0
   11.2266   46.4775   52.1421 H   0  0  0  0  0  0  0  0  0  0  0  0
   10.7357   47.5315   54.3488 H   0  0  0  0  0  0  0  0  0  0  0  0
    8.3723   47.8432   55.0841 H   0  0  0  0  0  0  0  0  0  0  0  0
    6.4973   47.1060   53.6171 H   0  0  0  0  0  0  0  0  0  0  0  0
    4.1782   46.5788   52.1278 H   0  0  0  0  0  0  0  0  0  0  0  0
    4.1314   46.0017   50.4235 H   0  0  0  0  0  0  0  0  0  0  0  0
  1  2  1  0
  2  3  1  0
  3  4  2  0
  4  5  1  0
  5  6  2  0
  6  7  1  0
  7  8  2  0
  8  9  1  0
  9 10  1  0
 10 11  2  0
 10 12  1  0
 12 13  1  0
 13 14  1  0
 14 15  1  0
 15 16  1  0
 16 17  1  0
 17 18  1  0
 18 19  2  0
 19 20  1  0
 20 21  2  0
 21 22  1  0
 22 23  2  0
 16 24  1  0
  8 25  1  0
 25 26  1  0
 26 27  2  0
 27  3  1  0
 26  6  1  0
 24 12  1  0
 23 18  1  0
  1 28  1  0
  1 29  1  0
  1 30  1  0
  4 31  1  0
  5 32  1  0
  9 33  1  0
 13 34  1  0
 13 35  1  0
 14 36  1  0
 14 37  1  0
 15 38  1  0
 15 39  1  0
 16 40  1  1
 17 41  1  0
 19 42  1  0
 20 43  1  0
 21 44  1  0
 22 45  1  0
 23 46  1  0
 24 47  1  0
 24 48  1  0
M  END
>  <meeko>  (2) 
{"is_sidechain": [false], "free_energy": -8.855, "intermolecular_energy": -11.021, "internal_energy": -0.614}

$$$$
ligand_12_conformer_3_docked
     RDKit          3D

 48 51  0  0  0  0  0  0  0  0999 V2000
    2.7550   37.9990   42.0000 C   0  0  0  0  0  0  0  0  0  0  0  0
    2.3290   37.2630   43.1400 O   0  0  0  0  0  0  0  0  0  0  0  0
    2.4980   37.7280   44.4470 C   0  0  0  0  0  0  0  0  0  0  0  0
    2.0410   36.9380   45.5230 C   0  0  0  0  0  0  0  0  0  0  0  0
    2.2000   37.3920   46.8430 C   0  0  0  0  0  0  0  0  0  0  0  0
    2.8160   38.6240   47.0480 C   0  0  0  0  0  0  0  0  0  0  0  0
    3.0340   39.1980   48.2580 N   0  0  0  0  0  0  0  0  0  0  0  0
    3.6560   40.3960   48.1160 C   0  0  0  0  0  0  0  0  0  0  0  0
    3.9570   41.2330   49.2410 N   0  0  0  0  0  0  0  0  0  0  0  0
    5.2820   41.6410   49.6140 C   0  0  0  0  0  0  0  0  0  0  0  0
    6.2810   40.9730   49.2300 O   0  0  0  0  0  0  0  0  0  0  0  0
    5.4740   42.7800   50.4740 N   0  0  0  0  0  0  0  0  0  0  0  0
    4.7700   42.8640   51.7590 C   0  0  0  0  0  0  0  0  0  0  0  0
    4.3310   44.3070   52.0280 C   0  0  0  0  0  0  0  0  0  0  0  0
    5.5080   45.2790   51.8720 C   0  0  0  0  0  0  0  0  0  0  0  0
    6.1450   45.1490   50.4750 C   0  0  1  0  0  0  0  0  0  0  0  0
    7.2880   46.0620   50.3460 N   0  0  0  0  0  0  0  0  0  0  0  0
    8.1410   46.4630   51.4380 C   0  0  0  0  0  0  0  0  0  0  0  0
    7.7790   47.4900   52.3370 C   0  0  0  0  0  0  0  0  0  0  0  0
    8.6350   47.8470   53.3840 C   0  0  0  0  0  0  0  0  0  0  0  0
    9.8520   47.1850   53.5520 C   0  0  0  0  0  0  0  0  0  0  0  0
   10.2180   46.1640   52.6750 C   0  0  0  0  0  0  0  0  0  0  0  0
    9.3670   45.8030   51.6250 C   0  0  0  0  0  0  0  0  0  0  0  0
    6.5980   43.6970   50.2500 C   0  0  0  0  0  0  0  0  0  0  0  0
    3.9380   40.7960   46.4860 S   0  0  0  0  0  0  0  0  0  0  0  0
    3.2490   39.3610   45.9640 C   0  0  0  0  0  0  0  0  0  0  0  0
    3.0980   38.9340   44.6860 N   0  0  0  0  0  0  0  0  0  0  0  0
    3.2813   38.9082   42.3262 H   0  0  0  0  0  0  0  0  0  0  0  0
    3.4339   37.3791   41.3960 H   0  0  0  0  0  0  0  0  0  0  0  0
    1.8793   38.2789   41.3960 H   0  0  0  0  0  0  0  0  0  0  0  0
    1.5607   35.9677   45.3286 H   0  0  0  0  0  0  0  0  0  0  0  0
    1.8469   36.7896   47.6930 H   0  0  0  0  0  0  0  0  0  0  0  0
    3.1570   41.5420   49.8390 H   0  0  0  0  0  0  0  0  0  0  0  0
    3.8833   42.2136   51.7308 H   0  0  0  0  0  0  0  0  0  0  0  0
    5.4482   42.5394   52.5619 H   0  0  0  0  0  0  0  0  0  0  0  0
    3.5409   44.5815   51.3136 H   0  0  0  0  0  0  0  0  0  0  0  0
    3.9574   44.3725   53.0605 H   0  0  0  0  0  0  0  0  0  0  0  0
    5.1457   46.3086   52.0085 H   0  0  0  0  0  0  0  0  0  0  0  0
    6.2679   45.0363   52.6294 H   0  0  0  0  0  0  0  0  0  0  0  0
    5.3983   45.4188   49.7137 H   0  0  0  0  0  0  0  0  0  0  0  0
    7.4920   46.4660   49.4020 H   0  0  0  0  0  0  0  0  0  0  0  0
    6.8187   48.0120   52.2133 H   0  0  0  0  0  0  0  0  0  0  0  0
    8.3481   48.6518   54.0769 H   0  0  0  0  0  0  0  0  0  0  0  0
   10.5229   47.4685   54.3764 H   0  0  0  0  0  0  0  0  0  0  0  0
   11.1769   45.6420   52.8092 H   0  0  0  0  0  0  0  0  0  0  0  0
    9.6606   44.9946   50.9392 H   0  0  0  0  0  0  0  0  0  0  0  0
    6.9599   43.5842   49.2174 H   0  0  0  0  0  0  0  0  0  0  0  0
    7.4060   43.4572   50.9568 H   0  0  0  0  0  0  0  0  0  0  0  0
  1  2  1  0
  2  3  1  0
  3  4  2  0
  4  5  1  0
  5  6  2  0
  6  7  1  0
  7  8  2  0
  8  9  1  0
  9 10  1  0
 10 11  2  0
 10 12  1  0
 12 13  1  0
 13 14  1  0
 14 15  1  0
 15 16  1  0
 16 17  1  0
 17 18  1  0
 18 19  2  0
 19 20  1  0
 20 21  2  0
 21 22  1  0
 22 23  2  0
 16 24  1  0
  8 25  1  0
 25 26  1  0
 26 27  2  0
 27  3  1  0
 26  6  1  0
 24 12  1  0
 23 18  1  0
  1 28  1  0
  1 29  1  0
  1 30  1  0
  4 31  1  0
  5 32  1  0
  9 33  1  0
 13 34  1  0
 13 35  1  0
 14 36  1  0
 14 37  1  0
 15 38  1  0
 15 39  1  0
 16 40  1  6
 17 41  1  0
 19 42  1  0
 20 43  1  0
 21 44  1  0
 22 45  1  0
 23 46  1  0
 24 47  1  0
 24 48  1  0
M  END
>  <meeko>  (3) 
{"is_sidechain": [false], "free_energy": -8.289, "intermolecular_energy": -10.487, "internal_energy": -0.417}

$$$$
ligand_12_conformer_3_docked
     RDKit          3D

 48 51  0  0  0  0  0  0  0  0999 V2000
   10.7010   47.6030   56.0690 C   0  0  0  0  0  0  0  0  0  0  0  0
   10.6910   47.4990   54.6510 O   0  0  0  0  0  0  0  0  0  0  0  0
    9.5700   47.0770   53.9310 C   0  0  0  0  0  0  0  0  0  0  0  0
    9.6640   46.9380   52.5300 C   0  0  0  0  0  0  0  0  0  0  0  0
    8.5450   46.5190   51.7910 C   0  0  0  0  0  0  0  0  0  0  0  0
    7.3640   46.2480   52.4770 C   0  0  0  0  0  0  0  0  0  0  0  0
    6.2020   45.8430   51.9040 N   0  0  0  0  0  0  0  0  0  0  0  0
    5.2410   45.6630   52.8450 C   0  0  0  0  0  0  0  0  0  0  0  0
    3.9010   45.2840   52.4980 N   0  0  0  0  0  0  0  0  0  0  0  0
    3.4890   43.9380   52.2160 C   0  0  0  0  0  0  0  0  0  0  0  0
    4.3410   43.0770   51.8600 O   0  0  0  0  0  0  0  0  0  0  0  0
    2.0960   43.5780   52.2820 N   0  0  0  0  0  0  0  0  0  0  0  0
    1.4330   42.9730   51.1210 C   0  0  0  0  0  0  0  0  0  0  0  0
    0.0030   43.5080   50.9920 C   0  0  0  0  0  0  0  0  0  0  0  0
   -0.7590   43.3700   52.3160 C   0  0  0  0  0  0  0  0  0  0  0  0
   -0.0070   44.0790   53.4590 C   0  0  1  0  0  0  0  0  0  0  0  0
   -0.7310   43.9160   54.7260 N   0  0  0  0  0  0  0  0  0  0  0  0
   -0.8620   44.9440   55.7300 C   0  0  0  0  0  0  0  0  0  0  0  0
   -2.0940   45.5760   56.0020 C   0  0  0  0  0  0  0  0  0  0  0  0
   -2.1770   46.5680   56.9840 C   0  0  0  0  0  0  0  0  0  0  0  0
   -1.0430   46.9360   57.7090 C   0  0  0  0  0  0  0  0  0  0  0  0
    0.1800   46.3140   57.4540 C   0  0  0  0  0  0  0  0  0  0  0  0
    0.2710   45.3220   56.4730 C   0  0  0  0  0  0  0  0  0  0  0  0
    1.4110   43.4990   53.5780 C   0  0  0  0  0  0  0  0  0  0  0  0
    5.7890   46.0200   54.4160 S   0  0  0  0  0  0  0  0  0  0  0  0
    7.3190   46.3960   53.8480 C   0  0  0  0  0  0  0  0  0  0  0  0
    8.3920   46.8030   54.5710 N   0  0  0  0  0  0  0  0  0  0  0  0
   10.6046   46.6003   56.5109 H   0  0  0  0  0  0  0  0  0  0  0  0
   11.6471   48.0586   56.3966 H   0  0  0  0  0  0  0  0  0  0  0  0
    9.8591   48.2306   56.3966 H   0  0  0  0  0  0  0  0  0  0  0  0
   10.6121   47.1574   52.0171 H   0  0  0  0  0  0  0  0  0  0  0  0
    8.6005   46.4078   50.6980 H   0  0  0  0  0  0  0  0  0  0  0  0
    3.1900   46.0460   52.4230 H   0  0  0  0  0  0  0  0  0  0  0  0
    1.9975   43.2207   50.2099 H   0  0  0  0  0  0  0  0  0  0  0  0
    1.3980   41.8818   51.2551 H   0  0  0  0  0  0  0  0  0  0  0  0
    0.0409   44.5701   50.7082 H   0  0  0  0  0  0  0  0  0  0  0  0
   -0.5219   42.9213   50.2237 H   0  0  0  0  0  0  0  0  0  0  0  0
   -1.7562   43.8212   52.2065 H   0  0  0  0  0  0  0  0  0  0  0  0
   -0.8461   42.3014   52.5620 H   0  0  0  0  0  0  0  0  0  0  0  0
    0.0590   45.1537   53.2340 H   0  0  0  0  0  0  0  0  0  0  0  0
   -1.1690   42.9870   54.9280 H   0  0  0  0  0  0  0  0  0  0  0  0
   -2.9935   45.2869   55.4387 H   0  0  0  0  0  0  0  0  0  0  0  0
   -3.1399   47.0601   57.1857 H   0  0  0  0  0  0  0  0  0  0  0  0
   -1.1130   47.7162   58.4813 H   0  0  0  0  0  0  0  0  0  0  0  0
    1.0737   46.6047   58.0257 H   0  0  0  0  0  0  0  0  0  0  0  0
    1.2372   44.8328   56.2805 H   0  0  0  0  0  0  0  0  0  0  0  0
    1.9780   44.0734   54.3254 H   0  0  0  0  0  0  0  0  0  0  0  0
    1.3455   42.4457   53.8883 H   0  0  0  0  0  0  0  0  0  0  0  0
  1  2  1  0
  2  3  1  0
  3  4  2  0
  4  5  1  0
  5  6  2  0
  6  7  1  0
  7  8  2  0
  8  9  1  0
  9 10  1  0
 10 11  2  0
 10 12  1  0
 12 13  1  0
 13 14  1  0
 14 15  1  0
 15 16  1  0
 16 17  1  0
 17 18  1  0
 18 19  2  0
 19 20  1  0
 20 21  2  0
 21 22  1  0
 22 23  2  0
 16 24  1  0
  8 25  1  0
 25 26  1  0
 26 27  2  0
 27  3  1  0
 26  6  1  0
 24 12  1  0
 23 18  1  0
  1 28  1  0
  1 29  1  0
  1 30  1  0
  4 31  1  0
  5 32  1  0
  9 33  1  0
 13 34  1  0
 13 35  1  0
 14 36  1  0
 14 37  1  0
 15 38  1  0
 15 39  1  0
 16 40  1  6
 17 41  1  0
 19 42  1  0
 20 43  1  0
 21 44  1  0
 22 45  1  0
 23 46  1  0
 24 47  1  0
 24 48  1  0
M  END
>  <meeko>  (4) 
{"is_sidechain": [false], "free_energy": -8.161, "intermolecular_energy": -10.159, "internal_energy": -0.579}

$$$$
ligand_12_conformer_3_docked
     RDKit          3D

 48 51  0  0  0  0  0  0  0  0999 V2000
   -3.5110   45.2450   56.3560 C   0  0  0  0  0  0  0  0  0  0  0  0
   -2.2840   45.3850   57.0610 O   0  0  0  0  0  0  0  0  0  0  0  0
   -1.0370   45.2720   56.4390 C   0  0  0  0  0  0  0  0  0  0  0  0
    0.1300   45.5640   57.1770 C   0  0  0  0  0  0  0  0  0  0  0  0
    1.3900   45.4590   56.5660 C   0  0  0  0  0  0  0  0  0  0  0  0
    1.4460   45.0610   55.2330 C   0  0  0  0  0  0  0  0  0  0  0  0
    2.5840   44.9210   54.5060 N   0  0  0  0  0  0  0  0  0  0  0  0
    2.2990   44.5180   53.2410 C   0  0  0  0  0  0  0  0  0  0  0  0
    3.3220   44.3440   52.2510 N   0  0  0  0  0  0  0  0  0  0  0  0
    4.5070   45.1490   52.1640 C   0  0  0  0  0  0  0  0  0  0  0  0
    4.5310   46.2990   52.6850 O   0  0  0  0  0  0  0  0  0  0  0  0
    5.6540   44.6740   51.4330 N   0  0  0  0  0  0  0  0  0  0  0  0
    6.9500   45.3480   51.5700 C   0  0  0  0  0  0  0  0  0  0  0  0
    7.6680   45.3920   50.2170 C   0  0  0  0  0  0  0  0  0  0  0  0
    7.7290   43.9980   49.5790 C   0  0  0  0  0  0  0  0  0  0  0  0
    6.3170   43.3990   49.4340 C   0  0  1  0  0  0  0  0  0  0  0  0
    6.3890   42.0540   48.8500 N   0  0  0  0  0  0  0  0  0  0  0  0
    5.4670   41.5410   47.8660 C   0  0  0  0  0  0  0  0  0  0  0  0
    5.6120   41.8090   46.4880 C   0  0  0  0  0  0  0  0  0  0  0  0
    4.6960   41.2910   45.5670 C   0  0  0  0  0  0  0  0  0  0  0  0
    3.6340   40.4980   46.0030 C   0  0  0  0  0  0  0  0  0  0  0  0
    3.4840   40.2190   47.3620 C   0  0  0  0  0  0  0  0  0  0  0  0
    4.3950   40.7350   48.2880 C   0  0  0  0  0  0  0  0  0  0  0  0
    5.6370   43.3440   50.8120 C   0  0  0  0  0  0  0  0  0  0  0  0
    0.6270   44.3420   52.9730 S   0  0  0  0  0  0  0  0  0  0  0  0
    0.2790   44.7830   54.5510 C   0  0  0  0  0  0  0  0  0  0  0  0
   -0.9430   44.8850   55.1300 N   0  0  0  0  0  0  0  0  0  0  0  0
   -4.3382   45.1506   57.0749 H   0  0  0  0  0  0  0  0  0  0  0  0
   -3.6738   46.1304   55.7239 H   0  0  0  0  0  0  0  0  0  0  0  0
   -3.4701   44.3457   55.7239 H   0  0  0  0  0  0  0  0  0  0  0  0
    0.0527   45.8735   58.2297 H   0  0  0  0  0  0  0  0  0  0  0  0
    2.3092   45.6854   57.1262 H   0  0  0  0  0  0  0  0  0  0  0  0
    3.1770   43.5970   51.5350 H   0  0  0  0  0  0  0  0  0  0  0  0
    6.7894   46.3750   51.9299 H   0  0  0  0  0  0  0  0  0  0  0  0
    7.5703   44.7916   52.2881 H   0  0  0  0  0  0  0  0  0  0  0  0
    7.1249   46.0718   49.5439 H   0  0  0  0  0  0  0  0  0  0  0  0
    8.6963   45.7479   50.3783 H   0  0  0  0  0  0  0  0  0  0  0  0
    8.1909   44.0770   48.5838 H   0  0  0  0  0  0  0  0  0  0  0  0
    8.3257   43.3398   50.2276 H   0  0  0  0  0  0  0  0  0  0  0  0
    5.7239   44.0372   48.7625 H   0  0  0  0  0  0  0  0  0  0  0  0
    7.1500   41.4140   49.1780 H   0  0  0  0  0  0  0  0  0  0  0  0
    6.4501   42.4287   46.1365 H   0  0  0  0  0  0  0  0  0  0  0  0
    4.8131   41.5094   44.4953 H   0  0  0  0  0  0  0  0  0  0  0  0
    2.9151   40.0928   45.2756 H   0  0  0  0  0  0  0  0  0  0  0  0
    2.6477   39.5921   47.7050 H   0  0  0  0  0  0  0  0  0  0  0  0
    4.2721   40.5083   49.3573 H   0  0  0  0  0  0  0  0  0  0  0  0
    4.5954   43.0115   50.6913 H   0  0  0  0  0  0  0  0  0  0  0  0
    6.1816   42.6376   51.4558 H   0  0  0  0  0  0  0  0  0  0  0  0
  1  2  1  0
  2  3  1  0
  3  4  2  0
  4  5  1  0
  5  6  2  0
  6  7  1  0
  7  8  2  0
  8  9  1  0
  9 10  1  0
 10 11  2  0
 10 12  1  0
 12 13  1  0
 13 14  1  0
 14 15  1  0
 15 16  1  0
 16 17  1  0
 17 18  1  0
 18 19  2  0
 19 20  1  0
 20 21  2  0
 21 22  1  0
 22 23  2  0
 16 24  1  0
  8 25  1  0
 25 26  1  0
 26 27  2  0
 27  3  1  0
 26  6  1  0
 24 12  1  0
 23 18  1  0
  1 28  1  0
  1 29  1  0
  1 30  1  0
  4 31  1  0
  5 32  1  0
  9 33  1  0
 13 34  1  0
 13 35  1  0
 14 36  1  0
 14 37  1  0
 15 38  1  0
 15 39  1  0
 16 40  1  6
 17 41  1  0
 19 42  1  0
 20 43  1  0
 21 44  1  0
 22 45  1  0
 23 46  1  0
 24 47  1  0
 24 48  1  0
M  END
>  <meeko>  (5) 
{"is_sidechain": [false], "free_energy": -7.683, "intermolecular_energy": -9.695, "internal_energy": -0.424}

$$$$
