ligand_36_conformer_5_docked
     RDKit          3D

 42 45  0  0  0  0  0  0  0  0999 V2000
    1.9330   46.6560   52.5850 O   0  0  0  0  0  0  0  0  0  0  0  0
    2.6670   45.6790   52.8950 C   0  0  0  0  0  0  0  0  0  0  0  0
    2.0470   44.3450   52.9970 C   0  0  0  0  0  0  0  0  0  0  0  0
    2.2740   43.2890   52.1410 C   0  0  0  0  0  0  0  0  0  0  0  0
    1.4640   42.2740   52.4930 N   0  0  0  0  0  0  0  0  0  0  0  0
    0.7400   42.6220   53.5440 N   0  0  0  0  0  0  0  0  0  0  0  0
    1.0770   43.8830   53.8810 C   0  0  0  0  0  0  0  0  0  0  0  0
    0.5330   44.5650   55.0670 C   0  0  0  0  0  0  0  0  0  0  0  0
    1.2950   45.0840   56.1090 C   0  0  0  0  0  0  0  0  0  0  0  0
    0.5270   45.7210   57.0930 C   0  0  0  0  0  0  0  0  0  0  0  0
   -0.8300   45.7170   56.8110 C   0  0  0  0  0  0  0  0  0  0  0  0
   -2.0860   46.4180   57.8100 Cl  0  0  0  0  0  0  0  0  0  0  0  0
   -1.0860   44.9330   55.3490 S   0  0  0  0  0  0  0  0  0  0  0  0
    4.0600   45.8990   53.2020 N   0  0  0  0  0  0  0  0  0  0  0  0
    4.8110   44.9580   54.0430 C   0  0  0  0  0  0  0  0  0  0  0  0
    5.7520   45.7260   54.9780 C   0  0  0  0  0  0  0  0  0  0  0  0
    6.6140   46.6690   54.2400 N   0  0  0  0  0  0  0  0  0  0  0  0
    7.6480   45.9880   53.4290 C   0  0  0  0  0  0  0  0  0  0  0  0
    8.6430   47.0160   52.8700 C   0  0  0  0  0  0  0  0  0  0  0  0
    9.9760   46.4510   52.4020 C   0  0  0  0  0  0  0  0  0  0  0  0
    9.8960   47.2270   53.7070 C   0  0  0  0  0  0  0  0  0  0  0  0
    5.8030   47.6400   53.4710 C   0  0  0  0  0  0  0  0  0  0  0  0
    4.8020   46.9660   52.5180 C   0  0  0  0  0  0  0  0  0  0  0  0
    2.9953   43.2779   51.3106 H   0  0  0  0  0  0  0  0  0  0  0  0
    1.4040   41.3460   52.0200 H   0  0  0  0  0  0  0  0  0  0  0  0
    2.3910   45.0025   56.1558 H   0  0  0  0  0  0  0  0  0  0  0  0
    0.9571   46.1775   57.9967 H   0  0  0  0  0  0  0  0  0  0  0  0
    4.1064   44.3637   54.6432 H   0  0  0  0  0  0  0  0  0  0  0  0
    5.4055   44.2934   53.3988 H   0  0  0  0  0  0  0  0  0  0  0  0
    5.1486   46.2901   55.7045 H   0  0  0  0  0  0  0  0  0  0  0  0
    6.4010   44.9953   55.4829 H   0  0  0  0  0  0  0  0  0  0  0  0
    8.1871   45.2655   54.0593 H   0  0  0  0  0  0  0  0  0  0  0  0
    7.1622   45.4654   52.5918 H   0  0  0  0  0  0  0  0  0  0  0  0
    7.8780   47.6720   52.4289 H   0  0  0  0  0  0  0  0  0  0  0  0
   10.1489   45.3648   52.4178 H   0  0  0  0  0  0  0  0  0  0  0  0
   10.5762   46.5333   51.4838 H   0  0  0  0  0  0  0  0  0  0  0  0
   10.0110   46.7021   54.6668 H   0  0  0  0  0  0  0  0  0  0  0  0
   10.4144   48.1031   54.1238 H   0  0  0  0  0  0  0  0  0  0  0  0
    5.2436   48.2683   54.1797 H   0  0  0  0  0  0  0  0  0  0  0  0
    6.4958   48.2322   52.8551 H   0  0  0  0  0  0  0  0  0  0  0  0
    4.0906   47.7206   52.1513 H   0  0  0  0  0  0  0  0  0  0  0  0
    5.3601   46.5228   51.6801 H   0  0  0  0  0  0  0  0  0  0  0  0
  1  2  2  0
  2  3  1  0
  3  4  2  0
  4  5  1  0
  5  6  1  0
  6  7  2  0
  7  8  1  0
  8  9  2  0
  9 10  1  0
 10 11  2  0
 11 12  1  0
 11 13  1  0
  2 14  1  0
 14 15  1  0
 15 16  1  0
 16 17  1  0
 17 18  1  0
 18 19  1  0
 19 20  1  0
 20 21  1  0
 17 22  1  0
 22 23  1  0
  7  3  1  0
 13  8  1  0
 23 14  1  0
 21 19  1  0
  4 24  1  0
  5 25  1  0
  9 26  1  0
 10 27  1  0
 15 28  1  0
 15 29  1  0
 16 30  1  0
 16 31  1  0
 18 32  1  0
 18 33  1  0
 19 34  1  0
 20 35  1  0
 20 36  1  0
 21 37  1  0
 21 38  1  0
 22 39  1  0
 22 40  1  0
 23 41  1  0
 23 42  1  0
M  END
>  <meeko>  (1) 
{"is_sidechain": [false], "free_energy": -7.912, "intermolecular_energy": -9.762, "internal_energy": -0.653}

$$$$
ligand_36_conformer_5_docked
     RDKit          3D

 42 45  0  0  0  0  0  0  0  0999 V2000
    2.7710   46.3900   51.3120 O   0  0  0  0  0  0  0  0  0  0  0  0
    3.3900   45.5200   51.9830 C   0  0  0  0  0  0  0  0  0  0  0  0
    2.8840   44.1350   51.9650 C   0  0  0  0  0  0  0  0  0  0  0  0
    1.6720   43.7190   52.4700 C   0  0  0  0  0  0  0  0  0  0  0  0
    1.6010   42.3810   52.3590 N   0  0  0  0  0  0  0  0  0  0  0  0
    2.7040   41.9190   51.7920 N   0  0  0  0  0  0  0  0  0  0  0  0
    3.5070   42.9690   51.5320 C   0  0  0  0  0  0  0  0  0  0  0  0
    4.7870   42.8370   50.8170 C   0  0  0  0  0  0  0  0  0  0  0  0
    5.3280   41.6390   50.3600 C   0  0  0  0  0  0  0  0  0  0  0  0
    6.5370   41.8020   49.6720 C   0  0  0  0  0  0  0  0  0  0  0  0
    6.9330   43.1270   49.5750 C   0  0  0  0  0  0  0  0  0  0  0  0
    8.3850   43.7080   48.7870 Cl  0  0  0  0  0  0  0  0  0  0  0  0
    5.7920   44.0990   50.3320 S   0  0  0  0  0  0  0  0  0  0  0  0
    4.5190   45.9110   52.7920 N   0  0  0  0  0  0  0  0  0  0  0  0
    4.9360   45.1130   53.9520 C   0  0  0  0  0  0  0  0  0  0  0  0
    5.3580   46.0350   55.1000 C   0  0  0  0  0  0  0  0  0  0  0  0
    6.3700   47.0200   54.6730 N   0  0  0  0  0  0  0  0  0  0  0  0
    7.6920   46.4080   54.4110 C   0  0  0  0  0  0  0  0  0  0  0  0
    8.7390   47.5020   54.1540 C   0  0  0  0  0  0  0  0  0  0  0  0
    9.8540   47.1280   53.1890 C   0  0  0  0  0  0  0  0  0  0  0  0
   10.1340   47.2020   54.6820 C   0  0  0  0  0  0  0  0  0  0  0  0
    5.8680   47.8470   53.5530 C   0  0  0  0  0  0  0  0  0  0  0  0
    5.3910   47.0090   52.3540 C   0  0  0  0  0  0  0  0  0  0  0  0
    0.8936   44.3713   52.8927 H   0  0  0  0  0  0  0  0  0  0  0  0
    0.8050   41.7810   52.6680 H   0  0  0  0  0  0  0  0  0  0  0  0
    4.8529   40.6604   50.5231 H   0  0  0  0  0  0  0  0  0  0  0  0
    7.1132   40.9645   49.2517 H   0  0  0  0  0  0  0  0  0  0  0  0
    4.0965   44.4829   54.2810 H   0  0  0  0  0  0  0  0  0  0  0  0
    5.7890   44.4800   53.6661 H   0  0  0  0  0  0  0  0  0  0  0  0
    4.4718   46.5728   55.4679 H   0  0  0  0  0  0  0  0  0  0  0  0
    5.8017   45.4124   55.8909 H   0  0  0  0  0  0  0  0  0  0  0  0
    7.9960   45.8114   55.2837 H   0  0  0  0  0  0  0  0  0  0  0  0
    7.6202   45.7629   53.5229 H   0  0  0  0  0  0  0  0  0  0  0  0
    8.0347   48.3424   54.2413 H   0  0  0  0  0  0  0  0  0  0  0  0
    9.8370   46.1528   52.6803 H   0  0  0  0  0  0  0  0  0  0  0  0
   10.2929   47.5885   52.2916 H   0  0  0  0  0  0  0  0  0  0  0  0
   10.3195   46.2804   55.2531 H   0  0  0  0  0  0  0  0  0  0  0  0
   10.8593   47.7382   55.3117 H   0  0  0  0  0  0  0  0  0  0  0  0
    5.0243   48.4527   53.9152 H   0  0  0  0  0  0  0  0  0  0  0  0
    6.7033   48.4728   53.2057 H   0  0  0  0  0  0  0  0  0  0  0  0
    4.8333   47.6568   51.6616 H   0  0  0  0  0  0  0  0  0  0  0  0
    6.2718   46.5789   51.8548 H   0  0  0  0  0  0  0  0  0  0  0  0
  1  2  2  0
  2  3  1  0
  3  4  2  0
  4  5  1  0
  5  6  1  0
  6  7  2  0
  7  8  1  0
  8  9  2  0
  9 10  1  0
 10 11  2  0
 11 12  1  0
 11 13  1  0
  2 14  1  0
 14 15  1  0
 15 16  1  0
 16 17  1  0
 17 18  1  0
 18 19  1  0
 19 20  1  0
 20 21  1  0
 17 22  1  0
 22 23  1  0
  7  3  1  0
 13  8  1  0
 23 14  1  0
 21 19  1  0
  4 24  1  0
  5 25  1  0
  9 26  1  0
 10 27  1  0
 15 28  1  0
 15 29  1  0
 16 30  1  0
 16 31  1  0
 18 32  1  0
 18 33  1  0
 19 34  1  0
 20 35  1  0
 20 36  1  0
 21 37  1  0
 21 38  1  0
 22 39  1  0
 22 40  1  0
 23 41  1  0
 23 42  1  0
M  END
>  <meeko>  (2) 
{"is_sidechain": [false], "free_energy": -7.859, "intermolecular_energy": -10.177, "internal_energy": -0.173}

$$$$
ligand_36_conformer_5_docked
     RDKit          3D

 42 45  0  0  0  0  0  0  0  0999 V2000
    3.1860   46.7430   50.6420 O   0  0  0  0  0  0  0  0  0  0  0  0
    3.4450   46.2180   51.7590 C   0  0  0  0  0  0  0  0  0  0  0  0
    4.7920   46.4140   52.3270 C   0  0  0  0  0  0  0  0  0  0  0  0
    5.1150   47.2950   53.3360 C   0  0  0  0  0  0  0  0  0  0  0  0
    6.4460   47.2620   53.5190 N   0  0  0  0  0  0  0  0  0  0  0  0
    6.9930   46.3900   52.6880 N   0  0  0  0  0  0  0  0  0  0  0  0
    6.0050   45.8480   51.9480 C   0  0  0  0  0  0  0  0  0  0  0  0
    6.2360   44.7660   50.9760 C   0  0  0  0  0  0  0  0  0  0  0  0
    7.3130   44.6990   50.0970 C   0  0  0  0  0  0  0  0  0  0  0  0
    7.3150   43.5400   49.3100 C   0  0  0  0  0  0  0  0  0  0  0  0
    6.2520   42.6940   49.5860 C   0  0  0  0  0  0  0  0  0  0  0  0
    5.9330   41.1610   48.8030 Cl  0  0  0  0  0  0  0  0  0  0  0  0
    5.3120   43.3690   50.8020 S   0  0  0  0  0  0  0  0  0  0  0  0
    2.4530   45.3960   52.4100 N   0  0  0  0  0  0  0  0  0  0  0  0
    2.8380   44.3720   53.3890 C   0  0  0  0  0  0  0  0  0  0  0  0
    1.9740   43.1200   53.2060 C   0  0  0  0  0  0  0  0  0  0  0  0
    0.5330   43.4350   53.2250 N   0  0  0  0  0  0  0  0  0  0  0  0
    0.0480   43.8200   54.5700 C   0  0  0  0  0  0  0  0  0  0  0  0
   -1.4780   43.9960   54.5490 C   0  0  0  0  0  0  0  0  0  0  0  0
   -2.0080   45.2040   55.3080 C   0  0  0  0  0  0  0  0  0  0  0  0
   -2.1710   43.8090   55.8900 C   0  0  0  0  0  0  0  0  0  0  0  0
    0.1900   44.4150   52.1690 C   0  0  0  0  0  0  0  0  0  0  0  0
    1.0260   45.7030   52.2490 C   0  0  0  0  0  0  0  0  0  0  0  0
    4.4039   47.9195   53.8967 H   0  0  0  0  0  0  0  0  0  0  0  0
    6.9850   47.8310   54.2090 H   0  0  0  0  0  0  0  0  0  0  0  0
    8.0859   45.4786   50.0272 H   0  0  0  0  0  0  0  0  0  0  0  0
    8.0813   43.3235   48.5511 H   0  0  0  0  0  0  0  0  0  0  0  0
    3.8961   44.1087   53.2436 H   0  0  0  0  0  0  0  0  0  0  0  0
    2.6880   44.7687   54.4040 H   0  0  0  0  0  0  0  0  0  0  0  0
    2.2230   42.6547   52.2409 H   0  0  0  0  0  0  0  0  0  0  0  0
    2.1835   42.4375   54.0428 H   0  0  0  0  0  0  0  0  0  0  0  0
    0.3139   43.0337   55.2918 H   0  0  0  0  0  0  0  0  0  0  0  0
    0.5167   44.7708   54.8638 H   0  0  0  0  0  0  0  0  0  0  0  0
   -1.6158   43.5916   53.5354 H   0  0  0  0  0  0  0  0  0  0  0  0
   -1.3066   45.9143   55.7702 H   0  0  0  0  0  0  0  0  0  0  0  0
   -2.6914   46.0328   55.0713 H   0  0  0  0  0  0  0  0  0  0  0  0
   -1.5877   43.5102   56.7734 H   0  0  0  0  0  0  0  0  0  0  0  0
   -3.0215   43.2108   56.2489 H   0  0  0  0  0  0  0  0  0  0  0  0
    0.3603   43.9471   51.1881 H   0  0  0  0  0  0  0  0  0  0  0  0
   -0.8634   44.6975   52.3124 H   0  0  0  0  0  0  0  0  0  0  0  0
    0.8848   46.2814   51.3240 H   0  0  0  0  0  0  0  0  0  0  0  0
    0.6921   46.2834   53.1217 H   0  0  0  0  0  0  0  0  0  0  0  0
  1  2  2  0
  2  3  1  0
  3  4  2  0
  4  5  1  0
  5  6  1  0
  6  7  2  0
  7  8  1  0
  8  9  2  0
  9 10  1  0
 10 11  2  0
 11 12  1  0
 11 13  1  0
  2 14  1  0
 14 15  1  0
 15 16  1  0
 16 17  1  0
 17 18  1  0
 18 19  1  0
 19 20  1  0
 20 21  1  0
 17 22  1  0
 22 23  1  0
  7  3  1  0
 13  8  1  0
 23 14  1  0
 21 19  1  0
  4 24  1  0
  5 25  1  0
  9 26  1  0
 10 27  1  0
 15 28  1  0
 15 29  1  0
 16 30  1  0
 16 31  1  0
 18 32  1  0
 18 33  1  0
 19 34  1  0
 20 35  1  0
 20 36  1  0
 21 37  1  0
 21 38  1  0
 22 39  1  0
 22 40  1  0
 23 41  1  0
 23 42  1  0
M  END
>  <meeko>  (3) 
{"is_sidechain": [false], "free_energy": -7.255, "intermolecular_energy": -8.894, "internal_energy": -0.711}

$$$$
ligand_36_conformer_5_docked
     RDKit          3D

 42 45  0  0  0  0  0  0  0  0999 V2000
    6.5780   44.9650   54.4400 O   0  0  0  0  0  0  0  0  0  0  0  0
    6.1520   45.6000   53.4390 C   0  0  0  0  0  0  0  0  0  0  0  0
    7.1180   46.3840   52.6480 C   0  0  0  0  0  0  0  0  0  0  0  0
    7.6860   47.5800   53.0330 C   0  0  0  0  0  0  0  0  0  0  0  0
    8.4390   48.0400   52.0190 N   0  0  0  0  0  0  0  0  0  0  0  0
    8.3950   47.1900   51.0060 N   0  0  0  0  0  0  0  0  0  0  0  0
    7.6000   46.1610   51.3620 C   0  0  0  0  0  0  0  0  0  0  0  0
    7.3940   44.9790   50.5090 C   0  0  0  0  0  0  0  0  0  0  0  0
    8.3660   44.3980   49.7010 C   0  0  0  0  0  0  0  0  0  0  0  0
    7.9170   43.2550   49.0270 C   0  0  0  0  0  0  0  0  0  0  0  0
    6.6010   42.9320   49.3210 C   0  0  0  0  0  0  0  0  0  0  0  0
    5.7090   41.5750   48.6670 Cl  0  0  0  0  0  0  0  0  0  0  0  0
    5.9920   44.0500   50.4140 S   0  0  0  0  0  0  0  0  0  0  0  0
    4.7400   45.5980   53.1370 N   0  0  0  0  0  0  0  0  0  0  0  0
    4.1280   46.6810   52.3570 C   0  0  0  0  0  0  0  0  0  0  0  0
    2.7520   47.0300   52.9340 C   0  0  0  0  0  0  0  0  0  0  0  0
    1.8890   45.8400   53.0620 N   0  0  0  0  0  0  0  0  0  0  0  0
    1.4320   45.3190   51.7540 C   0  0  0  0  0  0  0  0  0  0  0  0
    0.7070   43.9780   51.9440 C   0  0  0  0  0  0  0  0  0  0  0  0
    1.2680   42.8110   51.1460 C   0  0  0  0  0  0  0  0  0  0  0  0
   -0.0370   43.4650   50.7210 C   0  0  0  0  0  0  0  0  0  0  0  0
    2.5230   44.8130   53.9200 C   0  0  0  0  0  0  0  0  0  0  0  0
    3.9280   44.4120   53.4380 C   0  0  0  0  0  0  0  0  0  0  0  0
    7.5465   48.0743   54.0058 H   0  0  0  0  0  0  0  0  0  0  0  0
    8.9820   48.9310   52.0140 H   0  0  0  0  0  0  0  0  0  0  0  0
    9.3863   44.7967   49.6012 H   0  0  0  0  0  0  0  0  0  0  0  0
    8.5442   42.6733   48.3354 H   0  0  0  0  0  0  0  0  0  0  0  0
    4.7756   47.5693   52.3967 H   0  0  0  0  0  0  0  0  0  0  0  0
    4.0092   46.3521   51.3141 H   0  0  0  0  0  0  0  0  0  0  0  0
    2.8875   47.4792   53.9289 H   0  0  0  0  0  0  0  0  0  0  0  0
    2.2621   47.7327   52.2439 H   0  0  0  0  0  0  0  0  0  0  0  0
    0.7431   46.0431   51.2945 H   0  0  0  0  0  0  0  0  0  0  0  0
    2.3049   45.1671   51.1021 H   0  0  0  0  0  0  0  0  0  0  0  0
    0.4513   44.1465   53.0005 H   0  0  0  0  0  0  0  0  0  0  0  0
    2.1745   42.9459   50.5377 H   0  0  0  0  0  0  0  0  0  0  0  0
    1.5816   41.7842   51.3855 H   0  0  0  0  0  0  0  0  0  0  0  0
   -0.0747   44.0730   49.8051 H   0  0  0  0  0  0  0  0  0  0  0  0
   -1.0587   43.1072   50.5256 H   0  0  0  0  0  0  0  0  0  0  0  0
    2.6033   45.2110   54.9423 H   0  0  0  0  0  0  0  0  0  0  0  0
    1.8913   43.9134   53.8785 H   0  0  0  0  0  0  0  0  0  0  0  0
    4.4249   43.8264   54.2255 H   0  0  0  0  0  0  0  0  0  0  0  0
    3.8261   43.8150   52.5197 H   0  0  0  0  0  0  0  0  0  0  0  0
  1  2  2  0
  2  3  1  0
  3  4  2  0
  4  5  1  0
  5  6  1  0
  6  7  2  0
  7  8  1  0
  8  9  2  0
  9 10  1  0
 10 11  2  0
 11 12  1  0
 11 13  1  0
  2 14  1  0
 14 15  1  0
 15 16  1  0
 16 17  1  0
 17 18  1  0
 18 19  1  0
 19 20  1  0
 20 21  1  0
 17 22  1  0
 22 23  1  0
  7  3  1  0
 13  8  1  0
 23 14  1  0
 21 19  1  0
  4 24  1  0
  5 25  1  0
  9 26  1  0
 10 27  1  0
 15 28  1  0
 15 29  1  0
 16 30  1  0
 16 31  1  0
 18 32  1  0
 18 33  1  0
 19 34  1  0
 20 35  1  0
 20 36  1  0
 21 37  1  0
 21 38  1  0
 22 39  1  0
 22 40  1  0
 23 41  1  0
 23 42  1  0
M  END
>  <meeko>  (4) 
{"is_sidechain": [false], "free_energy": -7.197, "intermolecular_energy": -9.102, "internal_energy": -0.431}

$$$$
ligand_36_conformer_5_docked
     RDKit          3D

 42 45  0  0  0  0  0  0  0  0999 V2000
    3.1180   45.9120   50.8660 O   0  0  0  0  0  0  0  0  0  0  0  0
    3.7840   45.0570   51.5100 C   0  0  0  0  0  0  0  0  0  0  0  0
    3.4370   43.6340   51.3460 C   0  0  0  0  0  0  0  0  0  0  0  0
    4.2290   42.6800   50.7440 C   0  0  0  0  0  0  0  0  0  0  0  0
    3.5420   41.5250   50.6960 N   0  0  0  0  0  0  0  0  0  0  0  0
    2.3530   41.6860   51.2540 N   0  0  0  0  0  0  0  0  0  0  0  0
    2.2600   42.9650   51.6680 C   0  0  0  0  0  0  0  0  0  0  0  0
    1.1020   43.4790   52.4180 C   0  0  0  0  0  0  0  0  0  0  0  0
    0.9770   43.4620   53.8040 C   0  0  0  0  0  0  0  0  0  0  0  0
   -0.2070   44.0540   54.2620 C   0  0  0  0  0  0  0  0  0  0  0  0
   -0.9990   44.5490   53.2370 C   0  0  0  0  0  0  0  0  0  0  0  0
   -2.5430   45.3510   53.4320 Cl  0  0  0  0  0  0  0  0  0  0  0  0
   -0.2400   44.2630   51.7680 S   0  0  0  0  0  0  0  0  0  0  0  0
    4.8100   45.4930   52.4280 N   0  0  0  0  0  0  0  0  0  0  0  0
    5.2370   44.6450   53.5480 C   0  0  0  0  0  0  0  0  0  0  0  0
    5.4800   45.5050   54.7930 C   0  0  0  0  0  0  0  0  0  0  0  0
    6.4030   46.6230   54.5200 N   0  0  0  0  0  0  0  0  0  0  0  0
    7.7980   46.1770   54.3080 C   0  0  0  0  0  0  0  0  0  0  0  0
    8.7040   47.3880   54.0340 C   0  0  0  0  0  0  0  0  0  0  0  0
    9.9690   47.0930   53.2420 C   0  0  0  0  0  0  0  0  0  0  0  0
   10.0520   47.3600   54.7370 C   0  0  0  0  0  0  0  0  0  0  0  0
    5.8850   47.4860   53.4340 C   0  0  0  0  0  0  0  0  0  0  0  0
    5.5810   46.7090   52.1420 C   0  0  0  0  0  0  0  0  0  0  0  0
    5.2503   42.8369   50.3667 H   0  0  0  0  0  0  0  0  0  0  0  0
    3.8810   40.6270   50.2860 H   0  0  0  0  0  0  0  0  0  0  0  0
    1.7333   43.0267   54.4737 H   0  0  0  0  0  0  0  0  0  0  0  0
   -0.4804   44.1195   55.3255 H   0  0  0  0  0  0  0  0  0  0  0  0
    4.4527   43.9046   53.7640 H   0  0  0  0  0  0  0  0  0  0  0  0
    6.1706   44.1307   53.2763 H   0  0  0  0  0  0  0  0  0  0  0  0
    4.5180   45.9140   55.1355 H   0  0  0  0  0  0  0  0  0  0  0  0
    5.9374   44.8667   55.5633 H   0  0  0  0  0  0  0  0  0  0  0  0
    8.1532   45.6531   55.2077 H   0  0  0  0  0  0  0  0  0  0  0  0
    7.8316   45.4991   53.4423 H   0  0  0  0  0  0  0  0  0  0  0  0
    7.8834   48.1153   53.9467 H   0  0  0  0  0  0  0  0  0  0  0  0
   10.1509   46.0802   52.8532 H   0  0  0  0  0  0  0  0  0  0  0  0
   10.4446   47.5217   52.3476 H   0  0  0  0  0  0  0  0  0  0  0  0
   10.2942   46.5403   55.4294 H   0  0  0  0  0  0  0  0  0  0  0  0
   10.6128   48.0619   55.3716 H   0  0  0  0  0  0  0  0  0  0  0  0
    4.9582   47.9667   53.7802 H   0  0  0  0  0  0  0  0  0  0  0  0
    6.6667   48.2231   53.1984 H   0  0  0  0  0  0  0  0  0  0  0  0
    5.0004   47.3518   51.4639 H   0  0  0  0  0  0  0  0  0  0  0  0
    6.5339   46.4180   51.6758 H   0  0  0  0  0  0  0  0  0  0  0  0
  1  2  2  0
  2  3  1  0
  3  4  2  0
  4  5  1  0
  5  6  1  0
  6  7  2  0
  7  8  1  0
  8  9  2  0
  9 10  1  0
 10 11  2  0
 11 12  1  0
 11 13  1  0
  2 14  1  0
 14 15  1  0
 15 16  1  0
 16 17  1  0
 17 18  1  0
 18 19  1  0
 19 20  1  0
 20 21  1  0
 17 22  1  0
 22 23  1  0
  7  3  1  0
 13  8  1  0
 23 14  1  0
 21 19  1  0
  4 24  1  0
  5 25  1  0
  9 26  1  0
 10 27  1  0
 15 28  1  0
 15 29  1  0
 16 30  1  0
 16 31  1  0
 18 32  1  0
 18 33  1  0
 19 34  1  0
 20 35  1  0
 20 36  1  0
 21 37  1  0
 21 38  1  0
 22 39  1  0
 22 40  1  0
 23 41  1  0
 23 42  1  0
M  END
>  <meeko>  (5) 
{"is_sidechain": [false], "free_energy": -7.116, "intermolecular_energy": -8.726, "internal_energy": -0.706}

$$$$
