MODEL 1
REMARK VINA RESULT:    -9.067      0.000      0.000
REMARK INTER + INTRA:         -12.006
REMARK INTER:                 -11.717
REMARK INTRA:                  -0.290
REMARK UNBOUND:                -0.290
REMARK SMILES COc1ccc2nc(NC(=O)N3CCC[C@H](Nc4ccccc4)C3)sc2n1
REMARK SMILES IDX 9 1 10 2 11 3 8 5 3 6 4 7 27 8 5 9 26 10 6 11 25 12 7 13
REMARK SMILES IDX 2 14 1 15 12 16 13 17 24 18 14 19 16 20 15 21 17 22 18 24
REMARK SMILES IDX 19 25 23 26 20 27 22 28 21 29
REMARK H PARENT 9 4 17 23
ROOT
ATOM      1  N   UNL     1       4.169  45.697  52.654  1.00  0.00    -0.283 N 
ATOM      2  C   UNL     1       3.198  45.013  53.465  1.00  0.00     0.323 C 
ATOM      3  O   UNL     1       3.343  44.967  54.717  1.00  0.00    -0.248 OA
ATOM      4  H   UNL     1       3.924  45.939  51.669  1.00  0.00     0.174 HD
ENDROOT
BRANCH   1   5
ATOM      5  C   UNL     1       5.454  46.112  53.135  1.00  0.00     0.193 A 
ATOM      6  C   UNL     1       9.582  47.572  54.782  1.00  0.00     0.214 A 
ATOM      7  C   UNL     1       9.968  46.937  53.581  1.00  0.00     0.071 A 
ATOM      8  N   UNL     1       8.263  47.613  55.143  1.00  0.00    -0.201 NA
ATOM      9  C   UNL     1       8.997  46.345  52.757  1.00  0.00     0.037 A 
ATOM     10  C   UNL     1       7.334  47.036  54.340  1.00  0.00     0.149 A 
ATOM     11  C   UNL     1       7.665  46.405  53.160  1.00  0.00     0.103 A 
ATOM     12  S   UNL     1       5.676  46.970  54.584  1.00  0.00    -0.076 S 
ATOM     13  N   UNL     1       6.617  45.884  52.473  1.00  0.00    -0.218 NA
BRANCH   6  14
ATOM     14  O   UNL     1      10.561  48.157  55.589  1.00  0.00    -0.481 OA
ATOM     15  C   UNL     1      11.361  47.404  56.494  1.00  0.00     0.280 C 
ENDBRANCH   6  14
ENDBRANCH   1   5
BRANCH   2  16
ATOM     16  N   UNL     1       2.037  44.407  52.865  1.00  0.00    -0.322 N 
ATOM     17  C   UNL     1       1.000  43.831  53.733  1.00  0.00     0.121 C 
ATOM     18  C   UNL     1       1.876  44.368  51.403  1.00  0.00     0.146 C 
ATOM     19  C   UNL     1      -0.310  43.627  52.967  1.00  0.00     0.024 C 
ATOM     20  C   UNL     1       1.228  43.039  50.964  1.00  0.00     0.098 C 
ATOM     21  C   UNL     1      -0.106  42.765  51.712  1.00  0.00     0.028 C 
BRANCH  20  22
ATOM     22  N   UNL     1       2.168  41.926  51.171  1.00  0.00    -0.381 N 
ATOM     23  H   UNL     1       1.901  41.171  51.843  1.00  0.00     0.160 HD
BRANCH  22  24
ATOM     24  C   UNL     1       3.460  41.825  50.537  1.00  0.00     0.034 A 
ATOM     25  C   UNL     1       4.571  42.573  50.977  1.00  0.00     0.025 A 
ATOM     26  C   UNL     1       3.619  40.953  49.446  1.00  0.00     0.025 A 
ATOM     27  C   UNL     1       5.807  42.447  50.336  1.00  0.00     0.002 A 
ATOM     28  C   UNL     1       4.857  40.831  48.809  1.00  0.00     0.002 A 
ATOM     29  C   UNL     1       5.951  41.576  49.253  1.00  0.00     0.000 A 
ENDBRANCH  22  24
ENDBRANCH  20  22
ENDBRANCH   2  16
TORSDOF 5
ENDMDL
MODEL 2
REMARK VINA RESULT:    -8.887      3.493      8.370
REMARK INTER + INTRA:         -11.774
REMARK INTER:                 -11.366
REMARK INTRA:                  -0.409
REMARK UNBOUND:                -0.290
REMARK SMILES COc1ccc2nc(NC(=O)N3CCC[C@H](Nc4ccccc4)C3)sc2n1
REMARK SMILES IDX 9 1 10 2 11 3 8 5 3 6 4 7 27 8 5 9 26 10 6 11 25 12 7 13
REMARK SMILES IDX 2 14 1 15 12 16 13 17 24 18 14 19 16 20 15 21 17 22 18 24
REMARK SMILES IDX 19 25 23 26 20 27 22 28 21 29
REMARK H PARENT 9 4 17 23
ROOT
ATOM      1  N   UNL     1       2.116  44.494  54.253  1.00  0.00    -0.283 N 
ATOM      2  C   UNL     1       2.372  45.285  53.080  1.00  0.00     0.323 C 
ATOM      3  O   UNL     1       1.618  46.255  52.797  1.00  0.00    -0.248 OA
ATOM      4  H   UNL     1       2.865  43.861  54.610  1.00  0.00     0.174 HD
ENDROOT
BRANCH   1   5
ATOM      5  C   UNL     1       0.893  44.554  55.000  1.00  0.00     0.193 A 
ATOM      6  C   UNL     1      -3.018  44.764  57.558  1.00  0.00     0.214 A 
ATOM      7  C   UNL     1      -3.465  44.061  56.419  1.00  0.00     0.071 A 
ATOM      8  N   UNL     1      -1.714  45.170  57.645  1.00  0.00    -0.201 NA
ATOM      9  C   UNL     1      -2.572  43.778  55.373  1.00  0.00     0.037 A 
ATOM     10  C   UNL     1      -0.860  44.893  56.628  1.00  0.00     0.149 A 
ATOM     11  C   UNL     1      -1.253  44.209  55.497  1.00  0.00     0.103 A 
ATOM     12  S   UNL     1       0.766  45.289  56.526  1.00  0.00    -0.076 S 
ATOM     13  N   UNL     1      -0.277  44.010  54.576  1.00  0.00    -0.218 NA
BRANCH   6  14
ATOM     14  O   UNL     1      -3.920  45.036  58.590  1.00  0.00    -0.481 OA
ATOM     15  C   UNL     1      -3.960  46.288  59.266  1.00  0.00     0.280 C 
ENDBRANCH   6  14
ENDBRANCH   1   5
BRANCH   2  16
ATOM     16  N   UNL     1       3.507  45.002  52.239  1.00  0.00    -0.322 N 
ATOM     17  C   UNL     1       4.271  43.766  52.457  1.00  0.00     0.121 C 
ATOM     18  C   UNL     1       3.900  45.929  51.166  1.00  0.00     0.146 C 
ATOM     19  C   UNL     1       5.142  43.434  51.243  1.00  0.00     0.024 C 
ATOM     20  C   UNL     1       5.436  46.003  51.048  1.00  0.00     0.098 C 
ATOM     21  C   UNL     1       6.077  44.598  50.879  1.00  0.00     0.028 C 
BRANCH  20  22
ATOM     22  N   UNL     1       6.000  46.684  52.225  1.00  0.00    -0.381 N 
ATOM     23  H   UNL     1       5.345  47.182  52.869  1.00  0.00     0.160 HD
BRANCH  22  24
ATOM     24  C   UNL     1       7.409  46.747  52.530  1.00  0.00     0.034 A 
ATOM     25  C   UNL     1       8.397  46.678  51.527  1.00  0.00     0.025 A 
ATOM     26  C   UNL     1       7.811  46.882  53.870  1.00  0.00     0.025 A 
ATOM     27  C   UNL     1       9.752  46.743  51.865  1.00  0.00     0.002 A 
ATOM     28  C   UNL     1       9.168  46.945  54.202  1.00  0.00     0.002 A 
ATOM     29  C   UNL     1      10.138  46.877  53.201  1.00  0.00     0.000 A 
ENDBRANCH  22  24
ENDBRANCH  20  22
ENDBRANCH   2  16
TORSDOF 5
ENDMDL
MODEL 3
REMARK VINA RESULT:    -8.657      2.822      7.340
REMARK INTER + INTRA:         -11.477
REMARK INTER:                 -10.704
REMARK INTRA:                  -0.773
REMARK UNBOUND:                -0.290
REMARK SMILES COc1ccc2nc(NC(=O)N3CCC[C@H](Nc4ccccc4)C3)sc2n1
REMARK SMILES IDX 9 1 10 2 11 3 8 5 3 6 4 7 27 8 5 9 26 10 6 11 25 12 7 13
REMARK SMILES IDX 2 14 1 15 12 16 13 17 24 18 14 19 16 20 15 21 17 22 18 24
REMARK SMILES IDX 19 25 23 26 20 27 22 28 21 29
REMARK H PARENT 9 4 17 23
ROOT
ATOM      1  N   UNL     1       4.691  45.515  54.101  1.00  0.00    -0.283 N 
ATOM      2  C   UNL     1       5.170  46.808  53.692  1.00  0.00     0.323 C 
ATOM      3  O   UNL     1       4.467  47.835  53.902  1.00  0.00    -0.248 OA
ATOM      4  H   UNL     1       5.364  44.719  54.148  1.00  0.00     0.174 HD
ENDROOT
BRANCH   1   5
ATOM      5  C   UNL     1       3.337  45.258  54.496  1.00  0.00     0.193 A 
ATOM      6  C   UNL     1      -1.121  44.423  55.642  1.00  0.00     0.214 A 
ATOM      7  C   UNL     1      -0.625  44.986  56.837  1.00  0.00     0.071 A 
ATOM      8  N   UNL     1      -0.295  44.271  54.561  1.00  0.00    -0.201 NA
ATOM      9  C   UNL     1       0.718  45.389  56.919  1.00  0.00     0.037 A 
ATOM     10  C   UNL     1       1.000  44.662  54.651  1.00  0.00     0.149 A 
ATOM     11  C   UNL     1       1.528  45.216  55.799  1.00  0.00     0.103 A 
ATOM     12  S   UNL     1       2.178  44.572  53.462  1.00  0.00    -0.076 S 
ATOM     13  N   UNL     1       2.839  45.557  55.723  1.00  0.00    -0.218 NA
BRANCH   6  14
ATOM     14  O   UNL     1      -2.460  44.028  55.578  1.00  0.00    -0.481 OA
ATOM     15  C   UNL     1      -3.232  44.119  54.386  1.00  0.00     0.280 C 
ENDBRANCH   6  14
ENDBRANCH   1   5
BRANCH   2  16
ATOM     16  N   UNL     1       6.464  46.950  53.076  1.00  0.00    -0.322 N 
ATOM     17  C   UNL     1       6.858  48.257  52.531  1.00  0.00     0.121 C 
ATOM     18  C   UNL     1       7.392  45.811  52.996  1.00  0.00     0.146 C 
ATOM     19  C   UNL     1       8.372  48.330  52.313  1.00  0.00     0.024 C 
ATOM     20  C   UNL     1       8.160  45.830  51.659  1.00  0.00     0.098 C 
ATOM     21  C   UNL     1       8.872  47.189  51.414  1.00  0.00     0.028 C 
BRANCH  20  22
ATOM     22  N   UNL     1       7.246  45.524  50.547  1.00  0.00    -0.381 N 
ATOM     23  H   UNL     1       7.065  46.269  49.836  1.00  0.00     0.160 HD
BRANCH  22  24
ATOM     24  C   UNL     1       6.545  44.273  50.392  1.00  0.00     0.034 A 
ATOM     25  C   UNL     1       5.283  44.043  50.979  1.00  0.00     0.025 A 
ATOM     26  C   UNL     1       7.136  43.249  49.632  1.00  0.00     0.025 A 
ATOM     27  C   UNL     1       4.636  42.816  50.805  1.00  0.00     0.002 A 
ATOM     28  C   UNL     1       6.484  42.024  49.461  1.00  0.00     0.002 A 
ATOM     29  C   UNL     1       5.235  41.807  50.047  1.00  0.00     0.000 A 
ENDBRANCH  22  24
ENDBRANCH  20  22
ENDBRANCH   2  16
TORSDOF 5
ENDMDL
MODEL 4
REMARK VINA RESULT:    -8.569      2.696      7.511
REMARK INTER + INTRA:         -11.364
REMARK INTER:                 -11.460
REMARK INTRA:                   0.095
REMARK UNBOUND:                -0.290
REMARK SMILES COc1ccc2nc(NC(=O)N3CCC[C@H](Nc4ccccc4)C3)sc2n1
REMARK SMILES IDX 9 1 10 2 11 3 8 5 3 6 4 7 27 8 5 9 26 10 6 11 25 12 7 13
REMARK SMILES IDX 2 14 1 15 12 16 13 17 24 18 14 19 16 20 15 21 17 22 18 24
REMARK SMILES IDX 19 25 23 26 20 27 22 28 21 29
REMARK H PARENT 9 4 17 23
ROOT
ATOM      1  N   UNL     1       4.281  44.043  52.661  1.00  0.00    -0.283 N 
ATOM      2  C   UNL     1       5.050  45.029  51.951  1.00  0.00     0.323 C 
ATOM      3  O   UNL     1       4.993  46.241  52.296  1.00  0.00    -0.248 OA
ATOM      4  H   UNL     1       4.513  43.033  52.535  1.00  0.00     0.174 HD
ENDROOT
BRANCH   1   5
ATOM      5  C   UNL     1       3.227  44.367  53.578  1.00  0.00     0.193 A 
ATOM      6  C   UNL     1      -0.111  45.438  56.675  1.00  0.00     0.214 A 
ATOM      7  C   UNL     1      -0.846  44.717  55.709  1.00  0.00     0.071 A 
ATOM      8  N   UNL     1       1.233  45.634  56.509  1.00  0.00    -0.201 NA
ATOM      9  C   UNL     1      -0.197  44.200  54.576  1.00  0.00     0.037 A 
ATOM     10  C   UNL     1       1.849  45.131  55.410  1.00  0.00     0.149 A 
ATOM     11  C   UNL     1       1.171  44.421  54.441  1.00  0.00     0.103 A 
ATOM     12  S   UNL     1       3.472  45.248  55.009  1.00  0.00    -0.076 S 
ATOM     13  N   UNL     1       1.935  43.984  53.408  1.00  0.00    -0.218 NA
BRANCH   6  14
ATOM     14  O   UNL     1      -0.773  45.945  57.797  1.00  0.00    -0.481 OA
ATOM     15  C   UNL     1      -1.361  47.241  57.822  1.00  0.00     0.280 C 
ENDBRANCH   6  14
ENDBRANCH   1   5
BRANCH   2  16
ATOM     16  N   UNL     1       5.918  44.641  50.869  1.00  0.00    -0.322 N 
ATOM     17  C   UNL     1       6.089  43.214  50.563  1.00  0.00     0.121 C 
ATOM     18  C   UNL     1       6.623  45.653  50.067  1.00  0.00     0.146 C 
ATOM     19  C   UNL     1       6.681  43.016  49.165  1.00  0.00     0.024 C 
ATOM     20  C   UNL     1       8.037  45.162  49.694  1.00  0.00     0.098 C 
ATOM     21  C   UNL     1       8.008  43.774  48.998  1.00  0.00     0.028 C 
BRANCH  20  22
ATOM     22  N   UNL     1       8.888  45.115  50.894  1.00  0.00    -0.381 N 
ATOM     23  H   UNL     1       9.466  44.259  51.056  1.00  0.00     0.160 HD
BRANCH  22  24
ATOM     24  C   UNL     1       8.948  46.157  51.889  1.00  0.00     0.034 A 
ATOM     25  C   UNL     1       8.208  47.352  51.770  1.00  0.00     0.025 A 
ATOM     26  C   UNL     1       9.770  45.978  53.016  1.00  0.00     0.025 A 
ATOM     27  C   UNL     1       8.295  48.338  52.757  1.00  0.00     0.002 A 
ATOM     28  C   UNL     1       9.852  46.968  54.000  1.00  0.00     0.002 A 
ATOM     29  C   UNL     1       9.115  48.146  53.872  1.00  0.00     0.000 A 
ENDBRANCH  22  24
ENDBRANCH  20  22
ENDBRANCH   2  16
TORSDOF 5
ENDMDL
MODEL 5
REMARK VINA RESULT:    -7.989      4.219      7.035
REMARK INTER + INTRA:         -10.614
REMARK INTER:                 -10.033
REMARK INTRA:                  -0.581
REMARK UNBOUND:                -0.290
REMARK SMILES COc1ccc2nc(NC(=O)N3CCC[C@H](Nc4ccccc4)C3)sc2n1
REMARK SMILES IDX 9 1 10 2 11 3 8 5 3 6 4 7 27 8 5 9 26 10 6 11 25 12 7 13
REMARK SMILES IDX 2 14 1 15 12 16 13 17 24 18 14 19 16 20 15 21 17 22 18 24
REMARK SMILES IDX 19 25 23 26 20 27 22 28 21 29
REMARK H PARENT 9 4 17 23
ROOT
ATOM      1  N   UNL     1       1.987  46.045  53.578  1.00  0.00    -0.283 N 
ATOM      2  C   UNL     1       1.612  45.308  54.754  1.00  0.00     0.323 C 
ATOM      3  O   UNL     1       2.495  44.948  55.580  1.00  0.00    -0.248 OA
ATOM      4  H   UNL     1       1.247  46.542  53.035  1.00  0.00     0.174 HD
ENDROOT
BRANCH   1   5
ATOM      5  C   UNL     1       3.340  46.177  53.121  1.00  0.00     0.193 A 
ATOM      6  C   UNL     1       7.752  46.748  51.676  1.00  0.00     0.214 A 
ATOM      7  C   UNL     1       7.327  45.677  50.861  1.00  0.00     0.071 A 
ATOM      8  N   UNL     1       6.891  47.304  52.583  1.00  0.00    -0.201 NA
ATOM      9  C   UNL     1       6.018  45.180  50.982  1.00  0.00     0.037 A 
ATOM     10  C   UNL     1       5.631  46.816  52.692  1.00  0.00     0.149 A 
ATOM     11  C   UNL     1       5.172  45.771  51.917  1.00  0.00     0.103 A 
ATOM     12  S   UNL     1       4.419  47.342  53.724  1.00  0.00    -0.076 S 
ATOM     13  N   UNL     1       3.886  45.405  52.147  1.00  0.00    -0.218 NA
BRANCH   6  14
ATOM     14  O   UNL     1       9.057  47.230  51.542  1.00  0.00    -0.481 OA
ATOM     15  C   UNL     1      10.203  46.434  51.822  1.00  0.00     0.280 C 
ENDBRANCH   6  14
ENDBRANCH   1   5
BRANCH   2  16
ATOM     16  N   UNL     1       0.229  45.006  55.021  1.00  0.00    -0.322 N 
ATOM     17  C   UNL     1      -0.708  44.883  53.894  1.00  0.00     0.121 C 
ATOM     18  C   UNL     1      -0.250  44.812  56.398  1.00  0.00     0.146 C 
ATOM     19  C   UNL     1      -1.989  44.161  54.318  1.00  0.00     0.024 C 
ATOM     20  C   UNL     1      -1.663  45.405  56.570  1.00  0.00     0.098 C 
ATOM     21  C   UNL     1      -2.661  44.852  55.515  1.00  0.00     0.028 C 
BRANCH  20  22
ATOM     22  N   UNL     1      -1.606  46.874  56.500  1.00  0.00    -0.381 N 
ATOM     23  H   UNL     1      -1.579  47.323  55.556  1.00  0.00     0.160 HD
BRANCH  22  24
ATOM     24  C   UNL     1      -1.542  47.741  57.651  1.00  0.00     0.034 A 
ATOM     25  C   UNL     1      -0.546  47.601  58.640  1.00  0.00     0.025 A 
ATOM     26  C   UNL     1      -2.501  48.759  57.793  1.00  0.00     0.025 A 
ATOM     27  C   UNL     1      -0.519  48.463  59.741  1.00  0.00     0.002 A 
ATOM     28  C   UNL     1      -2.468  49.616  58.896  1.00  0.00     0.002 A 
ATOM     29  C   UNL     1      -1.478  49.470  59.869  1.00  0.00     0.000 A 
ENDBRANCH  22  24
ENDBRANCH  20  22
ENDBRANCH   2  16
TORSDOF 5
ENDMDL
