MODEL 1
REMARK VINA RESULT:    -8.246      0.000      0.000
REMARK INTER + INTRA:         -11.920
REMARK INTER:                 -11.138
REMARK INTRA:                  -0.782
REMARK UNBOUND:                -0.782
REMARK SMILES N#Cc1cc(N(CC[C@H]2C[C@H](F)C2)Cc2ccns2)ncn1
REMARK SMILES IDX 7 1 6 2 5 3 1 4 2 5 3 6 4 7 22 8 21 9 20 10 14 11 15 12
REMARK SMILES IDX 16 13 19 14 17 15 18 16 8 17 9 18 10 19 13 20 11 21 12 22
REMARK H PARENT
ROOT
ATOM      1  C   UNL     1       7.564  46.138  51.651  1.00  0.00     0.119 C 
ENDROOT
BRANCH   1   2
ATOM      2  N   UNL     1       6.246  45.486  51.743  1.00  0.00    -0.351 N 
BRANCH   2   3
ATOM      3  C   UNL     1       5.604  45.356  53.038  1.00  0.00     0.133 A 
ATOM      4  N   UNL     1       1.103  45.567  54.830  1.00  0.00    -0.191 NA
ATOM      5  C   UNL     1       2.244  45.467  54.670  1.00  0.00     0.120 C 
ATOM      6  C   UNL     1       3.663  45.343  54.472  1.00  0.00     0.145 A 
ATOM      7  C   UNL     1       4.212  45.481  53.195  1.00  0.00     0.087 A 
ATOM      8  N   UNL     1       4.469  45.089  55.533  1.00  0.00    -0.225 NA
ATOM      9  C   UNL     1       5.810  44.965  55.373  1.00  0.00     0.225 A 
ATOM     10  N   UNL     1       6.363  45.098  54.141  1.00  0.00    -0.219 NA
ENDBRANCH   2   3
BRANCH   2  11
ATOM     11  C   UNL     1       5.576  45.064  50.501  1.00  0.00     0.166 C 
BRANCH  11  12
ATOM     12  C   UNL     1       5.593  43.573  50.381  1.00  0.00     0.045 A 
ATOM     13  C   UNL     1       6.559  42.783  49.773  1.00  0.00     0.039 A 
ATOM     14  S   UNL     1       4.441  42.511  50.946  1.00  0.00    -0.040 S 
ATOM     15  C   UNL     1       6.262  41.406  49.836  1.00  0.00     0.126 A 
ATOM     16  N   UNL     1       5.105  41.068  50.462  1.00  0.00    -0.201 NA
ENDBRANCH  11  12
ENDBRANCH   2  11
ENDBRANCH   1   2
BRANCH   1  17
ATOM     17  C   UNL     1       7.522  47.577  52.186  1.00  0.00     0.025 C 
BRANCH  17  18
ATOM     18  C   UNL     1       8.832  47.973  52.894  1.00  0.00    -0.004 C 
ATOM     19  C   UNL     1       8.701  48.021  54.417  1.00  0.00     0.041 C 
ATOM     20  C   UNL     1       9.856  46.843  53.024  1.00  0.00     0.041 C 
ATOM     21  C   UNL     1       9.733  46.907  54.539  1.00  0.00     0.167 C 
ATOM     22  F   UNL     1      10.902  47.347  55.137  1.00  0.00    -0.247 F 
ENDBRANCH  17  18
ENDBRANCH   1  17
TORSDOF 6
ENDMDL
MODEL 2
REMARK VINA RESULT:    -8.036      3.093      6.204
REMARK INTER + INTRA:         -11.636
REMARK INTER:                 -10.965
REMARK INTRA:                  -0.671
REMARK UNBOUND:                -0.782
REMARK SMILES N#Cc1cc(N(CC[C@H]2C[C@H](F)C2)Cc2ccns2)ncn1
REMARK SMILES IDX 7 1 6 2 5 3 1 4 2 5 3 6 4 7 22 8 21 9 20 10 14 11 15 12
REMARK SMILES IDX 16 13 19 14 17 15 18 16 8 17 9 18 10 19 13 20 11 21 12 22
REMARK H PARENT
ROOT
ATOM      1  C   UNL     1       5.526  45.813  51.222  1.00  0.00     0.119 C 
ENDROOT
BRANCH   1   2
ATOM      2  N   UNL     1       6.103  46.626  52.306  1.00  0.00    -0.351 N 
BRANCH   2   3
ATOM      3  C   UNL     1       7.543  46.657  52.485  1.00  0.00     0.133 A 
ATOM      4  N   UNL     1      10.675  47.507  56.089  1.00  0.00    -0.191 NA
ATOM      5  C   UNL     1      10.162  47.265  55.080  1.00  0.00     0.120 C 
ATOM      6  C   UNL     1       9.525  46.965  53.827  1.00  0.00     0.145 A 
ATOM      7  C   UNL     1       8.132  46.953  53.728  1.00  0.00     0.087 A 
ATOM      8  N   UNL     1      10.285  46.690  52.738  1.00  0.00    -0.225 NA
ATOM      9  C   UNL     1       9.709  46.400  51.544  1.00  0.00     0.225 A 
ATOM     10  N   UNL     1       8.358  46.386  51.427  1.00  0.00    -0.219 NA
ENDBRANCH   2   3
BRANCH   2  11
ATOM     11  C   UNL     1       5.203  47.458  53.124  1.00  0.00     0.166 C 
BRANCH  11  12
ATOM     12  C   UNL     1       4.165  46.608  53.785  1.00  0.00     0.045 A 
ATOM     13  C   UNL     1       2.829  46.476  53.433  1.00  0.00     0.039 A 
ATOM     14  S   UNL     1       4.374  45.625  55.113  1.00  0.00    -0.040 S 
ATOM     15  C   UNL     1       2.124  45.590  54.273  1.00  0.00     0.126 A 
ATOM     16  N   UNL     1       2.838  45.017  55.277  1.00  0.00    -0.201 NA
ENDBRANCH  11  12
ENDBRANCH   2  11
ENDBRANCH   1   2
BRANCH   1  17
ATOM     17  C   UNL     1       5.498  44.322  51.587  1.00  0.00     0.025 C 
BRANCH  17  18
ATOM     18  C   UNL     1       5.292  43.423  50.352  1.00  0.00    -0.004 C 
ATOM     19  C   UNL     1       6.603  43.034  49.667  1.00  0.00     0.041 C 
ATOM     20  C   UNL     1       5.029  41.950  50.670  1.00  0.00     0.041 C 
ATOM     21  C   UNL     1       6.327  41.568  49.974  1.00  0.00     0.167 C 
ATOM     22  F   UNL     1       6.101  40.832  48.823  1.00  0.00    -0.247 F 
ENDBRANCH  17  18
ENDBRANCH   1  17
TORSDOF 6
ENDMDL
MODEL 3
REMARK VINA RESULT:    -7.981      1.475      4.485
REMARK INTER + INTRA:         -11.562
REMARK INTER:                 -11.005
REMARK INTRA:                  -0.557
REMARK UNBOUND:                -0.782
REMARK SMILES N#Cc1cc(N(CC[C@H]2C[C@H](F)C2)Cc2ccns2)ncn1
REMARK SMILES IDX 7 1 6 2 5 3 1 4 2 5 3 6 4 7 22 8 21 9 20 10 14 11 15 12
REMARK SMILES IDX 16 13 19 14 17 15 18 16 8 17 9 18 10 19 13 20 11 21 12 22
REMARK H PARENT
ROOT
ATOM      1  C   UNL     1       7.118  46.088  52.563  1.00  0.00     0.119 C 
ENDROOT
BRANCH   1   2
ATOM      2  N   UNL     1       5.980  45.648  51.737  1.00  0.00    -0.351 N 
BRANCH   2   3
ATOM      3  C   UNL     1       6.128  44.485  50.881  1.00  0.00     0.133 A 
ATOM      4  N   UNL     1       3.647  40.436  49.896  1.00  0.00    -0.191 NA
ATOM      5  C   UNL     1       4.419  41.297  49.942  1.00  0.00     0.120 C 
ATOM      6  C   UNL     1       5.377  42.367  50.000  1.00  0.00     0.145 A 
ATOM      7  C   UNL     1       5.169  43.457  50.848  1.00  0.00     0.087 A 
ATOM      8  N   UNL     1       6.487  42.316  49.222  1.00  0.00    -0.225 NA
ATOM      9  C   UNL     1       7.406  43.314  49.255  1.00  0.00     0.225 A 
ATOM     10  N   UNL     1       7.222  44.379  50.075  1.00  0.00    -0.219 NA
ENDBRANCH   2   3
BRANCH   2  11
ATOM     11  C   UNL     1       4.693  46.350  51.872  1.00  0.00     0.166 C 
BRANCH  11  12
ATOM     12  C   UNL     1       4.049  46.013  53.180  1.00  0.00     0.045 A 
ATOM     13  C   UNL     1       4.258  46.625  54.408  1.00  0.00     0.039 A 
ATOM     14  S   UNL     1       2.935  44.809  53.466  1.00  0.00    -0.040 S 
ATOM     15  C   UNL     1       3.488  46.056  55.444  1.00  0.00     0.126 A 
ATOM     16  N   UNL     1       2.683  45.019  55.094  1.00  0.00    -0.201 NA
ENDBRANCH  11  12
ENDBRANCH   2  11
ENDBRANCH   1   2
BRANCH   1  17
ATOM     17  C   UNL     1       7.446  47.570  52.329  1.00  0.00     0.025 C 
BRANCH  17  18
ATOM     18  C   UNL     1       8.792  47.975  52.960  1.00  0.00    -0.004 C 
ATOM     19  C   UNL     1       8.763  47.974  54.489  1.00  0.00     0.041 C 
ATOM     20  C   UNL     1       9.846  46.865  52.986  1.00  0.00     0.041 C 
ATOM     21  C   UNL     1       9.824  46.880  54.507  1.00  0.00     0.167 C 
ATOM     22  F   UNL     1      11.021  47.328  55.040  1.00  0.00    -0.247 F 
ENDBRANCH  17  18
ENDBRANCH   1  17
TORSDOF 6
ENDMDL
MODEL 4
REMARK VINA RESULT:    -7.807      1.454      1.884
REMARK INTER + INTRA:         -11.327
REMARK INTER:                 -10.601
REMARK INTRA:                  -0.726
REMARK UNBOUND:                -0.782
REMARK SMILES N#Cc1cc(N(CC[C@H]2C[C@H](F)C2)Cc2ccns2)ncn1
REMARK SMILES IDX 7 1 6 2 5 3 1 4 2 5 3 6 4 7 22 8 21 9 20 10 14 11 15 12
REMARK SMILES IDX 16 13 19 14 17 15 18 16 8 17 9 18 10 19 13 20 11 21 12 22
REMARK H PARENT
ROOT
ATOM      1  C   UNL     1       6.497  45.848  52.815  1.00  0.00     0.119 C 
ENDROOT
BRANCH   1   2
ATOM      2  N   UNL     1       5.220  45.530  52.154  1.00  0.00    -0.351 N 
BRANCH   2   3
ATOM      3  C   UNL     1       3.991  45.558  52.926  1.00  0.00     0.133 A 
ATOM      4  N   UNL     1      -0.777  45.394  52.057  1.00  0.00    -0.191 NA
ATOM      5  C   UNL     1       0.277  45.450  52.532  1.00  0.00     0.120 C 
ATOM      6  C   UNL     1       1.586  45.518  53.122  1.00  0.00     0.145 A 
ATOM      7  C   UNL     1       2.726  45.486  52.316  1.00  0.00     0.087 A 
ATOM      8  N   UNL     1       1.710  45.612  54.469  1.00  0.00    -0.225 NA
ATOM      9  C   UNL     1       2.934  45.676  55.051  1.00  0.00     0.225 A 
ATOM     10  N   UNL     1       4.053  45.648  54.285  1.00  0.00    -0.219 NA
ENDBRANCH   2   3
BRANCH   2  11
ATOM     11  C   UNL     1       5.216  45.278  50.703  1.00  0.00     0.166 C 
BRANCH  11  12
ATOM     12  C   UNL     1       5.446  43.826  50.425  1.00  0.00     0.045 A 
ATOM     13  C   UNL     1       4.641  42.756  50.792  1.00  0.00     0.039 A 
ATOM     14  S   UNL     1       6.736  43.155  49.614  1.00  0.00    -0.040 S 
ATOM     15  C   UNL     1       5.155  41.512  50.371  1.00  0.00     0.126 A 
ATOM     16  N   UNL     1       6.330  41.546  49.692  1.00  0.00    -0.201 NA
ENDBRANCH  11  12
ENDBRANCH   2  11
ENDBRANCH   1   2
BRANCH   1  17
ATOM     17  C   UNL     1       7.461  46.572  51.864  1.00  0.00     0.025 C 
BRANCH  17  18
ATOM     18  C   UNL     1       8.502  47.418  52.623  1.00  0.00    -0.004 C 
ATOM     19  C   UNL     1       8.425  47.245  54.140  1.00  0.00     0.041 C 
ATOM     20  C   UNL     1       9.916  46.831  52.635  1.00  0.00     0.041 C 
ATOM     21  C   UNL     1       9.838  46.677  54.146  1.00  0.00     0.167 C 
ATOM     22  F   UNL     1      10.730  47.512  54.800  1.00  0.00    -0.247 F 
ENDBRANCH  17  18
ENDBRANCH   1  17
TORSDOF 6
ENDMDL
MODEL 5
REMARK VINA RESULT:    -7.497      2.937      5.498
REMARK INTER + INTRA:         -10.908
REMARK INTER:                 -10.106
REMARK INTRA:                  -0.803
REMARK UNBOUND:                -0.782
REMARK SMILES N#Cc1cc(N(CC[C@H]2C[C@H](F)C2)Cc2ccns2)ncn1
REMARK SMILES IDX 7 1 6 2 5 3 1 4 2 5 3 6 4 7 22 8 21 9 20 10 14 11 15 12
REMARK SMILES IDX 16 13 19 14 17 15 18 16 8 17 9 18 10 19 13 20 11 21 12 22
REMARK H PARENT
ROOT
ATOM      1  C   UNL     1       5.102  45.905  52.970  1.00  0.00     0.119 C 
ENDROOT
BRANCH   1   2
ATOM      2  N   UNL     1       6.036  45.778  51.838  1.00  0.00    -0.351 N 
BRANCH   2   3
ATOM      3  C   UNL     1       7.450  46.030  52.048  1.00  0.00     0.133 A 
ATOM      4  N   UNL     1      10.302  47.593  55.645  1.00  0.00    -0.191 NA
ATOM      5  C   UNL     1       9.865  47.205  54.647  1.00  0.00     0.120 C 
ATOM      6  C   UNL     1       9.321  46.722  53.407  1.00  0.00     0.145 A 
ATOM      7  C   UNL     1       7.948  46.501  53.276  1.00  0.00     0.087 A 
ATOM      8  N   UNL     1      10.149  46.477  52.361  1.00  0.00    -0.225 NA
ATOM      9  C   UNL     1       9.662  46.018  51.181  1.00  0.00     0.225 A 
ATOM     10  N   UNL     1       8.331  45.800  51.034  1.00  0.00    -0.219 NA
ENDBRANCH   2   3
BRANCH   2  11
ATOM     11  C   UNL     1       5.518  45.311  50.541  1.00  0.00     0.166 C 
BRANCH  11  12
ATOM     12  C   UNL     1       5.455  43.816  50.512  1.00  0.00     0.045 A 
ATOM     13  C   UNL     1       6.343  42.944  49.897  1.00  0.00     0.039 A 
ATOM     14  S   UNL     1       4.292  42.850  51.207  1.00  0.00    -0.040 S 
ATOM     15  C   UNL     1       5.986  41.590  50.062  1.00  0.00     0.126 A 
ATOM     16  N   UNL     1       4.855  41.349  50.775  1.00  0.00    -0.201 NA
ENDBRANCH  11  12
ENDBRANCH   2  11
ENDBRANCH   1   2
BRANCH   1  17
ATOM     17  C   UNL     1       3.783  46.565  52.544  1.00  0.00     0.025 C 
BRANCH  17  18
ATOM     18  C   UNL     1       2.627  46.230  53.505  1.00  0.00    -0.004 C 
ATOM     19  C   UNL     1       1.486  45.467  52.830  1.00  0.00     0.041 C 
ATOM     20  C   UNL     1       2.881  45.027  54.417  1.00  0.00     0.041 C 
ATOM     21  C   UNL     1       1.735  44.281  53.751  1.00  0.00     0.167 C 
ATOM     22  F   UNL     1       0.678  44.069  54.621  1.00  0.00    -0.247 F 
ENDBRANCH  17  18
ENDBRANCH   1  17
TORSDOF 6
ENDMDL
