MODEL 1
REMARK VINA RESULT:    -8.560      0.000      0.000
REMARK INTER + INTRA:         -12.026
REMARK INTER:                 -11.062
REMARK INTRA:                  -0.964
REMARK UNBOUND:                -0.964
REMARK SMILES O=C1CCC(=O)N1c1ccc(S(=O)(=O)NC[C@@H]2CCOC2)cn1
REMARK SMILES IDX 12 1 13 2 14 3 11 4 8 5 9 6 23 7 10 8 22 9 7 10 1 11 2 12
REMARK SMILES IDX 3 13 4 14 5 15 6 16 15 17 16 19 17 20 18 21 21 22 19 23
REMARK SMILES IDX 20 24
REMARK H PARENT 15 18
ROOT
ATOM      1  S   UNL     1       2.072  44.227  53.216  1.00  0.00     0.242 S 
ATOM      2  O   UNL     1       1.129  45.108  52.445  1.00  0.00    -0.207 OA
ATOM      3  O   UNL     1       1.617  44.181  54.649  1.00  0.00    -0.207 OA
ENDROOT
BRANCH   1   4
ATOM      4  C   UNL     1       3.696  44.900  53.113  1.00  0.00     0.100 A 
ATOM      5  C   UNL     1       6.279  45.933  52.930  1.00  0.00     0.142 A 
ATOM      6  C   UNL     1       5.262  46.451  52.113  1.00  0.00     0.049 A 
ATOM      7  N   UNL     1       5.988  44.916  53.790  1.00  0.00    -0.237 NA
ATOM      8  C   UNL     1       3.970  45.931  52.210  1.00  0.00     0.027 A 
ATOM      9  C   UNL     1       4.738  44.396  53.901  1.00  0.00     0.135 A 
BRANCH   5  10
ATOM     10  N   UNL     1       7.625  46.435  52.855  1.00  0.00    -0.234 N 
ATOM     11  O   UNL     1       7.852  47.496  54.954  1.00  0.00    -0.274 OA
ATOM     12  C   UNL     1       8.340  47.170  53.840  1.00  0.00     0.235 C 
ATOM     13  C   UNL     1       9.752  47.455  53.450  1.00  0.00     0.111 C 
ATOM     14  C   UNL     1       9.907  46.766  52.081  1.00  0.00     0.111 C 
ATOM     15  C   UNL     1       8.561  46.177  51.820  1.00  0.00     0.235 C 
ATOM     16  O   UNL     1       8.277  45.531  50.777  1.00  0.00    -0.274 OA
ENDBRANCH   5  10
ENDBRANCH   1   4
BRANCH   1  17
ATOM     17  N   UNL     1       2.046  42.628  52.538  1.00  0.00    -0.211 NA
ATOM     18  H   UNL     1       2.755  42.070  53.067  1.00  0.00     0.141 HD
BRANCH  17  19
ATOM     19  C   UNL     1       2.458  42.680  51.132  1.00  0.00     0.105 C 
BRANCH  19  20
ATOM     20  C   UNL     1       3.736  41.848  50.919  1.00  0.00     0.032 C 
ATOM     21  C   UNL     1       4.963  42.678  50.660  1.00  0.00     0.036 C 
ATOM     22  C   UNL     1       3.668  40.979  49.675  1.00  0.00     0.165 C 
ATOM     23  C   UNL     1       5.799  41.772  49.775  1.00  0.00     0.160 C 
ATOM     24  O   UNL     1       4.973  40.800  49.174  1.00  0.00    -0.381 OA
ENDBRANCH  19  20
ENDBRANCH  17  19
ENDBRANCH   1  17
TORSDOF 5
ENDMDL
MODEL 2
REMARK VINA RESULT:    -8.414      0.117      1.591
REMARK INTER + INTRA:         -11.837
REMARK INTER:                 -10.903
REMARK INTRA:                  -0.934
REMARK UNBOUND:                -0.964
REMARK SMILES O=C1CCC(=O)N1c1ccc(S(=O)(=O)NC[C@@H]2CCOC2)cn1
REMARK SMILES IDX 12 1 13 2 14 3 11 4 8 5 9 6 23 7 10 8 22 9 7 10 1 11 2 12
REMARK SMILES IDX 3 13 4 14 5 15 6 16 15 17 16 19 17 20 18 21 21 22 19 23
REMARK SMILES IDX 20 24
REMARK H PARENT 15 18
ROOT
ATOM      1  S   UNL     1       1.962  44.286  53.166  1.00  0.00     0.242 S 
ATOM      2  O   UNL     1       1.061  45.220  52.408  1.00  0.00    -0.207 OA
ATOM      3  O   UNL     1       1.489  44.220  54.593  1.00  0.00    -0.207 OA
ENDROOT
BRANCH   1   4
ATOM      4  C   UNL     1       3.610  44.902  53.098  1.00  0.00     0.100 A 
ATOM      5  C   UNL     1       6.231  45.843  52.969  1.00  0.00     0.142 A 
ATOM      6  C   UNL     1       5.247  46.406  52.142  1.00  0.00     0.049 A 
ATOM      7  N   UNL     1       5.890  44.827  53.812  1.00  0.00    -0.237 NA
ATOM      8  C   UNL     1       3.936  45.932  52.212  1.00  0.00     0.027 A 
ATOM      9  C   UNL     1       4.620  44.351  53.896  1.00  0.00     0.135 A 
BRANCH   5  10
ATOM     10  N   UNL     1       7.596  46.297  52.922  1.00  0.00    -0.234 N 
ATOM     11  O   UNL     1       8.261  45.573  50.774  1.00  0.00    -0.274 OA
ATOM     12  C   UNL     1       8.528  46.154  51.859  1.00  0.00     0.235 C 
ATOM     13  C   UNL     1       9.834  46.825  52.128  1.00  0.00     0.111 C 
ATOM     14  C   UNL     1       9.636  47.485  53.506  1.00  0.00     0.111 C 
ATOM     15  C   UNL     1       8.246  47.105  53.891  1.00  0.00     0.235 C 
ATOM     16  O   UNL     1       7.708  47.451  54.976  1.00  0.00    -0.274 OA
ENDBRANCH   5  10
ENDBRANCH   1   4
BRANCH   1  17
ATOM     17  N   UNL     1       1.886  42.706  52.448  1.00  0.00    -0.211 NA
ATOM     18  H   UNL     1       2.519  42.094  53.011  1.00  0.00     0.141 HD
BRANCH  17  19
ATOM     19  C   UNL     1       2.400  42.762  51.076  1.00  0.00     0.105 C 
BRANCH  19  20
ATOM     20  C   UNL     1       3.660  41.888  50.942  1.00  0.00     0.032 C 
ATOM     21  C   UNL     1       4.922  42.673  50.716  1.00  0.00     0.036 C 
ATOM     22  C   UNL     1       3.621  40.986  49.719  1.00  0.00     0.165 C 
ATOM     23  C   UNL     1       5.768  41.720  49.894  1.00  0.00     0.160 C 
ATOM     24  O   UNL     1       4.940  40.756  49.282  1.00  0.00    -0.381 OA
ENDBRANCH  19  20
ENDBRANCH  17  19
ENDBRANCH   1  17
TORSDOF 5
ENDMDL
MODEL 3
REMARK VINA RESULT:    -8.047      2.317      4.162
REMARK INTER + INTRA:         -11.363
REMARK INTER:                 -10.755
REMARK INTRA:                  -0.608
REMARK UNBOUND:                -0.964
REMARK SMILES O=C1CCC(=O)N1c1ccc(S(=O)(=O)NC[C@@H]2CCOC2)cn1
REMARK SMILES IDX 12 1 13 2 14 3 11 4 8 5 9 6 23 7 10 8 22 9 7 10 1 11 2 12
REMARK SMILES IDX 3 13 4 14 5 15 6 16 15 17 16 19 17 20 18 21 21 22 19 23
REMARK SMILES IDX 20 24
REMARK H PARENT 15 18
ROOT
ATOM      1  S   UNL     1       2.146  43.891  52.128  1.00  0.00     0.242 S 
ATOM      2  O   UNL     1       2.275  42.755  51.153  1.00  0.00    -0.207 OA
ATOM      3  O   UNL     1       1.155  44.881  51.579  1.00  0.00    -0.207 OA
ENDROOT
BRANCH   1   4
ATOM      4  C   UNL     1       3.721  44.653  52.329  1.00  0.00     0.100 A 
ATOM      5  C   UNL     1       6.232  45.826  52.631  1.00  0.00     0.142 A 
ATOM      6  C   UNL     1       5.388  46.244  51.590  1.00  0.00     0.049 A 
ATOM      7  N   UNL     1       5.813  44.836  53.470  1.00  0.00    -0.237 NA
ATOM      8  C   UNL     1       4.132  45.654  51.444  1.00  0.00     0.027 A 
ATOM      9  C   UNL     1       4.594  44.249  53.346  1.00  0.00     0.135 A 
BRANCH   5  10
ATOM     10  N   UNL     1       7.538  46.402  52.811  1.00  0.00    -0.234 N 
ATOM     11  O   UNL     1       7.335  47.376  54.954  1.00  0.00    -0.274 OA
ATOM     12  C   UNL     1       8.026  47.128  53.932  1.00  0.00     0.235 C 
ATOM     13  C   UNL     1       9.465  47.506  53.805  1.00  0.00     0.111 C 
ATOM     14  C   UNL     1       9.895  46.890  52.461  1.00  0.00     0.111 C 
ATOM     15  C   UNL     1       8.652  46.243  51.947  1.00  0.00     0.235 C 
ATOM     16  O   UNL     1       8.592  45.631  50.848  1.00  0.00    -0.274 OA
ENDBRANCH   5  10
ENDBRANCH   1   4
BRANCH   1  17
ATOM     17  N   UNL     1       1.582  43.278  53.653  1.00  0.00    -0.211 NA
ATOM     18  H   UNL     1       1.598  42.235  53.577  1.00  0.00     0.141 HD
BRANCH  17  19
ATOM     19  C   UNL     1       0.196  43.701  53.874  1.00  0.00     0.105 C 
BRANCH  19  20
ATOM     20  C   UNL     1       0.138  44.802  54.947  1.00  0.00     0.032 C 
ATOM     21  C   UNL     1       1.399  44.924  55.760  1.00  0.00     0.036 C 
ATOM     22  C   UNL     1      -0.906  44.526  56.016  1.00  0.00     0.165 C 
ATOM     23  C   UNL     1       0.887  45.415  57.101  1.00  0.00     0.160 C 
ATOM     24  O   UNL     1      -0.486  45.114  57.225  1.00  0.00    -0.381 OA
ENDBRANCH  19  20
ENDBRANCH  17  19
ENDBRANCH   1  17
TORSDOF 5
ENDMDL
MODEL 4
REMARK VINA RESULT:    -7.956      2.335      4.482
REMARK INTER + INTRA:         -11.246
REMARK INTER:                 -10.708
REMARK INTRA:                  -0.538
REMARK UNBOUND:                -0.964
REMARK SMILES O=C1CCC(=O)N1c1ccc(S(=O)(=O)NC[C@@H]2CCOC2)cn1
REMARK SMILES IDX 12 1 13 2 14 3 11 4 8 5 9 6 23 7 10 8 22 9 7 10 1 11 2 12
REMARK SMILES IDX 3 13 4 14 5 15 6 16 15 17 16 19 17 20 18 21 21 22 19 23
REMARK SMILES IDX 20 24
REMARK H PARENT 15 18
ROOT
ATOM      1  S   UNL     1       2.142  43.896  52.177  1.00  0.00     0.242 S 
ATOM      2  O   UNL     1       2.236  42.710  51.260  1.00  0.00    -0.207 OA
ATOM      3  O   UNL     1       1.198  44.897  51.569  1.00  0.00    -0.207 OA
ENDROOT
BRANCH   1   4
ATOM      4  C   UNL     1       3.744  44.604  52.362  1.00  0.00     0.100 A 
ATOM      5  C   UNL     1       6.296  45.689  52.642  1.00  0.00     0.142 A 
ATOM      6  C   UNL     1       5.507  46.041  51.536  1.00  0.00     0.049 A 
ATOM      7  N   UNL     1       5.805  44.804  53.555  1.00  0.00    -0.237 NA
ATOM      8  C   UNL     1       4.229  45.496  51.401  1.00  0.00     0.027 A 
ATOM      9  C   UNL     1       4.564  44.262  53.443  1.00  0.00     0.135 A 
BRANCH   5  10
ATOM     10  N   UNL     1       7.622  46.222  52.813  1.00  0.00    -0.234 N 
ATOM     11  O   UNL     1       8.653  45.587  50.784  1.00  0.00    -0.274 OA
ATOM     12  C   UNL     1       8.714  46.157  51.904  1.00  0.00     0.235 C 
ATOM     13  C   UNL     1       9.920  46.896  52.382  1.00  0.00     0.111 C 
ATOM     14  C   UNL     1       9.473  47.511  53.722  1.00  0.00     0.111 C 
ATOM     15  C   UNL     1       8.066  47.043  53.882  1.00  0.00     0.235 C 
ATOM     16  O   UNL     1       7.347  47.332  54.875  1.00  0.00    -0.274 OA
ENDBRANCH   5  10
ENDBRANCH   1   4
BRANCH   1  17
ATOM     17  N   UNL     1       1.537  43.380  53.722  1.00  0.00    -0.211 NA
ATOM     18  H   UNL     1       1.525  42.335  53.702  1.00  0.00     0.141 HD
BRANCH  17  19
ATOM     19  C   UNL     1       0.160  43.853  53.897  1.00  0.00     0.105 C 
BRANCH  19  20
ATOM     20  C   UNL     1       0.102  44.937  54.988  1.00  0.00     0.032 C 
ATOM     21  C   UNL     1       1.389  45.102  55.748  1.00  0.00     0.036 C 
ATOM     22  C   UNL     1      -0.883  44.602  56.096  1.00  0.00     0.165 C 
ATOM     23  C   UNL     1       0.915  45.553  57.117  1.00  0.00     0.160 C 
ATOM     24  O   UNL     1      -0.437  45.192  57.295  1.00  0.00    -0.381 OA
ENDBRANCH  19  20
ENDBRANCH  17  19
ENDBRANCH   1  17
TORSDOF 5
ENDMDL
MODEL 5
REMARK VINA RESULT:    -7.577      2.265      2.962
REMARK INTER + INTRA:         -10.756
REMARK INTER:                 -10.010
REMARK INTRA:                  -0.746
REMARK UNBOUND:                -0.964
REMARK SMILES O=C1CCC(=O)N1c1ccc(S(=O)(=O)NC[C@@H]2CCOC2)cn1
REMARK SMILES IDX 12 1 13 2 14 3 11 4 8 5 9 6 23 7 10 8 22 9 7 10 1 11 2 12
REMARK SMILES IDX 3 13 4 14 5 15 6 16 15 17 16 19 17 20 18 21 21 22 19 23
REMARK SMILES IDX 20 24
REMARK H PARENT 15 18
ROOT
ATOM      1  S   UNL     1       1.977  44.961  54.557  1.00  0.00     0.242 S 
ATOM      2  O   UNL     1       1.028  45.879  53.840  1.00  0.00    -0.207 OA
ATOM      3  O   UNL     1       1.768  45.120  56.038  1.00  0.00    -0.207 OA
ENDROOT
BRANCH   1   4
ATOM      4  C   UNL     1       3.628  45.395  54.125  1.00  0.00     0.100 A 
ATOM      5  C   UNL     1       6.238  46.116  53.463  1.00  0.00     0.142 A 
ATOM      6  C   UNL     1       6.013  45.107  54.412  1.00  0.00     0.049 A 
ATOM      7  N   UNL     1       5.170  46.742  52.892  1.00  0.00    -0.237 NA
ATOM      8  C   UNL     1       4.705  44.749  54.739  1.00  0.00     0.027 A 
ATOM      9  C   UNL     1       3.888  46.409  53.195  1.00  0.00     0.135 A 
BRANCH   5  10
ATOM     10  N   UNL     1       7.572  46.520  53.105  1.00  0.00    -0.234 N 
ATOM     11  O   UNL     1       8.302  47.560  55.097  1.00  0.00    -0.274 OA
ATOM     12  C   UNL     1       8.525  47.201  53.911  1.00  0.00     0.235 C 
ATOM     13  C   UNL     1       9.842  47.384  53.234  1.00  0.00     0.111 C 
ATOM     14  C   UNL     1       9.662  46.687  51.872  1.00  0.00     0.111 C 
ATOM     15  C   UNL     1       8.253  46.197  51.903  1.00  0.00     0.235 C 
ATOM     16  O   UNL     1       7.715  45.574  50.950  1.00  0.00    -0.274 OA
ENDBRANCH   5  10
ENDBRANCH   1   4
BRANCH   1  17
ATOM     17  N   UNL     1       1.650  43.320  54.090  1.00  0.00    -0.211 NA
ATOM     18  H   UNL     1       2.207  42.712  54.733  1.00  0.00     0.141 HD
BRANCH  17  19
ATOM     19  C   UNL     1       2.123  43.092  52.720  1.00  0.00     0.105 C 
BRANCH  19  20
ATOM     20  C   UNL     1       0.946  42.702  51.808  1.00  0.00     0.032 C 
ATOM     21  C   UNL     1       0.404  43.845  50.995  1.00  0.00     0.036 C 
ATOM     22  C   UNL     1      -0.278  42.255  52.588  1.00  0.00     0.165 C 
ATOM     23  C   UNL     1      -1.059  43.479  50.836  1.00  0.00     0.160 C 
ATOM     24  O   UNL     1      -1.432  42.560  51.839  1.00  0.00    -0.381 OA
ENDBRANCH  19  20
ENDBRANCH  17  19
ENDBRANCH   1  17
TORSDOF 5
ENDMDL
