MODEL 1
REMARK VINA RESULT:    -8.291      0.000      0.000
REMARK INTER + INTRA:         -10.493
REMARK INTER:                 -10.229
REMARK INTRA:                  -0.264
REMARK UNBOUND:                -0.264
REMARK SMILES CN1CCC[C@@H](N2CCN(C(=O)Cc3csc(-c4cccs4)n3)CC2)C1
REMARK SMILES IDX 7 1 8 2 9 3 10 4 24 5 25 6 11 7 12 8 6 9 2 10 3 11 26 12
REMARK SMILES IDX 4 13 5 14 1 15 13 16 14 17 15 18 23 19 16 20 17 21 18 22
REMARK SMILES IDX 19 23 22 24 20 25 21 26
REMARK H PARENT
ROOT
ATOM      1  N   UNL     1      -0.160  44.548  54.550  1.00  0.00    -0.296 NA
ATOM      2  C   UNL     1       0.712  45.530  55.233  1.00  0.00     0.106 C 
ATOM      3  C   UNL     1       2.014  45.691  54.448  1.00  0.00     0.135 C 
ATOM      4  N   UNL     1       1.725  46.015  53.046  1.00  0.00    -0.340 N 
ATOM      5  C   UNL     1       0.709  45.221  52.342  1.00  0.00     0.135 C 
ATOM      6  C   UNL     1      -0.538  45.048  53.213  1.00  0.00     0.106 C 
ATOM      7  C   UNL     1       2.685  46.798  52.309  1.00  0.00     0.228 C 
ATOM      8  O   UNL     1       3.155  47.849  52.824  1.00  0.00    -0.274 OA
ENDROOT
BRANCH   1   9
ATOM      9  C   UNL     1      -1.343  44.100  55.336  1.00  0.00     0.071 C 
ATOM     10  N   UNL     1      -2.476  44.408  57.566  1.00  0.00    -0.305 NA
ATOM     11  C   UNL     1      -3.591  45.208  56.992  1.00  0.00     0.084 C 
ATOM     12  C   UNL     1      -1.206  44.530  56.821  1.00  0.00     0.103 C 
ATOM     13  C   UNL     1      -3.382  45.623  55.521  1.00  0.00     0.017 C 
ATOM     14  C   UNL     1      -2.714  44.505  54.723  1.00  0.00     0.022 C 
ATOM     15  C   UNL     1      -2.855  43.004  57.800  1.00  0.00     0.105 C 
ENDBRANCH   1   9
BRANCH   7  16
ATOM     16  C   UNL     1       3.222  46.339  50.981  1.00  0.00     0.157 C 
BRANCH  16  17
ATOM     17  C   UNL     1       4.629  45.857  51.148  1.00  0.00     0.061 A 
ATOM     18  C   UNL     1       5.156  44.783  50.435  1.00  0.00     0.091 A 
ATOM     19  N   UNL     1       5.513  46.505  51.954  1.00  0.00    -0.240 NA
ATOM     20  S   UNL     1       6.779  44.639  50.850  1.00  0.00    -0.121 S 
ATOM     21  C   UNL     1       6.743  45.950  51.906  1.00  0.00     0.133 A 
BRANCH  21  22
ATOM     22  C   UNL     1       7.891  46.462  52.665  1.00  0.00     0.063 A 
ATOM     23  C   UNL     1       9.216  46.441  52.244  1.00  0.00     0.023 A 
ATOM     24  S   UNL     1       7.826  47.161  54.193  1.00  0.00    -0.141 S 
ATOM     25  C   UNL     1      10.100  46.992  53.179  1.00  0.00     0.012 A 
ATOM     26  C   UNL     1       9.477  47.446  54.335  1.00  0.00     0.065 A 
ENDBRANCH  21  22
ENDBRANCH  16  17
ENDBRANCH   7  16
TORSDOF 4
ENDMDL
MODEL 2
REMARK VINA RESULT:    -8.058      3.724      9.090
REMARK INTER + INTRA:         -10.206
REMARK INTER:                  -9.554
REMARK INTRA:                  -0.651
REMARK UNBOUND:                -0.264
REMARK SMILES CN1CCC[C@@H](N2CCN(C(=O)Cc3csc(-c4cccs4)n3)CC2)C1
REMARK SMILES IDX 7 1 8 2 9 3 10 4 24 5 25 6 11 7 12 8 6 9 2 10 3 11 26 12
REMARK SMILES IDX 4 13 5 14 1 15 13 16 14 17 15 18 23 19 16 20 17 21 18 22
REMARK SMILES IDX 19 23 22 24 20 25 21 26
REMARK H PARENT
ROOT
ATOM      1  N   UNL     1       5.828  46.311  53.447  1.00  0.00    -0.296 NA
ATOM      2  C   UNL     1       5.060  46.647  52.228  1.00  0.00     0.106 C 
ATOM      3  C   UNL     1       3.880  45.685  52.086  1.00  0.00     0.135 C 
ATOM      4  N   UNL     1       3.083  45.674  53.317  1.00  0.00    -0.340 N 
ATOM      5  C   UNL     1       3.784  45.557  54.602  1.00  0.00     0.135 C 
ATOM      6  C   UNL     1       4.988  46.502  54.646  1.00  0.00     0.106 C 
ATOM      7  C   UNL     1       1.674  45.384  53.221  1.00  0.00     0.228 C 
ATOM      8  O   UNL     1       0.976  45.976  52.354  1.00  0.00    -0.274 OA
ENDROOT
BRANCH   1   9
ATOM      9  C   UNL     1       7.146  46.996  53.572  1.00  0.00     0.071 C 
ATOM     10  N   UNL     1       9.604  46.528  53.874  1.00  0.00    -0.305 NA
ATOM     11  C   UNL     1       9.938  46.885  52.469  1.00  0.00     0.084 C 
ATOM     12  C   UNL     1       8.236  45.998  54.048  1.00  0.00     0.103 C 
ATOM     13  C   UNL     1       8.711  47.091  51.558  1.00  0.00     0.017 C 
ATOM     14  C   UNL     1       7.580  47.793  52.308  1.00  0.00     0.022 C 
ATOM     15  C   UNL     1       9.907  47.617  54.817  1.00  0.00     0.105 C 
ENDBRANCH   1   9
BRANCH   7  16
ATOM     16  C   UNL     1       1.032  44.314  54.061  1.00  0.00     0.157 C 
BRANCH  16  17
ATOM     17  C   UNL     1      -0.020  44.924  54.933  1.00  0.00     0.061 A 
ATOM     18  C   UNL     1      -1.381  44.672  54.775  1.00  0.00     0.091 A 
ATOM     19  N   UNL     1       0.303  45.703  56.001  1.00  0.00    -0.240 NA
ATOM     20  S   UNL     1      -2.196  45.472  56.009  1.00  0.00    -0.121 S 
ATOM     21  C   UNL     1      -0.789  46.093  56.692  1.00  0.00     0.133 A 
BRANCH  21  22
ATOM     22  C   UNL     1      -0.725  46.926  57.900  1.00  0.00     0.063 A 
ATOM     23  C   UNL     1       0.415  47.172  58.656  1.00  0.00     0.023 A 
ATOM     24  S   UNL     1      -2.021  47.732  58.607  1.00  0.00    -0.141 S 
ATOM     25  C   UNL     1       0.177  47.998  59.761  1.00  0.00     0.012 A 
ATOM     26  C   UNL     1      -1.148  48.403  59.878  1.00  0.00     0.065 A 
ENDBRANCH  21  22
ENDBRANCH  16  17
ENDBRANCH   7  16
TORSDOF 4
ENDMDL
MODEL 3
REMARK VINA RESULT:    -7.873      3.389      8.751
REMARK INTER + INTRA:          -9.978
REMARK INTER:                  -9.255
REMARK INTRA:                  -0.723
REMARK UNBOUND:                -0.264
REMARK SMILES CN1CCC[C@@H](N2CCN(C(=O)Cc3csc(-c4cccs4)n3)CC2)C1
REMARK SMILES IDX 7 1 8 2 9 3 10 4 24 5 25 6 11 7 12 8 6 9 2 10 3 11 26 12
REMARK SMILES IDX 4 13 5 14 1 15 13 16 14 17 15 18 23 19 16 20 17 21 18 22
REMARK SMILES IDX 19 23 22 24 20 25 21 26
REMARK H PARENT
ROOT
ATOM      1  N   UNL     1       5.946  46.365  52.917  1.00  0.00    -0.296 NA
ATOM      2  C   UNL     1       5.828  45.067  53.618  1.00  0.00     0.106 C 
ATOM      3  C   UNL     1       4.415  44.514  53.437  1.00  0.00     0.135 C 
ATOM      4  N   UNL     1       4.068  44.462  52.013  1.00  0.00    -0.340 N 
ATOM      5  C   UNL     1       4.347  45.642  51.184  1.00  0.00     0.135 C 
ATOM      6  C   UNL     1       5.753  46.177  51.465  1.00  0.00     0.106 C 
ATOM      7  C   UNL     1       3.135  43.456  51.569  1.00  0.00     0.228 C 
ATOM      8  O   UNL     1       3.290  42.261  51.937  1.00  0.00    -0.274 OA
ENDROOT
BRANCH   1   9
ATOM      9  C   UNL     1       7.181  47.140  53.223  1.00  0.00     0.071 C 
ATOM     10  N   UNL     1       9.413  46.940  54.376  1.00  0.00    -0.305 NA
ATOM     11  C   UNL     1      10.172  46.892  53.097  1.00  0.00     0.084 C 
ATOM     12  C   UNL     1       8.042  46.397  54.279  1.00  0.00     0.103 C 
ATOM     13  C   UNL     1       9.290  46.743  51.841  1.00  0.00     0.017 C 
ATOM     14  C   UNL     1       8.005  47.559  51.971  1.00  0.00     0.022 C 
ATOM     15  C   UNL     1       9.444  48.275  54.997  1.00  0.00     0.105 C 
ENDBRANCH   1   9
BRANCH   7  16
ATOM     16  C   UNL     1       1.920  43.814  50.759  1.00  0.00     0.157 C 
BRANCH  16  17
ATOM     17  C   UNL     1       0.714  43.835  51.646  1.00  0.00     0.061 A 
ATOM     18  C   UNL     1      -0.479  43.190  51.325  1.00  0.00     0.091 A 
ATOM     19  N   UNL     1       0.742  44.421  52.873  1.00  0.00    -0.240 NA
ATOM     20  S   UNL     1      -1.530  43.383  52.623  1.00  0.00    -0.121 S 
ATOM     21  C   UNL     1      -0.424  44.265  53.535  1.00  0.00     0.133 A 
BRANCH  21  22
ATOM     22  C   UNL     1      -0.660  44.785  54.888  1.00  0.00     0.063 A 
ATOM     23  C   UNL     1       0.324  45.089  55.823  1.00  0.00     0.023 A 
ATOM     24  S   UNL     1      -2.164  45.099  55.573  1.00  0.00    -0.141 S 
ATOM     25  C   UNL     1      -0.195  45.560  57.035  1.00  0.00     0.012 A 
ATOM     26  C   UNL     1      -1.583  45.626  57.059  1.00  0.00     0.065 A 
ENDBRANCH  21  22
ENDBRANCH  16  17
ENDBRANCH   7  16
TORSDOF 4
ENDMDL
MODEL 4
REMARK VINA RESULT:    -7.842      3.638      7.889
REMARK INTER + INTRA:          -9.939
REMARK INTER:                  -9.735
REMARK INTRA:                  -0.205
REMARK UNBOUND:                -0.264
REMARK SMILES CN1CCC[C@@H](N2CCN(C(=O)Cc3csc(-c4cccs4)n3)CC2)C1
REMARK SMILES IDX 7 1 8 2 9 3 10 4 24 5 25 6 11 7 12 8 6 9 2 10 3 11 26 12
REMARK SMILES IDX 4 13 5 14 1 15 13 16 14 17 15 18 23 19 16 20 17 21 18 22
REMARK SMILES IDX 19 23 22 24 20 25 21 26
REMARK H PARENT
ROOT
ATOM      1  N   UNL     1       5.859  46.520  53.737  1.00  0.00    -0.296 NA
ATOM      2  C   UNL     1       4.744  47.491  53.803  1.00  0.00     0.106 C 
ATOM      3  C   UNL     1       3.425  46.776  53.511  1.00  0.00     0.135 C 
ATOM      4  N   UNL     1       3.268  45.617  54.395  1.00  0.00    -0.340 N 
ATOM      5  C   UNL     1       4.407  44.704  54.559  1.00  0.00     0.135 C 
ATOM      6  C   UNL     1       5.701  45.492  54.784  1.00  0.00     0.106 C 
ATOM      7  C   UNL     1       1.935  45.197  54.749  1.00  0.00     0.228 C 
ATOM      8  O   UNL     1       1.098  46.054  55.140  1.00  0.00    -0.274 OA
ENDROOT
BRANCH   1   9
ATOM      9  C   UNL     1       7.222  47.122  53.744  1.00  0.00     0.071 C 
ATOM     10  N   UNL     1       9.664  46.502  53.784  1.00  0.00    -0.305 NA
ATOM     11  C   UNL     1       9.878  46.881  52.361  1.00  0.00     0.084 C 
ATOM     12  C   UNL     1       8.290  46.048  54.083  1.00  0.00     0.103 C 
ATOM     13  C   UNL     1       8.581  47.186  51.585  1.00  0.00     0.017 C 
ATOM     14  C   UNL     1       7.576  47.930  52.462  1.00  0.00     0.022 C 
ATOM     15  C   UNL     1      10.126  47.543  54.718  1.00  0.00     0.105 C 
ENDBRANCH   1   9
BRANCH   7  16
ATOM     16  C   UNL     1       1.484  43.774  54.566  1.00  0.00     0.157 C 
BRANCH  16  17
ATOM     17  C   UNL     1       1.657  43.373  53.134  1.00  0.00     0.061 A 
ATOM     18  C   UNL     1       0.649  43.497  52.181  1.00  0.00     0.091 A 
ATOM     19  N   UNL     1       2.855  42.939  52.656  1.00  0.00    -0.240 NA
ATOM     20  S   UNL     1       1.286  43.027  50.697  1.00  0.00    -0.121 S 
ATOM     21  C   UNL     1       2.812  42.698  51.328  1.00  0.00     0.133 A 
BRANCH  21  22
ATOM     22  C   UNL     1       3.971  42.237  50.553  1.00  0.00     0.063 A 
ATOM     23  C   UNL     1       5.250  42.779  50.608  1.00  0.00     0.023 A 
ATOM     24  S   UNL     1       3.971  40.975  49.441  1.00  0.00    -0.141 S 
ATOM     25  C   UNL     1       6.156  42.142  49.751  1.00  0.00     0.012 A 
ATOM     26  C   UNL     1       5.594  41.102  49.021  1.00  0.00     0.065 A 
ENDBRANCH  21  22
ENDBRANCH  16  17
ENDBRANCH   7  16
TORSDOF 4
ENDMDL
MODEL 5
REMARK VINA RESULT:    -7.457      2.771      4.634
REMARK INTER + INTRA:          -9.464
REMARK INTER:                  -9.535
REMARK INTRA:                   0.071
REMARK UNBOUND:                -0.264
REMARK SMILES CN1CCC[C@@H](N2CCN(C(=O)Cc3csc(-c4cccs4)n3)CC2)C1
REMARK SMILES IDX 7 1 8 2 9 3 10 4 24 5 25 6 11 7 12 8 6 9 2 10 3 11 26 12
REMARK SMILES IDX 4 13 5 14 1 15 13 16 14 17 15 18 23 19 16 20 17 21 18 22
REMARK SMILES IDX 19 23 22 24 20 25 21 26
REMARK H PARENT
ROOT
ATOM      1  N   UNL     1       2.263  45.347  53.231  1.00  0.00    -0.296 NA
ATOM      2  C   UNL     1       3.114  45.053  54.405  1.00  0.00     0.106 C 
ATOM      3  C   UNL     1       4.586  45.141  54.005  1.00  0.00     0.135 C 
ATOM      4  N   UNL     1       4.865  46.432  53.369  1.00  0.00    -0.340 N 
ATOM      5  C   UNL     1       3.944  46.910  52.329  1.00  0.00     0.135 C 
ATOM      6  C   UNL     1       2.490  46.733  52.773  1.00  0.00     0.106 C 
ATOM      7  C   UNL     1       6.191  46.986  53.486  1.00  0.00     0.228 C 
ATOM      8  O   UNL     1       6.751  47.021  54.615  1.00  0.00    -0.274 OA
ENDROOT
BRANCH   1   9
ATOM      9  C   UNL     1       0.814  45.045  53.407  1.00  0.00     0.071 C 
ATOM     10  N   UNL     1      -1.247  44.391  52.115  1.00  0.00    -0.305 NA
ATOM     11  C   UNL     1      -1.245  42.999  52.638  1.00  0.00     0.084 C 
ATOM     12  C   UNL     1       0.095  45.002  52.033  1.00  0.00     0.103 C 
ATOM     13  C   UNL     1       0.027  42.618  53.422  1.00  0.00     0.017 C 
ATOM     14  C   UNL     1       0.520  43.787  54.273  1.00  0.00     0.022 C 
ATOM     15  C   UNL     1      -2.213  45.253  52.817  1.00  0.00     0.105 C 
ENDBRANCH   1   9
BRANCH   7  16
ATOM     16  C   UNL     1       6.968  47.428  52.277  1.00  0.00     0.157 C 
BRANCH  16  17
ATOM     17  C   UNL     1       7.248  46.248  51.400  1.00  0.00     0.061 A 
ATOM     18  C   UNL     1       8.490  46.011  50.815  1.00  0.00     0.091 A 
ATOM     19  N   UNL     1       6.316  45.278  51.192  1.00  0.00    -0.240 NA
ATOM     20  S   UNL     1       8.399  44.544  49.998  1.00  0.00    -0.121 S 
ATOM     21  C   UNL     1       6.795  44.272  50.430  1.00  0.00     0.133 A 
BRANCH  21  22
ATOM     22  C   UNL     1       6.006  43.088  50.065  1.00  0.00     0.063 A 
ATOM     23  C   UNL     1       6.281  42.224  49.012  1.00  0.00     0.023 A 
ATOM     24  S   UNL     1       4.612  42.558  50.843  1.00  0.00    -0.141 S 
ATOM     25  C   UNL     1       5.351  41.184  48.896  1.00  0.00     0.012 A 
ATOM     26  C   UNL     1       4.345  41.226  49.853  1.00  0.00     0.065 A 
ENDBRANCH  21  22
ENDBRANCH  16  17
ENDBRANCH   7  16
TORSDOF 4
ENDMDL
