ligand_98_conformer_1_docked
     RDKit          3D

 49 51  0  0  0  0  0  0  0  0999 V2000
    9.2960   45.4360   51.2040 C   0  0  0  0  0  0  0  0  0  0  0  0
    9.5130   46.8430   51.7800 C   0  0  2  0  0  0  0  0  0  0  0  0
   10.6150   46.8220   52.6610 O   0  0  0  0  0  0  0  0  0  0  0  0
   10.1020   46.8520   53.9710 C   0  0  0  0  0  0  0  0  0  0  0  0
    8.7900   47.6140   53.9610 C   0  0  0  0  0  0  0  0  0  0  0  0
    8.2980   47.4780   52.5200 C   0  0  1  0  0  0  0  0  0  0  0  0
    8.0130   48.8870   51.9470 C   0  0  0  0  0  0  0  0  0  0  0  0
    7.0570   46.6720   52.4140 N   0  0  0  0  0  0  0  0  0  0  0  0
    5.7910   46.9390   53.0540 C   0  0  0  0  0  0  0  0  0  0  0  0
    5.6440   47.9380   53.8090 O   0  0  0  0  0  0  0  0  0  0  0  0
    4.6130   46.0270   52.8090 C   0  0  0  0  0  0  0  0  0  0  0  0
    5.0680   44.5600   52.7150 C   0  0  0  0  0  0  0  0  0  0  0  0
    3.8790   43.6590   52.3540 C   0  0  0  0  0  0  0  0  0  0  0  0
    2.6660   44.0480   53.0870 N   0  0  0  0  0  0  0  0  0  0  0  0
    1.3950   43.4850   52.7150 C   0  0  0  0  0  0  0  0  0  0  0  0
    0.8270   42.4540   53.4810 C   0  0  0  0  0  0  0  0  0  0  0  0
   -0.4180   41.9220   53.1350 C   0  0  0  0  0  0  0  0  0  0  0  0
   -1.1050   42.4090   52.0160 C   0  0  0  0  0  0  0  0  0  0  0  0
   -2.3910   41.8700   51.6640 C   0  0  0  0  0  0  0  0  0  0  0  0
   -3.4290   41.4390   51.3800 N   0  0  0  0  0  0  0  0  0  0  0  0
   -0.5410   43.4300   51.2440 C   0  0  0  0  0  0  0  0  0  0  0  0
    0.7060   43.9650   51.5880 C   0  0  0  0  0  0  0  0  0  0  0  0
    1.2430   44.9430   50.8160 F   0  0  0  0  0  0  0  0  0  0  0  0
    2.7680   44.9390   54.2510 C   0  0  0  0  0  0  0  0  0  0  0  0
    3.5280   46.2300   53.8970 C   0  0  0  0  0  0  0  0  0  0  0  0
    9.1849   44.7156   52.0279 H   0  0  0  0  0  0  0  0  0  0  0  0
    8.3862   45.4292   50.5858 H   0  0  0  0  0  0  0  0  0  0  0  0
   10.1615   45.1554   50.5858 H   0  0  0  0  0  0  0  0  0  0  0  0
    9.6835   47.4795   50.8992 H   0  0  0  0  0  0  0  0  0  0  0  0
    9.9310   45.8248   54.3254 H   0  0  0  0  0  0  0  0  0  0  0  0
   10.8183   47.3469   54.6433 H   0  0  0  0  0  0  0  0  0  0  0  0
    8.0719   47.1664   54.6638 H   0  0  0  0  0  0  0  0  0  0  0  0
    8.9055   48.6625   54.2731 H   0  0  0  0  0  0  0  0  0  0  0  0
    7.8693   49.5972   52.7746 H   0  0  0  0  0  0  0  0  0  0  0  0
    8.8639   49.2107   51.3295 H   0  0  0  0  0  0  0  0  0  0  0  0
    7.1032   48.8546   51.3295 H   0  0  0  0  0  0  0  0  0  0  0  0
    7.0990   45.8070   51.8230 H   0  0  0  0  0  0  0  0  0  0  0  0
    4.1603   46.2899   51.8416 H   0  0  0  0  0  0  0  0  0  0  0  0
    5.8421   44.4686   51.9389 H   0  0  0  0  0  0  0  0  0  0  0  0
    5.4736   44.2467   53.6883 H   0  0  0  0  0  0  0  0  0  0  0  0
    3.6851   43.7388   51.2742 H   0  0  0  0  0  0  0  0  0  0  0  0
    4.1329   42.6252   52.6311 H   0  0  0  0  0  0  0  0  0  0  0  0
    1.3647   42.0634   54.3575 H   0  0  0  0  0  0  0  0  0  0  0  0
   -0.8595   41.1187   53.7431 H   0  0  0  0  0  0  0  0  0  0  0  0
   -1.0787   43.8135   50.3643 H   0  0  0  0  0  0  0  0  0  0  0  0
    1.7557   45.2005   54.5928 H   0  0  0  0  0  0  0  0  0  0  0  0
    3.3211   44.4148   55.0443 H   0  0  0  0  0  0  0  0  0  0  0  0
    2.8030   46.9725   53.5322 H   0  0  0  0  0  0  0  0  0  0  0  0
    4.0423   46.5647   54.8099 H   0  0  0  0  0  0  0  0  0  0  0  0
  1  2  1  0
  2  3  1  0
  3  4  1  0
  4  5  1  0
  5  6  1  0
  6  7  1  0
  6  8  1  1
  8  9  1  0
  9 10  2  0
  9 11  1  0
 11 12  1  0
 12 13  1  0
 13 14  1  0
 14 15  1  0
 15 16  2  0
 16 17  1  0
 17 18  2  0
 18 19  1  0
 19 20  3  0
 18 21  1  0
 21 22  2  0
 22 23  1  0
 14 24  1  0
 24 25  1  0
  6  2  1  0
 25 11  1  0
 22 15  1  0
  1 26  1  0
  1 27  1  0
  1 28  1  0
  2 29  1  6
  4 30  1  0
  4 31  1  0
  5 32  1  0
  5 33  1  0
  7 34  1  0
  7 35  1  0
  7 36  1  0
  8 37  1  0
 11 38  1  0
 12 39  1  0
 12 40  1  0
 13 41  1  0
 13 42  1  0
 16 43  1  0
 17 44  1  0
 21 45  1  0
 24 46  1  0
 24 47  1  0
 25 48  1  0
 25 49  1  0
M  END
>  <meeko>  (1) 
{"is_sidechain": [false], "free_energy": -8.284, "intermolecular_energy": -9.737, "internal_energy": -0.439}

$$$$
ligand_98_conformer_1_docked
     RDKit          3D

 49 51  0  0  0  0  0  0  0  0999 V2000
    7.8180   45.4220   50.6010 C   0  0  0  0  0  0  0  0  0  0  0  0
    8.6710   46.5980   51.1000 C   0  0  2  0  0  0  0  0  0  0  0  0
    9.9630   46.1320   51.4260 O   0  0  0  0  0  0  0  0  0  0  0  0
   10.0390   46.0650   52.8300 C   0  0  0  0  0  0  0  0  0  0  0  0
    9.1370   47.1350   53.4170 C   0  0  0  0  0  0  0  0  0  0  0  0
    8.1060   47.3890   52.3180 C   0  0  1  0  0  0  0  0  0  0  0  0
    8.0770   48.9020   51.9910 C   0  0  0  0  0  0  0  0  0  0  0  0
    6.7380   46.9700   52.7090 N   0  0  0  0  0  0  0  0  0  0  0  0
    6.1500   47.0480   54.0240 C   0  0  0  0  0  0  0  0  0  0  0  0
    6.8060   47.4970   55.0030 O   0  0  0  0  0  0  0  0  0  0  0  0
    4.7220   46.6050   54.2410 C   0  0  0  0  0  0  0  0  0  0  0  0
    3.8820   46.8290   52.9710 C   0  0  0  0  0  0  0  0  0  0  0  0
    2.4120   46.4800   53.2420 C   0  0  0  0  0  0  0  0  0  0  0  0
    2.2870   45.2580   54.0480 N   0  0  0  0  0  0  0  0  0  0  0  0
    1.0100   44.8980   54.6070 C   0  0  0  0  0  0  0  0  0  0  0  0
    0.0730   44.1950   53.8340 C   0  0  0  0  0  0  0  0  0  0  0  0
   -1.1580   43.8240   54.3820 C   0  0  0  0  0  0  0  0  0  0  0  0
   -1.4680   44.1590   55.7060 C   0  0  0  0  0  0  0  0  0  0  0  0
   -2.7300   43.7690   56.2750 C   0  0  0  0  0  0  0  0  0  0  0  0
   -3.7460   43.4540   56.7370 N   0  0  0  0  0  0  0  0  0  0  0  0
   -0.5420   44.8670   56.4790 C   0  0  0  0  0  0  0  0  0  0  0  0
    0.6910   45.2390   55.9330 C   0  0  0  0  0  0  0  0  0  0  0  0
    1.5690   45.9400   56.6940 F   0  0  0  0  0  0  0  0  0  0  0  0
    3.4420   44.3630   54.2060 C   0  0  0  0  0  0  0  0  0  0  0  0
    4.6740   45.1310   54.7190 C   0  0  0  0  0  0  0  0  0  0  0  0
    7.4166   44.8686   51.4627 H   0  0  0  0  0  0  0  0  0  0  0  0
    6.9863   45.8050   49.9915 H   0  0  0  0  0  0  0  0  0  0  0  0
    8.4403   44.7503   49.9915 H   0  0  0  0  0  0  0  0  0  0  0  0
    8.6742   47.3129   50.2640 H   0  0  0  0  0  0  0  0  0  0  0  0
    9.7080   45.0732   53.1718 H   0  0  0  0  0  0  0  0  0  0  0  0
   11.0764   46.2277   53.1577 H   0  0  0  0  0  0  0  0  0  0  0  0
    8.6498   46.7757   54.3354 H   0  0  0  0  0  0  0  0  0  0  0  0
    9.6867   48.0443   53.7017 H   0  0  0  0  0  0  0  0  0  0  0  0
    8.0659   49.4793   52.9273 H   0  0  0  0  0  0  0  0  0  0  0  0
    8.9702   49.1680   51.4067 H   0  0  0  0  0  0  0  0  0  0  0  0
    7.1743   49.1336   51.4067 H   0  0  0  0  0  0  0  0  0  0  0  0
    6.1320   46.5610   51.9580 H   0  0  0  0  0  0  0  0  0  0  0  0
    4.2783   47.2217   55.0365 H   0  0  0  0  0  0  0  0  0  0  0  0
    3.9555   47.8838   52.6676 H   0  0  0  0  0  0  0  0  0  0  0  0
    4.2636   46.1810   52.1682 H   0  0  0  0  0  0  0  0  0  0  0  0
    1.9407   47.3141   53.7825 H   0  0  0  0  0  0  0  0  0  0  0  0
    1.9151   46.3078   52.2759 H   0  0  0  0  0  0  0  0  0  0  0  0
    0.3087   43.9347   52.7916 H   0  0  0  0  0  0  0  0  0  0  0  0
   -1.8850   43.2677   53.7720 H   0  0  0  0  0  0  0  0  0  0  0  0
   -0.7839   45.1319   57.5188 H   0  0  0  0  0  0  0  0  0  0  0  0
    3.1870   43.5714   54.9260 H   0  0  0  0  0  0  0  0  0  0  0  0
    3.6847   43.9301   53.2243 H   0  0  0  0  0  0  0  0  0  0  0  0
    4.6582   45.1212   55.8188 H   0  0  0  0  0  0  0  0  0  0  0  0
    5.5636   44.6279   54.3121 H   0  0  0  0  0  0  0  0  0  0  0  0
  1  2  1  0
  2  3  1  0
  3  4  1  0
  4  5  1  0
  5  6  1  0
  6  7  1  0
  6  8  1  1
  8  9  1  0
  9 10  2  0
  9 11  1  0
 11 12  1  0
 12 13  1  0
 13 14  1  0
 14 15  1  0
 15 16  2  0
 16 17  1  0
 17 18  2  0
 18 19  1  0
 19 20  3  0
 18 21  1  0
 21 22  2  0
 22 23  1  0
 14 24  1  0
 24 25  1  0
  6  2  1  0
 25 11  1  0
 22 15  1  0
  1 26  1  0
  1 27  1  0
  1 28  1  0
  2 29  1  6
  4 30  1  0
  4 31  1  0
  5 32  1  0
  5 33  1  0
  7 34  1  0
  7 35  1  0
  7 36  1  0
  8 37  1  0
 11 38  1  0
 12 39  1  0
 12 40  1  0
 13 41  1  0
 13 42  1  0
 16 43  1  0
 17 44  1  0
 21 45  1  0
 24 46  1  0
 24 47  1  0
 25 48  1  0
 25 49  1  0
M  END
>  <meeko>  (2) 
{"is_sidechain": [false], "free_energy": -8.28, "intermolecular_energy": -9.824, "internal_energy": -0.347}

$$$$
ligand_98_conformer_1_docked
     RDKit          3D

 49 51  0  0  0  0  0  0  0  0999 V2000
   -0.8030   46.5530   57.3190 C   0  0  0  0  0  0  0  0  0  0  0  0
   -2.2100   46.0550   56.9550 C   0  0  2  0  0  0  0  0  0  0  0  0
   -2.7260   45.2910   58.0230 O   0  0  0  0  0  0  0  0  0  0  0  0
   -2.6370   43.9380   57.6470 C   0  0  0  0  0  0  0  0  0  0  0  0
   -2.7680   43.8430   56.1390 C   0  0  0  0  0  0  0  0  0  0  0  0
   -2.3250   45.2200   55.6440 C   0  0  1  0  0  0  0  0  0  0  0  0
   -3.4320   45.8140   54.7410 C   0  0  0  0  0  0  0  0  0  0  0  0
   -1.0640   45.1690   54.8650 N   0  0  0  0  0  0  0  0  0  0  0  0
   -0.6220   44.1040   53.9980 C   0  0  0  0  0  0  0  0  0  0  0  0
   -1.3190   43.0650   53.8400 O   0  0  0  0  0  0  0  0  0  0  0  0
    0.6830   44.2310   53.2490 C   0  0  0  0  0  0  0  0  0  0  0  0
    0.7550   45.5740   52.5020 C   0  0  0  0  0  0  0  0  0  0  0  0
    2.0360   45.6400   51.6570 C   0  0  0  0  0  0  0  0  0  0  0  0
    3.1910   45.0950   52.3830 N   0  0  0  0  0  0  0  0  0  0  0  0
    4.4230   44.8490   51.6830 C   0  0  0  0  0  0  0  0  0  0  0  0
    4.6400   43.6180   51.0430 C   0  0  0  0  0  0  0  0  0  0  0  0
    5.8270   43.3860   50.3430 C   0  0  0  0  0  0  0  0  0  0  0  0
    6.8120   44.3790   50.2790 C   0  0  0  0  0  0  0  0  0  0  0  0
    8.0300   44.1450   49.5500 C   0  0  0  0  0  0  0  0  0  0  0  0
    9.0110   43.9610   48.9610 N   0  0  0  0  0  0  0  0  0  0  0  0
    6.6060   45.6040   50.9210 C   0  0  0  0  0  0  0  0  0  0  0  0
    5.4190   45.8400   51.6240 C   0  0  0  0  0  0  0  0  0  0  0  0
    5.2460   47.0290   52.2540 F   0  0  0  0  0  0  0  0  0  0  0  0
    3.1110   44.8870   53.8350 C   0  0  0  0  0  0  0  0  0  0  0  0
    1.8850   44.0340   54.2080 C   0  0  0  0  0  0  0  0  0  0  0  0
   -0.6988   46.5899   58.4134 H   0  0  0  0  0  0  0  0  0  0  0  0
   -0.0517   45.8662   56.9021 H   0  0  0  0  0  0  0  0  0  0  0  0
   -0.6510   47.5595   56.9021 H   0  0  0  0  0  0  0  0  0  0  0  0
   -2.7896   46.9713   56.7691 H   0  0  0  0  0  0  0  0  0  0  0  0
   -1.6649   43.5298   57.9606 H   0  0  0  0  0  0  0  0  0  0  0  0
   -3.4394   43.3611   58.1301 H   0  0  0  0  0  0  0  0  0  0  0  0
   -2.1144   43.0542   55.7383 H   0  0  0  0  0  0  0  0  0  0  0  0
   -3.7876   43.5843   55.8172 H   0  0  0  0  0  0  0  0  0  0  0  0
   -4.2277   46.2410   55.3691 H   0  0  0  0  0  0  0  0  0  0  0  0
   -3.0030   46.6031   54.1059 H   0  0  0  0  0  0  0  0  0  0  0  0
   -3.8523   45.0203   54.1059 H   0  0  0  0  0  0  0  0  0  0  0  0
   -0.4120   45.9850   54.9590 H   0  0  0  0  0  0  0  0  0  0  0  0
    0.7336   43.4346   52.4919 H   0  0  0  0  0  0  0  0  0  0  0  0
   -0.1207   45.6714   51.8434 H   0  0  0  0  0  0  0  0  0  0  0  0
    0.7648   46.3938   53.2354 H   0  0  0  0  0  0  0  0  0  0  0  0
    1.8864   45.0580   50.7357 H   0  0  0  0  0  0  0  0  0  0  0  0
    2.2417   46.6955   51.4256 H   0  0  0  0  0  0  0  0  0  0  0  0
    3.8717   42.8324   51.0929 H   0  0  0  0  0  0  0  0  0  0  0  0
    5.9879   42.4206   49.8409 H   0  0  0  0  0  0  0  0  0  0  0  0
    7.3794   46.3848   50.8734 H   0  0  0  0  0  0  0  0  0  0  0  0
    4.0224   44.3733   54.1747 H   0  0  0  0  0  0  0  0  0  0  0  0
    3.0144   45.8682   54.3228 H   0  0  0  0  0  0  0  0  0  0  0  0
    2.1781   42.9740   54.1864 H   0  0  0  0  0  0  0  0  0  0  0  0
    1.5584   44.3549   55.2082 H   0  0  0  0  0  0  0  0  0  0  0  0
  1  2  1  0
  2  3  1  0
  3  4  1  0
  4  5  1  0
  5  6  1  0
  6  7  1  0
  6  8  1  6
  8  9  1  0
  9 10  2  0
  9 11  1  0
 11 12  1  0
 12 13  1  0
 13 14  1  0
 14 15  1  0
 15 16  2  0
 16 17  1  0
 17 18  2  0
 18 19  1  0
 19 20  3  0
 18 21  1  0
 21 22  2  0
 22 23  1  0
 14 24  1  0
 24 25  1  0
  6  2  1  0
 25 11  1  0
 22 15  1  0
  1 26  1  0
  1 27  1  0
  1 28  1  0
  2 29  1  6
  4 30  1  0
  4 31  1  0
  5 32  1  0
  5 33  1  0
  7 34  1  0
  7 35  1  0
  7 36  1  0
  8 37  1  0
 11 38  1  0
 12 39  1  0
 12 40  1  0
 13 41  1  0
 13 42  1  0
 16 43  1  0
 17 44  1  0
 21 45  1  0
 24 46  1  0
 24 47  1  0
 25 48  1  0
 25 49  1  0
M  END
>  <meeko>  (3) 
{"is_sidechain": [false], "free_energy": -8.104, "intermolecular_energy": -9.684, "internal_energy": -0.28}

$$$$
ligand_98_conformer_1_docked
     RDKit          3D

 49 51  0  0  0  0  0  0  0  0999 V2000
    5.4010   40.1320   43.5690 C   0  0  0  0  0  0  0  0  0  0  0  0
    4.4110   38.9620   43.6620 C   0  0  2  0  0  0  0  0  0  0  0  0
    3.5590   38.9800   42.5380 O   0  0  0  0  0  0  0  0  0  0  0  0
    2.3160   39.4810   42.9650 C   0  0  0  0  0  0  0  0  0  0  0  0
    2.1130   39.1010   44.4200 C   0  0  0  0  0  0  0  0  0  0  0  0
    3.5330   38.9050   44.9490 C   0  0  1  0  0  0  0  0  0  0  0  0
    3.6440   37.5040   45.5970 C   0  0  0  0  0  0  0  0  0  0  0  0
    3.9100   39.9200   45.9640 N   0  0  0  0  0  0  0  0  0  0  0  0
    3.5280   39.9390   47.3550 C   0  0  0  0  0  0  0  0  0  0  0  0
    2.7870   39.0400   47.8360 O   0  0  0  0  0  0  0  0  0  0  0  0
    4.0310   41.0360   48.2620 C   0  0  0  0  0  0  0  0  0  0  0  0
    3.5870   40.7900   49.7150 C   0  0  0  0  0  0  0  0  0  0  0  0
    4.0100   41.9690   50.6040 C   0  0  0  0  0  0  0  0  0  0  0  0
    5.3650   42.4340   50.2760 N   0  0  0  0  0  0  0  0  0  0  0  0
    5.8480   43.6710   50.8280 C   0  0  0  0  0  0  0  0  0  0  0  0
    6.8080   44.4270   50.1360 C   0  0  0  0  0  0  0  0  0  0  0  0
    7.2620   45.6410   50.6590 C   0  0  0  0  0  0  0  0  0  0  0  0
    6.7650   46.1100   51.8810 C   0  0  0  0  0  0  0  0  0  0  0  0
    7.2220   47.3650   52.4160 C   0  0  0  0  0  0  0  0  0  0  0  0
    7.5880   48.3760   52.8480 N   0  0  0  0  0  0  0  0  0  0  0  0
    5.8140   45.3580   52.5790 C   0  0  0  0  0  0  0  0  0  0  0  0
    5.3580   44.1420   52.0590 C   0  0  0  0  0  0  0  0  0  0  0  0
    4.4480   43.4200   52.7600 F   0  0  0  0  0  0  0  0  0  0  0  0
    6.2500   41.5920   49.4610 C   0  0  0  0  0  0  0  0  0  0  0  0
    5.5700   41.1830   48.1420 C   0  0  0  0  0  0  0  0  0  0  0  0
    5.6780   40.4593   44.5820 H   0  0  0  0  0  0  0  0  0  0  0  0
    6.3028   39.8073   43.0292 H   0  0  0  0  0  0  0  0  0  0  0  0
    4.9315   40.9676   43.0292 H   0  0  0  0  0  0  0  0  0  0  0  0
    5.0461   38.0647   43.7008 H   0  0  0  0  0  0  0  0  0  0  0  0
    2.3034   40.5762   42.8631 H   0  0  0  0  0  0  0  0  0  0  0  0
    1.5090   39.0559   42.3502 H   0  0  0  0  0  0  0  0  0  0  0  0
    1.5990   39.9053   44.9667 H   0  0  0  0  0  0  0  0  0  0  0  0
    1.4871   38.2046   44.5415 H   0  0  0  0  0  0  0  0  0  0  0  0
    3.6360   37.6050   46.6923 H   0  0  0  0  0  0  0  0  0  0  0  0
    2.7921   36.8847   45.2796 H   0  0  0  0  0  0  0  0  0  0  0  0
    4.5828   37.0266   45.2796 H   0  0  0  0  0  0  0  0  0  0  0  0
    4.5070   40.7180   45.6410 H   0  0  0  0  0  0  0  0  0  0  0  0
    3.5846   41.9890   47.9419 H   0  0  0  0  0  0  0  0  0  0  0  0
    2.4926   40.6841   49.7479 H   0  0  0  0  0  0  0  0  0  0  0  0
    4.0637   39.8707   50.0860 H   0  0  0  0  0  0  0  0  0  0  0  0
    3.3026   42.7985   50.4575 H   0  0  0  0  0  0  0  0  0  0  0  0
    4.0061   41.6300   51.6505 H   0  0  0  0  0  0  0  0  0  0  0  0
    7.2048   44.0618   49.1773 H   0  0  0  0  0  0  0  0  0  0  0  0
    8.0115   46.2293   50.1093 H   0  0  0  0  0  0  0  0  0  0  0  0
    5.4235   45.7241   53.5400 H   0  0  0  0  0  0  0  0  0  0  0  0
    7.1683   42.1527   49.2324 H   0  0  0  0  0  0  0  0  0  0  0  0
    6.4839   40.6799   50.0297 H   0  0  0  0  0  0  0  0  0  0  0  0
    5.7889   41.9499   47.3845 H   0  0  0  0  0  0  0  0  0  0  0  0
    5.9695   40.1968   47.8630 H   0  0  0  0  0  0  0  0  0  0  0  0
  1  2  1  0
  2  3  1  0
  3  4  1  0
  4  5  1  0
  5  6  1  0
  6  7  1  0
  6  8  1  1
  8  9  1  0
  9 10  2  0
  9 11  1  0
 11 12  1  0
 12 13  1  0
 13 14  1  0
 14 15  1  0
 15 16  2  0
 16 17  1  0
 17 18  2  0
 18 19  1  0
 19 20  3  0
 18 21  1  0
 21 22  2  0
 22 23  1  0
 14 24  1  0
 24 25  1  0
  6  2  1  0
 25 11  1  0
 22 15  1  0
  1 26  1  0
  1 27  1  0
  1 28  1  0
  2 29  1  6
  4 30  1  0
  4 31  1  0
  5 32  1  0
  5 33  1  0
  7 34  1  0
  7 35  1  0
  7 36  1  0
  8 37  1  0
 11 38  1  0
 12 39  1  0
 12 40  1  0
 13 41  1  0
 13 42  1  0
 16 43  1  0
 17 44  1  0
 21 45  1  0
 24 46  1  0
 24 47  1  0
 25 48  1  0
 25 49  1  0
M  END
>  <meeko>  (4) 
{"is_sidechain": [false], "free_energy": -7.883, "intermolecular_energy": -9.98, "internal_energy": 0.276}

$$$$
ligand_98_conformer_1_docked
     RDKit          3D

 49 51  0  0  0  0  0  0  0  0999 V2000
   -1.1860   46.8360   57.2150 C   0  0  0  0  0  0  0  0  0  0  0  0
   -2.3940   46.0660   56.6590 C   0  0  2  0  0  0  0  0  0  0  0  0
   -3.0360   45.3820   57.7120 O   0  0  0  0  0  0  0  0  0  0  0  0
   -2.6880   44.0240   57.6010 C   0  0  0  0  0  0  0  0  0  0  0  0
   -2.4550   43.7010   56.1360 C   0  0  0  0  0  0  0  0  0  0  0  0
   -2.0950   45.0500   55.5160 C   0  0  1  0  0  0  0  0  0  0  0  0
   -3.0320   45.3220   54.3150 C   0  0  0  0  0  0  0  0  0  0  0  0
   -0.6920   45.1020   55.0340 N   0  0  0  0  0  0  0  0  0  0  0  0
    0.0110   44.0770   54.3000 C   0  0  0  0  0  0  0  0  0  0  0  0
   -0.5510   42.9870   54.0080 O   0  0  0  0  0  0  0  0  0  0  0  0
    1.4350   44.3090   53.8550 C   0  0  0  0  0  0  0  0  0  0  0  0
    1.8400   43.2970   52.7700 C   0  0  0  0  0  0  0  0  0  0  0  0
    3.3220   43.4720   52.4090 C   0  0  0  0  0  0  0  0  0  0  0  0
    3.6910   44.8920   52.3200 N   0  0  0  0  0  0  0  0  0  0  0  0
    5.0780   45.2650   52.2290 C   0  0  0  0  0  0  0  0  0  0  0  0
    5.7330   45.2520   50.9870 C   0  0  0  0  0  0  0  0  0  0  0  0
    7.0740   45.6360   50.8930 C   0  0  0  0  0  0  0  0  0  0  0  0
    7.7750   46.0310   52.0390 C   0  0  0  0  0  0  0  0  0  0  0  0
    9.1510   46.4370   51.9420 C   0  0  0  0  0  0  0  0  0  0  0  0
   10.2600   46.7670   51.8670 N   0  0  0  0  0  0  0  0  0  0  0  0
    7.1300   46.0390   53.2800 C   0  0  0  0  0  0  0  0  0  0  0  0
    5.7880   45.6540   53.3780 C   0  0  0  0  0  0  0  0  0  0  0  0
    5.1860   45.6530   54.5940 F   0  0  0  0  0  0  0  0  0  0  0  0
    2.6420   45.9170   52.2350 C   0  0  0  0  0  0  0  0  0  0  0  0
    1.6300   45.7740   53.3850 C   0  0  0  0  0  0  0  0  0  0  0  0
   -1.2142   46.8180   58.3145 H   0  0  0  0  0  0  0  0  0  0  0  0
   -0.2568   46.3632   56.8643 H   0  0  0  0  0  0  0  0  0  0  0  0
   -1.2223   47.8779   56.8643 H   0  0  0  0  0  0  0  0  0  0  0  0
   -3.0297   46.8393   56.2030 H   0  0  0  0  0  0  0  0  0  0  0  0
   -1.7695   43.8290   58.1740 H   0  0  0  0  0  0  0  0  0  0  0  0
   -3.4976   43.3952   58.0000 H   0  0  0  0  0  0  0  0  0  0  0  0
   -1.6291   42.9838   56.0198 H   0  0  0  0  0  0  0  0  0  0  0  0
   -3.3301   43.2348   55.6596 H   0  0  0  0  0  0  0  0  0  0  0  0
   -4.0271   45.6109   54.6843 H   0  0  0  0  0  0  0  0  0  0  0  0
   -2.6171   46.1368   53.7034 H   0  0  0  0  0  0  0  0  0  0  0  0
   -3.1179   44.4117   53.7034 H   0  0  0  0  0  0  0  0  0  0  0  0
   -0.1430   45.9660   55.2570 H   0  0  0  0  0  0  0  0  0  0  0  0
    2.1023   44.1488   54.7147 H   0  0  0  0  0  0  0  0  0  0  0  0
    1.6755   42.2763   53.1455 H   0  0  0  0  0  0  0  0  0  0  0  0
    1.2288   43.4696   51.8719 H   0  0  0  0  0  0  0  0  0  0  0  0
    3.9377   42.9906   53.1831 H   0  0  0  0  0  0  0  0  0  0  0  0
    3.4949   43.0084   51.4266 H   0  0  0  0  0  0  0  0  0  0  0  0
    5.1886   44.9383   50.0841 H   0  0  0  0  0  0  0  0  0  0  0  0
    7.5798   45.6278   49.9162 H   0  0  0  0  0  0  0  0  0  0  0  0
    7.6790   46.3487   54.1815 H   0  0  0  0  0  0  0  0  0  0  0  0
    3.1076   46.9122   52.2884 H   0  0  0  0  0  0  0  0  0  0  0  0
    2.1070   45.7897   51.2823 H   0  0  0  0  0  0  0  0  0  0  0  0
    1.9857   46.3697   54.2386 H   0  0  0  0  0  0  0  0  0  0  0  0
    0.6584   46.1263   53.0083 H   0  0  0  0  0  0  0  0  0  0  0  0
  1  2  1  0
  2  3  1  0
  3  4  1  0
  4  5  1  0
  5  6  1  0
  6  7  1  0
  6  8  1  6
  8  9  1  0
  9 10  2  0
  9 11  1  0
 11 12  1  0
 12 13  1  0
 13 14  1  0
 14 15  1  0
 15 16  2  0
 16 17  1  0
 17 18  2  0
 18 19  1  0
 19 20  3  0
 18 21  1  0
 21 22  2  0
 22 23  1  0
 14 24  1  0
 24 25  1  0
  6  2  1  0
 25 11  1  0
 22 15  1  0
  1 26  1  0
  1 27  1  0
  1 28  1  0
  2 29  1  6
  4 30  1  0
  4 31  1  0
  5 32  1  0
  5 33  1  0
  7 34  1  0
  7 35  1  0
  7 36  1  0
  8 37  1  0
 11 38  1  0
 12 39  1  0
 12 40  1  0
 13 41  1  0
 13 42  1  0
 16 43  1  0
 17 44  1  0
 21 45  1  0
 24 46  1  0
 24 47  1  0
 25 48  1  0
 25 49  1  0
M  END
>  <meeko>  (5) 
{"is_sidechain": [false], "free_energy": -7.766, "intermolecular_energy": -9.153, "internal_energy": -0.414}

$$$$
