ligand_33_conformer_4_docked
     RDKit          3D

 52 55  0  0  0  0  0  0  0  0999 V2000
   10.5870   45.4440   51.2900 C   0  0  0  0  0  0  0  0  0  0  0  0
    9.9210   46.6010   52.0470 C   0  0  2  0  0  0  0  0  0  0  0  0
    9.8880   46.3590   53.5770 C   0  0  0  0  0  0  0  0  0  0  0  0
    8.7700   47.1570   54.2710 C   0  0  0  0  0  0  0  0  0  0  0  0
    8.4630   48.4610   53.5280 C   0  0  0  0  0  0  0  0  0  0  0  0
    8.0830   48.2190   52.0460 C   0  0  0  0  0  0  0  0  0  0  0  0
    8.5770   46.9260   51.5060 N   0  0  0  0  0  0  0  0  0  0  0  0
    7.5800   45.8280   51.6120 C   0  0  0  0  0  0  0  0  0  0  0  0
    6.1630   46.4070   51.7470 C   0  0  0  0  0  0  0  0  0  0  0  0
    5.0670   45.5130   51.1180 C   0  0  0  0  0  0  0  0  0  0  0  0
    3.7050   46.2580   51.0410 C   0  0  0  0  0  0  0  0  0  0  0  0
    2.5100   45.3030   51.1180 C   0  0  0  0  0  0  0  0  0  0  0  0
    2.5620   44.5110   52.3560 N   0  0  0  0  0  0  0  0  0  0  0  0
    1.3470   43.9130   52.8510 C   0  0  0  0  0  0  0  0  0  0  0  0
    0.7660   42.8800   52.1650 N   0  0  0  0  0  0  0  0  0  0  0  0
   -0.3940   42.2860   52.5920 C   0  0  0  0  0  0  0  0  0  0  0  0
   -1.0140   42.7150   53.7300 N   0  0  0  0  0  0  0  0  0  0  0  0
   -0.4490   43.7360   54.4150 C   0  0  0  0  0  0  0  0  0  0  0  0
   -0.9220   44.3160   55.5260 N   0  0  0  0  0  0  0  0  0  0  0  0
   -0.1040   45.3130   55.8480 N   0  0  0  0  0  0  0  0  0  0  0  0
    0.8990   45.3590   54.9350 C   0  0  0  0  0  0  0  0  0  0  0  0
    0.6970   44.3470   54.0120 C   0  0  0  0  0  0  0  0  0  0  0  0
    3.8680   44.1860   52.9540 C   0  0  0  0  0  0  0  0  0  0  0  0
    4.9590   44.1630   51.8780 C   0  0  0  0  0  0  0  0  0  0  0  0
   11.0013   44.7242   52.0113 H   0  0  0  0  0  0  0  0  0  0  0  0
    9.8401   44.9412   50.6581 H   0  0  0  0  0  0  0  0  0  0  0  0
   11.3969   45.8373   50.6581 H   0  0  0  0  0  0  0  0  0  0  0  0
   10.5520   47.4865   51.8806 H   0  0  0  0  0  0  0  0  0  0  0  0
    9.7246   45.2871   53.7621 H   0  0  0  0  0  0  0  0  0  0  0  0
   10.8493   46.6965   53.9917 H   0  0  0  0  0  0  0  0  0  0  0  0
    7.8590   46.5413   54.3028 H   0  0  0  0  0  0  0  0  0  0  0  0
    9.1082   47.4111   55.2864 H   0  0  0  0  0  0  0  0  0  0  0  0
    7.6242   48.9650   54.0303 H   0  0  0  0  0  0  0  0  0  0  0  0
    9.3724   49.0796   53.5450 H   0  0  0  0  0  0  0  0  0  0  0  0
    6.9863   48.2342   51.9618 H   0  0  0  0  0  0  0  0  0  0  0  0
    8.5603   49.0164   51.4575 H   0  0  0  0  0  0  0  0  0  0  0  0
    7.6319   45.2020   50.7090 H   0  0  0  0  0  0  0  0  0  0  0  0
    7.8063   45.2233   52.5026 H   0  0  0  0  0  0  0  0  0  0  0  0
    5.9386   46.5320   52.8166 H   0  0  0  0  0  0  0  0  0  0  0  0
    6.1515   47.3631   51.2032 H   0  0  0  0  0  0  0  0  0  0  0  0
    5.3580   45.2835   50.0823 H   0  0  0  0  0  0  0  0  0  0  0  0
    3.6435   46.9685   51.8785 H   0  0  0  0  0  0  0  0  0  0  0  0
    3.6597   46.7731   50.0701 H   0  0  0  0  0  0  0  0  0  0  0  0
    1.5781   45.8872   51.1010 H   0  0  0  0  0  0  0  0  0  0  0  0
    2.5450   44.6195   50.2569 H   0  0  0  0  0  0  0  0  0  0  0  0
   -0.8281   41.4575   52.0131 H   0  0  0  0  0  0  0  0  0  0  0  0
   -1.7830   44.0550   56.0530 H   0  0  0  0  0  0  0  0  0  0  0  0
    1.7312   46.0783   54.9293 H   0  0  0  0  0  0  0  0  0  0  0  0
    4.1198   44.9455   53.7089 H   0  0  0  0  0  0  0  0  0  0  0  0
    3.8081   43.1923   53.4219 H   0  0  0  0  0  0  0  0  0  0  0  0
    5.9252   43.9495   52.3586 H   0  0  0  0  0  0  0  0  0  0  0  0
    4.6933   43.3857   51.1464 H   0  0  0  0  0  0  0  0  0  0  0  0
  1  2  1  0
  2  3  1  0
  3  4  1  0
  4  5  1  0
  5  6  1  0
  6  7  1  0
  7  8  1  0
  8  9  1  0
  9 10  1  0
 10 11  1  0
 11 12  1  0
 12 13  1  0
 13 14  1  0
 14 15  2  0
 15 16  1  0
 16 17  2  0
 17 18  1  0
 18 19  1  0
 19 20  1  0
 20 21  2  0
 21 22  1  0
 13 23  1  0
 23 24  1  0
  7  2  1  0
 24 10  1  0
 22 14  1  0
 22 18  2  0
  1 25  1  0
  1 26  1  0
  1 27  1  0
  2 28  1  1
  3 29  1  0
  3 30  1  0
  4 31  1  0
  4 32  1  0
  5 33  1  0
  5 34  1  0
  6 35  1  0
  6 36  1  0
  8 37  1  0
  8 38  1  0
  9 39  1  0
  9 40  1  0
 10 41  1  0
 11 42  1  0
 11 43  1  0
 12 44  1  0
 12 45  1  0
 16 46  1  0
 19 47  1  0
 21 48  1  0
 23 49  1  0
 23 50  1  0
 24 51  1  0
 24 52  1  0
M  END
>  <meeko>  (1) 
{"is_sidechain": [false], "free_energy": -8.673, "intermolecular_energy": -10.701, "internal_energy": -0.668}

$$$$
ligand_33_conformer_4_docked
     RDKit          3D

 52 55  0  0  0  0  0  0  0  0999 V2000
   10.5930   45.4270   51.4520 C   0  0  0  0  0  0  0  0  0  0  0  0
    9.8970   46.6510   52.0620 C   0  0  2  0  0  0  0  0  0  0  0  0
    9.9190   46.6270   53.6110 C   0  0  0  0  0  0  0  0  0  0  0  0
    8.7870   47.4690   54.2250 C   0  0  0  0  0  0  0  0  0  0  0  0
    8.4000   48.6410   53.3180 C   0  0  0  0  0  0  0  0  0  0  0  0
    7.9890   48.1770   51.8980 C   0  0  0  0  0  0  0  0  0  0  0  0
    8.5250   46.8420   51.5280 N   0  0  0  0  0  0  0  0  0  0  0  0
    7.5810   45.7290   51.8220 C   0  0  0  0  0  0  0  0  0  0  0  0
    7.1680   45.0260   50.5210 C   0  0  0  0  0  0  0  0  0  0  0  0
    5.6440   44.7740   50.4110 C   0  0  0  0  0  0  0  0  0  0  0  0
    4.8320   46.0280   50.8390 C   0  0  0  0  0  0  0  0  0  0  0  0
    3.4620   45.6680   51.4210 C   0  0  0  0  0  0  0  0  0  0  0  0
    3.6110   44.7680   52.5740 N   0  0  0  0  0  0  0  0  0  0  0  0
    2.5360   44.6790   53.5310 C   0  0  0  0  0  0  0  0  0  0  0  0
    2.6070   45.3780   54.7060 N   0  0  0  0  0  0  0  0  0  0  0  0
    1.6140   45.3170   55.6500 C   0  0  0  0  0  0  0  0  0  0  0  0
    0.5080   44.5430   55.4420 N   0  0  0  0  0  0  0  0  0  0  0  0
    0.4270   43.8470   54.2840 C   0  0  0  0  0  0  0  0  0  0  0  0
   -0.5530   43.0120   53.9170 N   0  0  0  0  0  0  0  0  0  0  0  0
   -0.2260   42.4900   52.7390 N   0  0  0  0  0  0  0  0  0  0  0  0
    0.9700   43.0040   52.3570 C   0  0  0  0  0  0  0  0  0  0  0  0
    1.4000   43.8840   53.3350 C   0  0  0  0  0  0  0  0  0  0  0  0
    4.7550   43.8430   52.6280 C   0  0  0  0  0  0  0  0  0  0  0  0
    5.2400   43.5070   51.2130 C   0  0  0  0  0  0  0  0  0  0  0  0
   10.9631   44.7761   52.2579 H   0  0  0  0  0  0  0  0  0  0  0  0
    9.8767   44.8698   50.8304 H   0  0  0  0  0  0  0  0  0  0  0  0
   11.4382   45.7577   50.8304 H   0  0  0  0  0  0  0  0  0  0  0  0
   10.4823   47.5289   51.7509 H   0  0  0  0  0  0  0  0  0  0  0  0
    9.8095   45.5863   53.9501 H   0  0  0  0  0  0  0  0  0  0  0  0
   10.8757   47.0587   53.9403 H   0  0  0  0  0  0  0  0  0  0  0  0
    7.9060   46.8276   54.3748 H   0  0  0  0  0  0  0  0  0  0  0  0
    9.1428   47.8778   55.1822 H   0  0  0  0  0  0  0  0  0  0  0  0
    7.5538   49.1761   53.7737 H   0  0  0  0  0  0  0  0  0  0  0  0
    9.2807   49.2923   53.2167 H   0  0  0  0  0  0  0  0  0  0  0  0
    6.8908   48.1358   51.8503 H   0  0  0  0  0  0  0  0  0  0  0  0
    8.4128   48.9020   51.1875 H   0  0  0  0  0  0  0  0  0  0  0  0
    8.0712   45.0031   52.4874 H   0  0  0  0  0  0  0  0  0  0  0  0
    6.6837   46.1387   52.3089 H   0  0  0  0  0  0  0  0  0  0  0  0
    7.4792   45.6532   49.6726 H   0  0  0  0  0  0  0  0  0  0  0  0
    7.6595   44.0420   50.5153 H   0  0  0  0  0  0  0  0  0  0  0  0
    5.3976   44.5859   49.3556 H   0  0  0  0  0  0  0  0  0  0  0  0
    5.4056   46.5770   51.6003 H   0  0  0  0  0  0  0  0  0  0  0  0
    4.6635   46.6402   49.9407 H   0  0  0  0  0  0  0  0  0  0  0  0
    2.9530   46.5882   51.7438 H   0  0  0  0  0  0  0  0  0  0  0  0
    2.8701   45.1580   50.6466 H   0  0  0  0  0  0  0  0  0  0  0  0
    1.7089   45.8953   56.5809 H   0  0  0  0  0  0  0  0  0  0  0  0
   -1.4220   42.7890   54.4500 H   0  0  0  0  0  0  0  0  0  0  0  0
    1.5068   42.7624   51.4278 H   0  0  0  0  0  0  0  0  0  0  0  0
    5.5752   44.3139   53.1897 H   0  0  0  0  0  0  0  0  0  0  0  0
    4.4390   42.9145   53.1260 H   0  0  0  0  0  0  0  0  0  0  0  0
    6.1132   42.8421   51.2871 H   0  0  0  0  0  0  0  0  0  0  0  0
    4.4093   43.0221   50.6793 H   0  0  0  0  0  0  0  0  0  0  0  0
  1  2  1  0
  2  3  1  0
  3  4  1  0
  4  5  1  0
  5  6  1  0
  6  7  1  0
  7  8  1  0
  8  9  1  0
  9 10  1  0
 10 11  1  0
 11 12  1  0
 12 13  1  0
 13 14  1  0
 14 15  2  0
 15 16  1  0
 16 17  2  0
 17 18  1  0
 18 19  1  0
 19 20  1  0
 20 21  2  0
 21 22  1  0
 13 23  1  0
 23 24  1  0
  7  2  1  0
 24 10  1  0
 22 14  1  0
 22 18  2  0
  1 25  1  0
  1 26  1  0
  1 27  1  0
  2 28  1  6
  3 29  1  0
  3 30  1  0
  4 31  1  0
  4 32  1  0
  5 33  1  0
  5 34  1  0
  6 35  1  0
  6 36  1  0
  8 37  1  0
  8 38  1  0
  9 39  1  0
  9 40  1  0
 10 41  1  0
 11 42  1  0
 11 43  1  0
 12 44  1  0
 12 45  1  0
 16 46  1  0
 19 47  1  0
 21 48  1  0
 23 49  1  0
 23 50  1  0
 24 51  1  0
 24 52  1  0
M  END
>  <meeko>  (2) 
{"is_sidechain": [false], "free_energy": -8.508, "intermolecular_energy": -10.439, "internal_energy": -0.726}

$$$$
ligand_33_conformer_4_docked
     RDKit          3D

 52 55  0  0  0  0  0  0  0  0999 V2000
    6.2170   45.5170   54.5090 C   0  0  0  0  0  0  0  0  0  0  0  0
    7.3750   46.0140   53.6320 C   0  0  2  0  0  0  0  0  0  0  0  0
    7.6830   47.5140   53.8620 C   0  0  0  0  0  0  0  0  0  0  0  0
    8.3870   48.1580   52.6560 C   0  0  0  0  0  0  0  0  0  0  0  0
    9.2370   47.1410   51.8890 C   0  0  0  0  0  0  0  0  0  0  0  0
    8.4100   45.9200   51.4150 C   0  0  0  0  0  0  0  0  0  0  0  0
    7.1650   45.7030   52.1950 N   0  0  0  0  0  0  0  0  0  0  0  0
    5.9710   46.3500   51.5860 C   0  0  0  0  0  0  0  0  0  0  0  0
    5.1670   45.3220   50.7750 C   0  0  0  0  0  0  0  0  0  0  0  0
    3.6390   45.4040   51.0170 C   0  0  0  0  0  0  0  0  0  0  0  0
    3.2690   46.6430   51.8780 C   0  0  0  0  0  0  0  0  0  0  0  0
    2.0040   46.4200   52.7110 C   0  0  0  0  0  0  0  0  0  0  0  0
    2.1620   45.2480   53.5870 N   0  0  0  0  0  0  0  0  0  0  0  0
    1.3210   45.1310   54.7520 C   0  0  0  0  0  0  0  0  0  0  0  0
    1.7500   45.6210   55.9570 N   0  0  0  0  0  0  0  0  0  0  0  0
    0.9890   45.5250   57.0930 C   0  0  0  0  0  0  0  0  0  0  0  0
   -0.2370   44.9260   57.0570 N   0  0  0  0  0  0  0  0  0  0  0  0
   -0.6710   44.4370   55.8720 C   0  0  0  0  0  0  0  0  0  0  0  0
   -1.8210   43.7900   55.6430 N   0  0  0  0  0  0  0  0  0  0  0  0
   -1.8400   43.4280   54.3640 N   0  0  0  0  0  0  0  0  0  0  0  0
   -0.6940   43.8560   53.7780 C   0  0  0  0  0  0  0  0  0  0  0  0
    0.0650   44.5140   54.7310 C   0  0  0  0  0  0  0  0  0  0  0  0
    3.0290   44.1370   53.1590 C   0  0  0  0  0  0  0  0  0  0  0  0
    3.1110   44.0790   51.6300 C   0  0  0  0  0  0  0  0  0  0  0  0
    6.4848   45.6320   55.5697 H   0  0  0  0  0  0  0  0  0  0  0  0
    5.3140   46.1068   54.2928 H   0  0  0  0  0  0  0  0  0  0  0  0
    6.0225   44.4561   54.2928 H   0  0  0  0  0  0  0  0  0  0  0  0
    8.2680   45.4557   53.9496 H   0  0  0  0  0  0  0  0  0  0  0  0
    6.7372   48.0452   54.0443 H   0  0  0  0  0  0  0  0  0  0  0  0
    8.3598   47.5895   54.7259 H   0  0  0  0  0  0  0  0  0  0  0  0
    7.6261   48.5710   51.9774 H   0  0  0  0  0  0  0  0  0  0  0  0
    9.0527   48.9501   53.0294 H   0  0  0  0  0  0  0  0  0  0  0  0
    9.6722   47.6365   51.0086 H   0  0  0  0  0  0  0  0  0  0  0  0
   10.0179   46.7735   52.5710 H   0  0  0  0  0  0  0  0  0  0  0  0
    8.1368   46.0738   50.3606 H   0  0  0  0  0  0  0  0  0  0  0  0
    9.0394   45.0296   51.5600 H   0  0  0  0  0  0  0  0  0  0  0  0
    5.3347   46.7621   52.3831 H   0  0  0  0  0  0  0  0  0  0  0  0
    6.3023   47.1567   50.9156 H   0  0  0  0  0  0  0  0  0  0  0  0
    5.3601   45.4938   49.7058 H   0  0  0  0  0  0  0  0  0  0  0  0
    5.4938   44.3240   51.1023 H   0  0  0  0  0  0  0  0  0  0  0  0
    3.1394   45.5373   50.0461 H   0  0  0  0  0  0  0  0  0  0  0  0
    4.1052   46.8627   52.5580 H   0  0  0  0  0  0  0  0  0  0  0  0
    3.0750   47.4811   51.1925 H   0  0  0  0  0  0  0  0  0  0  0  0
    1.8160   47.3106   53.3287 H   0  0  0  0  0  0  0  0  0  0  0  0
    1.1575   46.2436   52.0310 H   0  0  0  0  0  0  0  0  0  0  0  0
    1.3692   45.9338   58.0408 H   0  0  0  0  0  0  0  0  0  0  0  0
   -2.5750   43.5860   56.3340 H   0  0  0  0  0  0  0  0  0  0  0  0
   -0.4150   43.7059   52.7246 H   0  0  0  0  0  0  0  0  0  0  0  0
    4.0382   44.2862   53.5703 H   0  0  0  0  0  0  0  0  0  0  0  0
    2.6049   43.1918   53.5288 H   0  0  0  0  0  0  0  0  0  0  0  0
    3.7890   43.2617   51.3430 H   0  0  0  0  0  0  0  0  0  0  0  0
    2.0943   43.9120   51.2448 H   0  0  0  0  0  0  0  0  0  0  0  0
  1  2  1  0
  2  3  1  0
  3  4  1  0
  4  5  1  0
  5  6  1  0
  6  7  1  0
  7  8  1  0
  8  9  1  0
  9 10  1  0
 10 11  1  0
 11 12  1  0
 12 13  1  0
 13 14  1  0
 14 15  2  0
 15 16  1  0
 16 17  2  0
 17 18  1  0
 18 19  1  0
 19 20  1  0
 20 21  2  0
 21 22  1  0
 13 23  1  0
 23 24  1  0
  7  2  1  0
 24 10  1  0
 22 14  1  0
 22 18  2  0
  1 25  1  0
  1 26  1  0
  1 27  1  0
  2 28  1  1
  3 29  1  0
  3 30  1  0
  4 31  1  0
  4 32  1  0
  5 33  1  0
  5 34  1  0
  6 35  1  0
  6 36  1  0
  8 37  1  0
  8 38  1  0
  9 39  1  0
  9 40  1  0
 10 41  1  0
 11 42  1  0
 11 43  1  0
 12 44  1  0
 12 45  1  0
 16 46  1  0
 19 47  1  0
 21 48  1  0
 23 49  1  0
 23 50  1  0
 24 51  1  0
 24 52  1  0
M  END
>  <meeko>  (3) 
{"is_sidechain": [false], "free_energy": -8.492, "intermolecular_energy": -10.148, "internal_energy": -0.998}

$$$$
ligand_33_conformer_4_docked
     RDKit          3D

 52 55  0  0  0  0  0  0  0  0999 V2000
    4.0500   41.6680   51.0940 C   0  0  0  0  0  0  0  0  0  0  0  0
    3.7750   43.1480   50.7990 C   0  0  2  0  0  0  0  0  0  0  0  0
    5.0740   43.9910   50.7660 C   0  0  0  0  0  0  0  0  0  0  0  0
    4.8120   45.4800   51.0510 C   0  0  0  0  0  0  0  0  0  0  0  0
    3.4150   45.9060   50.5900 C   0  0  0  0  0  0  0  0  0  0  0  0
    2.2960   45.0510   51.2350 C   0  0  0  0  0  0  0  0  0  0  0  0
    2.7610   43.7250   51.7180 N   0  0  0  0  0  0  0  0  0  0  0  0
    3.1510   43.7280   53.1530 C   0  0  0  0  0  0  0  0  0  0  0  0
    2.4130   44.8480   53.9020 C   0  0  0  0  0  0  0  0  0  0  0  0
    3.3500   45.7610   54.7300 C   0  0  0  0  0  0  0  0  0  0  0  0
    3.8110   46.9950   53.9040 C   0  0  0  0  0  0  0  0  0  0  0  0
    5.1880   47.5060   54.3350 C   0  0  0  0  0  0  0  0  0  0  0  0
    6.1940   46.4400   54.2180 N   0  0  0  0  0  0  0  0  0  0  0  0
    7.5860   46.8040   54.1210 C   0  0  0  0  0  0  0  0  0  0  0  0
    8.1750   47.5280   55.1230 N   0  0  0  0  0  0  0  0  0  0  0  0
    9.4930   47.9040   55.0700 C   0  0  0  0  0  0  0  0  0  0  0  0
   10.2680   47.5650   53.9970 N   0  0  0  0  0  0  0  0  0  0  0  0
    9.6950   46.8500   53.0010 C   0  0  0  0  0  0  0  0  0  0  0  0
   10.2760   46.4560   51.8600 N   0  0  0  0  0  0  0  0  0  0  0  0
    9.3600   45.8310   51.1280 N   0  0  0  0  0  0  0  0  0  0  0  0
    8.1900   45.8260   51.8160 C   0  0  0  0  0  0  0  0  0  0  0  0
    8.3910   46.4690   53.0250 C   0  0  0  0  0  0  0  0  0  0  0  0
    5.7860   45.0360   54.3960 C   0  0  0  0  0  0  0  0  0  0  0  0
    4.5470   44.9490   55.2940 C   0  0  0  0  0  0  0  0  0  0  0  0
    4.0793   41.5103   52.1822 H   0  0  0  0  0  0  0  0  0  0  0  0
    3.2509   41.0521   50.6557 H   0  0  0  0  0  0  0  0  0  0  0  0
    5.0170   41.3803   50.6557 H   0  0  0  0  0  0  0  0  0  0  0  0
    3.3456   43.1891   49.7871 H   0  0  0  0  0  0  0  0  0  0  0  0
    5.7673   43.6021   51.5263 H   0  0  0  0  0  0  0  0  0  0  0  0
    5.5004   43.9121   49.7551 H   0  0  0  0  0  0  0  0  0  0  0  0
    4.9000   45.6570   52.1331 H   0  0  0  0  0  0  0  0  0  0  0  0
    5.5531   46.0721   50.4940 H   0  0  0  0  0  0  0  0  0  0  0  0
    3.2579   46.9595   50.8648 H   0  0  0  0  0  0  0  0  0  0  0  0
    3.3622   45.7624   49.5007 H   0  0  0  0  0  0  0  0  0  0  0  0
    1.8833   45.6068   52.0898 H   0  0  0  0  0  0  0  0  0  0  0  0
    1.5443   44.8633   50.4542 H   0  0  0  0  0  0  0  0  0  0  0  0
    2.8909   42.7581   53.6021 H   0  0  0  0  0  0  0  0  0  0  0  0
    4.2349   43.8992   53.2296 H   0  0  0  0  0  0  0  0  0  0  0  0
    1.8840   45.4697   53.1647 H   0  0  0  0  0  0  0  0  0  0  0  0
    1.7252   44.3636   54.6107 H   0  0  0  0  0  0  0  0  0  0  0  0
    2.7847   46.1511   55.5892 H   0  0  0  0  0  0  0  0  0  0  0  0
    3.8560   46.7121   52.8420 H   0  0  0  0  0  0  0  0  0  0  0  0
    3.0850   47.8033   54.0761 H   0  0  0  0  0  0  0  0  0  0  0  0
    5.4784   48.3497   53.6917 H   0  0  0  0  0  0  0  0  0  0  0  0
    5.1341   47.8299   55.3849 H   0  0  0  0  0  0  0  0  0  0  0  0
    9.9293   48.4827   55.8975 H   0  0  0  0  0  0  0  0  0  0  0  0
   11.2670   46.6120   51.5730 H   0  0  0  0  0  0  0  0  0  0  0  0
    7.2428   45.3856   51.4712 H   0  0  0  0  0  0  0  0  0  0  0  0
    5.5531   44.5990   53.4138 H   0  0  0  0  0  0  0  0  0  0  0  0
    6.6098   44.4826   54.8703 H   0  0  0  0  0  0  0  0  0  0  0  0
    4.2481   43.8941   55.3825 H   0  0  0  0  0  0  0  0  0  0  0  0
    4.8111   45.3762   56.2727 H   0  0  0  0  0  0  0  0  0  0  0  0
  1  2  1  0
  2  3  1  0
  3  4  1  0
  4  5  1  0
  5  6  1  0
  6  7  1  0
  7  8  1  0
  8  9  1  0
  9 10  1  0
 10 11  1  0
 11 12  1  0
 12 13  1  0
 13 14  1  0
 14 15  2  0
 15 16  1  0
 16 17  2  0
 17 18  1  0
 18 19  1  0
 19 20  1  0
 20 21  2  0
 21 22  1  0
 13 23  1  0
 23 24  1  0
  7  2  1  0
 24 10  1  0
 22 14  1  0
 22 18  2  0
  1 25  1  0
  1 26  1  0
  1 27  1  0
  2 28  1  6
  3 29  1  0
  3 30  1  0
  4 31  1  0
  4 32  1  0
  5 33  1  0
  5 34  1  0
  6 35  1  0
  6 36  1  0
  8 37  1  0
  8 38  1  0
  9 39  1  0
  9 40  1  0
 10 41  1  0
 11 42  1  0
 11 43  1  0
 12 44  1  0
 12 45  1  0
 16 46  1  0
 19 47  1  0
 21 48  1  0
 23 49  1  0
 23 50  1  0
 24 51  1  0
 24 52  1  0
M  END
>  <meeko>  (4) 
{"is_sidechain": [false], "free_energy": -8.329, "intermolecular_energy": -10.096, "internal_energy": -0.848}

$$$$
ligand_33_conformer_4_docked
     RDKit          3D

 52 55  0  0  0  0  0  0  0  0999 V2000
    3.5940   43.0870   51.8750 C   0  0  0  0  0  0  0  0  0  0  0  0
    2.1200   42.6940   52.0430 C   0  0  2  0  0  0  0  0  0  0  0  0
    1.2570   43.1220   50.8310 C   0  0  0  0  0  0  0  0  0  0  0  0
   -0.2300   43.2740   51.1970 C   0  0  0  0  0  0  0  0  0  0  0  0
   -0.6290   42.3330   52.3380 C   0  0  0  0  0  0  0  0  0  0  0  0
    0.2390   42.5400   53.6040 C   0  0  0  0  0  0  0  0  0  0  0  0
    1.5540   43.1760   53.3290 N   0  0  0  0  0  0  0  0  0  0  0  0
    1.5330   44.6550   53.4850 C   0  0  0  0  0  0  0  0  0  0  0  0
    2.0290   45.0480   54.8850 C   0  0  0  0  0  0  0  0  0  0  0  0
    3.1850   46.0780   54.8650 C   0  0  0  0  0  0  0  0  0  0  0  0
    3.3430   46.7230   53.4600 C   0  0  0  0  0  0  0  0  0  0  0  0
    4.7850   47.1530   53.1720 C   0  0  0  0  0  0  0  0  0  0  0  0
    5.6990   46.0070   53.2880 N   0  0  0  0  0  0  0  0  0  0  0  0
    6.9790   46.0680   52.6280 C   0  0  0  0  0  0  0  0  0  0  0  0
    7.1170   45.5780   51.3570 N   0  0  0  0  0  0  0  0  0  0  0  0
    8.3160   45.6060   50.6930 C   0  0  0  0  0  0  0  0  0  0  0  0
    9.4270   46.1310   51.2910 N   0  0  0  0  0  0  0  0  0  0  0  0
    9.3020   46.6180   52.5470 C   0  0  0  0  0  0  0  0  0  0  0  0
   10.2760   47.1360   53.3070 N   0  0  0  0  0  0  0  0  0  0  0  0
    9.7530   47.4420   54.4900 N   0  0  0  0  0  0  0  0  0  0  0  0
    8.4350   47.1200   54.4750 C   0  0  0  0  0  0  0  0  0  0  0  0
    8.1270   46.5970   53.2310 C   0  0  0  0  0  0  0  0  0  0  0  0
    5.3760   44.9150   54.2220 C   0  0  0  0  0  0  0  0  0  0  0  0
    4.5030   45.4320   55.3700 C   0  0  0  0  0  0  0  0  0  0  0  0
    4.0559   43.2101   52.8657 H   0  0  0  0  0  0  0  0  0  0  0  0
    4.1227   42.2984   51.3194 H   0  0  0  0  0  0  0  0  0  0  0  0
    3.6599   44.0341   51.3194 H   0  0  0  0  0  0  0  0  0  0  0  0
    2.0918   41.5949   52.0771 H   0  0  0  0  0  0  0  0  0  0  0  0
    1.6290   44.0864   50.4549 H   0  0  0  0  0  0  0  0  0  0  0  0
    1.3365   42.3349   50.0667 H   0  0  0  0  0  0  0  0  0  0  0  0
   -0.4166   44.3123   51.5088 H   0  0  0  0  0  0  0  0  0  0  0  0
   -0.8302   43.0156   50.3121 H   0  0  0  0  0  0  0  0  0  0  0  0
   -1.6818   42.5184   52.5972 H   0  0  0  0  0  0  0  0  0  0  0  0
   -0.4755   41.3006   51.9909 H   0  0  0  0  0  0  0  0  0  0  0  0
   -0.3165   43.1801   54.3052 H   0  0  0  0  0  0  0  0  0  0  0  0
    0.4448   41.5425   54.0195 H   0  0  0  0  0  0  0  0  0  0  0  0
    2.1875   45.1097   52.7268 H   0  0  0  0  0  0  0  0  0  0  0  0
    0.5017   45.0149   53.3555 H   0  0  0  0  0  0  0  0  0  0  0  0
    1.1864   45.4813   55.4438 H   0  0  0  0  0  0  0  0  0  0  0  0
    2.4182   44.1345   55.3582 H   0  0  0  0  0  0  0  0  0  0  0  0
    2.9348   46.8945   55.5584 H   0  0  0  0  0  0  0  0  0  0  0  0
    3.0342   45.9913   52.6989 H   0  0  0  0  0  0  0  0  0  0  0  0
    2.7131   47.6244   53.4327 H   0  0  0  0  0  0  0  0  0  0  0  0
    4.8439   47.5608   52.1521 H   0  0  0  0  0  0  0  0  0  0  0  0
    5.0803   47.9182   53.9050 H   0  0  0  0  0  0  0  0  0  0  0  0
    8.3843   45.2031   49.6717 H   0  0  0  0  0  0  0  0  0  0  0  0
   11.2750   47.2720   53.0410 H   0  0  0  0  0  0  0  0  0  0  0  0
    7.7308   47.2521   55.3097 H   0  0  0  0  0  0  0  0  0  0  0  0
    4.8334   44.1252   53.6819 H   0  0  0  0  0  0  0  0  0  0  0  0
    6.3119   44.5147   54.6390 H   0  0  0  0  0  0  0  0  0  0  0  0
    4.2529   44.5891   56.0311 H   0  0  0  0  0  0  0  0  0  0  0  0
    5.0737   46.2064   55.9035 H   0  0  0  0  0  0  0  0  0  0  0  0
  1  2  1  0
  2  3  1  0
  3  4  1  0
  4  5  1  0
  5  6  1  0
  6  7  1  0
  7  8  1  0
  8  9  1  0
  9 10  1  0
 10 11  1  0
 11 12  1  0
 12 13  1  0
 13 14  1  0
 14 15  2  0
 15 16  1  0
 16 17  2  0
 17 18  1  0
 18 19  1  0
 19 20  1  0
 20 21  2  0
 21 22  1  0
 13 23  1  0
 23 24  1  0
  7  2  1  0
 24 10  1  0
 22 14  1  0
 22 18  2  0
  1 25  1  0
  1 26  1  0
  1 27  1  0
  2 28  1  1
  3 29  1  0
  3 30  1  0
  4 31  1  0
  4 32  1  0
  5 33  1  0
  5 34  1  0
  6 35  1  0
  6 36  1  0
  8 37  1  0
  8 38  1  0
  9 39  1  0
  9 40  1  0
 10 41  1  0
 11 42  1  0
 11 43  1  0
 12 44  1  0
 12 45  1  0
 16 46  1  0
 19 47  1  0
 21 48  1  0
 23 49  1  0
 23 50  1  0
 24 51  1  0
 24 52  1  0
M  END
>  <meeko>  (5) 
{"is_sidechain": [false], "free_energy": -8.206, "intermolecular_energy": -9.805, "internal_energy": -0.988}

$$$$
