ligand_81_conformer_2_docked
     RDKit          3D

 48 50  0  0  0  0  0  0  0  0999 V2000
    2.7290   46.3870   53.0170 O   0  0  0  0  0  0  0  0  0  0  0  0
    3.4840   45.4190   53.3150 C   0  0  0  0  0  0  0  0  0  0  0  0
    2.9230   44.1420   53.6640 N   0  0  0  0  0  0  0  0  0  0  0  0
    1.5230   43.9210   53.9100 C   0  0  0  0  0  0  0  0  0  0  0  0
    0.8210   43.0060   53.1120 C   0  0  0  0  0  0  0  0  0  0  0  0
   -0.5330   42.7550   53.3470 C   0  0  0  0  0  0  0  0  0  0  0  0
   -1.1940   43.4020   54.3950 C   0  0  0  0  0  0  0  0  0  0  0  0
   -0.5070   44.3120   55.2170 C   0  0  0  0  0  0  0  0  0  0  0  0
   -1.2050   44.9670   56.3490 C   0  0  0  0  0  0  0  0  0  0  0  0
   -1.3750   44.3280   57.4230 O   0  0  0  0  0  0  0  0  0  0  0  0
   -1.7150   46.3060   56.2220 N   0  0  0  0  0  0  0  0  0  0  0  0
   -2.0380   47.1460   57.3430 C   0  0  0  0  0  0  0  0  0  0  0  0
   -1.0110   47.6910   58.1270 C   0  0  0  0  0  0  0  0  0  0  0  0
   -1.3350   48.4850   59.2290 C   0  0  0  0  0  0  0  0  0  0  0  0
   -2.6760   48.7250   59.5430 C   0  0  0  0  0  0  0  0  0  0  0  0
   -3.1000   49.7160   60.9280 Cl  0  0  0  0  0  0  0  0  0  0  0  0
   -3.6760   48.1630   58.7460 C   0  0  0  0  0  0  0  0  0  0  0  0
   -3.3380   47.3900   57.6790 N   0  0  0  0  0  0  0  0  0  0  0  0
    0.8590   44.5570   54.9750 C   0  0  0  0  0  0  0  0  0  0  0  0
    4.9080   45.5770   53.2620 N   0  0  0  0  0  0  0  0  0  0  0  0
    5.5440   46.8450   52.8820 C   0  0  1  0  0  0  0  0  0  0  0  0
    5.3730   47.9040   53.9940 C   0  0  0  0  0  0  0  0  0  0  0  0
    4.2720   48.7400   53.7510 O   0  0  0  0  0  0  0  0  0  0  0  0
    6.9840   46.5980   52.4580 C   0  0  0  0  0  0  0  0  0  0  0  0
    8.0070   47.2960   53.1280 C   0  0  0  0  0  0  0  0  0  0  0  0
    9.3430   47.1450   52.7430 C   0  0  0  0  0  0  0  0  0  0  0  0
    9.6770   46.3030   51.6810 C   0  0  0  0  0  0  0  0  0  0  0  0
   10.9780   46.1610   51.3220 F   0  0  0  0  0  0  0  0  0  0  0  0
    8.6690   45.6180   50.9850 C   0  0  0  0  0  0  0  0  0  0  0  0
    9.0770   44.5710   49.6340 Cl  0  0  0  0  0  0  0  0  0  0  0  0
    7.3300   45.7750   51.3630 C   0  0  0  0  0  0  0  0  0  0  0  0
    3.5550   43.3100   53.6320 H   0  0  0  0  0  0  0  0  0  0  0  0
    1.3400   42.4825   52.2956 H   0  0  0  0  0  0  0  0  0  0  0  0
   -1.0797   42.0473   52.7065 H   0  0  0  0  0  0  0  0  0  0  0  0
   -2.2593   43.1976   54.5777 H   0  0  0  0  0  0  0  0  0  0  0  0
   -1.8900   46.6780   55.2600 H   0  0  0  0  0  0  0  0  0  0  0  0
    0.0418   47.4945   57.8758 H   0  0  0  0  0  0  0  0  0  0  0  0
   -0.5371   48.9205   59.8485 H   0  0  0  0  0  0  0  0  0  0  0  0
   -4.7351   48.3452   58.9808 H   0  0  0  0  0  0  0  0  0  0  0  0
    1.4115   45.2518   55.6246 H   0  0  0  0  0  0  0  0  0  0  0  0
    5.5070   44.7510   53.4810 H   0  0  0  0  0  0  0  0  0  0  0  0
    5.0383   47.2723   52.0035 H   0  0  0  0  0  0  0  0  0  0  0  0
    5.2251   47.3904   54.9554 H   0  0  0  0  0  0  0  0  0  0  0  0
    6.2787   48.5279   54.0151 H   0  0  0  0  0  0  0  0  0  0  0  0
    3.5370   48.1610   53.4200 H   0  0  0  0  0  0  0  0  0  0  0  0
    7.7529   47.9665   53.9622 H   0  0  0  0  0  0  0  0  0  0  0  0
   10.1331   47.6915   53.2788 H   0  0  0  0  0  0  0  0  0  0  0  0
    6.5405   45.2530   50.8025 H   0  0  0  0  0  0  0  0  0  0  0  0
  1  2  2  0
  2  3  1  0
  3  4  1  0
  4  5  2  0
  5  6  1  0
  6  7  2  0
  7  8  1  0
  8  9  1  0
  9 10  2  0
  9 11  1  0
 11 12  1  0
 12 13  2  0
 13 14  1  0
 14 15  2  0
 15 16  1  0
 15 17  1  0
 17 18  2  0
  8 19  2  0
  2 20  1  0
 20 21  1  0
 21 22  1  0
 22 23  1  0
 21 24  1  0
 24 25  2  0
 25 26  1  0
 26 27  2  0
 27 28  1  0
 27 29  1  0
 29 30  1  0
 29 31  2  0
 19  4  1  0
 31 24  1  0
 18 12  1  0
  3 32  1  0
  5 33  1  0
  6 34  1  0
  7 35  1  0
 11 36  1  0
 13 37  1  0
 14 38  1  0
 17 39  1  0
 19 40  1  0
 20 41  1  0
 21 42  1  6
 22 43  1  0
 22 44  1  0
 23 45  1  0
 25 46  1  0
 26 47  1  0
 31 48  1  0
M  END
>  <meeko>  (1) 
{"is_sidechain": [false], "free_energy": -8.376, "intermolecular_energy": -11.559, "internal_energy": -0.819}

$$$$
ligand_81_conformer_2_docked
     RDKit          3D

 48 50  0  0  0  0  0  0  0  0999 V2000
    2.1820   46.4800   53.0160 O   0  0  0  0  0  0  0  0  0  0  0  0
    2.8700   45.4840   53.3760 C   0  0  0  0  0  0  0  0  0  0  0  0
    2.2300   44.3160   53.9150 N   0  0  0  0  0  0  0  0  0  0  0  0
    0.8400   44.2600   54.2830 C   0  0  0  0  0  0  0  0  0  0  0  0
   -0.0020   43.3310   53.6520 C   0  0  0  0  0  0  0  0  0  0  0  0
   -1.3490   43.2410   54.0100 C   0  0  0  0  0  0  0  0  0  0  0  0
   -1.8650   44.0650   55.0140 C   0  0  0  0  0  0  0  0  0  0  0  0
   -1.0360   44.9920   55.6700 C   0  0  0  0  0  0  0  0  0  0  0  0
   -1.5810   45.8370   56.7600 C   0  0  0  0  0  0  0  0  0  0  0  0
   -1.8470   45.3120   57.8750 O   0  0  0  0  0  0  0  0  0  0  0  0
   -1.8380   47.2360   56.5460 N   0  0  0  0  0  0  0  0  0  0  0  0
   -1.9800   48.1920   57.6100 C   0  0  0  0  0  0  0  0  0  0  0  0
   -2.9700   49.1830   57.5320 C   0  0  0  0  0  0  0  0  0  0  0  0
   -3.0840   50.1230   58.5590 C   0  0  0  0  0  0  0  0  0  0  0  0
   -2.2120   50.0700   59.6510 C   0  0  0  0  0  0  0  0  0  0  0  0
   -2.3390   51.2470   60.9470 Cl  0  0  0  0  0  0  0  0  0  0  0  0
   -1.2330   49.0740   59.6960 C   0  0  0  0  0  0  0  0  0  0  0  0
   -1.1370   48.1710   58.6830 N   0  0  0  0  0  0  0  0  0  0  0  0
    0.3210   45.0760   55.3060 C   0  0  0  0  0  0  0  0  0  0  0  0
    4.2940   45.4970   53.2050 N   0  0  0  0  0  0  0  0  0  0  0  0
    5.0060   46.6450   52.6320 C   0  0  1  0  0  0  0  0  0  0  0  0
    5.3200   47.7000   53.7170 C   0  0  0  0  0  0  0  0  0  0  0  0
    4.3050   48.6650   53.8130 O   0  0  0  0  0  0  0  0  0  0  0  0
    6.2160   46.1670   51.8440 C   0  0  0  0  0  0  0  0  0  0  0  0
    6.0080   45.2700   50.7770 C   0  0  0  0  0  0  0  0  0  0  0  0
    7.0900   44.7600   50.0540 C   0  0  0  0  0  0  0  0  0  0  0  0
    8.3950   45.1280   50.3880 C   0  0  0  0  0  0  0  0  0  0  0  0
    9.4350   44.6300   49.6740 F   0  0  0  0  0  0  0  0  0  0  0  0
    8.6240   46.0000   51.4630 C   0  0  0  0  0  0  0  0  0  0  0  0
   10.2630   46.4560   51.9040 Cl  0  0  0  0  0  0  0  0  0  0  0  0
    7.5420   46.5060   52.1940 C   0  0  0  0  0  0  0  0  0  0  0  0
    2.7810   43.4280   53.9390 H   0  0  0  0  0  0  0  0  0  0  0  0
    0.4014   42.6699   52.8709 H   0  0  0  0  0  0  0  0  0  0  0  0
   -2.0052   42.5200   53.5006 H   0  0  0  0  0  0  0  0  0  0  0  0
   -2.9263   43.9878   55.2927 H   0  0  0  0  0  0  0  0  0  0  0  0
   -1.9590   47.5710   55.5620 H   0  0  0  0  0  0  0  0  0  0  0  0
   -3.6511   49.2195   56.6690 H   0  0  0  0  0  0  0  0  0  0  0  0
   -3.8579   50.9031   58.5089 H   0  0  0  0  0  0  0  0  0  0  0  0
   -0.5409   49.0201   60.5493 H   0  0  0  0  0  0  0  0  0  0  0  0
    0.9818   45.7855   55.8255 H   0  0  0  0  0  0  0  0  0  0  0  0
    4.8340   44.6470   53.4810 H   0  0  0  0  0  0  0  0  0  0  0  0
    4.3603   47.1657   51.9096 H   0  0  0  0  0  0  0  0  0  0  0  0
    5.4227   47.1931   54.6878 H   0  0  0  0  0  0  0  0  0  0  0  0
    6.2533   48.2110   53.4380 H   0  0  0  0  0  0  0  0  0  0  0  0
    4.7480   49.5330   54.0000 H   0  0  0  0  0  0  0  0  0  0  0  0
    4.9842   44.9684   50.5107 H   0  0  0  0  0  0  0  0  0  0  0  0
    6.9129   44.0663   49.2189 H   0  0  0  0  0  0  0  0  0  0  0  0
    7.7263   47.1736   53.0486 H   0  0  0  0  0  0  0  0  0  0  0  0
  1  2  2  0
  2  3  1  0
  3  4  1  0
  4  5  2  0
  5  6  1  0
  6  7  2  0
  7  8  1  0
  8  9  1  0
  9 10  2  0
  9 11  1  0
 11 12  1  0
 12 13  2  0
 13 14  1  0
 14 15  2  0
 15 16  1  0
 15 17  1  0
 17 18  2  0
  8 19  2  0
  2 20  1  0
 20 21  1  0
 21 22  1  0
 22 23  1  0
 21 24  1  0
 24 25  2  0
 25 26  1  0
 26 27  2  0
 27 28  1  0
 27 29  1  0
 29 30  1  0
 29 31  2  0
 19  4  1  0
 31 24  1  0
 18 12  1  0
  3 32  1  0
  5 33  1  0
  6 34  1  0
  7 35  1  0
 11 36  1  0
 13 37  1  0
 14 38  1  0
 17 39  1  0
 19 40  1  0
 20 41  1  0
 21 42  1  6
 22 43  1  0
 22 44  1  0
 23 45  1  0
 25 46  1  0
 26 47  1  0
 31 48  1  0
M  END
>  <meeko>  (2) 
{"is_sidechain": [false], "free_energy": -8.371, "intermolecular_energy": -11.665, "internal_energy": -0.707}

$$$$
ligand_81_conformer_2_docked
     RDKit          3D

 48 50  0  0  0  0  0  0  0  0999 V2000
    1.7820   43.1010   53.2850 O   0  0  0  0  0  0  0  0  0  0  0  0
    1.6510   43.3650   52.0570 C   0  0  0  0  0  0  0  0  0  0  0  0
    0.4050   43.8730   51.5520 N   0  0  0  0  0  0  0  0  0  0  0  0
   -0.8130   43.9150   52.3170 C   0  0  0  0  0  0  0  0  0  0  0  0
   -1.9670   43.3010   51.8070 C   0  0  0  0  0  0  0  0  0  0  0  0
   -3.1550   43.3070   52.5420 C   0  0  0  0  0  0  0  0  0  0  0  0
   -3.1970   43.9100   53.8020 C   0  0  0  0  0  0  0  0  0  0  0  0
   -2.0490   44.5180   54.3400 C   0  0  0  0  0  0  0  0  0  0  0  0
   -2.0910   45.1240   55.6920 C   0  0  0  0  0  0  0  0  0  0  0  0
   -2.1790   44.3750   56.7020 O   0  0  0  0  0  0  0  0  0  0  0  0
   -2.0640   46.5530   55.8580 N   0  0  0  0  0  0  0  0  0  0  0  0
   -1.7090   47.2060   57.0880 C   0  0  0  0  0  0  0  0  0  0  0  0
   -2.5670   48.1670   57.6430 C   0  0  0  0  0  0  0  0  0  0  0  0
   -2.2020   48.8140   58.8260 C   0  0  0  0  0  0  0  0  0  0  0  0
   -0.9860   48.5030   59.4420 C   0  0  0  0  0  0  0  0  0  0  0  0
   -0.5110   49.3110   60.9260 Cl  0  0  0  0  0  0  0  0  0  0  0  0
   -0.1510   47.5460   58.8610 C   0  0  0  0  0  0  0  0  0  0  0  0
   -0.5240   46.9300   57.7070 N   0  0  0  0  0  0  0  0  0  0  0  0
   -0.8540   44.5070   53.5940 C   0  0  0  0  0  0  0  0  0  0  0  0
    2.7630   43.2020   51.1650 N   0  0  0  0  0  0  0  0  0  0  0  0
    4.0710   42.7180   51.6230 C   0  0  1  0  0  0  0  0  0  0  0  0
    4.5490   41.5230   50.7670 C   0  0  0  0  0  0  0  0  0  0  0  0
    3.4890   40.6650   50.4350 O   0  0  0  0  0  0  0  0  0  0  0  0
    5.0550   43.8750   51.7010 C   0  0  0  0  0  0  0  0  0  0  0  0
    5.8260   44.1750   50.5600 C   0  0  0  0  0  0  0  0  0  0  0  0
    6.7820   45.1960   50.5950 C   0  0  0  0  0  0  0  0  0  0  0  0
    6.9890   45.9250   51.7660 C   0  0  0  0  0  0  0  0  0  0  0  0
    7.9140   46.9170   51.7830 F   0  0  0  0  0  0  0  0  0  0  0  0
    6.2480   45.6250   52.9190 C   0  0  0  0  0  0  0  0  0  0  0  0
    6.5140   46.5260   54.4060 Cl  0  0  0  0  0  0  0  0  0  0  0  0
    5.2960   44.5980   52.8900 C   0  0  0  0  0  0  0  0  0  0  0  0
    0.4130   44.3350   50.6150 H   0  0  0  0  0  0  0  0  0  0  0  0
   -1.9361   42.8118   50.8222 H   0  0  0  0  0  0  0  0  0  0  0  0
   -4.0590   42.8362   52.1282 H   0  0  0  0  0  0  0  0  0  0  0  0
   -4.1348   43.9090   54.3769 H   0  0  0  0  0  0  0  0  0  0  0  0
   -2.3500   47.1490   55.0470 H   0  0  0  0  0  0  0  0  0  0  0  0
   -3.5202   48.4093   57.1503 H   0  0  0  0  0  0  0  0  0  0  0  0
   -2.8695   49.5662   59.2717 H   0  0  0  0  0  0  0  0  0  0  0  0
    0.8076   47.2906   59.3363 H   0  0  0  0  0  0  0  0  0  0  0  0
    0.0545   44.9646   54.0125 H   0  0  0  0  0  0  0  0  0  0  0  0
    2.6360   43.4590   50.1620 H   0  0  0  0  0  0  0  0  0  0  0  0
    3.9892   42.3197   52.6451 H   0  0  0  0  0  0  0  0  0  0  0  0
    5.0008   41.9065   49.8403 H   0  0  0  0  0  0  0  0  0  0  0  0
    5.2815   40.9511   51.3555 H   0  0  0  0  0  0  0  0  0  0  0  0
    3.8780   39.9090   49.9220 H   0  0  0  0  0  0  0  0  0  0  0  0
    5.6748   43.6013   49.6337 H   0  0  0  0  0  0  0  0  0  0  0  0
    7.3726   45.4247   49.6956 H   0  0  0  0  0  0  0  0  0  0  0  0
    4.7311   44.3524   53.8014 H   0  0  0  0  0  0  0  0  0  0  0  0
  1  2  2  0
  2  3  1  0
  3  4  1  0
  4  5  2  0
  5  6  1  0
  6  7  2  0
  7  8  1  0
  8  9  1  0
  9 10  2  0
  9 11  1  0
 11 12  1  0
 12 13  2  0
 13 14  1  0
 14 15  2  0
 15 16  1  0
 15 17  1  0
 17 18  2  0
  8 19  2  0
  2 20  1  0
 20 21  1  0
 21 22  1  0
 22 23  1  0
 21 24  1  0
 24 25  2  0
 25 26  1  0
 26 27  2  0
 27 28  1  0
 27 29  1  0
 29 30  1  0
 29 31  2  0
 19  4  1  0
 31 24  1  0
 18 12  1  0
  3 32  1  0
  5 33  1  0
  6 34  1  0
  7 35  1  0
 11 36  1  0
 13 37  1  0
 14 38  1  0
 17 39  1  0
 19 40  1  0
 20 41  1  0
 21 42  1  1
 22 43  1  0
 22 44  1  0
 23 45  1  0
 25 46  1  0
 26 47  1  0
 31 48  1  0
M  END
>  <meeko>  (3) 
{"is_sidechain": [false], "free_energy": -7.869, "intermolecular_energy": -11.196, "internal_energy": -0.483}

$$$$
ligand_81_conformer_2_docked
     RDKit          3D

 48 50  0  0  0  0  0  0  0  0999 V2000
    1.8810   43.4790   51.1740 O   0  0  0  0  0  0  0  0  0  0  0  0
    2.3700   42.8780   52.1710 C   0  0  0  0  0  0  0  0  0  0  0  0
    3.6340   42.2020   52.0630 N   0  0  0  0  0  0  0  0  0  0  0  0
    4.3160   41.9690   50.8180 C   0  0  0  0  0  0  0  0  0  0  0  0
    5.6160   42.4660   50.6430 C   0  0  0  0  0  0  0  0  0  0  0  0
    6.3090   42.2310   49.4530 C   0  0  0  0  0  0  0  0  0  0  0  0
    5.7160   41.4820   48.4320 C   0  0  0  0  0  0  0  0  0  0  0  0
    4.4190   40.9620   48.5920 C   0  0  0  0  0  0  0  0  0  0  0  0
    3.8110   40.1380   47.5200 C   0  0  0  0  0  0  0  0  0  0  0  0
    2.9510   39.2670   47.8230 O   0  0  0  0  0  0  0  0  0  0  0  0
    4.2150   40.3020   46.1480 N   0  0  0  0  0  0  0  0  0  0  0  0
    3.4330   39.8550   45.0290 C   0  0  0  0  0  0  0  0  0  0  0  0
    2.3160   40.5960   44.6160 C   0  0  0  0  0  0  0  0  0  0  0  0
    1.5470   40.1410   43.5430 C   0  0  0  0  0  0  0  0  0  0  0  0
    1.8930   38.9510   42.8940 C   0  0  0  0  0  0  0  0  0  0  0  0
    0.9340   38.3630   41.5470 Cl  0  0  0  0  0  0  0  0  0  0  0  0
    3.0080   38.2330   43.3330 C   0  0  0  0  0  0  0  0  0  0  0  0
    3.7410   38.6920   44.3820 N   0  0  0  0  0  0  0  0  0  0  0  0
    3.7290   41.2000   49.7960 C   0  0  0  0  0  0  0  0  0  0  0  0
    1.6860   42.9070   53.4310 N   0  0  0  0  0  0  0  0  0  0  0  0
    0.4090   43.6060   53.6160 C   0  0  1  0  0  0  0  0  0  0  0  0
   -0.7750   42.6140   53.5850 C   0  0  0  0  0  0  0  0  0  0  0  0
   -0.3380   41.2880   53.4350 O   0  0  0  0  0  0  0  0  0  0  0  0
    0.4700   44.4810   54.8600 C   0  0  0  0  0  0  0  0  0  0  0  0
    1.7360   44.8150   55.3800 C   0  0  0  0  0  0  0  0  0  0  0  0
    1.8480   45.5730   56.5500 C   0  0  0  0  0  0  0  0  0  0  0  0
    0.7010   46.0010   57.2220 C   0  0  0  0  0  0  0  0  0  0  0  0
    0.8250   46.7410   58.3520 F   0  0  0  0  0  0  0  0  0  0  0  0
   -0.5680   45.6570   56.7330 C   0  0  0  0  0  0  0  0  0  0  0  0
   -2.0170   46.1740   57.5820 Cl  0  0  0  0  0  0  0  0  0  0  0  0
   -0.6820   44.8910   55.5660 C   0  0  0  0  0  0  0  0  0  0  0  0
    4.1330   41.9620   52.9500 H   0  0  0  0  0  0  0  0  0  0  0  0
    6.0928   43.0445   51.4480 H   0  0  0  0  0  0  0  0  0  0  0  0
    7.3229   42.6359   49.3190 H   0  0  0  0  0  0  0  0  0  0  0  0
    6.2672   41.2983   47.4980 H   0  0  0  0  0  0  0  0  0  0  0  0
    5.1450   40.7420   45.9570 H   0  0  0  0  0  0  0  0  0  0  0  0
    2.0478   41.5288   45.1336 H   0  0  0  0  0  0  0  0  0  0  0  0
    0.6713   40.7168   43.2089 H   0  0  0  0  0  0  0  0  0  0  0  0
    3.2927   37.2969   42.8303 H   0  0  0  0  0  0  0  0  0  0  0  0
    2.7220   40.7811   49.9391 H   0  0  0  0  0  0  0  0  0  0  0  0
    2.1300   42.4290   54.2470 H   0  0  0  0  0  0  0  0  0  0  0  0
    0.2282   44.2889   52.7728 H   0  0  0  0  0  0  0  0  0  0  0  0
   -1.3367   42.6998   54.5269 H   0  0  0  0  0  0  0  0  0  0  0  0
   -1.4102   42.8652   52.7228 H   0  0  0  0  0  0  0  0  0  0  0  0
   -1.1090   40.7660   53.0920 H   0  0  0  0  0  0  0  0  0  0  0  0
    2.6449   44.4765   54.8610 H   0  0  0  0  0  0  0  0  0  0  0  0
    2.8424   45.8328   56.9420 H   0  0  0  0  0  0  0  0  0  0  0  0
   -1.6780   44.6062   55.1961 H   0  0  0  0  0  0  0  0  0  0  0  0
  1  2  2  0
  2  3  1  0
  3  4  1  0
  4  5  2  0
  5  6  1  0
  6  7  2  0
  7  8  1  0
  8  9  1  0
  9 10  2  0
  9 11  1  0
 11 12  1  0
 12 13  2  0
 13 14  1  0
 14 15  2  0
 15 16  1  0
 15 17  1  0
 17 18  2  0
  8 19  2  0
  2 20  1  0
 20 21  1  0
 21 22  1  0
 22 23  1  0
 21 24  1  0
 24 25  2  0
 25 26  1  0
 26 27  2  0
 27 28  1  0
 27 29  1  0
 29 30  1  0
 29 31  2  0
 19  4  1  0
 31 24  1  0
 18 12  1  0
  3 32  1  0
  5 33  1  0
  6 34  1  0
  7 35  1  0
 11 36  1  0
 13 37  1  0
 14 38  1  0
 17 39  1  0
 19 40  1  0
 20 41  1  0
 21 42  1  6
 22 43  1  0
 22 44  1  0
 23 45  1  0
 25 46  1  0
 26 47  1  0
 31 48  1  0
M  END
>  <meeko>  (4) 
{"is_sidechain": [false], "free_energy": -7.79, "intermolecular_energy": -10.834, "internal_energy": -0.736}

$$$$
ligand_81_conformer_2_docked
     RDKit          3D

 48 50  0  0  0  0  0  0  0  0999 V2000
   -0.2540   43.0790   52.1480 O   0  0  0  0  0  0  0  0  0  0  0  0
   -0.8410   44.1780   51.9440 C   0  0  0  0  0  0  0  0  0  0  0  0
   -0.4800   45.3460   52.7000 N   0  0  0  0  0  0  0  0  0  0  0  0
    0.3820   45.3210   53.8520 C   0  0  0  0  0  0  0  0  0  0  0  0
   -0.1620   45.0300   55.1120 C   0  0  0  0  0  0  0  0  0  0  0  0
    0.6580   44.9750   56.2420 C   0  0  0  0  0  0  0  0  0  0  0  0
    2.0340   45.1930   56.1200 C   0  0  0  0  0  0  0  0  0  0  0  0
    2.6030   45.4710   54.8650 C   0  0  0  0  0  0  0  0  0  0  0  0
    4.0670   45.6640   54.7380 C   0  0  0  0  0  0  0  0  0  0  0  0
    4.8470   44.9500   55.4250 O   0  0  0  0  0  0  0  0  0  0  0  0
    4.6020   46.6760   53.8650 N   0  0  0  0  0  0  0  0  0  0  0  0
    5.9560   46.6770   53.3830 C   0  0  0  0  0  0  0  0  0  0  0  0
    6.2550   46.1120   52.1350 C   0  0  0  0  0  0  0  0  0  0  0  0
    7.5770   46.0950   51.6860 C   0  0  0  0  0  0  0  0  0  0  0  0
    8.5900   46.6370   52.4840 C   0  0  0  0  0  0  0  0  0  0  0  0
   10.2560   46.6190   51.9360 Cl  0  0  0  0  0  0  0  0  0  0  0  0
    8.2600   47.1880   53.7250 C   0  0  0  0  0  0  0  0  0  0  0  0
    6.9670   47.1900   54.1440 N   0  0  0  0  0  0  0  0  0  0  0  0
    1.7700   45.5220   53.7310 C   0  0  0  0  0  0  0  0  0  0  0  0
   -1.8430   44.2770   50.9230 N   0  0  0  0  0  0  0  0  0  0  0  0
   -2.2360   43.1310   50.0950 C   0  0  1  0  0  0  0  0  0  0  0  0
   -3.3230   42.2870   50.7970 C   0  0  0  0  0  0  0  0  0  0  0  0
   -2.7630   41.2860   51.6060 O   0  0  0  0  0  0  0  0  0  0  0  0
   -2.6040   43.6020   48.6960 C   0  0  0  0  0  0  0  0  0  0  0  0
   -2.4970   42.6850   47.6310 C   0  0  0  0  0  0  0  0  0  0  0  0
   -2.7740   43.0810   46.3190 C   0  0  0  0  0  0  0  0  0  0  0  0
   -3.1530   44.3970   46.0480 C   0  0  0  0  0  0  0  0  0  0  0  0
   -3.4250   44.7660   44.7710 F   0  0  0  0  0  0  0  0  0  0  0  0
   -3.2420   45.3310   47.0910 C   0  0  0  0  0  0  0  0  0  0  0  0
   -3.7000   46.9950   46.7570 Cl  0  0  0  0  0  0  0  0  0  0  0  0
   -2.9560   44.9390   48.4050 C   0  0  0  0  0  0  0  0  0  0  0  0
   -0.7750   46.2760   52.3270 H   0  0  0  0  0  0  0  0  0  0  0  0
   -1.2416   44.8438   55.2110 H   0  0  0  0  0  0  0  0  0  0  0  0
    0.2209   44.7601   57.2283 H   0  0  0  0  0  0  0  0  0  0  0  0
    2.6755   45.1466   57.0123 H   0  0  0  0  0  0  0  0  0  0  0  0
    3.9790   47.4710   53.5930 H   0  0  0  0  0  0  0  0  0  0  0  0
    5.4537   45.6851   51.5140 H   0  0  0  0  0  0  0  0  0  0  0  0
    7.8213   45.6565   50.7072 H   0  0  0  0  0  0  0  0  0  0  0  0
    9.0459   47.6197   54.3622 H   0  0  0  0  0  0  0  0  0  0  0  0
    2.2078   45.7207   52.7416 H   0  0  0  0  0  0  0  0  0  0  0  0
   -2.2890   45.2060   50.7540 H   0  0  0  0  0  0  0  0  0  0  0  0
   -1.3839   42.4467   49.9704 H   0  0  0  0  0  0  0  0  0  0  0  0
   -3.9383   42.9490   51.4240 H   0  0  0  0  0  0  0  0  0  0  0  0
   -3.9318   41.7995   50.0214 H   0  0  0  0  0  0  0  0  0  0  0  0
   -1.7900   41.2650   51.4070 H   0  0  0  0  0  0  0  0  0  0  0  0
   -2.1926   41.6476   47.8340 H   0  0  0  0  0  0  0  0  0  0  0  0
   -2.6931   42.3535   45.4979 H   0  0  0  0  0  0  0  0  0  0  0  0
   -3.0059   45.6787   49.2176 H   0  0  0  0  0  0  0  0  0  0  0  0
  1  2  2  0
  2  3  1  0
  3  4  1  0
  4  5  2  0
  5  6  1  0
  6  7  2  0
  7  8  1  0
  8  9  1  0
  9 10  2  0
  9 11  1  0
 11 12  1  0
 12 13  2  0
 13 14  1  0
 14 15  2  0
 15 16  1  0
 15 17  1  0
 17 18  2  0
  8 19  2  0
  2 20  1  0
 20 21  1  0
 21 22  1  0
 22 23  1  0
 21 24  1  0
 24 25  2  0
 25 26  1  0
 26 27  2  0
 27 28  1  0
 27 29  1  0
 29 30  1  0
 29 31  2  0
 19  4  1  0
 31 24  1  0
 18 12  1  0
  3 32  1  0
  5 33  1  0
  6 34  1  0
  7 35  1  0
 11 36  1  0
 13 37  1  0
 14 38  1  0
 17 39  1  0
 19 40  1  0
 20 41  1  0
 21 42  1  6
 22 43  1  0
 22 44  1  0
 23 45  1  0
 25 46  1  0
 26 47  1  0
 31 48  1  0
M  END
>  <meeko>  (5) 
{"is_sidechain": [false], "free_energy": -7.293, "intermolecular_energy": -9.9, "internal_energy": -0.983}

$$$$
