ligand_96_conformer_3_docked
     RDKit          3D

 40 42  0  0  0  0  0  0  0  0999 V2000
    0.2680   42.4690   53.8120 C   0  0  0  0  0  0  0  0  0  0  0  0
    0.3270   43.9900   54.0120 C   0  0  0  0  0  0  0  0  0  0  0  0
   -0.1020   44.7360   52.7310 C   0  0  0  0  0  0  0  0  0  0  0  0
    0.9900   44.7960   51.6990 C   0  0  0  0  0  0  0  0  0  0  0  0
    0.9930   43.9630   50.7530 O   0  0  0  0  0  0  0  0  0  0  0  0
    2.0350   45.7720   51.8080 N   0  0  0  0  0  0  0  0  0  0  0  0
    3.1220   45.8690   50.8370 C   0  0  0  0  0  0  0  0  0  0  0  0
    4.4220   46.1520   51.5360 C   0  0  0  0  0  0  0  0  0  0  0  0
    5.6370   45.7080   50.9940 C   0  0  0  0  0  0  0  0  0  0  0  0
    6.8450   45.9920   51.6380 C   0  0  0  0  0  0  0  0  0  0  0  0
    6.8610   46.7310   52.8360 C   0  0  0  0  0  0  0  0  0  0  0  0
    8.0990   47.0390   53.5100 N   0  0  0  0  0  0  0  0  0  0  0  0
    9.3570   46.7760   53.1050 C   0  0  0  0  0  0  0  0  0  0  0  0
   10.2630   47.2080   54.0020 N   0  0  0  0  0  0  0  0  0  0  0  0
    9.4870   47.7430   54.9680 C   0  0  0  0  0  0  0  0  0  0  0  0
    8.1750   47.6460   54.6830 N   0  0  0  0  0  0  0  0  0  0  0  0
    5.6400   47.1820   53.3690 C   0  0  0  0  0  0  0  0  0  0  0  0
    4.4330   46.8960   52.7250 C   0  0  0  0  0  0  0  0  0  0  0  0
    1.6620   44.3460   54.3060 O   0  0  0  0  0  0  0  0  0  0  0  0
    1.6540   44.8340   55.6100 C   0  0  0  0  0  0  0  0  0  0  0  0
    0.2240   45.1210   55.9400 C   0  0  0  0  0  0  0  0  0  0  0  0
   -0.5370   44.3420   55.0750 O   0  0  0  0  0  0  0  0  0  0  0  0
    0.2487   41.9707   54.7925 H   0  0  0  0  0  0  0  0  0  0  0  0
   -0.6409   42.2080   53.2501 H   0  0  0  0  0  0  0  0  0  0  0  0
    1.1540   42.1384   53.2501 H   0  0  0  0  0  0  0  0  0  0  0  0
   -0.9689   44.2174   52.2958 H   0  0  0  0  0  0  0  0  0  0  0  0
   -0.3462   45.7701   53.0157 H   0  0  0  0  0  0  0  0  0  0  0  0
    2.0370   46.4250   52.6240 H   0  0  0  0  0  0  0  0  0  0  0  0
    3.2043   44.9192   50.2883 H   0  0  0  0  0  0  0  0  0  0  0  0
    2.9053   46.6903   50.1381 H   0  0  0  0  0  0  0  0  0  0  0  0
    5.6395   45.1328   50.0564 H   0  0  0  0  0  0  0  0  0  0  0  0
    7.7910   45.6349   51.2049 H   0  0  0  0  0  0  0  0  0  0  0  0
    9.6114   46.2721   52.1609 H   0  0  0  0  0  0  0  0  0  0  0  0
    9.8819   48.2059   55.8844 H   0  0  0  0  0  0  0  0  0  0  0  0
    5.6350   47.7654   54.3016 H   0  0  0  0  0  0  0  0  0  0  0  0
    3.4860   47.2565   53.1531 H   0  0  0  0  0  0  0  0  0  0  0  0
    2.0611   44.0813   56.3012 H   0  0  0  0  0  0  0  0  0  0  0  0
    2.2757   45.7366   55.7037 H   0  0  0  0  0  0  0  0  0  0  0  0
    0.0117   44.8495   56.9846 H   0  0  0  0  0  0  0  0  0  0  0  0
   -0.0073   46.1903   55.8255 H   0  0  0  0  0  0  0  0  0  0  0  0
  1  2  1  0
  2  3  1  0
  3  4  1  0
  4  5  2  0
  4  6  1  0
  6  7  1  0
  7  8  1  0
  8  9  2  0
  9 10  1  0
 10 11  2  0
 11 12  1  0
 12 13  1  0
 13 14  2  0
 14 15  1  0
 15 16  2  0
 11 17  1  0
 17 18  2  0
  2 19  1  0
 19 20  1  0
 20 21  1  0
 21 22  1  0
 22  2  1  0
 18  8  1  0
 16 12  1  0
  1 23  1  0
  1 24  1  0
  1 25  1  0
  3 26  1  0
  3 27  1  0
  6 28  1  0
  7 29  1  0
  7 30  1  0
  9 31  1  0
 10 32  1  0
 13 33  1  0
 15 34  1  0
 17 35  1  0
 18 36  1  0
 20 37  1  0
 20 38  1  0
 21 39  1  0
 21 40  1  0
M  END
>  <meeko>  (1) 
{"is_sidechain": [false], "free_energy": -7.531, "intermolecular_energy": -9.732, "internal_energy": -0.842}

$$$$
ligand_96_conformer_3_docked
     RDKit          3D

 40 42  0  0  0  0  0  0  0  0999 V2000
   -1.0690   45.2270   52.3290 C   0  0  0  0  0  0  0  0  0  0  0  0
   -0.1440   44.3620   53.1960 C   0  0  0  0  0  0  0  0  0  0  0  0
   -0.0280   42.9310   52.6280 C   0  0  0  0  0  0  0  0  0  0  0  0
    1.1130   42.7790   51.6620 C   0  0  0  0  0  0  0  0  0  0  0  0
    0.9310   43.0450   50.4430 O   0  0  0  0  0  0  0  0  0  0  0  0
    2.3870   42.3040   52.1170 N   0  0  0  0  0  0  0  0  0  0  0  0
    3.5270   42.1320   51.2190 C   0  0  0  0  0  0  0  0  0  0  0  0
    4.5360   43.2240   51.4430 C   0  0  0  0  0  0  0  0  0  0  0  0
    5.4990   43.5190   50.4670 C   0  0  0  0  0  0  0  0  0  0  0  0
    6.4210   44.5490   50.6720 C   0  0  0  0  0  0  0  0  0  0  0  0
    6.3950   45.3080   51.8580 C   0  0  0  0  0  0  0  0  0  0  0  0
    7.3350   46.3790   52.0830 N   0  0  0  0  0  0  0  0  0  0  0  0
    7.1330   47.5420   52.7340 C   0  0  0  0  0  0  0  0  0  0  0  0
    8.2440   48.3030   52.7380 N   0  0  0  0  0  0  0  0  0  0  0  0
    9.1230   47.5400   52.0550 C   0  0  0  0  0  0  0  0  0  0  0  0
    8.5850   46.3740   51.6520 N   0  0  0  0  0  0  0  0  0  0  0  0
    5.4210   45.0130   52.8280 C   0  0  0  0  0  0  0  0  0  0  0  0
    4.5000   43.9820   52.6230 C   0  0  0  0  0  0  0  0  0  0  0  0
   -0.7000   44.2810   54.4910 O   0  0  0  0  0  0  0  0  0  0  0  0
    0.1960   44.9280   55.3380 C   0  0  0  0  0  0  0  0  0  0  0  0
    1.4770   45.0520   54.5760 C   0  0  0  0  0  0  0  0  0  0  0  0
    1.1370   44.9610   53.2310 O   0  0  0  0  0  0  0  0  0  0  0  0
   -1.7179   45.8338   52.9776 H   0  0  0  0  0  0  0  0  0  0  0  0
   -0.4626   45.8896   51.6940 H   0  0  0  0  0  0  0  0  0  0  0  0
   -1.6895   44.5776   51.6940 H   0  0  0  0  0  0  0  0  0  0  0  0
    0.1237   42.2322   53.4639 H   0  0  0  0  0  0  0  0  0  0  0  0
   -0.9571   42.7158   52.0799 H   0  0  0  0  0  0  0  0  0  0  0  0
    2.5040   42.0470   53.1240 H   0  0  0  0  0  0  0  0  0  0  0  0
    3.9981   41.1571   51.4130 H   0  0  0  0  0  0  0  0  0  0  0  0
    3.1735   42.1789   50.1784 H   0  0  0  0  0  0  0  0  0  0  0  0
    5.5288   42.9362   49.5346 H   0  0  0  0  0  0  0  0  0  0  0  0
    7.1735   44.7688   49.9004 H   0  0  0  0  0  0  0  0  0  0  0  0
    6.1812   47.8326   53.2026 H   0  0  0  0  0  0  0  0  0  0  0  0
   10.1621   47.8375   51.8507 H   0  0  0  0  0  0  0  0  0  0  0  0
    5.3834   45.5996   53.7578 H   0  0  0  0  0  0  0  0  0  0  0  0
    3.7431   43.7637   53.3907 H   0  0  0  0  0  0  0  0  0  0  0  0
   -0.1853   45.9241   55.6071 H   0  0  0  0  0  0  0  0  0  0  0  0
    0.3392   44.3670   56.2733 H   0  0  0  0  0  0  0  0  0  0  0  0
    1.9527   46.0216   54.7846 H   0  0  0  0  0  0  0  0  0  0  0  0
    2.1925   44.2674   54.8632 H   0  0  0  0  0  0  0  0  0  0  0  0
  1  2  1  0
  2  3  1  0
  3  4  1  0
  4  5  2  0
  4  6  1  0
  6  7  1  0
  7  8  1  0
  8  9  2  0
  9 10  1  0
 10 11  2  0
 11 12  1  0
 12 13  1  0
 13 14  2  0
 14 15  1  0
 15 16  2  0
 11 17  1  0
 17 18  2  0
  2 19  1  0
 19 20  1  0
 20 21  1  0
 21 22  1  0
 22  2  1  0
 18  8  1  0
 16 12  1  0
  1 23  1  0
  1 24  1  0
  1 25  1  0
  3 26  1  0
  3 27  1  0
  6 28  1  0
  7 29  1  0
  7 30  1  0
  9 31  1  0
 10 32  1  0
 13 33  1  0
 15 34  1  0
 17 35  1  0
 18 36  1  0
 20 37  1  0
 20 38  1  0
 21 39  1  0
 21 40  1  0
M  END
>  <meeko>  (2) 
{"is_sidechain": [false], "free_energy": -7.356, "intermolecular_energy": -9.352, "internal_energy": -0.996}

$$$$
ligand_96_conformer_3_docked
     RDKit          3D

 40 42  0  0  0  0  0  0  0  0999 V2000
    1.8920   45.4180   54.3470 C   0  0  0  0  0  0  0  0  0  0  0  0
    0.8610   44.6850   53.4780 C   0  0  0  0  0  0  0  0  0  0  0  0
    0.8910   45.2030   52.0240 C   0  0  0  0  0  0  0  0  0  0  0  0
    2.2470   45.0750   51.3880 C   0  0  0  0  0  0  0  0  0  0  0  0
    2.7530   46.0730   50.8070 O   0  0  0  0  0  0  0  0  0  0  0  0
    2.9420   43.8220   51.4150 N   0  0  0  0  0  0  0  0  0  0  0  0
    4.2590   43.6420   50.8080 C   0  0  0  0  0  0  0  0  0  0  0  0
    5.2930   44.4330   51.5610 C   0  0  0  0  0  0  0  0  0  0  0  0
    5.2750   44.4820   52.9620 C   0  0  0  0  0  0  0  0  0  0  0  0
    6.2510   45.2020   53.6560 C   0  0  0  0  0  0  0  0  0  0  0  0
    7.2670   45.8860   52.9610 C   0  0  0  0  0  0  0  0  0  0  0  0
    8.2870   46.6280   53.6620 N   0  0  0  0  0  0  0  0  0  0  0  0
    9.6190   46.6150   53.4550 C   0  0  0  0  0  0  0  0  0  0  0  0
   10.2580   47.4360   54.3110 N   0  0  0  0  0  0  0  0  0  0  0  0
    9.2430   47.9410   55.0440 C   0  0  0  0  0  0  0  0  0  0  0  0
    8.0460   47.4590   54.6620 N   0  0  0  0  0  0  0  0  0  0  0  0
    7.2840   45.8250   51.5560 C   0  0  0  0  0  0  0  0  0  0  0  0
    6.3070   45.1050   50.8630 C   0  0  0  0  0  0  0  0  0  0  0  0
   -0.4230   44.9330   54.0090 O   0  0  0  0  0  0  0  0  0  0  0  0
   -0.9010   43.7040   54.4580 C   0  0  0  0  0  0  0  0  0  0  0  0
   -0.0320   42.6630   53.8270 C   0  0  0  0  0  0  0  0  0  0  0  0
    1.1560   43.3020   53.4920 O   0  0  0  0  0  0  0  0  0  0  0  0
    1.6597   45.2529   55.4094 H   0  0  0  0  0  0  0  0  0  0  0  0
    2.8980   45.0313   54.1272 H   0  0  0  0  0  0  0  0  0  0  0  0
    1.8572   46.4953   54.1272 H   0  0  0  0  0  0  0  0  0  0  0  0
    0.1681   44.6247   51.4299 H   0  0  0  0  0  0  0  0  0  0  0  0
    0.6361   46.2728   52.0482 H   0  0  0  0  0  0  0  0  0  0  0  0
    2.4850   42.9960   51.8650 H   0  0  0  0  0  0  0  0  0  0  0  0
    4.5279   42.5757   50.8340 H   0  0  0  0  0  0  0  0  0  0  0  0
    4.2250   43.9967   49.7673 H   0  0  0  0  0  0  0  0  0  0  0  0
    4.4884   43.9508   53.5179 H   0  0  0  0  0  0  0  0  0  0  0  0
    6.2255   45.2348   54.7552 H   0  0  0  0  0  0  0  0  0  0  0  0
   10.1206   46.0107   52.6848 H   0  0  0  0  0  0  0  0  0  0  0  0
    9.3790   48.6647   55.8612 H   0  0  0  0  0  0  0  0  0  0  0  0
    8.0736   46.3489   50.9974 H   0  0  0  0  0  0  0  0  0  0  0  0
    6.3335   45.0651   49.7640 H   0  0  0  0  0  0  0  0  0  0  0  0
   -0.8318   43.6453   55.5542 H   0  0  0  0  0  0  0  0  0  0  0  0
   -1.9578   43.5618   54.1878 H   0  0  0  0  0  0  0  0  0  0  0  0
    0.1615   41.8458   54.5374 H   0  0  0  0  0  0  0  0  0  0  0  0
   -0.5133   42.2211   52.9421 H   0  0  0  0  0  0  0  0  0  0  0  0
  1  2  1  0
  2  3  1  0
  3  4  1  0
  4  5  2  0
  4  6  1  0
  6  7  1  0
  7  8  1  0
  8  9  2  0
  9 10  1  0
 10 11  2  0
 11 12  1  0
 12 13  1  0
 13 14  2  0
 14 15  1  0
 15 16  2  0
 11 17  1  0
 17 18  2  0
  2 19  1  0
 19 20  1  0
 20 21  1  0
 21 22  1  0
 22  2  1  0
 18  8  1  0
 16 12  1  0
  1 23  1  0
  1 24  1  0
  1 25  1  0
  3 26  1  0
  3 27  1  0
  6 28  1  0
  7 29  1  0
  7 30  1  0
  9 31  1  0
 10 32  1  0
 13 33  1  0
 15 34  1  0
 17 35  1  0
 18 36  1  0
 20 37  1  0
 20 38  1  0
 21 39  1  0
 21 40  1  0
M  END
>  <meeko>  (3) 
{"is_sidechain": [false], "free_energy": -7.272, "intermolecular_energy": -9.521, "internal_energy": -0.719}

$$$$
ligand_96_conformer_3_docked
     RDKit          3D

 40 42  0  0  0  0  0  0  0  0999 V2000
   -0.3820   41.9940   52.7050 C   0  0  0  0  0  0  0  0  0  0  0  0
   -0.4060   43.3380   53.4460 C   0  0  0  0  0  0  0  0  0  0  0  0
    0.9980   43.7110   53.9680 C   0  0  0  0  0  0  0  0  0  0  0  0
    1.9510   44.0790   52.8650 C   0  0  0  0  0  0  0  0  0  0  0  0
    2.8280   43.2500   52.5030 O   0  0  0  0  0  0  0  0  0  0  0  0
    1.8810   45.3740   52.2530 N   0  0  0  0  0  0  0  0  0  0  0  0
    2.7860   45.7850   51.1810 C   0  0  0  0  0  0  0  0  0  0  0  0
    4.1430   46.1110   51.7410 C   0  0  0  0  0  0  0  0  0  0  0  0
    4.2690   46.8760   52.9100 C   0  0  0  0  0  0  0  0  0  0  0  0
    5.5320   47.1580   53.4370 C   0  0  0  0  0  0  0  0  0  0  0  0
    6.6960   46.6770   52.8050 C   0  0  0  0  0  0  0  0  0  0  0  0
    8.0070   46.9530   53.3390 N   0  0  0  0  0  0  0  0  0  0  0  0
    9.2060   46.7190   52.7690 C   0  0  0  0  0  0  0  0  0  0  0  0
   10.2160   47.1030   53.5720 N   0  0  0  0  0  0  0  0  0  0  0  0
    9.5650   47.5790   54.6540 C   0  0  0  0  0  0  0  0  0  0  0  0
    8.2270   47.4930   54.5260 N   0  0  0  0  0  0  0  0  0  0  0  0
    6.5610   45.9030   51.6390 C   0  0  0  0  0  0  0  0  0  0  0  0
    5.2970   45.6230   51.1120 C   0  0  0  0  0  0  0  0  0  0  0  0
   -1.2720   43.2170   54.5540 O   0  0  0  0  0  0  0  0  0  0  0  0
   -2.3380   44.0800   54.3090 C   0  0  0  0  0  0  0  0  0  0  0  0
   -1.8880   44.9990   53.2170 C   0  0  0  0  0  0  0  0  0  0  0  0
   -0.8590   44.3390   52.5550 O   0  0  0  0  0  0  0  0  0  0  0  0
   -0.3673   41.1724   53.4362 H   0  0  0  0  0  0  0  0  0  0  0  0
   -1.2787   41.9072   52.0739 H   0  0  0  0  0  0  0  0  0  0  0  0
    0.5173   41.9393   52.0739 H   0  0  0  0  0  0  0  0  0  0  0  0
    0.9028   44.5682   54.6507 H   0  0  0  0  0  0  0  0  0  0  0  0
    1.4074   42.8265   54.4780 H   0  0  0  0  0  0  0  0  0  0  0  0
    1.1740   46.0620   52.5970 H   0  0  0  0  0  0  0  0  0  0  0  0
    2.8811   44.9664   50.4524 H   0  0  0  0  0  0  0  0  0  0  0  0
    2.3766   46.6802   50.6902 H   0  0  0  0  0  0  0  0  0  0  0  0
    3.3685   47.2560   53.4147 H   0  0  0  0  0  0  0  0  0  0  0  0
    5.6184   47.7607   54.3531 H   0  0  0  0  0  0  0  0  0  0  0  0
    9.3419   46.2710   51.7736 H   0  0  0  0  0  0  0  0  0  0  0  0
   10.0700   47.9907   55.5403 H   0  0  0  0  0  0  0  0  0  0  0  0
    7.4589   45.5140   51.1366 H   0  0  0  0  0  0  0  0  0  0  0  0
    5.2072   45.0164   50.1987 H   0  0  0  0  0  0  0  0  0  0  0  0
   -3.2232   43.5112   53.9883 H   0  0  0  0  0  0  0  0  0  0  0  0
   -2.6175   44.6392   55.2141 H   0  0  0  0  0  0  0  0  0  0  0  0
   -2.7178   45.2035   52.5244 H   0  0  0  0  0  0  0  0  0  0  0  0
   -1.5510   45.9656   53.6196 H   0  0  0  0  0  0  0  0  0  0  0  0
  1  2  1  0
  2  3  1  0
  3  4  1  0
  4  5  2  0
  4  6  1  0
  6  7  1  0
  7  8  1  0
  8  9  2  0
  9 10  1  0
 10 11  2  0
 11 12  1  0
 12 13  1  0
 13 14  2  0
 14 15  1  0
 15 16  2  0
 11 17  1  0
 17 18  2  0
  2 19  1  0
 19 20  1  0
 20 21  1  0
 21 22  1  0
 22  2  1  0
 18  8  1  0
 16 12  1  0
  1 23  1  0
  1 24  1  0
  1 25  1  0
  3 26  1  0
  3 27  1  0
  6 28  1  0
  7 29  1  0
  7 30  1  0
  9 31  1  0
 10 32  1  0
 13 33  1  0
 15 34  1  0
 17 35  1  0
 18 36  1  0
 20 37  1  0
 20 38  1  0
 21 39  1  0
 21 40  1  0
M  END
>  <meeko>  (4) 
{"is_sidechain": [false], "free_energy": -7.224, "intermolecular_energy": -9.41, "internal_energy": -0.768}

$$$$
ligand_96_conformer_3_docked
     RDKit          3D

 40 42  0  0  0  0  0  0  0  0999 V2000
    9.8800   47.5610   54.9920 C   0  0  0  0  0  0  0  0  0  0  0  0
    9.1140   46.9630   53.8040 C   0  0  0  0  0  0  0  0  0  0  0  0
    7.6750   46.5760   54.2090 C   0  0  0  0  0  0  0  0  0  0  0  0
    6.7040   46.6670   53.0640 C   0  0  0  0  0  0  0  0  0  0  0  0
    5.8430   47.5870   53.0560 O   0  0  0  0  0  0  0  0  0  0  0  0
    6.7380   45.6960   52.0100 N   0  0  0  0  0  0  0  0  0  0  0  0
    5.8140   45.7340   50.8790 C   0  0  0  0  0  0  0  0  0  0  0  0
    4.5010   45.1060   51.2560 C   0  0  0  0  0  0  0  0  0  0  0  0
    4.4570   43.8180   51.8080 C   0  0  0  0  0  0  0  0  0  0  0  0
    3.2340   43.2490   52.1770 C   0  0  0  0  0  0  0  0  0  0  0  0
    2.0310   43.9590   52.0030 C   0  0  0  0  0  0  0  0  0  0  0  0
    0.7620   43.3900   52.3840 N   0  0  0  0  0  0  0  0  0  0  0  0
    0.2410   43.2660   53.6210 C   0  0  0  0  0  0  0  0  0  0  0  0
   -0.9680   42.6750   53.5890 N   0  0  0  0  0  0  0  0  0  0  0  0
   -1.1480   42.4490   52.2710 C   0  0  0  0  0  0  0  0  0  0  0  0
   -0.1080   42.8750   51.5310 N   0  0  0  0  0  0  0  0  0  0  0  0
    2.0850   45.2550   51.4570 C   0  0  0  0  0  0  0  0  0  0  0  0
    3.3070   45.8230   51.0880 C   0  0  0  0  0  0  0  0  0  0  0  0
    9.7860   45.7930   53.3880 O   0  0  0  0  0  0  0  0  0  0  0  0
   10.2600   46.0540   52.1050 C   0  0  0  0  0  0  0  0  0  0  0  0
    9.5200   47.2620   51.6240 C   0  0  0  0  0  0  0  0  0  0  0  0
    9.0710   47.9200   52.7630 O   0  0  0  0  0  0  0  0  0  0  0  0
    9.4302   47.2099   55.9324 H   0  0  0  0  0  0  0  0  0  0  0  0
   10.9321   47.2429   54.9475 H   0  0  0  0  0  0  0  0  0  0  0  0
    9.8267   48.6588   54.9475 H   0  0  0  0  0  0  0  0  0  0  0  0
    7.6812   45.5417   54.5835 H   0  0  0  0  0  0  0  0  0  0  0  0
    7.3451   47.2869   54.9809 H   0  0  0  0  0  0  0  0  0  0  0  0
    7.4320   44.9160   52.0590 H   0  0  0  0  0  0  0  0  0  0  0  0
    5.6444   46.7801   50.5841 H   0  0  0  0  0  0  0  0  0  0  0  0
    6.2516   45.1721   50.0407 H   0  0  0  0  0  0  0  0  0  0  0  0
    5.3893   43.2521   51.9516 H   0  0  0  0  0  0  0  0  0  0  0  0
    3.2118   42.2369   52.6073 H   0  0  0  0  0  0  0  0  0  0  0  0
    0.7407   43.6049   54.5405 H   0  0  0  0  0  0  0  0  0  0  0  0
   -2.0440   41.9704   51.8490 H   0  0  0  0  0  0  0  0  0  0  0  0
    1.1554   45.8267   51.3193 H   0  0  0  0  0  0  0  0  0  0  0  0
    3.3330   46.8375   50.6636 H   0  0  0  0  0  0  0  0  0  0  0  0
   11.3412   46.2547   52.1315 H   0  0  0  0  0  0  0  0  0  0  0  0
   10.1016   45.1947   51.4368 H   0  0  0  0  0  0  0  0  0  0  0  0
   10.1904   47.9148   51.0457 H   0  0  0  0  0  0  0  0  0  0  0  0
    8.6839   46.9843   50.9654 H   0  0  0  0  0  0  0  0  0  0  0  0
  1  2  1  0
  2  3  1  0
  3  4  1  0
  4  5  2  0
  4  6  1  0
  6  7  1  0
  7  8  1  0
  8  9  2  0
  9 10  1  0
 10 11  2  0
 11 12  1  0
 12 13  1  0
 13 14  2  0
 14 15  1  0
 15 16  2  0
 11 17  1  0
 17 18  2  0
  2 19  1  0
 19 20  1  0
 20 21  1  0
 21 22  1  0
 22  2  1  0
 18  8  1  0
 16 12  1  0
  1 23  1  0
  1 24  1  0
  1 25  1  0
  3 26  1  0
  3 27  1  0
  6 28  1  0
  7 29  1  0
  7 30  1  0
  9 31  1  0
 10 32  1  0
 13 33  1  0
 15 34  1  0
 17 35  1  0
 18 36  1  0
 20 37  1  0
 20 38  1  0
 21 39  1  0
 21 40  1  0
M  END
>  <meeko>  (5) 
{"is_sidechain": [false], "free_energy": -7.22, "intermolecular_energy": -9.745, "internal_energy": -0.427}

$$$$
