ligand_93_conformer_4_docked
     RDKit          3D

 55 59  0  0  0  0  0  0  0  0999 V2000
   -3.9530   45.8750   56.3780 C   0  0  0  0  0  0  0  0  0  0  0  0
   -2.6200   45.8340   55.7530 N   0  0  0  0  0  0  0  0  0  0  0  0
   -1.6920   44.9800   56.5140 C   0  0  0  0  0  0  0  0  0  0  0  0
   -1.2380   43.8680   55.5890 C   0  0  0  0  0  0  0  0  0  0  0  0
   -1.3310   44.4840   54.2110 C   0  0  2  0  0  0  0  0  0  0  0  0
   -2.5530   45.4150   54.3260 C   0  0  1  0  0  0  0  0  0  0  0  0
   -3.8360   44.7540   53.7770 C   0  0  0  0  0  0  0  0  0  0  0  0
   -3.5910   44.2900   52.3520 C   0  0  0  0  0  0  0  0  0  0  0  0
   -2.5810   43.1520   52.3500 C   0  0  0  0  0  0  0  0  0  0  0  0
   -1.3850   43.4390   53.1620 N   0  0  0  0  0  0  0  0  0  0  0  0
   -0.2270   42.5900   53.0040 C   0  0  0  0  0  0  0  0  0  0  0  0
   -0.2230   41.4480   53.5400 O   0  0  0  0  0  0  0  0  0  0  0  0
    0.9380   43.0230   52.1320 C   0  0  1  0  0  0  0  0  0  0  0  0
    0.6720   44.2550   51.2600 C   0  0  0  0  0  0  0  0  0  0  0  0
    2.0330   44.9220   51.0970 C   0  0  0  0  0  0  0  0  0  0  0  0
    2.8310   44.4650   52.2260 N   0  0  0  0  0  0  0  0  0  0  0  0
    4.1110   45.0250   52.6190 C   0  0  0  0  0  0  0  0  0  0  0  0
    4.5780   44.8580   53.9400 C   0  0  0  0  0  0  0  0  0  0  0  0
    5.8050   45.3920   54.3400 C   0  0  0  0  0  0  0  0  0  0  0  0
    6.6100   46.0900   53.4300 C   0  0  0  0  0  0  0  0  0  0  0  0
    7.9100   46.6490   53.8570 C   0  0  0  0  0  0  0  0  0  0  0  0
    8.0740   47.4900   54.9000 N   0  0  0  0  0  0  0  0  0  0  0  0
    9.3720   47.7340   54.9400 N   0  0  0  0  0  0  0  0  0  0  0  0
    9.9660   47.0770   53.9590 N   0  0  0  0  0  0  0  0  0  0  0  0
    9.0880   46.3840   53.2580 N   0  0  0  0  0  0  0  0  0  0  0  0
    6.1640   46.2470   52.1080 C   0  0  0  0  0  0  0  0  0  0  0  0
    4.9320   45.7180   51.7000 C   0  0  0  0  0  0  0  0  0  0  0  0
    4.5820   45.8570   50.3990 F   0  0  0  0  0  0  0  0  0  0  0  0
    2.1550   43.4110   52.9700 C   0  0  0  0  0  0  0  0  0  0  0  0
   -3.8450   45.8717   57.4727 H   0  0  0  0  0  0  0  0  0  0  0  0
   -4.4772   46.7897   56.0641 H   0  0  0  0  0  0  0  0  0  0  0  0
   -4.5324   44.9943   56.0641 H   0  0  0  0  0  0  0  0  0  0  0  0
   -0.8252   45.5698   56.8467 H   0  0  0  0  0  0  0  0  0  0  0  0
   -2.1866   44.5665   57.4053 H   0  0  0  0  0  0  0  0  0  0  0  0
   -0.2042   43.5679   55.8151 H   0  0  0  0  0  0  0  0  0  0  0  0
   -1.8458   42.9567   55.6893 H   0  0  0  0  0  0  0  0  0  0  0  0
   -0.4527   45.0651   53.8933 H   0  0  0  0  0  0  0  0  0  0  0  0
   -2.4544   46.3110   53.6956 H   0  0  0  0  0  0  0  0  0  0  0  0
   -4.1016   43.8902   54.4042 H   0  0  0  0  0  0  0  0  0  0  0  0
   -4.6606   45.4819   53.7910 H   0  0  0  0  0  0  0  0  0  0  0  0
   -4.5372   43.9400   51.9136 H   0  0  0  0  0  0  0  0  0  0  0  0
   -3.1968   45.1281   51.7586 H   0  0  0  0  0  0  0  0  0  0  0  0
   -3.0682   42.2508   52.7507 H   0  0  0  0  0  0  0  0  0  0  0  0
   -2.2465   43.0122   51.3115 H   0  0  0  0  0  0  0  0  0  0  0  0
    1.1030   42.1391   51.4983 H   0  0  0  0  0  0  0  0  0  0  0  0
    0.2677   43.9565   50.2815 H   0  0  0  0  0  0  0  0  0  0  0  0
   -0.0685   44.9307   51.7130 H   0  0  0  0  0  0  0  0  0  0  0  0
    2.4992   44.6165   50.1487 H   0  0  0  0  0  0  0  0  0  0  0  0
    1.9488   46.0186   51.0755 H   0  0  0  0  0  0  0  0  0  0  0  0
    3.9673   44.2996   54.6647 H   0  0  0  0  0  0  0  0  0  0  0  0
    6.1425   45.2634   55.3790 H   0  0  0  0  0  0  0  0  0  0  0  0
   10.9920   47.0900   53.7740 H   0  0  0  0  0  0  0  0  0  0  0  0
    6.7886   46.7913   51.3844 H   0  0  0  0  0  0  0  0  0  0  0  0
    2.8219   42.5459   53.0999 H   0  0  0  0  0  0  0  0  0  0  0  0
    1.8627   43.7492   53.9751 H   0  0  0  0  0  0  0  0  0  0  0  0
  1  2  1  0
  2  3  1  0
  3  4  1  0
  4  5  1  0
  5  6  1  0
  6  7  1  0
  7  8  1  0
  8  9  1  0
  9 10  1  0
 10 11  1  0
 11 12  2  0
 11 13  1  0
 13 14  1  0
 14 15  1  0
 15 16  1  0
 16 17  1  0
 17 18  2  0
 18 19  1  0
 19 20  2  0
 20 21  1  0
 21 22  1  0
 22 23  2  0
 23 24  1  0
 24 25  1  0
 20 26  1  0
 26 27  2  0
 27 28  1  0
 16 29  1  0
  6  2  1  0
 29 13  1  0
 10  5  1  0
 27 17  1  0
 25 21  2  0
  1 30  1  0
  1 31  1  0
  1 32  1  0
  3 33  1  0
  3 34  1  0
  4 35  1  0
  4 36  1  0
  5 37  1  6
  6 38  1  6
  7 39  1  0
  7 40  1  0
  8 41  1  0
  8 42  1  0
  9 43  1  0
  9 44  1  0
 13 45  1  6
 14 46  1  0
 14 47  1  0
 15 48  1  0
 15 49  1  0
 18 50  1  0
 19 51  1  0
 24 52  1  0
 26 53  1  0
 29 54  1  0
 29 55  1  0
M  END
>  <meeko>  (1) 
{"is_sidechain": [false], "free_energy": -8.691, "intermolecular_energy": -10.724, "internal_energy": -0.493}

$$$$
ligand_93_conformer_4_docked
     RDKit          3D

 55 59  0  0  0  0  0  0  0  0999 V2000
    9.8460   44.9700   50.6460 C   0  0  0  0  0  0  0  0  0  0  0  0
    8.7080   45.9010   50.5960 N   0  0  0  0  0  0  0  0  0  0  0  0
    7.4370   45.1910   50.3670 C   0  0  0  0  0  0  0  0  0  0  0  0
    6.5390   45.4750   51.5540 C   0  0  0  0  0  0  0  0  0  0  0  0
    7.0010   46.8300   52.0410 C   0  0  2  0  0  0  0  0  0  0  0  0
    8.5160   46.8020   51.7660 C   0  0  1  0  0  0  0  0  0  0  0  0
    9.3250   46.4200   53.0250 C   0  0  0  0  0  0  0  0  0  0  0  0
    8.9570   47.3580   54.1610 C   0  0  0  0  0  0  0  0  0  0  0  0
    7.5160   47.1150   54.5810 C   0  0  0  0  0  0  0  0  0  0  0  0
    6.5820   47.0650   53.4420 N   0  0  0  0  0  0  0  0  0  0  0  0
    5.1650   47.1470   53.7120 C   0  0  0  0  0  0  0  0  0  0  0  0
    4.5690   48.2460   53.5400 O   0  0  0  0  0  0  0  0  0  0  0  0
    4.3790   45.9120   54.1120 C   0  0  1  0  0  0  0  0  0  0  0  0
    3.5510   46.0580   55.3940 C   0  0  0  0  0  0  0  0  0  0  0  0
    2.3660   45.1190   55.2040 C   0  0  0  0  0  0  0  0  0  0  0  0
    2.2320   44.9420   53.7650 N   0  0  0  0  0  0  0  0  0  0  0  0
    1.0950   44.3260   53.1070 C   0  0  0  0  0  0  0  0  0  0  0  0
    0.2280   45.1090   52.3170 C   0  0  0  0  0  0  0  0  0  0  0  0
   -0.8740   44.5370   51.6770 C   0  0  0  0  0  0  0  0  0  0  0  0
   -1.1310   43.1640   51.7910 C   0  0  0  0  0  0  0  0  0  0  0  0
   -2.2960   42.5630   51.1080 C   0  0  0  0  0  0  0  0  0  0  0  0
   -2.7060   42.8910   49.8650 N   0  0  0  0  0  0  0  0  0  0  0  0
   -3.7580   42.1240   49.6400 N   0  0  0  0  0  0  0  0  0  0  0  0
   -3.9800   41.3700   50.7030 N   0  0  0  0  0  0  0  0  0  0  0  0
   -3.0880   41.6130   51.6440 N   0  0  0  0  0  0  0  0  0  0  0  0
   -0.2650   42.3710   52.5590 C   0  0  0  0  0  0  0  0  0  0  0  0
    0.8400   42.9380   53.2080 C   0  0  0  0  0  0  0  0  0  0  0  0
    1.6680   42.1120   53.8900 F   0  0  0  0  0  0  0  0  0  0  0  0
    3.3560   45.5240   53.0450 C   0  0  0  0  0  0  0  0  0  0  0  0
   10.1023   44.7603   51.6950 H   0  0  0  0  0  0  0  0  0  0  0  0
    9.5746   44.0316   50.1402 H   0  0  0  0  0  0  0  0  0  0  0  0
   10.7120   45.4220   50.1402 H   0  0  0  0  0  0  0  0  0  0  0  0
    6.9645   45.5546   49.4426 H   0  0  0  0  0  0  0  0  0  0  0  0
    7.6098   44.1099   50.2606 H   0  0  0  0  0  0  0  0  0  0  0  0
    5.4831   45.5081   51.2473 H   0  0  0  0  0  0  0  0  0  0  0  0
    6.6038   44.6993   52.3312 H   0  0  0  0  0  0  0  0  0  0  0  0
    6.5490   47.6940   51.5318 H   0  0  0  0  0  0  0  0  0  0  0  0
    8.9113   47.7980   51.5176 H   0  0  0  0  0  0  0  0  0  0  0  0
    9.0902   45.3846   53.3126 H   0  0  0  0  0  0  0  0  0  0  0  0
   10.4008   46.5037   52.8115 H   0  0  0  0  0  0  0  0  0  0  0  0
    9.6231   47.1744   55.0169 H   0  0  0  0  0  0  0  0  0  0  0  0
    9.0670   48.3991   53.8234 H   0  0  0  0  0  0  0  0  0  0  0  0
    7.4648   46.1563   55.1179 H   0  0  0  0  0  0  0  0  0  0  0  0
    7.2129   47.9600   55.2167 H   0  0  0  0  0  0  0  0  0  0  0  0
    5.1707   45.1620   54.2557 H   0  0  0  0  0  0  0  0  0  0  0  0
    4.1426   45.7617   56.2728 H   0  0  0  0  0  0  0  0  0  0  0  0
    3.2329   47.0969   55.5656 H   0  0  0  0  0  0  0  0  0  0  0  0
    2.5596   44.1529   55.6931 H   0  0  0  0  0  0  0  0  0  0  0  0
    1.4476   45.5279   55.6506 H   0  0  0  0  0  0  0  0  0  0  0  0
    0.4224   46.1857   52.2032 H   0  0  0  0  0  0  0  0  0  0  0  0
   -1.5459   45.1696   51.0784 H   0  0  0  0  0  0  0  0  0  0  0  0
   -4.7460   40.6670   50.7800 H   0  0  0  0  0  0  0  0  0  0  0  0
   -0.4557   41.2917   52.6527 H   0  0  0  0  0  0  0  0  0  0  0  0
    3.7877   44.7887   52.3501 H   0  0  0  0  0  0  0  0  0  0  0  0
    3.0465   46.3933   52.4462 H   0  0  0  0  0  0  0  0  0  0  0  0
  1  2  1  0
  2  3  1  0
  3  4  1  0
  4  5  1  0
  5  6  1  0
  6  7  1  0
  7  8  1  0
  8  9  1  0
  9 10  1  0
 10 11  1  0
 11 12  2  0
 11 13  1  0
 13 14  1  0
 14 15  1  0
 15 16  1  0
 16 17  1  0
 17 18  2  0
 18 19  1  0
 19 20  2  0
 20 21  1  0
 21 22  1  0
 22 23  2  0
 23 24  1  0
 24 25  1  0
 20 26  1  0
 26 27  2  0
 27 28  1  0
 16 29  1  0
  6  2  1  0
 29 13  1  0
 10  5  1  0
 27 17  1  0
 25 21  2  0
  1 30  1  0
  1 31  1  0
  1 32  1  0
  3 33  1  0
  3 34  1  0
  4 35  1  0
  4 36  1  0
  5 37  1  6
  6 38  1  6
  7 39  1  0
  7 40  1  0
  8 41  1  0
  8 42  1  0
  9 43  1  0
  9 44  1  0
 13 45  1  1
 14 46  1  0
 14 47  1  0
 15 48  1  0
 15 49  1  0
 18 50  1  0
 19 51  1  0
 24 52  1  0
 26 53  1  0
 29 54  1  0
 29 55  1  0
M  END
>  <meeko>  (2) 
{"is_sidechain": [false], "free_energy": -8.531, "intermolecular_energy": -10.368, "internal_energy": -0.651}

$$$$
ligand_93_conformer_4_docked
     RDKit          3D

 55 59  0  0  0  0  0  0  0  0999 V2000
    9.5230   47.6430   53.5930 C   0  0  0  0  0  0  0  0  0  0  0  0
    8.3150   47.7450   52.7590 N   0  0  0  0  0  0  0  0  0  0  0  0
    8.5370   47.1850   51.4140 C   0  0  0  0  0  0  0  0  0  0  0  0
    7.5530   46.0480   51.2290 C   0  0  0  0  0  0  0  0  0  0  0  0
    6.3860   46.4310   52.1110 C   0  0  2  0  0  0  0  0  0  0  0  0
    7.0650   47.1410   53.2980 C   0  0  1  0  0  0  0  0  0  0  0  0
    7.2620   46.1940   54.5020 C   0  0  0  0  0  0  0  0  0  0  0  0
    5.9260   45.5780   54.8790 C   0  0  0  0  0  0  0  0  0  0  0  0
    5.4590   44.6460   53.7710 C   0  0  0  0  0  0  0  0  0  0  0  0
    5.5480   45.2530   52.4310 N   0  0  0  0  0  0  0  0  0  0  0  0
    4.8600   44.6050   51.3370 C   0  0  0  0  0  0  0  0  0  0  0  0
    5.5070   44.3050   50.2960 O   0  0  0  0  0  0  0  0  0  0  0  0
    3.4010   44.2090   51.4650 C   0  0  1  0  0  0  0  0  0  0  0  0
    3.1550   42.7180   51.7260 C   0  0  0  0  0  0  0  0  0  0  0  0
    1.8580   42.6690   52.5250 C   0  0  0  0  0  0  0  0  0  0  0  0
    1.7280   43.9790   53.1450 N   0  0  0  0  0  0  0  0  0  0  0  0
    0.7760   44.3150   54.1870 C   0  0  0  0  0  0  0  0  0  0  0  0
   -0.6010   44.0870   53.9830 C   0  0  0  0  0  0  0  0  0  0  0  0
   -1.5360   44.4070   54.9720 C   0  0  0  0  0  0  0  0  0  0  0  0
   -1.1220   44.9430   56.1980 C   0  0  0  0  0  0  0  0  0  0  0  0
   -2.1140   45.2750   57.2420 C   0  0  0  0  0  0  0  0  0  0  0  0
   -2.7350   44.3660   58.0220 N   0  0  0  0  0  0  0  0  0  0  0  0
   -3.5210   45.0760   58.8120 N   0  0  0  0  0  0  0  0  0  0  0  0
   -3.3870   46.3580   58.5190 N   0  0  0  0  0  0  0  0  0  0  0  0
   -2.5150   46.5270   57.5430 N   0  0  0  0  0  0  0  0  0  0  0  0
    0.2480   45.1570   56.4190 C   0  0  0  0  0  0  0  0  0  0  0  0
    1.1910   44.8440   55.4310 C   0  0  0  0  0  0  0  0  0  0  0  0
    2.5010   45.0230   55.7250 F   0  0  0  0  0  0  0  0  0  0  0  0
    2.7260   44.9130   52.6410 C   0  0  0  0  0  0  0  0  0  0  0  0
    9.2383   47.6670   54.6552 H   0  0  0  0  0  0  0  0  0  0  0  0
   10.0413   46.6979   53.3736 H   0  0  0  0  0  0  0  0  0  0  0  0
   10.1924   48.4878   53.3736 H   0  0  0  0  0  0  0  0  0  0  0  0
    8.3652   47.9589   50.6514 H   0  0  0  0  0  0  0  0  0  0  0  0
    9.5711   46.8249   51.3089 H   0  0  0  0  0  0  0  0  0  0  0  0
    7.2396   45.9686   50.1776 H   0  0  0  0  0  0  0  0  0  0  0  0
    7.9807   45.0693   51.4921 H   0  0  0  0  0  0  0  0  0  0  0  0
    5.6472   47.1031   51.6502 H   0  0  0  0  0  0  0  0  0  0  0  0
    6.4364   47.9394   53.7193 H   0  0  0  0  0  0  0  0  0  0  0  0
    7.9706   45.3975   54.2311 H   0  0  0  0  0  0  0  0  0  0  0  0
    7.6607   46.7612   55.3560 H   0  0  0  0  0  0  0  0  0  0  0  0
    6.0370   45.0082   55.8133 H   0  0  0  0  0  0  0  0  0  0  0  0
    5.1834   46.3773   55.0192 H   0  0  0  0  0  0  0  0  0  0  0  0
    6.0840   43.7409   53.7879 H   0  0  0  0  0  0  0  0  0  0  0  0
    4.3995   44.4175   53.9586 H   0  0  0  0  0  0  0  0  0  0  0  0
    2.9897   44.4956   50.4859 H   0  0  0  0  0  0  0  0  0  0  0  0
    3.0462   42.1718   50.7774 H   0  0  0  0  0  0  0  0  0  0  0  0
    3.9913   42.2482   52.2644 H   0  0  0  0  0  0  0  0  0  0  0  0
    1.0045   42.4733   51.8592 H   0  0  0  0  0  0  0  0  0  0  0  0
    1.8732   41.8645   53.2750 H   0  0  0  0  0  0  0  0  0  0  0  0
   -0.9439   43.6515   53.0329 H   0  0  0  0  0  0  0  0  0  0  0  0
   -2.6066   44.2363   54.7856 H   0  0  0  0  0  0  0  0  0  0  0  0
   -3.8880   47.1320   59.0050 H   0  0  0  0  0  0  0  0  0  0  0  0
    0.5849   45.5753   57.3790 H   0  0  0  0  0  0  0  0  0  0  0  0
    2.2445   45.8432   52.3050 H   0  0  0  0  0  0  0  0  0  0  0  0
    3.4532   45.1866   53.4197 H   0  0  0  0  0  0  0  0  0  0  0  0
  1  2  1  0
  2  3  1  0
  3  4  1  0
  4  5  1  0
  5  6  1  0
  6  7  1  0
  7  8  1  0
  8  9  1  0
  9 10  1  0
 10 11  1  0
 11 12  2  0
 11 13  1  0
 13 14  1  0
 14 15  1  0
 15 16  1  0
 16 17  1  0
 17 18  2  0
 18 19  1  0
 19 20  2  0
 20 21  1  0
 21 22  1  0
 22 23  2  0
 23 24  1  0
 24 25  1  0
 20 26  1  0
 26 27  2  0
 27 28  1  0
 16 29  1  0
  6  2  1  0
 29 13  1  0
 10  5  1  0
 27 17  1  0
 25 21  2  0
  1 30  1  0
  1 31  1  0
  1 32  1  0
  3 33  1  0
  3 34  1  0
  4 35  1  0
  4 36  1  0
  5 37  1  6
  6 38  1  1
  7 39  1  0
  7 40  1  0
  8 41  1  0
  8 42  1  0
  9 43  1  0
  9 44  1  0
 13 45  1  6
 14 46  1  0
 14 47  1  0
 15 48  1  0
 15 49  1  0
 18 50  1  0
 19 51  1  0
 24 52  1  0
 26 53  1  0
 29 54  1  0
 29 55  1  0
M  END
>  <meeko>  (3) 
{"is_sidechain": [false], "free_energy": -8.262, "intermolecular_energy": -10.834, "internal_energy": 0.148}

$$$$
ligand_93_conformer_4_docked
     RDKit          3D

 55 59  0  0  0  0  0  0  0  0999 V2000
    5.9410   41.5360   49.7710 C   0  0  0  0  0  0  0  0  0  0  0  0
    5.0660   42.6410   50.1940 N   0  0  0  0  0  0  0  0  0  0  0  0
    4.5020   42.4040   51.5340 C   0  0  0  0  0  0  0  0  0  0  0  0
    4.9630   43.5380   52.4270 C   0  0  0  0  0  0  0  0  0  0  0  0
    5.1520   44.6960   51.4730 C   0  0  2  0  0  0  0  0  0  0  0  0
    5.6520   44.0100   50.1870 C   0  0  1  0  0  0  0  0  0  0  0  0
    7.1900   44.0630   50.0640 C   0  0  0  0  0  0  0  0  0  0  0  0
    7.6520   45.5060   50.1720 C   0  0  0  0  0  0  0  0  0  0  0  0
    7.3940   46.0240   51.5780 C   0  0  0  0  0  0  0  0  0  0  0  0
    6.0310   45.7330   52.0600 N   0  0  0  0  0  0  0  0  0  0  0  0
    5.5560   46.4250   53.2360 C   0  0  0  0  0  0  0  0  0  0  0  0
    6.3790   46.7330   54.1420 O   0  0  0  0  0  0  0  0  0  0  0  0
    4.1060   46.8560   53.3490 C   0  0  1  0  0  0  0  0  0  0  0  0
    3.2770   46.6850   52.0700 C   0  0  0  0  0  0  0  0  0  0  0  0
    1.8530   46.4400   52.5550 C   0  0  0  0  0  0  0  0  0  0  0  0
    1.9830   45.9350   53.9140 N   0  0  0  0  0  0  0  0  0  0  0  0
    0.9070   45.3390   54.6850 C   0  0  0  0  0  0  0  0  0  0  0  0
    0.7370   45.6850   56.0420 C   0  0  0  0  0  0  0  0  0  0  0  0
   -0.2890   45.1200   56.8030 C   0  0  0  0  0  0  0  0  0  0  0  0
   -1.1860   44.2100   56.2280 C   0  0  0  0  0  0  0  0  0  0  0  0
   -2.2730   43.6180   57.0360 C   0  0  0  0  0  0  0  0  0  0  0  0
   -2.7940   42.3900   56.8330 N   0  0  0  0  0  0  0  0  0  0  0  0
   -3.7190   42.2550   57.7660 N   0  0  0  0  0  0  0  0  0  0  0  0
   -3.7620   43.3550   58.4980 N   0  0  0  0  0  0  0  0  0  0  0  0
   -2.8730   44.2340   58.0750 N   0  0  0  0  0  0  0  0  0  0  0  0
   -1.0380   43.8730   54.8730 C   0  0  0  0  0  0  0  0  0  0  0  0
   -0.0080   44.4310   54.1040 C   0  0  0  0  0  0  0  0  0  0  0  0
    0.0500   44.1070   52.7900 F   0  0  0  0  0  0  0  0  0  0  0  0
    3.3540   46.0360   54.3960 C   0  0  0  0  0  0  0  0  0  0  0  0
    6.3441   41.0270   50.6589 H   0  0  0  0  0  0  0  0  0  0  0  0
    5.3624   40.8200   49.1689 H   0  0  0  0  0  0  0  0  0  0  0  0
    6.7706   41.9351   49.1689 H   0  0  0  0  0  0  0  0  0  0  0  0
    3.4033   42.3891   51.4822 H   0  0  0  0  0  0  0  0  0  0  0  0
    4.8391   41.4352   51.9314 H   0  0  0  0  0  0  0  0  0  0  0  0
    4.2011   43.7747   53.1843 H   0  0  0  0  0  0  0  0  0  0  0  0
    5.8787   43.2937   52.9855 H   0  0  0  0  0  0  0  0  0  0  0  0
    4.2458   45.2794   51.2528 H   0  0  0  0  0  0  0  0  0  0  0  0
    5.3196   44.5354   49.2795 H   0  0  0  0  0  0  0  0  0  0  0  0
    7.6440   43.4702   50.8718 H   0  0  0  0  0  0  0  0  0  0  0  0
    7.4968   43.6493   49.0920 H   0  0  0  0  0  0  0  0  0  0  0  0
    8.7286   45.5623   49.9536 H   0  0  0  0  0  0  0  0  0  0  0  0
    7.0953   46.1212   49.4498 H   0  0  0  0  0  0  0  0  0  0  0  0
    8.1154   45.5536   52.2624 H   0  0  0  0  0  0  0  0  0  0  0  0
    7.5059   47.1179   51.5505 H   0  0  0  0  0  0  0  0  0  0  0  0
    4.1939   47.9224   53.6042 H   0  0  0  0  0  0  0  0  0  0  0  0
    3.3247   47.5947   51.4535 H   0  0  0  0  0  0  0  0  0  0  0  0
    3.6483   45.8609   51.4431 H   0  0  0  0  0  0  0  0  0  0  0  0
    1.2782   47.3778   52.5474 H   0  0  0  0  0  0  0  0  0  0  0  0
    1.3190   45.7298   51.9065 H   0  0  0  0  0  0  0  0  0  0  0  0
    1.4217   46.4095   56.5071 H   0  0  0  0  0  0  0  0  0  0  0  0
   -0.3938   45.3920   57.8637 H   0  0  0  0  0  0  0  0  0  0  0  0
   -4.4000   43.5020   59.3090 H   0  0  0  0  0  0  0  0  0  0  0  0
   -1.7387   43.1628   54.4098 H   0  0  0  0  0  0  0  0  0  0  0  0
    3.3804   46.5441   55.3713 H   0  0  0  0  0  0  0  0  0  0  0  0
    3.8078   45.0436   54.5344 H   0  0  0  0  0  0  0  0  0  0  0  0
  1  2  1  0
  2  3  1  0
  3  4  1  0
  4  5  1  0
  5  6  1  0
  6  7  1  0
  7  8  1  0
  8  9  1  0
  9 10  1  0
 10 11  1  0
 11 12  2  0
 11 13  1  0
 13 14  1  0
 14 15  1  0
 15 16  1  0
 16 17  1  0
 17 18  2  0
 18 19  1  0
 19 20  2  0
 20 21  1  0
 21 22  1  0
 22 23  2  0
 23 24  1  0
 24 25  1  0
 20 26  1  0
 26 27  2  0
 27 28  1  0
 16 29  1  0
  6  2  1  0
 29 13  1  0
 10  5  1  0
 27 17  1  0
 25 21  2  0
  1 30  1  0
  1 31  1  0
  1 32  1  0
  3 33  1  0
  3 34  1  0
  4 35  1  0
  4 36  1  0
  5 37  1  6
  6 38  1  6
  7 39  1  0
  7 40  1  0
  8 41  1  0
  8 42  1  0
  9 43  1  0
  9 44  1  0
 13 45  1  1
 14 46  1  0
 14 47  1  0
 15 48  1  0
 15 49  1  0
 18 50  1  0
 19 51  1  0
 24 52  1  0
 26 53  1  0
 29 54  1  0
 29 55  1  0
M  END
>  <meeko>  (4) 
{"is_sidechain": [false], "free_energy": -8.117, "intermolecular_energy": -10.553, "internal_energy": 0.045}

$$$$
ligand_93_conformer_4_docked
     RDKit          3D

 55 59  0  0  0  0  0  0  0  0999 V2000
   -3.0910   47.1860   59.7830 C   0  0  0  0  0  0  0  0  0  0  0  0
   -3.1550   47.2870   58.3160 N   0  0  0  0  0  0  0  0  0  0  0  0
   -1.9120   47.8500   57.7580 C   0  0  0  0  0  0  0  0  0  0  0  0
   -1.3250   46.8120   56.8240 C   0  0  0  0  0  0  0  0  0  0  0  0
   -2.5300   46.0400   56.3370 C   0  0  2  0  0  0  0  0  0  0  0  0
   -3.4640   46.0410   57.5620 C   0  0  1  0  0  0  0  0  0  0  0  0
   -3.3470   44.7360   58.3800 C   0  0  0  0  0  0  0  0  0  0  0  0
   -3.5890   43.5480   57.4650 C   0  0  0  0  0  0  0  0  0  0  0  0
   -2.4540   43.4350   56.4590 C   0  0  0  0  0  0  0  0  0  0  0  0
   -2.1360   44.7160   55.8020 N   0  0  0  0  0  0  0  0  0  0  0  0
   -1.3030   44.6930   54.6210 C   0  0  0  0  0  0  0  0  0  0  0  0
   -1.6870   45.3030   53.5850 O   0  0  0  0  0  0  0  0  0  0  0  0
    0.0580   44.0210   54.6450 C   0  0  1  0  0  0  0  0  0  0  0  0
    0.3860   43.1790   53.4060 C   0  0  0  0  0  0  0  0  0  0  0  0
    1.9030   43.2480   53.2770 C   0  0  0  0  0  0  0  0  0  0  0  0
    2.3040   44.4570   53.9820 N   0  0  0  0  0  0  0  0  0  0  0  0
    3.6230   45.0570   53.9190 C   0  0  0  0  0  0  0  0  0  0  0  0
    4.5060   44.9340   55.0120 C   0  0  0  0  0  0  0  0  0  0  0  0
    5.7800   45.5080   54.9740 C   0  0  0  0  0  0  0  0  0  0  0  0
    6.2150   46.2030   53.8380 C   0  0  0  0  0  0  0  0  0  0  0  0
    7.5650   46.8040   53.8010 C   0  0  0  0  0  0  0  0  0  0  0  0
    8.0930   47.5580   54.7880 N   0  0  0  0  0  0  0  0  0  0  0  0
    9.3010   47.8810   54.3610 N   0  0  0  0  0  0  0  0  0  0  0  0
    9.4930   47.3530   53.1650 N   0  0  0  0  0  0  0  0  0  0  0  0
    8.4320   46.6700   52.7770 N   0  0  0  0  0  0  0  0  0  0  0  0
    5.3520   46.3160   52.7370 C   0  0  0  0  0  0  0  0  0  0  0  0
    4.0710   45.7480   52.7690 C   0  0  0  0  0  0  0  0  0  0  0  0
    3.3050   45.8460   51.6560 F   0  0  0  0  0  0  0  0  0  0  0  0
    1.1900   45.0440   54.7160 C   0  0  0  0  0  0  0  0  0  0  0  0
   -3.6283   48.0340   60.2327 H   0  0  0  0  0  0  0  0  0  0  0  0
   -3.5571   46.2435   60.1063 H   0  0  0  0  0  0  0  0  0  0  0  0
   -2.0398   47.2050   60.1063 H   0  0  0  0  0  0  0  0  0  0  0  0
   -2.1334   48.7734   57.2027 H   0  0  0  0  0  0  0  0  0  0  0  0
   -1.2019   48.0962   58.5612 H   0  0  0  0  0  0  0  0  0  0  0  0
   -0.8020   47.2923   55.9839 H   0  0  0  0  0  0  0  0  0  0  0  0
   -0.5801   46.1700   57.3169 H   0  0  0  0  0  0  0  0  0  0  0  0
   -3.0519   46.4770   55.4729 H   0  0  0  0  0  0  0  0  0  0  0  0
   -4.5257   46.0513   57.2746 H   0  0  0  0  0  0  0  0  0  0  0  0
   -2.3398   44.6647   58.8165 H   0  0  0  0  0  0  0  0  0  0  0  0
   -4.0942   44.7383   59.1872 H   0  0  0  0  0  0  0  0  0  0  0  0
   -3.6378   42.6279   58.0658 H   0  0  0  0  0  0  0  0  0  0  0  0
   -4.5385   43.6898   56.9280 H   0  0  0  0  0  0  0  0  0  0  0  0
   -1.5554   43.0775   56.9832 H   0  0  0  0  0  0  0  0  0  0  0  0
   -2.7782   42.7350   55.6749 H   0  0  0  0  0  0  0  0  0  0  0  0
   -0.0089   43.3766   55.5340 H   0  0  0  0  0  0  0  0  0  0  0  0
    0.0562   42.1390   53.5462 H   0  0  0  0  0  0  0  0  0  0  0  0
   -0.1241   43.5508   52.5051 H   0  0  0  0  0  0  0  0  0  0  0  0
    2.3676   42.3636   53.7374 H   0  0  0  0  0  0  0  0  0  0  0  0
    2.2203   43.2681   52.2240 H   0  0  0  0  0  0  0  0  0  0  0  0
    4.1877   44.3787   55.9066 H   0  0  0  0  0  0  0  0  0  0  0  0
    6.4468   45.4132   55.8437 H   0  0  0  0  0  0  0  0  0  0  0  0
   10.3710   47.4470   52.6100 H   0  0  0  0  0  0  0  0  0  0  0  0
    5.6848   46.8565   51.8386 H   0  0  0  0  0  0  0  0  0  0  0  0
    1.4752   45.2273   55.7624 H   0  0  0  0  0  0  0  0  0  0  0  0
    0.8884   46.0112   54.2876 H   0  0  0  0  0  0  0  0  0  0  0  0
  1  2  1  0
  2  3  1  0
  3  4  1  0
  4  5  1  0
  5  6  1  0
  6  7  1  0
  7  8  1  0
  8  9  1  0
  9 10  1  0
 10 11  1  0
 11 12  2  0
 11 13  1  0
 13 14  1  0
 14 15  1  0
 15 16  1  0
 16 17  1  0
 17 18  2  0
 18 19  1  0
 19 20  2  0
 20 21  1  0
 21 22  1  0
 22 23  2  0
 23 24  1  0
 24 25  1  0
 20 26  1  0
 26 27  2  0
 27 28  1  0
 16 29  1  0
  6  2  1  0
 29 13  1  0
 10  5  1  0
 27 17  1  0
 25 21  2  0
  1 30  1  0
  1 31  1  0
  1 32  1  0
  3 33  1  0
  3 34  1  0
  4 35  1  0
  4 36  1  0
  5 37  1  6
  6 38  1  6
  7 39  1  0
  7 40  1  0
  8 41  1  0
  8 42  1  0
  9 43  1  0
  9 44  1  0
 13 45  1  1
 14 46  1  0
 14 47  1  0
 15 48  1  0
 15 49  1  0
 18 50  1  0
 19 51  1  0
 24 52  1  0
 26 53  1  0
 29 54  1  0
 29 55  1  0
M  END
>  <meeko>  (5) 
{"is_sidechain": [false], "free_energy": -7.914, "intermolecular_energy": -9.365, "internal_energy": -0.892}

$$$$
