ligand_14_conformer_3_docked
     RDKit          3D

 47 50  0  0  0  0  0  0  0  0999 V2000
   10.3490   46.0190   51.0420 C   0  0  0  0  0  0  0  0  0  0  0  0
    9.2320   46.3580   51.9850 C   0  0  0  0  0  0  0  0  0  0  0  0
    9.5110   46.9560   53.2220 C   0  0  0  0  0  0  0  0  0  0  0  0
    8.4790   47.2330   54.1210 C   0  0  0  0  0  0  0  0  0  0  0  0
    8.7690   47.8120   55.3140 F   0  0  0  0  0  0  0  0  0  0  0  0
    7.1570   46.9060   53.7990 C   0  0  0  0  0  0  0  0  0  0  0  0
    6.1630   47.1670   54.6880 N   0  0  0  0  0  0  0  0  0  0  0  0
    4.8660   46.8620   54.4300 C   0  0  0  0  0  0  0  0  0  0  0  0
    3.8920   47.1540   55.3820 O   0  0  0  0  0  0  0  0  0  0  0  0
    4.5190   46.2620   53.2170 C   0  0  0  0  0  0  0  0  0  0  0  0
    5.5090   45.9730   52.2690 C   0  0  0  0  0  0  0  0  0  0  0  0
    5.1000   45.3700   50.9850 C   0  0  0  0  0  0  0  0  0  0  0  0
    4.6480   46.1180   50.0750 O   0  0  0  0  0  0  0  0  0  0  0  0
    5.1930   43.9520   50.7640 N   0  0  0  0  0  0  0  0  0  0  0  0
    4.2130   42.9930   51.2530 C   0  0  0  0  0  0  0  0  0  0  0  0
    4.7050   41.6150   50.8190 C   0  0  0  0  0  0  0  0  0  0  0  0
    6.0980   41.8270   50.2070 C   0  0  1  0  0  0  0  0  0  0  0  0
    6.2590   41.1490   48.9110 N   0  0  0  0  0  0  0  0  0  0  0  0
    5.3400   41.1560   47.7940 C   0  0  0  0  0  0  0  0  0  0  0  0
    4.1010   40.4820   47.8180 C   0  0  0  0  0  0  0  0  0  0  0  0
    3.2490   40.5230   46.7120 C   0  0  0  0  0  0  0  0  0  0  0  0
    3.6160   41.2330   45.5680 C   0  0  0  0  0  0  0  0  0  0  0  0
    4.8380   41.9050   45.5280 C   0  0  0  0  0  0  0  0  0  0  0  0
    5.6940   41.8680   46.6330 C   0  0  0  0  0  0  0  0  0  0  0  0
    6.3390   43.3340   50.1210 C   0  0  0  0  0  0  0  0  0  0  0  0
    6.8570   46.2970   52.5560 C   0  0  0  0  0  0  0  0  0  0  0  0
    7.9110   46.0130   51.6620 C   0  0  0  0  0  0  0  0  0  0  0  0
   11.2456   45.7469   51.6183 H   0  0  0  0  0  0  0  0  0  0  0  0
   10.0493   45.1714   50.4082 H   0  0  0  0  0  0  0  0  0  0  0  0
   10.5710   46.8902   50.4082 H   0  0  0  0  0  0  0  0  0  0  0  0
   10.5486   47.2084   53.4858 H   0  0  0  0  0  0  0  0  0  0  0  0
    3.0190   47.6020   55.1270 H   0  0  0  0  0  0  0  0  0  0  0  0
    3.4677   46.0164   53.0062 H   0  0  0  0  0  0  0  0  0  0  0  0
    4.1446   43.0446   52.3497 H   0  0  0  0  0  0  0  0  0  0  0  0
    3.2120   43.2045   50.8490 H   0  0  0  0  0  0  0  0  0  0  0  0
    4.7688   40.9426   51.6872 H   0  0  0  0  0  0  0  0  0  0  0  0
    4.0164   41.1545   50.0952 H   0  0  0  0  0  0  0  0  0  0  0  0
    6.8616   41.3649   50.8500 H   0  0  0  0  0  0  0  0  0  0  0  0
    7.1420   40.6000   48.7970 H   0  0  0  0  0  0  0  0  0  0  0  0
    3.8034   39.9195   48.7152 H   0  0  0  0  0  0  0  0  0  0  0  0
    2.2852   39.9937   46.7428 H   0  0  0  0  0  0  0  0  0  0  0  0
    2.9425   41.2628   44.6988 H   0  0  0  0  0  0  0  0  0  0  0  0
    5.1283   42.4644   44.6264 H   0  0  0  0  0  0  0  0  0  0  0  0
    6.6551   42.4016   46.5943 H   0  0  0  0  0  0  0  0  0  0  0  0
    7.2663   43.6048   50.6470 H   0  0  0  0  0  0  0  0  0  0  0  0
    6.4497   43.6689   49.0791 H   0  0  0  0  0  0  0  0  0  0  0  0
    7.6953   45.5171   50.7041 H   0  0  0  0  0  0  0  0  0  0  0  0
  1  2  1  0
  2  3  2  0
  3  4  1  0
  4  5  1  0
  4  6  2  0
  6  7  1  0
  7  8  2  0
  8  9  1  0
  8 10  1  0
 10 11  2  0
 11 12  1  0
 12 13  2  0
 12 14  1  0
 14 15  1  0
 15 16  1  0
 16 17  1  0
 17 18  1  0
 18 19  1  0
 19 20  2  0
 20 21  1  0
 21 22  2  0
 22 23  1  0
 23 24  2  0
 17 25  1  0
 11 26  1  0
 26 27  2  0
 27  2  1  0
 26  6  1  0
 25 14  1  0
 24 19  1  0
  1 28  1  0
  1 29  1  0
  1 30  1  0
  3 31  1  0
  9 32  1  0
 10 33  1  0
 15 34  1  0
 15 35  1  0
 16 36  1  0
 16 37  1  0
 17 38  1  1
 18 39  1  0
 20 40  1  0
 21 41  1  0
 22 42  1  0
 23 43  1  0
 24 44  1  0
 25 45  1  0
 25 46  1  0
 27 47  1  0
M  END
>  <meeko>  (1) 
{"is_sidechain": [false], "free_energy": -9.769, "intermolecular_energy": -12.339, "internal_energy": -0.557}

$$$$
ligand_14_conformer_3_docked
     RDKit          3D

 47 50  0  0  0  0  0  0  0  0999 V2000
    7.3040   43.0940   49.6530 C   0  0  0  0  0  0  0  0  0  0  0  0
    5.8890   42.8010   50.0570 C   0  0  0  0  0  0  0  0  0  0  0  0
    5.3020   41.5720   49.7250 C   0  0  0  0  0  0  0  0  0  0  0  0
    3.9710   41.3120   50.0600 C   0  0  0  0  0  0  0  0  0  0  0  0
    3.4200   40.1160   49.7290 F   0  0  0  0  0  0  0  0  0  0  0  0
    3.2090   42.2800   50.7210 C   0  0  0  0  0  0  0  0  0  0  0  0
    1.9100   42.0210   51.0290 N   0  0  0  0  0  0  0  0  0  0  0  0
    1.1240   42.9290   51.6610 C   0  0  0  0  0  0  0  0  0  0  0  0
   -0.1990   42.6040   51.9500 O   0  0  0  0  0  0  0  0  0  0  0  0
    1.6450   44.1750   52.0190 C   0  0  0  0  0  0  0  0  0  0  0  0
    2.9780   44.4880   51.7210 C   0  0  0  0  0  0  0  0  0  0  0  0
    3.5040   45.8020   52.1450 C   0  0  0  0  0  0  0  0  0  0  0  0
    3.1260   46.8380   51.5340 O   0  0  0  0  0  0  0  0  0  0  0  0
    4.4470   45.9130   53.2250 N   0  0  0  0  0  0  0  0  0  0  0  0
    4.6650   44.8710   54.2180 C   0  0  0  0  0  0  0  0  0  0  0  0
    5.7210   45.4080   55.1800 C   0  0  0  0  0  0  0  0  0  0  0  0
    5.9670   46.8700   54.7810 C   0  0  1  0  0  0  0  0  0  0  0  0
    7.3970   47.1970   54.6670 N   0  0  0  0  0  0  0  0  0  0  0  0
    8.2960   46.8470   53.5880 C   0  0  0  0  0  0  0  0  0  0  0  0
    7.8420   46.4320   52.3190 C   0  0  0  0  0  0  0  0  0  0  0  0
    8.7530   46.1070   51.3110 C   0  0  0  0  0  0  0  0  0  0  0  0
   10.1250   46.1890   51.5520 C   0  0  0  0  0  0  0  0  0  0  0  0
   10.5900   46.5980   52.8020 C   0  0  0  0  0  0  0  0  0  0  0  0
    9.6820   46.9250   53.8130 C   0  0  0  0  0  0  0  0  0  0  0  0
    5.1950   47.1300   53.4870 C   0  0  0  0  0  0  0  0  0  0  0  0
    3.7830   43.5300   51.0610 C   0  0  0  0  0  0  0  0  0  0  0  0
    5.1250   43.7830   50.7060 C   0  0  0  0  0  0  0  0  0  0  0  0
    7.9232   43.2222   50.5531 H   0  0  0  0  0  0  0  0  0  0  0  0
    7.6952   42.2578   49.0549 H   0  0  0  0  0  0  0  0  0  0  0  0
    7.3310   44.0168   49.0549 H   0  0  0  0  0  0  0  0  0  0  0  0
    5.8927   40.8083   49.1979 H   0  0  0  0  0  0  0  0  0  0  0  0
   -0.9710   43.0270   51.4470 H   0  0  0  0  0  0  0  0  0  0  0  0
    1.0092   44.9098   52.5345 H   0  0  0  0  0  0  0  0  0  0  0  0
    3.7307   44.6587   54.7583 H   0  0  0  0  0  0  0  0  0  0  0  0
    4.9943   43.9332   53.7468 H   0  0  0  0  0  0  0  0  0  0  0  0
    5.3553   45.3527   56.2159 H   0  0  0  0  0  0  0  0  0  0  0  0
    6.6478   44.8181   55.1248 H   0  0  0  0  0  0  0  0  0  0  0  0
    5.6006   47.5387   55.5738 H   0  0  0  0  0  0  0  0  0  0  0  0
    7.7990   47.7420   55.4640 H   0  0  0  0  0  0  0  0  0  0  0  0
    6.7621   46.3637   52.1213 H   0  0  0  0  0  0  0  0  0  0  0  0
    8.3877   45.7855   50.3245 H   0  0  0  0  0  0  0  0  0  0  0  0
   10.8397   45.9312   50.7565 H   0  0  0  0  0  0  0  0  0  0  0  0
   11.6715   46.6632   52.9920 H   0  0  0  0  0  0  0  0  0  0  0  0
   10.0559   47.2471   54.7961 H   0  0  0  0  0  0  0  0  0  0  0  0
    4.5102   47.9815   53.6133 H   0  0  0  0  0  0  0  0  0  0  0  0
    5.8695   47.3794   52.6547 H   0  0  0  0  0  0  0  0  0  0  0  0
    5.5762   44.7585   50.9400 H   0  0  0  0  0  0  0  0  0  0  0  0
  1  2  1  0
  2  3  2  0
  3  4  1  0
  4  5  1  0
  4  6  2  0
  6  7  1  0
  7  8  2  0
  8  9  1  0
  8 10  1  0
 10 11  2  0
 11 12  1  0
 12 13  2  0
 12 14  1  0
 14 15  1  0
 15 16  1  0
 16 17  1  0
 17 18  1  0
 18 19  1  0
 19 20  2  0
 20 21  1  0
 21 22  2  0
 22 23  1  0
 23 24  2  0
 17 25  1  0
 11 26  1  0
 26 27  2  0
 27  2  1  0
 26  6  1  0
 25 14  1  0
 24 19  1  0
  1 28  1  0
  1 29  1  0
  1 30  1  0
  3 31  1  0
  9 32  1  0
 10 33  1  0
 15 34  1  0
 15 35  1  0
 16 36  1  0
 16 37  1  0
 17 38  1  1
 18 39  1  0
 20 40  1  0
 21 41  1  0
 22 42  1  0
 23 43  1  0
 24 44  1  0
 25 45  1  0
 25 46  1  0
 27 47  1  0
M  END
>  <meeko>  (2) 
{"is_sidechain": [false], "free_energy": -9.735, "intermolecular_energy": -12.228, "internal_energy": -0.625}

$$$$
ligand_14_conformer_3_docked
     RDKit          3D

 47 50  0  0  0  0  0  0  0  0999 V2000
   10.9870   45.8750   51.4710 C   0  0  0  0  0  0  0  0  0  0  0  0
    9.8060   46.3340   52.2750 C   0  0  0  0  0  0  0  0  0  0  0  0
    9.9950   47.1250   53.4160 C   0  0  0  0  0  0  0  0  0  0  0  0
    8.9030   47.5170   54.1940 C   0  0  0  0  0  0  0  0  0  0  0  0
    9.1080   48.2830   55.2960 F   0  0  0  0  0  0  0  0  0  0  0  0
    7.6100   47.1140   53.8450 C   0  0  0  0  0  0  0  0  0  0  0  0
    6.5560   47.4900   54.6170 N   0  0  0  0  0  0  0  0  0  0  0  0
    5.2820   47.1190   54.3290 C   0  0  0  0  0  0  0  0  0  0  0  0
    4.2450   47.5360   55.1590 O   0  0  0  0  0  0  0  0  0  0  0  0
    5.0230   46.3280   53.2070 C   0  0  0  0  0  0  0  0  0  0  0  0
    6.0780   45.9140   52.3820 C   0  0  0  0  0  0  0  0  0  0  0  0
    5.7610   45.1080   51.1860 C   0  0  0  0  0  0  0  0  0  0  0  0
    6.2680   45.4320   50.0770 O   0  0  0  0  0  0  0  0  0  0  0  0
    4.8760   43.9770   51.2630 N   0  0  0  0  0  0  0  0  0  0  0  0
    5.2500   42.6300   50.8580 C   0  0  0  0  0  0  0  0  0  0  0  0
    4.0200   41.7550   51.0840 C   0  0  0  0  0  0  0  0  0  0  0  0
    2.8800   42.7060   51.4770 C   0  0  1  0  0  0  0  0  0  0  0  0
    2.1410   42.2490   52.6650 N   0  0  0  0  0  0  0  0  0  0  0  0
    1.2200   43.0160   53.4760 C   0  0  0  0  0  0  0  0  0  0  0  0
    1.6360   44.0740   54.3110 C   0  0  0  0  0  0  0  0  0  0  0  0
    0.7050   44.7840   55.0730 C   0  0  0  0  0  0  0  0  0  0  0  0
   -0.6500   44.4510   55.0170 C   0  0  0  0  0  0  0  0  0  0  0  0
   -1.0760   43.4060   54.1960 C   0  0  0  0  0  0  0  0  0  0  0  0
   -0.1480   42.6940   53.4310 C   0  0  0  0  0  0  0  0  0  0  0  0
    3.4830   44.1000   51.6540 C   0  0  0  0  0  0  0  0  0  0  0  0
    7.3990   46.3100   52.6980 C   0  0  0  0  0  0  0  0  0  0  0  0
    8.5130   45.9130   51.9290 C   0  0  0  0  0  0  0  0  0  0  0  0
   11.7935   45.5616   52.1502 H   0  0  0  0  0  0  0  0  0  0  0  0
   10.6913   45.0263   50.8367 H   0  0  0  0  0  0  0  0  0  0  0  0
   11.3420   46.7006   50.8367 H   0  0  0  0  0  0  0  0  0  0  0  0
   11.0099   47.4394   53.7010 H   0  0  0  0  0  0  0  0  0  0  0  0
    4.2480   48.4520   55.5930 H   0  0  0  0  0  0  0  0  0  0  0  0
    3.9908   46.0299   52.9708 H   0  0  0  0  0  0  0  0  0  0  0  0
    5.5357   42.6176   49.7958 H   0  0  0  0  0  0  0  0  0  0  0  0
    6.1113   42.2643   51.4364 H   0  0  0  0  0  0  0  0  0  0  0  0
    3.7632   41.2135   50.1616 H   0  0  0  0  0  0  0  0  0  0  0  0
    4.2021   41.0044   51.8672 H   0  0  0  0  0  0  0  0  0  0  0  0
    2.1219   42.7276   50.6802 H   0  0  0  0  0  0  0  0  0  0  0  0
    2.3100   41.2560   52.9460 H   0  0  0  0  0  0  0  0  0  0  0  0
    2.7016   44.3420   54.3625 H   0  0  0  0  0  0  0  0  0  0  0  0
    1.0405   45.6083   55.7195 H   0  0  0  0  0  0  0  0  0  0  0  0
   -1.3804   45.0115   55.6190 H   0  0  0  0  0  0  0  0  0  0  0  0
   -2.1430   43.1425   54.1509 H   0  0  0  0  0  0  0  0  0  0  0  0
   -0.4919   41.8720   52.7860 H   0  0  0  0  0  0  0  0  0  0  0  0
    2.9662   44.8263   51.0094 H   0  0  0  0  0  0  0  0  0  0  0  0
    3.3815   44.4583   52.6891 H   0  0  0  0  0  0  0  0  0  0  0  0
    8.3667   45.2676   51.0503 H   0  0  0  0  0  0  0  0  0  0  0  0
  1  2  1  0
  2  3  2  0
  3  4  1  0
  4  5  1  0
  4  6  2  0
  6  7  1  0
  7  8  2  0
  8  9  1  0
  8 10  1  0
 10 11  2  0
 11 12  1  0
 12 13  2  0
 12 14  1  0
 14 15  1  0
 15 16  1  0
 16 17  1  0
 17 18  1  0
 18 19  1  0
 19 20  2  0
 20 21  1  0
 21 22  2  0
 22 23  1  0
 23 24  2  0
 17 25  1  0
 11 26  1  0
 26 27  2  0
 27  2  1  0
 26  6  1  0
 25 14  1  0
 24 19  1  0
  1 28  1  0
  1 29  1  0
  1 30  1  0
  3 31  1  0
  9 32  1  0
 10 33  1  0
 15 34  1  0
 15 35  1  0
 16 36  1  0
 16 37  1  0
 17 38  1  6
 18 39  1  0
 20 40  1  0
 21 41  1  0
 22 42  1  0
 23 43  1  0
 24 44  1  0
 25 45  1  0
 25 46  1  0
 27 47  1  0
M  END
>  <meeko>  (3) 
{"is_sidechain": [false], "free_energy": -9.56, "intermolecular_energy": -12.862, "internal_energy": 0.231}

$$$$
ligand_14_conformer_3_docked
     RDKit          3D

 47 50  0  0  0  0  0  0  0  0999 V2000
    8.9990   48.3500   55.3010 C   0  0  0  0  0  0  0  0  0  0  0  0
    9.0390   47.5110   54.0570 C   0  0  0  0  0  0  0  0  0  0  0  0
   10.2690   47.1680   53.4790 C   0  0  0  0  0  0  0  0  0  0  0  0
   10.3110   46.4250   52.2970 C   0  0  0  0  0  0  0  0  0  0  0  0
   11.5130   46.1030   51.7520 F   0  0  0  0  0  0  0  0  0  0  0  0
    9.1250   46.0250   51.6740 C   0  0  0  0  0  0  0  0  0  0  0  0
    9.1780   45.3150   50.5160 N   0  0  0  0  0  0  0  0  0  0  0  0
    8.0580   44.9090   49.8660 C   0  0  0  0  0  0  0  0  0  0  0  0
    8.1770   44.1840   48.6830 O   0  0  0  0  0  0  0  0  0  0  0  0
    6.7980   45.2200   50.3870 C   0  0  0  0  0  0  0  0  0  0  0  0
    6.6930   45.9520   51.5770 C   0  0  0  0  0  0  0  0  0  0  0  0
    5.3460   46.2310   52.1140 C   0  0  0  0  0  0  0  0  0  0  0  0
    5.1270   47.3430   52.6690 O   0  0  0  0  0  0  0  0  0  0  0  0
    4.2930   45.2550   52.0300 N   0  0  0  0  0  0  0  0  0  0  0  0
    2.9730   45.5360   51.4860 C   0  0  0  0  0  0  0  0  0  0  0  0
    2.1730   44.2420   51.6060 C   0  0  0  0  0  0  0  0  0  0  0  0
    3.0510   43.2640   52.4010 C   0  0  1  0  0  0  0  0  0  0  0  0
    3.1330   41.9360   51.7740 N   0  0  0  0  0  0  0  0  0  0  0  0
    3.8320   41.5800   50.5580 C   0  0  0  0  0  0  0  0  0  0  0  0
    5.1700   41.9490   50.3080 C   0  0  0  0  0  0  0  0  0  0  0  0
    5.7990   41.5780   49.1160 C   0  0  0  0  0  0  0  0  0  0  0  0
    5.1050   40.8370   48.1580 C   0  0  0  0  0  0  0  0  0  0  0  0
    3.7810   40.4640   48.3900 C   0  0  0  0  0  0  0  0  0  0  0  0
    3.1490   40.8320   49.5810 C   0  0  0  0  0  0  0  0  0  0  0  0
    4.4200   43.9200   52.5850 C   0  0  0  0  0  0  0  0  0  0  0  0
    7.8720   46.3660   52.2410 C   0  0  0  0  0  0  0  0  0  0  0  0
    7.8450   47.1270   53.4290 C   0  0  0  0  0  0  0  0  0  0  0  0
    9.0302   47.6964   56.1852 H   0  0  0  0  0  0  0  0  0  0  0  0
    9.8659   49.0270   55.3147 H   0  0  0  0  0  0  0  0  0  0  0  0
    8.0716   48.9414   55.3147 H   0  0  0  0  0  0  0  0  0  0  0  0
   11.2064   47.4857   53.9589 H   0  0  0  0  0  0  0  0  0  0  0  0
    8.2650   43.1750   48.6870 H   0  0  0  0  0  0  0  0  0  0  0  0
    5.8892   44.8899   49.8624 H   0  0  0  0  0  0  0  0  0  0  0  0
    2.4874   46.3382   52.0611 H   0  0  0  0  0  0  0  0  0  0  0  0
    3.0358   45.8704   50.4399 H   0  0  0  0  0  0  0  0  0  0  0  0
    1.2288   44.4261   52.1395 H   0  0  0  0  0  0  0  0  0  0  0  0
    1.9185   43.8362   50.6158 H   0  0  0  0  0  0  0  0  0  0  0  0
    2.5980   43.0696   53.3843 H   0  0  0  0  0  0  0  0  0  0  0  0
    2.6240   41.1700   52.2720 H   0  0  0  0  0  0  0  0  0  0  0  0
    5.7235   42.5338   51.0575 H   0  0  0  0  0  0  0  0  0  0  0  0
    6.8434   41.8707   48.9325 H   0  0  0  0  0  0  0  0  0  0  0  0
    5.6020   40.5473   47.2204 H   0  0  0  0  0  0  0  0  0  0  0  0
    3.2341   39.8799   47.6352 H   0  0  0  0  0  0  0  0  0  0  0  0
    2.1050   40.5333   49.7569 H   0  0  0  0  0  0  0  0  0  0  0  0
    4.6803   43.9715   53.6525 H   0  0  0  0  0  0  0  0  0  0  0  0
    5.2154   43.3468   52.0863 H   0  0  0  0  0  0  0  0  0  0  0  0
    6.8796   47.4215   53.8662 H   0  0  0  0  0  0  0  0  0  0  0  0
  1  2  1  0
  2  3  2  0
  3  4  1  0
  4  5  1  0
  4  6  2  0
  6  7  1  0
  7  8  2  0
  8  9  1  0
  8 10  1  0
 10 11  2  0
 11 12  1  0
 12 13  2  0
 12 14  1  0
 14 15  1  0
 15 16  1  0
 16 17  1  0
 17 18  1  0
 18 19  1  0
 19 20  2  0
 20 21  1  0
 21 22  2  0
 22 23  1  0
 23 24  2  0
 17 25  1  0
 11 26  1  0
 26 27  2  0
 27  2  1  0
 26  6  1  0
 25 14  1  0
 24 19  1  0
  1 28  1  0
  1 29  1  0
  1 30  1  0
  3 31  1  0
  9 32  1  0
 10 33  1  0
 15 34  1  0
 15 35  1  0
 16 36  1  0
 16 37  1  0
 17 38  1  1
 18 39  1  0
 20 40  1  0
 21 41  1  0
 22 42  1  0
 23 43  1  0
 24 44  1  0
 25 45  1  0
 25 46  1  0
 27 47  1  0
M  END
>  <meeko>  (4) 
{"is_sidechain": [false], "free_energy": -9.26, "intermolecular_energy": -12.042, "internal_energy": -0.211}

$$$$
ligand_14_conformer_3_docked
     RDKit          3D

 47 50  0  0  0  0  0  0  0  0999 V2000
    8.7260   48.2790   54.7160 C   0  0  0  0  0  0  0  0  0  0  0  0
    8.7580   47.3170   53.5650 C   0  0  0  0  0  0  0  0  0  0  0  0
    9.9850   46.9030   53.0280 C   0  0  0  0  0  0  0  0  0  0  0  0
   10.0200   46.0420   51.9280 C   0  0  0  0  0  0  0  0  0  0  0  0
   11.2180   45.6520   51.4230 F   0  0  0  0  0  0  0  0  0  0  0  0
    8.8300   45.5940   51.3460 C   0  0  0  0  0  0  0  0  0  0  0  0
    8.8760   44.7690   50.2680 N   0  0  0  0  0  0  0  0  0  0  0  0
    7.7520   44.3120   49.6590 C   0  0  0  0  0  0  0  0  0  0  0  0
    7.8650   43.4690   48.5570 O   0  0  0  0  0  0  0  0  0  0  0  0
    6.4960   44.6890   50.1420 C   0  0  0  0  0  0  0  0  0  0  0  0
    6.3970   45.5400   51.2510 C   0  0  0  0  0  0  0  0  0  0  0  0
    5.0530   45.8890   51.7530 C   0  0  0  0  0  0  0  0  0  0  0  0
    4.8090   47.0860   52.0680 O   0  0  0  0  0  0  0  0  0  0  0  0
    4.0320   44.8870   51.9050 N   0  0  0  0  0  0  0  0  0  0  0  0
    4.2090   43.6620   52.6690 C   0  0  0  0  0  0  0  0  0  0  0  0
    2.9000   42.8860   52.5500 C   0  0  0  0  0  0  0  0  0  0  0  0
    2.0340   43.6540   51.5400 C   0  0  1  0  0  0  0  0  0  0  0  0
    0.6590   43.8680   52.0180 N   0  0  0  0  0  0  0  0  0  0  0  0
    0.2340   44.1750   53.3670 C   0  0  0  0  0  0  0  0  0  0  0  0
    0.9090   45.1010   54.1890 C   0  0  0  0  0  0  0  0  0  0  0  0
    0.4560   45.3620   55.4850 C   0  0  0  0  0  0  0  0  0  0  0  0
   -0.6720   44.7060   55.9790 C   0  0  0  0  0  0  0  0  0  0  0  0
   -1.3510   43.7870   55.1780 C   0  0  0  0  0  0  0  0  0  0  0  0
   -0.9020   43.5240   53.8810 C   0  0  0  0  0  0  0  0  0  0  0  0
    2.7580   44.9600   51.2120 C   0  0  0  0  0  0  0  0  0  0  0  0
    7.5800   46.0070   51.8720 C   0  0  0  0  0  0  0  0  0  0  0  0
    7.5600   46.8850   52.9760 C   0  0  0  0  0  0  0  0  0  0  0  0
    8.7446   47.7190   55.6626 H   0  0  0  0  0  0  0  0  0  0  0  0
    9.6026   48.9415   54.6646 H   0  0  0  0  0  0  0  0  0  0  0  0
    7.8073   48.8818   54.6646 H   0  0  0  0  0  0  0  0  0  0  0  0
   10.9253   47.2579   53.4750 H   0  0  0  0  0  0  0  0  0  0  0  0
    8.6540   43.5260   47.9240 H   0  0  0  0  0  0  0  0  0  0  0  0
    5.5843   44.3175   49.6513 H   0  0  0  0  0  0  0  0  0  0  0  0
    5.0398   43.0721   52.2546 H   0  0  0  0  0  0  0  0  0  0  0  0
    4.4493   43.8792   53.7202 H   0  0  0  0  0  0  0  0  0  0  0  0
    3.0937   41.8657   52.1875 H   0  0  0  0  0  0  0  0  0  0  0  0
    2.3965   42.7995   53.5241 H   0  0  0  0  0  0  0  0  0  0  0  0
    1.9114   43.0577   50.6238 H   0  0  0  0  0  0  0  0  0  0  0  0
   -0.0880   43.7840   51.2910 H   0  0  0  0  0  0  0  0  0  0  0  0
    1.7993   45.6221   53.8070 H   0  0  0  0  0  0  0  0  0  0  0  0
    0.9901   46.0865   56.1173 H   0  0  0  0  0  0  0  0  0  0  0  0
   -1.0260   44.9132   56.9997 H   0  0  0  0  0  0  0  0  0  0  0  0
   -2.2400   43.2694   55.5676 H   0  0  0  0  0  0  0  0  0  0  0  0
   -1.4432   42.7995   53.2548 H   0  0  0  0  0  0  0  0  0  0  0  0
    2.9160   45.0491   50.1271 H   0  0  0  0  0  0  0  0  0  0  0  0
    2.1744   45.8380   51.5260 H   0  0  0  0  0  0  0  0  0  0  0  0
    6.5975   47.2338   53.3783 H   0  0  0  0  0  0  0  0  0  0  0  0
  1  2  1  0
  2  3  2  0
  3  4  1  0
  4  5  1  0
  4  6  2  0
  6  7  1  0
  7  8  2  0
  8  9  1  0
  8 10  1  0
 10 11  2  0
 11 12  1  0
 12 13  2  0
 12 14  1  0
 14 15  1  0
 15 16  1  0
 16 17  1  0
 17 18  1  0
 18 19  1  0
 19 20  2  0
 20 21  1  0
 21 22  2  0
 22 23  1  0
 23 24  2  0
 17 25  1  0
 11 26  1  0
 26 27  2  0
 27  2  1  0
 26  6  1  0
 25 14  1  0
 24 19  1  0
  1 28  1  0
  1 29  1  0
  1 30  1  0
  3 31  1  0
  9 32  1  0
 10 33  1  0
 15 34  1  0
 15 35  1  0
 16 36  1  0
 16 37  1  0
 17 38  1  6
 18 39  1  0
 20 40  1  0
 21 41  1  0
 22 42  1  0
 23 43  1  0
 24 44  1  0
 25 45  1  0
 25 46  1  0
 27 47  1  0
M  END
>  <meeko>  (5) 
{"is_sidechain": [false], "free_energy": -8.877, "intermolecular_energy": -11.562, "internal_energy": -0.207}

$$$$
