MODEL 1
REMARK VINA RESULT:    -8.298      0.000      0.000
REMARK INTER + INTRA:         -13.732
REMARK INTER:                 -12.179
REMARK INTRA:                  -1.553
REMARK UNBOUND:                -1.553
REMARK SMILES COc1ccc([C@H](NC(=O)c2ccccc2SCC(=O)N2CCCC2)C(F)F)cc1
REMARK SMILES IDX 8 1 9 2 10 3 7 5 6 6 3 7 4 8 30 9 5 10 29 11 2 12 1 13 26 14
REMARK SMILES IDX 27 15 28 16 11 17 12 18 16 19 13 20 15 21 14 22 17 23 18 24
REMARK SMILES IDX 19 25 20 26 21 27 22 28 25 29 23 30 24 31
REMARK H PARENT 8 4
ROOT
ATOM      1  N   UNL     1       5.175  43.280  50.405  1.00  0.00    -0.339 N 
ATOM      2  C   UNL     1       4.226  42.901  51.419  1.00  0.00     0.253 C 
ATOM      3  O   UNL     1       4.259  41.743  51.925  1.00  0.00    -0.269 OA
ATOM      4  H   UNL     1       5.108  44.240  49.999  1.00  0.00     0.164 HD
ENDROOT
BRANCH   1   5
ATOM      5  C   UNL     1       6.030  42.305  49.726  1.00  0.00     0.179 C 
BRANCH   5   6
ATOM      6  C   UNL     1       5.274  41.698  48.552  1.00  0.00    -0.020 A 
ATOM      7  C   UNL     1       3.981  40.542  46.319  1.00  0.00     0.118 A 
ATOM      8  C   UNL     1       3.574  40.223  47.616  1.00  0.00     0.047 A 
ATOM      9  C   UNL     1       5.064  41.421  46.139  1.00  0.00     0.047 A 
ATOM     10  C   UNL     1       4.217  40.780  48.726  1.00  0.00     0.010 A 
ATOM     11  C   UNL     1       5.700  41.992  47.246  1.00  0.00     0.010 A 
BRANCH   7  12
ATOM     12  O   UNL     1       3.277  39.978  45.244  1.00  0.00    -0.497 OA
ATOM     13  C   UNL     1       3.845  39.692  43.968  1.00  0.00     0.278 C 
ENDBRANCH   7  12
ENDBRANCH   5   6
BRANCH   5  14
ATOM     14  C   UNL     1       7.380  42.948  49.352  1.00  0.00     0.369 C 
ATOM     15  F   UNL     1       7.401  44.291  49.672  1.00  0.00    -0.208 F 
ATOM     16  F   UNL     1       8.404  42.317  50.044  1.00  0.00    -0.208 F 
ENDBRANCH   5  14
ENDBRANCH   1   5
BRANCH   2  17
ATOM     17  C   UNL     1       3.200  43.864  51.872  1.00  0.00     0.053 A 
ATOM     18  C   UNL     1       1.985  43.949  51.170  1.00  0.00     0.015 A 
ATOM     19  C   UNL     1       3.401  44.679  53.011  1.00  0.00     0.020 A 
ATOM     20  C   UNL     1       0.994  44.844  51.583  1.00  0.00     0.001 A 
ATOM     21  C   UNL     1       2.395  45.570  53.415  1.00  0.00     0.016 A 
ATOM     22  C   UNL     1       1.198  45.652  52.703  1.00  0.00     0.001 A 
BRANCH  19  23
ATOM     23  S   UNL     1       4.924  44.610  53.973  1.00  0.00    -0.115 SA
BRANCH  23  24
ATOM     24  C   UNL     1       5.446  46.324  53.585  1.00  0.00     0.175 C 
BRANCH  24  25
ATOM     25  C   UNL     1       6.416  46.394  52.434  1.00  0.00     0.232 C 
ATOM     26  O   UNL     1       6.016  46.199  51.253  1.00  0.00    -0.274 OA
ATOM     27  N   UNL     1       7.819  46.630  52.676  1.00  0.00    -0.342 N 
ATOM     28  C   UNL     1       8.811  46.647  51.615  1.00  0.00     0.119 C 
ATOM     29  C   UNL     1       8.405  46.760  54.001  1.00  0.00     0.119 C 
ATOM     30  C   UNL     1      10.166  46.686  52.319  1.00  0.00     0.023 C 
ATOM     31  C   UNL     1       9.876  47.084  53.769  1.00  0.00     0.023 C 
ENDBRANCH  24  25
ENDBRANCH  23  24
ENDBRANCH  19  23
ENDBRANCH   2  17
TORSDOF 8
ENDMDL
MODEL 2
REMARK VINA RESULT:    -8.282      2.491      7.270
REMARK INTER + INTRA:         -13.708
REMARK INTER:                 -11.867
REMARK INTRA:                  -1.841
REMARK UNBOUND:                -1.553
REMARK SMILES COc1ccc([C@H](NC(=O)c2ccccc2SCC(=O)N2CCCC2)C(F)F)cc1
REMARK SMILES IDX 8 1 9 2 10 3 7 5 6 6 3 7 4 8 30 9 5 10 29 11 2 12 1 13 26 14
REMARK SMILES IDX 27 15 28 16 11 17 12 18 16 19 13 20 15 21 14 22 17 23 18 24
REMARK SMILES IDX 19 25 20 26 21 27 22 28 25 29 23 30 24 31
REMARK H PARENT 8 4
ROOT
ATOM      1  N   UNL     1       5.003  45.765  52.540  1.00  0.00    -0.339 N 
ATOM      2  C   UNL     1       3.757  46.402  52.878  1.00  0.00     0.253 C 
ATOM      3  O   UNL     1       3.385  47.443  52.266  1.00  0.00    -0.269 OA
ATOM      4  H   UNL     1       5.286  44.914  53.077  1.00  0.00     0.164 HD
ENDROOT
BRANCH   1   5
ATOM      5  C   UNL     1       6.009  46.406  51.691  1.00  0.00     0.179 C 
BRANCH   5   6
ATOM      6  C   UNL     1       7.258  46.692  52.514  1.00  0.00    -0.020 A 
ATOM      7  C   UNL     1       9.543  47.131  54.120  1.00  0.00     0.118 A 
ATOM      8  C   UNL     1       9.664  47.014  52.734  1.00  0.00     0.047 A 
ATOM      9  C   UNL     1       8.273  46.994  54.709  1.00  0.00     0.047 A 
ATOM     10  C   UNL     1       8.541  46.784  51.934  1.00  0.00     0.010 A 
ATOM     11  C   UNL     1       7.145  46.779  53.911  1.00  0.00     0.010 A 
BRANCH   7  12
ATOM     12  O   UNL     1      10.700  47.395  54.869  1.00  0.00    -0.497 OA
ATOM     13  C   UNL     1      10.702  47.822  56.230  1.00  0.00     0.278 C 
ENDBRANCH   7  12
ENDBRANCH   5   6
BRANCH   5  14
ATOM     14  C   UNL     1       6.257  45.562  50.426  1.00  0.00     0.369 C 
ATOM     15  F   UNL     1       7.217  44.595  50.649  1.00  0.00    -0.208 F 
ATOM     16  F   UNL     1       5.080  44.932  50.048  1.00  0.00    -0.208 F 
ENDBRANCH   5  14
ENDBRANCH   1   5
BRANCH   2  17
ATOM     17  C   UNL     1       2.906  45.844  53.949  1.00  0.00     0.053 A 
ATOM     18  C   UNL     1       3.107  46.268  55.274  1.00  0.00     0.015 A 
ATOM     19  C   UNL     1       1.874  44.917  53.668  1.00  0.00     0.020 A 
ATOM     20  C   UNL     1       2.310  45.765  56.305  1.00  0.00     0.001 A 
ATOM     21  C   UNL     1       1.080  44.423  54.713  1.00  0.00     0.016 A 
ATOM     22  C   UNL     1       1.298  44.844  56.025  1.00  0.00     0.001 A 
BRANCH  19  23
ATOM     23  S   UNL     1       1.542  44.343  51.992  1.00  0.00    -0.115 SA
BRANCH  23  24
ATOM     24  C   UNL     1       2.171  42.642  52.269  1.00  0.00     0.175 C 
BRANCH  24  25
ATOM     25  C   UNL     1       3.639  42.504  51.960  1.00  0.00     0.232 C 
ATOM     26  O   UNL     1       4.500  43.016  52.727  1.00  0.00    -0.274 OA
ATOM     27  N   UNL     1       4.071  41.832  50.759  1.00  0.00    -0.342 N 
ATOM     28  C   UNL     1       5.468  41.720  50.376  1.00  0.00     0.119 C 
ATOM     29  C   UNL     1       3.164  41.301  49.753  1.00  0.00     0.119 C 
ATOM     30  C   UNL     1       5.462  41.163  48.954  1.00  0.00     0.023 C 
ATOM     31  C   UNL     1       4.053  40.612  48.724  1.00  0.00     0.023 C 
ENDBRANCH  24  25
ENDBRANCH  23  24
ENDBRANCH  19  23
ENDBRANCH   2  17
TORSDOF 8
ENDMDL
MODEL 3
REMARK VINA RESULT:    -8.045      3.355      6.484
REMARK INTER + INTRA:         -13.361
REMARK INTER:                 -11.698
REMARK INTRA:                  -1.663
REMARK UNBOUND:                -1.553
REMARK SMILES COc1ccc([C@H](NC(=O)c2ccccc2SCC(=O)N2CCCC2)C(F)F)cc1
REMARK SMILES IDX 8 1 9 2 10 3 7 5 6 6 3 7 4 8 30 9 5 10 29 11 2 12 1 13 26 14
REMARK SMILES IDX 27 15 28 16 11 17 12 18 16 19 13 20 15 21 14 22 17 23 18 24
REMARK SMILES IDX 19 25 20 26 21 27 22 28 25 29 23 30 24 31
REMARK H PARENT 8 4
ROOT
ATOM      1  N   UNL     1       4.367  45.244  52.917  1.00  0.00    -0.339 N 
ATOM      2  C   UNL     1       4.458  45.104  51.487  1.00  0.00     0.253 C 
ATOM      3  O   UNL     1       3.973  45.989  50.726  1.00  0.00    -0.269 OA
ATOM      4  H   UNL     1       4.766  44.485  53.515  1.00  0.00     0.164 HD
ENDROOT
BRANCH   1   5
ATOM      5  C   UNL     1       3.506  46.240  53.556  1.00  0.00     0.179 C 
BRANCH   5   6
ATOM      6  C   UNL     1       2.152  45.614  53.866  1.00  0.00    -0.020 A 
ATOM      7  C   UNL     1      -0.375  44.537  54.535  1.00  0.00     0.118 A 
ATOM      8  C   UNL     1      -0.069  44.852  53.210  1.00  0.00     0.047 A 
ATOM      9  C   UNL     1       0.579  44.793  55.537  1.00  0.00     0.047 A 
ATOM     10  C   UNL     1       1.174  45.398  52.872  1.00  0.00     0.010 A 
ATOM     11  C   UNL     1       1.828  45.325  55.201  1.00  0.00     0.010 A 
BRANCH   7  12
ATOM     12  O   UNL     1      -1.625  43.960  54.809  1.00  0.00    -0.497 OA
ATOM     13  C   UNL     1      -2.129  43.712  56.120  1.00  0.00     0.278 C 
ENDBRANCH   7  12
ENDBRANCH   5   6
BRANCH   5  14
ATOM     14  C   UNL     1       4.217  46.857  54.776  1.00  0.00     0.369 C 
ATOM     15  F   UNL     1       5.443  46.261  54.996  1.00  0.00    -0.208 F 
ATOM     16  F   UNL     1       4.422  48.212  54.559  1.00  0.00    -0.208 F 
ENDBRANCH   5  14
ENDBRANCH   1   5
BRANCH   2  17
ATOM     17  C   UNL     1       5.115  43.919  50.898  1.00  0.00     0.053 A 
ATOM     18  C   UNL     1       4.500  42.662  51.026  1.00  0.00     0.015 A 
ATOM     19  C   UNL     1       6.331  44.025  50.182  1.00  0.00     0.020 A 
ATOM     20  C   UNL     1       5.094  41.526  50.470  1.00  0.00     0.001 A 
ATOM     21  C   UNL     1       6.913  42.877  49.626  1.00  0.00     0.016 A 
ATOM     22  C   UNL     1       6.298  41.633  49.771  1.00  0.00     0.001 A 
BRANCH  19  23
ATOM     23  S   UNL     1       7.167  45.606  49.957  1.00  0.00    -0.115 SA
BRANCH  23  24
ATOM     24  C   UNL     1       8.089  45.537  51.541  1.00  0.00     0.175 C 
BRANCH  24  25
ATOM     25  C   UNL     1       7.709  46.646  52.488  1.00  0.00     0.232 C 
ATOM     26  O   UNL     1       6.635  47.285  52.319  1.00  0.00    -0.274 OA
ATOM     27  N   UNL     1       8.595  47.021  53.562  1.00  0.00    -0.342 N 
ATOM     28  C   UNL     1       8.314  48.121  54.470  1.00  0.00     0.119 C 
ATOM     29  C   UNL     1       9.904  46.426  53.783  1.00  0.00     0.119 C 
ATOM     30  C   UNL     1       9.593  48.323  55.280  1.00  0.00     0.023 C 
ATOM     31  C   UNL     1      10.432  47.062  55.064  1.00  0.00     0.023 C 
ENDBRANCH  24  25
ENDBRANCH  23  24
ENDBRANCH  19  23
ENDBRANCH   2  17
TORSDOF 8
ENDMDL
MODEL 4
REMARK VINA RESULT:    -7.999      2.848      6.924
REMARK INTER + INTRA:         -13.293
REMARK INTER:                 -11.838
REMARK INTRA:                  -1.456
REMARK UNBOUND:                -1.553
REMARK SMILES COc1ccc([C@H](NC(=O)c2ccccc2SCC(=O)N2CCCC2)C(F)F)cc1
REMARK SMILES IDX 8 1 9 2 10 3 7 5 6 6 3 7 4 8 30 9 5 10 29 11 2 12 1 13 26 14
REMARK SMILES IDX 27 15 28 16 11 17 12 18 16 19 13 20 15 21 14 22 17 23 18 24
REMARK SMILES IDX 19 25 20 26 21 27 22 28 25 29 23 30 24 31
REMARK H PARENT 8 4
ROOT
ATOM      1  N   UNL     1       4.943  46.061  53.857  1.00  0.00    -0.339 N 
ATOM      2  C   UNL     1       5.717  47.148  53.317  1.00  0.00     0.253 C 
ATOM      3  O   UNL     1       5.264  48.328  53.336  1.00  0.00    -0.269 OA
ATOM      4  H   UNL     1       5.343  45.097  53.811  1.00  0.00     0.164 HD
ENDROOT
BRANCH   1   5
ATOM      5  C   UNL     1       3.527  46.201  54.203  1.00  0.00     0.179 C 
BRANCH   5   6
ATOM      6  C   UNL     1       2.682  45.416  53.208  1.00  0.00    -0.020 A 
ATOM      7  C   UNL     1       1.102  43.868  51.448  1.00  0.00     0.118 A 
ATOM      8  C   UNL     1       0.831  45.225  51.634  1.00  0.00     0.047 A 
ATOM      9  C   UNL     1       2.150  43.274  52.174  1.00  0.00     0.047 A 
ATOM     10  C   UNL     1       1.600  45.995  52.512  1.00  0.00     0.010 A 
ATOM     11  C   UNL     1       2.930  44.044  53.042  1.00  0.00     0.010 A 
BRANCH   7  12
ATOM     12  O   UNL     1       0.318  43.153  50.529  1.00  0.00    -0.497 OA
ATOM     13  C   UNL     1      -1.108  43.162  50.505  1.00  0.00     0.278 C 
ENDBRANCH   7  12
ENDBRANCH   5   6
BRANCH   5  14
ATOM     14  C   UNL     1       3.297  45.818  55.677  1.00  0.00     0.369 C 
ATOM     15  F   UNL     1       2.045  45.265  55.862  1.00  0.00    -0.208 F 
ATOM     16  F   UNL     1       4.248  44.887  56.070  1.00  0.00    -0.208 F 
ENDBRANCH   5  14
ENDBRANCH   1   5
BRANCH   2  17
ATOM     17  C   UNL     1       7.048  46.889  52.728  1.00  0.00     0.053 A 
ATOM     18  C   UNL     1       8.190  47.401  53.368  1.00  0.00     0.015 A 
ATOM     19  C   UNL     1       7.201  46.115  51.553  1.00  0.00     0.020 A 
ATOM     20  C   UNL     1       9.461  47.163  52.839  1.00  0.00     0.001 A 
ATOM     21  C   UNL     1       8.483  45.882  51.037  1.00  0.00     0.016 A 
ATOM     22  C   UNL     1       9.608  46.405  51.676  1.00  0.00     0.001 A 
BRANCH  19  23
ATOM     23  S   UNL     1       5.785  45.409  50.690  1.00  0.00    -0.115 SA
BRANCH  23  24
ATOM     24  C   UNL     1       6.329  43.667  50.869  1.00  0.00     0.175 C 
BRANCH  24  25
ATOM     25  C   UNL     1       6.359  42.925  49.558  1.00  0.00     0.232 C 
ATOM     26  O   UNL     1       7.228  43.207  48.688  1.00  0.00    -0.274 OA
ATOM     27  N   UNL     1       5.363  41.924  49.265  1.00  0.00    -0.342 N 
ATOM     28  C   UNL     1       5.302  41.219  47.996  1.00  0.00     0.119 C 
ATOM     29  C   UNL     1       4.254  41.597  50.148  1.00  0.00     0.119 C 
ATOM     30  C   UNL     1       3.984  40.447  48.017  1.00  0.00     0.023 C 
ATOM     31  C   UNL     1       3.523  40.440  49.476  1.00  0.00     0.023 C 
ENDBRANCH  24  25
ENDBRANCH  23  24
ENDBRANCH  19  23
ENDBRANCH   2  17
TORSDOF 8
ENDMDL
MODEL 5
REMARK VINA RESULT:    -7.898      3.618      7.182
REMARK INTER + INTRA:         -13.146
REMARK INTER:                 -13.072
REMARK INTRA:                  -0.073
REMARK UNBOUND:                -1.553
REMARK SMILES COc1ccc([C@H](NC(=O)c2ccccc2SCC(=O)N2CCCC2)C(F)F)cc1
REMARK SMILES IDX 8 1 9 2 10 3 7 5 6 6 3 7 4 8 30 9 5 10 29 11 2 12 1 13 26 14
REMARK SMILES IDX 27 15 28 16 11 17 12 18 16 19 13 20 15 21 14 22 17 23 18 24
REMARK SMILES IDX 19 25 20 26 21 27 22 28 25 29 23 30 24 31
REMARK H PARENT 8 4
ROOT
ATOM      1  N   UNL     1       1.959  42.837  52.624  1.00  0.00    -0.339 N 
ATOM      2  C   UNL     1       2.315  42.724  51.233  1.00  0.00     0.253 C 
ATOM      3  O   UNL     1       1.419  42.727  50.342  1.00  0.00    -0.269 OA
ATOM      4  H   UNL     1       2.725  42.816  53.334  1.00  0.00     0.164 HD
ENDROOT
BRANCH   1   5
ATOM      5  C   UNL     1       0.581  42.694  53.096  1.00  0.00     0.179 C 
BRANCH   5   6
ATOM      6  C   UNL     1       0.371  43.575  54.321  1.00  0.00    -0.020 A 
ATOM      7  C   UNL     1       0.038  45.307  56.531  1.00  0.00     0.118 A 
ATOM      8  C   UNL     1      -1.033  44.543  56.062  1.00  0.00     0.047 A 
ATOM      9  C   UNL     1       1.276  45.227  55.868  1.00  0.00     0.047 A 
ATOM     10  C   UNL     1      -0.880  43.694  54.961  1.00  0.00     0.010 A 
ATOM     11  C   UNL     1       1.437  44.369  54.776  1.00  0.00     0.010 A 
BRANCH   7  12
ATOM     12  O   UNL     1      -0.165  46.115  57.660  1.00  0.00    -0.497 OA
ATOM     13  C   UNL     1       0.869  46.816  58.348  1.00  0.00     0.278 C 
ENDBRANCH   7  12
ENDBRANCH   5   6
BRANCH   5  14
ATOM     14  C   UNL     1      -0.408  42.956  51.944  1.00  0.00     0.369 C 
ATOM     15  F   UNL     1      -1.570  42.226  52.105  1.00  0.00    -0.208 F 
ATOM     16  F   UNL     1      -0.739  44.303  51.912  1.00  0.00    -0.208 F 
ENDBRANCH   5  14
ENDBRANCH   1   5
BRANCH   2  17
ATOM     17  C   UNL     1       3.733  42.598  50.838  1.00  0.00     0.053 A 
ATOM     18  C   UNL     1       4.204  41.361  50.366  1.00  0.00     0.015 A 
ATOM     19  C   UNL     1       4.619  43.699  50.896  1.00  0.00     0.020 A 
ATOM     20  C   UNL     1       5.538  41.216  49.976  1.00  0.00     0.001 A 
ATOM     21  C   UNL     1       5.954  43.539  50.498  1.00  0.00     0.016 A 
ATOM     22  C   UNL     1       6.411  42.303  50.041  1.00  0.00     0.001 A 
BRANCH  19  23
ATOM     23  S   UNL     1       4.083  45.321  51.471  1.00  0.00    -0.115 SA
BRANCH  23  24
ATOM     24  C   UNL     1       5.722  46.120  51.276  1.00  0.00     0.175 C 
BRANCH  24  25
ATOM     25  C   UNL     1       6.319  46.558  52.588  1.00  0.00     0.232 C 
ATOM     26  O   UNL     1       5.571  46.927  53.535  1.00  0.00    -0.274 OA
ATOM     27  N   UNL     1       7.751  46.610  52.757  1.00  0.00    -0.342 N 
ATOM     28  C   UNL     1       8.386  47.082  53.975  1.00  0.00     0.119 C 
ATOM     29  C   UNL     1       8.705  46.312  51.700  1.00  0.00     0.119 C 
ATOM     30  C   UNL     1       9.873  47.198  53.646  1.00  0.00     0.023 C 
ATOM     31  C   UNL     1      10.080  46.411  52.350  1.00  0.00     0.023 C 
ENDBRANCH  24  25
ENDBRANCH  23  24
ENDBRANCH  19  23
ENDBRANCH   2  17
TORSDOF 8
ENDMDL
