ligand_4_conformer_5_docked
     RDKit          3D

 44 47  0  0  0  0  0  0  0  0999 V2000
    2.5700   45.9880   53.6130 C   0  0  0  0  0  0  0  0  0  0  0  0
    3.1960   45.3260   54.6730 C   0  0  0  0  0  0  0  0  0  0  0  0
    4.4680   45.7250   55.0950 C   0  0  0  0  0  0  0  0  0  0  0  0
    5.1170   46.8030   54.4650 C   0  0  0  0  0  0  0  0  0  0  0  0
    6.3920   47.2320   54.8590 O   0  0  0  0  0  0  0  0  0  0  0  0
    7.5620   47.0550   54.1110 C   0  0  0  0  0  0  0  0  0  0  0  0
    8.7420   47.6750   54.5240 C   0  0  0  0  0  0  0  0  0  0  0  0
    9.9040   47.4610   53.7830 C   0  0  0  0  0  0  0  0  0  0  0  0
    9.8730   46.6560   52.6900 N   0  0  0  0  0  0  0  0  0  0  0  0
    8.7200   46.0520   52.2970 C   0  0  0  0  0  0  0  0  0  0  0  0
    8.7230   45.1930   51.1490 N   0  0  0  0  0  0  0  0  0  0  0  0
    7.7340   45.3130   50.0690 C   0  0  1  0  0  0  0  0  0  0  0  0
    7.9680   44.2090   48.9960 C   0  0  0  0  0  0  0  0  0  0  0  0
    7.4510   42.8170   49.4200 C   0  0  0  0  0  0  0  0  0  0  0  0
    5.9910   42.9490   49.8490 C   0  0  1  0  0  0  0  0  0  0  0  0
    5.3920   41.7430   50.2410 O   0  0  0  0  0  0  0  0  0  0  0  0
    4.3280   42.1280   51.0980 C   0  0  0  0  0  0  0  0  0  0  0  0
    4.4990   43.6040   51.4860 C   0  0  0  0  0  0  0  0  0  0  0  0
    5.9070   43.8620   51.0410 C   0  0  2  0  0  0  0  0  0  0  0  0
    6.2870   45.2910   50.6350 C   0  0  0  0  0  0  0  0  0  0  0  0
    7.5780   46.2520   53.0110 N   0  0  0  0  0  0  0  0  0  0  0  0
    4.4930   47.4430   53.3880 C   0  0  0  0  0  0  0  0  0  0  0  0
    3.2210   47.0420   52.9670 C   0  0  0  0  0  0  0  0  0  0  0  0
    1.5656   45.6794   53.2877 H   0  0  0  0  0  0  0  0  0  0  0  0
    2.6874   44.4902   55.1758 H   0  0  0  0  0  0  0  0  0  0  0  0
    4.9628   45.1946   55.9219 H   0  0  0  0  0  0  0  0  0  0  0  0
    8.7554   48.3192   55.4155 H   0  0  0  0  0  0  0  0  0  0  0  0
   10.8453   47.9442   54.0839 H   0  0  0  0  0  0  0  0  0  0  0  0
    9.4230   44.4170   51.1320 H   0  0  0  0  0  0  0  0  0  0  0  0
    7.8644   46.2861   49.5730 H   0  0  0  0  0  0  0  0  0  0  0  0
    7.4499   44.5061   48.0723 H   0  0  0  0  0  0  0  0  0  0  0  0
    9.0554   44.1207   48.8551 H   0  0  0  0  0  0  0  0  0  0  0  0
    7.5266   42.1197   48.5726 H   0  0  0  0  0  0  0  0  0  0  0  0
    8.0543   42.4304   50.2546 H   0  0  0  0  0  0  0  0  0  0  0  0
    5.4614   43.3289   48.9629 H   0  0  0  0  0  0  0  0  0  0  0  0
    3.3689   41.9937   50.5764 H   0  0  0  0  0  0  0  0  0  0  0  0
    4.3401   41.5045   52.0042 H   0  0  0  0  0  0  0  0  0  0  0  0
    3.7835   44.2465   50.9519 H   0  0  0  0  0  0  0  0  0  0  0  0
    4.3165   43.8147   52.5501 H   0  0  0  0  0  0  0  0  0  0  0  0
    6.6042   43.6945   51.8752 H   0  0  0  0  0  0  0  0  0  0  0  0
    5.5885   45.6492   49.8644 H   0  0  0  0  0  0  0  0  0  0  0  0
    6.2336   45.9447   51.5181 H   0  0  0  0  0  0  0  0  0  0  0  0
    5.0061   48.2664   52.8695 H   0  0  0  0  0  0  0  0  0  0  0  0
    2.7327   47.5569   52.1265 H   0  0  0  0  0  0  0  0  0  0  0  0
  1  2  2  0
  2  3  1  0
  3  4  2  0
  4  5  1  0
  5  6  1  0
  6  7  2  0
  7  8  1  0
  8  9  2  0
  9 10  1  0
 10 11  1  0
 11 12  1  0
 12 13  1  0
 13 14  1  0
 14 15  1  0
 15 16  1  0
 16 17  1  0
 17 18  1  0
 18 19  1  0
 19 20  1  0
 10 21  2  0
  4 22  1  0
 22 23  2  0
 23  1  1  0
 21  6  1  0
 20 12  1  0
 19 15  1  0
  1 24  1  0
  2 25  1  0
  3 26  1  0
  7 27  1  0
  8 28  1  0
 11 29  1  0
 12 30  1  6
 13 31  1  0
 13 32  1  0
 14 33  1  0
 14 34  1  0
 15 35  1  6
 17 36  1  0
 17 37  1  0
 18 38  1  0
 18 39  1  0
 19 40  1  1
 20 41  1  0
 20 42  1  0
 22 43  1  0
 23 44  1  0
M  END
>  <meeko>  (1) 
{"is_sidechain": [false], "free_energy": -8.758, "intermolecular_energy": -10.806, "internal_energy": -0.667}

$$$$
ligand_4_conformer_5_docked
     RDKit          3D

 44 47  0  0  0  0  0  0  0  0999 V2000
    9.2280   47.8740   54.0810 C   0  0  0  0  0  0  0  0  0  0  0  0
    8.2810   48.3290   53.1580 C   0  0  0  0  0  0  0  0  0  0  0  0
    8.1030   47.6520   51.9480 C   0  0  0  0  0  0  0  0  0  0  0  0
    8.8630   46.5030   51.6590 C   0  0  0  0  0  0  0  0  0  0  0  0
    8.7130   45.7980   50.4570 O   0  0  0  0  0  0  0  0  0  0  0  0
    7.7170   44.8460   50.2080 C   0  0  0  0  0  0  0  0  0  0  0  0
    7.9700   43.8060   49.3130 C   0  0  0  0  0  0  0  0  0  0  0  0
    6.9770   42.8500   49.1010 C   0  0  0  0  0  0  0  0  0  0  0  0
    5.7960   42.9400   49.7660 N   0  0  0  0  0  0  0  0  0  0  0  0
    5.5590   43.9540   50.6400 C   0  0  0  0  0  0  0  0  0  0  0  0
    4.3100   44.0120   51.3420 N   0  0  0  0  0  0  0  0  0  0  0  0
    3.5350   45.2520   51.4750 C   0  0  1  0  0  0  0  0  0  0  0  0
    2.0280   44.9820   51.1890 C   0  0  0  0  0  0  0  0  0  0  0  0
    1.2900   44.3040   52.3640 C   0  0  0  0  0  0  0  0  0  0  0  0
    1.5320   45.1210   53.6300 C   0  0  1  0  0  0  0  0  0  0  0  0
    0.8940   44.6200   54.7740 O   0  0  0  0  0  0  0  0  0  0  0  0
    1.6560   45.1180   55.8630 C   0  0  0  0  0  0  0  0  0  0  0  0
    2.9870   45.6760   55.3370 C   0  0  0  0  0  0  0  0  0  0  0  0
    3.0030   45.1250   53.9430 C   0  0  2  0  0  0  0  0  0  0  0  0
    3.7650   45.9070   52.8660 C   0  0  0  0  0  0  0  0  0  0  0  0
    6.5210   44.8940   50.8560 N   0  0  0  0  0  0  0  0  0  0  0  0
    9.8260   46.0710   52.5790 C   0  0  0  0  0  0  0  0  0  0  0  0
   10.0040   46.7500   53.7890 C   0  0  0  0  0  0  0  0  0  0  0  0
    9.3617   48.4014   55.0370 H   0  0  0  0  0  0  0  0  0  0  0  0
    7.6762   49.2196   53.3841 H   0  0  0  0  0  0  0  0  0  0  0  0
    7.3658   48.0188   51.2186 H   0  0  0  0  0  0  0  0  0  0  0  0
    8.9330   43.7414   48.7854 H   0  0  0  0  0  0  0  0  0  0  0  0
    7.1500   42.0237   48.3958 H   0  0  0  0  0  0  0  0  0  0  0  0
    3.9910   43.1420   51.8240 H   0  0  0  0  0  0  0  0  0  0  0  0
    3.8882   45.9740   50.7240 H   0  0  0  0  0  0  0  0  0  0  0  0
    1.5362   45.9428   50.9769 H   0  0  0  0  0  0  0  0  0  0  0  0
    1.9795   44.2910   50.3345 H   0  0  0  0  0  0  0  0  0  0  0  0
    0.2118   44.2635   52.1500 H   0  0  0  0  0  0  0  0  0  0  0  0
    1.6657   43.2793   52.5015 H   0  0  0  0  0  0  0  0  0  0  0  0
    1.1232   46.1187   53.4122 H   0  0  0  0  0  0  0  0  0  0  0  0
    1.0957   45.9186   56.3681 H   0  0  0  0  0  0  0  0  0  0  0  0
    1.8534   44.3051   56.5774 H   0  0  0  0  0  0  0  0  0  0  0  0
    2.9906   46.7760   55.3358 H   0  0  0  0  0  0  0  0  0  0  0  0
    3.8631   45.3994   55.9419 H   0  0  0  0  0  0  0  0  0  0  0  0
    3.5421   44.1664   53.9216 H   0  0  0  0  0  0  0  0  0  0  0  0
    3.4031   46.9456   52.8445 H   0  0  0  0  0  0  0  0  0  0  0  0
    4.8397   45.8927   53.1000 H   0  0  0  0  0  0  0  0  0  0  0  0
   10.4464   45.1923   52.3489 H   0  0  0  0  0  0  0  0  0  0  0  0
   10.7557   46.3984   54.5111 H   0  0  0  0  0  0  0  0  0  0  0  0
  1  2  2  0
  2  3  1  0
  3  4  2  0
  4  5  1  0
  5  6  1  0
  6  7  2  0
  7  8  1  0
  8  9  2  0
  9 10  1  0
 10 11  1  0
 11 12  1  0
 12 13  1  0
 13 14  1  0
 14 15  1  0
 15 16  1  0
 16 17  1  0
 17 18  1  0
 18 19  1  0
 19 20  1  0
 10 21  2  0
  4 22  1  0
 22 23  2  0
 23  1  1  0
 21  6  1  0
 20 12  1  0
 19 15  1  0
  1 24  1  0
  2 25  1  0
  3 26  1  0
  7 27  1  0
  8 28  1  0
 11 29  1  0
 12 30  1  6
 13 31  1  0
 13 32  1  0
 14 33  1  0
 14 34  1  0
 15 35  1  6
 17 36  1  0
 17 37  1  0
 18 38  1  0
 18 39  1  0
 19 40  1  1
 20 41  1  0
 20 42  1  0
 22 43  1  0
 23 44  1  0
M  END
>  <meeko>  (2) 
{"is_sidechain": [false], "free_energy": -8.674, "intermolecular_energy": -10.792, "internal_energy": -0.577}

$$$$
ligand_4_conformer_5_docked
     RDKit          3D

 44 47  0  0  0  0  0  0  0  0999 V2000
    9.9810   47.1550   53.5840 C   0  0  0  0  0  0  0  0  0  0  0  0
    8.6740   47.5510   53.8890 C   0  0  0  0  0  0  0  0  0  0  0  0
    7.6200   47.1930   53.0440 C   0  0  0  0  0  0  0  0  0  0  0  0
    7.8640   46.4230   51.8920 C   0  0  0  0  0  0  0  0  0  0  0  0
    6.8330   46.0450   51.0210 O   0  0  0  0  0  0  0  0  0  0  0  0
    5.9090   45.0240   51.2710 C   0  0  0  0  0  0  0  0  0  0  0  0
    5.9630   43.8490   50.5210 C   0  0  0  0  0  0  0  0  0  0  0  0
    5.0530   42.8310   50.8060 C   0  0  0  0  0  0  0  0  0  0  0  0
    4.1450   42.9940   51.8030 N   0  0  0  0  0  0  0  0  0  0  0  0
    4.1020   44.1400   52.5330 C   0  0  0  0  0  0  0  0  0  0  0  0
    3.1430   44.2740   53.5910 N   0  0  0  0  0  0  0  0  0  0  0  0
    2.3210   45.4780   53.7640 C   0  0  1  0  0  0  0  0  0  0  0  0
    1.6650   45.8850   52.4110 C   0  0  0  0  0  0  0  0  0  0  0  0
    0.4480   45.0140   52.0300 C   0  0  0  0  0  0  0  0  0  0  0  0
   -0.5310   45.0040   53.2010 C   0  0  1  0  0  0  0  0  0  0  0  0
   -1.6990   44.2600   52.9740 O   0  0  0  0  0  0  0  0  0  0  0  0
   -2.1590   43.9030   54.2680 C   0  0  0  0  0  0  0  0  0  0  0  0
   -1.0480   44.1730   55.2940 C   0  0  0  0  0  0  0  0  0  0  0  0
    0.1340   44.3790   54.3960 C   0  0  2  0  0  0  0  0  0  0  0  0
    1.2720   45.2790   54.8930 C   0  0  0  0  0  0  0  0  0  0  0  0
    4.9840   45.1410   52.2640 N   0  0  0  0  0  0  0  0  0  0  0  0
    9.1790   46.0530   51.5830 C   0  0  0  0  0  0  0  0  0  0  0  0
   10.2330   46.4120   52.4290 C   0  0  0  0  0  0  0  0  0  0  0  0
   10.8095   47.4289   54.2538 H   0  0  0  0  0  0  0  0  0  0  0  0
    8.4761   48.1442   54.7940 H   0  0  0  0  0  0  0  0  0  0  0  0
    6.5950   47.5147   53.2806 H   0  0  0  0  0  0  0  0  0  0  0  0
    6.7082   43.7277   49.7210 H   0  0  0  0  0  0  0  0  0  0  0  0
    5.0707   41.8976   50.2242 H   0  0  0  0  0  0  0  0  0  0  0  0
    3.0910   43.5010   54.2920 H   0  0  0  0  0  0  0  0  0  0  0  0
    2.9697   46.3089   54.0783 H   0  0  0  0  0  0  0  0  0  0  0  0
    1.3346   46.9316   52.4851 H   0  0  0  0  0  0  0  0  0  0  0  0
    2.4236   45.7416   51.6275 H   0  0  0  0  0  0  0  0  0  0  0  0
   -0.0436   45.4336   51.1399 H   0  0  0  0  0  0  0  0  0  0  0  0
    0.7760   43.9881   51.8063 H   0  0  0  0  0  0  0  0  0  0  0  0
   -0.8127   46.0566   53.3514 H   0  0  0  0  0  0  0  0  0  0  0  0
   -3.0462   44.5021   54.5209 H   0  0  0  0  0  0  0  0  0  0  0  0
   -2.4235   42.8354   54.2836 H   0  0  0  0  0  0  0  0  0  0  0  0
   -1.2613   45.0713   55.8920 H   0  0  0  0  0  0  0  0  0  0  0  0
   -0.9161   43.3731   56.0375 H   0  0  0  0  0  0  0  0  0  0  0  0
    0.6708   43.4293   54.2549 H   0  0  0  0  0  0  0  0  0  0  0  0
    0.8621   46.2567   55.1864 H   0  0  0  0  0  0  0  0  0  0  0  0
    1.7573   44.8042   55.7585 H   0  0  0  0  0  0  0  0  0  0  0  0
    9.3840   45.4763   50.6690 H   0  0  0  0  0  0  0  0  0  0  0  0
   11.2617   46.1087   52.1843 H   0  0  0  0  0  0  0  0  0  0  0  0
  1  2  2  0
  2  3  1  0
  3  4  2  0
  4  5  1  0
  5  6  1  0
  6  7  2  0
  7  8  1  0
  8  9  2  0
  9 10  1  0
 10 11  1  0
 11 12  1  0
 12 13  1  0
 13 14  1  0
 14 15  1  0
 15 16  1  0
 16 17  1  0
 17 18  1  0
 18 19  1  0
 19 20  1  0
 10 21  2  0
  4 22  1  0
 22 23  2  0
 23  1  1  0
 21  6  1  0
 20 12  1  0
 19 15  1  0
  1 24  1  0
  2 25  1  0
  3 26  1  0
  7 27  1  0
  8 28  1  0
 11 29  1  0
 12 30  1  1
 13 31  1  0
 13 32  1  0
 14 33  1  0
 14 34  1  0
 15 35  1  1
 17 36  1  0
 17 37  1  0
 18 38  1  0
 18 39  1  0
 19 40  1  6
 20 41  1  0
 20 42  1  0
 22 43  1  0
 23 44  1  0
M  END
>  <meeko>  (3) 
{"is_sidechain": [false], "free_energy": -8.525, "intermolecular_energy": -10.677, "internal_energy": -0.509}

$$$$
ligand_4_conformer_5_docked
     RDKit          3D

 44 47  0  0  0  0  0  0  0  0999 V2000
    9.5520   47.2270   51.9860 C   0  0  0  0  0  0  0  0  0  0  0  0
    8.2060   47.4750   51.7010 C   0  0  0  0  0  0  0  0  0  0  0  0
    7.2320   47.2540   52.6800 C   0  0  0  0  0  0  0  0  0  0  0  0
    7.6020   46.7970   53.9580 C   0  0  0  0  0  0  0  0  0  0  0  0
    6.6550   46.5640   54.9650 O   0  0  0  0  0  0  0  0  0  0  0  0
    5.3910   45.9990   54.7580 C   0  0  0  0  0  0  0  0  0  0  0  0
    4.2640   46.6240   55.2940 C   0  0  0  0  0  0  0  0  0  0  0  0
    3.0100   46.0630   55.0520 C   0  0  0  0  0  0  0  0  0  0  0  0
    2.9050   44.9370   54.3000 N   0  0  0  0  0  0  0  0  0  0  0  0
    4.0070   44.3380   53.7760 C   0  0  0  0  0  0  0  0  0  0  0  0
    3.8620   43.1600   52.9710 N   0  0  0  0  0  0  0  0  0  0  0  0
    3.5560   43.2180   51.5360 C   0  0  1  0  0  0  0  0  0  0  0  0
    3.6880   44.6790   51.0120 C   0  0  0  0  0  0  0  0  0  0  0  0
    5.1500   45.1270   50.7980 C   0  0  0  0  0  0  0  0  0  0  0  0
    5.8520   44.0990   49.9130 C   0  0  1  0  0  0  0  0  0  0  0  0
    7.1900   44.4010   49.6230 O   0  0  0  0  0  0  0  0  0  0  0  0
    7.7880   43.1490   49.3250 C   0  0  0  0  0  0  0  0  0  0  0  0
    6.8460   42.0190   49.7660 C   0  0  0  0  0  0  0  0  0  0  0  0
    5.8690   42.7700   50.6180 C   0  0  2  0  0  0  0  0  0  0  0  0
    4.4420   42.2210   50.7370 C   0  0  0  0  0  0  0  0  0  0  0  0
    5.2370   44.8750   54.0060 N   0  0  0  0  0  0  0  0  0  0  0  0
    8.9500   46.5270   54.2250 C   0  0  0  0  0  0  0  0  0  0  0  0
    9.9230   46.7470   53.2450 C   0  0  0  0  0  0  0  0  0  0  0  0
   10.3192   47.4097   51.2192 H   0  0  0  0  0  0  0  0  0  0  0  0
    7.9131   47.8439   50.7070 H   0  0  0  0  0  0  0  0  0  0  0  0
    6.1723   47.4383   52.4498 H   0  0  0  0  0  0  0  0  0  0  0  0
    4.3626   47.5401   55.8949 H   0  0  0  0  0  0  0  0  0  0  0  0
    2.1071   46.5322   55.4698 H   0  0  0  0  0  0  0  0  0  0  0  0
    3.9150   42.2370   53.4570 H   0  0  0  0  0  0  0  0  0  0  0  0
    2.5121   42.9069   51.3824 H   0  0  0  0  0  0  0  0  0  0  0  0
    3.1569   44.7537   50.0516 H   0  0  0  0  0  0  0  0  0  0  0  0
    3.2568   45.3382   51.7798 H   0  0  0  0  0  0  0  0  0  0  0  0
    5.1676   46.1114   50.3075 H   0  0  0  0  0  0  0  0  0  0  0  0
    5.6651   45.2016   51.7671 H   0  0  0  0  0  0  0  0  0  0  0  0
    5.2850   44.0933   48.9704 H   0  0  0  0  0  0  0  0  0  0  0  0
    7.9678   43.0760   48.2422 H   0  0  0  0  0  0  0  0  0  0  0  0
    8.7450   43.0610   49.8601 H   0  0  0  0  0  0  0  0  0  0  0  0
    6.3505   41.5480   48.9043 H   0  0  0  0  0  0  0  0  0  0  0  0
    7.3489   41.1877   50.2818 H   0  0  0  0  0  0  0  0  0  0  0  0
    6.1867   42.7436   51.6708 H   0  0  0  0  0  0  0  0  0  0  0  0
    4.0193   42.0830   49.7309 H   0  0  0  0  0  0  0  0  0  0  0  0
    4.4681   41.2564   51.2651 H   0  0  0  0  0  0  0  0  0  0  0  0
    9.2451   46.1396   55.2113 H   0  0  0  0  0  0  0  0  0  0  0  0
   10.9811   46.5421   53.4652 H   0  0  0  0  0  0  0  0  0  0  0  0
  1  2  2  0
  2  3  1  0
  3  4  2  0
  4  5  1  0
  5  6  1  0
  6  7  2  0
  7  8  1  0
  8  9  2  0
  9 10  1  0
 10 11  1  0
 11 12  1  0
 12 13  1  0
 13 14  1  0
 14 15  1  0
 15 16  1  0
 16 17  1  0
 17 18  1  0
 18 19  1  0
 19 20  1  0
 10 21  2  0
  4 22  1  0
 22 23  2  0
 23  1  1  0
 21  6  1  0
 20 12  1  0
 19 15  1  0
  1 24  1  0
  2 25  1  0
  3 26  1  0
  7 27  1  0
  8 28  1  0
 11 29  1  0
 12 30  1  1
 13 31  1  0
 13 32  1  0
 14 33  1  0
 14 34  1  0
 15 35  1  6
 17 36  1  0
 17 37  1  0
 18 38  1  0
 18 39  1  0
 19 40  1  1
 20 41  1  0
 20 42  1  0
 22 43  1  0
 23 44  1  0
M  END
>  <meeko>  (4) 
{"is_sidechain": [false], "free_energy": -8.489, "intermolecular_energy": -10.73, "internal_energy": -0.411}

$$$$
ligand_4_conformer_5_docked
     RDKit          3D

 44 47  0  0  0  0  0  0  0  0999 V2000
    6.3660   42.8010   49.0860 C   0  0  0  0  0  0  0  0  0  0  0  0
    5.7150   43.5630   50.0610 C   0  0  0  0  0  0  0  0  0  0  0  0
    6.3720   44.6400   50.6620 C   0  0  0  0  0  0  0  0  0  0  0  0
    7.6850   44.9730   50.2790 C   0  0  0  0  0  0  0  0  0  0  0  0
    8.3770   46.0450   50.8580 O   0  0  0  0  0  0  0  0  0  0  0  0
    8.1860   46.5070   52.1660 C   0  0  0  0  0  0  0  0  0  0  0  0
    9.0940   47.4140   52.7140 C   0  0  0  0  0  0  0  0  0  0  0  0
    8.8700   47.8860   54.0060 C   0  0  0  0  0  0  0  0  0  0  0  0
    7.7810   47.4680   54.7020 N   0  0  0  0  0  0  0  0  0  0  0  0
    6.8980   46.5880   54.1590 C   0  0  0  0  0  0  0  0  0  0  0  0
    5.7470   46.1790   54.9110 N   0  0  0  0  0  0  0  0  0  0  0  0
    4.5150   46.9760   54.9640 C   0  0  1  0  0  0  0  0  0  0  0  0
    4.3020   47.7340   53.6200 C   0  0  0  0  0  0  0  0  0  0  0  0
    3.7650   46.8350   52.4840 C   0  0  0  0  0  0  0  0  0  0  0  0
    2.5140   46.1150   52.9810 C   0  0  1  0  0  0  0  0  0  0  0  0
    1.9120   45.2770   52.0300 O   0  0  0  0  0  0  0  0  0  0  0  0
    1.1880   44.3240   52.7940 C   0  0  0  0  0  0  0  0  0  0  0  0
    1.6360   44.4040   54.2610 C   0  0  0  0  0  0  0  0  0  0  0  0
    2.8800   45.2320   54.1420 C   0  0  2  0  0  0  0  0  0  0  0  0
    3.2950   46.0900   55.3430 C   0  0  0  0  0  0  0  0  0  0  0  0
    7.1050   46.1190   52.8970 N   0  0  0  0  0  0  0  0  0  0  0  0
    8.3370   44.1890   49.3190 C   0  0  0  0  0  0  0  0  0  0  0  0
    7.6790   43.1110   48.7200 C   0  0  0  0  0  0  0  0  0  0  0  0
    5.8454   41.9584   48.6074 H   0  0  0  0  0  0  0  0  0  0  0  0
    4.6846   43.3144   50.3553 H   0  0  0  0  0  0  0  0  0  0  0  0
    5.8612   45.2298   51.4374 H   0  0  0  0  0  0  0  0  0  0  0  0
    9.9689   47.7496   52.1378 H   0  0  0  0  0  0  0  0  0  0  0  0
    9.5748   48.5968   54.4620 H   0  0  0  0  0  0  0  0  0  0  0  0
    5.8350   45.3130   55.4880 H   0  0  0  0  0  0  0  0  0  0  0  0
    4.6146   47.7328   55.7560 H   0  0  0  0  0  0  0  0  0  0  0  0
    3.5820   48.5481   53.7897 H   0  0  0  0  0  0  0  0  0  0  0  0
    5.2858   48.1074   53.2996 H   0  0  0  0  0  0  0  0  0  0  0  0
    3.5137   47.4534   51.6097 H   0  0  0  0  0  0  0  0  0  0  0  0
    4.5303   46.1003   52.1933 H   0  0  0  0  0  0  0  0  0  0  0  0
    1.8036   46.9138   53.2402 H   0  0  0  0  0  0  0  0  0  0  0  0
    0.1115   44.5399   52.7262 H   0  0  0  0  0  0  0  0  0  0  0  0
    1.3824   43.3141   52.4037 H   0  0  0  0  0  0  0  0  0  0  0  0
    0.8798   44.9006   54.8867 H   0  0  0  0  0  0  0  0  0  0  0  0
    1.7895   43.4256   54.7397 H   0  0  0  0  0  0  0  0  0  0  0  0
    3.7603   44.5800   54.0425 H   0  0  0  0  0  0  0  0  0  0  0  0
    2.4541   46.7345   55.6388 H   0  0  0  0  0  0  0  0  0  0  0  0
    3.5714   45.4319   56.1799 H   0  0  0  0  0  0  0  0  0  0  0  0
    9.3735   44.4230   49.0346 H   0  0  0  0  0  0  0  0  0  0  0  0
    8.1949   42.5060   47.9599 H   0  0  0  0  0  0  0  0  0  0  0  0
  1  2  2  0
  2  3  1  0
  3  4  2  0
  4  5  1  0
  5  6  1  0
  6  7  2  0
  7  8  1  0
  8  9  2  0
  9 10  1  0
 10 11  1  0
 11 12  1  0
 12 13  1  0
 13 14  1  0
 14 15  1  0
 15 16  1  0
 16 17  1  0
 17 18  1  0
 18 19  1  0
 19 20  1  0
 10 21  2  0
  4 22  1  0
 22 23  2  0
 23  1  1  0
 21  6  1  0
 20 12  1  0
 19 15  1  0
  1 24  1  0
  2 25  1  0
  3 26  1  0
  7 27  1  0
  8 28  1  0
 11 29  1  0
 12 30  1  1
 13 31  1  0
 13 32  1  0
 14 33  1  0
 14 34  1  0
 15 35  1  1
 17 36  1  0
 17 37  1  0
 18 38  1  0
 18 39  1  0
 19 40  1  6
 20 41  1  0
 20 42  1  0
 22 43  1  0
 23 44  1  0
M  END
>  <meeko>  (5) 
{"is_sidechain": [false], "free_energy": -8.48, "intermolecular_energy": -11.104, "internal_energy": -0.025}

$$$$
