ligand_66_conformer_4_docked
     RDKit          3D

 42 43  0  0  0  0  0  0  0  0999 V2000
    5.6810   41.5470   48.8000 C   0  0  0  0  0  0  0  0  0  0  0  0
    4.3690   40.7830   48.6350 C   0  0  0  0  0  0  0  0  0  0  0  0
    3.5300   40.7980   49.9190 C   0  0  0  0  0  0  0  0  0  0  0  0
    3.7610   42.0200   50.6860 N   0  0  0  0  0  0  0  0  0  0  0  0
    2.7280   42.9880   50.9290 C   0  0  0  0  0  0  0  0  0  0  0  0
    1.5490   42.7670   50.5390 O   0  0  0  0  0  0  0  0  0  0  0  0
    3.0330   44.2680   51.6670 C   0  0  0  0  0  0  0  0  0  0  0  0
    4.1370   45.0920   50.9450 C   0  0  0  0  0  0  0  0  0  0  0  0
    5.4220   45.2280   51.7690 C   0  0  0  0  0  0  0  0  0  0  0  0
    5.1070   45.7260   53.1160 N   0  0  0  0  0  0  0  0  0  0  0  0
    5.8760   46.7900   53.7100 C   0  0  0  0  0  0  0  0  0  0  0  0
    5.2910   47.6420   54.4360 O   0  0  0  0  0  0  0  0  0  0  0  0
    7.3360   46.9090   53.4990 C   0  0  0  0  0  0  0  0  0  0  0  0
    7.8690   46.8560   52.1990 C   0  0  0  0  0  0  0  0  0  0  0  0
    9.2470   46.9760   51.9940 C   0  0  0  0  0  0  0  0  0  0  0  0
   10.1030   47.1640   53.0820 C   0  0  0  0  0  0  0  0  0  0  0  0
    9.5830   47.2360   54.3780 C   0  0  0  0  0  0  0  0  0  0  0  0
   10.6580   47.4900   55.7410 Cl  0  0  0  0  0  0  0  0  0  0  0  0
    8.2050   47.1160   54.5860 C   0  0  0  0  0  0  0  0  0  0  0  0
    3.9480   45.1930   53.8460 C   0  0  0  0  0  0  0  0  0  0  0  0
    3.3630   43.9630   53.1440 C   0  0  0  0  0  0  0  0  0  0  0  0
    5.8992   41.6740   49.8706 H   0  0  0  0  0  0  0  0  0  0  0  0
    6.4964   40.9825   48.3241 H   0  0  0  0  0  0  0  0  0  0  0  0
    5.5925   42.5348   48.3241 H   0  0  0  0  0  0  0  0  0  0  0  0
    3.7871   41.2472   47.8251 H   0  0  0  0  0  0  0  0  0  0  0  0
    4.6125   39.7363   48.4004 H   0  0  0  0  0  0  0  0  0  0  0  0
    2.4645   40.7376   49.6523 H   0  0  0  0  0  0  0  0  0  0  0  0
    3.8240   39.9373   50.5376 H   0  0  0  0  0  0  0  0  0  0  0  0
    4.7100   42.1730   51.0940 H   0  0  0  0  0  0  0  0  0  0  0  0
    2.1384   44.9081   51.6629 H   0  0  0  0  0  0  0  0  0  0  0  0
    4.3813   44.5933   49.9954 H   0  0  0  0  0  0  0  0  0  0  0  0
    3.7395   46.1056   50.7879 H   0  0  0  0  0  0  0  0  0  0  0  0
    5.9089   44.2449   51.8490 H   0  0  0  0  0  0  0  0  0  0  0  0
    6.0964   45.9396   51.2702 H   0  0  0  0  0  0  0  0  0  0  0  0
    7.1980   46.7193   51.3381 H   0  0  0  0  0  0  0  0  0  0  0  0
    9.6575   46.9223   50.9749 H   0  0  0  0  0  0  0  0  0  0  0  0
   11.1870   47.2555   52.9190 H   0  0  0  0  0  0  0  0  0  0  0  0
    7.7982   47.1839   55.6058 H   0  0  0  0  0  0  0  0  0  0  0  0
    4.2636   44.9096   54.8609 H   0  0  0  0  0  0  0  0  0  0  0  0
    3.1728   45.9726   53.8819 H   0  0  0  0  0  0  0  0  0  0  0  0
    4.0955   43.1434   53.1862 H   0  0  0  0  0  0  0  0  0  0  0  0
    2.4327   43.6783   53.6573 H   0  0  0  0  0  0  0  0  0  0  0  0
  1  2  1  0
  2  3  1  0
  3  4  1  0
  4  5  1  0
  5  6  2  0
  5  7  1  0
  7  8  1  0
  8  9  1  0
  9 10  1  0
 10 11  1  0
 11 12  2  0
 11 13  1  0
 13 14  2  0
 14 15  1  0
 15 16  2  0
 16 17  1  0
 17 18  1  0
 17 19  2  0
 10 20  1  0
 20 21  1  0
 21  7  1  0
 19 13  1  0
  1 22  1  0
  1 23  1  0
  1 24  1  0
  2 25  1  0
  2 26  1  0
  3 27  1  0
  3 28  1  0
  4 29  1  0
  7 30  1  0
  8 31  1  0
  8 32  1  0
  9 33  1  0
  9 34  1  0
 14 35  1  0
 15 36  1  0
 16 37  1  0
 19 38  1  0
 20 39  1  0
 20 40  1  0
 21 41  1  0
 21 42  1  0
M  END
>  <meeko>  (1) 
{"is_sidechain": [false], "free_energy": -8.443, "intermolecular_energy": -10.418, "internal_energy": 0.01}

$$$$
ligand_66_conformer_4_docked
     RDKit          3D

 42 43  0  0  0  0  0  0  0  0999 V2000
    9.8860   47.2510   54.1340 C   0  0  0  0  0  0  0  0  0  0  0  0
    9.9070   46.6490   52.7310 C   0  0  0  0  0  0  0  0  0  0  0  0
    8.9350   47.3650   51.7840 C   0  0  0  0  0  0  0  0  0  0  0  0
    7.7280   46.5700   51.5680 N   0  0  0  0  0  0  0  0  0  0  0  0
    6.5040   46.8100   52.2810 C   0  0  0  0  0  0  0  0  0  0  0  0
    6.4180   47.7830   53.0780 O   0  0  0  0  0  0  0  0  0  0  0  0
    5.3060   45.9170   52.0730 C   0  0  0  0  0  0  0  0  0  0  0  0
    3.9790   46.6680   52.3800 C   0  0  0  0  0  0  0  0  0  0  0  0
    3.2240   46.0880   53.5810 C   0  0  0  0  0  0  0  0  0  0  0  0
    3.0510   44.6370   53.4150 N   0  0  0  0  0  0  0  0  0  0  0  0
    1.7770   44.0100   53.6620 C   0  0  0  0  0  0  0  0  0  0  0  0
    1.4150   43.0430   52.9360 O   0  0  0  0  0  0  0  0  0  0  0  0
    0.8820   44.4640   54.7510 C   0  0  0  0  0  0  0  0  0  0  0  0
   -0.4920   44.1700   54.7050 C   0  0  0  0  0  0  0  0  0  0  0  0
   -1.3390   44.5890   55.7350 C   0  0  0  0  0  0  0  0  0  0  0  0
   -0.8220   45.2940   56.8250 C   0  0  0  0  0  0  0  0  0  0  0  0
    0.5460   45.5770   56.8900 C   0  0  0  0  0  0  0  0  0  0  0  0
    1.1960   46.4460   58.2670 Cl  0  0  0  0  0  0  0  0  0  0  0  0
    1.3960   45.1590   55.8600 C   0  0  0  0  0  0  0  0  0  0  0  0
    4.1630   43.8150   52.9170 C   0  0  0  0  0  0  0  0  0  0  0  0
    5.4720   44.6100   52.8770 C   0  0  0  0  0  0  0  0  0  0  0  0
    9.9142   46.4432   54.8801 H   0  0  0  0  0  0  0  0  0  0  0  0
   10.7619   47.9031   54.2664 H   0  0  0  0  0  0  0  0  0  0  0  0
    8.9667   47.8405   54.2664 H   0  0  0  0  0  0  0  0  0  0  0  0
   10.9255   46.7322   52.3240 H   0  0  0  0  0  0  0  0  0  0  0  0
    9.5940   45.5973   52.8077 H   0  0  0  0  0  0  0  0  0  0  0  0
    8.6534   48.3333   52.2234 H   0  0  0  0  0  0  0  0  0  0  0  0
    9.4352   47.5104   50.8151 H   0  0  0  0  0  0  0  0  0  0  0  0
    7.7570   45.8180   50.8430 H   0  0  0  0  0  0  0  0  0  0  0  0
    5.2459   45.6344   51.0116 H   0  0  0  0  0  0  0  0  0  0  0  0
    4.2137   47.7220   52.5898 H   0  0  0  0  0  0  0  0  0  0  0  0
    3.3287   46.5582   51.4996 H   0  0  0  0  0  0  0  0  0  0  0  0
    3.7963   46.2836   54.4998 H   0  0  0  0  0  0  0  0  0  0  0  0
    2.2345   46.5636   53.6487 H   0  0  0  0  0  0  0  0  0  0  0  0
   -0.9028   43.6072   53.8538 H   0  0  0  0  0  0  0  0  0  0  0  0
   -2.4145   44.3633   55.6874 H   0  0  0  0  0  0  0  0  0  0  0  0
   -1.4912   45.6265   57.6322 H   0  0  0  0  0  0  0  0  0  0  0  0
    2.4729   45.3755   55.9183 H   0  0  0  0  0  0  0  0  0  0  0  0
    4.2916   42.9471   53.5805 H   0  0  0  0  0  0  0  0  0  0  0  0
    3.9230   43.4918   51.8933 H   0  0  0  0  0  0  0  0  0  0  0  0
    5.7734   44.8572   53.9056 H   0  0  0  0  0  0  0  0  0  0  0  0
    6.2394   43.9936   52.3859 H   0  0  0  0  0  0  0  0  0  0  0  0
  1  2  1  0
  2  3  1  0
  3  4  1  0
  4  5  1  0
  5  6  2  0
  5  7  1  0
  7  8  1  0
  8  9  1  0
  9 10  1  0
 10 11  1  0
 11 12  2  0
 11 13  1  0
 13 14  2  0
 14 15  1  0
 15 16  2  0
 16 17  1  0
 17 18  1  0
 17 19  2  0
 10 20  1  0
 20 21  1  0
 21  7  1  0
 19 13  1  0
  1 22  1  0
  1 23  1  0
  1 24  1  0
  2 25  1  0
  2 26  1  0
  3 27  1  0
  3 28  1  0
  4 29  1  0
  7 30  1  0
  8 31  1  0
  8 32  1  0
  9 33  1  0
  9 34  1  0
 14 35  1  0
 15 36  1  0
 16 37  1  0
 19 38  1  0
 20 39  1  0
 20 40  1  0
 21 41  1  0
 21 42  1  0
M  END
>  <meeko>  (2) 
{"is_sidechain": [false], "free_energy": -8.269, "intermolecular_energy": -10.093, "internal_energy": -0.1}

$$$$
ligand_66_conformer_4_docked
     RDKit          3D

 42 43  0  0  0  0  0  0  0  0999 V2000
    2.3580   42.7490   52.6940 C   0  0  0  0  0  0  0  0  0  0  0  0
    1.0230   42.6840   53.4340 C   0  0  0  0  0  0  0  0  0  0  0  0
    0.7640   43.9470   54.2650 C   0  0  0  0  0  0  0  0  0  0  0  0
    1.8430   44.9180   54.0970 N   0  0  0  0  0  0  0  0  0  0  0  0
    1.8210   45.9320   53.0800 C   0  0  0  0  0  0  0  0  0  0  0  0
    0.8110   46.0580   52.3350 O   0  0  0  0  0  0  0  0  0  0  0  0
    2.9900   46.8690   52.9020 C   0  0  0  0  0  0  0  0  0  0  0  0
    3.7420   46.5910   51.5700 C   0  0  0  0  0  0  0  0  0  0  0  0
    5.1760   46.0930   51.7820 C   0  0  0  0  0  0  0  0  0  0  0  0
    5.8980   47.0040   52.6820 N   0  0  0  0  0  0  0  0  0  0  0  0
    7.2310   47.4530   52.3690 C   0  0  0  0  0  0  0  0  0  0  0  0
    7.5700   48.6320   52.6660 O   0  0  0  0  0  0  0  0  0  0  0  0
    8.2190   46.5660   51.7140 C   0  0  0  0  0  0  0  0  0  0  0  0
    9.5650   46.5860   52.1200 C   0  0  0  0  0  0  0  0  0  0  0  0
   10.4990   45.7440   51.5100 C   0  0  0  0  0  0  0  0  0  0  0  0
   10.0980   44.8660   50.5000 C   0  0  0  0  0  0  0  0  0  0  0  0
    8.7590   44.8250   50.1000 C   0  0  0  0  0  0  0  0  0  0  0  0
    8.2530   43.7090   48.8450 Cl  0  0  0  0  0  0  0  0  0  0  0  0
    7.8220   45.6660   50.7090 C   0  0  0  0  0  0  0  0  0  0  0  0
    5.2340   47.5320   53.8830 C   0  0  0  0  0  0  0  0  0  0  0  0
    3.9040   46.8180   54.1450 C   0  0  0  0  0  0  0  0  0  0  0  0
    3.1801   42.7890   53.4237 H   0  0  0  0  0  0  0  0  0  0  0  0
    2.4712   41.8553   52.0627 H   0  0  0  0  0  0  0  0  0  0  0  0
    2.3839   43.6495   52.0627 H   0  0  0  0  0  0  0  0  0  0  0  0
    0.2138   42.5715   52.6974 H   0  0  0  0  0  0  0  0  0  0  0  0
    1.0574   41.8262   54.1217 H   0  0  0  0  0  0  0  0  0  0  0  0
   -0.1831   44.4027   53.9403 H   0  0  0  0  0  0  0  0  0  0  0  0
    0.7124   43.6623   55.3263 H   0  0  0  0  0  0  0  0  0  0  0  0
    2.6440   44.8850   54.7670 H   0  0  0  0  0  0  0  0  0  0  0  0
    2.6172   47.9006   52.8197 H   0  0  0  0  0  0  0  0  0  0  0  0
    3.1858   45.8272   51.0067 H   0  0  0  0  0  0  0  0  0  0  0  0
    3.8029   47.5432   51.0227 H   0  0  0  0  0  0  0  0  0  0  0  0
    5.1501   45.0871   52.2264 H   0  0  0  0  0  0  0  0  0  0  0  0
    5.6933   46.0597   50.8118 H   0  0  0  0  0  0  0  0  0  0  0  0
    9.8846   47.2678   52.9218 H   0  0  0  0  0  0  0  0  0  0  0  0
   11.5523   45.7727   51.8259 H   0  0  0  0  0  0  0  0  0  0  0  0
   10.8359   44.2068   50.0194 H   0  0  0  0  0  0  0  0  0  0  0  0
    6.7672   45.6232   50.3997 H   0  0  0  0  0  0  0  0  0  0  0  0
    5.8949   47.3874   54.7503 H   0  0  0  0  0  0  0  0  0  0  0  0
    5.0281   48.6007   53.7236 H   0  0  0  0  0  0  0  0  0  0  0  0
    4.1049   45.7670   54.4000 H   0  0  0  0  0  0  0  0  0  0  0  0
    3.3925   47.3270   54.9752 H   0  0  0  0  0  0  0  0  0  0  0  0
  1  2  1  0
  2  3  1  0
  3  4  1  0
  4  5  1  0
  5  6  2  0
  5  7  1  0
  7  8  1  0
  8  9  1  0
  9 10  1  0
 10 11  1  0
 11 12  2  0
 11 13  1  0
 13 14  2  0
 14 15  1  0
 15 16  2  0
 16 17  1  0
 17 18  1  0
 17 19  2  0
 10 20  1  0
 20 21  1  0
 21  7  1  0
 19 13  1  0
  1 22  1  0
  1 23  1  0
  1 24  1  0
  2 25  1  0
  2 26  1  0
  3 27  1  0
  3 28  1  0
  4 29  1  0
  7 30  1  0
  8 31  1  0
  8 32  1  0
  9 33  1  0
  9 34  1  0
 14 35  1  0
 15 36  1  0
 16 37  1  0
 19 38  1  0
 20 39  1  0
 20 40  1  0
 21 41  1  0
 21 42  1  0
M  END
>  <meeko>  (3) 
{"is_sidechain": [false], "free_energy": -8.17, "intermolecular_energy": -10.342, "internal_energy": 0.272}

$$$$
ligand_66_conformer_4_docked
     RDKit          3D

 42 43  0  0  0  0  0  0  0  0999 V2000
   10.4500   46.0770   51.8250 C   0  0  0  0  0  0  0  0  0  0  0  0
    9.8990   46.8290   53.0340 C   0  0  0  0  0  0  0  0  0  0  0  0
    8.6670   47.6700   52.6750 C   0  0  0  0  0  0  0  0  0  0  0  0
    7.6600   46.8630   51.9880 N   0  0  0  0  0  0  0  0  0  0  0  0
    6.2800   46.8460   52.3830 C   0  0  0  0  0  0  0  0  0  0  0  0
    5.8780   47.6010   53.3100 O   0  0  0  0  0  0  0  0  0  0  0  0
    5.2910   45.9440   51.6870 C   0  0  0  0  0  0  0  0  0  0  0  0
    3.8830   46.5970   51.6070 C   0  0  0  0  0  0  0  0  0  0  0  0
    2.8220   45.8380   52.4120 C   0  0  0  0  0  0  0  0  0  0  0  0
    2.8280   44.4150   52.0390 N   0  0  0  0  0  0  0  0  0  0  0  0
    1.5980   43.7150   51.7710 C   0  0  0  0  0  0  0  0  0  0  0  0
    1.5740   42.8370   50.8650 O   0  0  0  0  0  0  0  0  0  0  0  0
    0.3610   43.9900   52.5370 C   0  0  0  0  0  0  0  0  0  0  0  0
    0.1720   43.4120   53.8050 C   0  0  0  0  0  0  0  0  0  0  0  0
   -0.9910   43.6760   54.5340 C   0  0  0  0  0  0  0  0  0  0  0  0
   -1.9680   44.5270   54.0130 C   0  0  0  0  0  0  0  0  0  0  0  0
   -1.7830   45.1210   52.7600 C   0  0  0  0  0  0  0  0  0  0  0  0
   -3.0030   46.2040   52.1150 Cl  0  0  0  0  0  0  0  0  0  0  0  0
   -0.6210   44.8590   52.0280 C   0  0  0  0  0  0  0  0  0  0  0  0
    4.1040   43.7070   51.8600 C   0  0  0  0  0  0  0  0  0  0  0  0
    5.2850   44.5510   52.3520 C   0  0  0  0  0  0  0  0  0  0  0  0
   11.0677   45.2339   52.1679 H   0  0  0  0  0  0  0  0  0  0  0  0
    9.6151   45.6968   51.2180 H   0  0  0  0  0  0  0  0  0  0  0  0
   11.0641   46.7585   51.2180 H   0  0  0  0  0  0  0  0  0  0  0  0
    9.6179   46.0997   53.8080 H   0  0  0  0  0  0  0  0  0  0  0  0
   10.6824   47.5111   53.3959 H   0  0  0  0  0  0  0  0  0  0  0  0
    8.2305   48.0796   53.5978 H   0  0  0  0  0  0  0  0  0  0  0  0
    8.9822   48.4815   52.0026 H   0  0  0  0  0  0  0  0  0  0  0  0
    7.9610   46.3020   51.1590 H   0  0  0  0  0  0  0  0  0  0  0  0
    5.6068   45.8004   50.6431 H   0  0  0  0  0  0  0  0  0  0  0  0
    3.9504   47.6234   51.9968 H   0  0  0  0  0  0  0  0  0  0  0  0
    3.5713   46.5768   50.5523 H   0  0  0  0  0  0  0  0  0  0  0  0
    3.0420   45.9338   53.4855 H   0  0  0  0  0  0  0  0  0  0  0  0
    1.8314   46.2636   52.1940 H   0  0  0  0  0  0  0  0  0  0  0  0
    0.9429   42.7492   54.2250 H   0  0  0  0  0  0  0  0  0  0  0  0
   -1.1371   43.2122   55.5207 H   0  0  0  0  0  0  0  0  0  0  0  0
   -2.8834   44.7303   54.5881 H   0  0  0  0  0  0  0  0  0  0  0  0
   -0.4737   45.3356   51.0476 H   0  0  0  0  0  0  0  0  0  0  0  0
    4.0744   42.7663   52.4294 H   0  0  0  0  0  0  0  0  0  0  0  0
    4.2428   43.5092   50.7869 H   0  0  0  0  0  0  0  0  0  0  0  0
    5.2083   44.6743   53.4424 H   0  0  0  0  0  0  0  0  0  0  0  0
    6.2182   44.0335   52.0849 H   0  0  0  0  0  0  0  0  0  0  0  0
  1  2  1  0
  2  3  1  0
  3  4  1  0
  4  5  1  0
  5  6  2  0
  5  7  1  0
  7  8  1  0
  8  9  1  0
  9 10  1  0
 10 11  1  0
 11 12  2  0
 11 13  1  0
 13 14  2  0
 14 15  1  0
 15 16  2  0
 16 17  1  0
 17 18  1  0
 17 19  2  0
 10 20  1  0
 20 21  1  0
 21  7  1  0
 19 13  1  0
  1 22  1  0
  1 23  1  0
  1 24  1  0
  2 25  1  0
  2 26  1  0
  3 27  1  0
  3 28  1  0
  4 29  1  0
  7 30  1  0
  8 31  1  0
  8 32  1  0
  9 33  1  0
  9 34  1  0
 14 35  1  0
 15 36  1  0
 16 37  1  0
 19 38  1  0
 20 39  1  0
 20 40  1  0
 21 41  1  0
 21 42  1  0
M  END
>  <meeko>  (4) 
{"is_sidechain": [false], "free_energy": -7.658, "intermolecular_energy": -9.029, "internal_energy": -0.41}

$$$$
ligand_66_conformer_4_docked
     RDKit          3D

 42 43  0  0  0  0  0  0  0  0999 V2000
   -1.9500   43.8360   54.8760 C   0  0  0  0  0  0  0  0  0  0  0  0
   -1.9500   44.8880   55.9830 C   0  0  0  0  0  0  0  0  0  0  0  0
   -0.5930   45.5910   56.1080 C   0  0  0  0  0  0  0  0  0  0  0  0
    0.2450   45.3320   54.9390 N   0  0  0  0  0  0  0  0  0  0  0  0
    1.6760   45.4500   54.9700 C   0  0  0  0  0  0  0  0  0  0  0  0
    2.2650   45.7150   56.0530 O   0  0  0  0  0  0  0  0  0  0  0  0
    2.4930   45.2400   53.7190 C   0  0  0  0  0  0  0  0  0  0  0  0
    3.8740   44.6050   54.0410 C   0  0  0  0  0  0  0  0  0  0  0  0
    5.0520   45.5300   53.7180 C   0  0  0  0  0  0  0  0  0  0  0  0
    4.9430   46.0210   52.3360 N   0  0  0  0  0  0  0  0  0  0  0  0
    6.0830   46.0140   51.4550 C   0  0  0  0  0  0  0  0  0  0  0  0
    5.9130   45.7600   50.2300 O   0  0  0  0  0  0  0  0  0  0  0  0
    7.4490   46.3040   51.9450 C   0  0  0  0  0  0  0  0  0  0  0  0
    8.5690   45.8470   51.2280 C   0  0  0  0  0  0  0  0  0  0  0  0
    9.8610   46.1260   51.6830 C   0  0  0  0  0  0  0  0  0  0  0  0
   10.0480   46.8740   52.8480 C   0  0  0  0  0  0  0  0  0  0  0  0
    8.9420   47.3500   53.5590 C   0  0  0  0  0  0  0  0  0  0  0  0
    9.1790   48.3050   55.0110 Cl  0  0  0  0  0  0  0  0  0  0  0  0
    7.6480   47.0720   53.1070 C   0  0  0  0  0  0  0  0  0  0  0  0
    3.6400   46.4570   51.8100 C   0  0  0  0  0  0  0  0  0  0  0  0
    2.5940   46.5600   52.9250 C   0  0  0  0  0  0  0  0  0  0  0  0
   -0.9129   43.5834   54.6102 H   0  0  0  0  0  0  0  0  0  0  0  0
   -2.4685   42.9324   55.2289 H   0  0  0  0  0  0  0  0  0  0  0  0
   -2.4685   44.2345   53.9915 H   0  0  0  0  0  0  0  0  0  0  0  0
   -2.7202   45.6404   55.7578 H   0  0  0  0  0  0  0  0  0  0  0  0
   -2.1575   44.3786   56.9356 H   0  0  0  0  0  0  0  0  0  0  0  0
   -0.7572   46.6749   56.1989 H   0  0  0  0  0  0  0  0  0  0  0  0
   -0.0790   45.2010   56.9989 H   0  0  0  0  0  0  0  0  0  0  0  0
   -0.2230   45.0210   54.0580 H   0  0  0  0  0  0  0  0  0  0  0  0
    1.9808   44.5134   53.0712 H   0  0  0  0  0  0  0  0  0  0  0  0
    3.9051   44.3601   55.1129 H   0  0  0  0  0  0  0  0  0  0  0  0
    3.9780   43.7098   53.4103 H   0  0  0  0  0  0  0  0  0  0  0  0
    5.0438   46.3851   54.4099 H   0  0  0  0  0  0  0  0  0  0  0  0
    5.9918   44.9691   53.8284 H   0  0  0  0  0  0  0  0  0  0  0  0
    8.4277   45.2669   50.3042 H   0  0  0  0  0  0  0  0  0  0  0  0
   10.7322   45.7558   51.1226 H   0  0  0  0  0  0  0  0  0  0  0  0
   11.0657   47.0886   53.2061 H   0  0  0  0  0  0  0  0  0  0  0  0
    6.7804   47.4562   53.6634 H   0  0  0  0  0  0  0  0  0  0  0  0
    3.7568   47.4430   51.3365 H   0  0  0  0  0  0  0  0  0  0  0  0
    3.2946   45.7116   51.0786 H   0  0  0  0  0  0  0  0  0  0  0  0
    2.8798   47.3707   53.6114 H   0  0  0  0  0  0  0  0  0  0  0  0
    1.6156   46.7668   52.4668 H   0  0  0  0  0  0  0  0  0  0  0  0
  1  2  1  0
  2  3  1  0
  3  4  1  0
  4  5  1  0
  5  6  2  0
  5  7  1  0
  7  8  1  0
  8  9  1  0
  9 10  1  0
 10 11  1  0
 11 12  2  0
 11 13  1  0
 13 14  2  0
 14 15  1  0
 15 16  2  0
 16 17  1  0
 17 18  1  0
 17 19  2  0
 10 20  1  0
 20 21  1  0
 21  7  1  0
 19 13  1  0
  1 22  1  0
  1 23  1  0
  1 24  1  0
  2 25  1  0
  2 26  1  0
  3 27  1  0
  3 28  1  0
  4 29  1  0
  7 30  1  0
  8 31  1  0
  8 32  1  0
  9 33  1  0
  9 34  1  0
 14 35  1  0
 15 36  1  0
 16 37  1  0
 19 38  1  0
 20 39  1  0
 20 40  1  0
 21 41  1  0
 21 42  1  0
M  END
>  <meeko>  (5) 
{"is_sidechain": [false], "free_energy": -7.606, "intermolecular_energy": -9.334, "internal_energy": -0.04}

$$$$
