ligand_51_conformer_2_docked
     RDKit          3D

 40 43  0  0  0  0  0  0  0  0999 V2000
    5.2080   44.9200   54.7050 O   0  0  0  0  0  0  0  0  0  0  0  0
    5.1100   45.6350   53.6710 C   0  0  0  0  0  0  0  0  0  0  0  0
    6.2120   46.4580   53.2630 N   0  0  0  0  0  0  0  0  0  0  0  0
    7.4960   46.4410   53.9720 C   0  0  2  0  0  0  0  0  0  0  0  0
    8.0250   47.8460   54.2550 C   0  0  0  0  0  0  0  0  0  0  0  0
    9.5380   47.6900   54.3320 C   0  0  0  0  0  0  0  0  0  0  0  0
    9.8890   46.5040   53.4280 C   0  0  2  0  0  0  0  0  0  0  0  0
    9.9880   46.8470   51.9400 C   0  0  0  0  0  0  0  0  0  0  0  0
    8.6920   46.0910   51.6820 C   0  0  0  0  0  0  0  0  0  0  0  0
    8.6020   45.7360   53.1710 C   0  0  2  0  0  0  0  0  0  0  0  0
    3.8540   45.6300   52.8990 C   0  0  0  0  0  0  0  0  0  0  0  0
    2.7540   46.4330   53.1230 C   0  0  0  0  0  0  0  0  0  0  0  0
    1.7650   46.0400   52.3000 N   0  0  0  0  0  0  0  0  0  0  0  0
    2.1760   45.0270   51.5560 N   0  0  0  0  0  0  0  0  0  0  0  0
    3.4530   44.7550   51.8940 C   0  0  0  0  0  0  0  0  0  0  0  0
    4.2590   43.7150   51.2200 C   0  0  0  0  0  0  0  0  0  0  0  0
    3.8710   42.3640   51.2550 C   0  0  0  0  0  0  0  0  0  0  0  0
    4.6580   41.3880   50.6350 C   0  0  0  0  0  0  0  0  0  0  0  0
    5.8430   41.7500   49.9910 C   0  0  0  0  0  0  0  0  0  0  0  0
    6.2480   43.0870   49.9710 C   0  0  0  0  0  0  0  0  0  0  0  0
    7.4040   43.4350   49.3530 F   0  0  0  0  0  0  0  0  0  0  0  0
    5.4630   44.0670   50.5890 C   0  0  0  0  0  0  0  0  0  0  0  0
    6.0960   47.0770   52.4280 H   0  0  0  0  0  0  0  0  0  0  0  0
    7.2787   45.9023   54.9061 H   0  0  0  0  0  0  0  0  0  0  0  0
    7.7482   48.5341   53.4427 H   0  0  0  0  0  0  0  0  0  0  0  0
    7.6055   48.2665   55.1809 H   0  0  0  0  0  0  0  0  0  0  0  0
   10.0348   48.6036   53.9734 H   0  0  0  0  0  0  0  0  0  0  0  0
    9.8725   47.5201   55.3660 H   0  0  0  0  0  0  0  0  0  0  0  0
   10.7767   46.0708   53.9122 H   0  0  0  0  0  0  0  0  0  0  0  0
    9.9312   47.9237   51.7222 H   0  0  0  0  0  0  0  0  0  0  0  0
   10.8977   46.6043   51.3712 H   0  0  0  0  0  0  0  0  0  0  0  0
    7.8677   46.7233   51.3206 H   0  0  0  0  0  0  0  0  0  0  0  0
    8.6514   45.3007   50.9180 H   0  0  0  0  0  0  0  0  0  0  0  0
    8.4378   44.6772   53.4198 H   0  0  0  0  0  0  0  0  0  0  0  0
    2.6958   47.2553   53.8513 H   0  0  0  0  0  0  0  0  0  0  0  0
    0.8080   46.4520   52.2520 H   0  0  0  0  0  0  0  0  0  0  0  0
    2.9446   42.0734   51.7721 H   0  0  0  0  0  0  0  0  0  0  0  0
    4.3432   40.3342   50.6547 H   0  0  0  0  0  0  0  0  0  0  0  0
    6.4580   40.9820   49.4991 H   0  0  0  0  0  0  0  0  0  0  0  0
    5.7904   45.1171   50.5804 H   0  0  0  0  0  0  0  0  0  0  0  0
  1  2  2  0
  2  3  1  0
  3  4  1  0
  4  5  1  0
  5  6  1  0
  6  7  1  0
  7  8  1  0
  8  9  1  0
  9 10  1  0
  2 11  1  0
 11 12  2  0
 12 13  1  0
 13 14  1  0
 14 15  2  0
 15 16  1  0
 16 17  2  0
 17 18  1  0
 18 19  2  0
 19 20  1  0
 20 21  1  0
 20 22  2  0
 10  4  1  0
 15 11  1  0
 22 16  1  0
 10  7  1  0
  3 23  1  0
  4 24  1  1
  5 25  1  0
  5 26  1  0
  6 27  1  0
  6 28  1  0
  7 29  1  1
  8 30  1  0
  8 31  1  0
  9 32  1  0
  9 33  1  0
 10 34  1  6
 12 35  1  0
 13 36  1  0
 17 37  1  0
 18 38  1  0
 19 39  1  0
 22 40  1  0
M  END
>  <meeko>  (1) 
{"is_sidechain": [false], "free_energy": -9.182, "intermolecular_energy": -10.792, "internal_energy": -0.859}

$$$$
ligand_51_conformer_2_docked
     RDKit          3D

 40 43  0  0  0  0  0  0  0  0999 V2000
    4.1160   46.0640   50.8650 O   0  0  0  0  0  0  0  0  0  0  0  0
    4.5990   45.5190   51.8940 C   0  0  0  0  0  0  0  0  0  0  0  0
    5.1200   44.1840   51.8210 N   0  0  0  0  0  0  0  0  0  0  0  0
    5.1850   43.4470   50.5550 C   0  0  2  0  0  0  0  0  0  0  0  0
    5.6150   41.9930   50.7460 C   0  0  0  0  0  0  0  0  0  0  0  0
    6.2730   41.5980   49.4310 C   0  0  0  0  0  0  0  0  0  0  0  0
    6.8560   42.8880   48.8440 C   0  0  2  0  0  0  0  0  0  0  0  0
    8.2160   43.2900   49.4180 C   0  0  0  0  0  0  0  0  0  0  0  0
    7.5610   44.4460   50.1590 C   0  0  0  0  0  0  0  0  0  0  0  0
    6.2000   44.0520   49.5720 C   0  0  2  0  0  0  0  0  0  0  0  0
    4.6050   46.2560   53.1720 C   0  0  0  0  0  0  0  0  0  0  0  0
    3.5190   46.4730   53.9960 C   0  0  0  0  0  0  0  0  0  0  0  0
    3.8990   47.2940   54.9910 N   0  0  0  0  0  0  0  0  0  0  0  0
    5.1740   47.6120   54.8510 N   0  0  0  0  0  0  0  0  0  0  0  0
    5.6380   46.9880   53.7500 C   0  0  0  0  0  0  0  0  0  0  0  0
    7.0490   47.0660   53.3150 C   0  0  0  0  0  0  0  0  0  0  0  0
    7.3790   47.4030   51.9900 C   0  0  0  0  0  0  0  0  0  0  0  0
    8.7180   47.4480   51.5870 C   0  0  0  0  0  0  0  0  0  0  0  0
    9.7340   47.1420   52.4960 C   0  0  0  0  0  0  0  0  0  0  0  0
    9.4130   46.7830   53.8080 C   0  0  0  0  0  0  0  0  0  0  0  0
   10.4000   46.4770   54.6860 F   0  0  0  0  0  0  0  0  0  0  0  0
    8.0760   46.7390   54.2160 C   0  0  0  0  0  0  0  0  0  0  0  0
    5.4750   43.7340   52.6950 H   0  0  0  0  0  0  0  0  0  0  0  0
    4.1614   43.5100   50.1571 H   0  0  0  0  0  0  0  0  0  0  0  0
    6.3308   41.9079   51.5769 H   0  0  0  0  0  0  0  0  0  0  0  0
    4.7645   41.3408   50.9936 H   0  0  0  0  0  0  0  0  0  0  0  0
    7.0727   40.8641   49.6094 H   0  0  0  0  0  0  0  0  0  0  0  0
    5.5507   41.1338   48.7434 H   0  0  0  0  0  0  0  0  0  0  0  0
    6.7881   42.7247   47.7583 H   0  0  0  0  0  0  0  0  0  0  0  0
    8.6673   42.5328   50.0760 H   0  0  0  0  0  0  0  0  0  0  0  0
    9.0712   43.4699   48.7500 H   0  0  0  0  0  0  0  0  0  0  0  0
    7.6174   44.3665   51.2547 H   0  0  0  0  0  0  0  0  0  0  0  0
    7.9427   45.4708   50.0402 H   0  0  0  0  0  0  0  0  0  0  0  0
    5.6170   44.8507   49.0903 H   0  0  0  0  0  0  0  0  0  0  0  0
    2.5138   46.0469   53.8616 H   0  0  0  0  0  0  0  0  0  0  0  0
    3.2870   47.6470   55.7600 H   0  0  0  0  0  0  0  0  0  0  0  0
    6.5814   47.6320   51.2679 H   0  0  0  0  0  0  0  0  0  0  0  0
    8.9713   47.7247   50.5529 H   0  0  0  0  0  0  0  0  0  0  0  0
   10.7865   47.1836   52.1790 H   0  0  0  0  0  0  0  0  0  0  0  0
    7.8275   46.4470   55.2470 H   0  0  0  0  0  0  0  0  0  0  0  0
  1  2  2  0
  2  3  1  0
  3  4  1  0
  4  5  1  0
  5  6  1  0
  6  7  1  0
  7  8  1  0
  8  9  1  0
  9 10  1  0
  2 11  1  0
 11 12  2  0
 12 13  1  0
 13 14  1  0
 14 15  2  0
 15 16  1  0
 16 17  2  0
 17 18  1  0
 18 19  2  0
 19 20  1  0
 20 21  1  0
 20 22  2  0
 10  4  1  0
 15 11  1  0
 22 16  1  0
 10  7  1  0
  3 23  1  0
  4 24  1  6
  5 25  1  0
  5 26  1  0
  6 27  1  0
  6 28  1  0
  7 29  1  6
  8 30  1  0
  8 31  1  0
  9 32  1  0
  9 33  1  0
 10 34  1  6
 12 35  1  0
 13 36  1  0
 17 37  1  0
 18 38  1  0
 19 39  1  0
 22 40  1  0
M  END
>  <meeko>  (2) 
{"is_sidechain": [false], "free_energy": -9.029, "intermolecular_energy": -10.792, "internal_energy": -0.68}

$$$$
ligand_51_conformer_2_docked
     RDKit          3D

 40 43  0  0  0  0  0  0  0  0999 V2000
    7.2290   43.5490   49.2640 O   0  0  0  0  0  0  0  0  0  0  0  0
    6.5150   43.7700   50.2800 C   0  0  0  0  0  0  0  0  0  0  0  0
    6.8320   44.8620   51.1550 N   0  0  0  0  0  0  0  0  0  0  0  0
    7.9270   45.7940   50.8640 C   0  0  2  0  0  0  0  0  0  0  0  0
    9.2760   45.2830   51.3680 C   0  0  0  0  0  0  0  0  0  0  0  0
   10.1030   46.5370   51.6230 C   0  0  0  0  0  0  0  0  0  0  0  0
    9.1020   47.6420   51.9750 C   0  0  2  0  0  0  0  0  0  0  0  0
    8.6380   47.6380   53.4330 C   0  0  0  0  0  0  0  0  0  0  0  0
    7.2670   47.1450   52.9940 C   0  0  0  0  0  0  0  0  0  0  0  0
    7.7280   47.1640   51.5310 C   0  0  2  0  0  0  0  0  0  0  0  0
    5.3690   42.8890   50.5680 C   0  0  0  0  0  0  0  0  0  0  0  0
    5.2140   41.5830   50.1460 C   0  0  0  0  0  0  0  0  0  0  0  0
    3.9850   41.1650   50.4970 N   0  0  0  0  0  0  0  0  0  0  0  0
    3.3430   42.1340   51.1270 N   0  0  0  0  0  0  0  0  0  0  0  0
    4.1650   43.2010   51.1930 C   0  0  0  0  0  0  0  0  0  0  0  0
    3.8010   44.4550   51.8870 C   0  0  0  0  0  0  0  0  0  0  0  0
    3.3450   45.5730   51.1660 C   0  0  0  0  0  0  0  0  0  0  0  0
    3.0290   46.7610   51.8340 C   0  0  0  0  0  0  0  0  0  0  0  0
    3.1810   46.8470   53.2200 C   0  0  0  0  0  0  0  0  0  0  0  0
    3.6570   45.7490   53.9400 C   0  0  0  0  0  0  0  0  0  0  0  0
    3.8130   45.8370   55.2850 F   0  0  0  0  0  0  0  0  0  0  0  0
    3.9720   44.5580   53.2770 C   0  0  0  0  0  0  0  0  0  0  0  0
    6.2550   45.0010   52.0150 H   0  0  0  0  0  0  0  0  0  0  0  0
    7.9191   45.8830   49.7676 H   0  0  0  0  0  0  0  0  0  0  0  0
    9.1489   44.7082   52.2972 H   0  0  0  0  0  0  0  0  0  0  0  0
    9.7591   44.6098   50.6445 H   0  0  0  0  0  0  0  0  0  0  0  0
   10.7989   46.3719   52.4588 H   0  0  0  0  0  0  0  0  0  0  0  0
   10.7060   46.8064   50.7433 H   0  0  0  0  0  0  0  0  0  0  0  0
    9.5877   48.5535   51.5964 H   0  0  0  0  0  0  0  0  0  0  0  0
    9.1843   46.9326   54.0764 H   0  0  0  0  0  0  0  0  0  0  0  0
    8.7331   48.5434   54.0504 H   0  0  0  0  0  0  0  0  0  0  0  0
    7.0081   46.1443   53.3702 H   0  0  0  0  0  0  0  0  0  0  0  0
    6.3579   47.6845   53.2981 H   0  0  0  0  0  0  0  0  0  0  0  0
    7.0794   47.6862   50.8122 H   0  0  0  0  0  0  0  0  0  0  0  0
    5.9684   40.9858   49.6129 H   0  0  0  0  0  0  0  0  0  0  0  0
    3.5780   40.2250   50.2980 H   0  0  0  0  0  0  0  0  0  0  0  0
    3.2364   45.5132   50.0730 H   0  0  0  0  0  0  0  0  0  0  0  0
    2.6603   47.6285   51.2670 H   0  0  0  0  0  0  0  0  0  0  0  0
    2.9257   47.7797   53.7444 H   0  0  0  0  0  0  0  0  0  0  0  0
    4.3552   43.6987   53.8469 H   0  0  0  0  0  0  0  0  0  0  0  0
  1  2  2  0
  2  3  1  0
  3  4  1  0
  4  5  1  0
  5  6  1  0
  6  7  1  0
  7  8  1  0
  8  9  1  0
  9 10  1  0
  2 11  1  0
 11 12  2  0
 12 13  1  0
 13 14  1  0
 14 15  2  0
 15 16  1  0
 16 17  2  0
 17 18  1  0
 18 19  2  0
 19 20  1  0
 20 21  1  0
 20 22  2  0
 10  4  1  0
 15 11  1  0
 22 16  1  0
 10  7  1  0
  3 23  1  0
  4 24  1  6
  5 25  1  0
  5 26  1  0
  6 27  1  0
  6 28  1  0
  7 29  1  6
  8 30  1  0
  8 31  1  0
  9 32  1  0
  9 33  1  0
 10 34  1  6
 12 35  1  0
 13 36  1  0
 17 37  1  0
 18 38  1  0
 19 39  1  0
 22 40  1  0
M  END
>  <meeko>  (3) 
{"is_sidechain": [false], "free_energy": -8.801, "intermolecular_energy": -10.423, "internal_energy": -0.781}

$$$$
ligand_51_conformer_2_docked
     RDKit          3D

 40 43  0  0  0  0  0  0  0  0999 V2000
    4.2150   46.7310   51.4590 O   0  0  0  0  0  0  0  0  0  0  0  0
    4.6630   45.7080   52.0450 C   0  0  0  0  0  0  0  0  0  0  0  0
    6.0750   45.5650   52.2580 N   0  0  0  0  0  0  0  0  0  0  0  0
    7.0240   46.6180   51.8820 C   0  0  2  0  0  0  0  0  0  0  0  0
    8.3580   46.0530   51.3950 C   0  0  0  0  0  0  0  0  0  0  0  0
    9.3820   47.1380   51.7010 C   0  0  0  0  0  0  0  0  0  0  0  0
    8.8460   47.8960   52.9190 C   0  0  2  0  0  0  0  0  0  0  0  0
    9.1360   47.2260   54.2640 C   0  0  0  0  0  0  0  0  0  0  0  0
    7.6650   46.8600   54.3980 C   0  0  0  0  0  0  0  0  0  0  0  0
    7.3720   47.5450   53.0570 C   0  0  2  0  0  0  0  0  0  0  0  0
    3.7290   44.6580   52.4910 C   0  0  0  0  0  0  0  0  0  0  0  0
    2.8230   44.7560   53.5290 C   0  0  0  0  0  0  0  0  0  0  0  0
    2.2510   43.5530   53.7100 N   0  0  0  0  0  0  0  0  0  0  0  0
    2.7400   42.6870   52.8380 N   0  0  0  0  0  0  0  0  0  0  0  0
    3.6430   43.3330   52.0740 C   0  0  0  0  0  0  0  0  0  0  0  0
    4.3510   42.6890   50.9470 C   0  0  0  0  0  0  0  0  0  0  0  0
    3.8420   41.5250   50.3450 C   0  0  0  0  0  0  0  0  0  0  0  0
    4.5360   40.9120   49.2970 C   0  0  0  0  0  0  0  0  0  0  0  0
    5.7490   41.4460   48.8530 C   0  0  0  0  0  0  0  0  0  0  0  0
    6.2730   42.5890   49.4620 C   0  0  0  0  0  0  0  0  0  0  0  0
    7.4550   43.1000   49.0360 F   0  0  0  0  0  0  0  0  0  0  0  0
    5.5810   43.2060   50.5090 C   0  0  0  0  0  0  0  0  0  0  0  0
    6.4300   44.6900   52.7050 H   0  0  0  0  0  0  0  0  0  0  0  0
    6.5089   47.1698   51.0819 H   0  0  0  0  0  0  0  0  0  0  0  0
    8.6046   45.1260   51.9333 H   0  0  0  0  0  0  0  0  0  0  0  0
    8.3328   45.7992   50.3250 H   0  0  0  0  0  0  0  0  0  0  0  0
   10.3587   46.6873   51.9312 H   0  0  0  0  0  0  0  0  0  0  0  0
    9.5259   47.8090   50.8413 H   0  0  0  0  0  0  0  0  0  0  0  0
    9.2231   48.9179   52.7659 H   0  0  0  0  0  0  0  0  0  0  0  0
    9.8103   46.3594   54.1980 H   0  0  0  0  0  0  0  0  0  0  0  0
    9.6469   47.7815   55.0643 H   0  0  0  0  0  0  0  0  0  0  0  0
    7.4701   45.7774   54.4012 H   0  0  0  0  0  0  0  0  0  0  0  0
    7.1018   47.1396   55.3006 H   0  0  0  0  0  0  0  0  0  0  0  0
    6.5453   48.2705   53.0404 H   0  0  0  0  0  0  0  0  0  0  0  0
    2.6062   45.6649   54.1095 H   0  0  0  0  0  0  0  0  0  0  0  0
    1.5370   43.3170   54.4330 H   0  0  0  0  0  0  0  0  0  0  0  0
    2.8939   41.0946   50.6998 H   0  0  0  0  0  0  0  0  0  0  0  0
    4.1268   40.0084   48.8215 H   0  0  0  0  0  0  0  0  0  0  0  0
    6.2908   40.9665   48.0244 H   0  0  0  0  0  0  0  0  0  0  0  0
    6.0021   44.1003   50.9916 H   0  0  0  0  0  0  0  0  0  0  0  0
  1  2  2  0
  2  3  1  0
  3  4  1  0
  4  5  1  0
  5  6  1  0
  6  7  1  0
  7  8  1  0
  8  9  1  0
  9 10  1  0
  2 11  1  0
 11 12  2  0
 12 13  1  0
 13 14  1  0
 14 15  2  0
 15 16  1  0
 16 17  2  0
 17 18  1  0
 18 19  2  0
 19 20  1  0
 20 21  1  0
 20 22  2  0
 10  4  1  0
 15 11  1  0
 22 16  1  0
 10  7  1  0
  3 23  1  0
  4 24  1  6
  5 25  1  0
  5 26  1  0
  6 27  1  0
  6 28  1  0
  7 29  1  1
  8 30  1  0
  8 31  1  0
  9 32  1  0
  9 33  1  0
 10 34  1  1
 12 35  1  0
 13 36  1  0
 17 37  1  0
 18 38  1  0
 19 39  1  0
 22 40  1  0
M  END
>  <meeko>  (4) 
{"is_sidechain": [false], "free_energy": -8.75, "intermolecular_energy": -11.162, "internal_energy": 0.018}

$$$$
ligand_51_conformer_2_docked
     RDKit          3D

 40 43  0  0  0  0  0  0  0  0999 V2000
    4.7620   45.7490   50.4400 O   0  0  0  0  0  0  0  0  0  0  0  0
    5.2780   44.8090   51.1040 C   0  0  0  0  0  0  0  0  0  0  0  0
    6.6230   44.9300   51.5910 N   0  0  0  0  0  0  0  0  0  0  0  0
    7.4050   46.1570   51.4080 C   0  0  2  0  0  0  0  0  0  0  0  0
    8.9060   45.8840   51.3130 C   0  0  0  0  0  0  0  0  0  0  0  0
    9.5720   47.1620   51.8060 C   0  0  0  0  0  0  0  0  0  0  0  0
    8.5920   47.7960   52.7990 C   0  0  2  0  0  0  0  0  0  0  0  0
    8.6480   47.2080   54.2100 C   0  0  0  0  0  0  0  0  0  0  0  0
    7.2990   46.5400   53.9850 C   0  0  0  0  0  0  0  0  0  0  0  0
    7.2370   47.1420   52.5750 C   0  0  2  0  0  0  0  0  0  0  0  0
    4.4970   43.5850   51.3590 C   0  0  0  0  0  0  0  0  0  0  0  0
    4.4960   42.4400   50.5860 C   0  0  0  0  0  0  0  0  0  0  0  0
    3.5610   41.6030   51.0690 N   0  0  0  0  0  0  0  0  0  0  0  0
    2.9640   42.1490   52.1140 N   0  0  0  0  0  0  0  0  0  0  0  0
    3.5180   43.3600   52.3220 C   0  0  0  0  0  0  0  0  0  0  0  0
    3.1380   44.2360   53.4510 C   0  0  0  0  0  0  0  0  0  0  0  0
    4.1160   44.9150   54.1990 C   0  0  0  0  0  0  0  0  0  0  0  0
    3.7430   45.7200   55.2810 C   0  0  0  0  0  0  0  0  0  0  0  0
    2.3960   45.8400   55.6320 C   0  0  0  0  0  0  0  0  0  0  0  0
    1.4200   45.1500   54.9080 C   0  0  0  0  0  0  0  0  0  0  0  0
    0.1140   45.2610   55.2570 F   0  0  0  0  0  0  0  0  0  0  0  0
    1.7890   44.3460   53.8250 C   0  0  0  0  0  0  0  0  0  0  0  0
    7.0480   44.1220   52.1000 H   0  0  0  0  0  0  0  0  0  0  0  0
    7.0182   46.5835   50.4707 H   0  0  0  0  0  0  0  0  0  0  0  0
    9.1850   45.0321   51.9505 H   0  0  0  0  0  0  0  0  0  0  0  0
    9.2147   45.6261   50.2892 H   0  0  0  0  0  0  0  0  0  0  0  0
   10.5238   46.9283   52.3054 H   0  0  0  0  0  0  0  0  0  0  0  0
    9.7982   47.8443   50.9734 H   0  0  0  0  0  0  0  0  0  0  0  0
    8.7804   48.8740   52.6873 H   0  0  0  0  0  0  0  0  0  0  0  0
    9.4771   46.5030   54.3702 H   0  0  0  0  0  0  0  0  0  0  0  0
    8.8072   47.8622   55.0799 H   0  0  0  0  0  0  0  0  0  0  0  0
    7.3335   45.4407   54.0030 H   0  0  0  0  0  0  0  0  0  0  0  0
    6.4738   46.6982   54.6950 H   0  0  0  0  0  0  0  0  0  0  0  0
    6.3150   47.6768   52.3033 H   0  0  0  0  0  0  0  0  0  0  0  0
    5.1490   42.2460   49.7223 H   0  0  0  0  0  0  0  0  0  0  0  0
    3.3200   40.6650   50.6800 H   0  0  0  0  0  0  0  0  0  0  0  0
    5.1784   44.8130   53.9326 H   0  0  0  0  0  0  0  0  0  0  0  0
    4.5108   46.2587   55.8556 H   0  0  0  0  0  0  0  0  0  0  0  0
    2.1035   46.4781   56.4789 H   0  0  0  0  0  0  0  0  0  0  0  0
    1.0188   43.7971   53.2634 H   0  0  0  0  0  0  0  0  0  0  0  0
  1  2  2  0
  2  3  1  0
  3  4  1  0
  4  5  1  0
  5  6  1  0
  6  7  1  0
  7  8  1  0
  8  9  1  0
  9 10  1  0
  2 11  1  0
 11 12  2  0
 12 13  1  0
 13 14  1  0
 14 15  2  0
 15 16  1  0
 16 17  2  0
 17 18  1  0
 18 19  2  0
 19 20  1  0
 20 21  1  0
 20 22  2  0
 10  4  1  0
 15 11  1  0
 22 16  1  0
 10  7  1  0
  3 23  1  0
  4 24  1  6
  5 25  1  0
  5 26  1  0
  6 27  1  0
  6 28  1  0
  7 29  1  1
  8 30  1  0
  8 31  1  0
  9 32  1  0
  9 33  1  0
 10 34  1  6
 12 35  1  0
 13 36  1  0
 17 37  1  0
 18 38  1  0
 19 39  1  0
 22 40  1  0
M  END
>  <meeko>  (5) 
{"is_sidechain": [false], "free_energy": -8.488, "intermolecular_energy": -10.074, "internal_energy": -0.762}

$$$$
