MODEL 1
REMARK VINA RESULT:    -8.581      0.000      0.000
REMARK INTER + INTRA:         -13.072
REMARK INTER:                 -12.093
REMARK INTRA:                  -0.979
REMARK UNBOUND:                -0.979
REMARK SMILES CN(C)CCc1ccc(CNC(=O)Cc2ccc3sccc3c2)cc1
REMARK SMILES IDX 6 1 7 2 8 3 9 4 24 5 25 6 5 7 4 8 2 9 1 10 3 11 10 12 11 13
REMARK SMILES IDX 12 14 13 15 14 17 15 18 16 19 23 20 17 21 22 22 18 23 21 24
REMARK SMILES IDX 19 25 20 26
REMARK H PARENT 11 16
ROOT
ATOM      1  C   UNL     1       8.878  46.548  51.827  1.00  0.00    -0.047 A 
ATOM      2  C   UNL     1       7.536  46.366  51.455  1.00  0.00     0.004 A 
ATOM      3  C   UNL     1       7.191  45.398  50.505  1.00  0.00     0.006 A 
ATOM      4  C   UNL     1       8.182  44.590  49.926  1.00  0.00    -0.029 A 
ATOM      5  C   UNL     1       9.525  44.770  50.300  1.00  0.00     0.006 A 
ATOM      6  C   UNL     1       9.869  45.741  51.246  1.00  0.00     0.004 A 
ENDROOT
BRANCH   1   7
ATOM      7  C   UNL     1       9.242  47.545  52.899  1.00  0.00     0.051 C 
BRANCH   7   8
ATOM      8  C   UNL     1      10.208  46.935  53.926  1.00  0.00     0.088 C 
BRANCH   8   9
ATOM      9  N   UNL     1       9.843  47.330  55.307  1.00  0.00    -0.309 NA
ATOM     10  C   UNL     1       9.053  48.574  55.296  1.00  0.00     0.104 C 
ATOM     11  C   UNL     1      11.043  47.516  56.140  1.00  0.00     0.104 C 
ENDBRANCH   8   9
ENDBRANCH   7   8
ENDBRANCH   1   7
BRANCH   4  12
ATOM     12  C   UNL     1       7.803  43.519  48.936  1.00  0.00     0.151 C 
BRANCH  12  13
ATOM     13  N   UNL     1       6.438  43.053  49.180  1.00  0.00    -0.352 N 
ATOM     14  C   UNL     1       6.151  41.776  49.770  1.00  0.00     0.224 C 
ATOM     15  O   UNL     1       7.090  41.027  50.163  1.00  0.00    -0.275 OA
ATOM     16  H   UNL     1       5.647  43.669  48.885  1.00  0.00     0.163 HD
BRANCH  14  17
ATOM     17  C   UNL     1       4.731  41.316  49.921  1.00  0.00     0.135 C 
BRANCH  17  18
ATOM     18  C   UNL     1       4.002  42.181  50.913  1.00  0.00    -0.038 A 
ATOM     19  C   UNL     1       2.586  42.242  50.905  1.00  0.00     0.006 A 
ATOM     20  C   UNL     1       4.733  42.977  51.824  1.00  0.00     0.013 A 
ATOM     21  C   UNL     1       1.902  43.074  51.804  1.00  0.00     0.020 A 
ATOM     22  C   UNL     1       4.037  43.805  52.711  1.00  0.00    -0.007 A 
ATOM     23  C   UNL     1       2.651  43.842  52.693  1.00  0.00     0.034 A 
ATOM     24  C   UNL     1       4.607  44.655  53.668  1.00  0.00     0.020 A 
ATOM     25  S   UNL     1       2.107  44.923  53.858  1.00  0.00    -0.144 S 
ATOM     26  C   UNL     1       3.651  45.359  54.401  1.00  0.00     0.066 A 
ENDBRANCH  17  18
ENDBRANCH  14  17
ENDBRANCH  12  13
ENDBRANCH   4  12
TORSDOF 7
ENDMDL
MODEL 2
REMARK VINA RESULT:    -8.227      2.773      6.577
REMARK INTER + INTRA:         -12.573
REMARK INTER:                 -11.200
REMARK INTRA:                  -1.373
REMARK UNBOUND:                -0.979
REMARK SMILES CN(C)CCc1ccc(CNC(=O)Cc2ccc3sccc3c2)cc1
REMARK SMILES IDX 6 1 7 2 8 3 9 4 24 5 25 6 5 7 4 8 2 9 1 10 3 11 10 12 11 13
REMARK SMILES IDX 12 14 13 15 14 17 15 18 16 19 23 20 17 21 22 22 18 23 21 24
REMARK SMILES IDX 19 25 20 26
REMARK H PARENT 11 16
ROOT
ATOM      1  C   UNL     1       3.441  45.466  54.970  1.00  0.00    -0.047 A 
ATOM      2  C   UNL     1       3.709  46.815  54.684  1.00  0.00     0.004 A 
ATOM      3  C   UNL     1       5.029  47.265  54.575  1.00  0.00     0.006 A 
ATOM      4  C   UNL     1       6.098  46.369  54.737  1.00  0.00    -0.029 A 
ATOM      5  C   UNL     1       5.829  45.019  55.022  1.00  0.00     0.006 A 
ATOM      6  C   UNL     1       4.510  44.571  55.134  1.00  0.00     0.004 A 
ENDROOT
BRANCH   1   7
ATOM      7  C   UNL     1       2.018  44.968  55.022  1.00  0.00     0.051 C 
BRANCH   7   8
ATOM      8  C   UNL     1       1.270  45.273  53.715  1.00  0.00     0.088 C 
BRANCH   8   9
ATOM      9  N   UNL     1       1.593  44.278  52.666  1.00  0.00    -0.309 NA
ATOM     10  C   UNL     1       0.793  44.528  51.454  1.00  0.00     0.104 C 
ATOM     11  C   UNL     1       1.350  42.907  53.142  1.00  0.00     0.104 C 
ENDBRANCH   8   9
ENDBRANCH   7   8
ENDBRANCH   1   7
BRANCH   4  12
ATOM     12  C   UNL     1       7.518  46.848  54.577  1.00  0.00     0.151 C 
BRANCH  12  13
ATOM     13  N   UNL     1       8.070  46.403  53.298  1.00  0.00    -0.352 N 
ATOM     14  C   UNL     1       7.895  47.142  52.080  1.00  0.00     0.224 C 
ATOM     15  O   UNL     1       7.301  48.257  52.089  1.00  0.00    -0.275 OA
ATOM     16  H   UNL     1       8.587  45.495  53.275  1.00  0.00     0.163 HD
BRANCH  14  17
ATOM     17  C   UNL     1       8.414  46.595  50.783  1.00  0.00     0.135 C 
BRANCH  17  18
ATOM     18  C   UNL     1       7.737  45.291  50.456  1.00  0.00    -0.038 A 
ATOM     19  C   UNL     1       8.300  44.415  49.495  1.00  0.00     0.006 A 
ATOM     20  C   UNL     1       6.508  44.962  51.069  1.00  0.00     0.013 A 
ATOM     21  C   UNL     1       7.656  43.215  49.158  1.00  0.00     0.020 A 
ATOM     22  C   UNL     1       5.875  43.764  50.721  1.00  0.00    -0.007 A 
ATOM     23  C   UNL     1       6.449  42.917  49.786  1.00  0.00     0.034 A 
ATOM     24  C   UNL     1       4.657  43.294  51.230  1.00  0.00     0.020 A 
ATOM     25  S   UNL     1       5.463  41.573  49.572  1.00  0.00    -0.144 S 
ATOM     26  C   UNL     1       4.283  42.066  50.683  1.00  0.00     0.066 A 
ENDBRANCH  17  18
ENDBRANCH  14  17
ENDBRANCH  12  13
ENDBRANCH   4  12
TORSDOF 7
ENDMDL
MODEL 3
REMARK VINA RESULT:    -7.756      3.312      4.674
REMARK INTER + INTRA:         -11.909
REMARK INTER:                 -10.976
REMARK INTRA:                  -0.933
REMARK UNBOUND:                -0.979
REMARK SMILES CN(C)CCc1ccc(CNC(=O)Cc2ccc3sccc3c2)cc1
REMARK SMILES IDX 6 1 7 2 8 3 9 4 24 5 25 6 5 7 4 8 2 9 1 10 3 11 10 12 11 13
REMARK SMILES IDX 12 14 13 15 14 17 15 18 16 19 23 20 17 21 22 22 18 23 21 24
REMARK SMILES IDX 19 25 20 26
REMARK H PARENT 11 16
ROOT
ATOM      1  C   UNL     1       6.331  45.822  52.872  1.00  0.00    -0.047 A 
ATOM      2  C   UNL     1       5.512  45.011  53.675  1.00  0.00     0.004 A 
ATOM      3  C   UNL     1       4.700  44.032  53.092  1.00  0.00     0.006 A 
ATOM      4  C   UNL     1       4.706  43.842  51.701  1.00  0.00    -0.029 A 
ATOM      5  C   UNL     1       5.527  44.652  50.898  1.00  0.00     0.006 A 
ATOM      6  C   UNL     1       6.335  45.633  51.480  1.00  0.00     0.004 A 
ENDROOT
BRANCH   1   7
ATOM      7  C   UNL     1       7.256  46.832  53.504  1.00  0.00     0.051 C 
BRANCH   7   8
ATOM      8  C   UNL     1       8.091  47.567  52.444  1.00  0.00     0.088 C 
BRANCH   8   9
ATOM      9  N   UNL     1       9.542  47.408  52.699  1.00  0.00    -0.309 NA
ATOM     10  C   UNL     1      10.087  46.294  51.903  1.00  0.00     0.104 C 
ATOM     11  C   UNL     1       9.806  47.168  54.127  1.00  0.00     0.104 C 
ENDBRANCH   8   9
ENDBRANCH   7   8
ENDBRANCH   1   7
BRANCH   4  12
ATOM     12  C   UNL     1       3.862  42.758  51.082  1.00  0.00     0.151 C 
BRANCH  12  13
ATOM     13  N   UNL     1       2.826  42.317  52.015  1.00  0.00    -0.352 N 
ATOM     14  C   UNL     1       1.536  42.942  52.091  1.00  0.00     0.224 C 
ATOM     15  O   UNL     1       1.228  43.870  51.291  1.00  0.00    -0.275 OA
ATOM     16  H   UNL     1       3.053  41.533  52.668  1.00  0.00     0.163 HD
BRANCH  14  17
ATOM     17  C   UNL     1       0.542  42.500  53.124  1.00  0.00     0.135 C 
BRANCH  17  18
ATOM     18  C   UNL     1       0.352  43.573  54.162  1.00  0.00    -0.038 A 
ATOM     19  C   UNL     1       1.470  44.274  54.678  1.00  0.00     0.006 A 
ATOM     20  C   UNL     1      -0.940  43.846  54.664  1.00  0.00     0.013 A 
ATOM     21  C   UNL     1       1.304  45.251  55.672  1.00  0.00     0.020 A 
ATOM     22  C   UNL     1      -1.089  44.820  55.658  1.00  0.00    -0.007 A 
ATOM     23  C   UNL     1       0.017  45.501  56.141  1.00  0.00     0.034 A 
ATOM     24  C   UNL     1      -2.293  45.206  56.262  1.00  0.00     0.020 A 
ATOM     25  S   UNL     1      -0.472  46.593  57.321  1.00  0.00    -0.144 S 
ATOM     26  C   UNL     1      -2.117  46.200  57.225  1.00  0.00     0.066 A 
ENDBRANCH  17  18
ENDBRANCH  14  17
ENDBRANCH  12  13
ENDBRANCH   4  12
TORSDOF 7
ENDMDL
MODEL 4
REMARK VINA RESULT:    -7.749      3.183      7.556
REMARK INTER + INTRA:         -11.900
REMARK INTER:                 -10.999
REMARK INTRA:                  -0.901
REMARK UNBOUND:                -0.979
REMARK SMILES CN(C)CCc1ccc(CNC(=O)Cc2ccc3sccc3c2)cc1
REMARK SMILES IDX 6 1 7 2 8 3 9 4 24 5 25 6 5 7 4 8 2 9 1 10 3 11 10 12 11 13
REMARK SMILES IDX 12 14 13 15 14 17 15 18 16 19 23 20 17 21 22 22 18 23 21 24
REMARK SMILES IDX 19 25 20 26
REMARK H PARENT 11 16
ROOT
ATOM      1  C   UNL     1       4.844  41.759  49.796  1.00  0.00    -0.047 A 
ATOM      2  C   UNL     1       3.517  41.364  50.035  1.00  0.00     0.004 A 
ATOM      3  C   UNL     1       2.779  41.956  51.065  1.00  0.00     0.006 A 
ATOM      4  C   UNL     1       3.354  42.960  51.861  1.00  0.00    -0.029 A 
ATOM      5  C   UNL     1       4.680  43.356  51.621  1.00  0.00     0.006 A 
ATOM      6  C   UNL     1       5.419  42.761  50.594  1.00  0.00     0.004 A 
ENDROOT
BRANCH   1   7
ATOM      7  C   UNL     1       5.618  41.168  48.644  1.00  0.00     0.051 C 
BRANCH   7   8
ATOM      8  C   UNL     1       5.511  42.048  47.388  1.00  0.00     0.088 C 
BRANCH   8   9
ATOM      9  N   UNL     1       5.119  41.248  46.204  1.00  0.00    -0.309 NA
ATOM     10  C   UNL     1       5.190  42.069  44.982  1.00  0.00     0.104 C 
ATOM     11  C   UNL     1       3.758  40.708  46.356  1.00  0.00     0.104 C 
ENDBRANCH   8   9
ENDBRANCH   7   8
ENDBRANCH   1   7
BRANCH   4  12
ATOM     12  C   UNL     1       2.542  43.626  52.942  1.00  0.00     0.151 C 
BRANCH  12  13
ATOM     13  N   UNL     1       3.377  44.532  53.729  1.00  0.00    -0.352 N 
ATOM     14  C   UNL     1       3.236  45.960  53.674  1.00  0.00     0.224 C 
ATOM     15  O   UNL     1       2.321  46.485  52.978  1.00  0.00    -0.275 OA
ATOM     16  H   UNL     1       4.124  44.115  54.331  1.00  0.00     0.163 HD
BRANCH  14  17
ATOM     17  C   UNL     1       4.176  46.842  54.441  1.00  0.00     0.135 C 
BRANCH  17  18
ATOM     18  C   UNL     1       5.535  46.848  53.794  1.00  0.00    -0.038 A 
ATOM     19  C   UNL     1       5.668  46.582  52.409  1.00  0.00     0.006 A 
ATOM     20  C   UNL     1       6.687  47.069  54.580  1.00  0.00     0.013 A 
ATOM     21  C   UNL     1       6.935  46.550  51.806  1.00  0.00     0.020 A 
ATOM     22  C   UNL     1       7.944  47.031  53.966  1.00  0.00    -0.007 A 
ATOM     23  C   UNL     1       8.051  46.778  52.607  1.00  0.00     0.034 A 
ATOM     24  C   UNL     1       9.179  47.223  54.599  1.00  0.00     0.020 A 
ATOM     25  S   UNL     1       9.672  46.789  52.164  1.00  0.00    -0.144 S 
ATOM     26  C   UNL     1      10.257  47.119  53.719  1.00  0.00     0.066 A 
ENDBRANCH  17  18
ENDBRANCH  14  17
ENDBRANCH  12  13
ENDBRANCH   4  12
TORSDOF 7
ENDMDL
MODEL 5
REMARK VINA RESULT:    -7.634      4.319      7.940
REMARK INTER + INTRA:         -11.737
REMARK INTER:                 -11.005
REMARK INTRA:                  -0.732
REMARK UNBOUND:                -0.979
REMARK SMILES CN(C)CCc1ccc(CNC(=O)Cc2ccc3sccc3c2)cc1
REMARK SMILES IDX 6 1 7 2 8 3 9 4 24 5 25 6 5 7 4 8 2 9 1 10 3 11 10 12 11 13
REMARK SMILES IDX 12 14 13 15 14 17 15 18 16 19 23 20 17 21 22 22 18 23 21 24
REMARK SMILES IDX 19 25 20 26
REMARK H PARENT 11 16
ROOT
ATOM      1  C   UNL     1      -0.578  44.766  55.910  1.00  0.00    -0.047 A 
ATOM      2  C   UNL     1       0.764  45.119  55.693  1.00  0.00     0.004 A 
ATOM      3  C   UNL     1       1.481  44.555  54.632  1.00  0.00     0.006 A 
ATOM      4  C   UNL     1       0.860  43.641  53.765  1.00  0.00    -0.029 A 
ATOM      5  C   UNL     1      -0.483  43.289  53.981  1.00  0.00     0.006 A 
ATOM      6  C   UNL     1      -1.197  43.850  55.044  1.00  0.00     0.004 A 
ENDROOT
BRANCH   1   7
ATOM      7  C   UNL     1      -1.369  45.423  57.013  1.00  0.00     0.051 C 
BRANCH   7   8
ATOM      8  C   UNL     1      -0.945  46.886  57.211  1.00  0.00     0.088 C 
BRANCH   8   9
ATOM      9  N   UNL     1      -0.634  47.168  58.633  1.00  0.00    -0.309 NA
ATOM     10  C   UNL     1      -1.228  48.451  59.046  1.00  0.00     0.104 C 
ATOM     11  C   UNL     1       0.820  47.203  58.860  1.00  0.00     0.104 C 
ENDBRANCH   8   9
ENDBRANCH   7   8
ENDBRANCH   1   7
BRANCH   4  12
ATOM     12  C   UNL     1       1.622  43.068  52.598  1.00  0.00     0.151 C 
BRANCH  12  13
ATOM     13  N   UNL     1       2.266  44.134  51.831  1.00  0.00    -0.352 N 
ATOM     14  C   UNL     1       3.677  44.151  51.562  1.00  0.00     0.224 C 
ATOM     15  O   UNL     1       4.409  43.190  51.933  1.00  0.00    -0.275 OA
ATOM     16  H   UNL     1       1.672  44.926  51.494  1.00  0.00     0.163 HD
BRANCH  14  17
ATOM     17  C   UNL     1       4.294  45.312  50.841  1.00  0.00     0.135 C 
BRANCH  17  18
ATOM     18  C   UNL     1       5.438  45.877  51.638  1.00  0.00    -0.038 A 
ATOM     19  C   UNL     1       5.188  46.631  52.812  1.00  0.00     0.006 A 
ATOM     20  C   UNL     1       6.765  45.700  51.189  1.00  0.00     0.013 A 
ATOM     21  C   UNL     1       6.248  47.191  53.541  1.00  0.00     0.020 A 
ATOM     22  C   UNL     1       7.812  46.267  51.923  1.00  0.00    -0.007 A 
ATOM     23  C   UNL     1       7.546  46.993  53.074  1.00  0.00     0.034 A 
ATOM     24  C   UNL     1       9.176  46.190  51.614  1.00  0.00     0.020 A 
ATOM     25  S   UNL     1       8.989  47.550  53.729  1.00  0.00    -0.144 S 
ATOM     26  C   UNL     1       9.977  46.863  52.537  1.00  0.00     0.066 A 
ENDBRANCH  17  18
ENDBRANCH  14  17
ENDBRANCH  12  13
ENDBRANCH   4  12
TORSDOF 7
ENDMDL
