MODEL 1
REMARK VINA RESULT:    -7.531      0.000      0.000
REMARK INTER + INTRA:         -10.574
REMARK INTER:                  -9.732
REMARK INTRA:                  -0.842
REMARK UNBOUND:                -0.842
REMARK SMILES CC1(CC(=O)NCc2ccc(-n3cncn3)cc2)OCCO1
REMARK SMILES IDX 4 1 5 2 6 3 3 5 2 6 19 7 22 8 20 9 21 10 1 11 7 12 8 13 9 14
REMARK SMILES IDX 18 15 10 16 17 17 11 18 12 19 13 20 16 21 14 22 15 23
REMARK H PARENT 6 4
ROOT
ATOM      1  C   UNL     1       0.990  44.796  51.699  1.00  0.00     0.225 C 
ATOM      2  O   UNL     1       0.993  43.963  50.753  1.00  0.00    -0.275 OA
ATOM      3  N   UNL     1       2.035  45.772  51.808  1.00  0.00    -0.352 N 
ATOM      4  H   UNL     1       2.037  46.425  52.624  1.00  0.00     0.163 HD
ENDROOT
BRANCH   1   5
ATOM      5  C   UNL     1      -0.102  44.736  52.731  1.00  0.00     0.165 C 
BRANCH   5   6
ATOM      6  C   UNL     1       0.327  43.990  54.012  1.00  0.00     0.174 C 
ATOM      7  O   UNL     1       1.662  44.346  54.306  1.00  0.00    -0.347 OA
ATOM      8  O   UNL     1      -0.537  44.342  55.075  1.00  0.00    -0.347 OA
ATOM      9  C   UNL     1       1.654  44.834  55.610  1.00  0.00     0.192 C 
ATOM     10  C   UNL     1       0.224  45.121  55.940  1.00  0.00     0.192 C 
ATOM     11  C   UNL     1       0.268  42.469  53.812  1.00  0.00     0.076 C 
ENDBRANCH   5   6
ENDBRANCH   1   5
BRANCH   3  12
ATOM     12  C   UNL     1       3.122  45.869  50.837  1.00  0.00     0.151 C 
BRANCH  12  13
ATOM     13  C   UNL     1       4.422  46.152  51.536  1.00  0.00    -0.029 A 
ATOM     14  C   UNL     1       5.637  45.708  50.994  1.00  0.00     0.008 A 
ATOM     15  C   UNL     1       4.433  46.896  52.725  1.00  0.00     0.008 A 
ATOM     16  C   UNL     1       6.845  45.992  51.638  1.00  0.00     0.029 A 
ATOM     17  C   UNL     1       5.640  47.182  53.369  1.00  0.00     0.029 A 
ATOM     18  C   UNL     1       6.861  46.731  52.836  1.00  0.00     0.066 A 
BRANCH  18  19
ATOM     19  N   UNL     1       8.099  47.039  53.510  1.00  0.00    -0.221 N 
ATOM     20  C   UNL     1       9.357  46.776  53.105  1.00  0.00     0.225 A 
ATOM     21  N   UNL     1       8.175  47.646  54.683  1.00  0.00    -0.155 NA
ATOM     22  N   UNL     1      10.263  47.208  54.002  1.00  0.00    -0.223 NA
ATOM     23  C   UNL     1       9.487  47.743  54.968  1.00  0.00     0.246 A 
ENDBRANCH  18  19
ENDBRANCH  12  13
ENDBRANCH   3  12
TORSDOF 5
ENDMDL
MODEL 2
REMARK VINA RESULT:    -7.356      1.850      2.469
REMARK INTER + INTRA:         -10.348
REMARK INTER:                  -9.352
REMARK INTRA:                  -0.996
REMARK UNBOUND:                -0.842
REMARK SMILES CC1(CC(=O)NCc2ccc(-n3cncn3)cc2)OCCO1
REMARK SMILES IDX 4 1 5 2 6 3 3 5 2 6 19 7 22 8 20 9 21 10 1 11 7 12 8 13 9 14
REMARK SMILES IDX 18 15 10 16 17 17 11 18 12 19 13 20 16 21 14 22 15 23
REMARK H PARENT 6 4
ROOT
ATOM      1  C   UNL     1       1.113  42.779  51.662  1.00  0.00     0.225 C 
ATOM      2  O   UNL     1       0.931  43.045  50.443  1.00  0.00    -0.275 OA
ATOM      3  N   UNL     1       2.387  42.304  52.117  1.00  0.00    -0.352 N 
ATOM      4  H   UNL     1       2.504  42.047  53.124  1.00  0.00     0.163 HD
ENDROOT
BRANCH   1   5
ATOM      5  C   UNL     1      -0.028  42.931  52.628  1.00  0.00     0.165 C 
BRANCH   5   6
ATOM      6  C   UNL     1      -0.144  44.362  53.196  1.00  0.00     0.174 C 
ATOM      7  O   UNL     1      -0.700  44.281  54.491  1.00  0.00    -0.347 OA
ATOM      8  O   UNL     1       1.137  44.961  53.231  1.00  0.00    -0.347 OA
ATOM      9  C   UNL     1       0.196  44.928  55.338  1.00  0.00     0.192 C 
ATOM     10  C   UNL     1       1.477  45.052  54.576  1.00  0.00     0.192 C 
ATOM     11  C   UNL     1      -1.069  45.227  52.329  1.00  0.00     0.076 C 
ENDBRANCH   5   6
ENDBRANCH   1   5
BRANCH   3  12
ATOM     12  C   UNL     1       3.527  42.132  51.219  1.00  0.00     0.151 C 
BRANCH  12  13
ATOM     13  C   UNL     1       4.536  43.224  51.443  1.00  0.00    -0.029 A 
ATOM     14  C   UNL     1       5.499  43.519  50.467  1.00  0.00     0.008 A 
ATOM     15  C   UNL     1       4.500  43.982  52.623  1.00  0.00     0.008 A 
ATOM     16  C   UNL     1       6.421  44.549  50.672  1.00  0.00     0.029 A 
ATOM     17  C   UNL     1       5.421  45.013  52.828  1.00  0.00     0.029 A 
ATOM     18  C   UNL     1       6.395  45.308  51.858  1.00  0.00     0.066 A 
BRANCH  18  19
ATOM     19  N   UNL     1       7.335  46.379  52.083  1.00  0.00    -0.221 N 
ATOM     20  C   UNL     1       7.133  47.542  52.734  1.00  0.00     0.225 A 
ATOM     21  N   UNL     1       8.585  46.374  51.652  1.00  0.00    -0.155 NA
ATOM     22  N   UNL     1       8.244  48.303  52.738  1.00  0.00    -0.223 NA
ATOM     23  C   UNL     1       9.123  47.540  52.055  1.00  0.00     0.246 A 
ENDBRANCH  18  19
ENDBRANCH  12  13
ENDBRANCH   3  12
TORSDOF 5
ENDMDL
MODEL 3
REMARK VINA RESULT:    -7.272      1.434      2.128
REMARK INTER + INTRA:         -10.240
REMARK INTER:                  -9.521
REMARK INTRA:                  -0.719
REMARK UNBOUND:                -0.842
REMARK SMILES CC1(CC(=O)NCc2ccc(-n3cncn3)cc2)OCCO1
REMARK SMILES IDX 4 1 5 2 6 3 3 5 2 6 19 7 22 8 20 9 21 10 1 11 7 12 8 13 9 14
REMARK SMILES IDX 18 15 10 16 17 17 11 18 12 19 13 20 16 21 14 22 15 23
REMARK H PARENT 6 4
ROOT
ATOM      1  C   UNL     1       2.247  45.075  51.388  1.00  0.00     0.225 C 
ATOM      2  O   UNL     1       2.753  46.073  50.807  1.00  0.00    -0.275 OA
ATOM      3  N   UNL     1       2.942  43.822  51.415  1.00  0.00    -0.352 N 
ATOM      4  H   UNL     1       2.485  42.996  51.865  1.00  0.00     0.163 HD
ENDROOT
BRANCH   1   5
ATOM      5  C   UNL     1       0.891  45.203  52.024  1.00  0.00     0.165 C 
BRANCH   5   6
ATOM      6  C   UNL     1       0.861  44.685  53.478  1.00  0.00     0.174 C 
ATOM      7  O   UNL     1      -0.423  44.933  54.009  1.00  0.00    -0.347 OA
ATOM      8  O   UNL     1       1.156  43.302  53.492  1.00  0.00    -0.347 OA
ATOM      9  C   UNL     1      -0.901  43.704  54.458  1.00  0.00     0.192 C 
ATOM     10  C   UNL     1      -0.032  42.663  53.827  1.00  0.00     0.192 C 
ATOM     11  C   UNL     1       1.892  45.418  54.347  1.00  0.00     0.076 C 
ENDBRANCH   5   6
ENDBRANCH   1   5
BRANCH   3  12
ATOM     12  C   UNL     1       4.259  43.642  50.808  1.00  0.00     0.151 C 
BRANCH  12  13
ATOM     13  C   UNL     1       5.293  44.433  51.561  1.00  0.00    -0.029 A 
ATOM     14  C   UNL     1       5.275  44.482  52.962  1.00  0.00     0.008 A 
ATOM     15  C   UNL     1       6.307  45.105  50.863  1.00  0.00     0.008 A 
ATOM     16  C   UNL     1       6.251  45.202  53.656  1.00  0.00     0.029 A 
ATOM     17  C   UNL     1       7.284  45.825  51.556  1.00  0.00     0.029 A 
ATOM     18  C   UNL     1       7.267  45.886  52.961  1.00  0.00     0.066 A 
BRANCH  18  19
ATOM     19  N   UNL     1       8.287  46.628  53.662  1.00  0.00    -0.221 N 
ATOM     20  C   UNL     1       9.619  46.615  53.455  1.00  0.00     0.225 A 
ATOM     21  N   UNL     1       8.046  47.459  54.662  1.00  0.00    -0.155 NA
ATOM     22  N   UNL     1      10.258  47.436  54.311  1.00  0.00    -0.223 NA
ATOM     23  C   UNL     1       9.243  47.941  55.044  1.00  0.00     0.246 A 
ENDBRANCH  18  19
ENDBRANCH  12  13
ENDBRANCH   3  12
TORSDOF 5
ENDMDL
MODEL 4
REMARK VINA RESULT:    -7.224      1.251      2.002
REMARK INTER + INTRA:         -10.178
REMARK INTER:                  -9.410
REMARK INTRA:                  -0.768
REMARK UNBOUND:                -0.842
REMARK SMILES CC1(CC(=O)NCc2ccc(-n3cncn3)cc2)OCCO1
REMARK SMILES IDX 4 1 5 2 6 3 3 5 2 6 19 7 22 8 20 9 21 10 1 11 7 12 8 13 9 14
REMARK SMILES IDX 18 15 10 16 17 17 11 18 12 19 13 20 16 21 14 22 15 23
REMARK H PARENT 6 4
ROOT
ATOM      1  C   UNL     1       1.951  44.079  52.865  1.00  0.00     0.225 C 
ATOM      2  O   UNL     1       2.828  43.250  52.503  1.00  0.00    -0.275 OA
ATOM      3  N   UNL     1       1.881  45.374  52.253  1.00  0.00    -0.352 N 
ATOM      4  H   UNL     1       1.174  46.062  52.597  1.00  0.00     0.163 HD
ENDROOT
BRANCH   1   5
ATOM      5  C   UNL     1       0.998  43.711  53.968  1.00  0.00     0.165 C 
BRANCH   5   6
ATOM      6  C   UNL     1      -0.406  43.338  53.446  1.00  0.00     0.174 C 
ATOM      7  O   UNL     1      -1.272  43.217  54.554  1.00  0.00    -0.347 OA
ATOM      8  O   UNL     1      -0.859  44.339  52.555  1.00  0.00    -0.347 OA
ATOM      9  C   UNL     1      -2.338  44.080  54.309  1.00  0.00     0.192 C 
ATOM     10  C   UNL     1      -1.888  44.999  53.217  1.00  0.00     0.192 C 
ATOM     11  C   UNL     1      -0.382  41.994  52.705  1.00  0.00     0.076 C 
ENDBRANCH   5   6
ENDBRANCH   1   5
BRANCH   3  12
ATOM     12  C   UNL     1       2.786  45.785  51.181  1.00  0.00     0.151 C 
BRANCH  12  13
ATOM     13  C   UNL     1       4.143  46.111  51.741  1.00  0.00    -0.029 A 
ATOM     14  C   UNL     1       4.269  46.876  52.910  1.00  0.00     0.008 A 
ATOM     15  C   UNL     1       5.297  45.623  51.112  1.00  0.00     0.008 A 
ATOM     16  C   UNL     1       5.532  47.158  53.437  1.00  0.00     0.029 A 
ATOM     17  C   UNL     1       6.561  45.903  51.639  1.00  0.00     0.029 A 
ATOM     18  C   UNL     1       6.696  46.677  52.805  1.00  0.00     0.066 A 
BRANCH  18  19
ATOM     19  N   UNL     1       8.007  46.953  53.339  1.00  0.00    -0.221 N 
ATOM     20  C   UNL     1       9.206  46.719  52.769  1.00  0.00     0.225 A 
ATOM     21  N   UNL     1       8.227  47.493  54.526  1.00  0.00    -0.155 NA
ATOM     22  N   UNL     1      10.216  47.103  53.572  1.00  0.00    -0.223 NA
ATOM     23  C   UNL     1       9.565  47.579  54.654  1.00  0.00     0.246 A 
ENDBRANCH  18  19
ENDBRANCH  12  13
ENDBRANCH   3  12
TORSDOF 5
ENDMDL
MODEL 5
REMARK VINA RESULT:    -7.220      3.358      7.986
REMARK INTER + INTRA:         -10.172
REMARK INTER:                  -9.745
REMARK INTRA:                  -0.427
REMARK UNBOUND:                -0.842
REMARK SMILES CC1(CC(=O)NCc2ccc(-n3cncn3)cc2)OCCO1
REMARK SMILES IDX 4 1 5 2 6 3 3 5 2 6 19 7 22 8 20 9 21 10 1 11 7 12 8 13 9 14
REMARK SMILES IDX 18 15 10 16 17 17 11 18 12 19 13 20 16 21 14 22 15 23
REMARK H PARENT 6 4
ROOT
ATOM      1  C   UNL     1       6.704  46.667  53.064  1.00  0.00     0.225 C 
ATOM      2  O   UNL     1       5.843  47.587  53.056  1.00  0.00    -0.275 OA
ATOM      3  N   UNL     1       6.738  45.696  52.010  1.00  0.00    -0.352 N 
ATOM      4  H   UNL     1       7.432  44.916  52.059  1.00  0.00     0.163 HD
ENDROOT
BRANCH   1   5
ATOM      5  C   UNL     1       7.675  46.576  54.209  1.00  0.00     0.165 C 
BRANCH   5   6
ATOM      6  C   UNL     1       9.114  46.963  53.804  1.00  0.00     0.174 C 
ATOM      7  O   UNL     1       9.786  45.793  53.388  1.00  0.00    -0.347 OA
ATOM      8  O   UNL     1       9.071  47.920  52.763  1.00  0.00    -0.347 OA
ATOM      9  C   UNL     1      10.260  46.054  52.105  1.00  0.00     0.192 C 
ATOM     10  C   UNL     1       9.520  47.262  51.624  1.00  0.00     0.192 C 
ATOM     11  C   UNL     1       9.880  47.561  54.992  1.00  0.00     0.076 C 
ENDBRANCH   5   6
ENDBRANCH   1   5
BRANCH   3  12
ATOM     12  C   UNL     1       5.814  45.734  50.879  1.00  0.00     0.151 C 
BRANCH  12  13
ATOM     13  C   UNL     1       4.501  45.106  51.256  1.00  0.00    -0.029 A 
ATOM     14  C   UNL     1       4.457  43.818  51.808  1.00  0.00     0.008 A 
ATOM     15  C   UNL     1       3.307  45.823  51.088  1.00  0.00     0.008 A 
ATOM     16  C   UNL     1       3.234  43.249  52.177  1.00  0.00     0.029 A 
ATOM     17  C   UNL     1       2.085  45.255  51.457  1.00  0.00     0.029 A 
ATOM     18  C   UNL     1       2.031  43.959  52.003  1.00  0.00     0.066 A 
BRANCH  18  19
ATOM     19  N   UNL     1       0.762  43.390  52.384  1.00  0.00    -0.221 N 
ATOM     20  C   UNL     1       0.241  43.266  53.621  1.00  0.00     0.225 A 
ATOM     21  N   UNL     1      -0.108  42.875  51.531  1.00  0.00    -0.155 NA
ATOM     22  N   UNL     1      -0.968  42.675  53.589  1.00  0.00    -0.223 NA
ATOM     23  C   UNL     1      -1.148  42.449  52.271  1.00  0.00     0.246 A 
ENDBRANCH  18  19
ENDBRANCH  12  13
ENDBRANCH   3  12
TORSDOF 5
ENDMDL
