ligand_22_conformer_2_docked
     RDKit          3D

 37 40  0  0  0  0  0  0  0  0999 V2000
    6.5150   45.6430   55.3610 O   0  0  0  0  0  0  0  0  0  0  0  0
    5.3330   45.7500   54.9380 C   0  0  0  0  0  0  0  0  0  0  0  0
    4.3260   44.7820   55.1980 N   0  0  0  0  0  0  0  0  0  0  0  0
    3.1250   45.1850   54.4700 C   0  0  2  0  0  0  0  0  0  0  0  0
    1.8890   45.2870   55.3950 C   0  0  0  0  0  0  0  0  0  0  0  0
    0.8200   44.3340   54.8210 C   0  0  0  0  0  0  0  0  0  0  0  0
    1.4760   43.7060   53.6470 C   0  0  0  0  0  0  0  0  0  0  0  0
    0.9170   42.7520   52.7920 C   0  0  0  0  0  0  0  0  0  0  0  0
    1.6840   42.2740   51.7190 C   0  0  0  0  0  0  0  0  0  0  0  0
    2.9920   42.7510   51.5160 C   0  0  0  0  0  0  0  0  0  0  0  0
    3.5340   43.7090   52.3860 C   0  0  0  0  0  0  0  0  0  0  0  0
    2.7510   44.1730   53.4490 C   0  0  0  0  0  0  0  0  0  0  0  0
    3.5290   46.4910   53.8440 C   0  0  0  0  0  0  0  0  0  0  0  0
    2.7740   47.2020   53.1300 O   0  0  0  0  0  0  0  0  0  0  0  0
    4.8860   46.8250   54.1220 N   0  0  0  0  0  0  0  0  0  0  0  0
    5.7460   47.6290   53.2540 C   0  0  0  0  0  0  0  0  0  0  0  0
    6.4700   46.7380   52.2790 C   0  0  0  0  0  0  0  0  0  0  0  0
    5.7250   46.0040   51.4060 N   0  0  0  0  0  0  0  0  0  0  0  0
    6.2880   45.2260   50.4460 C   0  0  0  0  0  0  0  0  0  0  0  0
    7.6770   45.1660   50.3220 C   0  0  0  0  0  0  0  0  0  0  0  0
    8.4140   44.1740   49.0780 Cl  0  0  0  0  0  0  0  0  0  0  0  0
    8.4710   45.9070   51.1970 C   0  0  0  0  0  0  0  0  0  0  0  0
    7.8780   46.7020   52.1840 C   0  0  0  0  0  0  0  0  0  0  0  0
    8.9270   47.6100   53.2660 Cl  0  0  0  0  0  0  0  0  0  0  0  0
    4.4570   43.8920   55.7300 H   0  0  0  0  0  0  0  0  0  0  0  0
    2.1561   44.9837   56.4181 H   0  0  0  0  0  0  0  0  0  0  0  0
    1.5134   46.3200   55.4379 H   0  0  0  0  0  0  0  0  0  0  0  0
    0.5389   43.5724   55.5632 H   0  0  0  0  0  0  0  0  0  0  0  0
   -0.1080   44.8594   54.5510 H   0  0  0  0  0  0  0  0  0  0  0  0
   -0.1058   42.3827   52.9575 H   0  0  0  0  0  0  0  0  0  0  0  0
    1.2615   41.5239   51.0342 H   0  0  0  0  0  0  0  0  0  0  0  0
    3.5904   42.3724   50.6742 H   0  0  0  0  0  0  0  0  0  0  0  0
    4.5555   44.0883   52.2353 H   0  0  0  0  0  0  0  0  0  0  0  0
    5.1299   48.3517   52.6990 H   0  0  0  0  0  0  0  0  0  0  0  0
    6.4832   48.1638   53.8709 H   0  0  0  0  0  0  0  0  0  0  0  0
    5.6494   44.6430   49.7660 H   0  0  0  0  0  0  0  0  0  0  0  0
    9.5669   45.8663   51.1109 H   0  0  0  0  0  0  0  0  0  0  0  0
  1  2  2  0
  2  3  1  0
  4  3  1  1
  4  5  1  0
  5  6  1  0
  6  7  1  0
  7  8  2  0
  8  9  1  0
  9 10  2  0
 10 11  1  0
 11 12  2  0
  4 13  1  0
 13 14  2  0
 13 15  1  0
 15 16  1  0
 16 17  1  0
 17 18  2  0
 18 19  1  0
 19 20  2  0
 20 21  1  0
 20 22  1  0
 22 23  2  0
 23 24  1  0
 15  2  1  0
 23 17  1  0
 12  4  1  0
 12  7  1  0
  3 25  1  0
  5 26  1  0
  5 27  1  0
  6 28  1  0
  6 29  1  0
  8 30  1  0
  9 31  1  0
 10 32  1  0
 11 33  1  0
 16 34  1  0
 16 35  1  0
 19 36  1  0
 22 37  1  0
M  END
>  <meeko>  (1) 
{"is_sidechain": [false], "free_energy": -9.406, "intermolecular_energy": -10.506, "internal_energy": -0.438}

$$$$
ligand_22_conformer_2_docked
     RDKit          3D

 37 40  0  0  0  0  0  0  0  0999 V2000
    1.6340   45.3860   50.9980 O   0  0  0  0  0  0  0  0  0  0  0  0
    2.8050   45.2950   51.4550 C   0  0  0  0  0  0  0  0  0  0  0  0
    3.9240   45.9290   50.8500 N   0  0  0  0  0  0  0  0  0  0  0  0
    5.1170   45.5200   51.5880 C   0  0  2  0  0  0  0  0  0  0  0  0
    5.9390   46.7330   52.0870 C   0  0  0  0  0  0  0  0  0  0  0  0
    7.3570   46.5860   51.4970 C   0  0  0  0  0  0  0  0  0  0  0  0
    7.2890   45.3540   50.6720 C   0  0  0  0  0  0  0  0  0  0  0  0
    8.3260   44.7980   49.9180 C   0  0  0  0  0  0  0  0  0  0  0  0
    8.0840   43.6150   49.2030 C   0  0  0  0  0  0  0  0  0  0  0  0
    6.8160   43.0080   49.2500 C   0  0  0  0  0  0  0  0  0  0  0  0
    5.7880   43.5820   50.0120 C   0  0  0  0  0  0  0  0  0  0  0  0
    6.0520   44.7610   50.7180 C   0  0  0  0  0  0  0  0  0  0  0  0
    4.5580   44.6660   52.6920 C   0  0  0  0  0  0  0  0  0  0  0  0
    5.2520   44.1130   53.5860 O   0  0  0  0  0  0  0  0  0  0  0  0
    3.1440   44.5200   52.5970 N   0  0  0  0  0  0  0  0  0  0  0  0
    2.3860   43.3650   53.0780 C   0  0  0  0  0  0  0  0  0  0  0  0
    1.3370   43.8120   54.0610 C   0  0  0  0  0  0  0  0  0  0  0  0
    1.7110   44.6670   55.0550 N   0  0  0  0  0  0  0  0  0  0  0  0
    0.8230   45.1780   55.9460 C   0  0  0  0  0  0  0  0  0  0  0  0
   -0.5280   44.8400   55.8580 C   0  0  0  0  0  0  0  0  0  0  0  0
   -1.6850   45.5050   56.9960 Cl  0  0  0  0  0  0  0  0  0  0  0  0
   -0.9480   43.9700   54.8510 C   0  0  0  0  0  0  0  0  0  0  0  0
   -0.0220   43.4470   53.9420 C   0  0  0  0  0  0  0  0  0  0  0  0
   -0.6040   42.3480   52.6970 Cl  0  0  0  0  0  0  0  0  0  0  0  0
    3.9030   46.5000   49.9760 H   0  0  0  0  0  0  0  0  0  0  0  0
    5.4798   47.6701   51.7392 H   0  0  0  0  0  0  0  0  0  0  0  0
    5.9707   46.7621   53.1862 H   0  0  0  0  0  0  0  0  0  0  0  0
    7.6119   47.4569   50.8753 H   0  0  0  0  0  0  0  0  0  0  0  0
    8.1308   46.5258   52.2765 H   0  0  0  0  0  0  0  0  0  0  0  0
    9.3146   45.2792   49.8855 H   0  0  0  0  0  0  0  0  0  0  0  0
    8.8877   43.1614   48.6044 H   0  0  0  0  0  0  0  0  0  0  0  0
    6.6302   42.0810   48.6878 H   0  0  0  0  0  0  0  0  0  0  0  0
    4.7932   43.1144   50.0539 H   0  0  0  0  0  0  0  0  0  0  0  0
    1.8989   42.8682   52.2260 H   0  0  0  0  0  0  0  0  0  0  0  0
    3.0723   42.6639   53.5755 H   0  0  0  0  0  0  0  0  0  0  0  0
    1.1688   45.8589   56.7377 H   0  0  0  0  0  0  0  0  0  0  0  0
   -2.0100   43.6947   54.7717 H   0  0  0  0  0  0  0  0  0  0  0  0
  1  2  2  0
  2  3  1  0
  4  3  1  6
  4  5  1  0
  5  6  1  0
  6  7  1  0
  7  8  2  0
  8  9  1  0
  9 10  2  0
 10 11  1  0
 11 12  2  0
  4 13  1  0
 13 14  2  0
 13 15  1  0
 15 16  1  0
 16 17  1  0
 17 18  2  0
 18 19  1  0
 19 20  2  0
 20 21  1  0
 20 22  1  0
 22 23  2  0
 23 24  1  0
 15  2  1  0
 23 17  1  0
 12  4  1  0
 12  7  1  0
  3 25  1  0
  5 26  1  0
  5 27  1  0
  6 28  1  0
  6 29  1  0
  8 30  1  0
  9 31  1  0
 10 32  1  0
 11 33  1  0
 16 34  1  0
 16 35  1  0
 19 36  1  0
 22 37  1  0
M  END
>  <meeko>  (2) 
{"is_sidechain": [false], "free_energy": -9.359, "intermolecular_energy": -10.425, "internal_energy": -0.466}

$$$$
ligand_22_conformer_2_docked
     RDKit          3D

 37 40  0  0  0  0  0  0  0  0999 V2000
    2.6610   47.1870   52.9050 O   0  0  0  0  0  0  0  0  0  0  0  0
    3.8320   46.7200   52.8990 C   0  0  0  0  0  0  0  0  0  0  0  0
    4.7030   46.8260   51.7810 N   0  0  0  0  0  0  0  0  0  0  0  0
    5.9220   46.0860   52.0990 C   0  0  2  0  0  0  0  0  0  0  0  0
    7.1910   46.9560   51.9300 C   0  0  0  0  0  0  0  0  0  0  0  0
    8.0970   46.2320   50.9120 C   0  0  0  0  0  0  0  0  0  0  0  0
    7.3210   45.0310   50.5140 C   0  0  0  0  0  0  0  0  0  0  0  0
    7.7130   44.0540   49.5950 C   0  0  0  0  0  0  0  0  0  0  0  0
    6.8500   42.9740   49.3470 C   0  0  0  0  0  0  0  0  0  0  0  0
    5.6160   42.8880   50.0160 C   0  0  0  0  0  0  0  0  0  0  0  0
    5.2410   43.8800   50.9340 C   0  0  0  0  0  0  0  0  0  0  0  0
    6.1170   44.9470   51.1660 C   0  0  0  0  0  0  0  0  0  0  0  0
    5.6820   45.6240   53.5090 C   0  0  0  0  0  0  0  0  0  0  0  0
    6.5040   44.9540   54.1880 O   0  0  0  0  0  0  0  0  0  0  0  0
    4.3950   46.0020   53.9890 N   0  0  0  0  0  0  0  0  0  0  0  0
    3.6260   45.2680   54.9940 C   0  0  0  0  0  0  0  0  0  0  0  0
    2.4770   44.5500   54.3370 C   0  0  0  0  0  0  0  0  0  0  0  0
    2.7470   43.7500   53.2670 N   0  0  0  0  0  0  0  0  0  0  0  0
    1.7870   43.0100   52.6540 C   0  0  0  0  0  0  0  0  0  0  0  0
    0.4730   43.0430   53.1210 C   0  0  0  0  0  0  0  0  0  0  0  0
   -0.7700   42.0820   52.3440 Cl  0  0  0  0  0  0  0  0  0  0  0  0
    0.1610   43.8490   54.2170 C   0  0  0  0  0  0  0  0  0  0  0  0
    1.1580   44.6100   54.8370 C   0  0  0  0  0  0  0  0  0  0  0  0
    0.7070   45.6140   56.2110 Cl  0  0  0  0  0  0  0  0  0  0  0  0
    4.4670   47.2660   50.8640 H   0  0  0  0  0  0  0  0  0  0  0  0
    6.9190   47.9528   51.5527 H   0  0  0  0  0  0  0  0  0  0  0  0
    7.7077   47.0906   52.8917 H   0  0  0  0  0  0  0  0  0  0  0  0
    8.2940   46.8742   50.0409 H   0  0  0  0  0  0  0  0  0  0  0  0
    9.0795   45.9747   51.3346 H   0  0  0  0  0  0  0  0  0  0  0  0
    8.6796   44.1294   49.0754 H   0  0  0  0  0  0  0  0  0  0  0  0
    7.1400   42.1937   48.6279 H   0  0  0  0  0  0  0  0  0  0  0  0
    4.9431   42.0405   49.8188 H   0  0  0  0  0  0  0  0  0  0  0  0
    4.2774   43.8207   51.4613 H   0  0  0  0  0  0  0  0  0  0  0  0
    4.2793   44.5344   55.4889 H   0  0  0  0  0  0  0  0  0  0  0  0
    3.2324   45.9768   55.7374 H   0  0  0  0  0  0  0  0  0  0  0  0
    2.0462   42.3836   51.7877 H   0  0  0  0  0  0  0  0  0  0  0  0
   -0.8716   43.8860   54.5943 H   0  0  0  0  0  0  0  0  0  0  0  0
  1  2  2  0
  2  3  1  0
  4  3  1  6
  4  5  1  0
  5  6  1  0
  6  7  1  0
  7  8  2  0
  8  9  1  0
  9 10  2  0
 10 11  1  0
 11 12  2  0
  4 13  1  0
 13 14  2  0
 13 15  1  0
 15 16  1  0
 16 17  1  0
 17 18  2  0
 18 19  1  0
 19 20  2  0
 20 21  1  0
 20 22  1  0
 22 23  2  0
 23 24  1  0
 15  2  1  0
 23 17  1  0
 12  4  1  0
 12  7  1  0
  3 25  1  0
  5 26  1  0
  5 27  1  0
  6 28  1  0
  6 29  1  0
  8 30  1  0
  9 31  1  0
 10 32  1  0
 11 33  1  0
 16 34  1  0
 16 35  1  0
 19 36  1  0
 22 37  1  0
M  END
>  <meeko>  (3) 
{"is_sidechain": [false], "free_energy": -9.227, "intermolecular_energy": -10.666, "internal_energy": -0.078}

$$$$
ligand_22_conformer_2_docked
     RDKit          3D

 37 40  0  0  0  0  0  0  0  0999 V2000
    6.0290   45.5700   55.3650 O   0  0  0  0  0  0  0  0  0  0  0  0
    5.2060   45.4390   54.4200 C   0  0  0  0  0  0  0  0  0  0  0  0
    4.4650   44.2480   54.1960 N   0  0  0  0  0  0  0  0  0  0  0  0
    3.7000   44.4270   52.9630 C   0  0  2  0  0  0  0  0  0  0  0  0
    2.1890   44.1640   53.1720 C   0  0  0  0  0  0  0  0  0  0  0  0
    1.7900   43.0440   52.1880 C   0  0  0  0  0  0  0  0  0  0  0  0
    3.0560   42.6860   51.5010 C   0  0  0  0  0  0  0  0  0  0  0  0
    3.2220   41.7060   50.5180 C   0  0  0  0  0  0  0  0  0  0  0  0
    4.4990   41.5110   49.9670 C   0  0  0  0  0  0  0  0  0  0  0  0
    5.5850   42.2900   50.4050 C   0  0  0  0  0  0  0  0  0  0  0  0
    5.3970   43.2680   51.3930 C   0  0  0  0  0  0  0  0  0  0  0  0
    4.1160   43.4470   51.9270 C   0  0  0  0  0  0  0  0  0  0  0  0
    4.0250   45.8390   52.5640 C   0  0  0  0  0  0  0  0  0  0  0  0
    3.5550   46.4180   51.5490 O   0  0  0  0  0  0  0  0  0  0  0  0
    4.9580   46.4500   53.4510 N   0  0  0  0  0  0  0  0  0  0  0  0
    5.9040   47.5010   53.0790 C   0  0  0  0  0  0  0  0  0  0  0  0
    7.2000   46.8860   52.6180 C   0  0  0  0  0  0  0  0  0  0  0  0
    7.2010   46.1970   51.4420 N   0  0  0  0  0  0  0  0  0  0  0  0
    8.3340   45.6670   50.9120 C   0  0  0  0  0  0  0  0  0  0  0  0
    9.5540   45.8290   51.5690 C   0  0  0  0  0  0  0  0  0  0  0  0
   11.0240   45.1590   50.8860 Cl  0  0  0  0  0  0  0  0  0  0  0  0
    9.5910   46.5320   52.7740 C   0  0  0  0  0  0  0  0  0  0  0  0
    8.4160   47.0690   53.3110 C   0  0  0  0  0  0  0  0  0  0  0  0
    8.5190   47.9410   54.8360 Cl  0  0  0  0  0  0  0  0  0  0  0  0
    4.5370   43.3700   54.7570 H   0  0  0  0  0  0  0  0  0  0  0  0
    2.0002   43.8434   54.2072 H   0  0  0  0  0  0  0  0  0  0  0  0
    1.6013   45.0760   52.9907 H   0  0  0  0  0  0  0  0  0  0  0  0
    1.3827   42.1774   52.7294 H   0  0  0  0  0  0  0  0  0  0  0  0
    1.0077   43.3641   51.4841 H   0  0  0  0  0  0  0  0  0  0  0  0
    2.3683   41.0989   50.1823 H   0  0  0  0  0  0  0  0  0  0  0  0
    4.6503   40.7467   49.1905 H   0  0  0  0  0  0  0  0  0  0  0  0
    6.5838   42.1321   49.9720 H   0  0  0  0  0  0  0  0  0  0  0  0
    6.2404   43.8824   51.7413 H   0  0  0  0  0  0  0  0  0  0  0  0
    5.4768   48.1044   52.2645 H   0  0  0  0  0  0  0  0  0  0  0  0
    6.0975   48.1396   53.9535 H   0  0  0  0  0  0  0  0  0  0  0  0
    8.2895   45.1099   49.9645 H   0  0  0  0  0  0  0  0  0  0  0  0
   10.5464   46.6642   53.3029 H   0  0  0  0  0  0  0  0  0  0  0  0
  1  2  2  0
  2  3  1  0
  4  3  1  1
  4  5  1  0
  5  6  1  0
  6  7  1  0
  7  8  2  0
  8  9  1  0
  9 10  2  0
 10 11  1  0
 11 12  2  0
  4 13  1  0
 13 14  2  0
 13 15  1  0
 15 16  1  0
 16 17  1  0
 17 18  2  0
 18 19  1  0
 19 20  2  0
 20 21  1  0
 20 22  1  0
 22 23  2  0
 23 24  1  0
 15  2  1  0
 23 17  1  0
 12  4  1  0
 12  7  1  0
  3 25  1  0
  5 26  1  0
  5 27  1  0
  6 28  1  0
  6 29  1  0
  8 30  1  0
  9 31  1  0
 10 32  1  0
 11 33  1  0
 16 34  1  0
 16 35  1  0
 19 36  1  0
 22 37  1  0
M  END
>  <meeko>  (4) 
{"is_sidechain": [false], "free_energy": -8.813, "intermolecular_energy": -9.726, "internal_energy": -0.556}

$$$$
ligand_22_conformer_2_docked
     RDKit          3D

 37 40  0  0  0  0  0  0  0  0999 V2000
    2.3150   47.1730   52.6770 O   0  0  0  0  0  0  0  0  0  0  0  0
    3.4400   46.7390   53.0410 C   0  0  0  0  0  0  0  0  0  0  0  0
    4.6660   47.3580   52.6750 N   0  0  0  0  0  0  0  0  0  0  0  0
    5.7520   46.5260   53.1880 C   0  0  2  0  0  0  0  0  0  0  0  0
    6.7390   47.3320   54.0660 C   0  0  0  0  0  0  0  0  0  0  0  0
    8.1350   47.1790   53.4270 C   0  0  0  0  0  0  0  0  0  0  0  0
    7.9000   46.3500   52.2190 C   0  0  0  0  0  0  0  0  0  0  0  0
    8.8610   45.9400   51.2900 C   0  0  0  0  0  0  0  0  0  0  0  0
    8.4580   45.1460   50.2060 C   0  0  0  0  0  0  0  0  0  0  0  0
    7.1080   44.7750   50.0640 C   0  0  0  0  0  0  0  0  0  0  0  0
    6.1590   45.1970   51.0070 C   0  0  0  0  0  0  0  0  0  0  0  0
    6.5840   45.9870   52.0810 C   0  0  0  0  0  0  0  0  0  0  0  0
    5.0270   45.4370   53.9270 C   0  0  0  0  0  0  0  0  0  0  0  0
    5.5930   44.4970   54.5470 O   0  0  0  0  0  0  0  0  0  0  0  0
    3.6110   45.5630   53.8220 N   0  0  0  0  0  0  0  0  0  0  0  0
    2.6630   44.4510   53.8770 C   0  0  0  0  0  0  0  0  0  0  0  0
    2.8210   43.5810   52.6590 C   0  0  0  0  0  0  0  0  0  0  0  0
    3.9060   42.7590   52.5920 N   0  0  0  0  0  0  0  0  0  0  0  0
    4.0970   41.8900   51.5670 C   0  0  0  0  0  0  0  0  0  0  0  0
    3.1590   41.8070   50.5370 C   0  0  0  0  0  0  0  0  0  0  0  0
    3.3910   40.6790   49.2150 Cl  0  0  0  0  0  0  0  0  0  0  0  0
    2.0340   42.6310   50.5740 C   0  0  0  0  0  0  0  0  0  0  0  0
    1.8510   43.5250   51.6340 C   0  0  0  0  0  0  0  0  0  0  0  0
    0.4180   44.5460   51.6260 Cl  0  0  0  0  0  0  0  0  0  0  0  0
    4.7660   48.1990   52.0630 H   0  0  0  0  0  0  0  0  0  0  0  0
    6.4470   48.3923   54.0876 H   0  0  0  0  0  0  0  0  0  0  0  0
    6.7374   46.9617   55.1018 H   0  0  0  0  0  0  0  0  0  0  0  0
    8.5463   48.1611   53.1509 H   0  0  0  0  0  0  0  0  0  0  0  0
    8.8623   46.7217   54.1139 H   0  0  0  0  0  0  0  0  0  0  0  0
    9.9143   46.2348   51.4070 H   0  0  0  0  0  0  0  0  0  0  0  0
    9.1993   44.8125   49.4649 H   0  0  0  0  0  0  0  0  0  0  0  0
    6.7963   44.1530   49.2120 H   0  0  0  0  0  0  0  0  0  0  0  0
    5.1014   44.9125   50.9042 H   0  0  0  0  0  0  0  0  0  0  0  0
    2.8550   43.8526   54.7798 H   0  0  0  0  0  0  0  0  0  0  0  0
    1.6384   44.8503   53.9058 H   0  0  0  0  0  0  0  0  0  0  0  0
    4.9919   41.2506   51.5481 H   0  0  0  0  0  0  0  0  0  0  0  0
    1.2884   42.5775   49.7670 H   0  0  0  0  0  0  0  0  0  0  0  0
  1  2  2  0
  2  3  1  0
  4  3  1  6
  4  5  1  0
  5  6  1  0
  6  7  1  0
  7  8  2  0
  8  9  1  0
  9 10  2  0
 10 11  1  0
 11 12  2  0
  4 13  1  0
 13 14  2  0
 13 15  1  0
 15 16  1  0
 16 17  1  0
 17 18  2  0
 18 19  1  0
 19 20  2  0
 20 21  1  0
 20 22  1  0
 22 23  2  0
 23 24  1  0
 15  2  1  0
 23 17  1  0
 12  4  1  0
 12  7  1  0
  3 25  1  0
  5 26  1  0
  5 27  1  0
  6 28  1  0
  6 29  1  0
  8 30  1  0
  9 31  1  0
 10 32  1  0
 11 33  1  0
 16 34  1  0
 16 35  1  0
 19 36  1  0
 22 37  1  0
M  END
>  <meeko>  (5) 
{"is_sidechain": [false], "free_energy": -8.741, "intermolecular_energy": -9.721, "internal_energy": -0.48}

$$$$
