ligand_33_conformer_1_docked
     RDKit          3D

 52 55  0  0  0  0  0  0  0  0999 V2000
    9.9390   47.4810   55.2950 C   0  0  0  0  0  0  0  0  0  0  0  0
    9.6510   47.6150   53.7940 C   0  0  1  0  0  0  0  0  0  0  0  0
   10.2040   46.4140   52.9860 C   0  0  0  0  0  0  0  0  0  0  0  0
    9.4630   46.2140   51.6540 C   0  0  0  0  0  0  0  0  0  0  0  0
    8.9380   47.5390   51.0970 C   0  0  0  0  0  0  0  0  0  0  0  0
    8.0130   48.2720   52.0990 C   0  0  0  0  0  0  0  0  0  0  0  0
    8.2140   47.8650   53.5140 N   0  0  0  0  0  0  0  0  0  0  0  0
    7.2950   46.7790   53.9490 C   0  0  0  0  0  0  0  0  0  0  0  0
    6.1790   46.5300   52.9140 C   0  0  0  0  0  0  0  0  0  0  0  0
    4.8880   45.8410   53.4250 C   0  0  0  0  0  0  0  0  0  0  0  0
    3.7280   46.8350   53.7250 C   0  0  0  0  0  0  0  0  0  0  0  0
    2.3830   46.4080   53.1220 C   0  0  0  0  0  0  0  0  0  0  0  0
    2.1330   44.9800   53.3670 N   0  0  0  0  0  0  0  0  0  0  0  0
    0.8490   44.5180   53.8250 C   0  0  0  0  0  0  0  0  0  0  0  0
   -0.0100   43.9040   52.9540 N   0  0  0  0  0  0  0  0  0  0  0  0
   -1.2450   43.4600   53.3500 C   0  0  0  0  0  0  0  0  0  0  0  0
   -1.6650   43.6320   54.6390 N   0  0  0  0  0  0  0  0  0  0  0  0
   -0.8230   44.2460   55.5040 C   0  0  0  0  0  0  0  0  0  0  0  0
   -1.0680   44.5510   56.7850 N   0  0  0  0  0  0  0  0  0  0  0  0
   -0.0120   45.2040   57.2570 N   0  0  0  0  0  0  0  0  0  0  0  0
    0.9090   45.3110   56.2670 C   0  0  0  0  0  0  0  0  0  0  0  0
    0.4050   44.6940   55.1370 C   0  0  0  0  0  0  0  0  0  0  0  0
    3.1970   43.9900   53.1420 C   0  0  0  0  0  0  0  0  0  0  0  0
    4.4540   44.6420   52.5560 C   0  0  0  0  0  0  0  0  0  0  0  0
    9.0879   47.8770   55.8684 H   0  0  0  0  0  0  0  0  0  0  0  0
   10.0889   46.4206   55.5464 H   0  0  0  0  0  0  0  0  0  0  0  0
   10.8467   48.0493   55.5464 H   0  0  0  0  0  0  0  0  0  0  0  0
   10.1945   48.5070   53.4491 H   0  0  0  0  0  0  0  0  0  0  0  0
   11.2690   46.5904   52.7749 H   0  0  0  0  0  0  0  0  0  0  0  0
   10.0583   45.5068   53.5908 H   0  0  0  0  0  0  0  0  0  0  0  0
   10.1550   45.7690   50.9239 H   0  0  0  0  0  0  0  0  0  0  0  0
    8.6033   45.5519   51.8346 H   0  0  0  0  0  0  0  0  0  0  0  0
    9.7943   48.1894   50.8651 H   0  0  0  0  0  0  0  0  0  0  0  0
    8.3480   47.3152   50.1960 H   0  0  0  0  0  0  0  0  0  0  0  0
    8.2033   49.3525   52.0192 H   0  0  0  0  0  0  0  0  0  0  0  0
    6.9796   48.0040   51.8338 H   0  0  0  0  0  0  0  0  0  0  0  0
    7.8738   45.8527   54.0795 H   0  0  0  0  0  0  0  0  0  0  0  0
    6.8244   47.0853   54.8949 H   0  0  0  0  0  0  0  0  0  0  0  0
    5.8912   47.5054   52.4948 H   0  0  0  0  0  0  0  0  0  0  0  0
    6.6125   45.8245   52.1898 H   0  0  0  0  0  0  0  0  0  0  0  0
    5.1580   45.4140   54.4021 H   0  0  0  0  0  0  0  0  0  0  0  0
    3.6108   46.9140   54.8159 H   0  0  0  0  0  0  0  0  0  0  0  0
    3.9985   47.7960   53.2631 H   0  0  0  0  0  0  0  0  0  0  0  0
    1.5774   46.9995   53.5814 H   0  0  0  0  0  0  0  0  0  0  0  0
    2.4119   46.5805   52.0360 H   0  0  0  0  0  0  0  0  0  0  0  0
   -1.9036   42.9610   52.6239 H   0  0  0  0  0  0  0  0  0  0  0  0
   -1.9340   44.3400   57.3290 H   0  0  0  0  0  0  0  0  0  0  0  0
    1.8889   45.8041   56.3491 H   0  0  0  0  0  0  0  0  0  0  0  0
    3.4536   43.5165   54.1011 H   0  0  0  0  0  0  0  0  0  0  0  0
    2.8280   43.2431   52.4237 H   0  0  0  0  0  0  0  0  0  0  0  0
    5.2670   43.9017   52.5265 H   0  0  0  0  0  0  0  0  0  0  0  0
    4.2324   44.9978   51.5390 H   0  0  0  0  0  0  0  0  0  0  0  0
  1  2  1  0
  2  3  1  0
  3  4  1  0
  4  5  1  0
  5  6  1  0
  6  7  1  0
  7  8  1  0
  8  9  1  0
  9 10  1  0
 10 11  1  0
 11 12  1  0
 12 13  1  0
 13 14  1  0
 14 15  2  0
 15 16  1  0
 16 17  2  0
 17 18  1  0
 18 19  1  0
 19 20  1  0
 20 21  2  0
 21 22  1  0
 13 23  1  0
 23 24  1  0
  7  2  1  0
 24 10  1  0
 22 14  1  0
 22 18  2  0
  1 25  1  0
  1 26  1  0
  1 27  1  0
  2 28  1  6
  3 29  1  0
  3 30  1  0
  4 31  1  0
  4 32  1  0
  5 33  1  0
  5 34  1  0
  6 35  1  0
  6 36  1  0
  8 37  1  0
  8 38  1  0
  9 39  1  0
  9 40  1  0
 10 41  1  0
 11 42  1  0
 11 43  1  0
 12 44  1  0
 12 45  1  0
 16 46  1  0
 19 47  1  0
 21 48  1  0
 23 49  1  0
 23 50  1  0
 24 51  1  0
 24 52  1  0
M  END
>  <meeko>  (1) 
{"is_sidechain": [false], "free_energy": -8.514, "intermolecular_energy": -10.505, "internal_energy": -0.582}

$$$$
ligand_33_conformer_1_docked
     RDKit          3D

 52 55  0  0  0  0  0  0  0  0999 V2000
    5.6450   47.3370   53.4380 C   0  0  0  0  0  0  0  0  0  0  0  0
    7.1550   47.4120   53.1800 C   0  0  1  0  0  0  0  0  0  0  0  0
    7.9720   46.7310   54.3070 C   0  0  0  0  0  0  0  0  0  0  0  0
    9.3610   46.2750   53.8290 C   0  0  0  0  0  0  0  0  0  0  0  0
    9.8970   47.1760   52.7140 C   0  0  0  0  0  0  0  0  0  0  0  0
    8.9320   47.2520   51.5060 C   0  0  0  0  0  0  0  0  0  0  0  0
    7.5250   46.9050   51.8340 N   0  0  0  0  0  0  0  0  0  0  0  0
    7.2020   45.4720   51.5960 C   0  0  0  0  0  0  0  0  0  0  0  0
    6.1960   45.3000   50.4400 C   0  0  0  0  0  0  0  0  0  0  0  0
    4.7870   44.7670   50.8090 C   0  0  0  0  0  0  0  0  0  0  0  0
    4.7820   43.8290   52.0510 C   0  0  0  0  0  0  0  0  0  0  0  0
    3.6960   44.1780   53.0780 C   0  0  0  0  0  0  0  0  0  0  0  0
    2.4100   44.4270   52.4100 N   0  0  0  0  0  0  0  0  0  0  0  0
    1.1880   43.8580   52.9160 C   0  0  0  0  0  0  0  0  0  0  0  0
    0.5580   42.8600   52.2230 N   0  0  0  0  0  0  0  0  0  0  0  0
   -0.6130   42.3010   52.6670 C   0  0  0  0  0  0  0  0  0  0  0  0
   -1.1970   42.7380   53.8220 N   0  0  0  0  0  0  0  0  0  0  0  0
   -0.5830   43.7310   54.5080 C   0  0  0  0  0  0  0  0  0  0  0  0
   -1.0200   44.3270   55.6250 N   0  0  0  0  0  0  0  0  0  0  0  0
   -0.1600   45.2900   55.9370 N   0  0  0  0  0  0  0  0  0  0  0  0
    0.8310   45.3010   55.0100 C   0  0  0  0  0  0  0  0  0  0  0  0
    0.5760   44.3010   54.0900 C   0  0  0  0  0  0  0  0  0  0  0  0
    2.3490   45.2710   51.2080 C   0  0  0  0  0  0  0  0  0  0  0  0
    3.7170   45.8760   50.8770 C   0  0  0  0  0  0  0  0  0  0  0  0
    5.4583   47.3277   54.5220 H   0  0  0  0  0  0  0  0  0  0  0  0
    5.1523   48.2118   52.9885 H   0  0  0  0  0  0  0  0  0  0  0  0
    5.2414   46.4177   52.9885 H   0  0  0  0  0  0  0  0  0  0  0  0
    7.4227   48.4788   53.1939 H   0  0  0  0  0  0  0  0  0  0  0  0
    8.0996   47.4464   55.1328 H   0  0  0  0  0  0  0  0  0  0  0  0
    7.4180   45.8375   54.6306 H   0  0  0  0  0  0  0  0  0  0  0  0
   10.0587   46.3053   54.6789 H   0  0  0  0  0  0  0  0  0  0  0  0
    9.2698   45.2533   53.4318 H   0  0  0  0  0  0  0  0  0  0  0  0
   10.0407   48.1896   53.1164 H   0  0  0  0  0  0  0  0  0  0  0  0
   10.8459   46.7462   52.3605 H   0  0  0  0  0  0  0  0  0  0  0  0
    8.9521   48.2785   51.1112 H   0  0  0  0  0  0  0  0  0  0  0  0
    9.2804   46.5095   50.7730 H   0  0  0  0  0  0  0  0  0  0  0  0
    8.1284   44.9343   51.3457 H   0  0  0  0  0  0  0  0  0  0  0  0
    6.7464   45.0660   52.5112 H   0  0  0  0  0  0  0  0  0  0  0  0
    6.0652   46.2832   49.9643 H   0  0  0  0  0  0  0  0  0  0  0  0
    6.6341   44.5270   49.7915 H   0  0  0  0  0  0  0  0  0  0  0  0
    4.4917   44.1251   49.9659 H   0  0  0  0  0  0  0  0  0  0  0  0
    4.6173   42.7971   51.7073 H   0  0  0  0  0  0  0  0  0  0  0  0
    5.7531   43.9518   52.5529 H   0  0  0  0  0  0  0  0  0  0  0  0
    3.5813   43.3400   53.7813 H   0  0  0  0  0  0  0  0  0  0  0  0
    3.9974   45.0890   53.6159 H   0  0  0  0  0  0  0  0  0  0  0  0
   -1.0859   41.4940   52.0882 H   0  0  0  0  0  0  0  0  0  0  0  0
   -1.8880   44.1040   56.1600 H   0  0  0  0  0  0  0  0  0  0  0  0
    1.6900   45.9879   54.9934 H   0  0  0  0  0  0  0  0  0  0  0  0
    2.0138   44.6587   50.3579 H   0  0  0  0  0  0  0  0  0  0  0  0
    1.6447   46.0940   51.3995 H   0  0  0  0  0  0  0  0  0  0  0  0
    3.6623   46.3883   49.9051 H   0  0  0  0  0  0  0  0  0  0  0  0
    3.9925   46.5931   51.6643 H   0  0  0  0  0  0  0  0  0  0  0  0
  1  2  1  0
  2  3  1  0
  3  4  1  0
  4  5  1  0
  5  6  1  0
  6  7  1  0
  7  8  1  0
  8  9  1  0
  9 10  1  0
 10 11  1  0
 11 12  1  0
 12 13  1  0
 13 14  1  0
 14 15  2  0
 15 16  1  0
 16 17  2  0
 17 18  1  0
 18 19  1  0
 19 20  1  0
 20 21  2  0
 21 22  1  0
 13 23  1  0
 23 24  1  0
  7  2  1  0
 24 10  1  0
 22 14  1  0
 22 18  2  0
  1 25  1  0
  1 26  1  0
  1 27  1  0
  2 28  1  6
  3 29  1  0
  3 30  1  0
  4 31  1  0
  4 32  1  0
  5 33  1  0
  5 34  1  0
  6 35  1  0
  6 36  1  0
  8 37  1  0
  8 38  1  0
  9 39  1  0
  9 40  1  0
 10 41  1  0
 11 42  1  0
 11 43  1  0
 12 44  1  0
 12 45  1  0
 16 46  1  0
 19 47  1  0
 21 48  1  0
 23 49  1  0
 23 50  1  0
 24 51  1  0
 24 52  1  0
M  END
>  <meeko>  (2) 
{"is_sidechain": [false], "free_energy": -8.478, "intermolecular_energy": -10.155, "internal_energy": -0.888}

$$$$
ligand_33_conformer_1_docked
     RDKit          3D

 52 55  0  0  0  0  0  0  0  0999 V2000
   -0.9670   44.7300   51.3810 C   0  0  0  0  0  0  0  0  0  0  0  0
    0.2520   43.8840   51.7720 C   0  0  1  0  0  0  0  0  0  0  0  0
    1.4600   44.1380   50.8340 C   0  0  0  0  0  0  0  0  0  0  0  0
    2.8020   43.7950   51.5030 C   0  0  0  0  0  0  0  0  0  0  0  0
    2.6490   42.6710   52.5300 C   0  0  0  0  0  0  0  0  0  0  0  0
    1.5990   43.0070   53.6160 C   0  0  0  0  0  0  0  0  0  0  0  0
    0.6120   44.0390   53.2040 N   0  0  0  0  0  0  0  0  0  0  0  0
    1.0020   45.4180   53.6050 C   0  0  0  0  0  0  0  0  0  0  0  0
    1.8270   45.4190   54.9080 C   0  0  0  0  0  0  0  0  0  0  0  0
    3.2560   46.0160   54.8340 C   0  0  0  0  0  0  0  0  0  0  0  0
    4.3740   45.0060   55.2270 C   0  0  0  0  0  0  0  0  0  0  0  0
    5.5430   44.9670   54.2340 C   0  0  0  0  0  0  0  0  0  0  0  0
    5.9580   46.3300   53.8660 N   0  0  0  0  0  0  0  0  0  0  0  0
    7.3490   46.6980   53.8300 C   0  0  0  0  0  0  0  0  0  0  0  0
    7.8970   47.4100   54.8620 N   0  0  0  0  0  0  0  0  0  0  0  0
    9.2150   47.7890   54.8600 C   0  0  0  0  0  0  0  0  0  0  0  0
   10.0260   47.4730   53.8070 N   0  0  0  0  0  0  0  0  0  0  0  0
    9.4880   46.7740   52.7790 C   0  0  0  0  0  0  0  0  0  0  0  0
   10.1000   46.4160   51.6420 N   0  0  0  0  0  0  0  0  0  0  0  0
    9.2070   45.8050   50.8730 N   0  0  0  0  0  0  0  0  0  0  0  0
    8.0190   45.7750   51.5300 C   0  0  0  0  0  0  0  0  0  0  0  0
    8.1870   46.3880   52.7570 C   0  0  0  0  0  0  0  0  0  0  0  0
    4.9520   47.3450   53.5220 C   0  0  0  0  0  0  0  0  0  0  0  0
    3.5390   46.7520   53.5080 C   0  0  0  0  0  0  0  0  0  0  0  0
   -1.4754   45.0828   52.2904 H   0  0  0  0  0  0  0  0  0  0  0  0
   -0.6377   45.5947   50.7861 H   0  0  0  0  0  0  0  0  0  0  0  0
   -1.6618   44.1190   50.7861 H   0  0  0  0  0  0  0  0  0  0  0  0
   -0.0397   42.8319   51.6376 H   0  0  0  0  0  0  0  0  0  0  0  0
    1.3450   43.5170   49.9333 H   0  0  0  0  0  0  0  0  0  0  0  0
    1.4727   45.2094   50.5849 H   0  0  0  0  0  0  0  0  0  0  0  0
    3.5156   43.4764   50.7288 H   0  0  0  0  0  0  0  0  0  0  0  0
    3.1644   44.6920   52.0264 H   0  0  0  0  0  0  0  0  0  0  0  0
    2.3369   41.7546   52.0077 H   0  0  0  0  0  0  0  0  0  0  0  0
    3.6196   42.5375   53.0301 H   0  0  0  0  0  0  0  0  0  0  0  0
    1.0523   42.0856   53.8654 H   0  0  0  0  0  0  0  0  0  0  0  0
    2.1498   43.4184   54.4747 H   0  0  0  0  0  0  0  0  0  0  0  0
    1.6040   45.8666   52.8011 H   0  0  0  0  0  0  0  0  0  0  0  0
    0.0838   45.9981   53.7790 H   0  0  0  0  0  0  0  0  0  0  0  0
    1.2644   45.9958   55.6569 H   0  0  0  0  0  0  0  0  0  0  0  0
    1.9727   44.3572   55.1555 H   0  0  0  0  0  0  0  0  0  0  0  0
    3.2842   46.7916   55.6135 H   0  0  0  0  0  0  0  0  0  0  0  0
    4.7663   45.2885   56.2151 H   0  0  0  0  0  0  0  0  0  0  0  0
    3.9184   44.0048   55.2285 H   0  0  0  0  0  0  0  0  0  0  0  0
    6.3925   44.4433   54.6966 H   0  0  0  0  0  0  0  0  0  0  0  0
    5.2181   44.4386   53.3256 H   0  0  0  0  0  0  0  0  0  0  0  0
    9.6223   48.3518   55.7129 H   0  0  0  0  0  0  0  0  0  0  0  0
   11.0950   46.5920   51.3800 H   0  0  0  0  0  0  0  0  0  0  0  0
    7.0836   45.3378   51.1507 H   0  0  0  0  0  0  0  0  0  0  0  0
    4.9925   48.1549   54.2652 H   0  0  0  0  0  0  0  0  0  0  0  0
    5.1765   47.7265   52.5150 H   0  0  0  0  0  0  0  0  0  0  0  0
    2.8063   47.5623   53.3788 H   0  0  0  0  0  0  0  0  0  0  0  0
    3.4587   46.0364   52.6765 H   0  0  0  0  0  0  0  0  0  0  0  0
  1  2  1  0
  2  3  1  0
  3  4  1  0
  4  5  1  0
  5  6  1  0
  6  7  1  0
  7  8  1  0
  8  9  1  0
  9 10  1  0
 10 11  1  0
 11 12  1  0
 12 13  1  0
 13 14  1  0
 14 15  2  0
 15 16  1  0
 16 17  2  0
 17 18  1  0
 18 19  1  0
 19 20  1  0
 20 21  2  0
 21 22  1  0
 13 23  1  0
 23 24  1  0
  7  2  1  0
 24 10  1  0
 22 14  1  0
 22 18  2  0
  1 25  1  0
  1 26  1  0
  1 27  1  0
  2 28  1  1
  3 29  1  0
  3 30  1  0
  4 31  1  0
  4 32  1  0
  5 33  1  0
  5 34  1  0
  6 35  1  0
  6 36  1  0
  8 37  1  0
  8 38  1  0
  9 39  1  0
  9 40  1  0
 10 41  1  0
 11 42  1  0
 11 43  1  0
 12 44  1  0
 12 45  1  0
 16 46  1  0
 19 47  1  0
 21 48  1  0
 23 49  1  0
 23 50  1  0
 24 51  1  0
 24 52  1  0
M  END
>  <meeko>  (3) 
{"is_sidechain": [false], "free_energy": -8.385, "intermolecular_energy": -9.621, "internal_energy": -1.307}

$$$$
ligand_33_conformer_1_docked
     RDKit          3D

 52 55  0  0  0  0  0  0  0  0999 V2000
    2.7340   45.3780   55.2550 C   0  0  0  0  0  0  0  0  0  0  0  0
    1.4320   44.5760   55.1270 C   0  0  1  0  0  0  0  0  0  0  0  0
    0.2230   45.3280   55.7370 C   0  0  0  0  0  0  0  0  0  0  0  0
   -1.1160   44.8710   55.1340 C   0  0  0  0  0  0  0  0  0  0  0  0
   -1.0640   43.4060   54.6950 C   0  0  0  0  0  0  0  0  0  0  0  0
    0.0780   43.1350   53.6860 C   0  0  0  0  0  0  0  0  0  0  0  0
    1.1740   44.1360   53.7310 N   0  0  0  0  0  0  0  0  0  0  0  0
    1.0000   45.2420   52.7510 C   0  0  0  0  0  0  0  0  0  0  0  0
    1.6310   44.8960   51.3870 C   0  0  0  0  0  0  0  0  0  0  0  0
    3.1620   45.0990   51.2490 C   0  0  0  0  0  0  0  0  0  0  0  0
    3.6260   46.5540   51.5500 C   0  0  0  0  0  0  0  0  0  0  0  0
    4.8270   46.6300   52.5030 C   0  0  0  0  0  0  0  0  0  0  0  0
    5.8580   45.6540   52.1190 N   0  0  0  0  0  0  0  0  0  0  0  0
    7.2480   46.0240   52.0680 C   0  0  0  0  0  0  0  0  0  0  0  0
    8.0080   45.6850   50.9820 N   0  0  0  0  0  0  0  0  0  0  0  0
    9.3380   46.0100   50.9000 C   0  0  0  0  0  0  0  0  0  0  0  0
    9.9520   46.6800   51.9200 N   0  0  0  0  0  0  0  0  0  0  0  0
    9.2070   47.0120   53.0010 C   0  0  0  0  0  0  0  0  0  0  0  0
    9.6340   47.6180   54.1170 N   0  0  0  0  0  0  0  0  0  0  0  0
    8.6070   47.7000   54.9550 N   0  0  0  0  0  0  0  0  0  0  0  0
    7.5210   47.1420   54.3630 C   0  0  0  0  0  0  0  0  0  0  0  0
    7.8900   46.7020   53.1060 C   0  0  0  0  0  0  0  0  0  0  0  0
    5.4840   44.2730   51.7830 C   0  0  0  0  0  0  0  0  0  0  0  0
    3.9860   44.0300   51.9950 C   0  0  0  0  0  0  0  0  0  0  0  0
    2.9714   45.5243   56.3191 H   0  0  0  0  0  0  0  0  0  0  0  0
    3.5530   44.8276   54.7688 H   0  0  0  0  0  0  0  0  0  0  0  0
    2.6109   46.3570   54.7688 H   0  0  0  0  0  0  0  0  0  0  0  0
    1.5679   43.6603   55.7212 H   0  0  0  0  0  0  0  0  0  0  0  0
    0.2032   45.1444   56.8214 H   0  0  0  0  0  0  0  0  0  0  0  0
    0.3448   46.3978   55.5118 H   0  0  0  0  0  0  0  0  0  0  0  0
   -1.9069   44.9897   55.8892 H   0  0  0  0  0  0  0  0  0  0  0  0
   -1.3237   45.4890   54.2480 H   0  0  0  0  0  0  0  0  0  0  0  0
   -0.9082   42.7760   55.5831 H   0  0  0  0  0  0  0  0  0  0  0  0
   -2.0160   43.1701   54.1969 H   0  0  0  0  0  0  0  0  0  0  0  0
    0.5047   42.1449   53.9043 H   0  0  0  0  0  0  0  0  0  0  0  0
   -0.3650   43.1931   52.6808 H   0  0  0  0  0  0  0  0  0  0  0  0
   -0.0749   45.4284   52.6101 H   0  0  0  0  0  0  0  0  0  0  0  0
    1.5049   46.1354   53.1471 H   0  0  0  0  0  0  0  0  0  0  0  0
    1.4166   43.8369   51.1811 H   0  0  0  0  0  0  0  0  0  0  0  0
    1.1830   45.6060   50.6762 H   0  0  0  0  0  0  0  0  0  0  0  0
    3.3780   44.9448   50.1815 H   0  0  0  0  0  0  0  0  0  0  0  0
    3.9045   47.0339   50.6002 H   0  0  0  0  0  0  0  0  0  0  0  0
    2.7873   47.0646   52.0458 H   0  0  0  0  0  0  0  0  0  0  0  0
    5.2556   47.6423   52.4637 H   0  0  0  0  0  0  0  0  0  0  0  0
    4.4844   46.3998   53.5226 H   0  0  0  0  0  0  0  0  0  0  0  0
    9.9145   45.7291   50.0063 H   0  0  0  0  0  0  0  0  0  0  0  0
   10.6010   47.9570   54.3200 H   0  0  0  0  0  0  0  0  0  0  0  0
    6.5186   47.0548   54.8075 H   0  0  0  0  0  0  0  0  0  0  0  0
    5.7314   44.0821   50.7283 H   0  0  0  0  0  0  0  0  0  0  0  0
    6.0411   43.5936   52.4448 H   0  0  0  0  0  0  0  0  0  0  0  0
    3.7216   43.0338   51.6106 H   0  0  0  0  0  0  0  0  0  0  0  0
    3.7615   44.0896   53.0702 H   0  0  0  0  0  0  0  0  0  0  0  0
  1  2  1  0
  2  3  1  0
  3  4  1  0
  4  5  1  0
  5  6  1  0
  6  7  1  0
  7  8  1  0
  8  9  1  0
  9 10  1  0
 10 11  1  0
 11 12  1  0
 12 13  1  0
 13 14  1  0
 14 15  2  0
 15 16  1  0
 16 17  2  0
 17 18  1  0
 18 19  1  0
 19 20  1  0
 20 21  2  0
 21 22  1  0
 13 23  1  0
 23 24  1  0
  7  2  1  0
 24 10  1  0
 22 14  1  0
 22 18  2  0
  1 25  1  0
  1 26  1  0
  1 27  1  0
  2 28  1  1
  3 29  1  0
  3 30  1  0
  4 31  1  0
  4 32  1  0
  5 33  1  0
  5 34  1  0
  6 35  1  0
  6 36  1  0
  8 37  1  0
  8 38  1  0
  9 39  1  0
  9 40  1  0
 10 41  1  0
 11 42  1  0
 11 43  1  0
 12 44  1  0
 12 45  1  0
 16 46  1  0
 19 47  1  0
 21 48  1  0
 23 49  1  0
 23 50  1  0
 24 51  1  0
 24 52  1  0
M  END
>  <meeko>  (4) 
{"is_sidechain": [false], "free_energy": -8.182, "intermolecular_energy": -10.028, "internal_energy": -0.65}

$$$$
ligand_33_conformer_1_docked
     RDKit          3D

 52 55  0  0  0  0  0  0  0  0999 V2000
   10.0220   47.4220   55.2480 C   0  0  0  0  0  0  0  0  0  0  0  0
    9.6240   47.5830   53.7750 C   0  0  1  0  0  0  0  0  0  0  0  0
   10.2160   46.4600   52.8860 C   0  0  0  0  0  0  0  0  0  0  0  0
    9.4050   46.2460   51.5980 C   0  0  0  0  0  0  0  0  0  0  0  0
    8.7380   47.5410   51.1290 C   0  0  0  0  0  0  0  0  0  0  0  0
    7.8280   48.1600   52.2170 C   0  0  0  0  0  0  0  0  0  0  0  0
    8.1560   47.7230   53.5990 N   0  0  0  0  0  0  0  0  0  0  0  0
    7.3580   46.5510   54.0490 C   0  0  0  0  0  0  0  0  0  0  0  0
    6.0160   46.9830   54.6740 C   0  0  0  0  0  0  0  0  0  0  0  0
    4.7450   46.2330   54.1980 C   0  0  0  0  0  0  0  0  0  0  0  0
    4.1530   45.2690   55.2670 C   0  0  0  0  0  0  0  0  0  0  0  0
    2.6380   45.4200   55.4570 C   0  0  0  0  0  0  0  0  0  0  0  0
    1.9560   45.4910   54.1560 N   0  0  0  0  0  0  0  0  0  0  0  0
    0.7610   44.7310   53.9010 C   0  0  0  0  0  0  0  0  0  0  0  0
   -0.1770   44.5770   54.8850 N   0  0  0  0  0  0  0  0  0  0  0  0
   -1.3230   43.8510   54.6840 C   0  0  0  0  0  0  0  0  0  0  0  0
   -1.5580   43.2420   53.4840 N   0  0  0  0  0  0  0  0  0  0  0  0
   -0.6300   43.3850   52.5080 C   0  0  0  0  0  0  0  0  0  0  0  0
   -0.6520   42.8280   51.2900 N   0  0  0  0  0  0  0  0  0  0  0  0
    0.4720   43.1640   50.6670 N   0  0  0  0  0  0  0  0  0  0  0  0
    1.2100   43.9420   51.4990 C   0  0  0  0  0  0  0  0  0  0  0  0
    0.5120   44.0980   52.6820 C   0  0  0  0  0  0  0  0  0  0  0  0
    2.4840   46.3510   53.0870 C   0  0  0  0  0  0  0  0  0  0  0  0
    3.6910   47.1650   53.5660 C   0  0  0  0  0  0  0  0  0  0  0  0
    9.1941   47.7569   55.8902 H   0  0  0  0  0  0  0  0  0  0  0  0
   10.2418   46.3642   55.4549 H   0  0  0  0  0  0  0  0  0  0  0  0
   10.9154   48.0294   55.4549 H   0  0  0  0  0  0  0  0  0  0  0  0
   10.0700   48.5278   53.4307 H   0  0  0  0  0  0  0  0  0  0  0  0
   11.2468   46.7308   52.6139 H   0  0  0  0  0  0  0  0  0  0  0  0
   10.1850   45.5235   53.4623 H   0  0  0  0  0  0  0  0  0  0  0  0
   10.0796   45.8856   50.8074 H   0  0  0  0  0  0  0  0  0  0  0  0
    8.6154   45.5093   51.8076 H   0  0  0  0  0  0  0  0  0  0  0  0
    9.5212   48.2677   50.8674 H   0  0  0  0  0  0  0  0  0  0  0  0
    8.1078   47.2996   50.2603 H   0  0  0  0  0  0  0  0  0  0  0  0
    7.9255   49.2546   52.1679 H   0  0  0  0  0  0  0  0  0  0  0  0
    6.8039   47.8165   52.0089 H   0  0  0  0  0  0  0  0  0  0  0  0
    7.1563   45.9031   53.1833 H   0  0  0  0  0  0  0  0  0  0  0  0
    7.9371   46.0147   54.8152 H   0  0  0  0  0  0  0  0  0  0  0  0
    6.0962   46.8430   55.7621 H   0  0  0  0  0  0  0  0  0  0  0  0
    5.8717   48.0244   54.3503 H   0  0  0  0  0  0  0  0  0  0  0  0
    5.0859   45.5785   53.3822 H   0  0  0  0  0  0  0  0  0  0  0  0
    4.3635   44.2347   54.9574 H   0  0  0  0  0  0  0  0  0  0  0  0
    4.6258   45.5221   56.2274 H   0  0  0  0  0  0  0  0  0  0  0  0
    2.2563   44.5543   56.0181 H   0  0  0  0  0  0  0  0  0  0  0  0
    2.4417   46.3500   56.0107 H   0  0  0  0  0  0  0  0  0  0  0  0
   -2.0592   43.7583   55.4960 H   0  0  0  0  0  0  0  0  0  0  0  0
   -1.3990   42.2190   50.8880 H   0  0  0  0  0  0  0  0  0  0  0  0
    2.1953   44.3746   51.2709 H   0  0  0  0  0  0  0  0  0  0  0  0
    2.7916   45.7203   52.2399 H   0  0  0  0  0  0  0  0  0  0  0  0
    1.6922   47.0525   52.7855 H   0  0  0  0  0  0  0  0  0  0  0  0
    4.1378   47.6907   52.7093 H   0  0  0  0  0  0  0  0  0  0  0  0
    3.3568   47.8926   54.3203 H   0  0  0  0  0  0  0  0  0  0  0  0
  1  2  1  0
  2  3  1  0
  3  4  1  0
  4  5  1  0
  5  6  1  0
  6  7  1  0
  7  8  1  0
  8  9  1  0
  9 10  1  0
 10 11  1  0
 11 12  1  0
 12 13  1  0
 13 14  1  0
 14 15  2  0
 15 16  1  0
 16 17  2  0
 17 18  1  0
 18 19  1  0
 19 20  1  0
 20 21  2  0
 21 22  1  0
 13 23  1  0
 23 24  1  0
  7  2  1  0
 24 10  1  0
 22 14  1  0
 22 18  2  0
  1 25  1  0
  1 26  1  0
  1 27  1  0
  2 28  1  6
  3 29  1  0
  3 30  1  0
  4 31  1  0
  4 32  1  0
  5 33  1  0
  5 34  1  0
  6 35  1  0
  6 36  1  0
  8 37  1  0
  8 38  1  0
  9 39  1  0
  9 40  1  0
 10 41  1  0
 11 42  1  0
 11 43  1  0
 12 44  1  0
 12 45  1  0
 16 46  1  0
 19 47  1  0
 21 48  1  0
 23 49  1  0
 23 50  1  0
 24 51  1  0
 24 52  1  0
M  END
>  <meeko>  (5) 
{"is_sidechain": [false], "free_energy": -8.117, "intermolecular_energy": -10.313, "internal_energy": -0.285}

$$$$
