MODEL 1
REMARK VINA RESULT:    -8.830      0.000      0.000
REMARK INTER + INTRA:         -12.702
REMARK INTER:                 -11.928
REMARK INTRA:                  -0.774
REMARK UNBOUND:                -0.774
REMARK SMILES O=C(Nc1cccc(OC(F)F)c1)c1cccc(Nc2ncccn2)c1
REMARK SMILES IDX 4 1 5 2 6 3 7 4 8 5 13 6 3 7 1 8 2 9 14 11 15 12 26 13 16 14
REMARK SMILES IDX 18 15 17 16 19 17 20 19 21 20 25 21 22 22 24 23 23 24 9 25
REMARK SMILES IDX 10 26 11 27 12 28
REMARK H PARENT 3 10 19 18
ROOT
ATOM      1  C   UNL     1       6.905  46.004  53.091  1.00  0.00     0.045 A 
ATOM      2  C   UNL     1       7.044  45.950  51.696  1.00  0.00     0.026 A 
ATOM      3  C   UNL     1       8.257  46.288  51.093  1.00  0.00     0.006 A 
ATOM      4  C   UNL     1       9.339  46.695  51.875  1.00  0.00     0.047 A 
ATOM      5  C   UNL     1       9.218  46.780  53.267  1.00  0.00     0.128 A 
ATOM      6  C   UNL     1       7.992  46.437  53.873  1.00  0.00     0.072 A 
ENDROOT
BRANCH   1   7
ATOM      7  N   UNL     1       5.640  45.669  53.688  1.00  0.00    -0.322 N 
ATOM      8  O   UNL     1       4.694  47.801  53.593  1.00  0.00    -0.269 OA
ATOM      9  C   UNL     1       4.511  46.559  53.716  1.00  0.00     0.255 C 
ATOM     10  H   UNL     1       5.577  44.779  54.232  1.00  0.00     0.170 HD
BRANCH   9  11
ATOM     11  C   UNL     1       3.140  46.040  53.938  1.00  0.00     0.042 A 
ATOM     12  C   UNL     1       2.277  45.794  52.855  1.00  0.00     0.014 A 
ATOM     13  C   UNL     1       2.671  45.813  55.246  1.00  0.00     0.040 A 
ATOM     14  C   UNL     1       0.979  45.330  53.076  1.00  0.00     0.003 A 
ATOM     15  C   UNL     1       1.373  45.319  55.470  1.00  0.00     0.042 A 
ATOM     16  C   UNL     1       0.527  45.098  54.376  1.00  0.00     0.026 A 
BRANCH  15  17
ATOM     17  N   UNL     1       0.877  45.096  56.801  1.00  0.00    -0.324 N 
ATOM     18  H   UNL     1       0.949  44.132  57.199  1.00  0.00     0.170 HD
BRANCH  17  19
ATOM     19  C   UNL     1       0.389  46.134  57.663  1.00  0.00     0.227 A 
ATOM     20  N   UNL     1      -0.896  46.564  57.535  1.00  0.00    -0.221 NA
ATOM     21  N   UNL     1       1.177  46.658  58.642  1.00  0.00    -0.221 NA
ATOM     22  C   UNL     1      -1.400  47.524  58.353  1.00  0.00     0.117 A 
ATOM     23  C   UNL     1       0.710  47.620  59.480  1.00  0.00     0.117 A 
ATOM     24  C   UNL     1      -0.599  48.078  59.350  1.00  0.00     0.040 A 
ENDBRANCH  17  19
ENDBRANCH  15  17
ENDBRANCH   9  11
ENDBRANCH   1   7
BRANCH   5  25
ATOM     25  O   UNL     1      10.333  47.209  54.004  1.00  0.00    -0.435 OA
BRANCH  25  26
ATOM     26  C   UNL     1      10.336  47.441  55.410  1.00  0.00     0.542 C 
ATOM     27  F   UNL     1      11.635  47.658  55.828  1.00  0.00    -0.167 F 
ATOM     28  F   UNL     1       9.577  48.559  55.706  1.00  0.00    -0.167 F 
ENDBRANCH  25  26
ENDBRANCH   5  25
TORSDOF 6
ENDMDL
MODEL 2
REMARK VINA RESULT:    -8.728      4.212      8.631
REMARK INTER + INTRA:         -12.563
REMARK INTER:                 -12.053
REMARK INTRA:                  -0.510
REMARK UNBOUND:                -0.774
REMARK SMILES O=C(Nc1cccc(OC(F)F)c1)c1cccc(Nc2ncccn2)c1
REMARK SMILES IDX 4 1 5 2 6 3 7 4 8 5 13 6 3 7 1 8 2 9 14 11 15 12 26 13 16 14
REMARK SMILES IDX 18 15 17 16 19 17 20 19 21 20 25 21 22 22 24 23 23 24 9 25
REMARK SMILES IDX 10 26 11 27 12 28
REMARK H PARENT 3 10 19 18
ROOT
ATOM      1  C   UNL     1       1.991  44.653  54.296  1.00  0.00     0.045 A 
ATOM      2  C   UNL     1       0.767  44.598  53.612  1.00  0.00     0.026 A 
ATOM      3  C   UNL     1      -0.430  44.856  54.283  1.00  0.00     0.006 A 
ATOM      4  C   UNL     1      -0.419  45.158  55.645  1.00  0.00     0.047 A 
ATOM      5  C   UNL     1       0.786  45.196  56.355  1.00  0.00     0.128 A 
ATOM      6  C   UNL     1       1.994  44.936  55.675  1.00  0.00     0.072 A 
ENDROOT
BRANCH   1   7
ATOM      7  N   UNL     1       3.209  44.365  53.588  1.00  0.00    -0.322 N 
ATOM      8  O   UNL     1       2.547  42.320  52.678  1.00  0.00    -0.269 OA
ATOM      9  C   UNL     1       3.344  43.296  52.636  1.00  0.00     0.255 C 
ATOM     10  H   UNL     1       4.071  44.886  53.868  1.00  0.00     0.170 HD
BRANCH   9  11
ATOM     11  C   UNL     1       4.441  43.303  51.638  1.00  0.00     0.042 A 
ATOM     12  C   UNL     1       4.725  42.160  50.870  1.00  0.00     0.014 A 
ATOM     13  C   UNL     1       5.236  44.453  51.467  1.00  0.00     0.040 A 
ATOM     14  C   UNL     1       5.776  42.168  49.951  1.00  0.00     0.003 A 
ATOM     15  C   UNL     1       6.279  44.472  50.522  1.00  0.00     0.042 A 
ATOM     16  C   UNL     1       6.552  43.316  49.781  1.00  0.00     0.026 A 
BRANCH  15  17
ATOM     17  N   UNL     1       7.108  45.634  50.347  1.00  0.00    -0.324 N 
ATOM     18  H   UNL     1       6.972  46.211  49.485  1.00  0.00     0.170 HD
BRANCH  17  19
ATOM     19  C   UNL     1       8.035  46.118  51.329  1.00  0.00     0.227 A 
ATOM     20  N   UNL     1       9.350  45.781  51.234  1.00  0.00    -0.221 NA
ATOM     21  N   UNL     1       7.625  46.952  52.324  1.00  0.00    -0.221 NA
ATOM     22  C   UNL     1      10.259  46.246  52.129  1.00  0.00     0.117 A 
ATOM     23  C   UNL     1       8.504  47.438  53.239  1.00  0.00     0.117 A 
ATOM     24  C   UNL     1       9.851  47.089  53.161  1.00  0.00     0.040 A 
ENDBRANCH  17  19
ENDBRANCH  15  17
ENDBRANCH   9  11
ENDBRANCH   1   7
BRANCH   5  25
ATOM     25  O   UNL     1       0.740  45.492  57.726  1.00  0.00    -0.435 OA
BRANCH  25  26
ATOM     26  C   UNL     1       0.858  46.799  58.280  1.00  0.00     0.542 C 
ATOM     27  F   UNL     1      -0.403  47.275  58.584  1.00  0.00    -0.167 F 
ATOM     28  F   UNL     1       1.612  46.756  59.439  1.00  0.00    -0.167 F 
ENDBRANCH  25  26
ENDBRANCH   5  25
TORSDOF 6
ENDMDL
MODEL 3
REMARK VINA RESULT:    -8.592      1.584      2.151
REMARK INTER + INTRA:         -12.380
REMARK INTER:                 -11.609
REMARK INTRA:                  -0.771
REMARK UNBOUND:                -0.774
REMARK SMILES O=C(Nc1cccc(OC(F)F)c1)c1cccc(Nc2ncccn2)c1
REMARK SMILES IDX 4 1 5 2 6 3 7 4 8 5 13 6 3 7 1 8 2 9 14 11 15 12 26 13 16 14
REMARK SMILES IDX 18 15 17 16 19 17 20 19 21 20 25 21 22 22 24 23 23 24 9 25
REMARK SMILES IDX 10 26 11 27 12 28
REMARK H PARENT 3 10 19 18
ROOT
ATOM      1  C   UNL     1       5.381  45.269  52.127  1.00  0.00     0.045 A 
ATOM      2  C   UNL     1       5.447  44.556  50.921  1.00  0.00     0.026 A 
ATOM      3  C   UNL     1       6.574  44.654  50.103  1.00  0.00     0.006 A 
ATOM      4  C   UNL     1       7.641  45.474  50.475  1.00  0.00     0.047 A 
ATOM      5  C   UNL     1       7.588  46.214  51.661  1.00  0.00     0.128 A 
ATOM      6  C   UNL     1       6.449  46.112  52.486  1.00  0.00     0.072 A 
ENDROOT
BRANCH   1   7
ATOM      7  N   UNL     1       4.201  45.167  52.943  1.00  0.00    -0.322 N 
ATOM      8  O   UNL     1       3.144  47.105  52.181  1.00  0.00    -0.269 OA
ATOM      9  C   UNL     1       3.037  45.995  52.770  1.00  0.00     0.255 C 
ATOM     10  H   UNL     1       4.238  44.540  53.778  1.00  0.00     0.170 HD
BRANCH   9  11
ATOM     11  C   UNL     1       1.723  45.581  53.319  1.00  0.00     0.042 A 
ATOM     12  C   UNL     1       0.622  45.366  52.471  1.00  0.00     0.014 A 
ATOM     13  C   UNL     1       1.553  45.428  54.709  1.00  0.00     0.040 A 
ATOM     14  C   UNL     1      -0.618  45.002  53.001  1.00  0.00     0.003 A 
ATOM     15  C   UNL     1       0.312  45.035  55.242  1.00  0.00     0.042 A 
ATOM     16  C   UNL     1      -0.774  44.842  54.379  1.00  0.00     0.026 A 
BRANCH  15  17
ATOM     17  N   UNL     1       0.119  44.889  56.659  1.00  0.00    -0.324 N 
ATOM     18  H   UNL     1       0.217  43.934  57.074  1.00  0.00     0.170 HD
BRANCH  17  19
ATOM     19  C   UNL     1      -0.089  45.985  57.562  1.00  0.00     0.227 A 
ATOM     20  N   UNL     1       0.942  46.419  58.337  1.00  0.00    -0.221 NA
ATOM     21  N   UNL     1      -1.287  46.629  57.615  1.00  0.00    -0.221 NA
ATOM     22  C   UNL     1       0.789  47.473  59.181  1.00  0.00     0.117 A 
ATOM     23  C   UNL     1      -1.480  47.686  58.446  1.00  0.00     0.117 A 
ATOM     24  C   UNL     1      -0.437  48.132  59.255  1.00  0.00     0.040 A 
ENDBRANCH  17  19
ENDBRANCH  15  17
ENDBRANCH   9  11
ENDBRANCH   1   7
BRANCH   5  25
ATOM     25  O   UNL     1       8.682  47.033  51.981  1.00  0.00    -0.435 OA
BRANCH  25  26
ATOM     26  C   UNL     1       9.868  46.588  52.633  1.00  0.00     0.542 C 
ATOM     27  F   UNL     1      10.863  46.415  51.690  1.00  0.00    -0.167 F 
ATOM     28  F   UNL     1      10.283  47.532  53.555  1.00  0.00    -0.167 F 
ENDBRANCH  25  26
ENDBRANCH   5  25
TORSDOF 6
ENDMDL
MODEL 4
REMARK VINA RESULT:    -8.439      6.058      9.457
REMARK INTER + INTRA:         -12.174
REMARK INTER:                 -11.281
REMARK INTRA:                  -0.893
REMARK UNBOUND:                -0.774
REMARK SMILES O=C(Nc1cccc(OC(F)F)c1)c1cccc(Nc2ncccn2)c1
REMARK SMILES IDX 4 1 5 2 6 3 7 4 8 5 13 6 3 7 1 8 2 9 14 11 15 12 26 13 16 14
REMARK SMILES IDX 18 15 17 16 19 17 20 19 21 20 25 21 22 22 24 23 23 24 9 25
REMARK SMILES IDX 10 26 11 27 12 28
REMARK H PARENT 3 10 19 18
ROOT
ATOM      1  C   UNL     1       2.061  43.184  52.112  1.00  0.00     0.045 A 
ATOM      2  C   UNL     1       1.646  42.633  53.334  1.00  0.00     0.026 A 
ATOM      3  C   UNL     1       0.305  42.304  53.541  1.00  0.00     0.006 A 
ATOM      4  C   UNL     1      -0.636  42.534  52.536  1.00  0.00     0.047 A 
ATOM      5  C   UNL     1      -0.251  43.104  51.318  1.00  0.00     0.128 A 
ATOM      6  C   UNL     1       1.104  43.435  51.111  1.00  0.00     0.072 A 
ENDROOT
BRANCH   1   7
ATOM      7  N   UNL     1       3.445  43.532  51.929  1.00  0.00    -0.322 N 
ATOM      8  O   UNL     1       4.083  41.612  50.764  1.00  0.00    -0.269 OA
ATOM      9  C   UNL     1       4.342  42.808  51.070  1.00  0.00     0.255 C 
ATOM     10  H   UNL     1       3.845  44.278  52.541  1.00  0.00     0.170 HD
BRANCH   9  11
ATOM     11  C   UNL     1       5.596  43.432  50.583  1.00  0.00     0.042 A 
ATOM     12  C   UNL     1       6.455  42.741  49.709  1.00  0.00     0.014 A 
ATOM     13  C   UNL     1       5.960  44.722  51.015  1.00  0.00     0.040 A 
ATOM     14  C   UNL     1       7.645  43.329  49.276  1.00  0.00     0.003 A 
ATOM     15  C   UNL     1       7.145  45.327  50.559  1.00  0.00     0.042 A 
ATOM     16  C   UNL     1       7.992  44.612  49.702  1.00  0.00     0.026 A 
BRANCH  15  17
ATOM     17  N   UNL     1       7.536  46.637  51.002  1.00  0.00    -0.324 N 
ATOM     18  H   UNL     1       7.191  47.463  50.463  1.00  0.00     0.170 HD
BRANCH  17  19
ATOM     19  C   UNL     1       8.278  46.893  52.203  1.00  0.00     0.227 A 
ATOM     20  N   UNL     1       7.626  47.334  53.313  1.00  0.00    -0.221 NA
ATOM     21  N   UNL     1       9.617  46.651  52.263  1.00  0.00    -0.221 NA
ATOM     22  C   UNL     1       8.291  47.558  54.476  1.00  0.00     0.117 A 
ATOM     23  C   UNL     1      10.318  46.864  53.407  1.00  0.00     0.117 A 
ATOM     24  C   UNL     1       9.664  47.328  54.546  1.00  0.00     0.040 A 
ENDBRANCH  17  19
ENDBRANCH  15  17
ENDBRANCH   9  11
ENDBRANCH   1   7
BRANCH   5  25
ATOM     25  O   UNL     1      -1.240  43.327  50.348  1.00  0.00    -0.435 OA
BRANCH  25  26
ATOM     26  C   UNL     1      -2.229  44.351  50.416  1.00  0.00     0.542 C 
ATOM     27  F   UNL     1      -1.743  45.397  51.177  1.00  0.00    -0.167 F 
ATOM     28  F   UNL     1      -2.516  44.816  49.145  1.00  0.00    -0.167 F 
ENDBRANCH  25  26
ENDBRANCH   5  25
TORSDOF 6
ENDMDL
MODEL 5
REMARK VINA RESULT:    -8.388      5.187      9.474
REMARK INTER + INTRA:         -12.104
REMARK INTER:                 -11.248
REMARK INTRA:                  -0.856
REMARK UNBOUND:                -0.774
REMARK SMILES O=C(Nc1cccc(OC(F)F)c1)c1cccc(Nc2ncccn2)c1
REMARK SMILES IDX 4 1 5 2 6 3 7 4 8 5 13 6 3 7 1 8 2 9 14 11 15 12 26 13 16 14
REMARK SMILES IDX 18 15 17 16 19 17 20 19 21 20 25 21 22 22 24 23 23 24 9 25
REMARK SMILES IDX 10 26 11 27 12 28
REMARK H PARENT 3 10 19 18
ROOT
ATOM      1  C   UNL     1       1.456  43.811  53.996  1.00  0.00     0.045 A 
ATOM      2  C   UNL     1       1.782  44.733  55.001  1.00  0.00     0.026 A 
ATOM      3  C   UNL     1       0.795  45.217  55.862  1.00  0.00     0.006 A 
ATOM      4  C   UNL     1      -0.528  44.796  55.720  1.00  0.00     0.047 A 
ATOM      5  C   UNL     1      -0.882  43.895  54.710  1.00  0.00     0.128 A 
ATOM      6  C   UNL     1       0.116  43.407  53.842  1.00  0.00     0.072 A 
ENDROOT
BRANCH   1   7
ATOM      7  N   UNL     1       2.486  43.341  53.109  1.00  0.00    -0.322 N 
ATOM      8  O   UNL     1       2.052  44.809  51.346  1.00  0.00    -0.269 OA
ATOM      9  C   UNL     1       2.864  44.017  51.897  1.00  0.00     0.255 C 
ATOM     10  H   UNL     1       2.898  42.399  53.295  1.00  0.00     0.170 HD
BRANCH   9  11
ATOM     11  C   UNL     1       4.178  43.755  51.260  1.00  0.00     0.042 A 
ATOM     12  C   UNL     1       4.541  42.456  50.863  1.00  0.00     0.014 A 
ATOM     13  C   UNL     1       5.096  44.806  51.072  1.00  0.00     0.040 A 
ATOM     14  C   UNL     1       5.790  42.216  50.287  1.00  0.00     0.003 A 
ATOM     15  C   UNL     1       6.344  44.571  50.467  1.00  0.00     0.042 A 
ATOM     16  C   UNL     1       6.689  43.266  50.094  1.00  0.00     0.026 A 
BRANCH  15  17
ATOM     17  N   UNL     1       7.297  45.632  50.281  1.00  0.00    -0.324 N 
ATOM     18  H   UNL     1       7.344  46.094  49.345  1.00  0.00     0.170 HD
BRANCH  17  19
ATOM     19  C   UNL     1       8.112  46.176  51.330  1.00  0.00     0.227 A 
ATOM     20  N   UNL     1       9.416  45.797  51.430  1.00  0.00    -0.221 NA
ATOM     21  N   UNL     1       7.614  47.104  52.192  1.00  0.00    -0.221 NA
ATOM     22  C   UNL     1      10.224  46.314  52.391  1.00  0.00     0.117 A 
ATOM     23  C   UNL     1       8.390  47.644  53.168  1.00  0.00     0.117 A 
ATOM     24  C   UNL     1       9.723  47.254  53.290  1.00  0.00     0.040 A 
ENDBRANCH  17  19
ENDBRANCH  15  17
ENDBRANCH   9  11
ENDBRANCH   1   7
BRANCH   5  25
ATOM     25  O   UNL     1      -2.229  43.515  54.602  1.00  0.00    -0.435 OA
BRANCH  25  26
ATOM     26  C   UNL     1      -3.156  44.064  53.669  1.00  0.00     0.542 C 
ATOM     27  F   UNL     1      -2.538  45.079  52.964  1.00  0.00    -0.167 F 
ATOM     28  F   UNL     1      -3.567  43.087  52.781  1.00  0.00    -0.167 F 
ENDBRANCH  25  26
ENDBRANCH   5  25
TORSDOF 6
ENDMDL
