MODEL 1
REMARK VINA RESULT:    -8.673      0.000      0.000
REMARK INTER + INTRA:         -11.369
REMARK INTER:                 -10.701
REMARK INTRA:                  -0.668
REMARK UNBOUND:                -0.668
REMARK SMILES C[C@@H]1CCCCN1CCC1CCN(c2ncnc3[nH]ncc23)CC1
REMARK SMILES IDX 9 1 8 2 7 3 2 4 3 5 4 6 6 7 5 8 1 9 10 10 11 11 24 12 12 13
REMARK SMILES IDX 23 14 13 15 14 16 15 17 22 18 16 19 21 20 18 21 17 22 20 23
REMARK SMILES IDX 19 24
REMARK H PARENT 19 25
ROOT
ATOM      1  C   UNL     1       6.163  46.407  51.747  1.00  0.00     0.019 C 
ENDROOT
BRANCH   1   2
ATOM      2  C   UNL     1       7.580  45.828  51.612  1.00  0.00     0.085 C 
BRANCH   2   3
ATOM      3  N   UNL     1       8.577  46.926  51.506  1.00  0.00    -0.301 NA
ATOM      4  C   UNL     1       9.921  46.601  52.047  1.00  0.00     0.053 C 
ATOM      5  C   UNL     1       9.888  46.359  53.577  1.00  0.00     0.019 C 
ATOM      6  C   UNL     1       8.770  47.157  54.271  1.00  0.00     0.003 C 
ATOM      7  C   UNL     1       8.083  48.219  52.046  1.00  0.00     0.085 C 
ATOM      8  C   UNL     1       8.463  48.461  53.528  1.00  0.00     0.016 C 
ATOM      9  C   UNL     1      10.587  45.444  51.290  1.00  0.00     0.024 C 
ENDBRANCH   2   3
ENDBRANCH   1   2
BRANCH   1  10
ATOM     10  C   UNL     1       5.067  45.513  51.118  1.00  0.00    -0.006 C 
ATOM     11  C   UNL     1       3.705  46.258  51.041  1.00  0.00     0.025 C 
ATOM     12  C   UNL     1       4.959  44.163  51.878  1.00  0.00     0.025 C 
ATOM     13  C   UNL     1       2.510  45.303  51.118  1.00  0.00     0.118 C 
ATOM     14  C   UNL     1       3.868  44.186  52.954  1.00  0.00     0.118 C 
ATOM     15  N   UNL     1       2.562  44.511  52.356  1.00  0.00    -0.356 N 
BRANCH  15  16
ATOM     16  C   UNL     1       1.347  43.913  52.851  1.00  0.00     0.143 A 
ATOM     17  N   UNL     1       0.766  42.880  52.165  1.00  0.00    -0.219 NA
ATOM     18  C   UNL     1       0.697  44.347  54.012  1.00  0.00     0.081 A 
ATOM     19  C   UNL     1      -0.394  42.286  52.592  1.00  0.00     0.226 A 
ATOM     20  C   UNL     1       0.899  45.359  54.935  1.00  0.00     0.149 A 
ATOM     21  C   UNL     1      -0.449  43.736  54.415  1.00  0.00     0.160 A 
ATOM     22  N   UNL     1      -1.014  42.715  53.730  1.00  0.00    -0.217 NA
ATOM     23  N   UNL     1      -0.104  45.313  55.848  1.00  0.00    -0.181 NA
ATOM     24  N   UNL     1      -0.922  44.316  55.526  1.00  0.00    -0.261 N 
ATOM     25  H   UNL     1      -1.783  44.055  56.053  1.00  0.00     0.192 HD
ENDBRANCH  15  16
ENDBRANCH   1  10
TORSDOF 4
ENDMDL
MODEL 2
REMARK VINA RESULT:    -8.508      0.958      2.019
REMARK INTER + INTRA:         -11.165
REMARK INTER:                 -10.439
REMARK INTRA:                  -0.726
REMARK UNBOUND:                -0.668
REMARK SMILES C[C@@H]1CCCCN1CCC1CCN(c2ncnc3[nH]ncc23)CC1
REMARK SMILES IDX 9 1 8 2 7 3 2 4 3 5 4 6 6 7 5 8 1 9 10 10 11 11 24 12 12 13
REMARK SMILES IDX 23 14 13 15 14 16 15 17 22 18 16 19 21 20 18 21 17 22 20 23
REMARK SMILES IDX 19 24
REMARK H PARENT 19 25
ROOT
ATOM      1  C   UNL     1       7.168  45.026  50.521  1.00  0.00     0.019 C 
ENDROOT
BRANCH   1   2
ATOM      2  C   UNL     1       7.581  45.729  51.822  1.00  0.00     0.085 C 
BRANCH   2   3
ATOM      3  N   UNL     1       8.525  46.842  51.528  1.00  0.00    -0.301 NA
ATOM      4  C   UNL     1       9.897  46.651  52.062  1.00  0.00     0.053 C 
ATOM      5  C   UNL     1       9.919  46.627  53.611  1.00  0.00     0.019 C 
ATOM      6  C   UNL     1       8.787  47.469  54.225  1.00  0.00     0.003 C 
ATOM      7  C   UNL     1       7.989  48.177  51.898  1.00  0.00     0.085 C 
ATOM      8  C   UNL     1       8.400  48.641  53.318  1.00  0.00     0.016 C 
ATOM      9  C   UNL     1      10.593  45.427  51.452  1.00  0.00     0.024 C 
ENDBRANCH   2   3
ENDBRANCH   1   2
BRANCH   1  10
ATOM     10  C   UNL     1       5.644  44.774  50.411  1.00  0.00    -0.006 C 
ATOM     11  C   UNL     1       4.832  46.028  50.839  1.00  0.00     0.025 C 
ATOM     12  C   UNL     1       5.240  43.507  51.213  1.00  0.00     0.025 C 
ATOM     13  C   UNL     1       3.462  45.668  51.421  1.00  0.00     0.118 C 
ATOM     14  C   UNL     1       4.755  43.843  52.628  1.00  0.00     0.118 C 
ATOM     15  N   UNL     1       3.611  44.768  52.574  1.00  0.00    -0.356 N 
BRANCH  15  16
ATOM     16  C   UNL     1       2.536  44.679  53.531  1.00  0.00     0.143 A 
ATOM     17  N   UNL     1       2.607  45.378  54.706  1.00  0.00    -0.219 NA
ATOM     18  C   UNL     1       1.400  43.884  53.335  1.00  0.00     0.081 A 
ATOM     19  C   UNL     1       1.614  45.317  55.650  1.00  0.00     0.226 A 
ATOM     20  C   UNL     1       0.970  43.004  52.357  1.00  0.00     0.149 A 
ATOM     21  C   UNL     1       0.427  43.847  54.284  1.00  0.00     0.160 A 
ATOM     22  N   UNL     1       0.508  44.543  55.442  1.00  0.00    -0.217 NA
ATOM     23  N   UNL     1      -0.226  42.490  52.739  1.00  0.00    -0.181 NA
ATOM     24  N   UNL     1      -0.553  43.012  53.917  1.00  0.00    -0.261 N 
ATOM     25  H   UNL     1      -1.422  42.789  54.450  1.00  0.00     0.192 HD
ENDBRANCH  15  16
ENDBRANCH   1  10
TORSDOF 4
ENDMDL
MODEL 3
REMARK VINA RESULT:    -8.492      1.408      2.738
REMARK INTER + INTRA:         -11.146
REMARK INTER:                 -10.148
REMARK INTRA:                  -0.998
REMARK UNBOUND:                -0.668
REMARK SMILES C[C@@H]1CCCCN1CCC1CCN(c2ncnc3[nH]ncc23)CC1
REMARK SMILES IDX 9 1 8 2 7 3 2 4 3 5 4 6 6 7 5 8 1 9 10 10 11 11 24 12 12 13
REMARK SMILES IDX 23 14 13 15 14 16 15 17 22 18 16 19 21 20 18 21 17 22 20 23
REMARK SMILES IDX 19 24
REMARK H PARENT 19 25
ROOT
ATOM      1  C   UNL     1       5.167  45.322  50.775  1.00  0.00     0.019 C 
ENDROOT
BRANCH   1   2
ATOM      2  C   UNL     1       5.971  46.350  51.586  1.00  0.00     0.085 C 
BRANCH   2   3
ATOM      3  N   UNL     1       7.165  45.703  52.195  1.00  0.00    -0.301 NA
ATOM      4  C   UNL     1       7.375  46.014  53.632  1.00  0.00     0.053 C 
ATOM      5  C   UNL     1       7.683  47.514  53.862  1.00  0.00     0.019 C 
ATOM      6  C   UNL     1       8.387  48.158  52.656  1.00  0.00     0.003 C 
ATOM      7  C   UNL     1       8.410  45.920  51.415  1.00  0.00     0.085 C 
ATOM      8  C   UNL     1       9.237  47.141  51.889  1.00  0.00     0.016 C 
ATOM      9  C   UNL     1       6.217  45.517  54.509  1.00  0.00     0.024 C 
ENDBRANCH   2   3
ENDBRANCH   1   2
BRANCH   1  10
ATOM     10  C   UNL     1       3.639  45.404  51.017  1.00  0.00    -0.006 C 
ATOM     11  C   UNL     1       3.269  46.643  51.878  1.00  0.00     0.025 C 
ATOM     12  C   UNL     1       3.111  44.079  51.630  1.00  0.00     0.025 C 
ATOM     13  C   UNL     1       2.004  46.420  52.711  1.00  0.00     0.118 C 
ATOM     14  C   UNL     1       3.029  44.137  53.159  1.00  0.00     0.118 C 
ATOM     15  N   UNL     1       2.162  45.248  53.587  1.00  0.00    -0.356 N 
BRANCH  15  16
ATOM     16  C   UNL     1       1.321  45.131  54.752  1.00  0.00     0.143 A 
ATOM     17  N   UNL     1       1.750  45.621  55.957  1.00  0.00    -0.219 NA
ATOM     18  C   UNL     1       0.065  44.514  54.731  1.00  0.00     0.081 A 
ATOM     19  C   UNL     1       0.989  45.525  57.093  1.00  0.00     0.226 A 
ATOM     20  C   UNL     1      -0.694  43.856  53.778  1.00  0.00     0.149 A 
ATOM     21  C   UNL     1      -0.671  44.437  55.872  1.00  0.00     0.160 A 
ATOM     22  N   UNL     1      -0.237  44.926  57.057  1.00  0.00    -0.217 NA
ATOM     23  N   UNL     1      -1.840  43.428  54.364  1.00  0.00    -0.181 NA
ATOM     24  N   UNL     1      -1.821  43.790  55.643  1.00  0.00    -0.261 N 
ATOM     25  H   UNL     1      -2.575  43.586  56.334  1.00  0.00     0.192 HD
ENDBRANCH  15  16
ENDBRANCH   1  10
TORSDOF 4
ENDMDL
MODEL 4
REMARK VINA RESULT:    -8.329      2.424      7.514
REMARK INTER + INTRA:         -10.944
REMARK INTER:                 -10.096
REMARK INTRA:                  -0.848
REMARK UNBOUND:                -0.668
REMARK SMILES C[C@@H]1CCCCN1CCC1CCN(c2ncnc3[nH]ncc23)CC1
REMARK SMILES IDX 9 1 8 2 7 3 2 4 3 5 4 6 6 7 5 8 1 9 10 10 11 11 24 12 12 13
REMARK SMILES IDX 23 14 13 15 14 16 15 17 22 18 16 19 21 20 18 21 17 22 20 23
REMARK SMILES IDX 19 24
REMARK H PARENT 19 25
ROOT
ATOM      1  C   UNL     1       2.413  44.848  53.902  1.00  0.00     0.019 C 
ENDROOT
BRANCH   1   2
ATOM      2  C   UNL     1       3.151  43.728  53.153  1.00  0.00     0.085 C 
BRANCH   2   3
ATOM      3  N   UNL     1       2.761  43.725  51.718  1.00  0.00    -0.301 NA
ATOM      4  C   UNL     1       3.775  43.148  50.799  1.00  0.00     0.053 C 
ATOM      5  C   UNL     1       5.074  43.991  50.766  1.00  0.00     0.019 C 
ATOM      6  C   UNL     1       4.812  45.480  51.051  1.00  0.00     0.003 C 
ATOM      7  C   UNL     1       2.296  45.051  51.235  1.00  0.00     0.085 C 
ATOM      8  C   UNL     1       3.415  45.906  50.590  1.00  0.00     0.016 C 
ATOM      9  C   UNL     1       4.050  41.668  51.094  1.00  0.00     0.024 C 
ENDBRANCH   2   3
ENDBRANCH   1   2
BRANCH   1  10
ATOM     10  C   UNL     1       3.350  45.761  54.730  1.00  0.00    -0.006 C 
ATOM     11  C   UNL     1       3.811  46.995  53.904  1.00  0.00     0.025 C 
ATOM     12  C   UNL     1       4.547  44.949  55.294  1.00  0.00     0.025 C 
ATOM     13  C   UNL     1       5.188  47.506  54.335  1.00  0.00     0.118 C 
ATOM     14  C   UNL     1       5.786  45.036  54.396  1.00  0.00     0.118 C 
ATOM     15  N   UNL     1       6.194  46.440  54.218  1.00  0.00    -0.356 N 
BRANCH  15  16
ATOM     16  C   UNL     1       7.586  46.804  54.121  1.00  0.00     0.143 A 
ATOM     17  N   UNL     1       8.175  47.528  55.123  1.00  0.00    -0.219 NA
ATOM     18  C   UNL     1       8.391  46.469  53.025  1.00  0.00     0.081 A 
ATOM     19  C   UNL     1       9.493  47.904  55.070  1.00  0.00     0.226 A 
ATOM     20  C   UNL     1       8.190  45.826  51.816  1.00  0.00     0.149 A 
ATOM     21  C   UNL     1       9.695  46.850  53.001  1.00  0.00     0.160 A 
ATOM     22  N   UNL     1      10.268  47.565  53.997  1.00  0.00    -0.217 NA
ATOM     23  N   UNL     1       9.360  45.831  51.128  1.00  0.00    -0.181 NA
ATOM     24  N   UNL     1      10.276  46.456  51.860  1.00  0.00    -0.261 N 
ATOM     25  H   UNL     1      11.267  46.612  51.573  1.00  0.00     0.192 HD
ENDBRANCH  15  16
ENDBRANCH   1  10
TORSDOF 4
ENDMDL
MODEL 5
REMARK VINA RESULT:    -8.206      1.908      7.967
REMARK INTER + INTRA:         -10.793
REMARK INTER:                  -9.805
REMARK INTRA:                  -0.988
REMARK UNBOUND:                -0.668
REMARK SMILES C[C@@H]1CCCCN1CCC1CCN(c2ncnc3[nH]ncc23)CC1
REMARK SMILES IDX 9 1 8 2 7 3 2 4 3 5 4 6 6 7 5 8 1 9 10 10 11 11 24 12 12 13
REMARK SMILES IDX 23 14 13 15 14 16 15 17 22 18 16 19 21 20 18 21 17 22 20 23
REMARK SMILES IDX 19 24
REMARK H PARENT 19 25
ROOT
ATOM      1  C   UNL     1       2.029  45.048  54.885  1.00  0.00     0.019 C 
ENDROOT
BRANCH   1   2
ATOM      2  C   UNL     1       1.533  44.655  53.485  1.00  0.00     0.085 C 
BRANCH   2   3
ATOM      3  N   UNL     1       1.554  43.176  53.329  1.00  0.00    -0.301 NA
ATOM      4  C   UNL     1       2.120  42.694  52.043  1.00  0.00     0.053 C 
ATOM      5  C   UNL     1       1.257  43.122  50.831  1.00  0.00     0.019 C 
ATOM      6  C   UNL     1      -0.230  43.274  51.197  1.00  0.00     0.003 C 
ATOM      7  C   UNL     1       0.239  42.540  53.604  1.00  0.00     0.085 C 
ATOM      8  C   UNL     1      -0.629  42.333  52.338  1.00  0.00     0.016 C 
ATOM      9  C   UNL     1       3.594  43.087  51.875  1.00  0.00     0.024 C 
ENDBRANCH   2   3
ENDBRANCH   1   2
BRANCH   1  10
ATOM     10  C   UNL     1       3.185  46.078  54.865  1.00  0.00    -0.006 C 
ATOM     11  C   UNL     1       3.343  46.723  53.460  1.00  0.00     0.025 C 
ATOM     12  C   UNL     1       4.503  45.432  55.370  1.00  0.00     0.025 C 
ATOM     13  C   UNL     1       4.785  47.153  53.172  1.00  0.00     0.118 C 
ATOM     14  C   UNL     1       5.376  44.915  54.222  1.00  0.00     0.118 C 
ATOM     15  N   UNL     1       5.699  46.007  53.288  1.00  0.00    -0.356 N 
BRANCH  15  16
ATOM     16  C   UNL     1       6.979  46.068  52.628  1.00  0.00     0.143 A 
ATOM     17  N   UNL     1       7.117  45.578  51.357  1.00  0.00    -0.219 NA
ATOM     18  C   UNL     1       8.127  46.597  53.231  1.00  0.00     0.081 A 
ATOM     19  C   UNL     1       8.316  45.606  50.693  1.00  0.00     0.226 A 
ATOM     20  C   UNL     1       8.435  47.120  54.475  1.00  0.00     0.149 A 
ATOM     21  C   UNL     1       9.302  46.618  52.547  1.00  0.00     0.160 A 
ATOM     22  N   UNL     1       9.427  46.131  51.291  1.00  0.00    -0.217 NA
ATOM     23  N   UNL     1       9.753  47.442  54.490  1.00  0.00    -0.181 NA
ATOM     24  N   UNL     1      10.276  47.136  53.307  1.00  0.00    -0.261 N 
ATOM     25  H   UNL     1      11.275  47.272  53.041  1.00  0.00     0.192 HD
ENDBRANCH  15  16
ENDBRANCH   1  10
TORSDOF 4
ENDMDL
