ligand_12_conformer_4_docked
     RDKit          3D

 48 51  0  0  0  0  0  0  0  0999 V2000
   -3.3710   47.3440   60.6670 C   0  0  0  0  0  0  0  0  0  0  0  0
   -2.2590   48.1200   60.2410 O   0  0  0  0  0  0  0  0  0  0  0  0
   -1.2270   47.5970   59.4570 C   0  0  0  0  0  0  0  0  0  0  0  0
    0.1110   47.7540   59.8820 C   0  0  0  0  0  0  0  0  0  0  0  0
    1.1590   47.2340   59.1070 C   0  0  0  0  0  0  0  0  0  0  0  0
    0.8400   46.5720   57.9250 C   0  0  0  0  0  0  0  0  0  0  0  0
    1.7380   46.0130   57.0750 N   0  0  0  0  0  0  0  0  0  0  0  0
    1.1080   45.4480   56.0150 C   0  0  0  0  0  0  0  0  0  0  0  0
    1.8260   44.7500   54.9870 N   0  0  0  0  0  0  0  0  0  0  0  0
    2.9100   45.3190   54.2350 C   0  0  0  0  0  0  0  0  0  0  0  0
    3.5640   46.2870   54.7100 O   0  0  0  0  0  0  0  0  0  0  0  0
    3.2870   44.7590   52.9610 N   0  0  0  0  0  0  0  0  0  0  0  0
    2.5750   45.1190   51.7290 C   0  0  0  0  0  0  0  0  0  0  0  0
    3.4860   45.9750   50.8420 C   0  0  0  0  0  0  0  0  0  0  0  0
    4.8560   45.3060   50.6330 C   0  0  0  0  0  0  0  0  0  0  0  0
    5.5320   44.8980   51.9630 C   0  0  1  0  0  0  0  0  0  0  0  0
    5.9710   46.0820   52.7180 N   0  0  0  0  0  0  0  0  0  0  0  0
    7.3470   46.4680   52.9050 C   0  0  0  0  0  0  0  0  0  0  0  0
    8.2790   46.4540   51.8460 C   0  0  0  0  0  0  0  0  0  0  0  0
    9.6060   46.8320   52.0690 C   0  0  0  0  0  0  0  0  0  0  0  0
   10.0180   47.2310   53.3420 C   0  0  0  0  0  0  0  0  0  0  0  0
    9.1030   47.2580   54.3960 C   0  0  0  0  0  0  0  0  0  0  0  0
    7.7740   46.8810   54.1780 C   0  0  0  0  0  0  0  0  0  0  0  0
    4.5590   44.0460   52.7990 C   0  0  0  0  0  0  0  0  0  0  0  0
   -0.5860   45.6020   56.1030 S   0  0  0  0  0  0  0  0  0  0  0  0
   -0.4810   46.4420   57.5480 C   0  0  0  0  0  0  0  0  0  0  0  0
   -1.5010   46.9390   58.2890 N   0  0  0  0  0  0  0  0  0  0  0  0
   -3.4030   47.3217   61.7663 H   0  0  0  0  0  0  0  0  0  0  0  0
   -4.2993   47.7914   60.2822 H   0  0  0  0  0  0  0  0  0  0  0  0
   -3.2713   46.3183   60.2822 H   0  0  0  0  0  0  0  0  0  0  0  0
    0.3314   48.2839   60.8204 H   0  0  0  0  0  0  0  0  0  0  0  0
    2.2058   47.3467   59.4255 H   0  0  0  0  0  0  0  0  0  0  0  0
    1.5610   43.7570   54.8030 H   0  0  0  0  0  0  0  0  0  0  0  0
    2.2923   44.2037   51.1884 H   0  0  0  0  0  0  0  0  0  0  0  0
    1.6698   45.6901   51.9830 H   0  0  0  0  0  0  0  0  0  0  0  0
    3.0034   46.1156   49.8636 H   0  0  0  0  0  0  0  0  0  0  0  0
    3.6456   46.9422   51.3411 H   0  0  0  0  0  0  0  0  0  0  0  0
    4.7169   44.4045   50.0182 H   0  0  0  0  0  0  0  0  0  0  0  0
    5.5110   46.0390   50.1394 H   0  0  0  0  0  0  0  0  0  0  0  0
    6.4266   44.2997   51.7353 H   0  0  0  0  0  0  0  0  0  0  0  0
    5.2440   46.6900   53.1610 H   0  0  0  0  0  0  0  0  0  0  0  0
    7.9598   46.1441   50.8400 H   0  0  0  0  0  0  0  0  0  0  0  0
   10.3279   46.8151   51.2392 H   0  0  0  0  0  0  0  0  0  0  0  0
   11.0641   47.5242   53.5145 H   0  0  0  0  0  0  0  0  0  0  0  0
    9.4273   47.5758   55.3979 H   0  0  0  0  0  0  0  0  0  0  0  0
    7.0563   46.9081   55.0112 H   0  0  0  0  0  0  0  0  0  0  0  0
    4.3787   43.0894   52.2868 H   0  0  0  0  0  0  0  0  0  0  0  0
    4.9992   43.8590   53.7896 H   0  0  0  0  0  0  0  0  0  0  0  0
  1  2  1  0
  2  3  1  0
  3  4  2  0
  4  5  1  0
  5  6  2  0
  6  7  1  0
  7  8  2  0
  8  9  1  0
  9 10  1  0
 10 11  2  0
 10 12  1  0
 12 13  1  0
 13 14  1  0
 14 15  1  0
 15 16  1  0
 16 17  1  0
 17 18  1  0
 18 19  2  0
 19 20  1  0
 20 21  2  0
 21 22  1  0
 22 23  2  0
 16 24  1  0
  8 25  1  0
 25 26  1  0
 26 27  2  0
 27  3  1  0
 26  6  1  0
 24 12  1  0
 23 18  1  0
  1 28  1  0
  1 29  1  0
  1 30  1  0
  4 31  1  0
  5 32  1  0
  9 33  1  0
 13 34  1  0
 13 35  1  0
 14 36  1  0
 14 37  1  0
 15 38  1  0
 15 39  1  0
 16 40  1  6
 17 41  1  0
 19 42  1  0
 20 43  1  0
 21 44  1  0
 22 45  1  0
 23 46  1  0
 24 47  1  0
 24 48  1  0
M  END
>  <meeko>  (1) 
{"is_sidechain": [false], "free_energy": -8.785, "intermolecular_energy": -11.353, "internal_energy": -0.689}

$$$$
ligand_12_conformer_4_docked
     RDKit          3D

 48 51  0  0  0  0  0  0  0  0999 V2000
   11.0340   47.5510   56.5960 C   0  0  0  0  0  0  0  0  0  0  0  0
   11.0180   47.5750   55.1740 O   0  0  0  0  0  0  0  0  0  0  0  0
    9.8790   47.2640   54.4260 C   0  0  0  0  0  0  0  0  0  0  0  0
   10.0270   46.8520   53.0830 C   0  0  0  0  0  0  0  0  0  0  0  0
    8.8930   46.5350   52.3170 C   0  0  0  0  0  0  0  0  0  0  0  0
    7.6410   46.6420   52.9160 C   0  0  0  0  0  0  0  0  0  0  0  0
    6.4590   46.3670   52.3110 N   0  0  0  0  0  0  0  0  0  0  0  0
    5.4240   46.5730   53.1630 C   0  0  0  0  0  0  0  0  0  0  0  0
    4.0640   46.3130   52.7850 N   0  0  0  0  0  0  0  0  0  0  0  0
    3.0950   45.6940   53.6460 C   0  0  0  0  0  0  0  0  0  0  0  0
    3.2510   45.7320   54.8970 O   0  0  0  0  0  0  0  0  0  0  0  0
    1.9180   45.0720   53.0920 N   0  0  0  0  0  0  0  0  0  0  0  0
    1.4360   45.4120   51.7480 C   0  0  0  0  0  0  0  0  0  0  0  0
    1.6630   44.2250   50.8060 C   0  0  0  0  0  0  0  0  0  0  0  0
    1.0900   42.9240   51.3950 C   0  0  0  0  0  0  0  0  0  0  0  0
    1.5880   42.6470   52.8330 C   0  0  1  0  0  0  0  0  0  0  0  0
    3.0150   42.2890   52.8380 N   0  0  0  0  0  0  0  0  0  0  0  0
    3.8460   42.2260   51.6610 C   0  0  0  0  0  0  0  0  0  0  0  0
    3.6940   41.2120   50.6920 C   0  0  0  0  0  0  0  0  0  0  0  0
    4.5230   41.1840   49.5660 C   0  0  0  0  0  0  0  0  0  0  0  0
    5.5040   42.1620   49.3910 C   0  0  0  0  0  0  0  0  0  0  0  0
    5.6570   43.1750   50.3390 C   0  0  0  0  0  0  0  0  0  0  0  0
    4.8310   43.2090   51.4670 C   0  0  0  0  0  0  0  0  0  0  0  0
    1.3310   43.8820   53.7170 C   0  0  0  0  0  0  0  0  0  0  0  0
    5.9380   47.0830   54.7050 S   0  0  0  0  0  0  0  0  0  0  0  0
    7.5450   47.0490   54.2310 C   0  0  0  0  0  0  0  0  0  0  0  0
    8.6310   47.3560   54.9800 N   0  0  0  0  0  0  0  0  0  0  0  0
   10.4630   48.4076   56.9836 H   0  0  0  0  0  0  0  0  0  0  0  0
   10.5784   46.6153   56.9521 H   0  0  0  0  0  0  0  0  0  0  0  0
   12.0730   47.6116   56.9521 H   0  0  0  0  0  0  0  0  0  0  0  0
   11.0300   46.7794   52.6371 H   0  0  0  0  0  0  0  0  0  0  0  0
    8.9918   46.2105   51.2706 H   0  0  0  0  0  0  0  0  0  0  0  0
    3.7590   46.6260   51.8370 H   0  0  0  0  0  0  0  0  0  0  0  0
    0.3617   45.6444   51.7921 H   0  0  0  0  0  0  0  0  0  0  0  0
    1.9865   46.2872   51.3726 H   0  0  0  0  0  0  0  0  0  0  0  0
    1.1689   44.4310   49.8450 H   0  0  0  0  0  0  0  0  0  0  0  0
    2.7465   44.0949   50.6675 H   0  0  0  0  0  0  0  0  0  0  0  0
   -0.0073   42.9990   51.4114 H   0  0  0  0  0  0  0  0  0  0  0  0
    1.4327   42.0937   50.7600 H   0  0  0  0  0  0  0  0  0  0  0  0
    1.0300   41.7917   53.2417 H   0  0  0  0  0  0  0  0  0  0  0  0
    3.4690   42.0570   53.7500 H   0  0  0  0  0  0  0  0  0  0  0  0
    2.9207   40.4407   50.8226 H   0  0  0  0  0  0  0  0  0  0  0  0
    4.4018   40.3888   48.8157 H   0  0  0  0  0  0  0  0  0  0  0  0
    6.1564   42.1342   48.5058 H   0  0  0  0  0  0  0  0  0  0  0  0
    6.4278   43.9471   50.1988 H   0  0  0  0  0  0  0  0  0  0  0  0
    4.9535   44.0121   52.2086 H   0  0  0  0  0  0  0  0  0  0  0  0
    0.2470   44.0281   53.8338 H   0  0  0  0  0  0  0  0  0  0  0  0
    1.7926   43.7249   54.7030 H   0  0  0  0  0  0  0  0  0  0  0  0
  1  2  1  0
  2  3  1  0
  3  4  2  0
  4  5  1  0
  5  6  2  0
  6  7  1  0
  7  8  2  0
  8  9  1  0
  9 10  1  0
 10 11  2  0
 10 12  1  0
 12 13  1  0
 13 14  1  0
 14 15  1  0
 15 16  1  0
 16 17  1  0
 17 18  1  0
 18 19  2  0
 19 20  1  0
 20 21  2  0
 21 22  1  0
 22 23  2  0
 16 24  1  0
  8 25  1  0
 25 26  1  0
 26 27  2  0
 27  3  1  0
 26  6  1  0
 24 12  1  0
 23 18  1  0
  1 28  1  0
  1 29  1  0
  1 30  1  0
  4 31  1  0
  5 32  1  0
  9 33  1  0
 13 34  1  0
 13 35  1  0
 14 36  1  0
 14 37  1  0
 15 38  1  0
 15 39  1  0
 16 40  1  1
 17 41  1  0
 19 42  1  0
 20 43  1  0
 21 44  1  0
 22 45  1  0
 23 46  1  0
 24 47  1  0
 24 48  1  0
M  END
>  <meeko>  (2) 
{"is_sidechain": [false], "free_energy": -8.775, "intermolecular_energy": -11.909, "internal_energy": -0.12}

$$$$
ligand_12_conformer_4_docked
     RDKit          3D

 48 51  0  0  0  0  0  0  0  0999 V2000
   10.9780   47.4730   56.0570 C   0  0  0  0  0  0  0  0  0  0  0  0
    9.8150   48.1660   55.6230 O   0  0  0  0  0  0  0  0  0  0  0  0
    8.9620   47.6660   54.6350 C   0  0  0  0  0  0  0  0  0  0  0  0
    9.4560   47.4810   53.3250 C   0  0  0  0  0  0  0  0  0  0  0  0
    8.6130   46.9800   52.3210 C   0  0  0  0  0  0  0  0  0  0  0  0
    7.2950   46.6790   52.6550 C   0  0  0  0  0  0  0  0  0  0  0  0
    6.3660   46.1850   51.8000 N   0  0  0  0  0  0  0  0  0  0  0  0
    5.1790   46.0030   52.4330 C   0  0  0  0  0  0  0  0  0  0  0  0
    4.0370   45.4490   51.7650 N   0  0  0  0  0  0  0  0  0  0  0  0
    2.6860   45.8810   51.9900 C   0  0  0  0  0  0  0  0  0  0  0  0
    2.4640   47.0330   52.4530 O   0  0  0  0  0  0  0  0  0  0  0  0
    1.5780   45.0250   51.6450 N   0  0  0  0  0  0  0  0  0  0  0  0
    1.7890   43.7400   50.9690 C   0  0  0  0  0  0  0  0  0  0  0  0
    1.4760   42.5940   51.9380 C   0  0  0  0  0  0  0  0  0  0  0  0
    0.0910   42.7700   52.5870 C   0  0  0  0  0  0  0  0  0  0  0  0
   -0.0940   44.1640   53.2320 C   0  0  1  0  0  0  0  0  0  0  0  0
    0.7410   44.3040   54.4360 N   0  0  0  0  0  0  0  0  0  0  0  0
    0.3850   45.0940   55.5890 C   0  0  0  0  0  0  0  0  0  0  0  0
    1.3550   45.5850   56.4870 C   0  0  0  0  0  0  0  0  0  0  0  0
    0.9680   46.3440   57.5960 C   0  0  0  0  0  0  0  0  0  0  0  0
   -0.3810   46.6250   57.8190 C   0  0  0  0  0  0  0  0  0  0  0  0
   -1.3490   46.1510   56.9320 C   0  0  0  0  0  0  0  0  0  0  0  0
   -0.9680   45.3910   55.8210 C   0  0  0  0  0  0  0  0  0  0  0  0
    0.2430   45.2600   52.2040 C   0  0  0  0  0  0  0  0  0  0  0  0
    5.2460   46.4300   54.0810 S   0  0  0  0  0  0  0  0  0  0  0  0
    6.8550   46.8770   53.9480 C   0  0  0  0  0  0  0  0  0  0  0  0
    7.6610   47.3590   54.9250 N   0  0  0  0  0  0  0  0  0  0  0  0
   11.0060   47.4563   57.1565 H   0  0  0  0  0  0  0  0  0  0  0  0
   10.9542   46.4417   55.6751 H   0  0  0  0  0  0  0  0  0  0  0  0
   11.8737   47.9848   55.6751 H   0  0  0  0  0  0  0  0  0  0  0  0
   10.5018   47.7296   53.0915 H   0  0  0  0  0  0  0  0  0  0  0  0
    8.9839   46.8290   51.2965 H   0  0  0  0  0  0  0  0  0  0  0  0
    4.2090   44.7090   51.0490 H   0  0  0  0  0  0  0  0  0  0  0  0
    1.1248   43.6724   50.0948 H   0  0  0  0  0  0  0  0  0  0  0  0
    2.8364   43.6664   50.6410 H   0  0  0  0  0  0  0  0  0  0  0  0
    1.4942   41.6430   51.3855 H   0  0  0  0  0  0  0  0  0  0  0  0
    2.2346   42.5970   52.7345 H   0  0  0  0  0  0  0  0  0  0  0  0
   -0.6796   42.6351   51.8137 H   0  0  0  0  0  0  0  0  0  0  0  0
    0.0012   42.0198   53.3864 H   0  0  0  0  0  0  0  0  0  0  0  0
   -1.1441   44.2733   53.5409 H   0  0  0  0  0  0  0  0  0  0  0  0
    1.6600   43.8070   54.4670 H   0  0  0  0  0  0  0  0  0  0  0  0
    2.4200   45.3702   56.3146 H   0  0  0  0  0  0  0  0  0  0  0  0
    1.7292   46.7208   58.2949 H   0  0  0  0  0  0  0  0  0  0  0  0
   -0.6813   47.2201   58.6940 H   0  0  0  0  0  0  0  0  0  0  0  0
   -2.4117   46.3751   57.1066 H   0  0  0  0  0  0  0  0  0  0  0  0
   -1.7346   45.0229   55.1232 H   0  0  0  0  0  0  0  0  0  0  0  0
   -0.5005   45.2412   51.3935 H   0  0  0  0  0  0  0  0  0  0  0  0
    0.2256   46.2411   52.7011 H   0  0  0  0  0  0  0  0  0  0  0  0
  1  2  1  0
  2  3  1  0
  3  4  2  0
  4  5  1  0
  5  6  2  0
  6  7  1  0
  7  8  2  0
  8  9  1  0
  9 10  1  0
 10 11  2  0
 10 12  1  0
 12 13  1  0
 13 14  1  0
 14 15  1  0
 15 16  1  0
 16 17  1  0
 17 18  1  0
 18 19  2  0
 19 20  1  0
 20 21  2  0
 21 22  1  0
 22 23  2  0
 16 24  1  0
  8 25  1  0
 25 26  1  0
 26 27  2  0
 27  3  1  0
 26  6  1  0
 24 12  1  0
 23 18  1  0
  1 28  1  0
  1 29  1  0
  1 30  1  0
  4 31  1  0
  5 32  1  0
  9 33  1  0
 13 34  1  0
 13 35  1  0
 14 36  1  0
 14 37  1  0
 15 38  1  0
 15 39  1  0
 16 40  1  1
 17 41  1  0
 19 42  1  0
 20 43  1  0
 21 44  1  0
 22 45  1  0
 23 46  1  0
 24 47  1  0
 24 48  1  0
M  END
>  <meeko>  (3) 
{"is_sidechain": [false], "free_energy": -8.483, "intermolecular_energy": -11.003, "internal_energy": -0.648}

$$$$
ligand_12_conformer_4_docked
     RDKit          3D

 48 51  0  0  0  0  0  0  0  0999 V2000
   -3.6190   40.7560   49.4470 C   0  0  0  0  0  0  0  0  0  0  0  0
   -3.5640   42.1660   49.6190 O   0  0  0  0  0  0  0  0  0  0  0  0
   -2.8310   42.7750   50.6430 C   0  0  0  0  0  0  0  0  0  0  0  0
   -3.4870   43.1320   51.8410 C   0  0  0  0  0  0  0  0  0  0  0  0
   -2.7660   43.7430   52.8800 C   0  0  0  0  0  0  0  0  0  0  0  0
   -1.4080   43.9830   52.6880 C   0  0  0  0  0  0  0  0  0  0  0  0
   -0.5810   44.5580   53.5960 N   0  0  0  0  0  0  0  0  0  0  0  0
    0.6800   44.6530   53.1040 C   0  0  0  0  0  0  0  0  0  0  0  0
    1.7630   45.1860   53.8810 N   0  0  0  0  0  0  0  0  0  0  0  0
    2.5830   46.2900   53.4660 C   0  0  0  0  0  0  0  0  0  0  0  0
    2.1450   47.1130   52.6170 O   0  0  0  0  0  0  0  0  0  0  0  0
    3.8860   46.4910   54.0490 N   0  0  0  0  0  0  0  0  0  0  0  0
    4.4290   45.5580   55.0420 C   0  0  0  0  0  0  0  0  0  0  0  0
    5.5900   44.7700   54.4250 C   0  0  0  0  0  0  0  0  0  0  0  0
    6.6240   45.7100   53.7780 C   0  0  0  0  0  0  0  0  0  0  0  0
    5.9850   46.7080   52.7840 C   0  0  1  0  0  0  0  0  0  0  0  0
    5.5140   46.0190   51.5720 N   0  0  0  0  0  0  0  0  0  0  0  0
    6.3180   45.1240   50.7760 C   0  0  0  0  0  0  0  0  0  0  0  0
    7.6150   45.4690   50.3410 C   0  0  0  0  0  0  0  0  0  0  0  0
    8.3600   44.5750   49.5670 C   0  0  0  0  0  0  0  0  0  0  0  0
    7.8280   43.3310   49.2230 C   0  0  0  0  0  0  0  0  0  0  0  0
    6.5490   42.9750   49.6550 C   0  0  0  0  0  0  0  0  0  0  0  0
    5.7990   43.8660   50.4290 C   0  0  0  0  0  0  0  0  0  0  0  0
    4.8280   47.4560   53.4710 C   0  0  0  0  0  0  0  0  0  0  0  0
    0.8190   44.0070   51.5340 S   0  0  0  0  0  0  0  0  0  0  0  0
   -0.8100   43.6180   51.5000 C   0  0  0  0  0  0  0  0  0  0  0  0
   -1.4950   43.0260   50.4920 N   0  0  0  0  0  0  0  0  0  0  0  0
   -3.6381   40.2669   50.4321 H   0  0  0  0  0  0  0  0  0  0  0  0
   -4.5282   40.4900   48.8879 H   0  0  0  0  0  0  0  0  0  0  0  0
   -2.7333   40.4200   48.8879 H   0  0  0  0  0  0  0  0  0  0  0  0
   -4.5620   42.9318   51.9606 H   0  0  0  0  0  0  0  0  0  0  0  0
   -3.2613   44.0246   53.8209 H   0  0  0  0  0  0  0  0  0  0  0  0
    1.9380   44.7620   54.8190 H   0  0  0  0  0  0  0  0  0  0  0  0
    4.7916   46.1216   55.9143 H   0  0  0  0  0  0  0  0  0  0  0  0
    3.6399   44.8596   55.3575 H   0  0  0  0  0  0  0  0  0  0  0  0
    6.0836   44.1831   55.2136 H   0  0  0  0  0  0  0  0  0  0  0  0
    5.1848   44.1099   53.6439 H   0  0  0  0  0  0  0  0  0  0  0  0
    7.1278   46.2793   54.5730 H   0  0  0  0  0  0  0  0  0  0  0  0
    7.3319   45.0860   53.2128 H   0  0  0  0  0  0  0  0  0  0  0  0
    6.7494   47.4366   52.4760 H   0  0  0  0  0  0  0  0  0  0  0  0
    4.5330   46.1850   51.2510 H   0  0  0  0  0  0  0  0  0  0  0  0
    8.0418   46.4459   50.6122 H   0  0  0  0  0  0  0  0  0  0  0  0
    9.3689   44.8525   49.2277 H   0  0  0  0  0  0  0  0  0  0  0  0
    8.4166   42.6312   48.6115 H   0  0  0  0  0  0  0  0  0  0  0  0
    6.1312   41.9935   49.3865 H   0  0  0  0  0  0  0  0  0  0  0  0
    4.7931   43.5789   50.7692 H   0  0  0  0  0  0  0  0  0  0  0  0
    5.2304   48.0967   54.2695 H   0  0  0  0  0  0  0  0  0  0  0  0
    4.3037   48.0750   52.7280 H   0  0  0  0  0  0  0  0  0  0  0  0
  1  2  1  0
  2  3  1  0
  3  4  2  0
  4  5  1  0
  5  6  2  0
  6  7  1  0
  7  8  2  0
  8  9  1  0
  9 10  1  0
 10 11  2  0
 10 12  1  0
 12 13  1  0
 13 14  1  0
 14 15  1  0
 15 16  1  0
 16 17  1  0
 17 18  1  0
 18 19  2  0
 19 20  1  0
 20 21  2  0
 21 22  1  0
 22 23  2  0
 16 24  1  0
  8 25  1  0
 25 26  1  0
 26 27  2  0
 27  3  1  0
 26  6  1  0
 24 12  1  0
 23 18  1  0
  1 28  1  0
  1 29  1  0
  1 30  1  0
  4 31  1  0
  5 32  1  0
  9 33  1  0
 13 34  1  0
 13 35  1  0
 14 36  1  0
 14 37  1  0
 15 38  1  0
 15 39  1  0
 16 40  1  6
 17 41  1  0
 19 42  1  0
 20 43  1  0
 21 44  1  0
 22 45  1  0
 23 46  1  0
 24 47  1  0
 24 48  1  0
M  END
>  <meeko>  (4) 
{"is_sidechain": [false], "free_energy": -8.282, "intermolecular_energy": -10.504, "internal_energy": -0.888}

$$$$
ligand_12_conformer_4_docked
     RDKit          3D

 48 51  0  0  0  0  0  0  0  0999 V2000
   -3.5210   42.8860   58.0090 C   0  0  0  0  0  0  0  0  0  0  0  0
   -3.1560   42.8580   56.6350 O   0  0  0  0  0  0  0  0  0  0  0  0
   -2.0480   43.5480   56.1330 C   0  0  0  0  0  0  0  0  0  0  0  0
   -1.4100   44.5120   56.9440 C   0  0  0  0  0  0  0  0  0  0  0  0
   -0.2960   45.2130   56.4550 C   0  0  0  0  0  0  0  0  0  0  0  0
    0.1480   44.9310   55.1660 C   0  0  0  0  0  0  0  0  0  0  0  0
    1.2100   45.5180   54.5600 N   0  0  0  0  0  0  0  0  0  0  0  0
    1.3790   45.0260   53.3060 C   0  0  0  0  0  0  0  0  0  0  0  0
    2.4600   45.4480   52.4620 N   0  0  0  0  0  0  0  0  0  0  0  0
    3.8480   45.2910   52.7960 C   0  0  0  0  0  0  0  0  0  0  0  0
    4.1980   44.4090   53.6260 O   0  0  0  0  0  0  0  0  0  0  0  0
    4.8500   46.1020   52.1500 N   0  0  0  0  0  0  0  0  0  0  0  0
    5.8150   46.8860   52.9290 C   0  0  0  0  0  0  0  0  0  0  0  0
    7.2110   46.2720   52.7840 C   0  0  0  0  0  0  0  0  0  0  0  0
    7.5830   46.0630   51.3050 C   0  0  0  0  0  0  0  0  0  0  0  0
    6.5020   45.2800   50.5220 C   0  0  1  0  0  0  0  0  0  0  0  0
    6.4580   43.8720   50.9460 N   0  0  0  0  0  0  0  0  0  0  0  0
    5.7470   42.8310   50.2470 C   0  0  0  0  0  0  0  0  0  0  0  0
    6.1530   42.3660   48.9790 C   0  0  0  0  0  0  0  0  0  0  0  0
    5.4330   41.3570   48.3330 C   0  0  0  0  0  0  0  0  0  0  0  0
    4.3070   40.7980   48.9410 C   0  0  0  0  0  0  0  0  0  0  0  0
    3.9000   41.2440   50.2000 C   0  0  0  0  0  0  0  0  0  0  0  0
    4.6170   42.2530   50.8510 C   0  0  0  0  0  0  0  0  0  0  0  0
    5.1300   45.9520   50.7180 C   0  0  0  0  0  0  0  0  0  0  0  0
    0.2320   43.8300   52.9140 S   0  0  0  0  0  0  0  0  0  0  0  0
   -0.5070   43.9800   54.4100 C   0  0  0  0  0  0  0  0  0  0  0  0
   -1.5820   43.2970   54.8720 N   0  0  0  0  0  0  0  0  0  0  0  0
   -2.6159   42.8166   58.6303 H   0  0  0  0  0  0  0  0  0  0  0  0
   -4.0460   43.8271   58.2298 H   0  0  0  0  0  0  0  0  0  0  0  0
   -4.1834   42.0360   58.2298 H   0  0  0  0  0  0  0  0  0  0  0  0
   -1.7855   44.7136   57.9581 H   0  0  0  0  0  0  0  0  0  0  0  0
    0.2130   45.9659   57.0747 H   0  0  0  0  0  0  0  0  0  0  0  0
    2.2140   45.8650   51.5370 H   0  0  0  0  0  0  0  0  0  0  0  0
    5.8300   47.9215   52.5581 H   0  0  0  0  0  0  0  0  0  0  0  0
    5.5208   46.8792   53.9889 H   0  0  0  0  0  0  0  0  0  0  0  0
    7.9477   46.9454   53.2464 H   0  0  0  0  0  0  0  0  0  0  0  0
    7.2108   45.2914   53.2824 H   0  0  0  0  0  0  0  0  0  0  0  0
    7.7154   47.0477   50.8329 H   0  0  0  0  0  0  0  0  0  0  0  0
    8.5090   45.4700   51.2760 H   0  0  0  0  0  0  0  0  0  0  0  0
    6.7597   45.2972   49.4528 H   0  0  0  0  0  0  0  0  0  0  0  0
    6.9690   43.5950   51.8150 H   0  0  0  0  0  0  0  0  0  0  0  0
    7.0410   42.7996   48.4958 H   0  0  0  0  0  0  0  0  0  0  0  0
    5.7544   41.0022   47.3426 H   0  0  0  0  0  0  0  0  0  0  0  0
    3.7408   40.0065   48.4282 H   0  0  0  0  0  0  0  0  0  0  0  0
    3.0148   40.8014   50.6802 H   0  0  0  0  0  0  0  0  0  0  0  0
    4.2938   42.5973   51.8445 H   0  0  0  0  0  0  0  0  0  0  0  0
    5.1376   46.9435   50.2416 H   0  0  0  0  0  0  0  0  0  0  0  0
    4.3503   45.3262   50.2592 H   0  0  0  0  0  0  0  0  0  0  0  0
  1  2  1  0
  2  3  1  0
  3  4  2  0
  4  5  1  0
  5  6  2  0
  6  7  1  0
  7  8  2  0
  8  9  1  0
  9 10  1  0
 10 11  2  0
 10 12  1  0
 12 13  1  0
 13 14  1  0
 14 15  1  0
 15 16  1  0
 16 17  1  0
 17 18  1  0
 18 19  2  0
 19 20  1  0
 20 21  2  0
 21 22  1  0
 22 23  2  0
 16 24  1  0
  8 25  1  0
 25 26  1  0
 26 27  2  0
 27  3  1  0
 26  6  1  0
 24 12  1  0
 23 18  1  0
  1 28  1  0
  1 29  1  0
  1 30  1  0
  4 31  1  0
  5 32  1  0
  9 33  1  0
 13 34  1  0
 13 35  1  0
 14 36  1  0
 14 37  1  0
 15 38  1  0
 15 39  1  0
 16 40  1  6
 17 41  1  0
 19 42  1  0
 20 43  1  0
 21 44  1  0
 22 45  1  0
 23 46  1  0
 24 47  1  0
 24 48  1  0
M  END
>  <meeko>  (5) 
{"is_sidechain": [false], "free_energy": -8.195, "intermolecular_energy": -10.363, "internal_energy": -0.916}

$$$$
