MODEL 1
REMARK VINA RESULT:    -8.476      0.000      0.000
REMARK INTER + INTRA:         -11.704
REMARK INTER:                 -10.954
REMARK INTRA:                  -0.750
REMARK UNBOUND:                -0.750
REMARK SMILES Cc1cc(NC(=O)NC2CCN([C@@H](C)c3ccccc3)CC2)nn1-c1ccc(F)cc1F
REMARK SMILES IDX 5 1 6 2 7 3 8 4 4 7 2 8 3 9 24 10 23 11 1 12 25 13 26 14
REMARK SMILES IDX 31 15 27 16 30 17 28 18 32 19 29 20 9 21 10 22 22 23 11 24
REMARK SMILES IDX 21 25 12 26 13 27 14 28 15 29 16 30 20 31 17 32 19 33 18 34
REMARK H PARENT 5 5 8 6
ROOT
ATOM      1  N   UNL     1      -0.419  44.913  54.432  1.00  0.00    -0.291 N 
ATOM      2  C   UNL     1       1.001  45.060  54.275  1.00  0.00     0.320 C 
ATOM      3  O   UNL     1       1.690  45.612  55.176  1.00  0.00    -0.248 OA
ATOM      4  N   UNL     1       1.627  44.617  53.063  1.00  0.00    -0.335 N 
ATOM      5  H   UNL     1      -0.973  44.601  53.603  1.00  0.00     0.173 HD
ATOM      6  H   UNL     1       1.045  44.104  52.363  1.00  0.00     0.165 HD
ENDROOT
BRANCH   1   7
ATOM      7  C   UNL     1      -1.150  45.260  55.619  1.00  0.00     0.156 A 
ATOM      8  C   UNL     1      -2.516  45.283  57.315  1.00  0.00     0.043 A 
ATOM      9  C   UNL     1      -2.102  44.490  56.265  1.00  0.00     0.072 A 
ATOM     10  N   UNL     1      -1.831  46.449  57.282  1.00  0.00    -0.233 N 
ATOM     11  N   UNL     1      -1.011  46.447  56.240  1.00  0.00    -0.150 NA
ATOM     12  C   UNL     1      -3.575  44.908  58.308  1.00  0.00     0.067 C 
BRANCH  10  13
ATOM     13  C   UNL     1      -1.946  47.561  58.184  1.00  0.00     0.101 A 
ATOM     14  C   UNL     1      -3.146  48.287  58.275  1.00  0.00     0.034 A 
ATOM     15  C   UNL     1      -0.868  47.909  59.017  1.00  0.00     0.151 A 
ATOM     16  C   UNL     1      -3.255  49.361  59.159  1.00  0.00     0.041 A 
ATOM     17  C   UNL     1      -0.980  48.988  59.896  1.00  0.00     0.080 A 
ATOM     18  C   UNL     1      -2.174  49.711  59.970  1.00  0.00     0.126 A 
ATOM     19  F   UNL     1       0.301  47.225  58.952  1.00  0.00    -0.205 F 
ATOM     20  F   UNL     1      -2.280  50.757  60.824  1.00  0.00    -0.207 F 
ENDBRANCH  10  13
ENDBRANCH   1   7
BRANCH   4  21
ATOM     21  C   UNL     1       3.053  44.804  52.781  1.00  0.00     0.086 C 
ATOM     22  C   UNL     1       3.702  43.457  52.405  1.00  0.00     0.040 C 
ATOM     23  C   UNL     1       3.235  45.818  51.647  1.00  0.00     0.040 C 
ATOM     24  C   UNL     1       5.022  43.641  51.629  1.00  0.00     0.087 C 
ATOM     25  C   UNL     1       4.731  46.044  51.329  1.00  0.00     0.087 C 
ATOM     26  N   UNL     1       5.592  44.978  51.891  1.00  0.00    -0.296 NA
BRANCH  26  27
ATOM     27  C   UNL     1       7.015  45.145  51.498  1.00  0.00     0.083 C 
ATOM     28  C   UNL     1       7.127  45.626  50.045  1.00  0.00     0.030 C 
BRANCH  27  29
ATOM     29  C   UNL     1       7.830  45.992  52.475  1.00  0.00    -0.031 A 
ATOM     30  C   UNL     1       7.301  46.438  53.704  1.00  0.00     0.005 A 
ATOM     31  C   UNL     1       9.154  46.339  52.149  1.00  0.00     0.005 A 
ATOM     32  C   UNL     1       8.079  47.204  54.577  1.00  0.00     0.000 A 
ATOM     33  C   UNL     1       9.929  47.101  53.028  1.00  0.00     0.000 A 
ATOM     34  C   UNL     1       9.391  47.536  54.240  1.00  0.00     0.000 A 
ENDBRANCH  27  29
ENDBRANCH  26  27
ENDBRANCH   4  21
TORSDOF 5
ENDMDL
MODEL 2
REMARK VINA RESULT:    -8.215      2.841     10.221
REMARK INTER + INTRA:         -11.366
REMARK INTER:                 -11.264
REMARK INTRA:                  -0.103
REMARK UNBOUND:                -0.750
REMARK SMILES Cc1cc(NC(=O)NC2CCN([C@@H](C)c3ccccc3)CC2)nn1-c1ccc(F)cc1F
REMARK SMILES IDX 5 1 6 2 7 3 8 4 4 7 2 8 3 9 24 10 23 11 1 12 25 13 26 14
REMARK SMILES IDX 31 15 27 16 30 17 28 18 32 19 29 20 9 21 10 22 22 23 11 24
REMARK SMILES IDX 21 25 12 26 13 27 14 28 15 29 16 30 20 31 17 32 19 33 18 34
REMARK H PARENT 5 5 8 6
ROOT
ATOM      1  N   UNL     1       1.866  43.415  53.735  1.00  0.00    -0.291 N 
ATOM      2  C   UNL     1       1.091  44.490  54.287  1.00  0.00     0.320 C 
ATOM      3  O   UNL     1       1.496  45.681  54.199  1.00  0.00    -0.248 OA
ATOM      4  N   UNL     1      -0.129  44.197  54.982  1.00  0.00    -0.335 N 
ATOM      5  H   UNL     1       1.581  42.437  53.968  1.00  0.00     0.173 HD
ATOM      6  H   UNL     1      -0.476  43.211  54.983  1.00  0.00     0.165 HD
ENDROOT
BRANCH   1   7
ATOM      7  C   UNL     1       3.067  43.585  52.967  1.00  0.00     0.156 A 
ATOM      8  C   UNL     1       4.684  43.385  51.521  1.00  0.00     0.043 A 
ATOM      9  C   UNL     1       3.455  42.856  51.855  1.00  0.00     0.072 A 
ATOM     10  N   UNL     1       4.987  44.377  52.390  1.00  0.00    -0.233 N 
ATOM     11  N   UNL     1       4.014  44.489  53.284  1.00  0.00    -0.150 NA
ATOM     12  C   UNL     1       5.543  42.910  50.388  1.00  0.00     0.067 C 
BRANCH  10  13
ATOM     13  C   UNL     1       6.168  45.194  52.413  1.00  0.00     0.101 A 
ATOM     14  C   UNL     1       6.727  45.676  51.217  1.00  0.00     0.034 A 
ATOM     15  C   UNL     1       6.752  45.556  53.639  1.00  0.00     0.151 A 
ATOM     16  C   UNL     1       7.870  46.477  51.245  1.00  0.00     0.041 A 
ATOM     17  C   UNL     1       7.899  46.353  53.662  1.00  0.00     0.080 A 
ATOM     18  C   UNL     1       8.455  46.816  52.467  1.00  0.00     0.126 A 
ATOM     19  F   UNL     1       6.233  45.107  54.809  1.00  0.00    -0.205 F 
ATOM     20  F   UNL     1       9.567  47.589  52.492  1.00  0.00    -0.207 F 
ENDBRANCH  10  13
ENDBRANCH   1   7
BRANCH   4  21
ATOM     21  C   UNL     1      -0.939  45.220  55.649  1.00  0.00     0.086 C 
ATOM     22  C   UNL     1      -2.327  44.651  56.007  1.00  0.00     0.040 C 
ATOM     23  C   UNL     1      -0.225  45.716  56.911  1.00  0.00     0.040 C 
ATOM     24  C   UNL     1      -3.022  45.462  57.118  1.00  0.00     0.087 C 
ATOM     25  C   UNL     1      -1.051  46.802  57.635  1.00  0.00     0.087 C 
ATOM     26  N   UNL     1      -2.462  46.828  57.187  1.00  0.00    -0.296 NA
BRANCH  26  27
ATOM     27  C   UNL     1      -3.275  47.805  57.957  1.00  0.00     0.083 C 
ATOM     28  C   UNL     1      -2.863  47.813  59.436  1.00  0.00     0.030 C 
BRANCH  27  29
ATOM     29  C   UNL     1      -3.311  49.202  57.337  1.00  0.00    -0.031 A 
ATOM     30  C   UNL     1      -3.538  49.406  55.960  1.00  0.00     0.005 A 
ATOM     31  C   UNL     1      -3.118  50.327  58.160  1.00  0.00     0.005 A 
ATOM     32  C   UNL     1      -3.574  50.699  55.430  1.00  0.00     0.000 A 
ATOM     33  C   UNL     1      -3.160  51.617  57.625  1.00  0.00     0.000 A 
ATOM     34  C   UNL     1      -3.384  51.803  56.260  1.00  0.00     0.000 A 
ENDBRANCH  27  29
ENDBRANCH  26  27
ENDBRANCH   4  21
TORSDOF 5
ENDMDL
MODEL 3
REMARK VINA RESULT:    -7.893      3.704      5.804
REMARK INTER + INTRA:         -10.949
REMARK INTER:                 -11.490
REMARK INTRA:                   0.541
REMARK UNBOUND:                -0.750
REMARK SMILES Cc1cc(NC(=O)NC2CCN([C@@H](C)c3ccccc3)CC2)nn1-c1ccc(F)cc1F
REMARK SMILES IDX 5 1 6 2 7 3 8 4 4 7 2 8 3 9 24 10 23 11 1 12 25 13 26 14
REMARK SMILES IDX 31 15 27 16 30 17 28 18 32 19 29 20 9 21 10 22 22 23 11 24
REMARK SMILES IDX 21 25 12 26 13 27 14 28 15 29 16 30 20 31 17 32 19 33 18 34
REMARK H PARENT 5 5 8 6
ROOT
ATOM      1  N   UNL     1       1.248  45.216  55.755  1.00  0.00    -0.291 N 
ATOM      2  C   UNL     1       2.403  45.673  55.033  1.00  0.00     0.320 C 
ATOM      3  O   UNL     1       2.393  45.718  53.773  1.00  0.00    -0.248 OA
ATOM      4  N   UNL     1       3.589  46.034  55.755  1.00  0.00    -0.335 N 
ATOM      5  H   UNL     1       1.350  45.041  56.780  1.00  0.00     0.173 HD
ATOM      6  H   UNL     1       3.549  46.052  56.799  1.00  0.00     0.165 HD
ENDROOT
BRANCH   1   7
ATOM      7  C   UNL     1      -0.013  44.887  55.153  1.00  0.00     0.156 A 
ATOM      8  C   UNL     1      -2.101  44.384  54.787  1.00  0.00     0.043 A 
ATOM      9  C   UNL     1      -1.227  44.725  55.798  1.00  0.00     0.072 A 
ATOM     10  N   UNL     1      -1.427  44.360  53.614  1.00  0.00    -0.233 N 
ATOM     11  N   UNL     1      -0.152  44.647  53.834  1.00  0.00    -0.150 NA
ATOM     12  C   UNL     1      -3.554  44.071  54.978  1.00  0.00     0.067 C 
BRANCH  10  13
ATOM     13  C   UNL     1      -1.945  44.054  52.310  1.00  0.00     0.101 A 
ATOM     14  C   UNL     1      -1.983  42.727  51.849  1.00  0.00     0.034 A 
ATOM     15  C   UNL     1      -2.460  45.079  51.496  1.00  0.00     0.151 A 
ATOM     16  C   UNL     1      -2.496  42.434  50.584  1.00  0.00     0.041 A 
ATOM     17  C   UNL     1      -2.967  44.782  50.229  1.00  0.00     0.080 A 
ATOM     18  C   UNL     1      -2.988  43.461  49.775  1.00  0.00     0.126 A 
ATOM     19  F   UNL     1      -2.437  46.369  51.916  1.00  0.00    -0.205 F 
ATOM     20  F   UNL     1      -3.480  43.175  48.546  1.00  0.00    -0.207 F 
ENDBRANCH  10  13
ENDBRANCH   1   7
BRANCH   4  21
ATOM     21  C   UNL     1       4.839  46.428  55.099  1.00  0.00     0.086 C 
ATOM     22  C   UNL     1       5.701  45.185  54.805  1.00  0.00     0.040 C 
ATOM     23  C   UNL     1       4.535  47.186  53.802  1.00  0.00     0.040 C 
ATOM     24  C   UNL     1       6.749  45.447  53.705  1.00  0.00     0.087 C 
ATOM     25  C   UNL     1       5.834  47.622  53.088  1.00  0.00     0.087 C 
ATOM     26  N   UNL     1       7.023  46.895  53.588  1.00  0.00    -0.296 NA
BRANCH  26  27
ATOM     27  C   UNL     1       8.252  47.244  52.830  1.00  0.00     0.083 C 
ATOM     28  C   UNL     1       9.417  47.539  53.785  1.00  0.00     0.030 C 
BRANCH  27  29
ATOM     29  C   UNL     1       8.612  46.237  51.738  1.00  0.00    -0.031 A 
ATOM     30  C   UNL     1       7.666  45.782  50.796  1.00  0.00     0.005 A 
ATOM     31  C   UNL     1       9.927  45.745  51.660  1.00  0.00     0.005 A 
ATOM     32  C   UNL     1       8.034  44.867  49.805  1.00  0.00     0.000 A 
ATOM     33  C   UNL     1      10.291  44.834  50.664  1.00  0.00     0.000 A 
ATOM     34  C   UNL     1       9.344  44.392  49.740  1.00  0.00     0.000 A 
ENDBRANCH  27  29
ENDBRANCH  26  27
ENDBRANCH   4  21
TORSDOF 5
ENDMDL
MODEL 4
REMARK VINA RESULT:    -7.847      1.426      2.713
REMARK INTER + INTRA:         -10.890
REMARK INTER:                 -10.649
REMARK INTRA:                  -0.241
REMARK UNBOUND:                -0.750
REMARK SMILES Cc1cc(NC(=O)NC2CCN([C@@H](C)c3ccccc3)CC2)nn1-c1ccc(F)cc1F
REMARK SMILES IDX 5 1 6 2 7 3 8 4 4 7 2 8 3 9 24 10 23 11 1 12 25 13 26 14
REMARK SMILES IDX 31 15 27 16 30 17 28 18 32 19 29 20 9 21 10 22 22 23 11 24
REMARK SMILES IDX 21 25 12 26 13 27 14 28 15 29 16 30 20 31 17 32 19 33 18 34
REMARK H PARENT 5 5 8 6
ROOT
ATOM      1  N   UNL     1      -0.860  44.482  55.330  1.00  0.00    -0.291 N 
ATOM      2  C   UNL     1       0.414  44.884  54.805  1.00  0.00     0.320 C 
ATOM      3  O   UNL     1       0.949  45.962  55.181  1.00  0.00    -0.248 OA
ATOM      4  N   UNL     1       1.056  44.074  53.810  1.00  0.00    -0.335 N 
ATOM      5  H   UNL     1      -1.341  43.672  54.877  1.00  0.00     0.173 HD
ATOM      6  H   UNL     1       0.626  43.154  53.565  1.00  0.00     0.165 HD
ENDROOT
BRANCH   1   7
ATOM      7  C   UNL     1      -1.570  45.172  56.369  1.00  0.00     0.156 A 
ATOM      8  C   UNL     1      -2.918  45.716  57.991  1.00  0.00     0.043 A 
ATOM      9  C   UNL     1      -2.533  44.645  57.213  1.00  0.00     0.072 A 
ATOM     10  N   UNL     1      -2.207  46.806  57.623  1.00  0.00    -0.233 N 
ATOM     11  N   UNL     1      -1.398  46.484  56.623  1.00  0.00    -0.150 NA
ATOM     12  C   UNL     1      -3.974  45.668  59.054  1.00  0.00     0.067 C 
BRANCH  10  13
ATOM     13  C   UNL     1      -2.287  48.132  58.167  1.00  0.00     0.101 A 
ATOM     14  C   UNL     1      -3.206  49.063  57.652  1.00  0.00     0.034 A 
ATOM     15  C   UNL     1      -1.473  48.500  59.252  1.00  0.00     0.151 A 
ATOM     16  C   UNL     1      -3.286  50.347  58.192  1.00  0.00     0.041 A 
ATOM     17  C   UNL     1      -1.552  49.789  59.785  1.00  0.00     0.080 A 
ATOM     18  C   UNL     1      -2.460  50.710  59.257  1.00  0.00     0.126 A 
ATOM     19  F   UNL     1      -0.577  47.623  59.771  1.00  0.00    -0.205 F 
ATOM     20  F   UNL     1      -2.535  51.960  59.776  1.00  0.00    -0.207 F 
ENDBRANCH  10  13
ENDBRANCH   1   7
BRANCH   4  21
ATOM     21  C   UNL     1       2.314  44.450  53.157  1.00  0.00     0.086 C 
ATOM     22  C   UNL     1       2.072  45.596  52.155  1.00  0.00     0.040 C 
ATOM     23  C   UNL     1       3.346  44.871  54.209  1.00  0.00     0.040 C 
ATOM     24  C   UNL     1       3.366  46.363  51.820  1.00  0.00     0.087 C 
ATOM     25  C   UNL     1       4.687  45.268  53.553  1.00  0.00     0.087 C 
ATOM     26  N   UNL     1       4.550  45.524  52.102  1.00  0.00    -0.296 NA
BRANCH  26  27
ATOM     27  C   UNL     1       5.820  46.002  51.496  1.00  0.00     0.083 C 
ATOM     28  C   UNL     1       6.753  46.580  52.569  1.00  0.00     0.030 C 
BRANCH  27  29
ATOM     29  C   UNL     1       6.503  44.969  50.600  1.00  0.00    -0.031 A 
ATOM     30  C   UNL     1       7.809  45.157  50.100  1.00  0.00     0.005 A 
ATOM     31  C   UNL     1       5.819  43.788  50.261  1.00  0.00     0.005 A 
ATOM     32  C   UNL     1       8.405  44.186  49.290  1.00  0.00     0.000 A 
ATOM     33  C   UNL     1       6.422  42.818  49.456  1.00  0.00     0.000 A 
ATOM     34  C   UNL     1       7.714  43.019  48.967  1.00  0.00     0.000 A 
ENDBRANCH  27  29
ENDBRANCH  26  27
ENDBRANCH   4  21
TORSDOF 5
ENDMDL
