MODEL 1
REMARK VINA RESULT:    -8.633      0.000      0.000
REMARK INTER + INTRA:         -12.690
REMARK INTER:                 -11.913
REMARK INTRA:                  -0.776
REMARK UNBOUND:                -0.776
REMARK SMILES CC[C@@](C)(O)Cc1cn(Cc2cc(C(F)(F)F)ncc2F)nn1
REMARK SMILES IDX 7 1 8 2 9 3 22 4 23 5 6 6 3 7 4 8 2 9 1 10 5 11 10 13 11 14
REMARK SMILES IDX 12 15 20 16 13 17 19 18 18 19 21 20 14 21 15 22 16 23 17 24
REMARK H PARENT 5 12
ROOT
ATOM      1  C   UNL     1       6.228  46.642  53.852  1.00  0.00     0.086 A 
ATOM      2  C   UNL     1       5.597  45.453  53.561  1.00  0.00     0.135 A 
ATOM      3  N   UNL     1       4.490  45.781  52.875  1.00  0.00    -0.248 N 
ATOM      4  N   UNL     1       4.453  47.097  52.738  1.00  0.00    -0.067 NA
ATOM      5  N   UNL     1       5.500  47.651  53.332  1.00  0.00    -0.135 NA
ENDROOT
BRANCH   1   6
ATOM      6  C   UNL     1       7.548  46.810  54.550  1.00  0.00     0.094 C 
BRANCH   6   7
ATOM      7  C   UNL     1       8.693  47.318  53.630  1.00  0.00     0.067 C 
ATOM      8  C   UNL     1      10.033  47.293  54.398  1.00  0.00     0.042 C 
BRANCH   7   9
ATOM      9  C   UNL     1       8.830  46.467  52.333  1.00  0.00     0.032 C 
ATOM     10  C   UNL     1      10.279  46.237  51.894  1.00  0.00     0.007 C 
ENDBRANCH   7   9
BRANCH   7  11
ATOM     11  O   UNL     1       8.392  48.654  53.294  1.00  0.00    -0.390 OA
ATOM     12  H   UNL     1       9.202  49.206  53.459  1.00  0.00     0.211 HD
ENDBRANCH   7  11
ENDBRANCH   6   7
ENDBRANCH   1   6
BRANCH   3  13
ATOM     13  C   UNL     1       3.562  44.858  52.233  1.00  0.00     0.184 C 
BRANCH  13  14
ATOM     14  C   UNL     1       4.334  43.769  51.537  1.00  0.00     0.013 A 
ATOM     15  C   UNL     1       5.482  44.090  50.798  1.00  0.00     0.042 A 
ATOM     16  C   UNL     1       3.874  42.443  51.543  1.00  0.00     0.146 A 
ATOM     17  C   UNL     1       6.164  43.083  50.100  1.00  0.00     0.144 A 
ATOM     18  C   UNL     1       4.582  41.467  50.837  1.00  0.00     0.151 A 
ATOM     19  N   UNL     1       5.697  41.805  50.138  1.00  0.00    -0.249 NA
ATOM     20  F   UNL     1       2.747  42.097  52.216  1.00  0.00    -0.205 F 
BRANCH  17  21
ATOM     21  C   UNL     1       7.386  43.415  49.294  1.00  0.00     0.433 C 
ATOM     22  F   UNL     1       7.141  43.171  47.955  1.00  0.00    -0.165 F 
ATOM     23  F   UNL     1       8.444  42.630  49.713  1.00  0.00    -0.165 F 
ATOM     24  F   UNL     1       7.725  44.747  49.451  1.00  0.00    -0.165 F 
ENDBRANCH  17  21
ENDBRANCH  13  14
ENDBRANCH   3  13
TORSDOF 7
ENDMDL
MODEL 2
REMARK VINA RESULT:    -8.158      3.445      5.994
REMARK INTER + INTRA:         -12.034
REMARK INTER:                 -10.995
REMARK INTRA:                  -1.039
REMARK UNBOUND:                -0.776
REMARK SMILES CC[C@@](C)(O)Cc1cn(Cc2cc(C(F)(F)F)ncc2F)nn1
REMARK SMILES IDX 7 1 8 2 9 3 22 4 23 5 6 6 3 7 4 8 2 9 1 10 5 11 10 13 11 14
REMARK SMILES IDX 12 15 20 16 13 17 19 18 18 19 21 20 14 21 15 22 16 23 17 24
REMARK H PARENT 5 12
ROOT
ATOM      1  C   UNL     1       2.041  45.072  53.736  1.00  0.00     0.086 A 
ATOM      2  C   UNL     1       2.450  46.216  53.088  1.00  0.00     0.135 A 
ATOM      3  N   UNL     1       3.701  46.454  53.515  1.00  0.00    -0.248 N 
ATOM      4  N   UNL     1       4.046  45.499  54.365  1.00  0.00    -0.067 NA
ATOM      5  N   UNL     1       3.046  44.643  54.525  1.00  0.00    -0.135 NA
ENDROOT
BRANCH   1   6
ATOM      6  C   UNL     1       0.735  44.353  53.547  1.00  0.00     0.094 C 
BRANCH   6   7
ATOM      7  C   UNL     1       0.859  42.997  52.795  1.00  0.00     0.067 C 
ATOM      8  C   UNL     1      -0.531  42.335  52.676  1.00  0.00     0.042 C 
BRANCH   7   9
ATOM      9  C   UNL     1       1.470  43.165  51.372  1.00  0.00     0.032 C 
ATOM     10  C   UNL     1       2.882  42.589  51.233  1.00  0.00     0.007 C 
ENDBRANCH   7   9
BRANCH   7  11
ATOM     11  O   UNL     1       1.689  42.166  53.575  1.00  0.00    -0.390 OA
ATOM     12  H   UNL     1       1.196  41.324  53.763  1.00  0.00     0.211 HD
ENDBRANCH   7  11
ENDBRANCH   6   7
ENDBRANCH   1   6
BRANCH   3  13
ATOM     13  C   UNL     1       4.607  47.482  53.017  1.00  0.00     0.184 C 
BRANCH  13  14
ATOM     14  C   UNL     1       5.814  46.832  52.395  1.00  0.00     0.013 A 
ATOM     15  C   UNL     1       7.086  47.059  52.938  1.00  0.00     0.042 A 
ATOM     16  C   UNL     1       5.697  46.070  51.222  1.00  0.00     0.146 A 
ATOM     17  C   UNL     1       8.215  46.503  52.321  1.00  0.00     0.144 A 
ATOM     18  C   UNL     1       6.846  45.531  50.637  1.00  0.00     0.151 A 
ATOM     19  N   UNL     1       8.065  45.758  51.191  1.00  0.00    -0.249 NA
ATOM     20  F   UNL     1       4.488  45.858  50.643  1.00  0.00    -0.205 F 
BRANCH  17  21
ATOM     21  C   UNL     1       9.585  46.749  52.883  1.00  0.00     0.433 C 
ATOM     22  F   UNL     1       9.622  47.990  53.494  1.00  0.00    -0.165 F 
ATOM     23  F   UNL     1      10.517  46.716  51.864  1.00  0.00    -0.165 F 
ATOM     24  F   UNL     1       9.907  45.782  53.819  1.00  0.00    -0.165 F 
ENDBRANCH  17  21
ENDBRANCH  13  14
ENDBRANCH   3  13
TORSDOF 7
ENDMDL
MODEL 3
REMARK VINA RESULT:    -7.802      3.530      6.545
REMARK INTER + INTRA:         -11.542
REMARK INTER:                 -10.567
REMARK INTRA:                  -0.975
REMARK UNBOUND:                -0.776
REMARK SMILES CC[C@@](C)(O)Cc1cn(Cc2cc(C(F)(F)F)ncc2F)nn1
REMARK SMILES IDX 7 1 8 2 9 3 22 4 23 5 6 6 3 7 4 8 2 9 1 10 5 11 10 13 11 14
REMARK SMILES IDX 12 15 20 16 13 17 19 18 18 19 21 20 14 21 15 22 16 23 17 24
REMARK H PARENT 5 12
ROOT
ATOM      1  C   UNL     1       2.025  44.543  51.199  1.00  0.00     0.086 A 
ATOM      2  C   UNL     1       3.116  43.770  51.532  1.00  0.00     0.135 A 
ATOM      3  N   UNL     1       4.193  44.549  51.339  1.00  0.00    -0.248 N 
ATOM      4  N   UNL     1       3.785  45.739  50.925  1.00  0.00    -0.067 NA
ATOM      5  N   UNL     1       2.464  45.762  50.823  1.00  0.00    -0.135 NA
ENDROOT
BRANCH   1   6
ATOM      6  C   UNL     1       0.579  44.150  51.309  1.00  0.00     0.094 C 
BRANCH   6   7
ATOM      7  C   UNL     1      -0.166  44.802  52.508  1.00  0.00     0.067 C 
ATOM      8  C   UNL     1      -1.627  45.110  52.112  1.00  0.00     0.042 C 
BRANCH   7   9
ATOM      9  C   UNL     1      -0.159  43.893  53.773  1.00  0.00     0.032 C 
ATOM     10  C   UNL     1       0.161  42.425  53.478  1.00  0.00     0.007 C 
ENDBRANCH   7   9
BRANCH   7  11
ATOM     11  O   UNL     1       0.489  46.018  52.791  1.00  0.00    -0.390 OA
ATOM     12  H   UNL     1       1.469  45.856  52.765  1.00  0.00     0.211 HD
ENDBRANCH   7  11
ENDBRANCH   6   7
ENDBRANCH   1   6
BRANCH   3  13
ATOM     13  C   UNL     1       5.572  44.222  51.680  1.00  0.00     0.184 C 
BRANCH  13  14
ATOM     14  C   UNL     1       6.082  45.195  52.708  1.00  0.00     0.013 A 
ATOM     15  C   UNL     1       7.102  46.096  52.371  1.00  0.00     0.042 A 
ATOM     16  C   UNL     1       5.613  45.158  54.030  1.00  0.00     0.146 A 
ATOM     17  C   UNL     1       7.618  46.959  53.347  1.00  0.00     0.144 A 
ATOM     18  C   UNL     1       6.151  46.035  54.975  1.00  0.00     0.151 A 
ATOM     19  N   UNL     1       7.131  46.906  54.617  1.00  0.00    -0.249 NA
ATOM     20  F   UNL     1       4.652  44.276  54.407  1.00  0.00    -0.205 F 
BRANCH  17  21
ATOM     21  C   UNL     1       8.720  47.919  53.003  1.00  0.00     0.433 C 
ATOM     22  F   UNL     1       9.319  48.377  54.164  1.00  0.00    -0.165 F 
ATOM     23  F   UNL     1       8.198  48.993  52.307  1.00  0.00    -0.165 F 
ATOM     24  F   UNL     1       9.679  47.299  52.221  1.00  0.00    -0.165 F 
ENDBRANCH  17  21
ENDBRANCH  13  14
ENDBRANCH   3  13
TORSDOF 7
ENDMDL
MODEL 4
REMARK VINA RESULT:    -7.622      1.983      2.761
REMARK INTER + INTRA:         -11.295
REMARK INTER:                 -10.795
REMARK INTRA:                  -0.500
REMARK UNBOUND:                -0.776
REMARK SMILES CC[C@@](C)(O)Cc1cn(Cc2cc(C(F)(F)F)ncc2F)nn1
REMARK SMILES IDX 7 1 8 2 9 3 22 4 23 5 6 6 3 7 4 8 2 9 1 10 5 11 10 13 11 14
REMARK SMILES IDX 12 15 20 16 13 17 19 18 18 19 21 20 14 21 15 22 16 23 17 24
REMARK H PARENT 5 12
ROOT
ATOM      1  C   UNL     1       6.442  46.674  53.758  1.00  0.00     0.086 A 
ATOM      2  C   UNL     1       5.715  46.187  52.693  1.00  0.00     0.135 A 
ATOM      3  N   UNL     1       4.540  46.838  52.720  1.00  0.00    -0.248 N 
ATOM      4  N   UNL     1       4.551  47.688  53.735  1.00  0.00    -0.067 NA
ATOM      5  N   UNL     1       5.700  47.603  54.392  1.00  0.00    -0.135 NA
ENDROOT
BRANCH   1   6
ATOM      6  C   UNL     1       7.854  46.311  54.121  1.00  0.00     0.094 C 
BRANCH   6   7
ATOM      7  C   UNL     1       8.928  47.251  53.505  1.00  0.00     0.067 C 
ATOM      8  C   UNL     1      10.244  47.139  54.306  1.00  0.00     0.042 C 
BRANCH   7   9
ATOM      9  C   UNL     1       9.211  46.925  52.008  1.00  0.00     0.032 C 
ATOM     10  C   UNL     1      10.340  45.912  51.798  1.00  0.00     0.007 C 
ENDBRANCH   7   9
BRANCH   7  11
ATOM     11  O   UNL     1       8.442  48.569  53.621  1.00  0.00    -0.390 OA
ATOM     12  H   UNL     1       8.007  48.817  52.762  1.00  0.00     0.211 HD
ENDBRANCH   7  11
ENDBRANCH   6   7
ENDBRANCH   1   6
BRANCH   3  13
ATOM     13  C   UNL     1       3.485  46.763  51.717  1.00  0.00     0.184 C 
BRANCH  13  14
ATOM     14  C   UNL     1       2.909  45.373  51.693  1.00  0.00     0.013 A 
ATOM     15  C   UNL     1       3.698  44.298  51.259  1.00  0.00     0.042 A 
ATOM     16  C   UNL     1       1.562  45.146  52.015  1.00  0.00     0.146 A 
ATOM     17  C   UNL     1       3.141  43.014  51.179  1.00  0.00     0.144 A 
ATOM     18  C   UNL     1       1.043  43.852  51.924  1.00  0.00     0.151 A 
ATOM     19  N   UNL     1       1.834  42.827  51.512  1.00  0.00    -0.249 NA
ATOM     20  F   UNL     1       0.754  46.165  52.403  1.00  0.00    -0.205 F 
BRANCH  17  21
ATOM     21  C   UNL     1       3.970  41.857  50.704  1.00  0.00     0.433 C 
ATOM     22  F   UNL     1       3.204  41.035  49.897  1.00  0.00    -0.165 F 
ATOM     23  F   UNL     1       4.422  41.134  51.792  1.00  0.00    -0.165 F 
ATOM     24  F   UNL     1       5.060  42.305  49.978  1.00  0.00    -0.165 F 
ENDBRANCH  17  21
ENDBRANCH  13  14
ENDBRANCH   3  13
TORSDOF 7
ENDMDL
MODEL 5
REMARK VINA RESULT:    -7.465      2.478      4.588
REMARK INTER + INTRA:         -11.078
REMARK INTER:                 -10.216
REMARK INTRA:                  -0.862
REMARK UNBOUND:                -0.776
REMARK SMILES CC[C@@](C)(O)Cc1cn(Cc2cc(C(F)(F)F)ncc2F)nn1
REMARK SMILES IDX 7 1 8 2 9 3 22 4 23 5 6 6 3 7 4 8 2 9 1 10 5 11 10 13 11 14
REMARK SMILES IDX 12 15 20 16 13 17 19 18 18 19 21 20 14 21 15 22 16 23 17 24
REMARK H PARENT 5 12
ROOT
ATOM      1  C   UNL     1       6.425  46.603  53.344  1.00  0.00     0.086 A 
ATOM      2  C   UNL     1       5.883  45.913  52.283  1.00  0.00     0.135 A 
ATOM      3  N   UNL     1       4.691  46.482  52.042  1.00  0.00    -0.248 N 
ATOM      4  N   UNL     1       4.518  47.478  52.897  1.00  0.00    -0.067 NA
ATOM      5  N   UNL     1       5.560  47.570  53.711  1.00  0.00    -0.135 NA
ENDROOT
BRANCH   1   6
ATOM      6  C   UNL     1       7.783  46.393  53.952  1.00  0.00     0.094 C 
BRANCH   6   7
ATOM      7  C   UNL     1       8.881  47.342  53.395  1.00  0.00     0.067 C 
ATOM      8  C   UNL     1      10.130  47.288  54.302  1.00  0.00     0.042 C 
BRANCH   7   9
ATOM      9  C   UNL     1       9.292  46.978  51.937  1.00  0.00     0.032 C 
ATOM     10  C   UNL     1      10.455  45.986  51.851  1.00  0.00     0.007 C 
ENDBRANCH   7   9
BRANCH   7  11
ATOM     11  O   UNL     1       8.356  48.650  53.429  1.00  0.00    -0.390 OA
ATOM     12  H   UNL     1       7.945  48.796  54.322  1.00  0.00     0.211 HD
ENDBRANCH   7  11
ENDBRANCH   6   7
ENDBRANCH   1   6
BRANCH   3  13
ATOM     13  C   UNL     1       3.798  46.186  50.929  1.00  0.00     0.184 C 
BRANCH  13  14
ATOM     14  C   UNL     1       2.848  45.087  51.322  1.00  0.00     0.013 A 
ATOM     15  C   UNL     1       1.602  45.408  51.880  1.00  0.00     0.042 A 
ATOM     16  C   UNL     1       3.225  43.739  51.221  1.00  0.00     0.146 A 
ATOM     17  C   UNL     1       0.745  44.382  52.303  1.00  0.00     0.144 A 
ATOM     18  C   UNL     1       2.342  42.745  51.651  1.00  0.00     0.151 A 
ATOM     19  N   UNL     1       1.136  43.084  52.178  1.00  0.00    -0.249 NA
ATOM     20  F   UNL     1       4.437  43.387  50.721  1.00  0.00    -0.205 F 
BRANCH  17  21
ATOM     21  C   UNL     1      -0.586  44.711  52.914  1.00  0.00     0.433 C 
ATOM     22  F   UNL     1      -0.411  45.101  54.230  1.00  0.00    -0.165 F 
ATOM     23  F   UNL     1      -1.402  43.596  52.874  1.00  0.00    -0.165 F 
ATOM     24  F   UNL     1      -1.198  45.741  52.222  1.00  0.00    -0.165 F 
ENDBRANCH  17  21
ENDBRANCH  13  14
ENDBRANCH   3  13
TORSDOF 7
ENDMDL
