ligand_77_conformer_2_docked
     RDKit          3D

 42 45  0  0  0  0  0  0  0  0999 V2000
    4.1230   47.0520   51.9450 O   0  0  0  0  0  0  0  0  0  0  0  0
    4.5570   46.1950   52.7590 C   0  0  0  0  0  0  0  0  0  0  0  0
    5.9200   45.7500   52.6760 N   0  0  0  0  0  0  0  0  0  0  0  0
    6.8150   46.1580   51.5880 C   0  0  2  0  0  0  0  0  0  0  0  0
    7.0090   45.0100   50.6170 C   0  0  0  0  0  0  0  0  0  0  0  0
    6.0020   44.0490   50.4150 C   0  0  0  0  0  0  0  0  0  0  0  0
    6.2020   43.0040   49.5110 C   0  0  0  0  0  0  0  0  0  0  0  0
    7.4090   42.9220   48.8150 C   0  0  0  0  0  0  0  0  0  0  0  0
    8.3770   43.8540   49.0200 N   0  0  0  0  0  0  0  0  0  0  0  0
    8.2060   44.8840   49.8930 C   0  0  0  0  0  0  0  0  0  0  0  0
    8.1690   46.6010   52.1710 C   0  0  0  0  0  0  0  0  0  0  0  0
    8.1690   47.9020   52.9610 C   0  0  0  0  0  0  0  0  0  0  0  0
    8.7470   47.8650   51.5570 C   0  0  0  0  0  0  0  0  0  0  0  0
    3.6490   45.6710   53.7940 C   0  0  0  0  0  0  0  0  0  0  0  0
    2.2670   45.5980   53.7270 C   0  0  0  0  0  0  0  0  0  0  0  0
    1.8920   45.0680   54.9500 C   0  0  0  0  0  0  0  0  0  0  0  0
    0.5020   44.8010   55.4070 C   0  0  0  0  0  0  0  0  0  0  0  0
   -0.4000   44.0870   54.5930 C   0  0  0  0  0  0  0  0  0  0  0  0
   -1.7030   43.8300   55.0310 C   0  0  0  0  0  0  0  0  0  0  0  0
   -2.1220   44.2770   56.2830 C   0  0  0  0  0  0  0  0  0  0  0  0
   -1.2400   44.9840   57.1030 C   0  0  0  0  0  0  0  0  0  0  0  0
    0.0640   45.2460   56.6700 C   0  0  0  0  0  0  0  0  0  0  0  0
    3.0050   44.8480   55.6810 N   0  0  0  0  0  0  0  0  0  0  0  0
    4.0710   45.2130   54.9880 N   0  0  0  0  0  0  0  0  0  0  0  0
    6.3240   45.2170   53.4800 H   0  0  0  0  0  0  0  0  0  0  0  0
    6.3659   47.0030   51.0454 H   0  0  0  0  0  0  0  0  0  0  0  0
    5.0552   44.1209   50.9703 H   0  0  0  0  0  0  0  0  0  0  0  0
    5.4155   42.2522   49.3488 H   0  0  0  0  0  0  0  0  0  0  0  0
    7.5770   42.1029   48.1003 H   0  0  0  0  0  0  0  0  0  0  0  0
    9.0097   45.6220   50.0324 H   0  0  0  0  0  0  0  0  0  0  0  0
    8.5330   45.5810   52.3634 H   0  0  0  0  0  0  0  0  0  0  0  0
    7.2228   48.4292   53.1527 H   0  0  0  0  0  0  0  0  0  0  0  0
    8.5420   48.2129   53.9480 H   0  0  0  0  0  0  0  0  0  0  0  0
    8.2195   48.3662   50.7321 H   0  0  0  0  0  0  0  0  0  0  0  0
    9.7125   48.1389   51.1067 H   0  0  0  0  0  0  0  0  0  0  0  0
    1.6154   45.8940   52.8916 H   0  0  0  0  0  0  0  0  0  0  0  0
   -0.0764   43.7288   53.6046 H   0  0  0  0  0  0  0  0  0  0  0  0
   -2.3990   43.2737   54.3859 H   0  0  0  0  0  0  0  0  0  0  0  0
   -3.1473   44.0729   56.6251 H   0  0  0  0  0  0  0  0  0  0  0  0
   -1.5713   45.3355   58.0913 H   0  0  0  0  0  0  0  0  0  0  0  0
    0.7532   45.8040   57.3209 H   0  0  0  0  0  0  0  0  0  0  0  0
    3.0590   44.4420   56.6400 H   0  0  0  0  0  0  0  0  0  0  0  0
  1  2  2  0
  2  3  1  0
  3  4  1  0
  4  5  1  0
  5  6  2  0
  6  7  1  0
  7  8  2  0
  8  9  1  0
  9 10  2  0
  4 11  1  0
 11 12  1  0
 12 13  1  0
  2 14  1  0
 14 15  1  0
 15 16  2  0
 16 17  1  0
 17 18  2  0
 18 19  1  0
 19 20  2  0
 20 21  1  0
 21 22  2  0
 16 23  1  0
 23 24  1  0
 10  5  1  0
 13 11  1  0
 24 14  2  0
 22 17  1  0
  3 25  1  0
  4 26  1  6
  6 27  1  0
  7 28  1  0
  8 29  1  0
 10 30  1  0
 11 31  1  0
 12 32  1  0
 12 33  1  0
 13 34  1  0
 13 35  1  0
 15 36  1  0
 18 37  1  0
 19 38  1  0
 20 39  1  0
 21 40  1  0
 22 41  1  0
 23 42  1  0
M  END
>  <meeko>  (1) 
{"is_sidechain": [false], "free_energy": -8.569, "intermolecular_energy": -11.074, "internal_energy": -0.338}

$$$$
ligand_77_conformer_2_docked
     RDKit          3D

 42 45  0  0  0  0  0  0  0  0999 V2000
    1.9200   46.7590   52.3410 O   0  0  0  0  0  0  0  0  0  0  0  0
    2.5490   46.0330   53.1560 C   0  0  0  0  0  0  0  0  0  0  0  0
    1.9300   44.8570   53.7000 N   0  0  0  0  0  0  0  0  0  0  0  0
    0.5260   44.5200   53.4460 C   0  0  2  0  0  0  0  0  0  0  0  0
   -0.2430   44.4820   54.7510 C   0  0  0  0  0  0  0  0  0  0  0  0
   -1.5340   43.9270   54.8210 C   0  0  0  0  0  0  0  0  0  0  0  0
   -2.2200   43.8980   56.0360 C   0  0  0  0  0  0  0  0  0  0  0  0
   -1.6150   44.4270   57.1770 C   0  0  0  0  0  0  0  0  0  0  0  0
   -0.3690   44.9630   57.0990 N   0  0  0  0  0  0  0  0  0  0  0  0
    0.3220   45.0010   55.9270 C   0  0  0  0  0  0  0  0  0  0  0  0
    0.4420   43.1570   52.7360 C   0  0  0  0  0  0  0  0  0  0  0  0
    0.9890   43.1030   51.3160 C   0  0  0  0  0  0  0  0  0  0  0  0
   -0.5110   43.1100   51.5530 C   0  0  0  0  0  0  0  0  0  0  0  0
    3.9240   46.4100   53.5280 C   0  0  0  0  0  0  0  0  0  0  0  0
    5.0710   46.2170   52.7760 C   0  0  0  0  0  0  0  0  0  0  0  0
    6.0910   46.7070   53.5740 C   0  0  0  0  0  0  0  0  0  0  0  0
    7.5420   46.7220   53.2430 C   0  0  0  0  0  0  0  0  0  0  0  0
    8.4950   47.1200   54.2000 C   0  0  0  0  0  0  0  0  0  0  0  0
    9.8580   47.1230   53.8870 C   0  0  0  0  0  0  0  0  0  0  0  0
   10.2870   46.7270   52.6200 C   0  0  0  0  0  0  0  0  0  0  0  0
    9.3540   46.3280   51.6610 C   0  0  0  0  0  0  0  0  0  0  0  0
    7.9890   46.3250   51.9680 C   0  0  0  0  0  0  0  0  0  0  0  0
    5.5530   47.1590   54.7270 N   0  0  0  0  0  0  0  0  0  0  0  0
    4.2430   46.9800   54.7070 N   0  0  0  0  0  0  0  0  0  0  0  0
    2.5300   44.1560   54.1920 H   0  0  0  0  0  0  0  0  0  0  0  0
    0.0792   45.2889   52.7986 H   0  0  0  0  0  0  0  0  0  0  0  0
   -2.0038   43.5149   53.9158 H   0  0  0  0  0  0  0  0  0  0  0  0
   -3.2283   43.4622   56.0938 H   0  0  0  0  0  0  0  0  0  0  0  0
   -2.1470   44.4100   58.1396 H   0  0  0  0  0  0  0  0  0  0  0  0
    1.3297   45.4412   55.9009 H   0  0  0  0  0  0  0  0  0  0  0  0
    0.5974   42.5600   53.6467 H   0  0  0  0  0  0  0  0  0  0  0  0
    1.4815   43.9858   50.8823 H   0  0  0  0  0  0  0  0  0  0  0  0
    1.6883   42.4477   50.7760 H   0  0  0  0  0  0  0  0  0  0  0  0
   -1.1048   43.9978   51.2900 H   0  0  0  0  0  0  0  0  0  0  0  0
   -1.3477   42.4613   51.2547 H   0  0  0  0  0  0  0  0  0  0  0  0
    5.1531   45.7747   51.7722 H   0  0  0  0  0  0  0  0  0  0  0  0
    8.1647   47.4311   55.2021 H   0  0  0  0  0  0  0  0  0  0  0  0
   10.5936   47.4384   54.6416 H   0  0  0  0  0  0  0  0  0  0  0  0
   11.3597   46.7291   52.3766 H   0  0  0  0  0  0  0  0  0  0  0  0
    9.6928   46.0154   50.6622 H   0  0  0  0  0  0  0  0  0  0  0  0
    7.2593   46.0101   51.2075 H   0  0  0  0  0  0  0  0  0  0  0  0
    6.0570   47.6010   55.5260 H   0  0  0  0  0  0  0  0  0  0  0  0
  1  2  2  0
  2  3  1  0
  3  4  1  0
  4  5  1  0
  5  6  2  0
  6  7  1  0
  7  8  2  0
  8  9  1  0
  9 10  2  0
  4 11  1  0
 11 12  1  0
 12 13  1  0
  2 14  1  0
 14 15  1  0
 15 16  2  0
 16 17  1  0
 17 18  2  0
 18 19  1  0
 19 20  2  0
 20 21  1  0
 21 22  2  0
 16 23  1  0
 23 24  1  0
 10  5  1  0
 13 11  1  0
 24 14  2  0
 22 17  1  0
  3 25  1  0
  4 26  1  6
  6 27  1  0
  7 28  1  0
  8 29  1  0
 10 30  1  0
 11 31  1  0
 12 32  1  0
 12 33  1  0
 13 34  1  0
 13 35  1  0
 15 36  1  0
 18 37  1  0
 19 38  1  0
 20 39  1  0
 21 40  1  0
 22 41  1  0
 23 42  1  0
M  END
>  <meeko>  (2) 
{"is_sidechain": [false], "free_energy": -8.471, "intermolecular_energy": -10.764, "internal_energy": -0.52}

$$$$
ligand_77_conformer_2_docked
     RDKit          3D

 42 45  0  0  0  0  0  0  0  0999 V2000
    4.5510   43.5130   52.2390 O   0  0  0  0  0  0  0  0  0  0  0  0
    4.3280   44.7030   52.5880 C   0  0  0  0  0  0  0  0  0  0  0  0
    5.3730   45.6840   52.5080 N   0  0  0  0  0  0  0  0  0  0  0  0
    6.7530   45.3330   52.1540 C   0  0  2  0  0  0  0  0  0  0  0  0
    7.7250   46.1770   52.9560 C   0  0  0  0  0  0  0  0  0  0  0  0
    9.0650   46.3260   52.5530 C   0  0  0  0  0  0  0  0  0  0  0  0
    9.9390   47.1120   53.3050 C   0  0  0  0  0  0  0  0  0  0  0  0
    9.4720   47.7450   54.4580 C   0  0  0  0  0  0  0  0  0  0  0  0
    8.1770   47.5920   54.8400 N   0  0  0  0  0  0  0  0  0  0  0  0
    7.3040   46.8340   54.1230 C   0  0  0  0  0  0  0  0  0  0  0  0
    6.9710   45.5540   50.6460 C   0  0  0  0  0  0  0  0  0  0  0  0
    6.7310   44.3480   49.7480 C   0  0  0  0  0  0  0  0  0  0  0  0
    8.1490   44.7980   50.0530 C   0  0  0  0  0  0  0  0  0  0  0  0
    2.9810   45.0640   53.0650 C   0  0  0  0  0  0  0  0  0  0  0  0
    2.3250   44.5480   54.1690 C   0  0  0  0  0  0  0  0  0  0  0  0
    1.0930   45.1820   54.1640 C   0  0  0  0  0  0  0  0  0  0  0  0
   -0.0120   44.9710   55.1360 C   0  0  0  0  0  0  0  0  0  0  0  0
   -1.0360   44.0400   54.8730 C   0  0  0  0  0  0  0  0  0  0  0  0
   -2.0680   43.8380   55.7940 C   0  0  0  0  0  0  0  0  0  0  0  0
   -2.0920   44.5580   56.9880 C   0  0  0  0  0  0  0  0  0  0  0  0
   -1.0830   45.4830   57.2650 C   0  0  0  0  0  0  0  0  0  0  0  0
   -0.0500   45.6910   56.3460 C   0  0  0  0  0  0  0  0  0  0  0  0
    1.0490   46.0210   53.1070 N   0  0  0  0  0  0  0  0  0  0  0  0
    2.1870   45.9530   52.4360 N   0  0  0  0  0  0  0  0  0  0  0  0
    5.1200   46.6950   52.5860 H   0  0  0  0  0  0  0  0  0  0  0  0
    6.9313   44.2736   52.3902 H   0  0  0  0  0  0  0  0  0  0  0  0
    9.4241   45.8220   51.6436 H   0  0  0  0  0  0  0  0  0  0  0  0
   10.9867   47.2317   52.9919 H   0  0  0  0  0  0  0  0  0  0  0  0
   10.1523   48.3677   55.0575 H   0  0  0  0  0  0  0  0  0  0  0  0
    6.2615   46.7353   54.4599 H   0  0  0  0  0  0  0  0  0  0  0  0
    6.6244   46.5980   50.6463 H   0  0  0  0  0  0  0  0  0  0  0  0
    6.3471   43.4106   50.1768 H   0  0  0  0  0  0  0  0  0  0  0  0
    6.1536   44.1643   48.8299 H   0  0  0  0  0  0  0  0  0  0  0  0
    8.7922   44.1859   50.7023 H   0  0  0  0  0  0  0  0  0  0  0  0
    9.0238   45.0747   49.4463 H   0  0  0  0  0  0  0  0  0  0  0  0
    2.6974   43.8032   54.8877 H   0  0  0  0  0  0  0  0  0  0  0  0
   -1.0234   43.4667   53.9343 H   0  0  0  0  0  0  0  0  0  0  0  0
   -2.8629   43.1095   55.5764 H   0  0  0  0  0  0  0  0  0  0  0  0
   -2.9051   44.3975   57.7112 H   0  0  0  0  0  0  0  0  0  0  0  0
   -1.1010   46.0490   58.2080 H   0  0  0  0  0  0  0  0  0  0  0  0
    0.7398   46.4232   56.5699 H   0  0  0  0  0  0  0  0  0  0  0  0
    0.2640   46.6520   52.8370 H   0  0  0  0  0  0  0  0  0  0  0  0
  1  2  2  0
  2  3  1  0
  3  4  1  0
  4  5  1  0
  5  6  2  0
  6  7  1  0
  7  8  2  0
  8  9  1  0
  9 10  2  0
  4 11  1  0
 11 12  1  0
 12 13  1  0
  2 14  1  0
 14 15  1  0
 15 16  2  0
 16 17  1  0
 17 18  2  0
 18 19  1  0
 19 20  2  0
 20 21  1  0
 21 22  2  0
 16 23  1  0
 23 24  1  0
 10  5  1  0
 13 11  1  0
 24 14  2  0
 22 17  1  0
  3 25  1  0
  4 26  1  6
  6 27  1  0
  7 28  1  0
  8 29  1  0
 10 30  1  0
 11 31  1  0
 12 32  1  0
 12 33  1  0
 13 34  1  0
 13 35  1  0
 15 36  1  0
 18 37  1  0
 19 38  1  0
 20 39  1  0
 21 40  1  0
 22 41  1  0
 23 42  1  0
M  END
>  <meeko>  (3) 
{"is_sidechain": [false], "free_energy": -8.346, "intermolecular_energy": -10.812, "internal_energy": -0.311}

$$$$
ligand_77_conformer_2_docked
     RDKit          3D

 42 45  0  0  0  0  0  0  0  0999 V2000
    2.8770   46.1910   50.5200 O   0  0  0  0  0  0  0  0  0  0  0  0
    2.8970   45.9160   51.7490 C   0  0  0  0  0  0  0  0  0  0  0  0
    1.7840   45.2390   52.3530 N   0  0  0  0  0  0  0  0  0  0  0  0
    0.5440   44.9580   51.6210 C   0  0  2  0  0  0  0  0  0  0  0  0
   -0.6460   45.0690   52.5530 C   0  0  0  0  0  0  0  0  0  0  0  0
   -1.9340   45.3460   52.0610 C   0  0  0  0  0  0  0  0  0  0  0  0
   -3.0150   45.4370   52.9390 C   0  0  0  0  0  0  0  0  0  0  0  0
   -2.8050   45.2540   54.3070 C   0  0  0  0  0  0  0  0  0  0  0  0
   -1.5550   44.9900   54.7720 N   0  0  0  0  0  0  0  0  0  0  0  0
   -0.4860   44.8930   53.9370 C   0  0  0  0  0  0  0  0  0  0  0  0
    0.6140   43.5480   51.0080 C   0  0  0  0  0  0  0  0  0  0  0  0
    0.7600   42.3940   51.9900 C   0  0  0  0  0  0  0  0  0  0  0  0
    1.9530   42.8470   51.1680 C   0  0  0  0  0  0  0  0  0  0  0  0
    4.0790   46.2920   52.5430 C   0  0  0  0  0  0  0  0  0  0  0  0
    5.3990   46.2790   52.1250 C   0  0  0  0  0  0  0  0  0  0  0  0
    6.1160   46.6810   53.2390 C   0  0  0  0  0  0  0  0  0  0  0  0
    7.5950   46.8190   53.3360 C   0  0  0  0  0  0  0  0  0  0  0  0
    8.4220   46.4810   52.2470 C   0  0  0  0  0  0  0  0  0  0  0  0
    9.8110   46.6210   52.3400 C   0  0  0  0  0  0  0  0  0  0  0  0
   10.3900   47.1010   53.5140 C   0  0  0  0  0  0  0  0  0  0  0  0
    9.5830   47.4410   54.6010 C   0  0  0  0  0  0  0  0  0  0  0  0
    8.1940   47.3020   54.5150 C   0  0  0  0  0  0  0  0  0  0  0  0
    5.2470   46.9140   54.2460 N   0  0  0  0  0  0  0  0  0  0  0  0
    4.0140   46.6780   53.8320 N   0  0  0  0  0  0  0  0  0  0  0  0
    1.9050   44.8250   53.3050 H   0  0  0  0  0  0  0  0  0  0  0  0
    0.4248   45.6941   50.8123 H   0  0  0  0  0  0  0  0  0  0  0  0
   -2.0898   45.4913   50.9818 H   0  0  0  0  0  0  0  0  0  0  0  0
   -4.0239   45.6511   52.5564 H   0  0  0  0  0  0  0  0  0  0  0  0
   -3.6500   45.3233   55.0079 H   0  0  0  0  0  0  0  0  0  0  0  0
    0.5106   44.6752   54.3484 H   0  0  0  0  0  0  0  0  0  0  0  0
   -0.0647   43.7689   50.1710 H   0  0  0  0  0  0  0  0  0  0  0  0
    0.7331   42.5864   53.0727 H   0  0  0  0  0  0  0  0  0  0  0  0
    0.2423   41.4363   52.1474 H   0  0  0  0  0  0  0  0  0  0  0  0
    2.7908   43.3670   51.6556 H   0  0  0  0  0  0  0  0  0  0  0  0
    2.6577   42.3523   50.4834 H   0  0  0  0  0  0  0  0  0  0  0  0
    5.7896   46.0101   51.1324 H   0  0  0  0  0  0  0  0  0  0  0  0
    7.9724   46.1042   51.3165 H   0  0  0  0  0  0  0  0  0  0  0  0
   10.4479   46.3516   51.4846 H   0  0  0  0  0  0  0  0  0  0  0  0
   11.4822   47.2117   53.5836 H   0  0  0  0  0  0  0  0  0  0  0  0
   10.0405   47.8191   55.5272 H   0  0  0  0  0  0  0  0  0  0  0  0
    7.5644   47.5723   55.3756 H   0  0  0  0  0  0  0  0  0  0  0  0
    5.4730   47.2440   55.2090 H   0  0  0  0  0  0  0  0  0  0  0  0
  1  2  2  0
  2  3  1  0
  3  4  1  0
  4  5  1  0
  5  6  2  0
  6  7  1  0
  7  8  2  0
  8  9  1  0
  9 10  2  0
  4 11  1  0
 11 12  1  0
 12 13  1  0
  2 14  1  0
 14 15  1  0
 15 16  2  0
 16 17  1  0
 17 18  2  0
 18 19  1  0
 19 20  2  0
 20 21  1  0
 21 22  2  0
 16 23  1  0
 23 24  1  0
 10  5  1  0
 13 11  1  0
 24 14  2  0
 22 17  1  0
  3 25  1  0
  4 26  1  6
  6 27  1  0
  7 28  1  0
  8 29  1  0
 10 30  1  0
 11 31  1  0
 12 32  1  0
 12 33  1  0
 13 34  1  0
 13 35  1  0
 15 36  1  0
 18 37  1  0
 19 38  1  0
 20 39  1  0
 21 40  1  0
 22 41  1  0
 23 42  1  0
M  END
>  <meeko>  (4) 
{"is_sidechain": [false], "free_energy": -7.037, "intermolecular_energy": -9.768, "internal_energy": 0.337}

$$$$
