MODEL 1
REMARK VINA RESULT:    -9.942      0.000      0.000
REMARK INTER + INTRA:         -13.988
REMARK INTER:                 -12.848
REMARK INTRA:                  -1.140
REMARK UNBOUND:                -1.140
REMARK SMILES O=C(c1ccc2c(c1)[nH]c(=O)n2C1CCCC1)N1CC[C@H](Oc2cccc(F)c2)C1
REMARK SMILES IDX 18 1 19 2 20 3 21 4 30 5 2 6 1 7 3 8 4 9 8 10 5 11 7 12 6 13
REMARK SMILES IDX 9 14 12 15 10 16 11 17 13 19 14 20 17 21 15 22 16 23 22 24
REMARK SMILES IDX 23 25 24 26 29 27 25 28 27 29 26 30 28 31
REMARK H PARENT 9 18
ROOT
ATOM      1  N   UNL     1       2.276  42.933  51.636  1.00  0.00    -0.335 N 
ATOM      2  C   UNL     1       1.117  43.231  50.814  1.00  0.00     0.124 C 
ATOM      3  C   UNL     1      -0.027  43.477  51.789  1.00  0.00     0.068 C 
ATOM      4  C   UNL     1       0.624  43.720  53.152  1.00  0.00     0.194 C 
ATOM      5  C   UNL     1       1.997  43.054  53.058  1.00  0.00     0.165 C 
ENDROOT
BRANCH   1   6
ATOM      6  C   UNL     1       3.482  42.357  51.105  1.00  0.00     0.254 C 
ATOM      7  O   UNL     1       3.480  41.158  50.718  1.00  0.00    -0.269 OA
BRANCH   6   8
ATOM      8  C   UNL     1       4.730  43.142  51.003  1.00  0.00     0.042 A 
ATOM      9  C   UNL     1       4.926  44.288  51.817  1.00  0.00     0.016 A 
ATOM     10  C   UNL     1       5.715  42.777  50.059  1.00  0.00     0.042 A 
ATOM     11  C   UNL     1       6.106  45.045  51.721  1.00  0.00     0.029 A 
ATOM     12  C   UNL     1       6.871  43.550  49.992  1.00  0.00     0.067 A 
ATOM     13  C   UNL     1       7.069  44.643  50.792  1.00  0.00     0.069 A 
ATOM     14  N   UNL     1       7.932  43.375  49.188  1.00  0.00    -0.306 N 
ATOM     15  N   UNL     1       8.274  45.190  50.507  1.00  0.00    -0.289 N 
ATOM     16  C   UNL     1       8.765  44.384  49.528  1.00  0.00     0.326 A 
ATOM     17  O   UNL     1       9.890  44.554  48.985  1.00  0.00    -0.248 OA
ATOM     18  H   UNL     1       8.082  42.630  48.471  1.00  0.00     0.171 HD
BRANCH  15  19
ATOM     19  C   UNL     1       8.947  46.358  51.100  1.00  0.00     0.092 C 
ATOM     20  C   UNL     1       7.956  47.407  51.623  1.00  0.00     0.025 C 
ATOM     21  C   UNL     1       9.849  45.973  52.271  1.00  0.00     0.025 C 
ATOM     22  C   UNL     1       8.397  47.756  53.042  1.00  0.00     0.002 C 
ATOM     23  C   UNL     1       9.781  47.149  53.228  1.00  0.00     0.002 C 
ENDBRANCH  15  19
ENDBRANCH   6   8
ENDBRANCH   1   6
BRANCH   4  24
ATOM     24  O   UNL     1       0.760  45.128  53.361  1.00  0.00    -0.488 OA
BRANCH  24  25
ATOM     25  C   UNL     1       1.969  45.798  53.610  1.00  0.00     0.122 A 
ATOM     26  C   UNL     1       2.384  46.776  52.696  1.00  0.00     0.046 A 
ATOM     27  C   UNL     1       2.773  45.526  54.735  1.00  0.00     0.085 A 
ATOM     28  C   UNL     1       3.581  47.470  52.893  1.00  0.00     0.007 A 
ATOM     29  C   UNL     1       3.972  46.221  54.929  1.00  0.00     0.126 A 
ATOM     30  C   UNL     1       4.375  47.191  54.009  1.00  0.00     0.039 A 
ATOM     31  F   UNL     1       4.743  45.951  56.011  1.00  0.00    -0.207 F 
ENDBRANCH  24  25
ENDBRANCH   4  24
TORSDOF 5
ENDMDL
MODEL 2
REMARK VINA RESULT:    -9.268      2.034      7.115
REMARK INTER + INTRA:         -13.117
REMARK INTER:                 -12.682
REMARK INTRA:                  -0.435
REMARK UNBOUND:                -1.140
REMARK SMILES O=C(c1ccc2c(c1)[nH]c(=O)n2C1CCCC1)N1CC[C@H](Oc2cccc(F)c2)C1
REMARK SMILES IDX 18 1 19 2 20 3 21 4 30 5 2 6 1 7 3 8 4 9 8 10 5 11 7 12 6 13
REMARK SMILES IDX 9 14 12 15 10 16 11 17 13 19 14 20 17 21 15 22 16 23 22 24
REMARK SMILES IDX 23 25 24 26 29 27 25 28 27 29 26 30 28 31
REMARK H PARENT 9 18
ROOT
ATOM      1  N   UNL     1       6.565  43.333  50.152  1.00  0.00    -0.335 N 
ATOM      2  C   UNL     1       7.638  42.895  49.277  1.00  0.00     0.124 C 
ATOM      3  C   UNL     1       8.393  44.160  48.888  1.00  0.00     0.068 C 
ATOM      4  C   UNL     1       7.970  45.231  49.895  1.00  0.00     0.194 C 
ATOM      5  C   UNL     1       6.618  44.759  50.431  1.00  0.00     0.165 C 
ENDROOT
BRANCH   1   6
ATOM      6  C   UNL     1       5.452  42.492  50.502  1.00  0.00     0.254 C 
ATOM      7  O   UNL     1       5.426  41.297  50.100  1.00  0.00    -0.269 OA
BRANCH   6   8
ATOM      8  C   UNL     1       4.333  42.997  51.324  1.00  0.00     0.042 A 
ATOM      9  C   UNL     1       2.994  42.863  50.873  1.00  0.00     0.016 A 
ATOM     10  C   UNL     1       4.598  43.656  52.544  1.00  0.00     0.042 A 
ATOM     11  C   UNL     1       1.923  43.347  51.644  1.00  0.00     0.029 A 
ATOM     12  C   UNL     1       3.513  44.123  53.281  1.00  0.00     0.067 A 
ATOM     13  C   UNL     1       2.220  43.975  52.856  1.00  0.00     0.069 A 
ATOM     14  N   UNL     1       3.534  44.756  54.465  1.00  0.00    -0.306 N 
ATOM     15  N   UNL     1       1.386  44.520  53.773  1.00  0.00    -0.289 N 
ATOM     16  C   UNL     1       2.228  44.981  54.735  1.00  0.00     0.326 A 
ATOM     17  O   UNL     1       1.837  45.561  55.784  1.00  0.00    -0.248 OA
ATOM     18  H   UNL     1       4.365  45.013  55.044  1.00  0.00     0.171 HD
BRANCH  15  19
ATOM     19  C   UNL     1      -0.085  44.600  53.784  1.00  0.00     0.092 C 
ATOM     20  C   UNL     1      -0.647  45.311  52.545  1.00  0.00     0.025 C 
ATOM     21  C   UNL     1      -0.738  43.220  53.841  1.00  0.00     0.025 C 
ATOM     22  C   UNL     1      -1.751  44.414  51.990  1.00  0.00     0.002 C 
ATOM     23  C   UNL     1      -2.026  43.357  53.050  1.00  0.00     0.002 C 
ENDBRANCH  15  19
ENDBRANCH   6   8
ENDBRANCH   1   6
BRANCH   4  24
ATOM     24  O   UNL     1       8.936  45.291  50.948  1.00  0.00    -0.488 OA
BRANCH  24  25
ATOM     25  C   UNL     1       8.973  46.262  51.962  1.00  0.00     0.122 A 
ATOM     26  C   UNL     1       8.120  47.368  51.850  1.00  0.00     0.046 A 
ATOM     27  C   UNL     1       9.829  46.167  53.077  1.00  0.00     0.085 A 
ATOM     28  C   UNL     1       8.120  48.366  52.828  1.00  0.00     0.007 A 
ATOM     29  C   UNL     1       9.829  47.169  54.054  1.00  0.00     0.126 A 
ATOM     30  C   UNL     1       8.975  48.267  53.929  1.00  0.00     0.039 A 
ATOM     31  F   UNL     1      10.658  47.073  55.123  1.00  0.00    -0.207 F 
ENDBRANCH  24  25
ENDBRANCH   4  24
TORSDOF 5
ENDMDL
MODEL 3
REMARK VINA RESULT:    -9.031      2.027      6.975
REMARK INTER + INTRA:         -12.811
REMARK INTER:                 -13.683
REMARK INTRA:                   0.872
REMARK UNBOUND:                -1.140
REMARK SMILES O=C(c1ccc2c(c1)[nH]c(=O)n2C1CCCC1)N1CC[C@H](Oc2cccc(F)c2)C1
REMARK SMILES IDX 18 1 19 2 20 3 21 4 30 5 2 6 1 7 3 8 4 9 8 10 5 11 7 12 6 13
REMARK SMILES IDX 9 14 12 15 10 16 11 17 13 19 14 20 17 21 15 22 16 23 22 24
REMARK SMILES IDX 23 25 24 26 29 27 25 28 27 29 26 30 28 31
REMARK H PARENT 9 18
ROOT
ATOM      1  N   UNL     1       6.516  43.368  50.136  1.00  0.00    -0.335 N 
ATOM      2  C   UNL     1       7.591  42.942  49.258  1.00  0.00     0.124 C 
ATOM      3  C   UNL     1       8.354  44.209  48.897  1.00  0.00     0.068 C 
ATOM      4  C   UNL     1       7.933  45.263  49.923  1.00  0.00     0.194 C 
ATOM      5  C   UNL     1       6.575  44.788  50.443  1.00  0.00     0.165 C 
ENDROOT
BRANCH   1   6
ATOM      6  C   UNL     1       5.396  42.526  50.464  1.00  0.00     0.254 C 
ATOM      7  O   UNL     1       5.323  41.369  49.969  1.00  0.00    -0.269 OA
BRANCH   6   8
ATOM      8  C   UNL     1       4.325  42.987  51.371  1.00  0.00     0.042 A 
ATOM      9  C   UNL     1       4.523  44.126  52.195  1.00  0.00     0.016 A 
ATOM     10  C   UNL     1       3.114  42.267  51.453  1.00  0.00     0.042 A 
ATOM     11  C   UNL     1       3.513  44.568  53.066  1.00  0.00     0.029 A 
ATOM     12  C   UNL     1       2.136  42.733  52.327  1.00  0.00     0.067 A 
ATOM     13  C   UNL     1       2.319  43.844  53.106  1.00  0.00     0.069 A 
ATOM     14  N   UNL     1       0.916  42.218  52.547  1.00  0.00    -0.306 N 
ATOM     15  N   UNL     1       1.206  44.056  53.846  1.00  0.00    -0.289 N 
ATOM     16  C   UNL     1       0.377  43.045  53.472  1.00  0.00     0.326 A 
ATOM     17  O   UNL     1      -0.784  42.887  53.937  1.00  0.00    -0.248 OA
ATOM     18  H   UNL     1       0.482  41.377  52.106  1.00  0.00     0.171 HD
BRANCH  15  19
ATOM     19  C   UNL     1       0.904  45.122  54.818  1.00  0.00     0.092 C 
ATOM     20  C   UNL     1      -0.583  45.173  55.194  1.00  0.00     0.025 C 
ATOM     21  C   UNL     1       1.688  44.956  56.119  1.00  0.00     0.025 C 
ATOM     22  C   UNL     1      -0.647  45.216  56.719  1.00  0.00     0.002 C 
ATOM     23  C   UNL     1       0.770  45.485  57.205  1.00  0.00     0.002 C 
ENDBRANCH  15  19
ENDBRANCH   6   8
ENDBRANCH   1   6
BRANCH   4  24
ATOM     24  O   UNL     1       8.894  45.297  50.982  1.00  0.00    -0.488 OA
BRANCH  24  25
ATOM     25  C   UNL     1       8.950  46.267  51.996  1.00  0.00     0.122 A 
ATOM     26  C   UNL     1       8.102  47.378  51.898  1.00  0.00     0.046 A 
ATOM     27  C   UNL     1       9.821  46.165  53.099  1.00  0.00     0.085 A 
ATOM     28  C   UNL     1       8.121  48.375  52.876  1.00  0.00     0.007 A 
ATOM     29  C   UNL     1       9.840  47.166  54.077  1.00  0.00     0.126 A 
ATOM     30  C   UNL     1       8.991  48.269  53.965  1.00  0.00     0.039 A 
ATOM     31  F   UNL     1      10.683  47.064  55.134  1.00  0.00    -0.207 F 
ENDBRANCH  24  25
ENDBRANCH   4  24
TORSDOF 5
ENDMDL
MODEL 4
REMARK VINA RESULT:    -9.027      2.260      3.329
REMARK INTER + INTRA:         -12.805
REMARK INTER:                 -12.781
REMARK INTRA:                  -0.024
REMARK UNBOUND:                -1.140
REMARK SMILES O=C(c1ccc2c(c1)[nH]c(=O)n2C1CCCC1)N1CC[C@H](Oc2cccc(F)c2)C1
REMARK SMILES IDX 18 1 19 2 20 3 21 4 30 5 2 6 1 7 3 8 4 9 8 10 5 11 7 12 6 13
REMARK SMILES IDX 9 14 12 15 10 16 11 17 13 19 14 20 17 21 15 22 16 23 22 24
REMARK SMILES IDX 23 25 24 26 29 27 25 28 27 29 26 30 28 31
REMARK H PARENT 9 18
ROOT
ATOM      1  N   UNL     1       1.571  42.950  51.533  1.00  0.00    -0.335 N 
ATOM      2  C   UNL     1       0.690  43.411  50.475  1.00  0.00     0.124 C 
ATOM      3  C   UNL     1      -0.725  43.220  51.005  1.00  0.00     0.068 C 
ATOM      4  C   UNL     1      -0.589  43.042  52.518  1.00  0.00     0.194 C 
ATOM      5  C   UNL     1       0.847  42.562  52.733  1.00  0.00     0.165 C 
ENDROOT
BRANCH   1   6
ATOM      6  C   UNL     1       2.969  42.688  51.325  1.00  0.00     0.254 C 
ATOM      7  O   UNL     1       3.327  41.592  50.814  1.00  0.00    -0.269 OA
BRANCH   6   8
ATOM      8  C   UNL     1       4.002  43.677  51.697  1.00  0.00     0.042 A 
ATOM      9  C   UNL     1       5.113  43.910  50.845  1.00  0.00     0.016 A 
ATOM     10  C   UNL     1       3.909  44.362  52.928  1.00  0.00     0.042 A 
ATOM     11  C   UNL     1       6.104  44.843  51.194  1.00  0.00     0.029 A 
ATOM     12  C   UNL     1       4.909  45.278  53.242  1.00  0.00     0.067 A 
ATOM     13  C   UNL     1       5.969  45.519  52.409  1.00  0.00     0.069 A 
ATOM     14  N   UNL     1       5.008  46.045  54.340  1.00  0.00    -0.306 N 
ATOM     15  N   UNL     1       6.772  46.453  52.971  1.00  0.00    -0.289 N 
ATOM     16  C   UNL     1       6.147  46.747  54.143  1.00  0.00     0.326 A 
ATOM     17  O   UNL     1       6.581  47.592  54.971  1.00  0.00    -0.248 OA
ATOM     18  H   UNL     1       4.355  46.092  55.154  1.00  0.00     0.171 HD
BRANCH  15  19
ATOM     19  C   UNL     1       8.017  47.057  52.467  1.00  0.00     0.092 C 
ATOM     20  C   UNL     1       8.978  47.454  53.596  1.00  0.00     0.025 C 
ATOM     21  C   UNL     1       8.782  46.114  51.540  1.00  0.00     0.025 C 
ATOM     22  C   UNL     1      10.346  46.885  53.226  1.00  0.00     0.002 C 
ATOM     23  C   UNL     1      10.248  46.427  51.777  1.00  0.00     0.002 C 
ENDBRANCH  15  19
ENDBRANCH   6   8
ENDBRANCH   1   6
BRANCH   4  24
ATOM     24  O   UNL     1      -0.799  44.304  53.158  1.00  0.00    -0.488 OA
BRANCH  24  25
ATOM     25  C   UNL     1      -0.378  44.636  54.456  1.00  0.00     0.122 A 
ATOM     26  C   UNL     1      -1.259  44.401  55.520  1.00  0.00     0.046 A 
ATOM     27  C   UNL     1       0.889  45.193  54.726  1.00  0.00     0.085 A 
ATOM     28  C   UNL     1      -0.891  44.717  56.830  1.00  0.00     0.007 A 
ATOM     29  C   UNL     1       1.254  45.511  56.039  1.00  0.00     0.126 A 
ATOM     30  C   UNL     1       0.365  45.273  57.089  1.00  0.00     0.039 A 
ATOM     31  F   UNL     1       2.472  46.050  56.291  1.00  0.00    -0.207 F 
ENDBRANCH  24  25
ENDBRANCH   4  24
TORSDOF 5
ENDMDL
MODEL 5
REMARK VINA RESULT:    -8.970      2.201      2.628
REMARK INTER + INTRA:         -12.731
REMARK INTER:                 -12.659
REMARK INTRA:                  -0.072
REMARK UNBOUND:                -1.140
REMARK SMILES O=C(c1ccc2c(c1)[nH]c(=O)n2C1CCCC1)N1CC[C@H](Oc2cccc(F)c2)C1
REMARK SMILES IDX 18 1 19 2 20 3 21 4 30 5 2 6 1 7 3 8 4 9 8 10 5 11 7 12 6 13
REMARK SMILES IDX 9 14 12 15 10 16 11 17 13 19 14 20 17 21 15 22 16 23 22 24
REMARK SMILES IDX 23 25 24 26 29 27 25 28 27 29 26 30 28 31
REMARK H PARENT 9 18
ROOT
ATOM      1  N   UNL     1       1.972  43.625  52.341  1.00  0.00    -0.335 N 
ATOM      2  C   UNL     1       1.406  44.950  52.153  1.00  0.00     0.124 C 
ATOM      3  C   UNL     1       0.169  44.998  53.039  1.00  0.00     0.068 C 
ATOM      4  C   UNL     1       0.308  43.836  54.025  1.00  0.00     0.194 C 
ATOM      5  C   UNL     1       1.255  42.849  53.341  1.00  0.00     0.165 C 
ENDROOT
BRANCH   1   6
ATOM      6  C   UNL     1       2.973  43.074  51.469  1.00  0.00     0.254 C 
ATOM      7  O   UNL     1       2.717  42.028  50.812  1.00  0.00    -0.269 OA
BRANCH   6   8
ATOM      8  C   UNL     1       4.300  43.705  51.323  1.00  0.00     0.042 A 
ATOM      9  C   UNL     1       4.638  44.852  52.089  1.00  0.00     0.016 A 
ATOM     10  C   UNL     1       5.224  43.194  50.385  1.00  0.00     0.042 A 
ATOM     11  C   UNL     1       5.895  45.464  51.952  1.00  0.00     0.029 A 
ATOM     12  C   UNL     1       6.459  43.826  50.275  1.00  0.00     0.067 A 
ATOM     13  C   UNL     1       6.792  44.919  51.030  1.00  0.00     0.069 A 
ATOM     14  N   UNL     1       7.482  43.500  49.469  1.00  0.00    -0.306 N 
ATOM     15  N   UNL     1       8.048  45.313  50.711  1.00  0.00    -0.289 N 
ATOM     16  C   UNL     1       8.430  44.420  49.760  1.00  0.00     0.326 A 
ATOM     17  O   UNL     1       9.559  44.439  49.199  1.00  0.00    -0.248 OA
ATOM     18  H   UNL     1       7.535  42.716  48.780  1.00  0.00     0.171 HD
BRANCH  15  19
ATOM     19  C   UNL     1       8.858  46.419  51.250  1.00  0.00     0.092 C 
ATOM     20  C   UNL     1       8.000  47.538  51.856  1.00  0.00     0.025 C 
ATOM     21  C   UNL     1       9.818  45.952  52.343  1.00  0.00     0.025 C 
ATOM     22  C   UNL     1       8.582  47.837  53.235  1.00  0.00     0.002 C 
ATOM     23  C   UNL     1       9.923  47.120  53.305  1.00  0.00     0.002 C 
ENDBRANCH  15  19
ENDBRANCH   6   8
ENDBRANCH   1   6
BRANCH   4  24
ATOM     24  O   UNL     1       0.881  44.322  55.243  1.00  0.00    -0.488 OA
BRANCH  24  25
ATOM     25  C   UNL     1       0.249  45.191  56.146  1.00  0.00     0.122 A 
ATOM     26  C   UNL     1      -1.146  45.306  56.089  1.00  0.00     0.046 A 
ATOM     27  C   UNL     1       0.961  45.947  57.100  1.00  0.00     0.085 A 
ATOM     28  C   UNL     1      -1.824  46.161  56.962  1.00  0.00     0.007 A 
ATOM     29  C   UNL     1       0.280  46.804  57.971  1.00  0.00     0.126 A 
ATOM     30  C   UNL     1      -1.111  46.911  57.902  1.00  0.00     0.039 A 
ATOM     31  F   UNL     1       0.970  47.531  58.883  1.00  0.00    -0.207 F 
ENDBRANCH  24  25
ENDBRANCH   4  24
TORSDOF 5
ENDMDL
