ligand_82_conformer_3_docked
     RDKit          3D

 48 50  0  0  0  0  0  0  0  0999 V2000
   10.2590   47.5980   55.3170 C   0  0  0  0  0  0  0  0  0  0  0  0
    9.5470   47.0870   54.0990 C   0  0  0  0  0  0  0  0  0  0  0  0
   10.2640   46.7630   52.9360 C   0  0  0  0  0  0  0  0  0  0  0  0
    9.5970   46.2580   51.8160 C   0  0  0  0  0  0  0  0  0  0  0  0
    8.2110   46.0700   51.8490 C   0  0  0  0  0  0  0  0  0  0  0  0
    7.3630   45.4100   50.4100 S   0  0  0  0  0  0  0  0  0  0  0  0
    5.6790   45.8180   51.0000 C   0  0  0  0  0  0  0  0  0  0  0  0
    4.9010   44.5790   51.3540 C   0  0  0  0  0  0  0  0  0  0  0  0
    5.5210   43.4800   51.3690 O   0  0  0  0  0  0  0  0  0  0  0  0
    3.5000   44.6110   51.7160 N   0  0  0  0  0  0  0  0  0  0  0  0
    2.6690   45.8180   51.5880 C   0  0  0  0  0  0  0  0  0  0  0  0
    1.9020   46.0610   52.8940 C   0  0  0  0  0  0  0  0  0  0  0  0
    1.1340   44.8020   53.4310 C   0  0  0  0  0  0  0  0  0  0  0  0
    1.3840   43.5680   52.5190 C   0  0  0  0  0  0  0  0  0  0  0  0
    2.8750   43.3710   52.2060 C   0  0  0  0  0  0  0  0  0  0  0  0
    1.6210   44.4850   54.8910 C   0  0  0  0  0  0  0  0  0  0  0  0
    0.8090   45.2950   55.9020 C   0  0  2  0  0  0  0  0  0  0  0  0
    1.2540   45.0030   57.2020 O   0  0  0  0  0  0  0  0  0  0  0  0
   -0.6900   44.9630   55.7620 C   0  0  0  0  0  0  0  0  0  0  0  0
   -1.0290   44.4520   54.3520 C   0  0  0  0  0  0  0  0  0  0  0  0
   -0.2600   45.1230   53.3720 O   0  0  0  0  0  0  0  0  0  0  0  0
    7.4940   46.3720   53.0130 C   0  0  0  0  0  0  0  0  0  0  0  0
    8.1590   46.8770   54.1350 C   0  0  0  0  0  0  0  0  0  0  0  0
    9.7491   47.2320   56.2203 H   0  0  0  0  0  0  0  0  0  0  0  0
   11.2986   47.2386   55.3118 H   0  0  0  0  0  0  0  0  0  0  0  0
   10.2513   48.6980   55.3118 H   0  0  0  0  0  0  0  0  0  0  0  0
   11.3541   46.9070   52.9061 H   0  0  0  0  0  0  0  0  0  0  0  0
   10.1632   46.0079   50.9067 H   0  0  0  0  0  0  0  0  0  0  0  0
    5.7582   46.4569   51.8919 H   0  0  0  0  0  0  0  0  0  0  0  0
    5.1472   46.3387   50.1900 H   0  0  0  0  0  0  0  0  0  0  0  0
    3.3131   46.6842   51.3761 H   0  0  0  0  0  0  0  0  0  0  0  0
    1.9517   45.6798   50.7656 H   0  0  0  0  0  0  0  0  0  0  0  0
    2.6213   46.3804   53.6625 H   0  0  0  0  0  0  0  0  0  0  0  0
    1.1426   46.8268   52.6776 H   0  0  0  0  0  0  0  0  0  0  0  0
    1.0070   42.6688   53.0283 H   0  0  0  0  0  0  0  0  0  0  0  0
    0.8587   43.7389   51.5677 H   0  0  0  0  0  0  0  0  0  0  0  0
    3.3917   43.0500   53.1225 H   0  0  0  0  0  0  0  0  0  0  0  0
    2.9607   42.6100   51.4163 H   0  0  0  0  0  0  0  0  0  0  0  0
    1.4887   43.4120   55.0939 H   0  0  0  0  0  0  0  0  0  0  0  0
    2.6835   44.7546   54.9831 H   0  0  0  0  0  0  0  0  0  0  0  0
    0.9491   46.3684   55.7067 H   0  0  0  0  0  0  0  0  0  0  0  0
    1.4630   45.8730   57.6320 H   0  0  0  0  0  0  0  0  0  0  0  0
   -0.9534   44.1868   56.4956 H   0  0  0  0  0  0  0  0  0  0  0  0
   -1.2638   45.8843   55.9405 H   0  0  0  0  0  0  0  0  0  0  0  0
   -0.8174   43.3738   54.2994 H   0  0  0  0  0  0  0  0  0  0  0  0
   -2.0939   44.6453   54.1553 H   0  0  0  0  0  0  0  0  0  0  0  0
    6.4062   46.2119   53.0451 H   0  0  0  0  0  0  0  0  0  0  0  0
    7.5928   47.1105   55.0487 H   0  0  0  0  0  0  0  0  0  0  0  0
  1  2  1  0
  2  3  2  0
  3  4  1  0
  4  5  2  0
  5  6  1  0
  6  7  1  0
  7  8  1  0
  8  9  2  0
  8 10  1  0
 10 11  1  0
 11 12  1  0
 12 13  1  0
 13 14  1  0
 14 15  1  0
 13 16  1  0
 16 17  1  0
 17 18  1  0
 17 19  1  0
 19 20  1  0
 20 21  1  0
  5 22  1  0
 22 23  2  0
 23  2  1  0
 15 10  1  0
 21 13  1  0
  1 24  1  0
  1 25  1  0
  1 26  1  0
  3 27  1  0
  4 28  1  0
  7 29  1  0
  7 30  1  0
 11 31  1  0
 11 32  1  0
 12 33  1  0
 12 34  1  0
 14 35  1  0
 14 36  1  0
 15 37  1  0
 15 38  1  0
 16 39  1  0
 16 40  1  0
 17 41  1  6
 18 42  1  0
 19 43  1  0
 19 44  1  0
 20 45  1  0
 20 46  1  0
 22 47  1  0
 23 48  1  0
M  END
>  <meeko>  (1) 
{"is_sidechain": [false], "free_energy": -9.042, "intermolecular_energy": -10.892, "internal_energy": -0.293}

$$$$
ligand_82_conformer_3_docked
     RDKit          3D

 48 50  0  0  0  0  0  0  0  0999 V2000
    6.9230   43.2710   49.9020 C   0  0  0  0  0  0  0  0  0  0  0  0
    5.5740   43.6820   50.4120 C   0  0  0  0  0  0  0  0  0  0  0  0
    5.1820   45.0310   50.3880 C   0  0  0  0  0  0  0  0  0  0  0  0
    3.9110   45.4020   50.8360 C   0  0  0  0  0  0  0  0  0  0  0  0
    3.0200   44.4310   51.3080 C   0  0  0  0  0  0  0  0  0  0  0  0
    1.3850   44.9130   51.8720 S   0  0  0  0  0  0  0  0  0  0  0  0
    1.9790   46.1190   53.1140 C   0  0  0  0  0  0  0  0  0  0  0  0
    3.0710   45.5390   53.9710 C   0  0  0  0  0  0  0  0  0  0  0  0
    2.8690   44.4100   54.4980 O   0  0  0  0  0  0  0  0  0  0  0  0
    4.3430   46.2000   54.1730 N   0  0  0  0  0  0  0  0  0  0  0  0
    4.6110   47.5730   53.7180 C   0  0  0  0  0  0  0  0  0  0  0  0
    5.9340   47.6150   52.9440 C   0  0  0  0  0  0  0  0  0  0  0  0
    7.1360   46.9360   53.6900 C   0  0  0  0  0  0  0  0  0  0  0  0
    6.6750   46.3230   55.0430 C   0  0  0  0  0  0  0  0  0  0  0  0
    5.4040   45.4740   54.8910 C   0  0  0  0  0  0  0  0  0  0  0  0
    7.7380   45.8070   52.7780 C   0  0  0  0  0  0  0  0  0  0  0  0
    8.7830   46.3990   51.8320 C   0  0  2  0  0  0  0  0  0  0  0  0
    9.3120   45.3800   51.0220 O   0  0  0  0  0  0  0  0  0  0  0  0
    9.9050   47.0770   52.6420 C   0  0  0  0  0  0  0  0  0  0  0  0
    9.4150   47.5200   54.0300 C   0  0  0  0  0  0  0  0  0  0  0  0
    8.0770   47.9780   53.9720 O   0  0  0  0  0  0  0  0  0  0  0  0
    3.3990   43.0830   51.3150 C   0  0  0  0  0  0  0  0  0  0  0  0
    4.6700   42.7090   50.8670 C   0  0  0  0  0  0  0  0  0  0  0  0
    7.5902   43.0677   50.7526 H   0  0  0  0  0  0  0  0  0  0  0  0
    6.8224   42.3627   49.2897 H   0  0  0  0  0  0  0  0  0  0  0  0
    7.3459   44.0811   49.2897 H   0  0  0  0  0  0  0  0  0  0  0  0
    5.8775   45.7975   50.0155 H   0  0  0  0  0  0  0  0  0  0  0  0
    3.6101   46.4599   50.8176 H   0  0  0  0  0  0  0  0  0  0  0  0
    2.3676   47.0063   52.5927 H   0  0  0  0  0  0  0  0  0  0  0  0
    1.1344   46.3852   53.7664 H   0  0  0  0  0  0  0  0  0  0  0  0
    3.7934   47.9064   53.0619 H   0  0  0  0  0  0  0  0  0  0  0  0
    4.6801   48.2380   54.5915 H   0  0  0  0  0  0  0  0  0  0  0  0
    5.7884   47.0995   51.9833 H   0  0  0  0  0  0  0  0  0  0  0  0
    6.1959   48.6764   52.8220 H   0  0  0  0  0  0  0  0  0  0  0  0
    7.4813   45.6868   55.4369 H   0  0  0  0  0  0  0  0  0  0  0  0
    6.4480   47.1517   55.7298 H   0  0  0  0  0  0  0  0  0  0  0  0
    5.6514   44.5600   54.3311 H   0  0  0  0  0  0  0  0  0  0  0  0
    5.0318   45.2330   55.8977 H   0  0  0  0  0  0  0  0  0  0  0  0
    8.2116   45.0418   53.4106 H   0  0  0  0  0  0  0  0  0  0  0  0
    6.9302   45.3537   52.1847 H   0  0  0  0  0  0  0  0  0  0  0  0
    8.3083   47.1571   51.1917 H   0  0  0  0  0  0  0  0  0  0  0  0
    9.9010   45.8230   50.3570 H   0  0  0  0  0  0  0  0  0  0  0  0
   10.7345   46.3655   52.7670 H   0  0  0  0  0  0  0  0  0  0  0  0
   10.2329   47.9715   52.0921 H   0  0  0  0  0  0  0  0  0  0  0  0
    9.4737   46.6667   54.7217 H   0  0  0  0  0  0  0  0  0  0  0  0
   10.0532   48.3443   54.3809 H   0  0  0  0  0  0  0  0  0  0  0  0
    2.6958   42.3168   51.6735 H   0  0  0  0  0  0  0  0  0  0  0  0
    4.9624   41.6486   50.8712 H   0  0  0  0  0  0  0  0  0  0  0  0
  1  2  1  0
  2  3  2  0
  3  4  1  0
  4  5  2  0
  5  6  1  0
  6  7  1  0
  7  8  1  0
  8  9  2  0
  8 10  1  0
 10 11  1  0
 11 12  1  0
 12 13  1  0
 13 14  1  0
 14 15  1  0
 13 16  1  0
 16 17  1  0
 17 18  1  0
 17 19  1  0
 19 20  1  0
 20 21  1  0
  5 22  1  0
 22 23  2  0
 23  2  1  0
 15 10  1  0
 21 13  1  0
  1 24  1  0
  1 25  1  0
  1 26  1  0
  3 27  1  0
  4 28  1  0
  7 29  1  0
  7 30  1  0
 11 31  1  0
 11 32  1  0
 12 33  1  0
 12 34  1  0
 14 35  1  0
 14 36  1  0
 15 37  1  0
 15 38  1  0
 16 39  1  0
 16 40  1  0
 17 41  1  6
 18 42  1  0
 19 43  1  0
 19 44  1  0
 20 45  1  0
 20 46  1  0
 22 47  1  0
 23 48  1  0
M  END
>  <meeko>  (2) 
{"is_sidechain": [false], "free_energy": -8.559, "intermolecular_energy": -9.977, "internal_energy": -0.626}

$$$$
ligand_82_conformer_3_docked
     RDKit          3D

 48 50  0  0  0  0  0  0  0  0999 V2000
   10.2600   47.5480   54.8460 C   0  0  0  0  0  0  0  0  0  0  0  0
    9.2390   47.0470   53.8690 C   0  0  0  0  0  0  0  0  0  0  0  0
    9.6050   46.7370   52.5490 C   0  0  0  0  0  0  0  0  0  0  0  0
    8.6540   46.2400   51.6530 C   0  0  0  0  0  0  0  0  0  0  0  0
    7.3320   46.0460   52.0680 C   0  0  0  0  0  0  0  0  0  0  0  0
    6.1180   45.3970   50.9150 S   0  0  0  0  0  0  0  0  0  0  0  0
    5.1700   44.4610   52.1690 C   0  0  0  0  0  0  0  0  0  0  0  0
    4.0390   43.6890   51.5460 C   0  0  0  0  0  0  0  0  0  0  0  0
    4.2850   42.5260   51.1220 O   0  0  0  0  0  0  0  0  0  0  0  0
    2.6900   44.2080   51.4580 N   0  0  0  0  0  0  0  0  0  0  0  0
    2.3450   45.5980   51.7940 C   0  0  0  0  0  0  0  0  0  0  0  0
    1.1390   45.6190   52.7410 C   0  0  0  0  0  0  0  0  0  0  0  0
   -0.0750   44.7530   52.2530 C   0  0  0  0  0  0  0  0  0  0  0  0
    0.2640   44.0210   50.9230 C   0  0  0  0  0  0  0  0  0  0  0  0
    1.6240   43.3100   50.9830 C   0  0  0  0  0  0  0  0  0  0  0  0
   -0.4320   43.6960   53.3600 C   0  0  0  0  0  0  0  0  0  0  0  0
   -1.3980   44.3060   54.3760 C   0  0  2  0  0  0  0  0  0  0  0  0
   -1.7070   43.3520   55.3590 O   0  0  0  0  0  0  0  0  0  0  0  0
   -2.6810   44.7810   53.6660 C   0  0  0  0  0  0  0  0  0  0  0  0
   -2.4270   45.0910   52.1810 C   0  0  0  0  0  0  0  0  0  0  0  0
   -1.1470   45.6660   51.9970 O   0  0  0  0  0  0  0  0  0  0  0  0
    6.9660   46.3340   53.3880 C   0  0  0  0  0  0  0  0  0  0  0  0
    7.9160   46.8310   54.2860 C   0  0  0  0  0  0  0  0  0  0  0  0
    9.9030   47.3728   55.8716 H   0  0  0  0  0  0  0  0  0  0  0  0
   11.2087   47.0131   54.6916 H   0  0  0  0  0  0  0  0  0  0  0  0
   10.4174   48.6257   54.6916 H   0  0  0  0  0  0  0  0  0  0  0  0
   10.6437   46.8858   52.2190 H   0  0  0  0  0  0  0  0  0  0  0  0
    8.9456   46.0010   50.6196 H   0  0  0  0  0  0  0  0  0  0  0  0
    5.8464   43.7568   52.6755 H   0  0  0  0  0  0  0  0  0  0  0  0
    4.7431   45.1794   52.8844 H   0  0  0  0  0  0  0  0  0  0  0  0
    3.2037   46.0789   52.2853 H   0  0  0  0  0  0  0  0  0  0  0  0
    2.0928   46.1428   50.8723 H   0  0  0  0  0  0  0  0  0  0  0  0
    1.4628   45.2384   53.7209 H   0  0  0  0  0  0  0  0  0  0  0  0
    0.7881   46.6606   52.7841 H   0  0  0  0  0  0  0  0  0  0  0  0
   -0.5177   43.2741   50.7204 H   0  0  0  0  0  0  0  0  0  0  0  0
    0.3124   44.7761   50.1246 H   0  0  0  0  0  0  0  0  0  0  0  0
    1.5480   42.4535   51.6690 H   0  0  0  0  0  0  0  0  0  0  0  0
    1.8826   42.9803   49.9660 H   0  0  0  0  0  0  0  0  0  0  0  0
   -0.9038   42.8210   52.8891 H   0  0  0  0  0  0  0  0  0  0  0  0
    0.4896   43.3908   53.8773 H   0  0  0  0  0  0  0  0  0  0  0  0
   -0.9235   45.1748   54.8556 H   0  0  0  0  0  0  0  0  0  0  0  0
   -1.0020   43.4210   56.0540 H   0  0  0  0  0  0  0  0  0  0  0  0
   -3.4429   43.9911   53.7402 H   0  0  0  0  0  0  0  0  0  0  0  0
   -3.0225   45.7048   54.1559 H   0  0  0  0  0  0  0  0  0  0  0  0
   -2.4890   44.1575   51.6025 H   0  0  0  0  0  0  0  0  0  0  0  0
   -3.1871   45.8077   51.8365 H   0  0  0  0  0  0  0  0  0  0  0  0
    5.9301   46.1692   53.7194 H   0  0  0  0  0  0  0  0  0  0  0  0
    7.6254   47.0536   55.3233 H   0  0  0  0  0  0  0  0  0  0  0  0
  1  2  1  0
  2  3  2  0
  3  4  1  0
  4  5  2  0
  5  6  1  0
  6  7  1  0
  7  8  1  0
  8  9  2  0
  8 10  1  0
 10 11  1  0
 11 12  1  0
 12 13  1  0
 13 14  1  0
 14 15  1  0
 13 16  1  0
 16 17  1  0
 17 18  1  0
 17 19  1  0
 19 20  1  0
 20 21  1  0
  5 22  1  0
 22 23  2  0
 23  2  1  0
 15 10  1  0
 21 13  1  0
  1 24  1  0
  1 25  1  0
  1 26  1  0
  3 27  1  0
  4 28  1  0
  7 29  1  0
  7 30  1  0
 11 31  1  0
 11 32  1  0
 12 33  1  0
 12 34  1  0
 14 35  1  0
 14 36  1  0
 15 37  1  0
 15 38  1  0
 16 39  1  0
 16 40  1  0
 17 41  1  1
 18 42  1  0
 19 43  1  0
 19 44  1  0
 20 45  1  0
 20 46  1  0
 22 47  1  0
 23 48  1  0
M  END
>  <meeko>  (3) 
{"is_sidechain": [false], "free_energy": -8.142, "intermolecular_energy": -9.851, "internal_energy": -0.25}

$$$$
ligand_82_conformer_3_docked
     RDKit          3D

 48 50  0  0  0  0  0  0  0  0999 V2000
   10.2620   47.6090   55.3110 C   0  0  0  0  0  0  0  0  0  0  0  0
    9.5600   47.0940   54.0890 C   0  0  0  0  0  0  0  0  0  0  0  0
   10.2810   46.8140   52.9160 C   0  0  0  0  0  0  0  0  0  0  0  0
    9.6240   46.3060   51.7920 C   0  0  0  0  0  0  0  0  0  0  0  0
    8.2450   46.0710   51.8290 C   0  0  0  0  0  0  0  0  0  0  0  0
    7.4100   45.4080   50.3840 S   0  0  0  0  0  0  0  0  0  0  0  0
    6.0390   44.6340   51.3170 C   0  0  0  0  0  0  0  0  0  0  0  0
    4.7640   45.4240   51.1840 C   0  0  0  0  0  0  0  0  0  0  0  0
    4.5600   46.0330   50.0980 O   0  0  0  0  0  0  0  0  0  0  0  0
    3.7600   45.4710   52.2260 N   0  0  0  0  0  0  0  0  0  0  0  0
    3.9760   44.9130   53.5700 C   0  0  0  0  0  0  0  0  0  0  0  0
    2.7900   44.0230   53.9590 C   0  0  0  0  0  0  0  0  0  0  0  0
    1.3880   44.6980   53.7590 C   0  0  0  0  0  0  0  0  0  0  0  0
    1.5390   46.1210   53.1490 C   0  0  0  0  0  0  0  0  0  0  0  0
    2.4780   46.1340   51.9340 C   0  0  0  0  0  0  0  0  0  0  0  0
    0.5170   43.8050   52.8030 C   0  0  0  0  0  0  0  0  0  0  0  0
   -0.2190   42.7350   53.6100 C   0  0  2  0  0  0  0  0  0  0  0  0
   -0.9920   41.9440   52.7450 O   0  0  0  0  0  0  0  0  0  0  0  0
   -1.1160   43.4000   54.6730 C   0  0  0  0  0  0  0  0  0  0  0  0
   -0.6020   44.7980   55.0560 C   0  0  0  0  0  0  0  0  0  0  0  0
    0.8130   44.8320   55.0630 O   0  0  0  0  0  0  0  0  0  0  0  0
    7.5250   46.3290   53.0020 C   0  0  0  0  0  0  0  0  0  0  0  0
    8.1810   46.8380   54.1280 C   0  0  0  0  0  0  0  0  0  0  0  0
    9.7525   47.2352   56.2114 H   0  0  0  0  0  0  0  0  0  0  0  0
   11.3053   47.2605   55.3087 H   0  0  0  0  0  0  0  0  0  0  0  0
   10.2428   48.7088   55.3087 H   0  0  0  0  0  0  0  0  0  0  0  0
   11.3655   46.9951   52.8823 H   0  0  0  0  0  0  0  0  0  0  0  0
   10.1926   46.0902   50.8754 H   0  0  0  0  0  0  0  0  0  0  0  0
    5.8719   43.6182   50.9294 H   0  0  0  0  0  0  0  0  0  0  0  0
    6.3182   44.6070   52.3806 H   0  0  0  0  0  0  0  0  0  0  0  0
    4.8986   44.3140   53.5728 H   0  0  0  0  0  0  0  0  0  0  0  0
    4.0662   45.7355   54.2948 H   0  0  0  0  0  0  0  0  0  0  0  0
    2.8255   43.1121   53.3434 H   0  0  0  0  0  0  0  0  0  0  0  0
    2.8903   43.8142   55.0343 H   0  0  0  0  0  0  0  0  0  0  0  0
    0.5475   46.4787   52.8344 H   0  0  0  0  0  0  0  0  0  0  0  0
    1.9742   46.7745   53.9194 H   0  0  0  0  0  0  0  0  0  0  0  0
    1.9882   45.6102   51.0999 H   0  0  0  0  0  0  0  0  0  0  0  0
    2.6868   47.1824   51.6747 H   0  0  0  0  0  0  0  0  0  0  0  0
   -0.2172   44.4377   52.2827 H   0  0  0  0  0  0  0  0  0  0  0  0
    1.1744   43.3147   52.0699 H   0  0  0  0  0  0  0  0  0  0  0  0
    0.5147   42.0951   54.1221 H   0  0  0  0  0  0  0  0  0  0  0  0
   -0.4040   41.7010   51.9820 H   0  0  0  0  0  0  0  0  0  0  0  0
   -2.1359   43.4926   54.2716 H   0  0  0  0  0  0  0  0  0  0  0  0
   -1.1035   42.7707   55.5751 H   0  0  0  0  0  0  0  0  0  0  0  0
   -0.9762   45.5315   54.3266 H   0  0  0  0  0  0  0  0  0  0  0  0
   -0.9642   45.0409   56.0659 H   0  0  0  0  0  0  0  0  0  0  0  0
    6.4435   46.1314   53.0381 H   0  0  0  0  0  0  0  0  0  0  0  0
    7.6129   47.0385   55.0484 H   0  0  0  0  0  0  0  0  0  0  0  0
  1  2  1  0
  2  3  2  0
  3  4  1  0
  4  5  2  0
  5  6  1  0
  6  7  1  0
  7  8  1  0
  8  9  2  0
  8 10  1  0
 10 11  1  0
 11 12  1  0
 12 13  1  0
 13 14  1  0
 14 15  1  0
 13 16  1  0
 16 17  1  0
 17 18  1  0
 17 19  1  0
 19 20  1  0
 20 21  1  0
  5 22  1  0
 22 23  2  0
 23  2  1  0
 15 10  1  0
 21 13  1  0
  1 24  1  0
  1 25  1  0
  1 26  1  0
  3 27  1  0
  4 28  1  0
  7 29  1  0
  7 30  1  0
 11 31  1  0
 11 32  1  0
 12 33  1  0
 12 34  1  0
 14 35  1  0
 14 36  1  0
 15 37  1  0
 15 38  1  0
 16 39  1  0
 16 40  1  0
 17 41  1  1
 18 42  1  0
 19 43  1  0
 19 44  1  0
 20 45  1  0
 20 46  1  0
 22 47  1  0
 23 48  1  0
M  END
>  <meeko>  (4) 
{"is_sidechain": [false], "free_energy": -8.099, "intermolecular_energy": -9.818, "internal_energy": -0.231}

$$$$
ligand_82_conformer_3_docked
     RDKit          3D

 48 50  0  0  0  0  0  0  0  0999 V2000
   -3.8110   46.3520   57.6970 C   0  0  0  0  0  0  0  0  0  0  0  0
   -2.4660   45.9940   57.1370 C   0  0  0  0  0  0  0  0  0  0  0  0
   -1.3020   46.6060   57.6300 C   0  0  0  0  0  0  0  0  0  0  0  0
   -0.0500   46.2440   57.1250 C   0  0  0  0  0  0  0  0  0  0  0  0
    0.0510   45.2680   56.1280 C   0  0  0  0  0  0  0  0  0  0  0  0
    1.6630   44.8000   55.4920 S   0  0  0  0  0  0  0  0  0  0  0  0
    1.0480   44.2190   53.8700 C   0  0  0  0  0  0  0  0  0  0  0  0
    1.5020   45.1170   52.7510 C   0  0  0  0  0  0  0  0  0  0  0  0
    0.7180   46.0340   52.3790 O   0  0  0  0  0  0  0  0  0  0  0  0
    2.8020   44.9960   52.1260 N   0  0  0  0  0  0  0  0  0  0  0  0
    3.7170   43.8760   52.3960 C   0  0  0  0  0  0  0  0  0  0  0  0
    5.1160   44.4140   52.7180 C   0  0  0  0  0  0  0  0  0  0  0  0
    5.6590   45.4540   51.6760 C   0  0  0  0  0  0  0  0  0  0  0  0
    4.6020   45.7370   50.5710 C   0  0  0  0  0  0  0  0  0  0  0  0
    3.2130   46.0260   51.1580 C   0  0  0  0  0  0  0  0  0  0  0  0
    6.0140   46.7920   52.4200 C   0  0  0  0  0  0  0  0  0  0  0  0
    7.4430   46.7290   52.9600 C   0  0  2  0  0  0  0  0  0  0  0  0
    7.7470   47.9290   53.6230 O   0  0  0  0  0  0  0  0  0  0  0  0
    8.4340   46.4890   51.8030 C   0  0  0  0  0  0  0  0  0  0  0  0
    7.7590   45.7890   50.6120 C   0  0  0  0  0  0  0  0  0  0  0  0
    6.7990   44.8490   51.0560 O   0  0  0  0  0  0  0  0  0  0  0  0
   -1.1050   44.6390   55.6480 C   0  0  0  0  0  0  0  0  0  0  0  0
   -2.3590   45.0000   56.1520 C   0  0  0  0  0  0  0  0  0  0  0  0
   -3.7656   46.3399   58.7960 H   0  0  0  0  0  0  0  0  0  0  0  0
   -4.0957   47.3572   57.3528 H   0  0  0  0  0  0  0  0  0  0  0  0
   -4.5578   45.6214   57.3528 H   0  0  0  0  0  0  0  0  0  0  0  0
   -1.3759   47.3723   58.4157 H   0  0  0  0  0  0  0  0  0  0  0  0
    0.8585   46.7280   57.5127 H   0  0  0  0  0  0  0  0  0  0  0  0
    1.4268   43.2025   53.6879 H   0  0  0  0  0  0  0  0  0  0  0  0
   -0.0517   44.2300   53.8951 H   0  0  0  0  0  0  0  0  0  0  0  0
    3.3424   43.2969   53.2529 H   0  0  0  0  0  0  0  0  0  0  0  0
    3.7721   43.2299   51.5075 H   0  0  0  0  0  0  0  0  0  0  0  0
    5.0805   44.8998   53.7043 H   0  0  0  0  0  0  0  0  0  0  0  0
    5.8002   43.5530   52.6922 H   0  0  0  0  0  0  0  0  0  0  0  0
    4.9272   46.6089   49.9846 H   0  0  0  0  0  0  0  0  0  0  0  0
    4.5225   44.8385   49.9415 H   0  0  0  0  0  0  0  0  0  0  0  0
    3.2371   47.0017   51.6654 H   0  0  0  0  0  0  0  0  0  0  0  0
    2.4868   46.0271   50.3318 H   0  0  0  0  0  0  0  0  0  0  0  0
    5.9274   47.6334   51.7168 H   0  0  0  0  0  0  0  0  0  0  0  0
    5.3175   46.9331   53.2596 H   0  0  0  0  0  0  0  0  0  0  0  0
    7.5282   45.8946   53.6717 H   0  0  0  0  0  0  0  0  0  0  0  0
    7.5880   47.7670   54.5890 H   0  0  0  0  0  0  0  0  0  0  0  0
    8.8322   47.4581   51.4679 H   0  0  0  0  0  0  0  0  0  0  0  0
    9.2402   45.8377   52.1716 H   0  0  0  0  0  0  0  0  0  0  0  0
    7.2609   46.5439   49.9858 H   0  0  0  0  0  0  0  0  0  0  0  0
    8.5296   45.2577   50.0341 H   0  0  0  0  0  0  0  0  0  0  0  0
   -1.0266   43.8609   54.8744 H   0  0  0  0  0  0  0  0  0  0  0  0
   -3.2648   44.5028   55.7748 H   0  0  0  0  0  0  0  0  0  0  0  0
  1  2  1  0
  2  3  2  0
  3  4  1  0
  4  5  2  0
  5  6  1  0
  6  7  1  0
  7  8  1  0
  8  9  2  0
  8 10  1  0
 10 11  1  0
 11 12  1  0
 12 13  1  0
 13 14  1  0
 14 15  1  0
 13 16  1  0
 16 17  1  0
 17 18  1  0
 17 19  1  0
 19 20  1  0
 20 21  1  0
  5 22  1  0
 22 23  2  0
 23  2  1  0
 15 10  1  0
 21 13  1  0
  1 24  1  0
  1 25  1  0
  1 26  1  0
  3 27  1  0
  4 28  1  0
  7 29  1  0
  7 30  1  0
 11 31  1  0
 11 32  1  0
 12 33  1  0
 12 34  1  0
 14 35  1  0
 14 36  1  0
 15 37  1  0
 15 38  1  0
 16 39  1  0
 16 40  1  0
 17 41  1  1
 18 42  1  0
 19 43  1  0
 19 44  1  0
 20 45  1  0
 20 46  1  0
 22 47  1  0
 23 48  1  0
M  END
>  <meeko>  (5) 
{"is_sidechain": [false], "free_energy": -7.411, "intermolecular_energy": -8.876, "internal_energy": -0.343}

$$$$
