ligand_96_conformer_4_docked
     RDKit          3D

 40 42  0  0  0  0  0  0  0  0999 V2000
    9.9310   47.1870   54.5910 C   0  0  0  0  0  0  0  0  0  0  0  0
    8.7660   47.0230   53.6060 C   0  0  0  0  0  0  0  0  0  0  0  0
    9.2240   47.2750   52.1530 C   0  0  0  0  0  0  0  0  0  0  0  0
    8.9420   46.1080   51.2500 C   0  0  0  0  0  0  0  0  0  0  0  0
    9.8590   45.2810   50.9990 O   0  0  0  0  0  0  0  0  0  0  0  0
    7.6270   45.9160   50.7070 N   0  0  0  0  0  0  0  0  0  0  0  0
    7.2280   44.6780   50.0450 C   0  0  0  0  0  0  0  0  0  0  0  0
    5.8420   44.2870   50.4830 C   0  0  0  0  0  0  0  0  0  0  0  0
    4.9140   45.2760   50.8350 C   0  0  0  0  0  0  0  0  0  0  0  0
    3.6430   44.9220   51.2940 C   0  0  0  0  0  0  0  0  0  0  0  0
    3.2770   43.5670   51.4160 C   0  0  0  0  0  0  0  0  0  0  0  0
    1.9700   43.1810   51.8920 N   0  0  0  0  0  0  0  0  0  0  0  0
    0.8020   43.1850   51.2200 C   0  0  0  0  0  0  0  0  0  0  0  0
   -0.2140   42.7640   51.9970 N   0  0  0  0  0  0  0  0  0  0  0  0
    0.4040   42.5060   53.1690 C   0  0  0  0  0  0  0  0  0  0  0  0
    1.7250   42.7560   53.1200 N   0  0  0  0  0  0  0  0  0  0  0  0
    4.2150   42.5800   51.0600 C   0  0  0  0  0  0  0  0  0  0  0  0
    5.4860   42.9360   50.6030 C   0  0  0  0  0  0  0  0  0  0  0  0
    7.7490   47.9450   53.9430 O   0  0  0  0  0  0  0  0  0  0  0  0
    6.6700   47.1860   54.3850 C   0  0  0  0  0  0  0  0  0  0  0  0
    6.9250   45.7860   53.9220 C   0  0  0  0  0  0  0  0  0  0  0  0
    8.2950   45.6940   53.6980 O   0  0  0  0  0  0  0  0  0  0  0  0
    9.5501   47.1334   55.6216 H   0  0  0  0  0  0  0  0  0  0  0  0
   10.6642   46.3832   54.4288 H   0  0  0  0  0  0  0  0  0  0  0  0
   10.4138   48.1620   54.4288 H   0  0  0  0  0  0  0  0  0  0  0  0
    8.6948   48.1576   51.7644 H   0  0  0  0  0  0  0  0  0  0  0  0
   10.3129   47.4303   52.1681 H   0  0  0  0  0  0  0  0  0  0  0  0
    6.9020   46.6550   50.8560 H   0  0  0  0  0  0  0  0  0  0  0  0
    7.2376   44.8276   48.9553 H   0  0  0  0  0  0  0  0  0  0  0  0
    7.9329   43.8784   50.3166 H   0  0  0  0  0  0  0  0  0  0  0  0
    5.1880   46.3379   50.7494 H   0  0  0  0  0  0  0  0  0  0  0  0
    2.9217   45.7079   51.5625 H   0  0  0  0  0  0  0  0  0  0  0  0
    0.6924   43.4931   50.1697 H   0  0  0  0  0  0  0  0  0  0  0  0
   -0.1147   42.1329   54.0644 H   0  0  0  0  0  0  0  0  0  0  0  0
    3.9443   41.5170   51.1425 H   0  0  0  0  0  0  0  0  0  0  0  0
    6.2110   42.1530   50.3360 H   0  0  0  0  0  0  0  0  0  0  0  0
    6.6054   47.2186   55.4826 H   0  0  0  0  0  0  0  0  0  0  0  0
    5.7196   47.5721   53.9878 H   0  0  0  0  0  0  0  0  0  0  0  0
    6.6159   45.0667   54.6947 H   0  0  0  0  0  0  0  0  0  0  0  0
    6.3538   45.5552   53.0107 H   0  0  0  0  0  0  0  0  0  0  0  0
  1  2  1  0
  2  3  1  0
  3  4  1  0
  4  5  2  0
  4  6  1  0
  6  7  1  0
  7  8  1  0
  8  9  2  0
  9 10  1  0
 10 11  2  0
 11 12  1  0
 12 13  1  0
 13 14  2  0
 14 15  1  0
 15 16  2  0
 11 17  1  0
 17 18  2  0
  2 19  1  0
 19 20  1  0
 20 21  1  0
 21 22  1  0
 22  2  1  0
 18  8  1  0
 16 12  1  0
  1 23  1  0
  1 24  1  0
  1 25  1  0
  3 26  1  0
  3 27  1  0
  6 28  1  0
  7 29  1  0
  7 30  1  0
  9 31  1  0
 10 32  1  0
 13 33  1  0
 15 34  1  0
 17 35  1  0
 18 36  1  0
 20 37  1  0
 20 38  1  0
 21 39  1  0
 21 40  1  0
M  END
>  <meeko>  (1) 
{"is_sidechain": [false], "free_energy": -7.691, "intermolecular_energy": -9.939, "internal_energy": -0.635}

$$$$
ligand_96_conformer_4_docked
     RDKit          3D

 40 42  0  0  0  0  0  0  0  0999 V2000
    0.1680   42.3040   53.8310 C   0  0  0  0  0  0  0  0  0  0  0  0
    0.2420   43.8320   53.9630 C   0  0  0  0  0  0  0  0  0  0  0  0
   -0.0650   44.5230   52.6160 C   0  0  0  0  0  0  0  0  0  0  0  0
    1.1280   44.5600   51.7030 C   0  0  0  0  0  0  0  0  0  0  0  0
    1.2610   43.6720   50.8190 O   0  0  0  0  0  0  0  0  0  0  0  0
    2.0890   45.6200   51.8140 N   0  0  0  0  0  0  0  0  0  0  0  0
    3.1140   45.8540   50.8000 C   0  0  0  0  0  0  0  0  0  0  0  0
    4.4200   46.2000   51.4630 C   0  0  0  0  0  0  0  0  0  0  0  0
    5.6270   45.7410   50.9160 C   0  0  0  0  0  0  0  0  0  0  0  0
    6.8400   46.0120   51.5540 C   0  0  0  0  0  0  0  0  0  0  0  0
    6.8690   46.7430   52.7580 C   0  0  0  0  0  0  0  0  0  0  0  0
    8.1130   47.0290   53.4340 N   0  0  0  0  0  0  0  0  0  0  0  0
    9.3690   46.7910   53.0070 C   0  0  0  0  0  0  0  0  0  0  0  0
   10.2790   47.1880   53.9160 N   0  0  0  0  0  0  0  0  0  0  0  0
    9.5070   47.6760   54.9090 C   0  0  0  0  0  0  0  0  0  0  0  0
    8.1940   47.5840   54.6310 N   0  0  0  0  0  0  0  0  0  0  0  0
    5.6540   47.1990   53.3000 C   0  0  0  0  0  0  0  0  0  0  0  0
    4.4410   46.9270   52.6620 C   0  0  0  0  0  0  0  0  0  0  0  0
    1.5420   44.1910   54.3880 O   0  0  0  0  0  0  0  0  0  0  0  0
    1.3990   44.7080   55.6730 C   0  0  0  0  0  0  0  0  0  0  0  0
   -0.0560   45.0190   55.8390 C   0  0  0  0  0  0  0  0  0  0  0  0
   -0.7300   44.2410   54.9020 O   0  0  0  0  0  0  0  0  0  0  0  0
    0.1460   41.8501   54.8327 H   0  0  0  0  0  0  0  0  0  0  0  0
   -0.7446   42.0271   53.2829 H   0  0  0  0  0  0  0  0  0  0  0  0
    1.0496   41.9402   53.2829 H   0  0  0  0  0  0  0  0  0  0  0  0
   -0.8759   43.9742   52.1148 H   0  0  0  0  0  0  0  0  0  0  0  0
   -0.3531   45.5625   52.8317 H   0  0  0  0  0  0  0  0  0  0  0  0
    2.0100   46.2990   52.6040 H   0  0  0  0  0  0  0  0  0  0  0  0
    3.2420   44.9449   50.1941 H   0  0  0  0  0  0  0  0  0  0  0  0
    2.8023   46.6892   50.1556 H   0  0  0  0  0  0  0  0  0  0  0  0
    5.6186   45.1643   49.9793 H   0  0  0  0  0  0  0  0  0  0  0  0
    7.7807   45.6514   51.1124 H   0  0  0  0  0  0  0  0  0  0  0  0
    9.6186   46.3311   52.0394 H   0  0  0  0  0  0  0  0  0  0  0  0
    9.9064   48.1014   55.8415 H   0  0  0  0  0  0  0  0  0  0  0  0
    5.6587   47.7761   54.2364 H   0  0  0  0  0  0  0  0  0  0  0  0
    3.4985   47.2847   53.1021 H   0  0  0  0  0  0  0  0  0  0  0  0
    1.7180   43.9663   56.4201 H   0  0  0  0  0  0  0  0  0  0  0  0
    2.0193   45.6052   55.8152 H   0  0  0  0  0  0  0  0  0  0  0  0
   -0.3869   44.7624   56.8562 H   0  0  0  0  0  0  0  0  0  0  0  0
   -0.2561   46.0901   55.6883 H   0  0  0  0  0  0  0  0  0  0  0  0
  1  2  1  0
  2  3  1  0
  3  4  1  0
  4  5  2  0
  4  6  1  0
  6  7  1  0
  7  8  1  0
  8  9  2  0
  9 10  1  0
 10 11  2  0
 11 12  1  0
 12 13  1  0
 13 14  2  0
 14 15  1  0
 15 16  2  0
 11 17  1  0
 17 18  2  0
  2 19  1  0
 19 20  1  0
 20 21  1  0
 21 22  1  0
 22  2  1  0
 18  8  1  0
 16 12  1  0
  1 23  1  0
  1 24  1  0
  1 25  1  0
  3 26  1  0
  3 27  1  0
  6 28  1  0
  7 29  1  0
  7 30  1  0
  9 31  1  0
 10 32  1  0
 13 33  1  0
 15 34  1  0
 17 35  1  0
 18 36  1  0
 20 37  1  0
 20 38  1  0
 21 39  1  0
 21 40  1  0
M  END
>  <meeko>  (2) 
{"is_sidechain": [false], "free_energy": -7.588, "intermolecular_energy": -9.628, "internal_energy": -0.813}

$$$$
ligand_96_conformer_4_docked
     RDKit          3D

 40 42  0  0  0  0  0  0  0  0999 V2000
   -1.0760   44.8950   52.8820 C   0  0  0  0  0  0  0  0  0  0  0  0
    0.0980   44.2680   53.6470 C   0  0  0  0  0  0  0  0  0  0  0  0
    0.4700   42.8880   53.0630 C   0  0  0  0  0  0  0  0  0  0  0  0
    1.4680   42.9860   51.9440 C   0  0  0  0  0  0  0  0  0  0  0  0
    1.0620   43.0200   50.7520 O   0  0  0  0  0  0  0  0  0  0  0  0
    2.8710   43.0780   52.2340 N   0  0  0  0  0  0  0  0  0  0  0  0
    3.8570   43.4340   51.2180 C   0  0  0  0  0  0  0  0  0  0  0  0
    4.9360   44.2870   51.8280 C   0  0  0  0  0  0  0  0  0  0  0  0
    5.9070   44.8800   51.0090 C   0  0  0  0  0  0  0  0  0  0  0  0
    6.9450   45.6290   51.5710 C   0  0  0  0  0  0  0  0  0  0  0  0
    7.0340   45.7940   52.9670 C   0  0  0  0  0  0  0  0  0  0  0  0
    8.1000   46.5610   53.5660 N   0  0  0  0  0  0  0  0  0  0  0  0
    9.3920   46.6320   53.1880 C   0  0  0  0  0  0  0  0  0  0  0  0
   10.0960   47.4480   53.9950 N   0  0  0  0  0  0  0  0  0  0  0  0
    9.1620   47.8620   54.8770 C   0  0  0  0  0  0  0  0  0  0  0  0
    7.9500   47.3310   54.6300 N   0  0  0  0  0  0  0  0  0  0  0  0
    6.0550   45.1950   53.7810 C   0  0  0  0  0  0  0  0  0  0  0  0
    5.0200   44.4450   53.2180 C   0  0  0  0  0  0  0  0  0  0  0  0
   -0.2690   44.1190   55.0040 O   0  0  0  0  0  0  0  0  0  0  0  0
    0.5400   44.9970   55.7210 C   0  0  0  0  0  0  0  0  0  0  0  0
    1.6660   45.3690   54.8080 C   0  0  0  0  0  0  0  0  0  0  0  0
    1.2160   45.1210   53.5140 O   0  0  0  0  0  0  0  0  0  0  0  0
   -1.8123   45.2882   53.5984 H   0  0  0  0  0  0  0  0  0  0  0  0
   -0.7054   45.7153   52.2497 H   0  0  0  0  0  0  0  0  0  0  0  0
   -1.5516   44.1308   52.2497 H   0  0  0  0  0  0  0  0  0  0  0  0
    0.8992   42.2697   53.8652 H   0  0  0  0  0  0  0  0  0  0  0  0
   -0.4476   42.4402   52.6538 H   0  0  0  0  0  0  0  0  0  0  0  0
    3.1950   42.9640   53.2210 H   0  0  0  0  0  0  0  0  0  0  0  0
    4.3052   42.5171   50.8077 H   0  0  0  0  0  0  0  0  0  0  0  0
    3.3611   43.9976   50.4139 H   0  0  0  0  0  0  0  0  0  0  0  0
    5.8518   44.7552   49.9175 H   0  0  0  0  0  0  0  0  0  0  0  0
    7.6984   46.0933   50.9177 H   0  0  0  0  0  0  0  0  0  0  0  0
    9.8171   46.0918   52.3292 H   0  0  0  0  0  0  0  0  0  0  0  0
    9.3682   48.5559   55.7052 H   0  0  0  0  0  0  0  0  0  0  0  0
    6.1054   45.3188   54.8729 H   0  0  0  0  0  0  0  0  0  0  0  0
    4.2672   43.9761   53.8687 H   0  0  0  0  0  0  0  0  0  0  0  0
   -0.0302   45.8930   56.0076 H   0  0  0  0  0  0  0  0  0  0  0  0
    0.9116   44.5336   56.6469 H   0  0  0  0  0  0  0  0  0  0  0  0
    1.9173   46.4333   54.9268 H   0  0  0  0  0  0  0  0  0  0  0  0
    2.5733   44.7897   55.0344 H   0  0  0  0  0  0  0  0  0  0  0  0
  1  2  1  0
  2  3  1  0
  3  4  1  0
  4  5  2  0
  4  6  1  0
  6  7  1  0
  7  8  1  0
  8  9  2  0
  9 10  1  0
 10 11  2  0
 11 12  1  0
 12 13  1  0
 13 14  2  0
 14 15  1  0
 15 16  2  0
 11 17  1  0
 17 18  2  0
  2 19  1  0
 19 20  1  0
 20 21  1  0
 21 22  1  0
 22  2  1  0
 18  8  1  0
 16 12  1  0
  1 23  1  0
  1 24  1  0
  1 25  1  0
  3 26  1  0
  3 27  1  0
  6 28  1  0
  7 29  1  0
  7 30  1  0
  9 31  1  0
 10 32  1  0
 13 33  1  0
 15 34  1  0
 17 35  1  0
 18 36  1  0
 20 37  1  0
 20 38  1  0
 21 39  1  0
 21 40  1  0
M  END
>  <meeko>  (3) 
{"is_sidechain": [false], "free_energy": -7.538, "intermolecular_energy": -9.439, "internal_energy": -0.937}

$$$$
ligand_96_conformer_4_docked
     RDKit          3D

 40 42  0  0  0  0  0  0  0  0999 V2000
    8.3640   48.3980   51.5730 C   0  0  0  0  0  0  0  0  0  0  0  0
    8.4350   47.3240   52.6670 C   0  0  0  0  0  0  0  0  0  0  0  0
    7.5030   46.1360   52.3430 C   0  0  0  0  0  0  0  0  0  0  0  0
    6.3410   46.0420   53.2920 C   0  0  0  0  0  0  0  0  0  0  0  0
    6.3020   45.1030   54.1330 O   0  0  0  0  0  0  0  0  0  0  0  0
    5.3050   47.0340   53.2650 N   0  0  0  0  0  0  0  0  0  0  0  0
    4.3000   47.1420   54.3190 C   0  0  0  0  0  0  0  0  0  0  0  0
    3.1100   46.2850   53.9820 C   0  0  0  0  0  0  0  0  0  0  0  0
    2.7070   45.2690   54.8600 C   0  0  0  0  0  0  0  0  0  0  0  0
    1.6380   44.4320   54.5300 C   0  0  0  0  0  0  0  0  0  0  0  0
    0.9520   44.5930   53.3100 C   0  0  0  0  0  0  0  0  0  0  0  0
   -0.1530   43.7360   52.9500 N   0  0  0  0  0  0  0  0  0  0  0  0
   -0.1520   42.3990   52.7820 C   0  0  0  0  0  0  0  0  0  0  0  0
   -1.3730   41.9470   52.4390 N   0  0  0  0  0  0  0  0  0  0  0  0
   -2.1060   43.0790   52.4090 C   0  0  0  0  0  0  0  0  0  0  0  0
   -1.3790   44.1700   52.7150 N   0  0  0  0  0  0  0  0  0  0  0  0
    1.3630   45.6150   52.4350 C   0  0  0  0  0  0  0  0  0  0  0  0
    2.4340   46.4490   52.7650 C   0  0  0  0  0  0  0  0  0  0  0  0
    8.0490   47.9000   53.8990 O   0  0  0  0  0  0  0  0  0  0  0  0
    9.1900   47.9070   54.6960 C   0  0  0  0  0  0  0  0  0  0  0  0
   10.1540   46.9560   54.0560 C   0  0  0  0  0  0  0  0  0  0  0  0
    9.7620   46.8430   52.7260 O   0  0  0  0  0  0  0  0  0  0  0  0
    8.2983   49.3923   52.0390 H   0  0  0  0  0  0  0  0  0  0  0  0
    9.2676   48.3450   50.9480 H   0  0  0  0  0  0  0  0  0  0  0  0
    7.4752   48.2265   50.9480 H   0  0  0  0  0  0  0  0  0  0  0  0
    7.1151   46.2601   51.3212 H   0  0  0  0  0  0  0  0  0  0  0  0
    8.0916   45.2120   52.4420 H   0  0  0  0  0  0  0  0  0  0  0  0
    5.3100   47.7550   52.5090 H   0  0  0  0  0  0  0  0  0  0  0  0
    4.7336   46.8054   55.2722 H   0  0  0  0  0  0  0  0  0  0  0  0
    3.9782   48.1902   54.4064 H   0  0  0  0  0  0  0  0  0  0  0  0
    3.2357   45.1299   55.8146 H   0  0  0  0  0  0  0  0  0  0  0  0
    1.3293   43.6405   55.2288 H   0  0  0  0  0  0  0  0  0  0  0  0
    0.7333   41.7586   52.9089 H   0  0  0  0  0  0  0  0  0  0  0  0
   -3.1776   43.1075   52.1622 H   0  0  0  0  0  0  0  0  0  0  0  0
    0.8353   45.7590   51.4806 H   0  0  0  0  0  0  0  0  0  0  0  0
    2.7484   47.2383   52.0664 H   0  0  0  0  0  0  0  0  0  0  0  0
    9.6213   48.9181   54.7351 H   0  0  0  0  0  0  0  0  0  0  0  0
    8.9587   47.6079   55.7290 H   0  0  0  0  0  0  0  0  0  0  0  0
   11.1786   47.3513   54.1194 H   0  0  0  0  0  0  0  0  0  0  0  0
   10.1476   45.9785   54.5604 H   0  0  0  0  0  0  0  0  0  0  0  0
  1  2  1  0
  2  3  1  0
  3  4  1  0
  4  5  2  0
  4  6  1  0
  6  7  1  0
  7  8  1  0
  8  9  2  0
  9 10  1  0
 10 11  2  0
 11 12  1  0
 12 13  1  0
 13 14  2  0
 14 15  1  0
 15 16  2  0
 11 17  1  0
 17 18  2  0
  2 19  1  0
 19 20  1  0
 20 21  1  0
 21 22  1  0
 22  2  1  0
 18  8  1  0
 16 12  1  0
  1 23  1  0
  1 24  1  0
  1 25  1  0
  3 26  1  0
  3 27  1  0
  6 28  1  0
  7 29  1  0
  7 30  1  0
  9 31  1  0
 10 32  1  0
 13 33  1  0
 15 34  1  0
 17 35  1  0
 18 36  1  0
 20 37  1  0
 20 38  1  0
 21 39  1  0
 21 40  1  0
M  END
>  <meeko>  (4) 
{"is_sidechain": [false], "free_energy": -7.32, "intermolecular_energy": -9.224, "internal_energy": -0.87}

$$$$
ligand_96_conformer_4_docked
     RDKit          3D

 40 42  0  0  0  0  0  0  0  0999 V2000
   -1.5230   44.1930   54.9780 C   0  0  0  0  0  0  0  0  0  0  0  0
   -0.6270   43.8140   53.7910 C   0  0  0  0  0  0  0  0  0  0  0  0
    0.8620   43.7950   54.2000 C   0  0  0  0  0  0  0  0  0  0  0  0
    1.7810   44.0520   53.0390 C   0  0  0  0  0  0  0  0  0  0  0  0
    2.3900   43.0870   52.5040 O   0  0  0  0  0  0  0  0  0  0  0  0
    1.9360   45.3820   52.5200 N   0  0  0  0  0  0  0  0  0  0  0  0
    2.6010   45.6520   51.2490 C   0  0  0  0  0  0  0  0  0  0  0  0
    4.0680   45.8950   51.4810 C   0  0  0  0  0  0  0  0  0  0  0  0
    5.0210   45.1910   50.7320 C   0  0  0  0  0  0  0  0  0  0  0  0
    6.3850   45.3690   50.9770 C   0  0  0  0  0  0  0  0  0  0  0  0
    6.8230   46.2540   51.9820 C   0  0  0  0  0  0  0  0  0  0  0  0
    8.2280   46.4490   52.2530 N   0  0  0  0  0  0  0  0  0  0  0  0
    8.7970   47.0610   53.3100 C   0  0  0  0  0  0  0  0  0  0  0  0
   10.1400   47.0570   53.2140 N   0  0  0  0  0  0  0  0  0  0  0  0
   10.3480   46.4120   52.0470 C   0  0  0  0  0  0  0  0  0  0  0  0
    9.1980   46.0400   51.4530 N   0  0  0  0  0  0  0  0  0  0  0  0
    5.8590   46.9560   52.7290 C   0  0  0  0  0  0  0  0  0  0  0  0
    4.4960   46.7750   52.4840 C   0  0  0  0  0  0  0  0  0  0  0  0
   -0.8160   44.7580   52.7560 O   0  0  0  0  0  0  0  0  0  0  0  0
   -1.4310   44.0700   51.7130 C   0  0  0  0  0  0  0  0  0  0  0  0
   -1.2340   42.6140   51.9990 C   0  0  0  0  0  0  0  0  0  0  0  0
   -0.9850   42.5160   53.3650 O   0  0  0  0  0  0  0  0  0  0  0  0
   -0.9983   43.9711   55.9190 H   0  0  0  0  0  0  0  0  0  0  0  0
   -1.7565   45.2670   54.9329 H   0  0  0  0  0  0  0  0  0  0  0  0
   -2.4563   43.6126   54.9329 H   0  0  0  0  0  0  0  0  0  0  0  0
    1.0288   44.5719   54.9607 H   0  0  0  0  0  0  0  0  0  0  0  0
    1.0887   42.7918   54.5901 H   0  0  0  0  0  0  0  0  0  0  0  0
    1.4910   46.1800   53.0270 H   0  0  0  0  0  0  0  0  0  0  0  0
    2.4756   44.7874   50.5806 H   0  0  0  0  0  0  0  0  0  0  0  0
    2.1539   46.5453   50.7885 H   0  0  0  0  0  0  0  0  0  0  0  0
    4.6930   44.4942   49.9466 H   0  0  0  0  0  0  0  0  0  0  0  0
    7.1233   44.8134   50.3801 H   0  0  0  0  0  0  0  0  0  0  0  0
    8.2361   47.5069   54.1446 H   0  0  0  0  0  0  0  0  0  0  0  0
   11.3452   46.2124   51.6278 H   0  0  0  0  0  0  0  0  0  0  0  0
    6.1825   47.6549   53.5144 H   0  0  0  0  0  0  0  0  0  0  0  0
    3.7547   47.3260   53.0814 H   0  0  0  0  0  0  0  0  0  0  0  0
   -2.5040   44.3099   51.6784 H   0  0  0  0  0  0  0  0  0  0  0  0
   -1.0003   44.3490   50.7401 H   0  0  0  0  0  0  0  0  0  0  0  0
   -2.1394   42.0478   51.7350 H   0  0  0  0  0  0  0  0  0  0  0  0
   -0.4031   42.1989   51.4096 H   0  0  0  0  0  0  0  0  0  0  0  0
  1  2  1  0
  2  3  1  0
  3  4  1  0
  4  5  2  0
  4  6  1  0
  6  7  1  0
  7  8  1  0
  8  9  2  0
  9 10  1  0
 10 11  2  0
 11 12  1  0
 12 13  1  0
 13 14  2  0
 14 15  1  0
 15 16  2  0
 11 17  1  0
 17 18  2  0
  2 19  1  0
 19 20  1  0
 20 21  1  0
 21 22  1  0
 22  2  1  0
 18  8  1  0
 16 12  1  0
  1 23  1  0
  1 24  1  0
  1 25  1  0
  3 26  1  0
  3 27  1  0
  6 28  1  0
  7 29  1  0
  7 30  1  0
  9 31  1  0
 10 32  1  0
 13 33  1  0
 15 34  1  0
 17 35  1  0
 18 36  1  0
 20 37  1  0
 20 38  1  0
 21 39  1  0
 21 40  1  0
M  END
>  <meeko>  (5) 
{"is_sidechain": [false], "free_energy": -7.304, "intermolecular_energy": -9.305, "internal_energy": -0.769}

$$$$
