ligand_4_conformer_4_docked
     RDKit          3D

 44 47  0  0  0  0  0  0  0  0999 V2000
   10.0130   46.7770   52.4180 C   0  0  0  0  0  0  0  0  0  0  0  0
    8.8630   46.6650   51.6320 C   0  0  0  0  0  0  0  0  0  0  0  0
    7.6010   46.8510   52.2060 C   0  0  0  0  0  0  0  0  0  0  0  0
    7.4840   47.1680   53.5720 C   0  0  0  0  0  0  0  0  0  0  0  0
    6.2370   47.3610   54.1820 O   0  0  0  0  0  0  0  0  0  0  0  0
    5.0210   46.8880   53.6750 C   0  0  0  0  0  0  0  0  0  0  0  0
    4.1240   47.7870   53.0950 C   0  0  0  0  0  0  0  0  0  0  0  0
    2.9250   47.2940   52.5810 C   0  0  0  0  0  0  0  0  0  0  0  0
    2.6570   45.9650   52.6400 N   0  0  0  0  0  0  0  0  0  0  0  0
    3.5430   45.0950   53.1950 C   0  0  0  0  0  0  0  0  0  0  0  0
    3.2370   43.6950   53.2260 N   0  0  0  0  0  0  0  0  0  0  0  0
    3.8970   42.7230   52.3460 C   0  0  1  0  0  0  0  0  0  0  0  0
    2.8440   41.9280   51.5270 C   0  0  0  0  0  0  0  0  0  0  0  0
    3.2470   41.6790   50.0630 C   0  0  0  0  0  0  0  0  0  0  0  0
    4.7370   41.3280   49.9350 C   0  0  1  0  0  0  0  0  0  0  0  0
    5.0630   41.1710   48.5700 O   0  0  0  0  0  0  0  0  0  0  0  0
    6.2310   41.9180   48.3260 C   0  0  0  0  0  0  0  0  0  0  0  0
    6.3290   43.0150   49.3610 C   0  0  0  0  0  0  0  0  0  0  0  0
    5.6510   42.3990   50.5550 C   0  0  1  0  0  0  0  0  0  0  0  0
    4.9110   43.4330   51.4320 C   0  0  0  0  0  0  0  0  0  0  0  0
    4.7150   45.5620   53.7050 N   0  0  0  0  0  0  0  0  0  0  0  0
    8.6400   47.2540   54.3570 C   0  0  0  0  0  0  0  0  0  0  0  0
    9.9010   47.0660   53.7820 C   0  0  0  0  0  0  0  0  0  0  0  0
   11.0055   46.6380   51.9644 H   0  0  0  0  0  0  0  0  0  0  0  0
    8.9503   46.4303   50.5609 H   0  0  0  0  0  0  0  0  0  0  0  0
    6.6971   46.7491   51.5875 H   0  0  0  0  0  0  0  0  0  0  0  0
    4.3579   48.8607   53.0446 H   0  0  0  0  0  0  0  0  0  0  0  0
    2.1965   47.9824   52.1278 H   0  0  0  0  0  0  0  0  0  0  0  0
    2.4730   43.3770   53.8650 H   0  0  0  0  0  0  0  0  0  0  0  0
    4.4510   42.0001   52.9628 H   0  0  0  0  0  0  0  0  0  0  0  0
    2.6908   40.9537   52.0140 H   0  0  0  0  0  0  0  0  0  0  0  0
    1.9299   42.5395   51.5056 H   0  0  0  0  0  0  0  0  0  0  0  0
    2.6491   40.8455   49.6656 H   0  0  0  0  0  0  0  0  0  0  0  0
    3.0626   42.6028   49.4950 H   0  0  0  0  0  0  0  0  0  0  0  0
    4.9039   40.3917   50.4878 H   0  0  0  0  0  0  0  0  0  0  0  0
    7.1114   41.2623   48.3969 H   0  0  0  0  0  0  0  0  0  0  0  0
    6.1922   42.3561   47.3177 H   0  0  0  0  0  0  0  0  0  0  0  0
    7.3783   43.2599   49.5823 H   0  0  0  0  0  0  0  0  0  0  0  0
    5.8734   43.9631   49.0391 H   0  0  0  0  0  0  0  0  0  0  0  0
    6.3615   41.9624   51.2723 H   0  0  0  0  0  0  0  0  0  0  0  0
    5.6417   43.9743   52.0509 H   0  0  0  0  0  0  0  0  0  0  0  0
    4.3753   44.1394   50.7808 H   0  0  0  0  0  0  0  0  0  0  0  0
    8.5560   47.4707   55.4322 H   0  0  0  0  0  0  0  0  0  0  0  0
   10.8055   47.1455   54.4030 H   0  0  0  0  0  0  0  0  0  0  0  0
  1  2  2  0
  2  3  1  0
  3  4  2  0
  4  5  1  0
  5  6  1  0
  6  7  2  0
  7  8  1  0
  8  9  2  0
  9 10  1  0
 10 11  1  0
 11 12  1  0
 12 13  1  0
 13 14  1  0
 14 15  1  0
 15 16  1  0
 16 17  1  0
 17 18  1  0
 18 19  1  0
 19 20  1  0
 10 21  2  0
  4 22  1  0
 22 23  2  0
 23  1  1  0
 21  6  1  0
 20 12  1  0
 19 15  1  0
  1 24  1  0
  2 25  1  0
  3 26  1  0
  7 27  1  0
  8 28  1  0
 11 29  1  0
 12 30  1  1
 13 31  1  0
 13 32  1  0
 14 33  1  0
 14 34  1  0
 15 35  1  1
 17 36  1  0
 17 37  1  0
 18 38  1  0
 18 39  1  0
 19 40  1  1
 20 41  1  0
 20 42  1  0
 22 43  1  0
 23 44  1  0
M  END
>  <meeko>  (1) 
{"is_sidechain": [false], "free_energy": -9.077, "intermolecular_energy": -11.199, "internal_energy": -0.528}

$$$$
ligand_4_conformer_4_docked
     RDKit          3D

 44 47  0  0  0  0  0  0  0  0999 V2000
    6.6520   42.9200   49.2280 C   0  0  0  0  0  0  0  0  0  0  0  0
    5.8260   43.6670   50.0710 C   0  0  0  0  0  0  0  0  0  0  0  0
    6.3010   44.8510   50.6470 C   0  0  0  0  0  0  0  0  0  0  0  0
    7.6040   45.3020   50.3660 C   0  0  0  0  0  0  0  0  0  0  0  0
    8.1140   46.4820   50.9250 O   0  0  0  0  0  0  0  0  0  0  0  0
    8.0420   46.8160   52.2830 C   0  0  0  0  0  0  0  0  0  0  0  0
    9.2020   47.2030   52.9560 C   0  0  0  0  0  0  0  0  0  0  0  0
    9.1080   47.5470   54.3030 C   0  0  0  0  0  0  0  0  0  0  0  0
    7.9040   47.5150   54.9300 N   0  0  0  0  0  0  0  0  0  0  0  0
    6.7760   47.1510   54.2620 C   0  0  0  0  0  0  0  0  0  0  0  0
    5.5170   47.1450   54.9470 N   0  0  0  0  0  0  0  0  0  0  0  0
    4.2780   46.6710   54.3180 C   0  0  1  0  0  0  0  0  0  0  0  0
    3.8930   47.5820   53.1210 C   0  0  0  0  0  0  0  0  0  0  0  0
    3.3560   46.8160   51.8980 C   0  0  0  0  0  0  0  0  0  0  0  0
    2.4260   45.6660   52.3130 C   0  0  1  0  0  0  0  0  0  0  0  0
    2.0140   44.9630   51.1590 O   0  0  0  0  0  0  0  0  0  0  0  0
    2.2000   43.5900   51.4120 C   0  0  0  0  0  0  0  0  0  0  0  0
    3.2650   43.4340   52.4730 C   0  0  0  0  0  0  0  0  0  0  0  0
    3.0980   44.6870   53.2900 C   0  0  1  0  0  0  0  0  0  0  0  0
    4.4240   45.2010   53.8910 C   0  0  0  0  0  0  0  0  0  0  0  0
    6.8540   46.8070   52.9470 N   0  0  0  0  0  0  0  0  0  0  0  0
    8.4320   44.5340   49.5390 C   0  0  0  0  0  0  0  0  0  0  0  0
    7.9560   43.3500   48.9660 C   0  0  0  0  0  0  0  0  0  0  0  0
    6.2762   41.9931   48.7702 H   0  0  0  0  0  0  0  0  0  0  0  0
    4.8021   43.3248   50.2822 H   0  0  0  0  0  0  0  0  0  0  0  0
    5.6537   45.4307   51.3214 H   0  0  0  0  0  0  0  0  0  0  0  0
   10.1698   47.2357   52.4341 H   0  0  0  0  0  0  0  0  0  0  0  0
   10.0095   47.8446   54.8586 H   0  0  0  0  0  0  0  0  0  0  0  0
    5.4850   47.5490   55.9110 H   0  0  0  0  0  0  0  0  0  0  0  0
    3.4604   46.7259   55.0519 H   0  0  0  0  0  0  0  0  0  0  0  0
    3.1165   48.2849   53.4571 H   0  0  0  0  0  0  0  0  0  0  0  0
    4.8139   48.0902   52.7989 H   0  0  0  0  0  0  0  0  0  0  0  0
    2.7966   47.5137   51.2575 H   0  0  0  0  0  0  0  0  0  0  0  0
    4.2129   46.3869   51.3580 H   0  0  0  0  0  0  0  0  0  0  0  0
    1.5633   46.1091   52.8320 H   0  0  0  0  0  0  0  0  0  0  0  0
    1.2571   43.1475   51.7658 H   0  0  0  0  0  0  0  0  0  0  0  0
    2.5109   43.0772   50.4899 H   0  0  0  0  0  0  0  0  0  0  0  0
    3.0897   42.5356   53.0830 H   0  0  0  0  0  0  0  0  0  0  0  0
    4.2779   43.3104   52.0623 H   0  0  0  0  0  0  0  0  0  0  0  0
    2.4886   44.5302   54.1923 H   0  0  0  0  0  0  0  0  0  0  0  0
    4.6856   44.5918   54.7687 H   0  0  0  0  0  0  0  0  0  0  0  0
    5.2162   45.1244   53.1316 H   0  0  0  0  0  0  0  0  0  0  0  0
    9.4623   44.8632   49.3387 H   0  0  0  0  0  0  0  0  0  0  0  0
    8.6085   42.7567   48.3086 H   0  0  0  0  0  0  0  0  0  0  0  0
  1  2  2  0
  2  3  1  0
  3  4  2  0
  4  5  1  0
  5  6  1  0
  6  7  2  0
  7  8  1  0
  8  9  2  0
  9 10  1  0
 10 11  1  0
 11 12  1  0
 12 13  1  0
 13 14  1  0
 14 15  1  0
 15 16  1  0
 16 17  1  0
 17 18  1  0
 18 19  1  0
 19 20  1  0
 10 21  2  0
  4 22  1  0
 22 23  2  0
 23  1  1  0
 21  6  1  0
 20 12  1  0
 19 15  1  0
  1 24  1  0
  2 25  1  0
  3 26  1  0
  7 27  1  0
  8 28  1  0
 11 29  1  0
 12 30  1  1
 13 31  1  0
 13 32  1  0
 14 33  1  0
 14 34  1  0
 15 35  1  1
 17 36  1  0
 17 37  1  0
 18 38  1  0
 18 39  1  0
 19 40  1  1
 20 41  1  0
 20 42  1  0
 22 43  1  0
 23 44  1  0
M  END
>  <meeko>  (2) 
{"is_sidechain": [false], "free_energy": -9.007, "intermolecular_energy": -11.379, "internal_energy": -0.262}

$$$$
ligand_4_conformer_4_docked
     RDKit          3D

 44 47  0  0  0  0  0  0  0  0999 V2000
   10.0300   47.2050   53.5090 C   0  0  0  0  0  0  0  0  0  0  0  0
    8.7320   47.6180   53.8230 C   0  0  0  0  0  0  0  0  0  0  0  0
    7.6650   47.2730   52.9860 C   0  0  0  0  0  0  0  0  0  0  0  0
    7.8910   46.4940   51.8360 C   0  0  0  0  0  0  0  0  0  0  0  0
    6.8470   46.1290   50.9740 O   0  0  0  0  0  0  0  0  0  0  0  0
    6.0370   44.9990   51.1390 C   0  0  0  0  0  0  0  0  0  0  0  0
    6.1250   43.9530   50.2190 C   0  0  0  0  0  0  0  0  0  0  0  0
    5.3210   42.8300   50.4090 C   0  0  0  0  0  0  0  0  0  0  0  0
    4.4860   42.7650   51.4770 N   0  0  0  0  0  0  0  0  0  0  0  0
    4.4180   43.7840   52.3760 C   0  0  0  0  0  0  0  0  0  0  0  0
    3.5390   43.6770   53.5030 N   0  0  0  0  0  0  0  0  0  0  0  0
    2.0970   43.9350   53.4080 C   0  0  1  0  0  0  0  0  0  0  0  0
    1.3510   42.6720   52.8970 C   0  0  0  0  0  0  0  0  0  0  0  0
    0.0110   42.4070   53.6050 C   0  0  0  0  0  0  0  0  0  0  0  0
   -0.7700   43.7070   53.8510 C   0  0  1  0  0  0  0  0  0  0  0  0
   -1.9570   43.4110   54.5550 O   0  0  0  0  0  0  0  0  0  0  0  0
   -2.0470   44.3150   55.6300 C   0  0  0  0  0  0  0  0  0  0  0  0
   -0.6570   44.7990   55.9740 C   0  0  0  0  0  0  0  0  0  0  0  0
    0.0460   44.7430   54.6430 C   0  0  1  0  0  0  0  0  0  0  0  0
    1.5480   44.4090   54.7650 C   0  0  0  0  0  0  0  0  0  0  0  0
    5.1930   44.8890   52.2000 N   0  0  0  0  0  0  0  0  0  0  0  0
    9.1970   46.1060   51.5170 C   0  0  0  0  0  0  0  0  0  0  0  0
   10.2630   46.4530   52.3530 C   0  0  0  0  0  0  0  0  0  0  0  0
   10.8675   47.4712   54.1706 H   0  0  0  0  0  0  0  0  0  0  0  0
    8.5492   48.2147   54.7288 H   0  0  0  0  0  0  0  0  0  0  0  0
    6.6467   47.6117   53.2276 H   0  0  0  0  0  0  0  0  0  0  0  0
    6.8134   44.0134   49.3631 H   0  0  0  0  0  0  0  0  0  0  0  0
    5.3634   41.9961   49.6929 H   0  0  0  0  0  0  0  0  0  0  0  0
    3.9640   43.4610   54.4340 H   0  0  0  0  0  0  0  0  0  0  0  0
    1.9253   44.7397   52.6779 H   0  0  0  0  0  0  0  0  0  0  0  0
    1.1552   42.7973   51.8218 H   0  0  0  0  0  0  0  0  0  0  0  0
    2.0002   41.8104   53.1119 H   0  0  0  0  0  0  0  0  0  0  0  0
   -0.5975   41.7392   52.9775 H   0  0  0  0  0  0  0  0  0  0  0  0
    0.2246   41.9461   54.5807 H   0  0  0  0  0  0  0  0  0  0  0  0
   -0.9976   44.1470   52.8689 H   0  0  0  0  0  0  0  0  0  0  0  0
   -2.6762   45.1703   55.3427 H   0  0  0  0  0  0  0  0  0  0  0  0
   -2.4969   43.8171   56.5016 H   0  0  0  0  0  0  0  0  0  0  0  0
   -0.6798   45.8255   56.3687 H   0  0  0  0  0  0  0  0  0  0  0  0
   -0.1652   44.2010   56.7554 H   0  0  0  0  0  0  0  0  0  0  0  0
    0.0735   45.7166   54.1317 H   0  0  0  0  0  0  0  0  0  0  0  0
    2.0956   45.3078   55.0850 H   0  0  0  0  0  0  0  0  0  0  0  0
    1.6790   43.6067   55.5061 H   0  0  0  0  0  0  0  0  0  0  0  0
    9.3864   45.5243   50.6028 H   0  0  0  0  0  0  0  0  0  0  0  0
   11.2853   46.1343   52.1013 H   0  0  0  0  0  0  0  0  0  0  0  0
  1  2  2  0
  2  3  1  0
  3  4  2  0
  4  5  1  0
  5  6  1  0
  6  7  2  0
  7  8  1  0
  8  9  2  0
  9 10  1  0
 10 11  1  0
 11 12  1  0
 12 13  1  0
 13 14  1  0
 14 15  1  0
 15 16  1  0
 16 17  1  0
 17 18  1  0
 18 19  1  0
 19 20  1  0
 10 21  2  0
  4 22  1  0
 22 23  2  0
 23  1  1  0
 21  6  1  0
 20 12  1  0
 19 15  1  0
  1 24  1  0
  2 25  1  0
  3 26  1  0
  7 27  1  0
  8 28  1  0
 11 29  1  0
 12 30  1  6
 13 31  1  0
 13 32  1  0
 14 33  1  0
 14 34  1  0
 15 35  1  6
 17 36  1  0
 17 37  1  0
 18 38  1  0
 18 39  1  0
 19 40  1  6
 20 41  1  0
 20 42  1  0
 22 43  1  0
 23 44  1  0
M  END
>  <meeko>  (3) 
{"is_sidechain": [false], "free_energy": -8.984, "intermolecular_energy": -11.17, "internal_energy": -0.442}

$$$$
ligand_4_conformer_4_docked
     RDKit          3D

 44 47  0  0  0  0  0  0  0  0999 V2000
    9.4600   47.2530   54.4000 C   0  0  0  0  0  0  0  0  0  0  0  0
   10.2630   46.9170   53.3070 C   0  0  0  0  0  0  0  0  0  0  0  0
    9.6760   46.5980   52.0780 C   0  0  0  0  0  0  0  0  0  0  0  0
    8.2770   46.6330   51.9310 C   0  0  0  0  0  0  0  0  0  0  0  0
    7.6530   46.3200   50.7160 O   0  0  0  0  0  0  0  0  0  0  0  0
    7.1730   45.0500   50.3710 C   0  0  0  0  0  0  0  0  0  0  0  0
    7.9300   44.2380   49.5250 C   0  0  0  0  0  0  0  0  0  0  0  0
    7.4430   42.9710   49.2060 C   0  0  0  0  0  0  0  0  0  0  0  0
    6.2630   42.5470   49.7250 N   0  0  0  0  0  0  0  0  0  0  0  0
    5.5390   43.3400   50.5600 C   0  0  0  0  0  0  0  0  0  0  0  0
    4.3050   42.8560   51.1060 N   0  0  0  0  0  0  0  0  0  0  0  0
    3.2830   43.7490   51.6620 C   0  0  1  0  0  0  0  0  0  0  0  0
    1.8710   43.1190   51.5140 C   0  0  0  0  0  0  0  0  0  0  0  0
    0.9610   43.3270   52.7370 C   0  0  0  0  0  0  0  0  0  0  0  0
    1.1080   44.7400   53.3220 C   0  0  1  0  0  0  0  0  0  0  0  0
    0.2990   44.8530   54.4740 O   0  0  0  0  0  0  0  0  0  0  0  0
    1.0910   45.4170   55.4920 C   0  0  0  0  0  0  0  0  0  0  0  0
    2.5440   45.1270   55.1930 C   0  0  0  0  0  0  0  0  0  0  0  0
    2.5640   45.0770   53.6890 C   0  0  1  0  0  0  0  0  0  0  0  0
    3.6050   44.0840   53.1280 C   0  0  0  0  0  0  0  0  0  0  0  0
    6.0000   44.5820   50.8770 N   0  0  0  0  0  0  0  0  0  0  0  0
    7.4800   46.9470   53.0380 C   0  0  0  0  0  0  0  0  0  0  0  0
    8.0690   47.2630   54.2670 C   0  0  0  0  0  0  0  0  0  0  0  0
    9.9225   47.5095   55.3645 H   0  0  0  0  0  0  0  0  0  0  0  0
   11.3578   46.9033   53.4131 H   0  0  0  0  0  0  0  0  0  0  0  0
   10.3102   46.3189   51.2236 H   0  0  0  0  0  0  0  0  0  0  0  0
    8.8898   44.5899   49.1188 H   0  0  0  0  0  0  0  0  0  0  0  0
    8.0154   42.3151   48.5336 H   0  0  0  0  0  0  0  0  0  0  0  0
    4.1680   41.8200   51.1550 H   0  0  0  0  0  0  0  0  0  0  0  0
    3.2864   44.6918   51.0953 H   0  0  0  0  0  0  0  0  0  0  0  0
    1.3814   43.5696   50.6381 H   0  0  0  0  0  0  0  0  0  0  0  0
    2.0166   42.0340   51.4068 H   0  0  0  0  0  0  0  0  0  0  0  0
   -0.0850   43.1743   52.4329 H   0  0  0  0  0  0  0  0  0  0  0  0
    1.2566   42.6034   53.5109 H   0  0  0  0  0  0  0  0  0  0  0  0
    0.7889   45.4534   52.5479 H   0  0  0  0  0  0  0  0  0  0  0  0
    0.9302   46.5046   55.5263 H   0  0  0  0  0  0  0  0  0  0  0  0
    0.8150   44.9838   56.4647 H   0  0  0  0  0  0  0  0  0  0  0  0
    3.1954   45.9279   55.5727 H   0  0  0  0  0  0  0  0  0  0  0  0
    2.9136   44.2058   55.6671 H   0  0  0  0  0  0  0  0  0  0  0  0
    2.8900   46.0242   53.2346 H   0  0  0  0  0  0  0  0  0  0  0  0
    4.6063   44.5358   53.1860 H   0  0  0  0  0  0  0  0  0  0  0  0
    3.5755   43.1589   53.7225 H   0  0  0  0  0  0  0  0  0  0  0  0
    6.3843   46.9453   52.9411 H   0  0  0  0  0  0  0  0  0  0  0  0
    7.4364   47.5196   55.1296 H   0  0  0  0  0  0  0  0  0  0  0  0
  1  2  2  0
  2  3  1  0
  3  4  2  0
  4  5  1  0
  5  6  1  0
  6  7  2  0
  7  8  1  0
  8  9  2  0
  9 10  1  0
 10 11  1  0
 11 12  1  0
 12 13  1  0
 13 14  1  0
 14 15  1  0
 15 16  1  0
 16 17  1  0
 17 18  1  0
 18 19  1  0
 19 20  1  0
 10 21  2  0
  4 22  1  0
 22 23  2  0
 23  1  1  0
 21  6  1  0
 20 12  1  0
 19 15  1  0
  1 24  1  0
  2 25  1  0
  3 26  1  0
  7 27  1  0
  8 28  1  0
 11 29  1  0
 12 30  1  6
 13 31  1  0
 13 32  1  0
 14 33  1  0
 14 34  1  0
 15 35  1  6
 17 36  1  0
 17 37  1  0
 18 38  1  0
 18 39  1  0
 19 40  1  6
 20 41  1  0
 20 42  1  0
 22 43  1  0
 23 44  1  0
M  END
>  <meeko>  (4) 
{"is_sidechain": [false], "free_energy": -8.758, "intermolecular_energy": -10.799, "internal_energy": -0.534}

$$$$
ligand_4_conformer_4_docked
     RDKit          3D

 44 47  0  0  0  0  0  0  0  0999 V2000
    9.9720   47.0800   53.5850 C   0  0  0  0  0  0  0  0  0  0  0  0
   10.1520   46.3840   52.3860 C   0  0  0  0  0  0  0  0  0  0  0  0
    9.0520   46.0960   51.5720 C   0  0  0  0  0  0  0  0  0  0  0  0
    7.7630   46.5200   51.9460 C   0  0  0  0  0  0  0  0  0  0  0  0
    6.6370   46.2500   51.1560 O   0  0  0  0  0  0  0  0  0  0  0  0
    5.8360   45.1070   51.2770 C   0  0  0  0  0  0  0  0  0  0  0  0
    6.0880   44.0040   50.4600 C   0  0  0  0  0  0  0  0  0  0  0  0
    5.2890   42.8710   50.6050 C   0  0  0  0  0  0  0  0  0  0  0  0
    4.3010   42.8510   51.5360 N   0  0  0  0  0  0  0  0  0  0  0  0
    4.0720   43.9270   52.3370 C   0  0  0  0  0  0  0  0  0  0  0  0
    3.0320   43.8680   53.3220 N   0  0  0  0  0  0  0  0  0  0  0  0
    1.7300   43.2450   53.0590 C   0  0  1  0  0  0  0  0  0  0  0  0
    0.8090   43.3630   54.3040 C   0  0  0  0  0  0  0  0  0  0  0  0
   -0.6580   43.6870   53.9690 C   0  0  0  0  0  0  0  0  0  0  0  0
   -1.1430   42.9160   52.7320 C   0  0  1  0  0  0  0  0  0  0  0  0
   -2.4700   43.2980   52.4370 O   0  0  0  0  0  0  0  0  0  0  0  0
   -2.5300   43.5870   51.0600 C   0  0  0  0  0  0  0  0  0  0  0  0
   -1.1460   43.9640   50.5840 C   0  0  0  0  0  0  0  0  0  0  0  0
   -0.2570   43.1650   51.4990 C   0  0  1  0  0  0  0  0  0  0  0  0
    1.0810   43.8680   51.8110 C   0  0  0  0  0  0  0  0  0  0  0  0
    4.8410   45.0420   52.2020 N   0  0  0  0  0  0  0  0  0  0  0  0
    7.5900   47.1950   53.1600 C   0  0  0  0  0  0  0  0  0  0  0  0
    8.6910   47.4800   53.9740 C   0  0  0  0  0  0  0  0  0  0  0  0
   10.8383   47.3126   54.2217 H   0  0  0  0  0  0  0  0  0  0  0  0
   11.1594   46.0627   52.0827 H   0  0  0  0  0  0  0  0  0  0  0  0
    9.1946   45.5361   50.6360 H   0  0  0  0  0  0  0  0  0  0  0  0
    6.8995   44.0282   49.7178 H   0  0  0  0  0  0  0  0  0  0  0  0
    5.4590   41.9928   49.9649 H   0  0  0  0  0  0  0  0  0  0  0  0
    3.2020   44.3410   54.2390 H   0  0  0  0  0  0  0  0  0  0  0  0
    1.8807   42.1740   52.8583 H   0  0  0  0  0  0  0  0  0  0  0  0
    0.8368   42.4066   54.8467 H   0  0  0  0  0  0  0  0  0  0  0  0
    1.1912   44.2019   54.9042 H   0  0  0  0  0  0  0  0  0  0  0  0
   -1.2883   43.4146   54.8284 H   0  0  0  0  0  0  0  0  0  0  0  0
   -0.7301   44.7630   53.7520 H   0  0  0  0  0  0  0  0  0  0  0  0
   -1.0876   41.8429   52.9675 H   0  0  0  0  0  0  0  0  0  0  0  0
   -2.8820   42.7013   50.5108 H   0  0  0  0  0  0  0  0  0  0  0  0
   -3.2276   44.4185   50.8813 H   0  0  0  0  0  0  0  0  0  0  0  0
   -0.9953   43.6767   49.5329 H   0  0  0  0  0  0  0  0  0  0  0  0
   -0.9505   45.0460   50.6180 H   0  0  0  0  0  0  0  0  0  0  0  0
    0.0853   42.2225   51.0467 H   0  0  0  0  0  0  0  0  0  0  0  0
    1.7600   43.7541   50.9531 H   0  0  0  0  0  0  0  0  0  0  0  0
    0.8905   44.9347   52.0001 H   0  0  0  0  0  0  0  0  0  0  0  0
    6.5823   47.5031   53.4756 H   0  0  0  0  0  0  0  0  0  0  0  0
    8.5483   48.0198   54.9218 H   0  0  0  0  0  0  0  0  0  0  0  0
  1  2  2  0
  2  3  1  0
  3  4  2  0
  4  5  1  0
  5  6  1  0
  6  7  2  0
  7  8  1  0
  8  9  2  0
  9 10  1  0
 10 11  1  0
 11 12  1  0
 12 13  1  0
 13 14  1  0
 14 15  1  0
 15 16  1  0
 16 17  1  0
 17 18  1  0
 18 19  1  0
 19 20  1  0
 10 21  2  0
  4 22  1  0
 22 23  2  0
 23  1  1  0
 21  6  1  0
 20 12  1  0
 19 15  1  0
  1 24  1  0
  2 25  1  0
  3 26  1  0
  7 27  1  0
  8 28  1  0
 11 29  1  0
 12 30  1  6
 13 31  1  0
 13 32  1  0
 14 33  1  0
 14 34  1  0
 15 35  1  1
 17 36  1  0
 17 37  1  0
 18 38  1  0
 18 39  1  0
 19 40  1  6
 20 41  1  0
 20 42  1  0
 22 43  1  0
 23 44  1  0
M  END
>  <meeko>  (5) 
{"is_sidechain": [false], "free_energy": -8.154, "intermolecular_energy": -10.085, "internal_energy": -0.503}

$$$$
