MODEL 1
REMARK VINA RESULT:    -7.340      0.000      0.000
REMARK INTER + INTRA:         -10.943
REMARK INTER:                 -11.202
REMARK INTRA:                   0.259
REMARK UNBOUND:                 0.259
REMARK SMILES CC(C)c1nnc2ccc(NC(=O)N3CCCc4ccccc4CC3)cn12
REMARK SMILES IDX 14 1 12 2 11 3 13 4 10 6 4 7 5 8 27 9 6 10 26 11 7 12 8 13
REMARK SMILES IDX 9 14 2 15 1 16 3 17 15 18 16 19 25 21 24 22 23 23 22 24
REMARK SMILES IDX 18 25 21 26 19 27 20 28 17 29
REMARK H PARENT 11 5
REMARK Flexibility Score:   60.900
ROOT
ATOM      1  N   UNL     1       4.832  44.578  52.995  1.00  0.00    -0.324 N 
ENDROOT
BRANCH   1   2
ATOM      2  C   UNL     1       3.391  44.640  53.077  1.00  0.00     0.321 C 
ATOM      3  N   UNL     1       2.622  43.474  53.421  1.00  0.00    -0.306 N 
ATOM      4  O   UNL     1       2.806  45.746  52.909  1.00  0.00    -0.248 OA
ATOM      5  H   UNL     1       3.107  42.691  53.908  1.00  0.00     0.171 HD
BRANCH   3   6
ATOM      6  C   UNL     1       1.191  43.402  53.328  1.00  0.00     0.059 A 
ATOM      7  C   UNL     1      -1.941  43.837  55.220  1.00  0.00     0.140 A 
ATOM      8  N   UNL     1      -3.141  43.636  54.624  1.00  0.00    -0.134 NA
ATOM      9  N   UNL     1      -0.942  43.605  54.351  1.00  0.00    -0.284 N 
ATOM     10  N   UNL     1      -2.909  43.252  53.372  1.00  0.00    -0.130 NA
ATOM     11  C   UNL     1       0.408  43.702  54.459  1.00  0.00     0.120 A 
ATOM     12  C   UNL     1      -1.571  43.241  53.227  1.00  0.00     0.160 A 
ATOM     13  C   UNL     1      -0.861  42.913  52.077  1.00  0.00     0.052 A 
ATOM     14  C   UNL     1       0.541  42.988  52.137  1.00  0.00     0.031 A 
BRANCH   7  15
ATOM     15  C   UNL     1      -1.766  44.358  56.625  1.00  0.00     0.052 C 
ATOM     16  C   UNL     1      -3.099  44.378  57.383  1.00  0.00     0.016 C 
ATOM     17  C   UNL     1      -1.140  45.754  56.591  1.00  0.00     0.016 C 
ENDBRANCH   7  15
ENDBRANCH   3   6
ENDBRANCH   1   2
BRANCH   1  18
ATOM     18  C   UNL     1       5.630  44.606  54.228  1.00  0.00     0.121 C 
BRANCH  18  19
ATOM     19  C   UNL     1       5.495  45.959  54.944  1.00  0.00     0.026 CG0
ATOM     20  G   UNL     1       5.975  47.146  54.094  1.00  0.00     0.000 G0
ENDBRANCH  18  19
ENDBRANCH   1  18
BRANCH   1  21
ATOM     21  C   UNL     1       5.524  44.559  51.696  1.00  0.00     0.126 C 
BRANCH  21  22
ATOM     22  C   UNL     1       5.952  45.969  51.261  1.00  0.00     0.057 C 
BRANCH  22  23
ATOM     23  C   UNL     1       7.225  46.404  51.954  1.00  0.00    -0.043 A 
ATOM     24  C   UNL     1       8.446  46.208  51.281  1.00  0.00     0.004 A 
ATOM     25  C   UNL     1       7.239  46.898  53.288  1.00  0.00    -0.045 A 
ATOM     26  C   UNL     1       9.660  46.472  51.915  1.00  0.00     0.000 A 
ATOM     27  C   UNL     1       8.477  47.141  53.912  1.00  0.00     0.004 A 
ATOM     28  C   UNL     1       9.676  46.930  53.230  1.00  0.00     0.000 A 
BRANCH  25  29
ATOM     29  C   UNL     1       5.974  47.167  54.083  1.00  0.00     0.037 CG0
ATOM     30  G   UNL     1       5.511  45.952  54.901  1.00  0.00     0.000 G0
ENDBRANCH  25  29
ENDBRANCH  22  23
ENDBRANCH  21  22
ENDBRANCH   1  21
TORSDOF 3
ENDMDL
MODEL 2
REMARK VINA RESULT:    -7.143      2.680      8.671
REMARK INTER + INTRA:         -10.642
REMARK INTER:                 -10.663
REMARK INTRA:                   0.021
REMARK UNBOUND:                 0.259
REMARK SMILES CC(C)c1nnc2ccc(NC(=O)N3CCCc4ccccc4CC3)cn12
REMARK SMILES IDX 14 1 12 2 11 3 13 4 10 6 4 7 5 8 27 9 6 10 26 11 7 12 8 13
REMARK SMILES IDX 9 14 2 15 1 16 3 17 15 18 16 19 25 21 24 22 23 23 22 24
REMARK SMILES IDX 18 25 21 26 19 27 20 28 17 29
REMARK H PARENT 11 5
REMARK Flexibility Score:   60.900
ROOT
ATOM      1  N   UNL     1       1.500  44.635  54.631  1.00  0.00    -0.324 N 
ENDROOT
BRANCH   1   2
ATOM      2  C   UNL     1       2.391  44.692  53.495  1.00  0.00     0.321 C 
ATOM      3  N   UNL     1       3.618  43.942  53.484  1.00  0.00    -0.306 N 
ATOM      4  O   UNL     1       2.056  45.358  52.476  1.00  0.00    -0.248 OA
ATOM      5  H   UNL     1       3.707  43.134  54.135  1.00  0.00     0.171 HD
BRANCH   3   6
ATOM      6  C   UNL     1       4.644  44.100  52.490  1.00  0.00     0.059 A 
ATOM      7  C   UNL     1       7.657  46.028  51.603  1.00  0.00     0.140 A 
ATOM      8  N   UNL     1       8.329  45.768  50.457  1.00  0.00    -0.134 NA
ATOM      9  N   UNL     1       6.586  45.221  51.712  1.00  0.00    -0.284 N 
ATOM     10  N   UNL     1       7.673  44.804  49.815  1.00  0.00    -0.130 NA
ATOM     11  C   UNL     1       5.642  45.076  52.676  1.00  0.00     0.120 A 
ATOM     12  C   UNL     1       6.623  44.486  50.593  1.00  0.00     0.160 A 
ATOM     13  C   UNL     1       5.658  43.518  50.336  1.00  0.00     0.052 A 
ATOM     14  C   UNL     1       4.652  43.333  51.298  1.00  0.00     0.031 A 
BRANCH   7  15
ATOM     15  C   UNL     1       8.117  47.006  52.656  1.00  0.00     0.052 C 
ATOM     16  C   UNL     1       8.018  48.451  52.155  1.00  0.00     0.016 C 
ATOM     17  C   UNL     1       9.547  46.676  53.087  1.00  0.00     0.016 C 
ENDBRANCH   7  15
ENDBRANCH   3   6
ENDBRANCH   1   2
BRANCH   1  18
ATOM     18  C   UNL     1       0.278  43.824  54.553  1.00  0.00     0.121 C 
BRANCH  18  19
ATOM     19  C   UNL     1      -0.968  44.713  54.409  1.00  0.00     0.026 CG0
ATOM     20  G   UNL     1      -1.869  44.701  55.653  1.00  0.00     0.000 G0
ENDBRANCH  18  19
ENDBRANCH   1  18
BRANCH   1  21
ATOM     21  C   UNL     1       1.754  45.430  55.843  1.00  0.00     0.126 C 
BRANCH  21  22
ATOM     22  C   UNL     1       0.857  44.988  57.010  1.00  0.00     0.057 C 
BRANCH  22  23
ATOM     23  C   UNL     1      -0.279  45.962  57.240  1.00  0.00    -0.043 A 
ATOM     24  C   UNL     1      -0.073  47.018  58.147  1.00  0.00     0.004 A 
ATOM     25  C   UNL     1      -1.567  45.785  56.661  1.00  0.00    -0.045 A 
ATOM     26  C   UNL     1      -1.118  47.874  58.495  1.00  0.00     0.000 A 
ATOM     27  C   UNL     1      -2.610  46.651  57.040  1.00  0.00     0.004 A 
ATOM     28  C   UNL     1      -2.385  47.686  57.949  1.00  0.00     0.000 A 
BRANCH  25  29
ATOM     29  C   UNL     1      -1.877  44.693  55.653  1.00  0.00     0.037 CG0
ATOM     30  G   UNL     1      -0.953  44.731  54.426  1.00  0.00     0.000 G0
ENDBRANCH  25  29
ENDBRANCH  22  23
ENDBRANCH  21  22
ENDBRANCH   1  21
TORSDOF 3
ENDMDL
MODEL 3
REMARK VINA RESULT:    -7.042      2.492      8.521
REMARK INTER + INTRA:         -10.488
REMARK INTER:                 -10.668
REMARK INTRA:                   0.180
REMARK UNBOUND:                 0.259
REMARK SMILES CC(C)c1nnc2ccc(NC(=O)N3CCCc4ccccc4CC3)cn12
REMARK SMILES IDX 14 1 12 2 11 3 13 4 10 6 4 7 5 8 27 9 6 10 26 11 7 12 8 13
REMARK SMILES IDX 9 14 2 15 1 16 3 17 15 18 16 19 25 21 24 22 23 23 22 24
REMARK SMILES IDX 18 25 21 26 19 27 20 28 17 29
REMARK H PARENT 11 5
REMARK Flexibility Score:   60.900
ROOT
ATOM      1  N   UNL     1       1.845  45.285  51.823  1.00  0.00    -0.324 N 
ENDROOT
BRANCH   1   2
ATOM      2  C   UNL     1       3.136  45.282  51.176  1.00  0.00     0.321 C 
ATOM      3  N   UNL     1       4.013  44.148  51.286  1.00  0.00    -0.306 N 
ATOM      4  O   UNL     1       3.470  46.261  50.452  1.00  0.00    -0.248 OA
ATOM      5  H   UNL     1       3.599  43.230  51.555  1.00  0.00     0.171 HD
BRANCH   3   6
ATOM      6  C   UNL     1       5.380  44.146  50.846  1.00  0.00     0.059 A 
ATOM      7  C   UNL     1       8.648  45.794  51.278  1.00  0.00     0.140 A 
ATOM      8  N   UNL     1       9.726  45.383  50.569  1.00  0.00    -0.134 NA
ATOM      9  N   UNL     1       7.566  45.067  50.947  1.00  0.00    -0.284 N 
ATOM     10  N   UNL     1       9.329  44.402  49.763  1.00  0.00    -0.130 NA
ATOM     11  C   UNL     1       6.285  45.074  51.397  1.00  0.00     0.120 A 
ATOM     12  C   UNL     1       8.018  44.225  50.009  1.00  0.00     0.160 A 
ATOM     13  C   UNL     1       7.176  43.296  49.409  1.00  0.00     0.052 A 
ATOM     14  C   UNL     1       5.836  43.266  49.832  1.00  0.00     0.031 A 
BRANCH   7  15
ATOM     15  C   UNL     1       8.691  46.841  52.363  1.00  0.00     0.052 C 
ATOM     16  C   UNL     1       8.349  48.230  51.811  1.00  0.00     0.016 C 
ATOM     17  C   UNL     1      10.068  46.846  53.031  1.00  0.00     0.016 C 
ENDBRANCH   7  15
ENDBRANCH   3   6
ENDBRANCH   1   2
BRANCH   1  18
ATOM     18  C   UNL     1       1.636  46.114  53.019  1.00  0.00     0.121 C 
BRANCH  18  19
ATOM     19  C   UNL     1       2.460  45.589  54.205  1.00  0.00     0.026 CG0
ATOM     20  G   UNL     1       1.856  44.336  54.857  1.00  0.00     0.000 G0
ENDBRANCH  18  19
ENDBRANCH   1  18
BRANCH   1  21
ATOM     21  C   UNL     1       0.750  44.422  51.351  1.00  0.00     0.126 C 
BRANCH  21  22
ATOM     22  C   UNL     1       0.501  43.248  52.311  1.00  0.00     0.057 C 
BRANCH  22  23
ATOM     23  C   UNL     1      -0.286  43.680  53.529  1.00  0.00    -0.043 A 
ATOM     24  C   UNL     1      -1.690  43.617  53.467  1.00  0.00     0.004 A 
ATOM     25  C   UNL     1       0.335  44.243  54.679  1.00  0.00    -0.045 A 
ATOM     26  C   UNL     1      -2.473  44.117  54.508  1.00  0.00     0.000 A 
ATOM     27  C   UNL     1      -0.477  44.756  55.709  1.00  0.00     0.004 A 
ATOM     28  C   UNL     1      -1.868  44.692  55.623  1.00  0.00     0.000 A 
BRANCH  25  29
ATOM     29  C   UNL     1       1.841  44.329  54.848  1.00  0.00     0.037 CG0
ATOM     30  G   UNL     1       2.443  45.595  54.219  1.00  0.00     0.000 G0
ENDBRANCH  25  29
ENDBRANCH  22  23
ENDBRANCH  21  22
ENDBRANCH   1  21
TORSDOF 3
ENDMDL
MODEL 4
REMARK VINA RESULT:    -6.812      2.525      3.613
REMARK INTER + INTRA:         -10.138
REMARK INTER:                 -10.114
REMARK INTRA:                  -0.023
REMARK UNBOUND:                 0.259
REMARK SMILES CC(C)c1nnc2ccc(NC(=O)N3CCCc4ccccc4CC3)cn12
REMARK SMILES IDX 14 1 12 2 11 3 13 4 10 6 4 7 5 8 27 9 6 10 26 11 7 12 8 13
REMARK SMILES IDX 9 14 2 15 1 16 3 17 15 18 16 19 25 21 24 22 23 23 22 24
REMARK SMILES IDX 18 25 21 26 19 27 20 28 17 29
REMARK H PARENT 11 5
REMARK Flexibility Score:   60.900
ROOT
ATOM      1  N   UNL     1       3.853  45.471  54.035  1.00  0.00    -0.324 N 
ENDROOT
BRANCH   1   2
ATOM      2  C   UNL     1       2.506  45.746  54.481  1.00  0.00     0.321 C 
ATOM      3  N   UNL     1       2.087  45.406  55.814  1.00  0.00    -0.306 N 
ATOM      4  O   UNL     1       1.709  46.351  53.711  1.00  0.00    -0.248 OA
ATOM      5  H   UNL     1       2.821  45.261  56.538  1.00  0.00     0.171 HD
BRANCH   3   6
ATOM      6  C   UNL     1       0.724  45.462  56.263  1.00  0.00     0.059 A 
ATOM      7  C   UNL     1      -1.607  47.254  58.484  1.00  0.00     0.140 A 
ATOM      8  N   UNL     1      -2.911  46.892  58.552  1.00  0.00    -0.134 NA
ATOM      9  N   UNL     1      -0.944  46.456  57.629  1.00  0.00    -0.284 N 
ATOM     10  N   UNL     1      -3.079  45.842  57.753  1.00  0.00    -0.130 NA
ATOM     11  C   UNL     1       0.345  46.439  57.204  1.00  0.00     0.120 A 
ATOM     12  C   UNL     1      -1.877  45.595  57.203  1.00  0.00     0.160 A 
ATOM     13  C   UNL     1      -1.568  44.593  56.289  1.00  0.00     0.052 A 
ATOM     14  C   UNL     1      -0.245  44.525  55.823  1.00  0.00     0.031 A 
BRANCH   7  15
ATOM     15  C   UNL     1      -1.020  48.455  59.184  1.00  0.00     0.052 C 
ATOM     16  C   UNL     1      -0.349  48.058  60.504  1.00  0.00     0.016 C 
ATOM     17  C   UNL     1      -2.106  49.506  59.421  1.00  0.00     0.016 C 
ENDBRANCH   7  15
ENDBRANCH   3   6
ENDBRANCH   1   2
BRANCH   1  18
ATOM     18  C   UNL     1       4.073  44.509  52.947  1.00  0.00     0.121 C 
BRANCH  18  19
ATOM     19  C   UNL     1       4.659  45.202  51.707  1.00  0.00     0.026 CG0
ATOM     20  G   UNL     1       6.133  44.851  51.455  1.00  0.00     0.000 G0
ENDBRANCH  18  19
ENDBRANCH   1  18
BRANCH   1  21
ATOM     21  C   UNL     1       5.017  46.081  54.696  1.00  0.00     0.126 C 
BRANCH  21  22
ATOM     22  C   UNL     1       6.296  45.261  54.463  1.00  0.00     0.057 C 
BRANCH  22  23
ATOM     23  C   UNL     1       7.236  45.955  53.501  1.00  0.00    -0.043 A 
ATOM     24  C   UNL     1       8.184  46.850  54.031  1.00  0.00     0.004 A 
ATOM     25  C   UNL     1       7.122  45.818  52.089  1.00  0.00    -0.045 A 
ATOM     26  C   UNL     1       8.993  47.613  53.189  1.00  0.00     0.000 A 
ATOM     27  C   UNL     1       7.938  46.610  51.260  1.00  0.00     0.004 A 
ATOM     28  C   UNL     1       8.865  47.499  51.806  1.00  0.00     0.000 A 
BRANCH  25  29
ATOM     29  C   UNL     1       6.150  44.860  51.427  1.00  0.00     0.037 CG0
ATOM     30  G   UNL     1       4.681  45.194  51.729  1.00  0.00     0.000 G0
ENDBRANCH  25  29
ENDBRANCH  22  23
ENDBRANCH  21  22
ENDBRANCH   1  21
TORSDOF 3
ENDMDL
MODEL 5
REMARK VINA RESULT:    -6.516      1.408      2.104
REMARK INTER + INTRA:          -9.685
REMARK INTER:                  -9.766
REMARK INTRA:                   0.081
REMARK UNBOUND:                 0.259
REMARK SMILES CC(C)c1nnc2ccc(NC(=O)N3CCCc4ccccc4CC3)cn12
REMARK SMILES IDX 14 1 12 2 11 3 13 4 10 6 4 7 5 8 27 9 6 10 26 11 7 12 8 13
REMARK SMILES IDX 9 14 2 15 1 16 3 17 15 18 16 19 25 21 24 22 23 23 22 24
REMARK SMILES IDX 18 25 21 26 19 27 20 28 17 29
REMARK H PARENT 11 5
REMARK Flexibility Score:   60.900
ROOT
ATOM      1  N   UNL     1       3.829  45.476  52.639  1.00  0.00    -0.324 N 
ENDROOT
BRANCH   1   2
ATOM      2  C   UNL     1       2.414  45.382  52.917  1.00  0.00     0.321 C 
ATOM      3  N   UNL     1       1.797  44.109  53.173  1.00  0.00    -0.306 N 
ATOM      4  O   UNL     1       1.726  46.437  53.000  1.00  0.00    -0.248 OA
ATOM      5  H   UNL     1       2.406  43.316  53.466  1.00  0.00     0.171 HD
BRANCH   3   6
ATOM      6  C   UNL     1       0.377  43.910  53.258  1.00  0.00     0.059 A 
ATOM      7  C   UNL     1      -2.525  44.094  55.522  1.00  0.00     0.140 A 
ATOM      8  N   UNL     1      -3.766  43.779  55.079  1.00  0.00    -0.134 NA
ATOM      9  N   UNL     1      -1.624  43.939  54.536  1.00  0.00    -0.284 N 
ATOM     10  N   UNL     1      -3.656  43.399  53.809  1.00  0.00    -0.130 NA
ATOM     11  C   UNL     1      -0.285  44.156  54.477  1.00  0.00     0.120 A 
ATOM     12  C   UNL     1      -2.351  43.504  53.500  1.00  0.00     0.160 A 
ATOM     13  C   UNL     1      -1.761  43.223  52.272  1.00  0.00     0.052 A 
ATOM     14  C   UNL     1      -0.375  43.423  52.159  1.00  0.00     0.031 A 
BRANCH   7  15
ATOM     15  C   UNL     1      -2.226  44.649  56.892  1.00  0.00     0.052 C 
ATOM     16  C   UNL     1      -3.213  44.115  57.937  1.00  0.00     0.016 C 
ATOM     17  C   UNL     1      -2.249  46.178  56.854  1.00  0.00     0.016 C 
ENDBRANCH   7  15
ENDBRANCH   3   6
ENDBRANCH   1   2
BRANCH   1  18
ATOM     18  C   UNL     1       4.378  44.813  51.448  1.00  0.00     0.121 C 
BRANCH  18  19
ATOM     19  C   UNL     1       5.407  45.709  50.742  1.00  0.00     0.026 CG0
ATOM     20  G   UNL     1       6.856  45.231  50.925  1.00  0.00     0.000 G0
ENDBRANCH  18  19
ENDBRANCH   1  18
BRANCH   1  21
ATOM     21  C   UNL     1       4.746  46.164  53.561  1.00  0.00     0.126 C 
BRANCH  21  22
ATOM     22  C   UNL     1       5.997  45.320  53.851  1.00  0.00     0.057 C 
BRANCH  22  23
ATOM     23  C   UNL     1       7.256  45.998  53.354  1.00  0.00    -0.043 A 
ATOM     24  C   UNL     1       8.024  46.729  54.279  1.00  0.00     0.004 A 
ATOM     25  C   UNL     1       7.624  46.011  51.980  1.00  0.00    -0.045 A 
ATOM     26  C   UNL     1       9.123  47.477  53.859  1.00  0.00     0.000 A 
ATOM     27  C   UNL     1       8.728  46.787  51.577  1.00  0.00     0.004 A 
ATOM     28  C   UNL     1       9.470  47.512  52.510  1.00  0.00     0.000 A 
BRANCH  25  29
ATOM     29  C   UNL     1       6.874  45.232  50.915  1.00  0.00     0.037 CG0
ATOM     30  G   UNL     1       5.419  45.697  50.746  1.00  0.00     0.000 G0
ENDBRANCH  25  29
ENDBRANCH  22  23
ENDBRANCH  21  22
ENDBRANCH   1  21
TORSDOF 3
ENDMDL
