ligand_75_conformer_1_docked
     RDKit          3D

 51 56  0  0  0  0  0  0  0  0999 V2000
    3.3510   40.2430   49.5230 O   0  0  0  0  0  0  0  0  0  0  0  0
    3.5680   41.2580   50.2390 C   0  0  0  0  0  0  0  0  0  0  0  0
    2.6950   41.6200   51.2280 N   0  0  0  0  0  0  0  0  0  0  0  0
    2.9290   42.7210   52.0200 C   0  0  0  0  0  0  0  0  0  0  0  0
    1.9380   43.1150   53.0780 C   0  0  0  0  0  0  0  0  0  0  0  0
    1.8130   44.5860   53.1660 N   0  0  0  0  0  0  0  0  0  0  0  0
    2.0100   45.0630   54.5610 C   0  0  0  0  0  0  0  0  0  0  0  0
    3.4340   45.5770   54.8120 C   0  0  0  0  0  0  0  0  0  0  0  0
    3.7470   46.7860   53.9040 C   0  0  0  0  0  0  0  0  0  0  0  0
    5.2330   46.9080   53.6950 C   0  0  0  0  0  0  0  0  0  0  0  0
    5.7890   47.7370   52.7680 N   0  0  0  0  0  0  0  0  0  0  0  0
    7.1050   47.5090   52.9180 C   0  0  0  0  0  0  0  0  0  0  0  0
    8.1570   48.0950   52.2170 C   0  0  0  0  0  0  0  0  0  0  0  0
    9.4660   47.6960   52.5470 C   0  0  0  0  0  0  0  0  0  0  0  0
    9.6870   46.7310   53.5580 C   0  0  0  0  0  0  0  0  0  0  0  0
    8.6000   46.1590   54.2470 C   0  0  0  0  0  0  0  0  0  0  0  0
    7.3210   46.5810   53.8910 C   0  0  0  0  0  0  0  0  0  0  0  0
    6.1440   46.1860   54.3950 N   0  0  0  0  0  0  0  0  0  0  0  0
    2.9930   46.7140   52.5550 C   0  0  0  0  0  0  0  0  0  0  0  0
    2.6840   45.2630   52.1670 C   0  0  0  0  0  0  0  0  0  0  0  0
    4.0430   43.4910   51.8230 N   0  0  0  0  0  0  0  0  0  0  0  0
    4.9020   43.1300   50.8430 C   0  0  0  0  0  0  0  0  0  0  0  0
    4.6980   42.0380   50.0470 C   0  0  0  0  0  0  0  0  0  0  0  0
    5.6720   41.9010   49.1690 O   0  0  0  0  0  0  0  0  0  0  0  0
    6.5090   42.9000   49.3890 C   0  0  0  0  0  0  0  0  0  0  0  0
    7.6930   43.1820   48.7110 C   0  0  0  0  0  0  0  0  0  0  0  0
    8.4340   44.3090   49.1180 C   0  0  0  0  0  0  0  0  0  0  0  0
    7.9810   45.1220   50.1830 C   0  0  0  0  0  0  0  0  0  0  0  0
    6.7810   44.8210   50.8540 C   0  0  0  0  0  0  0  0  0  0  0  0
    6.0740   43.7010   50.4280 C   0  0  0  0  0  0  0  0  0  0  0  0
    1.8330   41.0470   51.3820 H   0  0  0  0  0  0  0  0  0  0  0  0
    0.9565   42.6849   52.8296 H   0  0  0  0  0  0  0  0  0  0  0  0
    2.2912   42.7348   54.0479 H   0  0  0  0  0  0  0  0  0  0  0  0
    1.3004   45.8802   54.7577 H   0  0  0  0  0  0  0  0  0  0  0  0
    1.8403   44.2087   55.2329 H   0  0  0  0  0  0  0  0  0  0  0  0
    3.5271   45.8825   55.8646 H   0  0  0  0  0  0  0  0  0  0  0  0
    4.1461   44.7702   54.5838 H   0  0  0  0  0  0  0  0  0  0  0  0
    3.3879   47.6913   54.4153 H   0  0  0  0  0  0  0  0  0  0  0  0
    7.9710   48.8436   51.4328 H   0  0  0  0  0  0  0  0  0  0  0  0
   10.3223   48.1371   52.0157 H   0  0  0  0  0  0  0  0  0  0  0  0
   10.7140   46.4257   53.8073 H   0  0  0  0  0  0  0  0  0  0  0  0
    8.7549   45.4081   55.0357 H   0  0  0  0  0  0  0  0  0  0  0  0
    5.9720   45.4850   55.1490 H   0  0  0  0  0  0  0  0  0  0  0  0
    2.0483   47.2707   52.6422 H   0  0  0  0  0  0  0  0  0  0  0  0
    3.6327   47.1535   51.7755 H   0  0  0  0  0  0  0  0  0  0  0  0
    2.1746   45.2580   51.1921 H   0  0  0  0  0  0  0  0  0  0  0  0
    3.6369   44.7152   52.1243 H   0  0  0  0  0  0  0  0  0  0  0  0
    8.0385   42.5446   47.8837 H   0  0  0  0  0  0  0  0  0  0  0  0
    9.3733   44.5589   48.6029 H   0  0  0  0  0  0  0  0  0  0  0  0
    8.5720   45.9976   50.4897 H   0  0  0  0  0  0  0  0  0  0  0  0
    6.4166   45.4464   51.6823 H   0  0  0  0  0  0  0  0  0  0  0  0
  1  2  2  0
  2  3  1  0
  3  4  1  0
  4  5  1  0
  5  6  1  0
  6  7  1  0
  7  8  1  0
  8  9  1  0
  9 10  1  0
 10 11  2  0
 11 12  1  0
 12 13  2  0
 13 14  1  0
 14 15  2  0
 15 16  1  0
 16 17  2  0
 17 18  1  0
  9 19  1  0
 19 20  1  0
  4 21  2  0
 21 22  1  0
 22 23  2  0
 23 24  1  0
 24 25  1  0
 25 26  2  0
 26 27  1  0
 27 28  2  0
 28 29  1  0
 29 30  2  0
 23  2  1  0
 30 25  1  0
 20  6  1  0
 30 22  1  0
 18 10  1  0
 17 12  1  0
  3 31  1  0
  5 32  1  0
  5 33  1  0
  7 34  1  0
  7 35  1  0
  8 36  1  0
  8 37  1  0
  9 38  1  0
 13 39  1  0
 14 40  1  0
 15 41  1  0
 16 42  1  0
 18 43  1  0
 19 44  1  0
 19 45  1  0
 20 46  1  0
 20 47  1  0
 26 48  1  0
 27 49  1  0
 28 50  1  0
 29 51  1  0
M  END
>  <meeko>  (1) 
{"is_sidechain": [false], "free_energy": -11.398, "intermolecular_energy": -13.397, "internal_energy": 0.16}

$$$$
ligand_75_conformer_1_docked
     RDKit          3D

 51 56  0  0  0  0  0  0  0  0999 V2000
   -1.7380   42.1860   52.1930 O   0  0  0  0  0  0  0  0  0  0  0  0
   -0.6930   42.6270   52.7420 C   0  0  0  0  0  0  0  0  0  0  0  0
    0.5460   42.2740   52.2820 N   0  0  0  0  0  0  0  0  0  0  0  0
    1.6930   42.7590   52.8710 C   0  0  0  0  0  0  0  0  0  0  0  0
    3.0410   42.3290   52.3660 C   0  0  0  0  0  0  0  0  0  0  0  0
    3.4640   43.1550   51.2160 N   0  0  0  0  0  0  0  0  0  0  0  0
    2.9420   44.5430   51.3240 C   0  0  0  0  0  0  0  0  0  0  0  0
    3.9810   45.5220   51.8880 C   0  0  0  0  0  0  0  0  0  0  0  0
    5.2120   45.6050   50.9590 C   0  0  0  0  0  0  0  0  0  0  0  0
    6.4240   46.0420   51.7390 C   0  0  0  0  0  0  0  0  0  0  0  0
    7.6920   45.9640   51.2500 N   0  0  0  0  0  0  0  0  0  0  0  0
    8.4320   46.4320   52.2700 C   0  0  0  0  0  0  0  0  0  0  0  0
    9.8170   46.5770   52.3220 C   0  0  0  0  0  0  0  0  0  0  0  0
   10.3770   47.0930   53.5070 C   0  0  0  0  0  0  0  0  0  0  0  0
    9.5460   47.4440   54.5970 C   0  0  0  0  0  0  0  0  0  0  0  0
    8.1500   47.2840   54.5100 C   0  0  0  0  0  0  0  0  0  0  0  0
    7.6350   46.7720   53.3210 C   0  0  0  0  0  0  0  0  0  0  0  0
    6.3570   46.5300   53.0040 N   0  0  0  0  0  0  0  0  0  0  0  0
    5.4740   44.2750   50.2140 C   0  0  0  0  0  0  0  0  0  0  0  0
    4.9360   43.0770   51.0070 C   0  0  0  0  0  0  0  0  0  0  0  0
    1.6150   43.6000   53.9470 N   0  0  0  0  0  0  0  0  0  0  0  0
    0.3880   43.9450   54.3990 C   0  0  0  0  0  0  0  0  0  0  0  0
   -0.7650   43.4850   53.8290 C   0  0  0  0  0  0  0  0  0  0  0  0
   -1.8260   43.9610   54.4510 O   0  0  0  0  0  0  0  0  0  0  0  0
   -1.3680   44.7300   55.4240 C   0  0  0  0  0  0  0  0  0  0  0  0
   -2.1080   45.4520   56.3570 C   0  0  0  0  0  0  0  0  0  0  0  0
   -1.4040   46.2090   57.3140 C   0  0  0  0  0  0  0  0  0  0  0  0
    0.0100   46.2290   57.3180 C   0  0  0  0  0  0  0  0  0  0  0  0
    0.7390   45.4910   56.3680 C   0  0  0  0  0  0  0  0  0  0  0  0
    0.0140   44.7550   55.4360 C   0  0  0  0  0  0  0  0  0  0  0  0
    0.6210   41.6210   51.4670 H   0  0  0  0  0  0  0  0  0  0  0  0
    3.7786   42.4344   53.1752 H   0  0  0  0  0  0  0  0  0  0  0  0
    2.9747   41.2808   52.0390 H   0  0  0  0  0  0  0  0  0  0  0  0
    2.6423   44.8856   50.3226 H   0  0  0  0  0  0  0  0  0  0  0  0
    2.0893   44.5252   52.0187 H   0  0  0  0  0  0  0  0  0  0  0  0
    3.5267   46.5200   51.9758 H   0  0  0  0  0  0  0  0  0  0  0  0
    4.3063   45.1630   52.8756 H   0  0  0  0  0  0  0  0  0  0  0  0
    4.9978   46.3592   50.1874 H   0  0  0  0  0  0  0  0  0  0  0  0
   10.4509   46.2982   51.4673 H   0  0  0  0  0  0  0  0  0  0  0  0
   11.4664   47.2238   53.5854 H   0  0  0  0  0  0  0  0  0  0  0  0
    9.9937   47.8446   55.5185 H   0  0  0  0  0  0  0  0  0  0  0  0
    7.4910   47.5529   55.3487 H   0  0  0  0  0  0  0  0  0  0  0  0
    5.5090   46.6800   53.5950 H   0  0  0  0  0  0  0  0  0  0  0  0
    4.9757   44.3090   49.2339 H   0  0  0  0  0  0  0  0  0  0  0  0
    6.5605   44.1524   50.0939 H   0  0  0  0  0  0  0  0  0  0  0  0
    5.1668   42.1542   50.4545 H   0  0  0  0  0  0  0  0  0  0  0  0
    5.4178   43.0833   51.9958 H   0  0  0  0  0  0  0  0  0  0  0  0
   -3.2078   45.4318   56.3470 H   0  0  0  0  0  0  0  0  0  0  0  0
   -1.9593   46.7899   58.0651 H   0  0  0  0  0  0  0  0  0  0  0  0
    0.5446   46.8270   58.0707 H   0  0  0  0  0  0  0  0  0  0  0  0
    1.8390   45.4956   56.3621 H   0  0  0  0  0  0  0  0  0  0  0  0
  1  2  2  0
  2  3  1  0
  3  4  1  0
  4  5  1  0
  5  6  1  0
  6  7  1  0
  7  8  1  0
  8  9  1  0
  9 10  1  0
 10 11  2  0
 11 12  1  0
 12 13  2  0
 13 14  1  0
 14 15  2  0
 15 16  1  0
 16 17  2  0
 17 18  1  0
  9 19  1  0
 19 20  1  0
  4 21  2  0
 21 22  1  0
 22 23  2  0
 23 24  1  0
 24 25  1  0
 25 26  2  0
 26 27  1  0
 27 28  2  0
 28 29  1  0
 29 30  2  0
 23  2  1  0
 30 25  1  0
 20  6  1  0
 30 22  1  0
 18 10  1  0
 17 12  1  0
  3 31  1  0
  5 32  1  0
  5 33  1  0
  7 34  1  0
  7 35  1  0
  8 36  1  0
  8 37  1  0
  9 38  1  0
 13 39  1  0
 14 40  1  0
 15 41  1  0
 16 42  1  0
 18 43  1  0
 19 44  1  0
 19 45  1  0
 20 46  1  0
 20 47  1  0
 26 48  1  0
 27 49  1  0
 28 50  1  0
 29 51  1  0
M  END
>  <meeko>  (2) 
{"is_sidechain": [false], "free_energy": -11.058, "intermolecular_energy": -12.471, "internal_energy": -0.367}

$$$$
ligand_75_conformer_1_docked
     RDKit          3D

 51 56  0  0  0  0  0  0  0  0999 V2000
   -2.8310   44.3210   54.3110 O   0  0  0  0  0  0  0  0  0  0  0  0
   -1.7050   44.6330   54.7850 C   0  0  0  0  0  0  0  0  0  0  0  0
   -0.5500   44.1780   54.2100 N   0  0  0  0  0  0  0  0  0  0  0  0
    0.6840   44.5210   54.7160 C   0  0  0  0  0  0  0  0  0  0  0  0
    1.9350   43.9810   54.0860 C   0  0  0  0  0  0  0  0  0  0  0  0
    2.2030   44.6390   52.7900 N   0  0  0  0  0  0  0  0  0  0  0  0
    2.0980   46.1190   52.9020 C   0  0  0  0  0  0  0  0  0  0  0  0
    3.4660   46.7950   53.0650 C   0  0  0  0  0  0  0  0  0  0  0  0
    4.3580   46.5270   51.8320 C   0  0  0  0  0  0  0  0  0  0  0  0
    5.8120   46.6400   52.2080 C   0  0  0  0  0  0  0  0  0  0  0  0
    6.2400   47.2430   53.3510 N   0  0  0  0  0  0  0  0  0  0  0  0
    7.5770   47.1300   53.2620 C   0  0  0  0  0  0  0  0  0  0  0  0
    8.5320   47.5790   54.1710 C   0  0  0  0  0  0  0  0  0  0  0  0
    9.8880   47.3490   53.8640 C   0  0  0  0  0  0  0  0  0  0  0  0
   10.2470   46.6840   52.6680 C   0  0  0  0  0  0  0  0  0  0  0  0
    9.2550   46.2430   51.7720 C   0  0  0  0  0  0  0  0  0  0  0  0
    7.9260   46.4890   52.1120 C   0  0  0  0  0  0  0  0  0  0  0  0
    6.8200   46.1730   51.4280 N   0  0  0  0  0  0  0  0  0  0  0  0
    4.0520   45.1590   51.1760 C   0  0  0  0  0  0  0  0  0  0  0  0
    3.4840   44.1660   52.1980 C   0  0  0  0  0  0  0  0  0  0  0  0
    0.7800   45.3200   55.8230 N   0  0  0  0  0  0  0  0  0  0  0  0
   -0.3650   45.7670   56.3880 C   0  0  0  0  0  0  0  0  0  0  0  0
   -1.6020   45.4480   55.9020 C   0  0  0  0  0  0  0  0  0  0  0  0
   -2.5550   46.0010   56.6270 O   0  0  0  0  0  0  0  0  0  0  0  0
   -1.9430   46.6780   57.5830 C   0  0  0  0  0  0  0  0  0  0  0  0
   -2.5280   47.4310   58.5990 C   0  0  0  0  0  0  0  0  0  0  0  0
   -1.6750   48.0740   59.5180 C   0  0  0  0  0  0  0  0  0  0  0  0
   -0.2700   47.9530   59.4030 C   0  0  0  0  0  0  0  0  0  0  0  0
    0.3000   47.1860   58.3710 C   0  0  0  0  0  0  0  0  0  0  0  0
   -0.5690   46.5650   57.4790 C   0  0  0  0  0  0  0  0  0  0  0  0
   -0.6090   43.5550   53.3710 H   0  0  0  0  0  0  0  0  0  0  0  0
    2.7840   44.1595   54.7622 H   0  0  0  0  0  0  0  0  0  0  0  0
    1.8015   42.9033   53.9105 H   0  0  0  0  0  0  0  0  0  0  0  0
    1.6184   46.5084   51.9919 H   0  0  0  0  0  0  0  0  0  0  0  0
    1.5047   46.3447   53.8003 H   0  0  0  0  0  0  0  0  0  0  0  0
    3.3217   47.8797   53.1774 H   0  0  0  0  0  0  0  0  0  0  0  0
    3.9609   46.3815   53.9561 H   0  0  0  0  0  0  0  0  0  0  0  0
    4.1279   47.2946   51.0785 H   0  0  0  0  0  0  0  0  0  0  0  0
    8.2379   48.0954   55.0967 H   0  0  0  0  0  0  0  0  0  0  0  0
   10.6713   47.6882   54.5578 H   0  0  0  0  0  0  0  0  0  0  0  0
   11.3083   46.5104   52.4368 H   0  0  0  0  0  0  0  0  0  0  0  0
    9.5188   45.7239   50.8388 H   0  0  0  0  0  0  0  0  0  0  0  0
    6.7510   45.6810   50.5090 H   0  0  0  0  0  0  0  0  0  0  0  0
    3.3170   45.3041   50.3706 H   0  0  0  0  0  0  0  0  0  0  0  0
    4.9907   44.7476   50.7764 H   0  0  0  0  0  0  0  0  0  0  0  0
    3.3081   43.2031   51.6962 H   0  0  0  0  0  0  0  0  0  0  0  0
    4.2156   44.0651   53.0132 H   0  0  0  0  0  0  0  0  0  0  0  0
   -3.6213   47.5207   58.6811 H   0  0  0  0  0  0  0  0  0  0  0  0
   -2.1054   48.6755   60.3322 H   0  0  0  0  0  0  0  0  0  0  0  0
    0.3822   48.4633   60.1270 H   0  0  0  0  0  0  0  0  0  0  0  0
    1.3906   47.0811   58.2728 H   0  0  0  0  0  0  0  0  0  0  0  0
  1  2  2  0
  2  3  1  0
  3  4  1  0
  4  5  1  0
  5  6  1  0
  6  7  1  0
  7  8  1  0
  8  9  1  0
  9 10  1  0
 10 11  2  0
 11 12  1  0
 12 13  2  0
 13 14  1  0
 14 15  2  0
 15 16  1  0
 16 17  2  0
 17 18  1  0
  9 19  1  0
 19 20  1  0
  4 21  2  0
 21 22  1  0
 22 23  2  0
 23 24  1  0
 24 25  1  0
 25 26  2  0
 26 27  1  0
 27 28  2  0
 28 29  1  0
 29 30  2  0
 23  2  1  0
 30 25  1  0
 20  6  1  0
 30 22  1  0
 18 10  1  0
 17 12  1  0
  3 31  1  0
  5 32  1  0
  5 33  1  0
  7 34  1  0
  7 35  1  0
  8 36  1  0
  8 37  1  0
  9 38  1  0
 13 39  1  0
 14 40  1  0
 15 41  1  0
 16 42  1  0
 18 43  1  0
 19 44  1  0
 19 45  1  0
 20 46  1  0
 20 47  1  0
 26 48  1  0
 27 49  1  0
 28 50  1  0
 29 51  1  0
M  END
>  <meeko>  (3) 
{"is_sidechain": [false], "free_energy": -10.753, "intermolecular_energy": -11.982, "internal_energy": -0.496}

$$$$
ligand_75_conformer_1_docked
     RDKit          3D

 51 56  0  0  0  0  0  0  0  0999 V2000
    4.7260   45.4650   55.4100 O   0  0  0  0  0  0  0  0  0  0  0  0
    3.7230   44.9070   54.8900 C   0  0  0  0  0  0  0  0  0  0  0  0
    3.8640   44.0560   53.8280 N   0  0  0  0  0  0  0  0  0  0  0  0
    2.7740   43.4340   53.2600 C   0  0  0  0  0  0  0  0  0  0  0  0
    2.9540   42.5300   52.0740 C   0  0  0  0  0  0  0  0  0  0  0  0
    3.5380   43.2640   50.9310 N   0  0  0  0  0  0  0  0  0  0  0  0
    3.0620   44.6730   50.8930 C   0  0  0  0  0  0  0  0  0  0  0  0
    4.0690   45.6520   51.5110 C   0  0  0  0  0  0  0  0  0  0  0  0
    5.3990   45.6340   50.7260 C   0  0  0  0  0  0  0  0  0  0  0  0
    6.5310   46.0820   51.6130 C   0  0  0  0  0  0  0  0  0  0  0  0
    7.8380   46.0370   51.2320 N   0  0  0  0  0  0  0  0  0  0  0  0
    8.4790   46.5030   52.3180 C   0  0  0  0  0  0  0  0  0  0  0  0
    9.8510   46.6760   52.4880 C   0  0  0  0  0  0  0  0  0  0  0  0
   10.2980   47.1820   53.7240 C   0  0  0  0  0  0  0  0  0  0  0  0
    9.3720   47.4980   54.7450 C   0  0  0  0  0  0  0  0  0  0  0  0
    7.9920   47.3110   54.5390 C   0  0  0  0  0  0  0  0  0  0  0  0
    7.5890   46.8090   53.3030 C   0  0  0  0  0  0  0  0  0  0  0  0
    6.3480   46.5460   52.8750 N   0  0  0  0  0  0  0  0  0  0  0  0
    5.6900   44.2500   50.1000 C   0  0  0  0  0  0  0  0  0  0  0  0
    5.0190   43.1250   50.8990 C   0  0  0  0  0  0  0  0  0  0  0  0
    1.5150   43.6690   53.7400 N   0  0  0  0  0  0  0  0  0  0  0  0
    1.3810   44.5120   54.7890 C   0  0  0  0  0  0  0  0  0  0  0  0
    2.4450   45.1360   55.3770 C   0  0  0  0  0  0  0  0  0  0  0  0
    2.0540   45.9070   56.3730 O   0  0  0  0  0  0  0  0  0  0  0  0
    0.7390   45.7880   56.4360 C   0  0  0  0  0  0  0  0  0  0  0  0
   -0.1290   46.4120   57.3280 C   0  0  0  0  0  0  0  0  0  0  0  0
   -1.5060   46.1370   57.2110 C   0  0  0  0  0  0  0  0  0  0  0  0
   -1.9810   45.2530   56.2150 C   0  0  0  0  0  0  0  0  0  0  0  0
   -1.0870   44.6340   55.3220 C   0  0  0  0  0  0  0  0  0  0  0  0
    0.2650   44.9250   55.4650 C   0  0  0  0  0  0  0  0  0  0  0  0
    4.8200   43.8760   53.4420 H   0  0  0  0  0  0  0  0  0  0  0  0
    3.6245   41.7031   52.3507 H   0  0  0  0  0  0  0  0  0  0  0  0
    1.9682   42.1439   51.7753 H   0  0  0  0  0  0  0  0  0  0  0  0
    2.8903   44.9589   49.8448 H   0  0  0  0  0  0  0  0  0  0  0  0
    2.1365   44.7285   51.4850 H   0  0  0  0  0  0  0  0  0  0  0  0
    3.6478   46.6678   51.4849 H   0  0  0  0  0  0  0  0  0  0  0  0
    4.2668   45.3478   52.5494 H   0  0  0  0  0  0  0  0  0  0  0  0
    5.3041   46.3418   49.8894 H   0  0  0  0  0  0  0  0  0  0  0  0
   10.5602   46.4262   51.6851 H   0  0  0  0  0  0  0  0  0  0  0  0
   11.3740   47.3323   53.8962 H   0  0  0  0  0  0  0  0  0  0  0  0
    9.7324   47.8925   55.7065 H   0  0  0  0  0  0  0  0  0  0  0  0
    7.2597   47.5519   55.3237 H   0  0  0  0  0  0  0  0  0  0  0  0
    5.4510   46.6690   53.3950 H   0  0  0  0  0  0  0  0  0  0  0  0
    5.3067   44.2352   49.0690 H   0  0  0  0  0  0  0  0  0  0  0  0
    6.7774   44.0845   50.1131 H   0  0  0  0  0  0  0  0  0  0  0  0
    5.2743   42.1606   50.4356 H   0  0  0  0  0  0  0  0  0  0  0  0
    5.3857   43.1814   51.9345 H   0  0  0  0  0  0  0  0  0  0  0  0
    0.2485   47.0984   58.1002 H   0  0  0  0  0  0  0  0  0  0  0  0
   -2.2177   46.6143   57.9007 H   0  0  0  0  0  0  0  0  0  0  0  0
   -3.0588   45.0474   56.1376 H   0  0  0  0  0  0  0  0  0  0  0  0
   -1.4439   43.9465   54.5410 H   0  0  0  0  0  0  0  0  0  0  0  0
  1  2  2  0
  2  3  1  0
  3  4  1  0
  4  5  1  0
  5  6  1  0
  6  7  1  0
  7  8  1  0
  8  9  1  0
  9 10  1  0
 10 11  2  0
 11 12  1  0
 12 13  2  0
 13 14  1  0
 14 15  2  0
 15 16  1  0
 16 17  2  0
 17 18  1  0
  9 19  1  0
 19 20  1  0
  4 21  2  0
 21 22  1  0
 22 23  2  0
 23 24  1  0
 24 25  1  0
 25 26  2  0
 26 27  1  0
 27 28  2  0
 28 29  1  0
 29 30  2  0
 23  2  1  0
 30 25  1  0
 20  6  1  0
 30 22  1  0
 18 10  1  0
 17 12  1  0
  3 31  1  0
  5 32  1  0
  5 33  1  0
  7 34  1  0
  7 35  1  0
  8 36  1  0
  8 37  1  0
  9 38  1  0
 13 39  1  0
 14 40  1  0
 15 41  1  0
 16 42  1  0
 18 43  1  0
 19 44  1  0
 19 45  1  0
 20 46  1  0
 20 47  1  0
 26 48  1  0
 27 49  1  0
 28 50  1  0
 29 51  1  0
M  END
>  <meeko>  (4) 
{"is_sidechain": [false], "free_energy": -10.472, "intermolecular_energy": -12.458, "internal_energy": 0.309}

$$$$
ligand_75_conformer_1_docked
     RDKit          3D

 51 56  0  0  0  0  0  0  0  0999 V2000
    4.0470   45.6340   55.9980 O   0  0  0  0  0  0  0  0  0  0  0  0
    4.3370   45.2540   54.8320 C   0  0  0  0  0  0  0  0  0  0  0  0
    3.5530   44.3480   54.1720 N   0  0  0  0  0  0  0  0  0  0  0  0
    3.8590   43.9340   52.8940 C   0  0  0  0  0  0  0  0  0  0  0  0
    2.9990   42.9130   52.2050 C   0  0  0  0  0  0  0  0  0  0  0  0
    1.6210   43.4160   52.0240 N   0  0  0  0  0  0  0  0  0  0  0  0
    0.6320   42.5430   52.7120 C   0  0  0  0  0  0  0  0  0  0  0  0
    0.2170   43.0910   54.0840 C   0  0  0  0  0  0  0  0  0  0  0  0
   -0.4660   44.4690   53.9370 C   0  0  0  0  0  0  0  0  0  0  0  0
   -0.3300   45.2550   55.2150 C   0  0  0  0  0  0  0  0  0  0  0  0
    0.8080   45.2690   55.9630 N   0  0  0  0  0  0  0  0  0  0  0  0
    0.4750   46.0650   56.9940 C   0  0  0  0  0  0  0  0  0  0  0  0
    1.2700   46.4340   58.0770 C   0  0  0  0  0  0  0  0  0  0  0  0
    0.7030   47.2840   59.0460 C   0  0  0  0  0  0  0  0  0  0  0  0
   -0.6310   47.7360   58.9080 C   0  0  0  0  0  0  0  0  0  0  0  0
   -1.4060   47.3430   57.8000 C   0  0  0  0  0  0  0  0  0  0  0  0
   -0.8080   46.5030   56.8630 C   0  0  0  0  0  0  0  0  0  0  0  0
   -1.3360   45.9980   55.7420 N   0  0  0  0  0  0  0  0  0  0  0  0
    0.0790   45.2650   52.7280 C   0  0  0  0  0  0  0  0  0  0  0  0
    1.5180   44.8540   52.3920 C   0  0  0  0  0  0  0  0  0  0  0  0
    4.9710   44.4160   52.2580 N   0  0  0  0  0  0  0  0  0  0  0  0
    5.7430   45.3110   52.9160 C   0  0  0  0  0  0  0  0  0  0  0  0
    5.4590   45.7430   54.1810 C   0  0  0  0  0  0  0  0  0  0  0  0
    6.3620   46.6080   54.6010 O   0  0  0  0  0  0  0  0  0  0  0  0
    7.2330   46.7400   53.6150 C   0  0  0  0  0  0  0  0  0  0  0  0
    8.3680   47.5460   53.5860 C   0  0  0  0  0  0  0  0  0  0  0  0
    9.1600   47.5290   52.4210 C   0  0  0  0  0  0  0  0  0  0  0  0
    8.8030   46.7160   51.3200 C   0  0  0  0  0  0  0  0  0  0  0  0
    7.6520   45.9070   51.3700 C   0  0  0  0  0  0  0  0  0  0  0  0
    6.8920   45.9480   52.5350 C   0  0  0  0  0  0  0  0  0  0  0  0
    2.7060   43.9620   54.6510 H   0  0  0  0  0  0  0  0  0  0  0  0
    3.4310   42.6850   51.2194 H   0  0  0  0  0  0  0  0  0  0  0  0
    2.9623   42.0076   52.8286 H   0  0  0  0  0  0  0  0  0  0  0  0
   -0.2644   42.4595   52.0799 H   0  0  0  0  0  0  0  0  0  0  0  0
    1.1065   41.5638   52.8733 H   0  0  0  0  0  0  0  0  0  0  0  0
   -0.4853   42.3883   54.5563 H   0  0  0  0  0  0  0  0  0  0  0  0
    1.1169   43.2065   54.7060 H   0  0  0  0  0  0  0  0  0  0  0  0
   -1.5344   44.2946   53.7416 H   0  0  0  0  0  0  0  0  0  0  0  0
    2.3050   46.0737   58.1719 H   0  0  0  0  0  0  0  0  0  0  0  0
    1.3001   47.5983   59.9147 H   0  0  0  0  0  0  0  0  0  0  0  0
   -1.0652   48.3986   59.6712 H   0  0  0  0  0  0  0  0  0  0  0  0
   -2.4441   47.6861   57.6788 H   0  0  0  0  0  0  0  0  0  0  0  0
   -2.2990   46.1420   55.3640 H   0  0  0  0  0  0  0  0  0  0  0  0
   -0.5615   45.0729   51.8546 H   0  0  0  0  0  0  0  0  0  0  0  0
    0.0751   46.3342   52.9865 H   0  0  0  0  0  0  0  0  0  0  0  0
    1.8717   45.4622   51.5464 H   0  0  0  0  0  0  0  0  0  0  0  0
    2.1338   45.0178   53.2886 H   0  0  0  0  0  0  0  0  0  0  0  0
    8.6379   48.1765   54.4460 H   0  0  0  0  0  0  0  0  0  0  0  0
   10.0640   48.1535   52.3671 H   0  0  0  0  0  0  0  0  0  0  0  0
    9.4304   46.7159   50.4165 H   0  0  0  0  0  0  0  0  0  0  0  0
    7.3648   45.2679   50.5220 H   0  0  0  0  0  0  0  0  0  0  0  0
  1  2  2  0
  2  3  1  0
  3  4  1  0
  4  5  1  0
  5  6  1  0
  6  7  1  0
  7  8  1  0
  8  9  1  0
  9 10  1  0
 10 11  2  0
 11 12  1  0
 12 13  2  0
 13 14  1  0
 14 15  2  0
 15 16  1  0
 16 17  2  0
 17 18  1  0
  9 19  1  0
 19 20  1  0
  4 21  2  0
 21 22  1  0
 22 23  2  0
 23 24  1  0
 24 25  1  0
 25 26  2  0
 26 27  1  0
 27 28  2  0
 28 29  1  0
 29 30  2  0
 23  2  1  0
 30 25  1  0
 20  6  1  0
 30 22  1  0
 18 10  1  0
 17 12  1  0
  3 31  1  0
  5 32  1  0
  5 33  1  0
  7 34  1  0
  7 35  1  0
  8 36  1  0
  8 37  1  0
  9 38  1  0
 13 39  1  0
 14 40  1  0
 15 41  1  0
 16 42  1  0
 18 43  1  0
 19 44  1  0
 19 45  1  0
 20 46  1  0
 20 47  1  0
 26 48  1  0
 27 49  1  0
 28 50  1  0
 29 51  1  0
M  END
>  <meeko>  (5) 
{"is_sidechain": [false], "free_energy": -10.412, "intermolecular_energy": -11.624, "internal_energy": -0.453}

$$$$
