ligand_69_conformer_5_docked
     RDKit          3D

 43 46  0  0  0  0  0  0  0  0999 V2000
   -0.8830   42.9530   54.2720 C   0  0  0  0  0  0  0  0  0  0  0  0
    0.0510   43.3630   53.2310 N   0  0  0  0  0  0  0  0  0  0  0  0
    0.2340   42.6740   51.9700 C   0  0  0  0  0  0  0  0  0  0  0  0
    1.2500   43.5190   51.1800 C   0  0  0  0  0  0  0  0  0  0  0  0
    1.9280   44.4920   52.1890 C   0  0  0  0  0  0  0  0  0  0  0  0
    3.3480   43.9830   52.5460 C   0  0  0  0  0  0  0  0  0  0  0  0
    4.1210   44.9730   53.4240 C   0  0  0  0  0  0  0  0  0  0  0  0
    4.1040   46.3090   52.8180 N   0  0  0  0  0  0  0  0  0  0  0  0
    5.2410   47.1740   52.9810 C   0  0  0  0  0  0  0  0  0  0  0  0
    5.0860   48.3110   53.5030 O   0  0  0  0  0  0  0  0  0  0  0  0
    6.5810   46.7620   52.5180 C   0  0  0  0  0  0  0  0  0  0  0  0
    6.8760   46.1330   51.3110 C   0  0  0  0  0  0  0  0  0  0  0  0
    8.2560   45.9600   51.2630 C   0  0  0  0  0  0  0  0  0  0  0  0
    8.7400   46.4970   52.4380 C   0  0  0  0  0  0  0  0  0  0  0  0
   10.0530   46.5850   52.8880 C   0  0  0  0  0  0  0  0  0  0  0  0
   10.2660   47.1890   54.1360 C   0  0  0  0  0  0  0  0  0  0  0  0
    9.1700   47.6740   54.8720 C   0  0  0  0  0  0  0  0  0  0  0  0
    7.9100   47.5550   54.3680 N   0  0  0  0  0  0  0  0  0  0  0  0
    7.7330   46.9780   53.1800 N   0  0  0  0  0  0  0  0  0  0  0  0
    2.8050   46.8940   52.4760 C   0  0  0  0  0  0  0  0  0  0  0  0
    1.9890   45.9280   51.6060 C   0  0  0  0  0  0  0  0  0  0  0  0
    1.0100   44.3930   53.3670 C   0  0  0  0  0  0  0  0  0  0  0  0
    1.0810   45.1180   54.3960 O   0  0  0  0  0  0  0  0  0  0  0  0
   -0.4397   43.1476   55.2597 H   0  0  0  0  0  0  0  0  0  0  0  0
   -1.8181   43.5234   54.1710 H   0  0  0  0  0  0  0  0  0  0  0  0
   -1.0961   41.8786   54.1710 H   0  0  0  0  0  0  0  0  0  0  0  0
    0.6269   41.6607   52.1396 H   0  0  0  0  0  0  0  0  0  0  0  0
   -0.7151   42.5640   51.4249 H   0  0  0  0  0  0  0  0  0  0  0  0
    2.0066   42.8657   50.7209 H   0  0  0  0  0  0  0  0  0  0  0  0
    0.7493   44.0787   50.3762 H   0  0  0  0  0  0  0  0  0  0  0  0
    3.2557   43.0293   53.0863 H   0  0  0  0  0  0  0  0  0  0  0  0
    3.9065   43.8620   51.6061 H   0  0  0  0  0  0  0  0  0  0  0  0
    3.6527   45.0192   54.4183 H   0  0  0  0  0  0  0  0  0  0  0  0
    5.1634   44.6337   53.5149 H   0  0  0  0  0  0  0  0  0  0  0  0
    6.1530   45.8295   50.5395 H   0  0  0  0  0  0  0  0  0  0  0  0
    8.8394   45.4924   50.4562 H   0  0  0  0  0  0  0  0  0  0  0  0
   10.8904   46.1968   52.2896 H   0  0  0  0  0  0  0  0  0  0  0  0
   11.2859   47.2829   54.5373 H   0  0  0  0  0  0  0  0  0  0  0  0
    9.3298   48.1480   55.8517 H   0  0  0  0  0  0  0  0  0  0  0  0
    2.2487   47.1048   53.4013 H   0  0  0  0  0  0  0  0  0  0  0  0
    2.9724   47.8235   51.9121 H   0  0  0  0  0  0  0  0  0  0  0  0
    0.9630   46.3153   51.5198 H   0  0  0  0  0  0  0  0  0  0  0  0
    2.4876   45.8651   50.6275 H   0  0  0  0  0  0  0  0  0  0  0  0
  1  2  1  0
  2  3  1  0
  3  4  1  0
  4  5  1  0
  5  6  1  0
  6  7  1  0
  7  8  1  0
  8  9  1  0
  9 10  2  0
  9 11  1  0
 11 12  2  0
 12 13  1  0
 13 14  2  0
 14 15  1  0
 15 16  2  0
 16 17  1  0
 17 18  2  0
 18 19  1  0
  8 20  1  0
 20 21  1  0
  5 22  1  0
 22 23  2  0
 22  2  1  0
 21  5  1  0
 19 11  1  0
 19 14  1  0
  1 24  1  0
  1 25  1  0
  1 26  1  0
  3 27  1  0
  3 28  1  0
  4 29  1  0
  4 30  1  0
  6 31  1  0
  6 32  1  0
  7 33  1  0
  7 34  1  0
 12 35  1  0
 13 36  1  0
 15 37  1  0
 16 38  1  0
 17 39  1  0
 20 40  1  0
 20 41  1  0
 21 42  1  0
 21 43  1  0
M  END
>  <meeko>  (1) 
{"is_sidechain": [false], "free_energy": -9.309, "intermolecular_energy": -9.853, "internal_energy": -0.191}

$$$$
ligand_69_conformer_5_docked
     RDKit          3D

 43 46  0  0  0  0  0  0  0  0999 V2000
    1.2380   44.7790   56.3030 C   0  0  0  0  0  0  0  0  0  0  0  0
    1.9090   44.8440   55.0110 N   0  0  0  0  0  0  0  0  0  0  0  0
    1.6100   43.9870   53.8820 C   0  0  0  0  0  0  0  0  0  0  0  0
    2.5070   44.4840   52.7350 C   0  0  0  0  0  0  0  0  0  0  0  0
    3.6040   45.3930   53.3650 C   0  0  0  0  0  0  0  0  0  0  0  0
    4.9480   44.6250   53.4470 C   0  0  0  0  0  0  0  0  0  0  0  0
    6.1010   45.5140   53.9260 C   0  0  0  0  0  0  0  0  0  0  0  0
    6.1660   46.7390   53.1210 N   0  0  0  0  0  0  0  0  0  0  0  0
    7.4430   47.3410   52.8510 C   0  0  0  0  0  0  0  0  0  0  0  0
    7.6500   48.5370   53.1900 O   0  0  0  0  0  0  0  0  0  0  0  0
    8.5040   46.5890   52.1530 C   0  0  0  0  0  0  0  0  0  0  0  0
    9.8660   46.6340   52.4380 C   0  0  0  0  0  0  0  0  0  0  0  0
   10.4990   45.7500   51.5700 C   0  0  0  0  0  0  0  0  0  0  0  0
    9.4950   45.2000   50.8000 C   0  0  0  0  0  0  0  0  0  0  0  0
    9.5840   44.2570   49.7820 C   0  0  0  0  0  0  0  0  0  0  0  0
    8.3900   43.8680   49.1590 C   0  0  0  0  0  0  0  0  0  0  0  0
    7.1700   44.4320   49.5740 C   0  0  0  0  0  0  0  0  0  0  0  0
    7.1580   45.3520   50.5800 N   0  0  0  0  0  0  0  0  0  0  0  0
    8.3050   45.7040   51.1580 N   0  0  0  0  0  0  0  0  0  0  0  0
    4.9540   47.5550   53.0100 C   0  0  0  0  0  0  0  0  0  0  0  0
    3.7670   46.7000   52.5460 C   0  0  0  0  0  0  0  0  0  0  0  0
    3.0420   45.6420   54.7300 C   0  0  0  0  0  0  0  0  0  0  0  0
    3.5250   46.4490   55.5690 O   0  0  0  0  0  0  0  0  0  0  0  0
    1.9843   44.8513   57.1078 H   0  0  0  0  0  0  0  0  0  0  0  0
    0.5250   45.6123   56.3882 H   0  0  0  0  0  0  0  0  0  0  0  0
    0.6982   43.8244   56.3882 H   0  0  0  0  0  0  0  0  0  0  0  0
    1.8414   42.9391   54.1237 H   0  0  0  0  0  0  0  0  0  0  0  0
    0.5445   44.0275   53.6117 H   0  0  0  0  0  0  0  0  0  0  0  0
    2.9742   43.6287   52.2249 H   0  0  0  0  0  0  0  0  0  0  0  0
    1.9171   45.0427   51.9935 H   0  0  0  0  0  0  0  0  0  0  0  0
    4.8333   43.7863   54.1495 H   0  0  0  0  0  0  0  0  0  0  0  0
    5.1949   44.2722   52.4348 H   0  0  0  0  0  0  0  0  0  0  0  0
    5.9397   45.7808   54.9809 H   0  0  0  0  0  0  0  0  0  0  0  0
    7.0471   44.9633   53.8177 H   0  0  0  0  0  0  0  0  0  0  0  0
   10.3514   47.2534   53.2066 H   0  0  0  0  0  0  0  0  0  0  0  0
   11.5760   45.5344   51.5101 H   0  0  0  0  0  0  0  0  0  0  0  0
   10.5524   43.8333   49.4778 H   0  0  0  0  0  0  0  0  0  0  0  0
    8.4070   43.1244   48.3486 H   0  0  0  0  0  0  0  0  0  0  0  0
    6.2295   44.1319   49.0888 H   0  0  0  0  0  0  0  0  0  0  0  0
    4.7220   47.9929   53.9920 H   0  0  0  0  0  0  0  0  0  0  0  0
    5.1286   48.3501   52.2702 H   0  0  0  0  0  0  0  0  0  0  0  0
    2.8466   47.2939   52.6470 H   0  0  0  0  0  0  0  0  0  0  0  0
    3.9576   46.4120   51.5016 H   0  0  0  0  0  0  0  0  0  0  0  0
  1  2  1  0
  2  3  1  0
  3  4  1  0
  4  5  1  0
  5  6  1  0
  6  7  1  0
  7  8  1  0
  8  9  1  0
  9 10  2  0
  9 11  1  0
 11 12  2  0
 12 13  1  0
 13 14  2  0
 14 15  1  0
 15 16  2  0
 16 17  1  0
 17 18  2  0
 18 19  1  0
  8 20  1  0
 20 21  1  0
  5 22  1  0
 22 23  2  0
 22  2  1  0
 21  5  1  0
 19 11  1  0
 19 14  1  0
  1 24  1  0
  1 25  1  0
  1 26  1  0
  3 27  1  0
  3 28  1  0
  4 29  1  0
  4 30  1  0
  6 31  1  0
  6 32  1  0
  7 33  1  0
  7 34  1  0
 12 35  1  0
 13 36  1  0
 15 37  1  0
 16 38  1  0
 17 39  1  0
 20 40  1  0
 20 41  1  0
 21 42  1  0
 21 43  1  0
M  END
>  <meeko>  (2) 
{"is_sidechain": [false], "free_energy": -8.961, "intermolecular_energy": -9.475, "internal_energy": -0.201}

$$$$
ligand_69_conformer_5_docked
     RDKit          3D

 43 46  0  0  0  0  0  0  0  0999 V2000
    0.2610   42.8730   53.8390 C   0  0  0  0  0  0  0  0  0  0  0  0
    1.3470   43.1880   52.9190 N   0  0  0  0  0  0  0  0  0  0  0  0
    1.8020   42.3200   51.8530 C   0  0  0  0  0  0  0  0  0  0  0  0
    2.8970   43.1110   51.1130 C   0  0  0  0  0  0  0  0  0  0  0  0
    3.3170   44.2930   52.0350 C   0  0  0  0  0  0  0  0  0  0  0  0
    4.6720   43.9800   52.7190 C   0  0  0  0  0  0  0  0  0  0  0  0
    5.2090   45.1660   53.5270 C   0  0  0  0  0  0  0  0  0  0  0  0
    5.2280   46.3770   52.6990 N   0  0  0  0  0  0  0  0  0  0  0  0
    6.2610   47.3550   52.9000 C   0  0  0  0  0  0  0  0  0  0  0  0
    5.9460   48.5440   53.1760 O   0  0  0  0  0  0  0  0  0  0  0  0
    7.6860   46.9950   52.7580 C   0  0  0  0  0  0  0  0  0  0  0  0
    8.7210   47.3900   53.6000 C   0  0  0  0  0  0  0  0  0  0  0  0
    9.8880   46.8010   53.1240 C   0  0  0  0  0  0  0  0  0  0  0  0
    9.5110   46.0680   52.0180 C   0  0  0  0  0  0  0  0  0  0  0  0
   10.2920   45.2850   51.1740 C   0  0  0  0  0  0  0  0  0  0  0  0
    9.6430   44.6390   50.1120 C   0  0  0  0  0  0  0  0  0  0  0  0
    8.2560   44.8020   49.9390 C   0  0  0  0  0  0  0  0  0  0  0  0
    7.5530   45.5850   50.8060 N   0  0  0  0  0  0  0  0  0  0  0  0
    8.1920   46.1860   51.8080 N   0  0  0  0  0  0  0  0  0  0  0  0
    3.9830   46.7790   52.0380 C   0  0  0  0  0  0  0  0  0  0  0  0
    3.4020   45.6130   51.2260 C   0  0  0  0  0  0  0  0  0  0  0  0
    2.2020   44.3070   53.0340 C   0  0  0  0  0  0  0  0  0  0  0  0
    2.0370   45.1960   53.9140 O   0  0  0  0  0  0  0  0  0  0  0  0
    0.6165   42.9761   54.8749 H   0  0  0  0  0  0  0  0  0  0  0  0
   -0.5767   43.5652   53.6682 H   0  0  0  0  0  0  0  0  0  0  0  0
   -0.0763   41.8400   53.6682 H   0  0  0  0  0  0  0  0  0  0  0  0
    2.2148   41.3880   52.2666 H   0  0  0  0  0  0  0  0  0  0  0  0
    0.9794   42.0368   51.1798 H   0  0  0  0  0  0  0  0  0  0  0  0
    3.7625   42.4614   50.9158 H   0  0  0  0  0  0  0  0  0  0  0  0
    2.5235   43.4836   50.1478 H   0  0  0  0  0  0  0  0  0  0  0  0
    4.5358   43.1242   53.3966 H   0  0  0  0  0  0  0  0  0  0  0  0
    5.4024   43.7567   51.9274 H   0  0  0  0  0  0  0  0  0  0  0  0
    4.5616   45.3333   54.4004 H   0  0  0  0  0  0  0  0  0  0  0  0
    6.2340   44.9407   53.8565 H   0  0  0  0  0  0  0  0  0  0  0  0
    8.6328   48.0460   54.4786 H   0  0  0  0  0  0  0  0  0  0  0  0
   10.9005   46.8993   53.5425 H   0  0  0  0  0  0  0  0  0  0  0  0
   11.3750   45.1770   51.3333 H   0  0  0  0  0  0  0  0  0  0  0  0
   10.2158   44.0074   49.4170 H   0  0  0  0  0  0  0  0  0  0  0  0
    7.7407   44.2994   49.1072 H   0  0  0  0  0  0  0  0  0  0  0  0
    3.2525   47.0883   52.8001 H   0  0  0  0  0  0  0  0  0  0  0  0
    4.1974   47.6146   51.3555 H   0  0  0  0  0  0  0  0  0  0  0  0
    2.3894   45.8869   50.8950 H   0  0  0  0  0  0  0  0  0  0  0  0
    4.0781   45.4349   50.3768 H   0  0  0  0  0  0  0  0  0  0  0  0
  1  2  1  0
  2  3  1  0
  3  4  1  0
  4  5  1  0
  5  6  1  0
  6  7  1  0
  7  8  1  0
  8  9  1  0
  9 10  2  0
  9 11  1  0
 11 12  2  0
 12 13  1  0
 13 14  2  0
 14 15  1  0
 15 16  2  0
 16 17  1  0
 17 18  2  0
 18 19  1  0
  8 20  1  0
 20 21  1  0
  5 22  1  0
 22 23  2  0
 22  2  1  0
 21  5  1  0
 19 11  1  0
 19 14  1  0
  1 24  1  0
  1 25  1  0
  1 26  1  0
  3 27  1  0
  3 28  1  0
  4 29  1  0
  4 30  1  0
  6 31  1  0
  6 32  1  0
  7 33  1  0
  7 34  1  0
 12 35  1  0
 13 36  1  0
 15 37  1  0
 16 38  1  0
 17 39  1  0
 20 40  1  0
 20 41  1  0
 21 42  1  0
 21 43  1  0
M  END
>  <meeko>  (3) 
{"is_sidechain": [false], "free_energy": -8.611, "intermolecular_energy": -9.04, "internal_energy": -0.266}

$$$$
ligand_69_conformer_5_docked
     RDKit          3D

 43 46  0  0  0  0  0  0  0  0999 V2000
   -2.3820   43.8520   51.0970 C   0  0  0  0  0  0  0  0  0  0  0  0
   -1.2110   44.0460   51.9430 N   0  0  0  0  0  0  0  0  0  0  0  0
   -1.2110   44.7700   53.1980 C   0  0  0  0  0  0  0  0  0  0  0  0
    0.2180   44.6330   53.7550 C   0  0  0  0  0  0  0  0  0  0  0  0
    1.1260   44.1450   52.5870 C   0  0  0  0  0  0  0  0  0  0  0  0
    1.9640   45.3260   52.0350 C   0  0  0  0  0  0  0  0  0  0  0  0
    2.9820   44.8790   50.9810 C   0  0  0  0  0  0  0  0  0  0  0  0
    3.7890   43.7670   51.4940 N   0  0  0  0  0  0  0  0  0  0  0  0
    5.1640   43.6450   51.0910 C   0  0  0  0  0  0  0  0  0  0  0  0
    5.5550   42.5860   50.5300 O   0  0  0  0  0  0  0  0  0  0  0  0
    6.1300   44.7300   51.3540 C   0  0  0  0  0  0  0  0  0  0  0  0
    6.9860   45.3110   50.4220 C   0  0  0  0  0  0  0  0  0  0  0  0
    7.6950   46.3110   51.0800 C   0  0  0  0  0  0  0  0  0  0  0  0
    7.2340   46.3000   52.3800 C   0  0  0  0  0  0  0  0  0  0  0  0
    7.6100   47.1020   53.4530 C   0  0  0  0  0  0  0  0  0  0  0  0
    6.9720   46.8750   54.6810 C   0  0  0  0  0  0  0  0  0  0  0  0
    5.9970   45.8660   54.7840 C   0  0  0  0  0  0  0  0  0  0  0  0
    5.6780   45.1180   53.6910 N   0  0  0  0  0  0  0  0  0  0  0  0
    6.2970   45.3540   52.5350 N   0  0  0  0  0  0  0  0  0  0  0  0
    3.0880   42.5860   52.0070 C   0  0  0  0  0  0  0  0  0  0  0  0
    2.0470   42.9900   53.0590 C   0  0  0  0  0  0  0  0  0  0  0  0
    0.1100   43.6920   51.5850 C   0  0  0  0  0  0  0  0  0  0  0  0
    0.3800   43.0840   50.5140 O   0  0  0  0  0  0  0  0  0  0  0  0
   -3.2704   43.7048   51.7287 H   0  0  0  0  0  0  0  0  0  0  0  0
   -2.5264   44.7385   50.4619 H   0  0  0  0  0  0  0  0  0  0  0  0
   -2.2329   42.9663   50.4619 H   0  0  0  0  0  0  0  0  0  0  0  0
   -1.4580   45.8288   53.0305 H   0  0  0  0  0  0  0  0  0  0  0  0
   -1.9605   44.3717   53.8977 H   0  0  0  0  0  0  0  0  0  0  0  0
    0.5723   45.6061   54.1259 H   0  0  0  0  0  0  0  0  0  0  0  0
    0.2429   43.9194   54.5918 H   0  0  0  0  0  0  0  0  0  0  0  0
    1.2828   46.0595   51.5791 H   0  0  0  0  0  0  0  0  0  0  0  0
    2.5226   45.7622   52.8762 H   0  0  0  0  0  0  0  0  0  0  0  0
    2.4484   44.5531   50.0760 H   0  0  0  0  0  0  0  0  0  0  0  0
    3.6456   45.7234   50.7429 H   0  0  0  0  0  0  0  0  0  0  0  0
    7.0835   45.0314   49.3626 H   0  0  0  0  0  0  0  0  0  0  0  0
    8.4630   46.9725   50.6527 H   0  0  0  0  0  0  0  0  0  0  0  0
    8.3769   47.8828   53.3425 H   0  0  0  0  0  0  0  0  0  0  0  0
    7.2327   47.4831   55.5598 H   0  0  0  0  0  0  0  0  0  0  0  0
    5.4936   45.6816   55.7445 H   0  0  0  0  0  0  0  0  0  0  0  0
    2.5813   42.0764   51.1742 H   0  0  0  0  0  0  0  0  0  0  0  0
    3.8221   41.9135   52.4748 H   0  0  0  0  0  0  0  0  0  0  0  0
    1.4219   42.1143   53.2880 H   0  0  0  0  0  0  0  0  0  0  0  0
    2.5945   43.3462   53.9441 H   0  0  0  0  0  0  0  0  0  0  0  0
  1  2  1  0
  2  3  1  0
  3  4  1  0
  4  5  1  0
  5  6  1  0
  6  7  1  0
  7  8  1  0
  8  9  1  0
  9 10  2  0
  9 11  1  0
 11 12  2  0
 12 13  1  0
 13 14  2  0
 14 15  1  0
 15 16  2  0
 16 17  1  0
 17 18  2  0
 18 19  1  0
  8 20  1  0
 20 21  1  0
  5 22  1  0
 22 23  2  0
 22  2  1  0
 21  5  1  0
 19 11  1  0
 19 14  1  0
  1 24  1  0
  1 25  1  0
  1 26  1  0
  3 27  1  0
  3 28  1  0
  4 29  1  0
  4 30  1  0
  6 31  1  0
  6 32  1  0
  7 33  1  0
  7 34  1  0
 12 35  1  0
 13 36  1  0
 15 37  1  0
 16 38  1  0
 17 39  1  0
 20 40  1  0
 20 41  1  0
 21 42  1  0
 21 43  1  0
M  END
>  <meeko>  (4) 
{"is_sidechain": [false], "free_energy": -8.283, "intermolecular_energy": -8.615, "internal_energy": -0.343}

$$$$
ligand_69_conformer_5_docked
     RDKit          3D

 43 46  0  0  0  0  0  0  0  0999 V2000
    4.0390   46.6950   54.9900 C   0  0  0  0  0  0  0  0  0  0  0  0
    3.9890   46.4600   53.5520 N   0  0  0  0  0  0  0  0  0  0  0  0
    3.1670   47.2090   52.6230 C   0  0  0  0  0  0  0  0  0  0  0  0
    3.5140   46.6600   51.2270 C   0  0  0  0  0  0  0  0  0  0  0  0
    4.2660   45.3110   51.4330 C   0  0  0  0  0  0  0  0  0  0  0  0
    3.3150   44.1220   51.1420 C   0  0  0  0  0  0  0  0  0  0  0  0
    4.0370   42.7710   51.1880 C   0  0  0  0  0  0  0  0  0  0  0  0
    5.2280   42.8020   50.3330 N   0  0  0  0  0  0  0  0  0  0  0  0
    5.6370   41.6070   49.6460 C   0  0  0  0  0  0  0  0  0  0  0  0
    6.7970   41.1490   49.8350 O   0  0  0  0  0  0  0  0  0  0  0  0
    4.7310   40.9270   48.7010 C   0  0  0  0  0  0  0  0  0  0  0  0
    3.7020   40.0500   49.0350 C   0  0  0  0  0  0  0  0  0  0  0  0
    3.0820   39.6710   47.8480 C   0  0  0  0  0  0  0  0  0  0  0  0
    3.7540   40.3390   46.8460 C   0  0  0  0  0  0  0  0  0  0  0  0
    3.5340   40.3150   45.4730 C   0  0  0  0  0  0  0  0  0  0  0  0
    4.3750   41.1010   44.6730 C   0  0  0  0  0  0  0  0  0  0  0  0
    5.3910   41.8680   45.2720 C   0  0  0  0  0  0  0  0  0  0  0  0
    5.5490   41.8430   46.6250 N   0  0  0  0  0  0  0  0  0  0  0  0
    4.7360   41.0900   47.3640 N   0  0  0  0  0  0  0  0  0  0  0  0
    6.2070   43.8700   50.5540 C   0  0  0  0  0  0  0  0  0  0  0  0
    5.5240   45.2440   50.5290 C   0  0  0  0  0  0  0  0  0  0  0  0
    4.6120   45.3790   52.8880 C   0  0  0  0  0  0  0  0  0  0  0  0
    5.3540   44.5550   53.4880 O   0  0  0  0  0  0  0  0  0  0  0  0
    3.8387   45.7536   55.5226 H   0  0  0  0  0  0  0  0  0  0  0  0
    5.0365   47.0675   55.2662 H   0  0  0  0  0  0  0  0  0  0  0  0
    3.2795   47.4413   55.2662 H   0  0  0  0  0  0  0  0  0  0  0  0
    2.1004   47.0534   52.8425 H   0  0  0  0  0  0  0  0  0  0  0  0
    3.3556   48.2904   52.6934 H   0  0  0  0  0  0  0  0  0  0  0  0
    2.5933   46.4931   50.6487 H   0  0  0  0  0  0  0  0  0  0  0  0
    4.1405   47.3742   50.6725 H   0  0  0  0  0  0  0  0  0  0  0  0
    2.5125   44.1193   51.8943 H   0  0  0  0  0  0  0  0  0  0  0  0
    2.9149   44.2538   50.1259 H   0  0  0  0  0  0  0  0  0  0  0  0
    4.3391   42.5559   52.2236 H   0  0  0  0  0  0  0  0  0  0  0  0
    3.3553   41.9880   50.8244 H   0  0  0  0  0  0  0  0  0  0  0  0
    3.4300   39.7186   50.0480 H   0  0  0  0  0  0  0  0  0  0  0  0
    2.2324   38.9818   47.7330 H   0  0  0  0  0  0  0  0  0  0  0  0
    2.7324   39.7039   45.0325 H   0  0  0  0  0  0  0  0  0  0  0  0
    4.2411   41.1180   43.5813 H   0  0  0  0  0  0  0  0  0  0  0  0
    6.0555   42.4858   44.6501 H   0  0  0  0  0  0  0  0  0  0  0  0
    6.6873   43.7230   51.5326 H   0  0  0  0  0  0  0  0  0  0  0  0
    6.9583   43.8333   49.7514 H   0  0  0  0  0  0  0  0  0  0  0  0
    6.2445   46.0001   50.8742 H   0  0  0  0  0  0  0  0  0  0  0  0
    5.1971   45.4305   49.4954 H   0  0  0  0  0  0  0  0  0  0  0  0
  1  2  1  0
  2  3  1  0
  3  4  1  0
  4  5  1  0
  5  6  1  0
  6  7  1  0
  7  8  1  0
  8  9  1  0
  9 10  2  0
  9 11  1  0
 11 12  2  0
 12 13  1  0
 13 14  2  0
 14 15  1  0
 15 16  2  0
 16 17  1  0
 17 18  2  0
 18 19  1  0
  8 20  1  0
 20 21  1  0
  5 22  1  0
 22 23  2  0
 22  2  1  0
 21  5  1  0
 19 11  1  0
 19 14  1  0
  1 24  1  0
  1 25  1  0
  1 26  1  0
  3 27  1  0
  3 28  1  0
  4 29  1  0
  4 30  1  0
  6 31  1  0
  6 32  1  0
  7 33  1  0
  7 34  1  0
 12 35  1  0
 13 36  1  0
 15 37  1  0
 16 38  1  0
 17 39  1  0
 20 40  1  0
 20 41  1  0
 21 42  1  0
 21 43  1  0
M  END
>  <meeko>  (5) 
{"is_sidechain": [false], "free_energy": -8.199, "intermolecular_energy": -8.557, "internal_energy": -0.313}

$$$$
