ligand_100_conformer_2_docked
     RDKit          3D

 46 48  0  0  0  0  0  0  0  0999 V2000
   10.0370   46.1080   51.7660 C   0  0  0  0  0  0  0  0  0  0  0  0
    8.9450   47.0350   52.3360 C   0  0  0  0  0  0  0  0  0  0  0  0
    8.4020   47.9230   51.2010 C   0  0  0  0  0  0  0  0  0  0  0  0
    9.5400   47.8690   53.3700 N   0  0  0  0  0  0  0  0  0  0  0  0
    9.1770   47.3800   54.6430 C   0  0  0  0  0  0  0  0  0  0  0  0
    9.6290   47.8630   55.7140 O   0  0  0  0  0  0  0  0  0  0  0  0
    8.2620   46.2200   54.5800 C   0  0  0  0  0  0  0  0  0  0  0  0
    7.8550   46.1820   53.0880 C   0  0  1  0  0  0  0  0  0  0  0  0
    6.4360   46.7110   52.9190 C   0  0  0  0  0  0  0  0  0  0  0  0
    6.2740   47.9490   52.7280 O   0  0  0  0  0  0  0  0  0  0  0  0
    5.2830   45.8370   52.9280 N   0  0  0  0  0  0  0  0  0  0  0  0
    4.5720   45.4490   54.1390 C   0  0  0  0  0  0  0  0  0  0  0  0
    3.3470   44.6680   53.6850 C   0  0  0  0  0  0  0  0  0  0  0  0
    3.6020   44.2910   52.2310 C   0  0  0  0  0  0  0  0  0  0  0  0
    4.6630   45.2880   51.7150 C   0  0  1  0  0  0  0  0  0  0  0  0
    3.9600   46.4450   50.9670 C   0  0  0  0  0  0  0  0  0  0  0  0
    5.7050   44.5440   50.8630 C   0  0  0  0  0  0  0  0  0  0  0  0
    6.7480   45.2070   50.1770 C   0  0  0  0  0  0  0  0  0  0  0  0
    7.6680   44.4850   49.4110 C   0  0  0  0  0  0  0  0  0  0  0  0
    7.5600   43.0990   49.3030 C   0  0  0  0  0  0  0  0  0  0  0  0
    6.5240   42.4290   49.9540 C   0  0  0  0  0  0  0  0  0  0  0  0
    5.6000   43.1440   50.7200 C   0  0  0  0  0  0  0  0  0  0  0  0
   10.5890   45.6394   52.5940 H   0  0  0  0  0  0  0  0  0  0  0  0
    9.5693   45.3269   51.1486 H   0  0  0  0  0  0  0  0  0  0  0  0
   10.7318   46.6963   51.1486 H   0  0  0  0  0  0  0  0  0  0  0  0
    7.8740   48.7865   51.6317 H   0  0  0  0  0  0  0  0  0  0  0  0
    9.2383   48.2769   50.5803 H   0  0  0  0  0  0  0  0  0  0  0  0
    7.7058   47.3398   50.5803 H   0  0  0  0  0  0  0  0  0  0  0  0
   10.2740   48.5940   53.2070 H   0  0  0  0  0  0  0  0  0  0  0  0
    8.7769   45.2933   54.8735 H   0  0  0  0  0  0  0  0  0  0  0  0
    7.4036   46.3060   55.2625 H   0  0  0  0  0  0  0  0  0  0  0  0
    7.8284   45.1652   52.6692 H   0  0  0  0  0  0  0  0  0  0  0  0
    5.2134   44.8173   54.7712 H   0  0  0  0  0  0  0  0  0  0  0  0
    4.2865   46.3292   54.7338 H   0  0  0  0  0  0  0  0  0  0  0  0
    3.2223   43.7631   54.2979 H   0  0  0  0  0  0  0  0  0  0  0  0
    2.4284   45.2637   53.7908 H   0  0  0  0  0  0  0  0  0  0  0  0
    3.9806   43.2604   52.1637 H   0  0  0  0  0  0  0  0  0  0  0  0
    2.6794   44.3380   51.6338 H   0  0  0  0  0  0  0  0  0  0  0  0
    3.5329   47.1479   51.6974 H   0  0  0  0  0  0  0  0  0  0  0  0
    4.6911   46.9713   50.3358 H   0  0  0  0  0  0  0  0  0  0  0  0
    3.1560   46.0386   50.3358 H   0  0  0  0  0  0  0  0  0  0  0  0
    6.8366   46.3012   50.2465 H   0  0  0  0  0  0  0  0  0  0  0  0
    8.4810   45.0128   48.8910 H   0  0  0  0  0  0  0  0  0  0  0  0
    8.2908   42.5346   48.7052 H   0  0  0  0  0  0  0  0  0  0  0  0
    6.4345   41.3363   49.8641 H   0  0  0  0  0  0  0  0  0  0  0  0
    4.7790   42.6081   51.2187 H   0  0  0  0  0  0  0  0  0  0  0  0
  1  2  1  0
  2  3  1  0
  2  4  1  0
  4  5  1  0
  5  6  2  0
  5  7  1  0
  7  8  1  0
  8  9  1  0
  9 10  2  0
  9 11  1  0
 11 12  1  0
 12 13  1  0
 13 14  1  0
 14 15  1  0
 15 16  1  6
 15 17  1  0
 17 18  2  0
 18 19  1  0
 19 20  2  0
 20 21  1  0
 21 22  2  0
  8  2  1  0
 15 11  1  0
 22 17  1  0
  1 23  1  0
  1 24  1  0
  1 25  1  0
  3 26  1  0
  3 27  1  0
  3 28  1  0
  4 29  1  0
  7 30  1  0
  7 31  1  0
  8 32  1  6
 12 33  1  0
 12 34  1  0
 13 35  1  0
 13 36  1  0
 14 37  1  0
 14 38  1  0
 16 39  1  0
 16 40  1  0
 16 41  1  0
 18 42  1  0
 19 43  1  0
 20 44  1  0
 21 45  1  0
 22 46  1  0
M  END
>  <meeko>  (1) 
{"is_sidechain": [false], "free_energy": -8.74, "intermolecular_energy": -10.272, "internal_energy": 0.053}

$$$$
ligand_100_conformer_2_docked
     RDKit          3D

 46 48  0  0  0  0  0  0  0  0999 V2000
    8.0490   48.9700   52.2770 C   0  0  0  0  0  0  0  0  0  0  0  0
    8.0470   47.5500   52.8780 C   0  0  0  0  0  0  0  0  0  0  0  0
    7.8000   47.6510   54.3960 C   0  0  0  0  0  0  0  0  0  0  0  0
    9.3450   46.9410   52.6320 N   0  0  0  0  0  0  0  0  0  0  0  0
    9.2440   46.0200   51.5680 C   0  0  0  0  0  0  0  0  0  0  0  0
   10.2400   45.4180   51.0890 O   0  0  0  0  0  0  0  0  0  0  0  0
    7.8670   45.8810   51.0490 C   0  0  0  0  0  0  0  0  0  0  0  0
    7.0230   46.6390   52.1020 C   0  0  1  0  0  0  0  0  0  0  0  0
    6.2840   45.6480   52.9920 C   0  0  0  0  0  0  0  0  0  0  0  0
    6.9590   44.9170   53.7690 O   0  0  0  0  0  0  0  0  0  0  0  0
    4.8400   45.5530   53.0040 N   0  0  0  0  0  0  0  0  0  0  0  0
    4.0190   45.8670   54.1650 C   0  0  0  0  0  0  0  0  0  0  0  0
    2.5720   45.7900   53.7000 C   0  0  0  0  0  0  0  0  0  0  0  0
    2.5940   45.0450   52.3720 C   0  0  0  0  0  0  0  0  0  0  0  0
    4.0340   45.1840   51.8320 C   0  0  1  0  0  0  0  0  0  0  0  0
    4.0920   46.3540   50.8210 C   0  0  0  0  0  0  0  0  0  0  0  0
    4.5050   43.8410   51.2510 C   0  0  0  0  0  0  0  0  0  0  0  0
    5.5590   43.7380   50.3140 C   0  0  0  0  0  0  0  0  0  0  0  0
    5.9470   42.4930   49.8120 C   0  0  0  0  0  0  0  0  0  0  0  0
    5.2870   41.3330   50.2210 C   0  0  0  0  0  0  0  0  0  0  0  0
    4.2310   41.4150   51.1270 C   0  0  0  0  0  0  0  0  0  0  0  0
    3.8370   42.6570   51.6320 C   0  0  0  0  0  0  0  0  0  0  0  0
    8.0500   49.7119   53.0892 H   0  0  0  0  0  0  0  0  0  0  0  0
    8.9473   49.1043   51.6565 H   0  0  0  0  0  0  0  0  0  0  0  0
    7.1510   49.1068   51.6565 H   0  0  0  0  0  0  0  0  0  0  0  0
    8.6867   47.2884   54.9367 H   0  0  0  0  0  0  0  0  0  0  0  0
    7.6085   48.6997   54.6674 H   0  0  0  0  0  0  0  0  0  0  0  0
    6.9286   47.0370   54.6674 H   0  0  0  0  0  0  0  0  0  0  0  0
   10.2490   47.2700   53.0400 H   0  0  0  0  0  0  0  0  0  0  0  0
    7.7697   46.3439   50.0559 H   0  0  0  0  0  0  0  0  0  0  0  0
    7.5567   44.8342   50.9150 H   0  0  0  0  0  0  0  0  0  0  0  0
    6.2328   47.2641   51.6607 H   0  0  0  0  0  0  0  0  0  0  0  0
    4.2001   45.1372   54.9679 H   0  0  0  0  0  0  0  0  0  0  0  0
    4.2574   46.8637   54.5648 H   0  0  0  0  0  0  0  0  0  0  0  0
    1.9635   45.2425   54.4348 H   0  0  0  0  0  0  0  0  0  0  0  0
    2.1310   46.7919   53.5914 H   0  0  0  0  0  0  0  0  0  0  0  0
    2.3431   43.9848   52.5239 H   0  0  0  0  0  0  0  0  0  0  0  0
    1.8569   45.4558   51.6664 H   0  0  0  0  0  0  0  0  0  0  0  0
    4.1393   47.3080   51.3666 H   0  0  0  0  0  0  0  0  0  0  0  0
    4.9860   46.2484   50.1889 H   0  0  0  0  0  0  0  0  0  0  0  0
    3.1919   46.3373   50.1889 H   0  0  0  0  0  0  0  0  0  0  0  0
    6.0787   44.6470   49.9769 H   0  0  0  0  0  0  0  0  0  0  0  0
    6.7757   42.4268   49.0917 H   0  0  0  0  0  0  0  0  0  0  0  0
    5.6002   40.3544   49.8284 H   0  0  0  0  0  0  0  0  0  0  0  0
    3.7073   40.5013   51.4448 H   0  0  0  0  0  0  0  0  0  0  0  0
    2.9941   42.7130   52.3366 H   0  0  0  0  0  0  0  0  0  0  0  0
  1  2  1  0
  2  3  1  0
  2  4  1  0
  4  5  1  0
  5  6  2  0
  5  7  1  0
  7  8  1  0
  8  9  1  0
  9 10  2  0
  9 11  1  0
 11 12  1  0
 12 13  1  0
 13 14  1  0
 14 15  1  0
 15 16  1  6
 15 17  1  0
 17 18  2  0
 18 19  1  0
 19 20  2  0
 20 21  1  0
 21 22  2  0
  8  2  1  0
 15 11  1  0
 22 17  1  0
  1 23  1  0
  1 24  1  0
  1 25  1  0
  3 26  1  0
  3 27  1  0
  3 28  1  0
  4 29  1  0
  7 30  1  0
  7 31  1  0
  8 32  1  6
 12 33  1  0
 12 34  1  0
 13 35  1  0
 13 36  1  0
 14 37  1  0
 14 38  1  0
 16 39  1  0
 16 40  1  0
 16 41  1  0
 18 42  1  0
 19 43  1  0
 20 44  1  0
 21 45  1  0
 22 46  1  0
M  END
>  <meeko>  (2) 
{"is_sidechain": [false], "free_energy": -8.482, "intermolecular_energy": -9.54, "internal_energy": -0.376}

$$$$
ligand_100_conformer_2_docked
     RDKit          3D

 46 48  0  0  0  0  0  0  0  0999 V2000
    1.1780   44.8320   52.2760 C   0  0  0  0  0  0  0  0  0  0  0  0
    2.3660   44.3110   53.1080 C   0  0  0  0  0  0  0  0  0  0  0  0
    2.6300   42.8400   52.7340 C   0  0  0  0  0  0  0  0  0  0  0  0
    2.0210   44.4050   54.5180 N   0  0  0  0  0  0  0  0  0  0  0  0
    2.6690   45.5190   55.0930 C   0  0  0  0  0  0  0  0  0  0  0  0
    2.4730   45.8840   56.2820 O   0  0  0  0  0  0  0  0  0  0  0  0
    3.5510   46.2320   54.1440 C   0  0  0  0  0  0  0  0  0  0  0  0
    3.6050   45.2690   52.9330 C   0  0  1  0  0  0  0  0  0  0  0  0
    4.9440   44.5430   52.9020 C   0  0  0  0  0  0  0  0  0  0  0  0
    5.4510   44.1680   53.9950 O   0  0  0  0  0  0  0  0  0  0  0  0
    5.6240   44.2360   51.6610 N   0  0  0  0  0  0  0  0  0  0  0  0
    5.6650   42.9050   51.0710 C   0  0  0  0  0  0  0  0  0  0  0  0
    6.3320   43.0600   49.7120 C   0  0  0  0  0  0  0  0  0  0  0  0
    7.0130   44.4230   49.7290 C   0  0  0  0  0  0  0  0  0  0  0  0
    6.2990   45.2400   50.8280 C   0  0  1  0  0  0  0  0  0  0  0  0
    5.2170   46.1350   50.1800 C   0  0  0  0  0  0  0  0  0  0  0  0
    7.3350   46.0210   51.6520 C   0  0  0  0  0  0  0  0  0  0  0  0
    6.9910   47.1180   52.4740 C   0  0  0  0  0  0  0  0  0  0  0  0
    7.9720   47.7990   53.2020 C   0  0  0  0  0  0  0  0  0  0  0  0
    9.3090   47.4100   53.1140 C   0  0  0  0  0  0  0  0  0  0  0  0
    9.6720   46.3450   52.2910 C   0  0  0  0  0  0  0  0  0  0  0  0
    8.6970   45.6610   51.5600 C   0  0  0  0  0  0  0  0  0  0  0  0
    0.3826   45.1808   52.9510 H   0  0  0  0  0  0  0  0  0  0  0  0
    1.5124   45.6660   51.6416 H   0  0  0  0  0  0  0  0  0  0  0  0
    0.7910   44.0210   51.6416 H   0  0  0  0  0  0  0  0  0  0  0  0
    2.7373   42.2421   53.6511 H   0  0  0  0  0  0  0  0  0  0  0  0
    1.7866   42.4551   52.1420 H   0  0  0  0  0  0  0  0  0  0  0  0
    3.5546   42.7725   52.1420 H   0  0  0  0  0  0  0  0  0  0  0  0
    1.2650   43.8590   54.9880 H   0  0  0  0  0  0  0  0  0  0  0  0
    3.1218   47.2037   53.8583 H   0  0  0  0  0  0  0  0  0  0  0  0
    4.5426   46.4621   54.5610 H   0  0  0  0  0  0  0  0  0  0  0  0
    3.5407   45.7830   51.9626 H   0  0  0  0  0  0  0  0  0  0  0  0
    6.2501   42.2244   51.7070 H   0  0  0  0  0  0  0  0  0  0  0  0
    4.6553   42.4795   50.9743 H   0  0  0  0  0  0  0  0  0  0  0  0
    7.0752   42.2637   49.5584 H   0  0  0  0  0  0  0  0  0  0  0  0
    5.6000   42.9865   48.8942 H   0  0  0  0  0  0  0  0  0  0  0  0
    8.0814   44.3138   49.9668 H   0  0  0  0  0  0  0  0  0  0  0  0
    6.9467   44.9195   48.7497 H   0  0  0  0  0  0  0  0  0  0  0  0
    4.6256   46.6242   50.9680 H   0  0  0  0  0  0  0  0  0  0  0  0
    5.7003   46.9008   49.5555 H   0  0  0  0  0  0  0  0  0  0  0  0
    4.5554   45.5166   49.5555 H   0  0  0  0  0  0  0  0  0  0  0  0
    5.9412   47.4394   52.5419 H   0  0  0  0  0  0  0  0  0  0  0  0
    7.6884   48.6443   53.8462 H   0  0  0  0  0  0  0  0  0  0  0  0
   10.0765   47.9436   53.6939 H   0  0  0  0  0  0  0  0  0  0  0  0
   10.7271   46.0427   52.2169 H   0  0  0  0  0  0  0  0  0  0  0  0
    8.9950   44.8302   50.9035 H   0  0  0  0  0  0  0  0  0  0  0  0
  1  2  1  0
  2  3  1  0
  2  4  1  0
  4  5  1  0
  5  6  2  0
  5  7  1  0
  7  8  1  0
  8  9  1  0
  9 10  2  0
  9 11  1  0
 11 12  1  0
 12 13  1  0
 13 14  1  0
 14 15  1  0
 15 16  1  6
 15 17  1  0
 17 18  2  0
 18 19  1  0
 19 20  2  0
 20 21  1  0
 21 22  2  0
  8  2  1  0
 15 11  1  0
 22 17  1  0
  1 23  1  0
  1 24  1  0
  1 25  1  0
  3 26  1  0
  3 27  1  0
  3 28  1  0
  4 29  1  0
  7 30  1  0
  7 31  1  0
  8 32  1  6
 12 33  1  0
 12 34  1  0
 13 35  1  0
 13 36  1  0
 14 37  1  0
 14 38  1  0
 16 39  1  0
 16 40  1  0
 16 41  1  0
 18 42  1  0
 19 43  1  0
 20 44  1  0
 21 45  1  0
 22 46  1  0
M  END
>  <meeko>  (3) 
{"is_sidechain": [false], "free_energy": -8.392, "intermolecular_energy": -9.098, "internal_energy": -0.713}

$$$$
ligand_100_conformer_2_docked
     RDKit          3D

 46 48  0  0  0  0  0  0  0  0999 V2000
    2.0040   45.0520   55.3490 C   0  0  0  0  0  0  0  0  0  0  0  0
    1.5560   44.9020   53.8820 C   0  0  0  0  0  0  0  0  0  0  0  0
    1.7960   46.2350   53.1480 C   0  0  0  0  0  0  0  0  0  0  0  0
    0.1370   44.5800   53.8620 N   0  0  0  0  0  0  0  0  0  0  0  0
   -0.0350   43.2040   53.6000 C   0  0  0  0  0  0  0  0  0  0  0  0
   -1.1610   42.6420   53.6160 O   0  0  0  0  0  0  0  0  0  0  0  0
    1.2390   42.4950   53.3590 C   0  0  0  0  0  0  0  0  0  0  0  0
    2.2590   43.6530   53.2300 C   0  0  1  0  0  0  0  0  0  0  0  0
    2.6400   43.8540   51.7680 C   0  0  0  0  0  0  0  0  0  0  0  0
    1.7570   44.2720   50.9690 O   0  0  0  0  0  0  0  0  0  0  0  0
    3.9840   43.6230   51.2850 N   0  0  0  0  0  0  0  0  0  0  0  0
    4.4080   42.3910   50.6330 C   0  0  0  0  0  0  0  0  0  0  0  0
    5.8300   42.6310   50.1470 C   0  0  0  0  0  0  0  0  0  0  0  0
    6.3250   43.8680   50.8850 C   0  0  0  0  0  0  0  0  0  0  0  0
    5.0590   44.6230   51.3440 C   0  0  1  0  0  0  0  0  0  0  0  0
    4.7310   45.7420   50.3280 C   0  0  0  0  0  0  0  0  0  0  0  0
    5.2480   45.1310   52.7830 C   0  0  0  0  0  0  0  0  0  0  0  0
    5.4830   44.2660   53.8760 C   0  0  0  0  0  0  0  0  0  0  0  0
    5.6440   44.7770   55.1680 C   0  0  0  0  0  0  0  0  0  0  0  0
    5.5610   46.1510   55.3960 C   0  0  0  0  0  0  0  0  0  0  0  0
    5.3060   47.0180   54.3340 C   0  0  0  0  0  0  0  0  0  0  0  0
    5.1430   46.5140   53.0410 C   0  0  0  0  0  0  0  0  0  0  0  0
    1.1745   44.7743   56.0159 H   0  0  0  0  0  0  0  0  0  0  0  0
    2.8638   44.3927   55.5391 H   0  0  0  0  0  0  0  0  0  0  0  0
    2.2935   46.0961   55.5391 H   0  0  0  0  0  0  0  0  0  0  0  0
    1.9407   47.0386   53.8851 H   0  0  0  0  0  0  0  0  0  0  0  0
    2.6933   46.1500   52.5174 H   0  0  0  0  0  0  0  0  0  0  0  0
    0.9254   46.4683   52.5174 H   0  0  0  0  0  0  0  0  0  0  0  0
   -0.6270   45.2170   54.1830 H   0  0  0  0  0  0  0  0  0  0  0  0
    1.4918   41.8369   54.2034 H   0  0  0  0  0  0  0  0  0  0  0  0
    1.2115   41.8394   52.4762 H   0  0  0  0  0  0  0  0  0  0  0  0
    3.2112   43.4556   53.7442 H   0  0  0  0  0  0  0  0  0  0  0  0
    4.3860   41.5551   51.3476 H   0  0  0  0  0  0  0  0  0  0  0  0
    3.7397   42.1301   49.7991 H   0  0  0  0  0  0  0  0  0  0  0  0
    6.4657   41.7651   50.3839 H   0  0  0  0  0  0  0  0  0  0  0  0
    5.8637   42.7730   49.0567 H   0  0  0  0  0  0  0  0  0  0  0  0
    6.9330   43.5770   51.7543 H   0  0  0  0  0  0  0  0  0  0  0  0
    6.9579   44.4959   50.2407 H   0  0  0  0  0  0  0  0  0  0  0  0
    4.4616   46.6611   50.8691 H   0  0  0  0  0  0  0  0  0  0  0  0
    5.6109   45.9330   49.6962 H   0  0  0  0  0  0  0  0  0  0  0  0
    3.8872   45.4278   49.6962 H   0  0  0  0  0  0  0  0  0  0  0  0
    5.5398   43.1803   53.7088 H   0  0  0  0  0  0  0  0  0  0  0  0
    5.8368   44.0930   56.0076 H   0  0  0  0  0  0  0  0  0  0  0  0
    5.6965   46.5498   56.4122 H   0  0  0  0  0  0  0  0  0  0  0  0
    5.2330   48.1006   54.5145 H   0  0  0  0  0  0  0  0  0  0  0  0
    4.9298   47.2054   52.2125 H   0  0  0  0  0  0  0  0  0  0  0  0
  1  2  1  0
  2  3  1  0
  2  4  1  0
  4  5  1  0
  5  6  2  0
  5  7  1  0
  7  8  1  0
  8  9  1  0
  9 10  2  0
  9 11  1  0
 11 12  1  0
 12 13  1  0
 13 14  1  0
 14 15  1  0
 15 16  1  6
 15 17  1  0
 17 18  2  0
 18 19  1  0
 19 20  2  0
 20 21  1  0
 21 22  2  0
  8  2  1  0
 15 11  1  0
 22 17  1  0
  1 23  1  0
  1 24  1  0
  1 25  1  0
  3 26  1  0
  3 27  1  0
  3 28  1  0
  4 29  1  0
  7 30  1  0
  7 31  1  0
  8 32  1  1
 12 33  1  0
 12 34  1  0
 13 35  1  0
 13 36  1  0
 14 37  1  0
 14 38  1  0
 16 39  1  0
 16 40  1  0
 16 41  1  0
 18 42  1  0
 19 43  1  0
 20 44  1  0
 21 45  1  0
 22 46  1  0
M  END
>  <meeko>  (4) 
{"is_sidechain": [false], "free_energy": -8.261, "intermolecular_energy": -8.442, "internal_energy": -1.215}

$$$$
ligand_100_conformer_2_docked
     RDKit          3D

 46 48  0  0  0  0  0  0  0  0999 V2000
    1.7720   45.4550   54.9990 C   0  0  0  0  0  0  0  0  0  0  0  0
    2.7520   45.5560   53.8140 C   0  0  0  0  0  0  0  0  0  0  0  0
    3.6230   46.8140   53.9930 C   0  0  0  0  0  0  0  0  0  0  0  0
    1.9830   45.6630   52.5840 N   0  0  0  0  0  0  0  0  0  0  0  0
    1.9820   44.4210   51.9140 C   0  0  0  0  0  0  0  0  0  0  0  0
    1.3150   44.2100   50.8670 O   0  0  0  0  0  0  0  0  0  0  0  0
    2.7970   43.3930   52.5950 C   0  0  0  0  0  0  0  0  0  0  0  0
    3.5580   44.2110   53.6670 C   0  0  1  0  0  0  0  0  0  0  0  0
    5.0090   44.4050   53.2440 C   0  0  0  0  0  0  0  0  0  0  0  0
    5.8480   44.7590   54.1190 O   0  0  0  0  0  0  0  0  0  0  0  0
    5.4560   44.1550   51.8910 N   0  0  0  0  0  0  0  0  0  0  0  0
    5.4710   42.8350   51.2760 C   0  0  0  0  0  0  0  0  0  0  0  0
    5.8520   43.0460   49.8180 C   0  0  0  0  0  0  0  0  0  0  0  0
    6.4320   44.4530   49.7320 C   0  0  0  0  0  0  0  0  0  0  0  0
    5.8900   45.2090   50.9640 C   0  0  1  0  0  0  0  0  0  0  0  0
    4.6460   46.0330   50.5550 C   0  0  0  0  0  0  0  0  0  0  0  0
    7.0110   46.0540   51.5910 C   0  0  0  0  0  0  0  0  0  0  0  0
    6.7650   47.2640   52.2810 C   0  0  0  0  0  0  0  0  0  0  0  0
    7.8200   47.9980   52.8300 C   0  0  0  0  0  0  0  0  0  0  0  0
    9.1350   47.5520   52.6920 C   0  0  0  0  0  0  0  0  0  0  0  0
    9.4000   46.3730   51.9950 C   0  0  0  0  0  0  0  0  0  0  0  0
    8.3500   45.6340   51.4430 C   0  0  0  0  0  0  0  0  0  0  0  0
    2.3321   45.5127   55.9440 H   0  0  0  0  0  0  0  0  0  0  0  0
    1.0501   46.2835   54.9494 H   0  0  0  0  0  0  0  0  0  0  0  0
    1.2343   44.4967   54.9494 H   0  0  0  0  0  0  0  0  0  0  0  0
    3.7617   47.0143   55.0657 H   0  0  0  0  0  0  0  0  0  0  0  0
    4.6030   46.6517   53.5206 H   0  0  0  0  0  0  0  0  0  0  0  0
    3.1262   47.6742   53.5206 H   0  0  0  0  0  0  0  0  0  0  0  0
    1.3660   46.4670   52.3300 H   0  0  0  0  0  0  0  0  0  0  0  0
    2.1597   42.6266   53.0603 H   0  0  0  0  0  0  0  0  0  0  0  0
    3.4630   42.8439   51.9131 H   0  0  0  0  0  0  0  0  0  0  0  0
    3.6148   43.7066   54.6429 H   0  0  0  0  0  0  0  0  0  0  0  0
    6.2115   42.1916   51.7737 H   0  0  0  0  0  0  0  0  0  0  0  0
    4.4919   42.3417   51.3655 H   0  0  0  0  0  0  0  0  0  0  0  0
    6.6027   42.3040   49.5084 H   0  0  0  0  0  0  0  0  0  0  0  0
    4.9826   42.9285   49.1544 H   0  0  0  0  0  0  0  0  0  0  0  0
    7.5311   44.4162   49.7584 H   0  0  0  0  0  0  0  0  0  0  0  0
    6.1463   44.9514   48.7939 H   0  0  0  0  0  0  0  0  0  0  0  0
    4.1226   46.3797   51.4583 H   0  0  0  0  0  0  0  0  0  0  0  0
    4.9614   46.9014   49.9580 H   0  0  0  0  0  0  0  0  0  0  0  0
    3.9695   45.4038   49.9580 H   0  0  0  0  0  0  0  0  0  0  0  0
    5.7333   47.6308   52.3865 H   0  0  0  0  0  0  0  0  0  0  0  0
    7.6128   48.9317   53.3734 H   0  0  0  0  0  0  0  0  0  0  0  0
    9.9615   48.1292   53.1322 H   0  0  0  0  0  0  0  0  0  0  0  0
   10.4369   46.0244   51.8797 H   0  0  0  0  0  0  0  0  0  0  0  0
    8.5705   44.7119   50.8853 H   0  0  0  0  0  0  0  0  0  0  0  0
  1  2  1  0
  2  3  1  0
  2  4  1  0
  4  5  1  0
  5  6  2  0
  5  7  1  0
  7  8  1  0
  8  9  1  0
  9 10  2  0
  9 11  1  0
 11 12  1  0
 12 13  1  0
 13 14  1  0
 14 15  1  0
 15 16  1  6
 15 17  1  0
 17 18  2  0
 18 19  1  0
 19 20  2  0
 20 21  1  0
 21 22  2  0
  8  2  1  0
 15 11  1  0
 22 17  1  0
  1 23  1  0
  1 24  1  0
  1 25  1  0
  3 26  1  0
  3 27  1  0
  3 28  1  0
  4 29  1  0
  7 30  1  0
  7 31  1  0
  8 32  1  1
 12 33  1  0
 12 34  1  0
 13 35  1  0
 13 36  1  0
 14 37  1  0
 14 38  1  0
 16 39  1  0
 16 40  1  0
 16 41  1  0
 18 42  1  0
 19 43  1  0
 20 44  1  0
 21 45  1  0
 22 46  1  0
M  END
>  <meeko>  (5) 
{"is_sidechain": [false], "free_energy": -8.139, "intermolecular_energy": -9.341, "internal_energy": -0.172}

$$$$
