ligand_100_conformer_1_docked
     RDKit          3D

 46 48  0  0  0  0  0  0  0  0999 V2000
    4.3370   46.4430   55.0950 C   0  0  0  0  0  0  0  0  0  0  0  0
    4.7900   45.0760   54.5570 C   0  0  0  0  0  0  0  0  0  0  0  0
    5.4310   44.2820   55.7140 C   0  0  0  0  0  0  0  0  0  0  0  0
    3.6310   44.3340   54.0850 N   0  0  0  0  0  0  0  0  0  0  0  0
    3.8910   43.7730   52.8160 C   0  0  0  0  0  0  0  0  0  0  0  0
    3.0800   43.0070   52.2340 O   0  0  0  0  0  0  0  0  0  0  0  0
    5.1950   44.1710   52.2500 C   0  0  0  0  0  0  0  0  0  0  0  0
    5.7720   45.1220   53.3190 C   0  0  1  0  0  0  0  0  0  0  0  0
    6.1790   46.4820   52.7500 C   0  0  0  0  0  0  0  0  0  0  0  0
    5.3640   47.0400   51.9650 O   0  0  0  0  0  0  0  0  0  0  0  0
    7.4360   47.1520   53.0200 N   0  0  0  0  0  0  0  0  0  0  0  0
    7.9190   47.1870   54.4000 C   0  0  0  0  0  0  0  0  0  0  0  0
    9.4270   47.0310   54.3400 C   0  0  0  0  0  0  0  0  0  0  0  0
    9.8250   47.4220   52.9260 C   0  0  0  0  0  0  0  0  0  0  0  0
    8.5470   47.2980   52.0570 C   0  0  2  0  0  0  0  0  0  0  0  0
    8.3800   48.6200   51.2740 C   0  0  0  0  0  0  0  0  0  0  0  0
    8.6740   46.0550   51.1540 C   0  0  0  0  0  0  0  0  0  0  0  0
    9.8740   45.3120   51.1600 C   0  0  0  0  0  0  0  0  0  0  0  0
   10.0350   44.1960   50.3340 C   0  0  0  0  0  0  0  0  0  0  0  0
    9.0100   43.8110   49.4710 C   0  0  0  0  0  0  0  0  0  0  0  0
    7.8250   44.5450   49.4260 C   0  0  0  0  0  0  0  0  0  0  0  0
    7.6580   45.6630   50.2490 C   0  0  0  0  0  0  0  0  0  0  0  0
    4.3431   46.4245   56.1948 H   0  0  0  0  0  0  0  0  0  0  0  0
    5.0244   47.2238   54.7376 H   0  0  0  0  0  0  0  0  0  0  0  0
    3.3193   46.6588   54.7376 H   0  0  0  0  0  0  0  0  0  0  0  0
    5.0948   44.6985   56.6750 H   0  0  0  0  0  0  0  0  0  0  0  0
    5.1288   43.2265   55.6460 H   0  0  0  0  0  0  0  0  0  0  0  0
    6.5265   44.3549   55.6460 H   0  0  0  0  0  0  0  0  0  0  0  0
    2.7850   44.1190   54.6580 H   0  0  0  0  0  0  0  0  0  0  0  0
    5.8464   43.2960   52.1084 H   0  0  0  0  0  0  0  0  0  0  0  0
    5.1083   44.6402   51.2589 H   0  0  0  0  0  0  0  0  0  0  0  0
    6.7515   44.7946   53.6976 H   0  0  0  0  0  0  0  0  0  0  0  0
    7.6558   48.1464   54.8692 H   0  0  0  0  0  0  0  0  0  0  0  0
    7.4625   46.3851   54.9987 H   0  0  0  0  0  0  0  0  0  0  0  0
    9.9107   47.6946   55.0719 H   0  0  0  0  0  0  0  0  0  0  0  0
    9.7388   46.0038   54.5802 H   0  0  0  0  0  0  0  0  0  0  0  0
   10.1970   48.4570   52.9087 H   0  0  0  0  0  0  0  0  0  0  0  0
   10.6282   46.7736   52.5459 H   0  0  0  0  0  0  0  0  0  0  0  0
    8.2745   49.4549   51.9824 H   0  0  0  0  0  0  0  0  0  0  0  0
    9.2644   48.7856   50.6412 H   0  0  0  0  0  0  0  0  0  0  0  0
    7.4822   48.5604   50.6412 H   0  0  0  0  0  0  0  0  0  0  0  0
   10.6956   45.6160   51.8253 H   0  0  0  0  0  0  0  0  0  0  0  0
   10.9720   43.6206   50.3649 H   0  0  0  0  0  0  0  0  0  0  0  0
    9.1358   42.9289   48.8260 H   0  0  0  0  0  0  0  0  0  0  0  0
    7.0191   44.2434   48.7408 H   0  0  0  0  0  0  0  0  0  0  0  0
    6.7262   46.2449   50.1927 H   0  0  0  0  0  0  0  0  0  0  0  0
  1  2  1  0
  2  3  1  0
  2  4  1  0
  4  5  1  0
  5  6  2  0
  5  7  1  0
  7  8  1  0
  8  9  1  0
  9 10  2  0
  9 11  1  0
 11 12  1  0
 12 13  1  0
 13 14  1  0
 14 15  1  0
 15 16  1  6
 15 17  1  0
 17 18  2  0
 18 19  1  0
 19 20  2  0
 20 21  1  0
 21 22  2  0
  8  2  1  0
 15 11  1  0
 22 17  1  0
  1 23  1  0
  1 24  1  0
  1 25  1  0
  3 26  1  0
  3 27  1  0
  3 28  1  0
  4 29  1  0
  7 30  1  0
  7 31  1  0
  8 32  1  1
 12 33  1  0
 12 34  1  0
 13 35  1  0
 13 36  1  0
 14 37  1  0
 14 38  1  0
 16 39  1  0
 16 40  1  0
 16 41  1  0
 18 42  1  0
 19 43  1  0
 20 44  1  0
 21 45  1  0
 22 46  1  0
M  END
>  <meeko>  (1) 
{"is_sidechain": [false], "free_energy": -8.028, "intermolecular_energy": -9.436, "internal_energy": -0.699}

$$$$
ligand_100_conformer_1_docked
     RDKit          3D

 46 48  0  0  0  0  0  0  0  0999 V2000
    8.7720   47.8560   51.0830 C   0  0  0  0  0  0  0  0  0  0  0  0
    9.0320   47.0180   52.3460 C   0  0  0  0  0  0  0  0  0  0  0  0
   10.0320   45.8980   51.9920 C   0  0  0  0  0  0  0  0  0  0  0  0
    9.6360   47.8590   53.3680 N   0  0  0  0  0  0  0  0  0  0  0  0
    8.9950   47.6600   54.6090 C   0  0  0  0  0  0  0  0  0  0  0  0
    9.3920   48.2010   55.6730 O   0  0  0  0  0  0  0  0  0  0  0  0
    7.8250   46.7620   54.5320 C   0  0  0  0  0  0  0  0  0  0  0  0
    7.7480   46.4060   53.0330 C   0  0  1  0  0  0  0  0  0  0  0  0
    6.3760   46.6920   52.4220 C   0  0  0  0  0  0  0  0  0  0  0  0
    5.8070   47.7630   52.7720 O   0  0  0  0  0  0  0  0  0  0  0  0
    5.6750   45.8140   51.5050 N   0  0  0  0  0  0  0  0  0  0  0  0
    6.4410   44.7700   50.8270 C   0  0  0  0  0  0  0  0  0  0  0  0
    5.5420   43.5510   50.7450 C   0  0  0  0  0  0  0  0  0  0  0  0
    4.1240   44.0720   50.9130 C   0  0  0  0  0  0  0  0  0  0  0  0
    4.2420   45.4620   51.5910 C   0  0  2  0  0  0  0  0  0  0  0  0
    3.4150   46.4650   50.7560 C   0  0  0  0  0  0  0  0  0  0  0  0
    3.7790   45.3450   53.0570 C   0  0  0  0  0  0  0  0  0  0  0  0
    2.4750   45.7560   53.4080 C   0  0  0  0  0  0  0  0  0  0  0  0
    2.0310   45.6910   54.7310 C   0  0  0  0  0  0  0  0  0  0  0  0
    2.8850   45.2330   55.7340 C   0  0  0  0  0  0  0  0  0  0  0  0
    4.1870   44.8480   55.4170 C   0  0  0  0  0  0  0  0  0  0  0  0
    4.6380   44.9120   54.0960 C   0  0  0  0  0  0  0  0  0  0  0  0
    8.4576   48.8693   51.3736 H   0  0  0  0  0  0  0  0  0  0  0  0
    9.6940   47.9152   50.4860 H   0  0  0  0  0  0  0  0  0  0  0  0
    7.9784   47.3829   50.4860 H   0  0  0  0  0  0  0  0  0  0  0  0
   10.4282   45.4543   52.9173 H   0  0  0  0  0  0  0  0  0  0  0  0
    9.5205   45.1224   51.4032 H   0  0  0  0  0  0  0  0  0  0  0  0
   10.8604   46.3187   51.4032 H   0  0  0  0  0  0  0  0  0  0  0  0
   10.5100   48.4170   53.2430 H   0  0  0  0  0  0  0  0  0  0  0  0
    7.9792   45.8607   55.1435 H   0  0  0  0  0  0  0  0  0  0  0  0
    6.9021   47.2243   54.9123 H   0  0  0  0  0  0  0  0  0  0  0  0
    7.7946   45.3226   52.8485 H   0  0  0  0  0  0  0  0  0  0  0  0
    6.7221   45.1020   49.8167 H   0  0  0  0  0  0  0  0  0  0  0  0
    7.3675   44.5414   51.3742 H   0  0  0  0  0  0  0  0  0  0  0  0
    5.6554   43.0560   49.7692 H   0  0  0  0  0  0  0  0  0  0  0  0
    5.7950   42.8081   51.5157 H   0  0  0  0  0  0  0  0  0  0  0  0
    3.6359   44.1681   49.9319 H   0  0  0  0  0  0  0  0  0  0  0  0
    3.5171   43.3840   51.5199 H   0  0  0  0  0  0  0  0  0  0  0  0
    2.8622   47.1355   51.4304 H   0  0  0  0  0  0  0  0  0  0  0  0
    4.0900   47.0582   50.1215 H   0  0  0  0  0  0  0  0  0  0  0  0
    2.7041   45.9154   50.1215 H   0  0  0  0  0  0  0  0  0  0  0  0
    1.7978   46.1334   52.6276 H   0  0  0  0  0  0  0  0  0  0  0  0
    1.0061   46.0016   54.9821 H   0  0  0  0  0  0  0  0  0  0  0  0
    2.5317   45.1756   56.7741 H   0  0  0  0  0  0  0  0  0  0  0  0
    4.8617   44.4926   56.2097 H   0  0  0  0  0  0  0  0  0  0  0  0
    5.6728   44.6225   53.8604 H   0  0  0  0  0  0  0  0  0  0  0  0
  1  2  1  0
  2  3  1  0
  2  4  1  0
  4  5  1  0
  5  6  2  0
  5  7  1  0
  7  8  1  0
  8  9  1  0
  9 10  2  0
  9 11  1  0
 11 12  1  0
 12 13  1  0
 13 14  1  0
 14 15  1  0
 15 16  1  6
 15 17  1  0
 17 18  2  0
 18 19  1  0
 19 20  2  0
 20 21  1  0
 21 22  2  0
  8  2  1  0
 15 11  1  0
 22 17  1  0
  1 23  1  0
  1 24  1  0
  1 25  1  0
  3 26  1  0
  3 27  1  0
  3 28  1  0
  4 29  1  0
  7 30  1  0
  7 31  1  0
  8 32  1  1
 12 33  1  0
 12 34  1  0
 13 35  1  0
 13 36  1  0
 14 37  1  0
 14 38  1  0
 16 39  1  0
 16 40  1  0
 16 41  1  0
 18 42  1  0
 19 43  1  0
 20 44  1  0
 21 45  1  0
 22 46  1  0
M  END
>  <meeko>  (2) 
{"is_sidechain": [false], "free_energy": -7.89, "intermolecular_energy": -9.392, "internal_energy": -0.58}

$$$$
ligand_100_conformer_1_docked
     RDKit          3D

 46 48  0  0  0  0  0  0  0  0999 V2000
    7.6780   47.5200   54.4360 C   0  0  0  0  0  0  0  0  0  0  0  0
    8.0890   47.4780   52.9550 C   0  0  0  0  0  0  0  0  0  0  0  0
    7.9550   48.8990   52.3710 C   0  0  0  0  0  0  0  0  0  0  0  0
    9.4840   47.0750   52.8520 N   0  0  0  0  0  0  0  0  0  0  0  0
    9.6350   46.0800   51.8640 C   0  0  0  0  0  0  0  0  0  0  0  0
   10.7590   45.6320   51.5180 O   0  0  0  0  0  0  0  0  0  0  0  0
    8.3550   45.6240   51.2830 C   0  0  0  0  0  0  0  0  0  0  0  0
    7.3030   46.4430   52.0580 C   0  0  1  0  0  0  0  0  0  0  0  0
    6.2280   45.5690   52.7070 C   0  0  0  0  0  0  0  0  0  0  0  0
    6.6210   44.7000   53.5340 O   0  0  0  0  0  0  0  0  0  0  0  0
    4.8100   45.6460   52.4200 N   0  0  0  0  0  0  0  0  0  0  0  0
    4.2660   46.9210   51.9530 C   0  0  0  0  0  0  0  0  0  0  0  0
    3.2080   46.5920   50.9170 C   0  0  0  0  0  0  0  0  0  0  0  0
    2.8080   45.1500   51.1780 C   0  0  0  0  0  0  0  0  0  0  0  0
    3.9650   44.5110   51.9900 C   0  0  2  0  0  0  0  0  0  0  0  0
    3.3490   43.8290   53.2310 C   0  0  0  0  0  0  0  0  0  0  0  0
    4.7460   43.5460   51.0750 C   0  0  0  0  0  0  0  0  0  0  0  0
    4.5300   42.1560   51.1880 C   0  0  0  0  0  0  0  0  0  0  0  0
    5.2400   41.2500   50.3950 C   0  0  0  0  0  0  0  0  0  0  0  0
    6.1920   41.7110   49.4870 C   0  0  0  0  0  0  0  0  0  0  0  0
    6.4430   43.0780   49.3760 C   0  0  0  0  0  0  0  0  0  0  0  0
    5.7380   43.9900   50.1680 C   0  0  0  0  0  0  0  0  0  0  0  0
    8.5738   47.4285   55.0678 H   0  0  0  0  0  0  0  0  0  0  0  0
    7.1744   48.4743   54.6499 H   0  0  0  0  0  0  0  0  0  0  0  0
    6.9918   46.6873   54.6499 H   0  0  0  0  0  0  0  0  0  0  0  0
    7.8863   49.6279   53.1920 H   0  0  0  0  0  0  0  0  0  0  0  0
    8.8358   49.1257   51.7522 H   0  0  0  0  0  0  0  0  0  0  0  0
    7.0474   48.9570   51.7522 H   0  0  0  0  0  0  0  0  0  0  0  0
   10.2800   47.5530   53.3300 H   0  0  0  0  0  0  0  0  0  0  0  0
    8.3105   45.8436   50.2061 H   0  0  0  0  0  0  0  0  0  0  0  0
    8.2050   44.5378   51.3701 H   0  0  0  0  0  0  0  0  0  0  0  0
    6.6603   47.0448   51.3986 H   0  0  0  0  0  0  0  0  0  0  0  0
    3.8160   47.4711   52.7926 H   0  0  0  0  0  0  0  0  0  0  0  0
    5.0563   47.5540   51.5232 H   0  0  0  0  0  0  0  0  0  0  0  0
    2.3395   47.2573   51.0317 H   0  0  0  0  0  0  0  0  0  0  0  0
    3.5872   46.7282   49.8935 H   0  0  0  0  0  0  0  0  0  0  0  0
    1.8730   45.1139   51.7563 H   0  0  0  0  0  0  0  0  0  0  0  0
    2.6371   44.6083   50.2360 H   0  0  0  0  0  0  0  0  0  0  0  0
    3.7614   44.2856   54.1429 H   0  0  0  0  0  0  0  0  0  0  0  0
    2.2569   43.9598   53.2171 H   0  0  0  0  0  0  0  0  0  0  0  0
    3.5899   42.7558   53.2171 H   0  0  0  0  0  0  0  0  0  0  0  0
    3.7915   41.7797   51.9113 H   0  0  0  0  0  0  0  0  0  0  0  0
    5.0471   40.1710   50.4876 H   0  0  0  0  0  0  0  0  0  0  0  0
    6.7446   40.9970   48.8587 H   0  0  0  0  0  0  0  0  0  0  0  0
    7.1982   43.4405   48.6630 H   0  0  0  0  0  0  0  0  0  0  0  0
    5.9569   45.0648   50.0851 H   0  0  0  0  0  0  0  0  0  0  0  0
  1  2  1  0
  2  3  1  0
  2  4  1  0
  4  5  1  0
  5  6  2  0
  5  7  1  0
  7  8  1  0
  8  9  1  0
  9 10  2  0
  9 11  1  0
 11 12  1  0
 12 13  1  0
 13 14  1  0
 14 15  1  0
 15 16  1  1
 15 17  1  0
 17 18  2  0
 18 19  1  0
 19 20  2  0
 20 21  1  0
 21 22  2  0
  8  2  1  0
 15 11  1  0
 22 17  1  0
  1 23  1  0
  1 24  1  0
  1 25  1  0
  3 26  1  0
  3 27  1  0
  3 28  1  0
  4 29  1  0
  7 30  1  0
  7 31  1  0
  8 32  1  6
 12 33  1  0
 12 34  1  0
 13 35  1  0
 13 36  1  0
 14 37  1  0
 14 38  1  0
 16 39  1  0
 16 40  1  0
 16 41  1  0
 18 42  1  0
 19 43  1  0
 20 44  1  0
 21 45  1  0
 22 46  1  0
M  END
>  <meeko>  (3) 
{"is_sidechain": [false], "free_energy": -7.846, "intermolecular_energy": -9.583, "internal_energy": -0.338}

$$$$
ligand_100_conformer_1_docked
     RDKit          3D

 46 48  0  0  0  0  0  0  0  0999 V2000
    4.9220   44.1190   51.7770 C   0  0  0  0  0  0  0  0  0  0  0  0
    4.2320   45.4430   52.1450 C   0  0  0  0  0  0  0  0  0  0  0  0
    3.8320   46.1640   50.8410 C   0  0  0  0  0  0  0  0  0  0  0  0
    3.0190   45.1630   52.8980 N   0  0  0  0  0  0  0  0  0  0  0  0
    2.9460   45.9930   54.0370 C   0  0  0  0  0  0  0  0  0  0  0  0
    1.9470   46.0090   54.8020 O   0  0  0  0  0  0  0  0  0  0  0  0
    4.1470   46.8300   54.2360 C   0  0  0  0  0  0  0  0  0  0  0  0
    5.0670   46.4140   53.0700 C   0  0  1  0  0  0  0  0  0  0  0  0
    6.4570   45.9760   53.5340 C   0  0  0  0  0  0  0  0  0  0  0  0
    6.5850   44.7760   53.9030 O   0  0  0  0  0  0  0  0  0  0  0  0
    7.6170   46.8420   53.6120 N   0  0  0  0  0  0  0  0  0  0  0  0
    8.3730   46.8750   54.8630 C   0  0  0  0  0  0  0  0  0  0  0  0
    9.8380   46.9950   54.4870 C   0  0  0  0  0  0  0  0  0  0  0  0
    9.8550   47.5400   53.0680 C   0  0  0  0  0  0  0  0  0  0  0  0
    8.4580   47.2450   52.4650 C   0  0  2  0  0  0  0  0  0  0  0  0
    7.9150   48.5630   51.8670 C   0  0  0  0  0  0  0  0  0  0  0  0
    8.5870   46.1050   51.4350 C   0  0  0  0  0  0  0  0  0  0  0  0
    9.8060   45.4020   51.3270 C   0  0  0  0  0  0  0  0  0  0  0  0
    9.9680   44.3810   50.3860 C   0  0  0  0  0  0  0  0  0  0  0  0
    8.9240   44.0540   49.5220 C   0  0  0  0  0  0  0  0  0  0  0  0
    7.7190   44.7520   49.5900 C   0  0  0  0  0  0  0  0  0  0  0  0
    7.5500   45.7750   50.5280 C   0  0  0  0  0  0  0  0  0  0  0  0
    5.2012   43.5832   52.6962 H   0  0  0  0  0  0  0  0  0  0  0  0
    4.2327   43.4983   51.1858 H   0  0  0  0  0  0  0  0  0  0  0  0
    5.8257   44.3284   51.1858 H   0  0  0  0  0  0  0  0  0  0  0  0
    3.3117   47.1019   51.0853 H   0  0  0  0  0  0  0  0  0  0  0  0
    4.7349   46.3878   50.2540 H   0  0  0  0  0  0  0  0  0  0  0  0
    3.1642   45.5164   50.2540 H   0  0  0  0  0  0  0  0  0  0  0  0
    2.2420   44.5460   52.5720 H   0  0  0  0  0  0  0  0  0  0  0  0
    3.8960   47.8994   54.1776 H   0  0  0  0  0  0  0  0  0  0  0  0
    4.6119   46.6879   55.2228 H   0  0  0  0  0  0  0  0  0  0  0  0
    5.3576   47.2625   52.4332 H   0  0  0  0  0  0  0  0  0  0  0  0
    8.0654   47.7402   55.4686 H   0  0  0  0  0  0  0  0  0  0  0  0
    8.1913   45.9678   55.4580 H   0  0  0  0  0  0  0  0  0  0  0  0
   10.3538   47.6864   55.1696 H   0  0  0  0  0  0  0  0  0  0  0  0
   10.3556   46.0269   54.5564 H   0  0  0  0  0  0  0  0  0  0  0  0
   10.0424   48.6239   53.0797 H   0  0  0  0  0  0  0  0  0  0  0  0
   10.6519   47.0713   52.4720 H   0  0  0  0  0  0  0  0  0  0  0  0
    7.6334   49.2466   52.6815 H   0  0  0  0  0  0  0  0  0  0  0  0
    8.6930   49.0323   51.2470 H   0  0  0  0  0  0  0  0  0  0  0  0
    7.0322   48.3480   51.2470 H   0  0  0  0  0  0  0  0  0  0  0  0
   10.6416   45.6615   51.9936 H   0  0  0  0  0  0  0  0  0  0  0  0
   10.9209   43.8347   50.3272 H   0  0  0  0  0  0  0  0  0  0  0  0
    9.0509   43.2456   48.7869 H   0  0  0  0  0  0  0  0  0  0  0  0
    6.8984   44.4970   48.9033 H   0  0  0  0  0  0  0  0  0  0  0  0
    6.6009   46.3300   50.5621 H   0  0  0  0  0  0  0  0  0  0  0  0
  1  2  1  0
  2  3  1  0
  2  4  1  0
  4  5  1  0
  5  6  2  0
  5  7  1  0
  7  8  1  0
  8  9  1  0
  9 10  2  0
  9 11  1  0
 11 12  1  0
 12 13  1  0
 13 14  1  0
 14 15  1  0
 15 16  1  6
 15 17  1  0
 17 18  2  0
 18 19  1  0
 19 20  2  0
 20 21  1  0
 21 22  2  0
  8  2  1  0
 15 11  1  0
 22 17  1  0
  1 23  1  0
  1 24  1  0
  1 25  1  0
  3 26  1  0
  3 27  1  0
  3 28  1  0
  4 29  1  0
  7 30  1  0
  7 31  1  0
  8 32  1  6
 12 33  1  0
 12 34  1  0
 13 35  1  0
 13 36  1  0
 14 37  1  0
 14 38  1  0
 16 39  1  0
 16 40  1  0
 16 41  1  0
 18 42  1  0
 19 43  1  0
 20 44  1  0
 21 45  1  0
 22 46  1  0
M  END
>  <meeko>  (4) 
{"is_sidechain": [false], "free_energy": -7.771, "intermolecular_energy": -9.462, "internal_energy": -0.37}

$$$$
ligand_100_conformer_1_docked
     RDKit          3D

 46 48  0  0  0  0  0  0  0  0999 V2000
    3.0310   42.9630   50.8150 C   0  0  0  0  0  0  0  0  0  0  0  0
    4.5430   42.7030   50.9080 C   0  0  0  0  0  0  0  0  0  0  0  0
    4.7760   41.5190   51.8700 C   0  0  0  0  0  0  0  0  0  0  0  0
    5.0510   42.3290   49.5970 N   0  0  0  0  0  0  0  0  0  0  0  0
    6.2290   43.0470   49.3040 C   0  0  0  0  0  0  0  0  0  0  0  0
    6.9140   42.8360   48.2690 O   0  0  0  0  0  0  0  0  0  0  0  0
    6.5740   44.0590   50.3230 C   0  0  0  0  0  0  0  0  0  0  0  0
    5.4230   43.9410   51.3440 C   0  0  1  0  0  0  0  0  0  0  0  0
    4.7320   45.2770   51.6200 C   0  0  0  0  0  0  0  0  0  0  0  0
    4.4680   46.0010   50.6210 O   0  0  0  0  0  0  0  0  0  0  0  0
    4.3930   45.7800   52.9370 N   0  0  0  0  0  0  0  0  0  0  0  0
    3.8450   44.8420   53.9150 C   0  0  0  0  0  0  0  0  0  0  0  0
    4.4220   45.2290   55.2640 C   0  0  0  0  0  0  0  0  0  0  0  0
    4.8750   46.6720   55.1190 C   0  0  0  0  0  0  0  0  0  0  0  0
    5.0350   46.9340   53.5990 C   0  0  2  0  0  0  0  0  0  0  0  0
    4.2540   48.2240   53.2580 C   0  0  0  0  0  0  0  0  0  0  0  0
    6.5370   47.0120   53.2600 C   0  0  0  0  0  0  0  0  0  0  0  0
    6.9870   47.9540   52.3100 C   0  0  0  0  0  0  0  0  0  0  0  0
    8.3370   48.0340   51.9560 C   0  0  0  0  0  0  0  0  0  0  0  0
    9.2620   47.1620   52.5300 C   0  0  0  0  0  0  0  0  0  0  0  0
    8.8390   46.2040   53.4500 C   0  0  0  0  0  0  0  0  0  0  0  0
    7.4900   46.1180   53.8070 C   0  0  0  0  0  0  0  0  0  0  0  0
    2.6085   43.0357   51.8280 H   0  0  0  0  0  0  0  0  0  0  0  0
    2.8534   43.9049   50.2752 H   0  0  0  0  0  0  0  0  0  0  0  0
    2.5490   42.1346   50.2752 H   0  0  0  0  0  0  0  0  0  0  0  0
    4.7065   41.8720   52.9095 H   0  0  0  0  0  0  0  0  0  0  0  0
    4.0125   40.7471   51.6931 H   0  0  0  0  0  0  0  0  0  0  0  0
    5.7750   41.0939   51.6931 H   0  0  0  0  0  0  0  0  0  0  0  0
    4.6870   41.5390   49.0180 H   0  0  0  0  0  0  0  0  0  0  0  0
    7.5423   43.8312   50.7926 H   0  0  0  0  0  0  0  0  0  0  0  0
    6.6777   45.0717   49.9062 H   0  0  0  0  0  0  0  0  0  0  0  0
    5.7762   43.7170   52.3614 H   0  0  0  0  0  0  0  0  0  0  0  0
    2.7477   44.9159   53.9371 H   0  0  0  0  0  0  0  0  0  0  0  0
    4.1058   43.8050   53.6568 H   0  0  0  0  0  0  0  0  0  0  0  0
    3.6547   45.1448   56.0477 H   0  0  0  0  0  0  0  0  0  0  0  0
    5.2534   44.5698   55.5541 H   0  0  0  0  0  0  0  0  0  0  0  0
    4.1214   47.3512   55.5442 H   0  0  0  0  0  0  0  0  0  0  0  0
    5.8200   46.8474   55.6540 H   0  0  0  0  0  0  0  0  0  0  0  0
    3.9503   48.7256   54.1887 H   0  0  0  0  0  0  0  0  0  0  0  0
    4.8963   48.8973   52.6714 H   0  0  0  0  0  0  0  0  0  0  0  0
    3.3597   47.9669   52.6714 H   0  0  0  0  0  0  0  0  0  0  0  0
    6.2634   48.6365   51.8404 H   0  0  0  0  0  0  0  0  0  0  0  0
    8.6699   48.7850   51.2244 H   0  0  0  0  0  0  0  0  0  0  0  0
   10.3253   47.2303   52.2567 H   0  0  0  0  0  0  0  0  0  0  0  0
    9.5692   45.5132   53.8967 H   0  0  0  0  0  0  0  0  0  0  0  0
    7.1648   45.3470   54.5211 H   0  0  0  0  0  0  0  0  0  0  0  0
  1  2  1  0
  2  3  1  0
  2  4  1  0
  4  5  1  0
  5  6  2  0
  5  7  1  0
  7  8  1  0
  8  9  1  0
  9 10  2  0
  9 11  1  0
 11 12  1  0
 12 13  1  0
 13 14  1  0
 14 15  1  0
 15 16  1  6
 15 17  1  0
 17 18  2  0
 18 19  1  0
 19 20  2  0
 20 21  1  0
 21 22  2  0
  8  2  1  0
 15 11  1  0
 22 17  1  0
  1 23  1  0
  1 24  1  0
  1 25  1  0
  3 26  1  0
  3 27  1  0
  3 28  1  0
  4 29  1  0
  7 30  1  0
  7 31  1  0
  8 32  1  1
 12 33  1  0
 12 34  1  0
 13 35  1  0
 13 36  1  0
 14 37  1  0
 14 38  1  0
 16 39  1  0
 16 40  1  0
 16 41  1  0
 18 42  1  0
 19 43  1  0
 20 44  1  0
 21 45  1  0
 22 46  1  0
M  END
>  <meeko>  (5) 
{"is_sidechain": [false], "free_energy": -7.685, "intermolecular_energy": -8.325, "internal_energy": -1.406}

$$$$
