ligand_87_conformer_4_docked
     RDKit          3D

 42 46  0  0  0  0  0  0  0  0999 V2000
   -0.4240   45.1660   56.7460 C   0  0  0  0  0  0  0  0  0  0  0  0
    0.8950   45.0800   56.2920 C   0  0  0  0  0  0  0  0  0  0  0  0
    1.1790   44.4530   55.0760 C   0  0  0  0  0  0  0  0  0  0  0  0
    0.1440   43.8860   54.3110 C   0  0  0  0  0  0  0  0  0  0  0  0
   -1.1900   44.0160   54.7550 C   0  0  0  0  0  0  0  0  0  0  0  0
   -1.4650   44.6370   55.9780 C   0  0  0  0  0  0  0  0  0  0  0  0
   -2.2460   43.5170   53.9850 O   0  0  0  0  0  0  0  0  0  0  0  0
   -2.0590   43.0800   52.6410 C   0  0  0  0  0  0  0  0  0  0  0  0
   -0.7310   42.3340   52.5120 C   0  0  0  0  0  0  0  0  0  0  0  0
    0.4360   43.2280   52.9730 C   0  0  2  0  0  0  0  0  0  0  0  0
    1.6550   42.4180   53.0490 N   0  0  0  0  0  0  0  0  0  0  0  0
    2.8400   42.7750   52.3340 C   0  0  0  0  0  0  0  0  0  0  0  0
    3.2090   42.2070   51.1720 N   0  0  0  0  0  0  0  0  0  0  0  0
    4.3440   42.7950   50.8260 N   0  0  0  0  0  0  0  0  0  0  0  0
    4.6190   43.6950   51.7920 C   0  0  0  0  0  0  0  0  0  0  0  0
    5.8010   44.5680   51.7940 C   0  0  0  0  0  0  0  0  0  0  0  0
    6.5190   44.8050   50.6120 C   0  0  0  0  0  0  0  0  0  0  0  0
    7.6370   45.6410   50.6400 C   0  0  0  0  0  0  0  0  0  0  0  0
    8.0340   46.2340   51.8440 C   0  0  0  0  0  0  0  0  0  0  0  0
    9.1500   47.0810   51.9080 C   0  0  0  0  0  0  0  0  0  0  0  0
    9.5190   47.6610   53.1260 C   0  0  0  0  0  0  0  0  0  0  0  0
    8.7770   47.4010   54.2820 C   0  0  0  0  0  0  0  0  0  0  0  0
    7.6630   46.5570   54.2280 C   0  0  0  0  0  0  0  0  0  0  0  0
    7.2870   45.9710   53.0140 C   0  0  0  0  0  0  0  0  0  0  0  0
    6.2010   45.1540   52.9560 N   0  0  0  0  0  0  0  0  0  0  0  0
    3.6950   43.6870   52.7250 O   0  0  0  0  0  0  0  0  0  0  0  0
   -0.6431   45.6506   57.7089 H   0  0  0  0  0  0  0  0  0  0  0  0
    1.7113   45.5068   56.8932 H   0  0  0  0  0  0  0  0  0  0  0  0
    2.2170   44.4026   54.7154 H   0  0  0  0  0  0  0  0  0  0  0  0
   -2.5026   44.7091   56.3359 H   0  0  0  0  0  0  0  0  0  0  0  0
   -2.8829   42.4080   52.3588 H   0  0  0  0  0  0  0  0  0  0  0  0
   -2.0464   43.9559   51.9757 H   0  0  0  0  0  0  0  0  0  0  0  0
   -0.7621   41.4287   53.1360 H   0  0  0  0  0  0  0  0  0  0  0  0
   -0.5763   42.0620   51.4574 H   0  0  0  0  0  0  0  0  0  0  0  0
    0.5723   44.0374   52.2407 H   0  0  0  0  0  0  0  0  0  0  0  0
    1.6170   41.4820   53.5130 H   0  0  0  0  0  0  0  0  0  0  0  0
    6.2030   44.3350   49.6690 H   0  0  0  0  0  0  0  0  0  0  0  0
    8.2046   45.8332   49.7176 H   0  0  0  0  0  0  0  0  0  0  0  0
    9.7352   47.2892   51.0001 H   0  0  0  0  0  0  0  0  0  0  0  0
   10.3956   48.3237   53.1745 H   0  0  0  0  0  0  0  0  0  0  0  0
    9.0702   47.8616   55.2369 H   0  0  0  0  0  0  0  0  0  0  0  0
    7.0823   46.3538   55.1399 H   0  0  0  0  0  0  0  0  0  0  0  0
  1  2  2  0
  2  3  1  0
  3  4  2  0
  4  5  1  0
  5  6  2  0
  5  7  1  0
  7  8  1  0
  8  9  1  0
  9 10  1  0
 10 11  1  0
 11 12  1  0
 12 13  2  0
 13 14  1  0
 14 15  2  0
 15 16  1  0
 16 17  2  0
 17 18  1  0
 18 19  2  0
 19 20  1  0
 20 21  2  0
 21 22  1  0
 22 23  2  0
 23 24  1  0
 24 25  2  0
 15 26  1  0
  6  1  1  0
 26 12  1  0
 10  4  1  0
 25 16  1  0
 24 19  1  0
  1 27  1  0
  2 28  1  0
  3 29  1  0
  6 30  1  0
  8 31  1  0
  8 32  1  0
  9 33  1  0
  9 34  1  0
 10 35  1  6
 11 36  1  0
 17 37  1  0
 18 38  1  0
 20 39  1  0
 21 40  1  0
 22 41  1  0
 23 42  1  0
M  END
>  <meeko>  (1) 
{"is_sidechain": [false], "free_energy": -10.11, "intermolecular_energy": -11.883, "internal_energy": -0.548}

$$$$
ligand_87_conformer_4_docked
     RDKit          3D

 42 46  0  0  0  0  0  0  0  0999 V2000
   -3.5290   43.9700   55.5320 C   0  0  0  0  0  0  0  0  0  0  0  0
   -3.0710   43.9470   54.2130 C   0  0  0  0  0  0  0  0  0  0  0  0
   -1.7370   44.2510   53.9280 C   0  0  0  0  0  0  0  0  0  0  0  0
   -0.8520   44.6010   54.9640 C   0  0  0  0  0  0  0  0  0  0  0  0
   -1.3120   44.5760   56.2980 C   0  0  0  0  0  0  0  0  0  0  0  0
   -2.6520   44.2820   56.5740 C   0  0  0  0  0  0  0  0  0  0  0  0
   -0.4390   44.8590   57.3550 O   0  0  0  0  0  0  0  0  0  0  0  0
    0.9700   44.9460   57.1660 C   0  0  0  0  0  0  0  0  0  0  0  0
    1.2800   45.6440   55.8430 C   0  0  0  0  0  0  0  0  0  0  0  0
    0.6070   44.9030   54.6710 C   0  0  2  0  0  0  0  0  0  0  0  0
    0.7360   45.7140   53.4590 N   0  0  0  0  0  0  0  0  0  0  0  0
    1.8970   45.6460   52.6280 C   0  0  0  0  0  0  0  0  0  0  0  0
    1.8630   45.3140   51.3240 N   0  0  0  0  0  0  0  0  0  0  0  0
    3.1180   45.3630   50.9050 N   0  0  0  0  0  0  0  0  0  0  0  0
    3.8630   45.7210   51.9700 C   0  0  0  0  0  0  0  0  0  0  0  0
    5.3230   45.8910   51.9350 C   0  0  0  0  0  0  0  0  0  0  0  0
    6.0600   45.5210   50.8010 C   0  0  0  0  0  0  0  0  0  0  0  0
    7.4460   45.6950   50.7920 C   0  0  0  0  0  0  0  0  0  0  0  0
    8.0870   46.2350   51.9120 C   0  0  0  0  0  0  0  0  0  0  0  0
    9.4770   46.4260   51.9370 C   0  0  0  0  0  0  0  0  0  0  0  0
   10.0880   46.9720   53.0710 C   0  0  0  0  0  0  0  0  0  0  0  0
    9.3170   47.3290   54.1820 C   0  0  0  0  0  0  0  0  0  0  0  0
    7.9310   47.1410   54.1670 C   0  0  0  0  0  0  0  0  0  0  0  0
    7.3120   46.5950   53.0360 C   0  0  0  0  0  0  0  0  0  0  0  0
    5.9640   46.4160   53.0160 N   0  0  0  0  0  0  0  0  0  0  0  0
    3.1170   45.8980   53.0350 O   0  0  0  0  0  0  0  0  0  0  0  0
   -4.5826   43.7420   55.7511 H   0  0  0  0  0  0  0  0  0  0  0  0
   -3.7616   43.6891   53.3966 H   0  0  0  0  0  0  0  0  0  0  0  0
   -1.3774   44.2164   52.8890 H   0  0  0  0  0  0  0  0  0  0  0  0
   -3.0152   44.2965   57.6122 H   0  0  0  0  0  0  0  0  0  0  0  0
    1.4132   45.5202   57.9929 H   0  0  0  0  0  0  0  0  0  0  0  0
    1.3939   43.9312   57.1457 H   0  0  0  0  0  0  0  0  0  0  0  0
    0.9039   46.6770   55.8819 H   0  0  0  0  0  0  0  0  0  0  0  0
    2.3688   45.6425   55.6866 H   0  0  0  0  0  0  0  0  0  0  0  0
    1.1114   43.9363   54.5259 H   0  0  0  0  0  0  0  0  0  0  0  0
    0.0350   46.4670   53.2720 H   0  0  0  0  0  0  0  0  0  0  0  0
    5.5499   45.0963   49.9238 H   0  0  0  0  0  0  0  0  0  0  0  0
    8.0319   45.4081   49.9064 H   0  0  0  0  0  0  0  0  0  0  0  0
   10.0863   46.1464   51.0649 H   0  0  0  0  0  0  0  0  0  0  0  0
   11.1777   47.1209   53.0889 H   0  0  0  0  0  0  0  0  0  0  0  0
    9.8022   47.7591   55.0706 H   0  0  0  0  0  0  0  0  0  0  0  0
    7.3279   47.4219   55.0430 H   0  0  0  0  0  0  0  0  0  0  0  0
  1  2  2  0
  2  3  1  0
  3  4  2  0
  4  5  1  0
  5  6  2  0
  5  7  1  0
  7  8  1  0
  8  9  1  0
  9 10  1  0
 10 11  1  0
 11 12  1  0
 12 13  2  0
 13 14  1  0
 14 15  2  0
 15 16  1  0
 16 17  2  0
 17 18  1  0
 18 19  2  0
 19 20  1  0
 20 21  2  0
 21 22  1  0
 22 23  2  0
 23 24  1  0
 24 25  2  0
 15 26  1  0
  6  1  1  0
 26 12  1  0
 10  4  1  0
 25 16  1  0
 24 19  1  0
  1 27  1  0
  2 28  1  0
  3 29  1  0
  6 30  1  0
  8 31  1  0
  8 32  1  0
  9 33  1  0
  9 34  1  0
 10 35  1  6
 11 36  1  0
 17 37  1  0
 18 38  1  0
 20 39  1  0
 21 40  1  0
 22 41  1  0
 23 42  1  0
M  END
>  <meeko>  (2) 
{"is_sidechain": [false], "free_energy": -9.508, "intermolecular_energy": -11.274, "internal_energy": -0.449}

$$$$
ligand_87_conformer_4_docked
     RDKit          3D

 42 46  0  0  0  0  0  0  0  0999 V2000
    9.5990   47.2250   53.4790 C   0  0  0  0  0  0  0  0  0  0  0  0
   10.2250   46.6520   52.3690 C   0  0  0  0  0  0  0  0  0  0  0  0
    9.4600   46.0600   51.3600 C   0  0  0  0  0  0  0  0  0  0  0  0
    8.0580   46.0180   51.4650 C   0  0  0  0  0  0  0  0  0  0  0  0
    7.4320   46.6390   52.5660 C   0  0  0  0  0  0  0  0  0  0  0  0
    8.2050   47.2210   53.5770 C   0  0  0  0  0  0  0  0  0  0  0  0
    6.0370   46.6690   52.6660 O   0  0  0  0  0  0  0  0  0  0  0  0
    5.1950   46.2990   51.5780 C   0  0  0  0  0  0  0  0  0  0  0  0
    5.7840   45.0950   50.8440 C   0  0  0  0  0  0  0  0  0  0  0  0
    7.2140   45.4050   50.3610 C   0  0  2  0  0  0  0  0  0  0  0  0
    7.8260   44.1700   49.8650 N   0  0  0  0  0  0  0  0  0  0  0  0
    7.0370   43.0840   49.3750 C   0  0  0  0  0  0  0  0  0  0  0  0
    6.7470   41.9870   50.0980 N   0  0  0  0  0  0  0  0  0  0  0  0
    6.0050   41.2210   49.3140 N   0  0  0  0  0  0  0  0  0  0  0  0
    5.8760   41.8820   48.1460 C   0  0  0  0  0  0  0  0  0  0  0  0
    5.1200   41.3750   46.9910 C   0  0  0  0  0  0  0  0  0  0  0  0
    5.4170   41.8160   45.6920 C   0  0  0  0  0  0  0  0  0  0  0  0
    4.6860   41.3180   44.6110 C   0  0  0  0  0  0  0  0  0  0  0  0
    3.6670   40.3850   44.8300 C   0  0  0  0  0  0  0  0  0  0  0  0
    2.9150   39.8610   43.7680 C   0  0  0  0  0  0  0  0  0  0  0  0
    1.9050   38.9270   44.0190 C   0  0  0  0  0  0  0  0  0  0  0  0
    1.6420   38.5120   45.3290 C   0  0  0  0  0  0  0  0  0  0  0  0
    2.3850   39.0290   46.3940 C   0  0  0  0  0  0  0  0  0  0  0  0
    3.3970   39.9650   46.1520 C   0  0  0  0  0  0  0  0  0  0  0  0
    4.1260   40.4670   47.1850 N   0  0  0  0  0  0  0  0  0  0  0  0
    6.5090   43.0310   48.1770 O   0  0  0  0  0  0  0  0  0  0  0  0
   10.2043   47.6799   54.2769 H   0  0  0  0  0  0  0  0  0  0  0  0
   11.3220   46.6668   52.2890 H   0  0  0  0  0  0  0  0  0  0  0  0
    9.9565   45.6251   50.4801 H   0  0  0  0  0  0  0  0  0  0  0  0
    7.7146   47.6760   54.4502 H   0  0  0  0  0  0  0  0  0  0  0  0
    4.1976   46.0387   51.9620 H   0  0  0  0  0  0  0  0  0  0  0  0
    5.1179   47.1446   50.8787 H   0  0  0  0  0  0  0  0  0  0  0  0
    5.8112   44.2327   51.5264 H   0  0  0  0  0  0  0  0  0  0  0  0
    5.1547   44.8675   49.9709 H   0  0  0  0  0  0  0  0  0  0  0  0
    7.1615   46.1458   49.5496 H   0  0  0  0  0  0  0  0  0  0  0  0
    8.8500   44.0160   50.0060 H   0  0  0  0  0  0  0  0  0  0  0  0
    6.2202   42.5491   45.5264 H   0  0  0  0  0  0  0  0  0  0  0  0
    4.9111   41.6588   43.5896 H   0  0  0  0  0  0  0  0  0  0  0  0
    3.1200   40.1851   42.7370 H   0  0  0  0  0  0  0  0  0  0  0  0
    1.3161   38.5178   43.1849 H   0  0  0  0  0  0  0  0  0  0  0  0
    0.8475   37.7760   45.5215 H   0  0  0  0  0  0  0  0  0  0  0  0
    2.1744   38.7002   47.4224 H   0  0  0  0  0  0  0  0  0  0  0  0
  1  2  2  0
  2  3  1  0
  3  4  2  0
  4  5  1  0
  5  6  2  0
  5  7  1  0
  7  8  1  0
  8  9  1  0
  9 10  1  0
 10 11  1  0
 11 12  1  0
 12 13  2  0
 13 14  1  0
 14 15  2  0
 15 16  1  0
 16 17  2  0
 17 18  1  0
 18 19  2  0
 19 20  1  0
 20 21  2  0
 21 22  1  0
 22 23  2  0
 23 24  1  0
 24 25  2  0
 15 26  1  0
  6  1  1  0
 26 12  1  0
 10  4  1  0
 25 16  1  0
 24 19  1  0
  1 27  1  0
  2 28  1  0
  3 29  1  0
  6 30  1  0
  8 31  1  0
  8 32  1  0
  9 33  1  0
  9 34  1  0
 10 35  1  6
 11 36  1  0
 17 37  1  0
 18 38  1  0
 20 39  1  0
 21 40  1  0
 22 41  1  0
 23 42  1  0
M  END
>  <meeko>  (3) 
{"is_sidechain": [false], "free_energy": -9.22, "intermolecular_energy": -10.991, "internal_energy": -0.394}

$$$$
ligand_87_conformer_4_docked
     RDKit          3D

 42 46  0  0  0  0  0  0  0  0999 V2000
   10.2110   47.1760   53.5930 C   0  0  0  0  0  0  0  0  0  0  0  0
    9.1690   47.2900   54.5170 C   0  0  0  0  0  0  0  0  0  0  0  0
    7.8770   46.8860   54.1700 C   0  0  0  0  0  0  0  0  0  0  0  0
    7.6120   46.3810   52.8850 C   0  0  0  0  0  0  0  0  0  0  0  0
    8.6780   46.2260   51.9740 C   0  0  0  0  0  0  0  0  0  0  0  0
    9.9670   46.6430   52.3240 C   0  0  0  0  0  0  0  0  0  0  0  0
    8.4570   45.6690   50.7100 O   0  0  0  0  0  0  0  0  0  0  0  0
    7.2310   45.0250   50.3740 C   0  0  0  0  0  0  0  0  0  0  0  0
    6.0540   45.7890   50.9800 C   0  0  0  0  0  0  0  0  0  0  0  0
    6.2180   45.9090   52.5070 C   0  0  2  0  0  0  0  0  0  0  0  0
    5.2020   46.8290   53.0240 N   0  0  0  0  0  0  0  0  0  0  0  0
    4.1300   46.3760   53.8540 C   0  0  0  0  0  0  0  0  0  0  0  0
    4.2180   46.2700   55.1930 N   0  0  0  0  0  0  0  0  0  0  0  0
    3.0390   45.8250   55.5990 N   0  0  0  0  0  0  0  0  0  0  0  0
    2.2830   45.6790   54.4920 C   0  0  0  0  0  0  0  0  0  0  0  0
    0.8930   45.2020   54.5000 C   0  0  0  0  0  0  0  0  0  0  0  0
    0.2260   44.9190   53.2980 C   0  0  0  0  0  0  0  0  0  0  0  0
   -1.0940   44.4650   53.3320 C   0  0  0  0  0  0  0  0  0  0  0  0
   -1.7410   44.2960   54.5620 C   0  0  0  0  0  0  0  0  0  0  0  0
   -3.0660   43.8390   54.6330 C   0  0  0  0  0  0  0  0  0  0  0  0
   -3.6830   43.6770   55.8780 C   0  0  0  0  0  0  0  0  0  0  0  0
   -2.9830   43.9680   57.0530 C   0  0  0  0  0  0  0  0  0  0  0  0
   -1.6630   44.4250   56.9920 C   0  0  0  0  0  0  0  0  0  0  0  0
   -1.0380   44.5920   55.7500 C   0  0  0  0  0  0  0  0  0  0  0  0
    0.2480   45.0310   55.6860 N   0  0  0  0  0  0  0  0  0  0  0  0
    2.9500   46.0170   53.4130 O   0  0  0  0  0  0  0  0  0  0  0  0
   11.2246   47.5061   53.8646 H   0  0  0  0  0  0  0  0  0  0  0  0
    9.3660   47.6984   55.5192 H   0  0  0  0  0  0  0  0  0  0  0  0
    7.0632   46.9635   54.9060 H   0  0  0  0  0  0  0  0  0  0  0  0
   10.7896   46.5513   51.5994 H   0  0  0  0  0  0  0  0  0  0  0  0
    7.1223   44.9974   49.2797 H   0  0  0  0  0  0  0  0  0  0  0  0
    7.2404   44.0006   50.7748 H   0  0  0  0  0  0  0  0  0  0  0  0
    6.0112   46.7963   50.5402 H   0  0  0  0  0  0  0  0  0  0  0  0
    5.1249   45.2413   50.7638 H   0  0  0  0  0  0  0  0  0  0  0  0
    6.0824   44.9145   52.9571 H   0  0  0  0  0  0  0  0  0  0  0  0
    5.1690   47.8090   52.6610 H   0  0  0  0  0  0  0  0  0  0  0  0
    0.7400   45.0540   52.3349 H   0  0  0  0  0  0  0  0  0  0  0  0
   -1.6242   44.2407   52.3947 H   0  0  0  0  0  0  0  0  0  0  0  0
   -3.6189   43.6084   53.7105 H   0  0  0  0  0  0  0  0  0  0  0  0
   -4.7219   43.3196   55.9328 H   0  0  0  0  0  0  0  0  0  0  0  0
   -3.4728   43.8369   58.0292 H   0  0  0  0  0  0  0  0  0  0  0  0
   -1.1160   44.6531   57.9187 H   0  0  0  0  0  0  0  0  0  0  0  0
  1  2  2  0
  2  3  1  0
  3  4  2  0
  4  5  1  0
  5  6  2  0
  5  7  1  0
  7  8  1  0
  8  9  1  0
  9 10  1  0
 10 11  1  0
 11 12  1  0
 12 13  2  0
 13 14  1  0
 14 15  2  0
 15 16  1  0
 16 17  2  0
 17 18  1  0
 18 19  2  0
 19 20  1  0
 20 21  2  0
 21 22  1  0
 22 23  2  0
 23 24  1  0
 24 25  2  0
 15 26  1  0
  6  1  1  0
 26 12  1  0
 10  4  1  0
 25 16  1  0
 24 19  1  0
  1 27  1  0
  2 28  1  0
  3 29  1  0
  6 30  1  0
  8 31  1  0
  8 32  1  0
  9 33  1  0
  9 34  1  0
 10 35  1  1
 11 36  1  0
 17 37  1  0
 18 38  1  0
 20 39  1  0
 21 40  1  0
 22 41  1  0
 23 42  1  0
M  END
>  <meeko>  (4) 
{"is_sidechain": [false], "free_energy": -9.202, "intermolecular_energy": -10.848, "internal_energy": -0.516}

$$$$
ligand_87_conformer_4_docked
     RDKit          3D

 42 46  0  0  0  0  0  0  0  0999 V2000
   -1.1700   44.6000   56.7860 C   0  0  0  0  0  0  0  0  0  0  0  0
    0.0880   44.9210   56.2690 C   0  0  0  0  0  0  0  0  0  0  0  0
    0.3590   44.7270   54.9120 C   0  0  0  0  0  0  0  0  0  0  0  0
   -0.6240   44.1900   54.0610 C   0  0  0  0  0  0  0  0  0  0  0  0
   -1.9060   43.9120   54.5820 C   0  0  0  0  0  0  0  0  0  0  0  0
   -2.1660   44.0990   55.9440 C   0  0  0  0  0  0  0  0  0  0  0  0
   -2.9230   43.4350   53.7480 O   0  0  0  0  0  0  0  0  0  0  0  0
   -2.7960   43.4350   52.3290 C   0  0  0  0  0  0  0  0  0  0  0  0
   -1.3720   43.0480   51.9290 C   0  0  0  0  0  0  0  0  0  0  0  0
   -0.3520   44.0040   52.5790 C   0  0  2  0  0  0  0  0  0  0  0  0
    0.9980   43.4770   52.3610 N   0  0  0  0  0  0  0  0  0  0  0  0
    2.1090   44.3390   52.1070 C   0  0  0  0  0  0  0  0  0  0  0  0
    2.2190   45.1110   51.0110 N   0  0  0  0  0  0  0  0  0  0  0  0
    3.3690   45.7570   51.1360 N   0  0  0  0  0  0  0  0  0  0  0  0
    3.9100   45.3510   52.3020 C   0  0  0  0  0  0  0  0  0  0  0  0
    5.1980   45.8290   52.8240 C   0  0  0  0  0  0  0  0  0  0  0  0
    5.3100   46.2870   54.1460 C   0  0  0  0  0  0  0  0  0  0  0  0
    6.5460   46.7340   54.6190 C   0  0  0  0  0  0  0  0  0  0  0  0
    7.6610   46.7220   53.7730 C   0  0  0  0  0  0  0  0  0  0  0  0
    8.9180   47.1610   54.2150 C   0  0  0  0  0  0  0  0  0  0  0  0
   10.0130   47.1340   53.3460 C   0  0  0  0  0  0  0  0  0  0  0  0
    9.8610   46.6700   52.0360 C   0  0  0  0  0  0  0  0  0  0  0  0
    8.6120   46.2310   51.5860 C   0  0  0  0  0  0  0  0  0  0  0  0
    7.5090   46.2560   52.4480 C   0  0  0  0  0  0  0  0  0  0  0  0
    6.2940   45.8250   52.0160 N   0  0  0  0  0  0  0  0  0  0  0  0
    3.1380   44.4770   52.9060 O   0  0  0  0  0  0  0  0  0  0  0  0
   -1.3763   44.7419   57.8571 H   0  0  0  0  0  0  0  0  0  0  0  0
    0.8664   45.3272   56.9316 H   0  0  0  0  0  0  0  0  0  0  0  0
    1.3459   44.9955   54.5072 H   0  0  0  0  0  0  0  0  0  0  0  0
   -3.1567   43.8510   56.3527 H   0  0  0  0  0  0  0  0  0  0  0  0
   -3.5040   42.7104   51.9004 H   0  0  0  0  0  0  0  0  0  0  0  0
   -3.0156   44.4432   51.9479 H   0  0  0  0  0  0  0  0  0  0  0  0
   -1.1686   42.0198   52.2628 H   0  0  0  0  0  0  0  0  0  0  0  0
   -1.2779   43.1162   50.8352 H   0  0  0  0  0  0  0  0  0  0  0  0
   -0.4449   44.9947   52.1100 H   0  0  0  0  0  0  0  0  0  0  0  0
    1.1300   42.4480   52.2410 H   0  0  0  0  0  0  0  0  0  0  0  0
    4.4298   46.2939   54.8056 H   0  0  0  0  0  0  0  0  0  0  0  0
    6.6428   47.0945   55.6537 H   0  0  0  0  0  0  0  0  0  0  0  0
    9.0421   47.5264   55.2451 H   0  0  0  0  0  0  0  0  0  0  0  0
   10.9977   47.4791   53.6943 H   0  0  0  0  0  0  0  0  0  0  0  0
   10.7264   46.6502   51.3573 H   0  0  0  0  0  0  0  0  0  0  0  0
    8.4960   45.8660   50.5548 H   0  0  0  0  0  0  0  0  0  0  0  0
  1  2  2  0
  2  3  1  0
  3  4  2  0
  4  5  1  0
  5  6  2  0
  5  7  1  0
  7  8  1  0
  8  9  1  0
  9 10  1  0
 10 11  1  0
 11 12  1  0
 12 13  2  0
 13 14  1  0
 14 15  2  0
 15 16  1  0
 16 17  2  0
 17 18  1  0
 18 19  2  0
 19 20  1  0
 20 21  2  0
 21 22  1  0
 22 23  2  0
 23 24  1  0
 24 25  2  0
 15 26  1  0
  6  1  1  0
 26 12  1  0
 10  4  1  0
 25 16  1  0
 24 19  1  0
  1 27  1  0
  2 28  1  0
  3 29  1  0
  6 30  1  0
  8 31  1  0
  8 32  1  0
  9 33  1  0
  9 34  1  0
 10 35  1  6
 11 36  1  0
 17 37  1  0
 18 38  1  0
 20 39  1  0
 21 40  1  0
 22 41  1  0
 23 42  1  0
M  END
>  <meeko>  (5) 
{"is_sidechain": [false], "free_energy": -9.037, "intermolecular_energy": -10.836, "internal_energy": -0.334}

$$$$
