ligand_1_conformer_2_docked
     RDKit          3D

 54 58  0  0  0  0  0  0  0  0999 V2000
    3.4800   41.1580   50.7180 O   0  0  0  0  0  0  0  0  0  0  0  0
    3.4820   42.3570   51.1050 C   0  0  0  0  0  0  0  0  0  0  0  0
    4.7300   43.1420   51.0030 C   0  0  0  0  0  0  0  0  0  0  0  0
    4.9260   44.2880   51.8170 C   0  0  0  0  0  0  0  0  0  0  0  0
    6.1060   45.0450   51.7210 C   0  0  0  0  0  0  0  0  0  0  0  0
    7.0690   44.6430   50.7920 C   0  0  0  0  0  0  0  0  0  0  0  0
    6.8710   43.5500   49.9920 C   0  0  0  0  0  0  0  0  0  0  0  0
    5.7150   42.7770   50.0590 C   0  0  0  0  0  0  0  0  0  0  0  0
    7.9320   43.3750   49.1880 N   0  0  0  0  0  0  0  0  0  0  0  0
    8.7650   44.3840   49.5280 C   0  0  0  0  0  0  0  0  0  0  0  0
    9.8900   44.5540   48.9850 O   0  0  0  0  0  0  0  0  0  0  0  0
    8.2740   45.1900   50.5070 N   0  0  0  0  0  0  0  0  0  0  0  0
    8.9470   46.3580   51.1000 C   0  0  0  0  0  0  0  0  0  0  0  0
    7.9560   47.4070   51.6230 C   0  0  0  0  0  0  0  0  0  0  0  0
    8.3970   47.7560   53.0420 C   0  0  0  0  0  0  0  0  0  0  0  0
    9.7810   47.1490   53.2280 C   0  0  0  0  0  0  0  0  0  0  0  0
    9.8490   45.9730   52.2710 C   0  0  0  0  0  0  0  0  0  0  0  0
    2.2760   42.9330   51.6360 N   0  0  0  0  0  0  0  0  0  0  0  0
    1.1170   43.2310   50.8140 C   0  0  0  0  0  0  0  0  0  0  0  0
   -0.0270   43.4770   51.7890 C   0  0  0  0  0  0  0  0  0  0  0  0
    0.6240   43.7200   53.1520 C   0  0  2  0  0  0  0  0  0  0  0  0
    0.7600   45.1280   53.3610 O   0  0  0  0  0  0  0  0  0  0  0  0
    1.9690   45.7980   53.6100 C   0  0  0  0  0  0  0  0  0  0  0  0
    2.3840   46.7760   52.6960 C   0  0  0  0  0  0  0  0  0  0  0  0
    3.5810   47.4700   52.8930 C   0  0  0  0  0  0  0  0  0  0  0  0
    4.3750   47.1910   54.0090 C   0  0  0  0  0  0  0  0  0  0  0  0
    3.9720   46.2210   54.9290 C   0  0  0  0  0  0  0  0  0  0  0  0
    4.7430   45.9510   56.0110 F   0  0  0  0  0  0  0  0  0  0  0  0
    2.7730   45.5260   54.7350 C   0  0  0  0  0  0  0  0  0  0  0  0
    1.9970   43.0540   53.0580 C   0  0  0  0  0  0  0  0  0  0  0  0
    4.1450   44.5872   52.5315 H   0  0  0  0  0  0  0  0  0  0  0  0
    6.2666   45.9273   52.3580 H   0  0  0  0  0  0  0  0  0  0  0  0
    5.5733   41.9095   49.3977 H   0  0  0  0  0  0  0  0  0  0  0  0
    8.0820   42.6300   48.4710 H   0  0  0  0  0  0  0  0  0  0  0  0
    9.5442   46.7799   50.2782 H   0  0  0  0  0  0  0  0  0  0  0  0
    7.9817   48.3037   50.9864 H   0  0  0  0  0  0  0  0  0  0  0  0
    6.9265   47.0196   51.6120 H   0  0  0  0  0  0  0  0  0  0  0  0
    8.4411   48.8478   53.1682 H   0  0  0  0  0  0  0  0  0  0  0  0
    7.6881   47.3637   53.7860 H   0  0  0  0  0  0  0  0  0  0  0  0
   10.5590   47.8872   52.9836 H   0  0  0  0  0  0  0  0  0  0  0  0
    9.9484   46.8342   54.2686 H   0  0  0  0  0  0  0  0  0  0  0  0
   10.8817   45.8148   51.9268 H   0  0  0  0  0  0  0  0  0  0  0  0
    9.5268   45.0355   52.7477 H   0  0  0  0  0  0  0  0  0  0  0  0
    1.3001   44.1274   50.2034 H   0  0  0  0  0  0  0  0  0  0  0  0
    0.8892   42.4088   50.1197 H   0  0  0  0  0  0  0  0  0  0  0  0
   -0.6087   44.3583   51.4809 H   0  0  0  0  0  0  0  0  0  0  0  0
   -0.7197   42.6231   51.8204 H   0  0  0  0  0  0  0  0  0  0  0  0
    0.0352   43.3152   53.9883 H   0  0  0  0  0  0  0  0  0  0  0  0
    1.7625   46.9992   51.8163 H   0  0  0  0  0  0  0  0  0  0  0  0
    3.8982   48.2358   52.1698 H   0  0  0  0  0  0  0  0  0  0  0  0
    5.3181   47.7360   54.1626 H   0  0  0  0  0  0  0  0  0  0  0  0
    2.4569   44.7646   55.4633 H   0  0  0  0  0  0  0  0  0  0  0  0
    2.7602   43.6768   53.5475 H   0  0  0  0  0  0  0  0  0  0  0  0
    2.0101   42.0754   53.5602 H   0  0  0  0  0  0  0  0  0  0  0  0
  1  2  2  0
  2  3  1  0
  3  4  2  0
  4  5  1  0
  5  6  2  0
  6  7  1  0
  7  8  2  0
  7  9  1  0
  9 10  1  0
 10 11  2  0
 10 12  1  0
 12 13  1  0
 13 14  1  0
 14 15  1  0
 15 16  1  0
 16 17  1  0
  2 18  1  0
 18 19  1  0
 19 20  1  0
 20 21  1  0
 21 22  1  0
 22 23  1  0
 23 24  2  0
 24 25  1  0
 25 26  2  0
 26 27  1  0
 27 28  1  0
 27 29  2  0
 21 30  1  0
  8  3  1  0
 17 13  1  0
 30 18  1  0
 12  6  1  0
 29 23  1  0
  4 31  1  0
  5 32  1  0
  8 33  1  0
  9 34  1  0
 13 35  1  0
 14 36  1  0
 14 37  1  0
 15 38  1  0
 15 39  1  0
 16 40  1  0
 16 41  1  0
 17 42  1  0
 17 43  1  0
 19 44  1  0
 19 45  1  0
 20 46  1  0
 20 47  1  0
 21 48  1  1
 24 49  1  0
 25 50  1  0
 26 51  1  0
 29 52  1  0
 30 53  1  0
 30 54  1  0
M  END
>  <meeko>  (1) 
{"is_sidechain": [false], "free_energy": -9.942, "intermolecular_energy": -12.848, "internal_energy": -1.14}

$$$$
ligand_1_conformer_2_docked
     RDKit          3D

 54 58  0  0  0  0  0  0  0  0999 V2000
    5.4260   41.2970   50.1000 O   0  0  0  0  0  0  0  0  0  0  0  0
    5.4520   42.4920   50.5020 C   0  0  0  0  0  0  0  0  0  0  0  0
    4.3330   42.9970   51.3240 C   0  0  0  0  0  0  0  0  0  0  0  0
    2.9940   42.8630   50.8730 C   0  0  0  0  0  0  0  0  0  0  0  0
    1.9230   43.3470   51.6440 C   0  0  0  0  0  0  0  0  0  0  0  0
    2.2200   43.9750   52.8560 C   0  0  0  0  0  0  0  0  0  0  0  0
    3.5130   44.1230   53.2810 C   0  0  0  0  0  0  0  0  0  0  0  0
    4.5980   43.6560   52.5440 C   0  0  0  0  0  0  0  0  0  0  0  0
    3.5340   44.7560   54.4650 N   0  0  0  0  0  0  0  0  0  0  0  0
    2.2280   44.9810   54.7350 C   0  0  0  0  0  0  0  0  0  0  0  0
    1.8370   45.5610   55.7840 O   0  0  0  0  0  0  0  0  0  0  0  0
    1.3860   44.5200   53.7730 N   0  0  0  0  0  0  0  0  0  0  0  0
   -0.0850   44.6000   53.7840 C   0  0  0  0  0  0  0  0  0  0  0  0
   -0.6470   45.3110   52.5450 C   0  0  0  0  0  0  0  0  0  0  0  0
   -1.7510   44.4140   51.9900 C   0  0  0  0  0  0  0  0  0  0  0  0
   -2.0260   43.3570   53.0500 C   0  0  0  0  0  0  0  0  0  0  0  0
   -0.7380   43.2200   53.8410 C   0  0  0  0  0  0  0  0  0  0  0  0
    6.5650   43.3330   50.1520 N   0  0  0  0  0  0  0  0  0  0  0  0
    7.6380   42.8950   49.2770 C   0  0  0  0  0  0  0  0  0  0  0  0
    8.3930   44.1600   48.8880 C   0  0  0  0  0  0  0  0  0  0  0  0
    7.9700   45.2310   49.8950 C   0  0  2  0  0  0  0  0  0  0  0  0
    8.9360   45.2910   50.9480 O   0  0  0  0  0  0  0  0  0  0  0  0
    8.9730   46.2620   51.9620 C   0  0  0  0  0  0  0  0  0  0  0  0
    8.1200   47.3680   51.8500 C   0  0  0  0  0  0  0  0  0  0  0  0
    8.1200   48.3660   52.8280 C   0  0  0  0  0  0  0  0  0  0  0  0
    8.9750   48.2670   53.9290 C   0  0  0  0  0  0  0  0  0  0  0  0
    9.8290   47.1690   54.0540 C   0  0  0  0  0  0  0  0  0  0  0  0
   10.6580   47.0730   55.1230 F   0  0  0  0  0  0  0  0  0  0  0  0
    9.8290   46.1670   53.0770 C   0  0  0  0  0  0  0  0  0  0  0  0
    6.6180   44.7590   50.4310 C   0  0  0  0  0  0  0  0  0  0  0  0
    2.7919   42.3744   49.9084 H   0  0  0  0  0  0  0  0  0  0  0  0
    0.8831   43.2347   51.3035 H   0  0  0  0  0  0  0  0  0  0  0  0
    5.6290   43.7961   52.9010 H   0  0  0  0  0  0  0  0  0  0  0  0
    4.3650   45.0130   55.0440 H   0  0  0  0  0  0  0  0  0  0  0  0
   -0.3239   45.1763   54.6900 H   0  0  0  0  0  0  0  0  0  0  0  0
   -1.0595   46.2916   52.8247 H   0  0  0  0  0  0  0  0  0  0  0  0
    0.1394   45.4820   51.7951 H   0  0  0  0  0  0  0  0  0  0  0  0
   -2.6591   45.0043   51.7980 H   0  0  0  0  0  0  0  0  0  0  0  0
   -1.4468   43.9525   51.0390 H   0  0  0  0  0  0  0  0  0  0  0  0
   -2.8471   43.6785   53.7076 H   0  0  0  0  0  0  0  0  0  0  0  0
   -2.3279   42.4002   52.5990 H   0  0  0  0  0  0  0  0  0  0  0  0
   -0.9528   42.9375   54.8822 H   0  0  0  0  0  0  0  0  0  0  0  0
   -0.0834   42.4378   53.4290 H   0  0  0  0  0  0  0  0  0  0  0  0
    8.3043   42.1978   49.8061 H   0  0  0  0  0  0  0  0  0  0  0  0
    7.2518   42.3642   48.3943 H   0  0  0  0  0  0  0  0  0  0  0  0
    9.4783   43.9898   48.9445 H   0  0  0  0  0  0  0  0  0  0  0  0
    8.1635   44.4645   47.8562 H   0  0  0  0  0  0  0  0  0  0  0  0
    7.8997   46.2346   49.4502 H   0  0  0  0  0  0  0  0  0  0  0  0
    7.4451   47.4513   50.9854 H   0  0  0  0  0  0  0  0  0  0  0  0
    7.4465   49.2303   52.7312 H   0  0  0  0  0  0  0  0  0  0  0  0
    8.9754   49.0541   54.6974 H   0  0  0  0  0  0  0  0  0  0  0  0
   10.5002   45.3016   53.1800 H   0  0  0  0  0  0  0  0  0  0  0  0
    6.5488   44.9416   51.5135 H   0  0  0  0  0  0  0  0  0  0  0  0
    5.7823   45.2978   49.9607 H   0  0  0  0  0  0  0  0  0  0  0  0
  1  2  2  0
  2  3  1  0
  3  4  2  0
  4  5  1  0
  5  6  2  0
  6  7  1  0
  7  8  2  0
  7  9  1  0
  9 10  1  0
 10 11  2  0
 10 12  1  0
 12 13  1  0
 13 14  1  0
 14 15  1  0
 15 16  1  0
 16 17  1  0
  2 18  1  0
 18 19  1  0
 19 20  1  0
 20 21  1  0
 21 22  1  0
 22 23  1  0
 23 24  2  0
 24 25  1  0
 25 26  2  0
 26 27  1  0
 27 28  1  0
 27 29  2  0
 21 30  1  0
  8  3  1  0
 17 13  1  0
 30 18  1  0
 12  6  1  0
 29 23  1  0
  4 31  1  0
  5 32  1  0
  8 33  1  0
  9 34  1  0
 13 35  1  0
 14 36  1  0
 14 37  1  0
 15 38  1  0
 15 39  1  0
 16 40  1  0
 16 41  1  0
 17 42  1  0
 17 43  1  0
 19 44  1  0
 19 45  1  0
 20 46  1  0
 20 47  1  0
 21 48  1  6
 24 49  1  0
 25 50  1  0
 26 51  1  0
 29 52  1  0
 30 53  1  0
 30 54  1  0
M  END
>  <meeko>  (2) 
{"is_sidechain": [false], "free_energy": -9.268, "intermolecular_energy": -12.682, "internal_energy": -0.435}

$$$$
ligand_1_conformer_2_docked
     RDKit          3D

 54 58  0  0  0  0  0  0  0  0999 V2000
    5.3230   41.3690   49.9690 O   0  0  0  0  0  0  0  0  0  0  0  0
    5.3960   42.5260   50.4640 C   0  0  0  0  0  0  0  0  0  0  0  0
    4.3250   42.9870   51.3710 C   0  0  0  0  0  0  0  0  0  0  0  0
    4.5230   44.1260   52.1950 C   0  0  0  0  0  0  0  0  0  0  0  0
    3.5130   44.5680   53.0660 C   0  0  0  0  0  0  0  0  0  0  0  0
    2.3190   43.8440   53.1060 C   0  0  0  0  0  0  0  0  0  0  0  0
    2.1360   42.7330   52.3270 C   0  0  0  0  0  0  0  0  0  0  0  0
    3.1140   42.2670   51.4530 C   0  0  0  0  0  0  0  0  0  0  0  0
    0.9160   42.2180   52.5470 N   0  0  0  0  0  0  0  0  0  0  0  0
    0.3770   43.0450   53.4720 C   0  0  0  0  0  0  0  0  0  0  0  0
   -0.7840   42.8870   53.9370 O   0  0  0  0  0  0  0  0  0  0  0  0
    1.2060   44.0560   53.8460 N   0  0  0  0  0  0  0  0  0  0  0  0
    0.9040   45.1220   54.8180 C   0  0  0  0  0  0  0  0  0  0  0  0
   -0.5830   45.1730   55.1940 C   0  0  0  0  0  0  0  0  0  0  0  0
   -0.6470   45.2160   56.7190 C   0  0  0  0  0  0  0  0  0  0  0  0
    0.7700   45.4850   57.2050 C   0  0  0  0  0  0  0  0  0  0  0  0
    1.6880   44.9560   56.1190 C   0  0  0  0  0  0  0  0  0  0  0  0
    6.5160   43.3680   50.1360 N   0  0  0  0  0  0  0  0  0  0  0  0
    7.5910   42.9420   49.2580 C   0  0  0  0  0  0  0  0  0  0  0  0
    8.3540   44.2090   48.8970 C   0  0  0  0  0  0  0  0  0  0  0  0
    7.9330   45.2630   49.9230 C   0  0  2  0  0  0  0  0  0  0  0  0
    8.8940   45.2970   50.9820 O   0  0  0  0  0  0  0  0  0  0  0  0
    8.9500   46.2670   51.9960 C   0  0  0  0  0  0  0  0  0  0  0  0
    8.1020   47.3780   51.8980 C   0  0  0  0  0  0  0  0  0  0  0  0
    8.1210   48.3750   52.8760 C   0  0  0  0  0  0  0  0  0  0  0  0
    8.9910   48.2690   53.9650 C   0  0  0  0  0  0  0  0  0  0  0  0
    9.8400   47.1660   54.0770 C   0  0  0  0  0  0  0  0  0  0  0  0
   10.6830   47.0640   55.1340 F   0  0  0  0  0  0  0  0  0  0  0  0
    9.8210   46.1650   53.0990 C   0  0  0  0  0  0  0  0  0  0  0  0
    6.5750   44.7880   50.4430 C   0  0  0  0  0  0  0  0  0  0  0  0
    5.4786   44.6690   52.1510 H   0  0  0  0  0  0  0  0  0  0  0  0
    3.6581   45.4571   53.6972 H   0  0  0  0  0  0  0  0  0  0  0  0
    2.9481   41.3654   50.8450 H   0  0  0  0  0  0  0  0  0  0  0  0
    0.4820   41.3770   52.1060 H   0  0  0  0  0  0  0  0  0  0  0  0
    1.1963   46.0523   54.3090 H   0  0  0  0  0  0  0  0  0  0  0  0
   -1.0511   46.0732   54.7691 H   0  0  0  0  0  0  0  0  0  0  0  0
   -1.1219   44.2991   54.7992 H   0  0  0  0  0  0  0  0  0  0  0  0
   -1.3206   46.0209   57.0483 H   0  0  0  0  0  0  0  0  0  0  0  0
   -1.0342   44.2707   57.1271 H   0  0  0  0  0  0  0  0  0  0  0  0
    0.9275   46.5643   57.3473 H   0  0  0  0  0  0  0  0  0  0  0  0
    0.9651   44.9984   58.1720 H   0  0  0  0  0  0  0  0  0  0  0  0
    2.6207   45.5381   56.0846 H   0  0  0  0  0  0  0  0  0  0  0  0
    1.9748   43.9089   56.2962 H   0  0  0  0  0  0  0  0  0  0  0  0
    8.2512   42.2313   49.7767 H   0  0  0  0  0  0  0  0  0  0  0  0
    7.2062   42.4307   48.3633 H   0  0  0  0  0  0  0  0  0  0  0  0
    9.4381   44.0316   48.9545 H   0  0  0  0  0  0  0  0  0  0  0  0
    8.1303   44.5348   47.8704 H   0  0  0  0  0  0  0  0  0  0  0  0
    7.8715   46.2756   49.4978 H   0  0  0  0  0  0  0  0  0  0  0  0
    7.4152   47.4658   51.0433 H   0  0  0  0  0  0  0  0  0  0  0  0
    7.4515   49.2435   52.7893 H   0  0  0  0  0  0  0  0  0  0  0  0
    9.0068   49.0551   54.7343 H   0  0  0  0  0  0  0  0  0  0  0  0
   10.4884   45.2955   53.1917 H   0  0  0  0  0  0  0  0  0  0  0  0
    6.5010   44.9499   51.5285 H   0  0  0  0  0  0  0  0  0  0  0  0
    5.7446   45.3405   49.9790 H   0  0  0  0  0  0  0  0  0  0  0  0
  1  2  2  0
  2  3  1  0
  3  4  2  0
  4  5  1  0
  5  6  2  0
  6  7  1  0
  7  8  2  0
  7  9  1  0
  9 10  1  0
 10 11  2  0
 10 12  1  0
 12 13  1  0
 13 14  1  0
 14 15  1  0
 15 16  1  0
 16 17  1  0
  2 18  1  0
 18 19  1  0
 19 20  1  0
 20 21  1  0
 21 22  1  0
 22 23  1  0
 23 24  2  0
 24 25  1  0
 25 26  2  0
 26 27  1  0
 27 28  1  0
 27 29  2  0
 21 30  1  0
  8  3  1  0
 17 13  1  0
 30 18  1  0
 12  6  1  0
 29 23  1  0
  4 31  1  0
  5 32  1  0
  8 33  1  0
  9 34  1  0
 13 35  1  0
 14 36  1  0
 14 37  1  0
 15 38  1  0
 15 39  1  0
 16 40  1  0
 16 41  1  0
 17 42  1  0
 17 43  1  0
 19 44  1  0
 19 45  1  0
 20 46  1  0
 20 47  1  0
 21 48  1  6
 24 49  1  0
 25 50  1  0
 26 51  1  0
 29 52  1  0
 30 53  1  0
 30 54  1  0
M  END
>  <meeko>  (3) 
{"is_sidechain": [false], "free_energy": -9.031, "intermolecular_energy": -13.683, "internal_energy": 0.872}

$$$$
ligand_1_conformer_2_docked
     RDKit          3D

 54 58  0  0  0  0  0  0  0  0999 V2000
    3.3270   41.5920   50.8140 O   0  0  0  0  0  0  0  0  0  0  0  0
    2.9690   42.6880   51.3250 C   0  0  0  0  0  0  0  0  0  0  0  0
    4.0020   43.6770   51.6970 C   0  0  0  0  0  0  0  0  0  0  0  0
    5.1130   43.9100   50.8450 C   0  0  0  0  0  0  0  0  0  0  0  0
    6.1040   44.8430   51.1940 C   0  0  0  0  0  0  0  0  0  0  0  0
    5.9690   45.5190   52.4090 C   0  0  0  0  0  0  0  0  0  0  0  0
    4.9090   45.2780   53.2420 C   0  0  0  0  0  0  0  0  0  0  0  0
    3.9090   44.3620   52.9280 C   0  0  0  0  0  0  0  0  0  0  0  0
    5.0080   46.0450   54.3400 N   0  0  0  0  0  0  0  0  0  0  0  0
    6.1470   46.7470   54.1430 C   0  0  0  0  0  0  0  0  0  0  0  0
    6.5810   47.5920   54.9710 O   0  0  0  0  0  0  0  0  0  0  0  0
    6.7720   46.4530   52.9710 N   0  0  0  0  0  0  0  0  0  0  0  0
    8.0170   47.0570   52.4670 C   0  0  0  0  0  0  0  0  0  0  0  0
    8.9780   47.4540   53.5960 C   0  0  0  0  0  0  0  0  0  0  0  0
   10.3460   46.8850   53.2260 C   0  0  0  0  0  0  0  0  0  0  0  0
   10.2480   46.4270   51.7770 C   0  0  0  0  0  0  0  0  0  0  0  0
    8.7820   46.1140   51.5400 C   0  0  0  0  0  0  0  0  0  0  0  0
    1.5710   42.9500   51.5330 N   0  0  0  0  0  0  0  0  0  0  0  0
    0.6900   43.4110   50.4750 C   0  0  0  0  0  0  0  0  0  0  0  0
   -0.7250   43.2200   51.0050 C   0  0  0  0  0  0  0  0  0  0  0  0
   -0.5890   43.0420   52.5180 C   0  0  2  0  0  0  0  0  0  0  0  0
   -0.7990   44.3040   53.1580 O   0  0  0  0  0  0  0  0  0  0  0  0
   -0.3780   44.6360   54.4560 C   0  0  0  0  0  0  0  0  0  0  0  0
   -1.2590   44.4010   55.5200 C   0  0  0  0  0  0  0  0  0  0  0  0
   -0.8910   44.7170   56.8300 C   0  0  0  0  0  0  0  0  0  0  0  0
    0.3650   45.2730   57.0890 C   0  0  0  0  0  0  0  0  0  0  0  0
    1.2540   45.5110   56.0390 C   0  0  0  0  0  0  0  0  0  0  0  0
    2.4720   46.0500   56.2910 F   0  0  0  0  0  0  0  0  0  0  0  0
    0.8890   45.1930   54.7260 C   0  0  0  0  0  0  0  0  0  0  0  0
    0.8470   42.5620   52.7330 C   0  0  0  0  0  0  0  0  0  0  0  0
    5.1993   43.3535   49.9001 H   0  0  0  0  0  0  0  0  0  0  0  0
    6.9601   45.0353   50.5306 H   0  0  0  0  0  0  0  0  0  0  0  0
    3.0722   44.1776   53.6177 H   0  0  0  0  0  0  0  0  0  0  0  0
    4.3550   46.0920   55.1540 H   0  0  0  0  0  0  0  0  0  0  0  0
    7.6892   47.9523   51.9184 H   0  0  0  0  0  0  0  0  0  0  0  0
    9.0328   48.5494   53.6799 H   0  0  0  0  0  0  0  0  0  0  0  0
    8.6347   47.0622   54.5648 H   0  0  0  0  0  0  0  0  0  0  0  0
   11.1198   47.6601   53.3277 H   0  0  0  0  0  0  0  0  0  0  0  0
   10.6216   46.0511   53.8883 H   0  0  0  0  0  0  0  0  0  0  0  0
   10.5834   47.2259   51.0993 H   0  0  0  0  0  0  0  0  0  0  0  0
   10.8849   45.5508   51.5856 H   0  0  0  0  0  0  0  0  0  0  0  0
    8.5121   46.3018   50.4903 H   0  0  0  0  0  0  0  0  0  0  0  0
    8.5486   45.0584   51.7431 H   0  0  0  0  0  0  0  0  0  0  0  0
    0.8773   44.4724   50.2551 H   0  0  0  0  0  0  0  0  0  0  0  0
    0.8521   42.8544   49.5401 H   0  0  0  0  0  0  0  0  0  0  0  0
   -1.3404   44.1030   50.7780 H   0  0  0  0  0  0  0  0  0  0  0  0
   -1.2153   42.3520   50.5400 H   0  0  0  0  0  0  0  0  0  0  0  0
   -1.3186   42.3317   52.9342 H   0  0  0  0  0  0  0  0  0  0  0  0
   -2.2488   43.9640   55.3220 H   0  0  0  0  0  0  0  0  0  0  0  0
   -1.5900   44.5282   57.6581 H   0  0  0  0  0  0  0  0  0  0  0  0
    0.6532   45.5232   58.1207 H   0  0  0  0  0  0  0  0  0  0  0  0
    1.5931   45.3782   53.9014 H   0  0  0  0  0  0  0  0  0  0  0  0
    1.2850   43.0448   53.6190 H   0  0  0  0  0  0  0  0  0  0  0  0
    0.8928   41.4763   52.9037 H   0  0  0  0  0  0  0  0  0  0  0  0
  1  2  2  0
  2  3  1  0
  3  4  2  0
  4  5  1  0
  5  6  2  0
  6  7  1  0
  7  8  2  0
  7  9  1  0
  9 10  1  0
 10 11  2  0
 10 12  1  0
 12 13  1  0
 13 14  1  0
 14 15  1  0
 15 16  1  0
 16 17  1  0
  2 18  1  0
 18 19  1  0
 19 20  1  0
 20 21  1  0
 21 22  1  0
 22 23  1  0
 23 24  2  0
 24 25  1  0
 25 26  2  0
 26 27  1  0
 27 28  1  0
 27 29  2  0
 21 30  1  0
  8  3  1  0
 17 13  1  0
 30 18  1  0
 12  6  1  0
 29 23  1  0
  4 31  1  0
  5 32  1  0
  8 33  1  0
  9 34  1  0
 13 35  1  0
 14 36  1  0
 14 37  1  0
 15 38  1  0
 15 39  1  0
 16 40  1  0
 16 41  1  0
 17 42  1  0
 17 43  1  0
 19 44  1  0
 19 45  1  0
 20 46  1  0
 20 47  1  0
 21 48  1  1
 24 49  1  0
 25 50  1  0
 26 51  1  0
 29 52  1  0
 30 53  1  0
 30 54  1  0
M  END
>  <meeko>  (4) 
{"is_sidechain": [false], "free_energy": -9.027, "intermolecular_energy": -12.781, "internal_energy": -0.024}

$$$$
ligand_1_conformer_2_docked
     RDKit          3D

 54 58  0  0  0  0  0  0  0  0999 V2000
    2.7170   42.0280   50.8120 O   0  0  0  0  0  0  0  0  0  0  0  0
    2.9730   43.0740   51.4690 C   0  0  0  0  0  0  0  0  0  0  0  0
    4.3000   43.7050   51.3230 C   0  0  0  0  0  0  0  0  0  0  0  0
    4.6380   44.8520   52.0890 C   0  0  0  0  0  0  0  0  0  0  0  0
    5.8950   45.4640   51.9520 C   0  0  0  0  0  0  0  0  0  0  0  0
    6.7920   44.9190   51.0300 C   0  0  0  0  0  0  0  0  0  0  0  0
    6.4590   43.8260   50.2750 C   0  0  0  0  0  0  0  0  0  0  0  0
    5.2240   43.1940   50.3850 C   0  0  0  0  0  0  0  0  0  0  0  0
    7.4820   43.5000   49.4690 N   0  0  0  0  0  0  0  0  0  0  0  0
    8.4300   44.4200   49.7600 C   0  0  0  0  0  0  0  0  0  0  0  0
    9.5590   44.4390   49.1990 O   0  0  0  0  0  0  0  0  0  0  0  0
    8.0480   45.3130   50.7110 N   0  0  0  0  0  0  0  0  0  0  0  0
    8.8580   46.4190   51.2500 C   0  0  0  0  0  0  0  0  0  0  0  0
    8.0000   47.5380   51.8560 C   0  0  0  0  0  0  0  0  0  0  0  0
    8.5820   47.8370   53.2350 C   0  0  0  0  0  0  0  0  0  0  0  0
    9.9230   47.1200   53.3050 C   0  0  0  0  0  0  0  0  0  0  0  0
    9.8180   45.9520   52.3430 C   0  0  0  0  0  0  0  0  0  0  0  0
    1.9720   43.6250   52.3410 N   0  0  0  0  0  0  0  0  0  0  0  0
    1.4060   44.9500   52.1530 C   0  0  0  0  0  0  0  0  0  0  0  0
    0.1690   44.9980   53.0390 C   0  0  0  0  0  0  0  0  0  0  0  0
    0.3080   43.8360   54.0250 C   0  0  2  0  0  0  0  0  0  0  0  0
    0.8810   44.3220   55.2430 O   0  0  0  0  0  0  0  0  0  0  0  0
    0.2490   45.1910   56.1460 C   0  0  0  0  0  0  0  0  0  0  0  0
   -1.1460   45.3060   56.0890 C   0  0  0  0  0  0  0  0  0  0  0  0
   -1.8240   46.1610   56.9620 C   0  0  0  0  0  0  0  0  0  0  0  0
   -1.1110   46.9110   57.9020 C   0  0  0  0  0  0  0  0  0  0  0  0
    0.2800   46.8040   57.9710 C   0  0  0  0  0  0  0  0  0  0  0  0
    0.9700   47.5310   58.8830 F   0  0  0  0  0  0  0  0  0  0  0  0
    0.9610   45.9470   57.1000 C   0  0  0  0  0  0  0  0  0  0  0  0
    1.2550   42.8490   53.3410 C   0  0  0  0  0  0  0  0  0  0  0  0
    3.9065   45.2664   52.7984 H   0  0  0  0  0  0  0  0  0  0  0  0
    6.1648   46.3454   52.5523 H   0  0  0  0  0  0  0  0  0  0  0  0
    4.9751   42.3233   49.7606 H   0  0  0  0  0  0  0  0  0  0  0  0
    7.5350   42.7160   48.7800 H   0  0  0  0  0  0  0  0  0  0  0  0
    9.4177   46.8003   50.3832 H   0  0  0  0  0  0  0  0  0  0  0  0
    8.0451   48.4360   51.2224 H   0  0  0  0  0  0  0  0  0  0  0  0
    6.9454   47.2337   51.9285 H   0  0  0  0  0  0  0  0  0  0  0  0
    8.7238   48.9206   53.3605 H   0  0  0  0  0  0  0  0  0  0  0  0
    7.9069   47.4953   54.0334 H   0  0  0  0  0  0  0  0  0  0  0  0
   10.7352   47.7960   52.9995 H   0  0  0  0  0  0  0  0  0  0  0  0
   10.1491   46.7832   54.3275 H   0  0  0  0  0  0  0  0  0  0  0  0
   10.8033   45.7145   51.9155 H   0  0  0  0  0  0  0  0  0  0  0  0
    9.4606   45.0391   52.8418 H   0  0  0  0  0  0  0  0  0  0  0  0
    2.1272   45.7222   52.4588 H   0  0  0  0  0  0  0  0  0  0  0  0
    1.1581   45.1401   51.0983 H   0  0  0  0  0  0  0  0  0  0  0  0
    0.1239   45.9546   53.5802 H   0  0  0  0  0  0  0  0  0  0  0  0
   -0.7536   44.9137   52.4460 H   0  0  0  0  0  0  0  0  0  0  0  0
   -0.6547   43.3659   54.2743 H   0  0  0  0  0  0  0  0  0  0  0  0
   -1.7122   44.7186   55.3512 H   0  0  0  0  0  0  0  0  0  0  0  0
   -2.9196   46.2440   56.9095 H   0  0  0  0  0  0  0  0  0  0  0  0
   -1.6454   47.5854   58.5873 H   0  0  0  0  0  0  0  0  0  0  0  0
    2.0561   45.8625   57.1595 H   0  0  0  0  0  0  0  0  0  0  0  0
    1.9574   42.4214   54.0716 H   0  0  0  0  0  0  0  0  0  0  0  0
    0.7094   42.0074   52.8893 H   0  0  0  0  0  0  0  0  0  0  0  0
  1  2  2  0
  2  3  1  0
  3  4  2  0
  4  5  1  0
  5  6  2  0
  6  7  1  0
  7  8  2  0
  7  9  1  0
  9 10  1  0
 10 11  2  0
 10 12  1  0
 12 13  1  0
 13 14  1  0
 14 15  1  0
 15 16  1  0
 16 17  1  0
  2 18  1  0
 18 19  1  0
 19 20  1  0
 20 21  1  0
 21 22  1  0
 22 23  1  0
 23 24  2  0
 24 25  1  0
 25 26  2  0
 26 27  1  0
 27 28  1  0
 27 29  2  0
 21 30  1  0
  8  3  1  0
 17 13  1  0
 30 18  1  0
 12  6  1  0
 29 23  1  0
  4 31  1  0
  5 32  1  0
  8 33  1  0
  9 34  1  0
 13 35  1  0
 14 36  1  0
 14 37  1  0
 15 38  1  0
 15 39  1  0
 16 40  1  0
 16 41  1  0
 17 42  1  0
 17 43  1  0
 19 44  1  0
 19 45  1  0
 20 46  1  0
 20 47  1  0
 21 48  1  1
 24 49  1  0
 25 50  1  0
 26 51  1  0
 29 52  1  0
 30 53  1  0
 30 54  1  0
M  END
>  <meeko>  (5) 
{"is_sidechain": [false], "free_energy": -8.97, "intermolecular_energy": -12.659, "internal_energy": -0.072}

$$$$
