ligand_39_conformer_3_docked
     RDKit          3D

 49 52  0  0  0  0  0  0  0  0999 V2000
    6.1230   43.4640   50.0570 C   0  0  0  0  0  0  0  0  0  0  0  0
    7.2710   44.3700   50.0560 N   0  0  0  0  0  0  0  0  0  0  0  0
    8.3510   44.1770   49.0870 C   0  0  0  0  0  0  0  0  0  0  0  0
    7.3310   45.4750   50.9730 C   0  0  0  0  0  0  0  0  0  0  0  0
    8.5460   46.1590   51.1810 C   0  0  0  0  0  0  0  0  0  0  0  0
    8.6130   47.2530   52.0640 C   0  0  0  0  0  0  0  0  0  0  0  0
    7.4680   47.6760   52.7560 C   0  0  0  0  0  0  0  0  0  0  0  0
    6.2790   46.9850   52.5450 C   0  0  0  0  0  0  0  0  0  0  0  0
    4.7870   47.2600   53.2610 S   0  0  0  0  0  0  0  0  0  0  0  0
    4.0000   45.9890   52.4690 C   0  0  0  0  0  0  0  0  0  0  0  0
    2.5830   45.6360   52.6710 C   0  0  0  0  0  0  0  0  0  0  0  0
    1.6980   46.4840   52.3780 O   0  0  0  0  0  0  0  0  0  0  0  0
    2.2010   44.3420   53.1760 N   0  0  0  0  0  0  0  0  0  0  0  0
    0.8230   44.0040   53.5990 C   0  0  1  0  0  0  0  0  0  0  0  0
    0.4300   44.7560   54.8840 C   0  0  0  0  0  0  0  0  0  0  0  0
   -0.9310   44.9940   55.1880 C   0  0  0  0  0  0  0  0  0  0  0  0
   -1.3020   45.6360   56.3730 C   0  0  0  0  0  0  0  0  0  0  0  0
   -0.3300   46.0180   57.2960 C   0  0  0  0  0  0  0  0  0  0  0  0
    1.0120   45.7390   57.0470 C   0  0  0  0  0  0  0  0  0  0  0  0
    1.3910   45.0980   55.8640 C   0  0  0  0  0  0  0  0  0  0  0  0
   -0.1570   44.3390   52.4790 C   0  0  0  0  0  0  0  0  0  0  0  0
   -0.1000   43.1350   51.5500 C   0  0  0  0  0  0  0  0  0  0  0  0
    0.4500   41.9990   52.2980 N   0  0  0  0  0  0  0  0  0  0  0  0
    0.6990   42.4700   53.6620 C   0  0  0  0  0  0  0  0  0  0  0  0
    4.9130   45.3300   51.6380 C   0  0  0  0  0  0  0  0  0  0  0  0
    6.1920   45.9050   51.6790 C   0  0  0  0  0  0  0  0  0  0  0  0
    5.8357   43.2373   51.0943 H   0  0  0  0  0  0  0  0  0  0  0  0
    5.2785   43.9417   49.5387 H   0  0  0  0  0  0  0  0  0  0  0  0
    6.3913   42.5316   49.5387 H   0  0  0  0  0  0  0  0  0  0  0  0
    9.2974   44.0079   49.6216 H   0  0  0  0  0  0  0  0  0  0  0  0
    8.1256   43.3049   48.4556 H   0  0  0  0  0  0  0  0  0  0  0  0
    8.4416   45.0732   48.4556 H   0  0  0  0  0  0  0  0  0  0  0  0
    9.4515   45.8342   50.6475 H   0  0  0  0  0  0  0  0  0  0  0  0
    9.5677   47.7790   52.2123 H   0  0  0  0  0  0  0  0  0  0  0  0
    7.5093   48.5310   53.4468 H   0  0  0  0  0  0  0  0  0  0  0  0
    2.9380   43.6040   53.2330 H   0  0  0  0  0  0  0  0  0  0  0  0
   -1.7089   44.6690   54.4814 H   0  0  0  0  0  0  0  0  0  0  0  0
   -2.3634   45.8402   56.5775 H   0  0  0  0  0  0  0  0  0  0  0  0
   -0.6221   46.5390   58.2197 H   0  0  0  0  0  0  0  0  0  0  0  0
    1.7767   46.0243   57.7845 H   0  0  0  0  0  0  0  0  0  0  0  0
    2.4504   44.8564   55.6929 H   0  0  0  0  0  0  0  0  0  0  0  0
   -1.1729   44.4739   52.8787 H   0  0  0  0  0  0  0  0  0  0  0  0
    0.1003   45.2767   51.9647 H   0  0  0  0  0  0  0  0  0  0  0  0
   -1.1123   42.8912   51.1952 H   0  0  0  0  0  0  0  0  0  0  0  0
    0.5354   43.3583   50.6803 H   0  0  0  0  0  0  0  0  0  0  0  0
    1.3720   41.7390   51.8720 H   0  0  0  0  0  0  0  0  0  0  0  0
   -0.1377   42.1862   54.3173 H   0  0  0  0  0  0  0  0  0  0  0  0
    1.6169   42.0206   54.0687 H   0  0  0  0  0  0  0  0  0  0  0  0
    4.6560   44.4568   51.0203 H   0  0  0  0  0  0  0  0  0  0  0  0
  1  2  1  0
  2  3  1  0
  2  4  1  0
  4  5  2  0
  5  6  1  0
  6  7  2  0
  7  8  1  0
  8  9  1  0
  9 10  1  0
 10 11  1  0
 11 12  2  0
 11 13  1  0
 14 13  1  6
 14 15  1  0
 15 16  2  0
 16 17  1  0
 17 18  2  0
 18 19  1  0
 19 20  2  0
 14 21  1  0
 21 22  1  0
 22 23  1  0
 23 24  1  0
 10 25  2  0
 25 26  1  0
 26  4  1  0
 26  8  2  0
 24 14  1  0
 20 15  1  0
  1 27  1  0
  1 28  1  0
  1 29  1  0
  3 30  1  0
  3 31  1  0
  3 32  1  0
  5 33  1  0
  6 34  1  0
  7 35  1  0
 13 36  1  0
 16 37  1  0
 17 38  1  0
 18 39  1  0
 19 40  1  0
 20 41  1  0
 21 42  1  0
 21 43  1  0
 22 44  1  0
 22 45  1  0
 23 46  1  0
 24 47  1  0
 24 48  1  0
 25 49  1  0
M  END
>  <meeko>  (1) 
{"is_sidechain": [false], "free_energy": -8.729, "intermolecular_energy": -10.77, "internal_energy": 0.771}

$$$$
ligand_39_conformer_3_docked
     RDKit          3D

 49 52  0  0  0  0  0  0  0  0999 V2000
   -1.1180   46.8220   57.1810 C   0  0  0  0  0  0  0  0  0  0  0  0
   -0.5720   45.6060   56.5790 N   0  0  0  0  0  0  0  0  0  0  0  0
    0.5740   44.9370   57.1980 C   0  0  0  0  0  0  0  0  0  0  0  0
   -1.1750   45.0370   55.4050 C   0  0  0  0  0  0  0  0  0  0  0  0
   -2.5100   44.5870   55.4420 C   0  0  0  0  0  0  0  0  0  0  0  0
   -3.1170   44.0440   54.2940 C   0  0  0  0  0  0  0  0  0  0  0  0
   -2.3980   43.9390   53.0940 C   0  0  0  0  0  0  0  0  0  0  0  0
   -1.0790   44.3820   53.0770 C   0  0  0  0  0  0  0  0  0  0  0  0
    0.0040   44.3430   51.7970 S   0  0  0  0  0  0  0  0  0  0  0  0
    1.2910   45.0190   52.6640 C   0  0  0  0  0  0  0  0  0  0  0  0
    2.6340   45.2570   52.1040 C   0  0  0  0  0  0  0  0  0  0  0  0
    2.7320   45.7820   50.9620 O   0  0  0  0  0  0  0  0  0  0  0  0
    3.8220   44.9180   52.8450 N   0  0  0  0  0  0  0  0  0  0  0  0
    5.1820   44.9340   52.2610 C   0  0  1  0  0  0  0  0  0  0  0  0
    5.3650   43.8010   51.2340 C   0  0  0  0  0  0  0  0  0  0  0  0
    6.3650   43.8910   50.2370 C   0  0  0  0  0  0  0  0  0  0  0  0
    6.5690   42.8490   49.3280 C   0  0  0  0  0  0  0  0  0  0  0  0
    5.8120   41.6820   49.4170 C   0  0  0  0  0  0  0  0  0  0  0  0
    4.8640   41.5460   50.4290 C   0  0  0  0  0  0  0  0  0  0  0  0
    4.6530   42.5840   51.3410 C   0  0  0  0  0  0  0  0  0  0  0  0
    5.4430   46.2840   51.5990 C   0  0  0  0  0  0  0  0  0  0  0  0
    5.8770   47.1910   52.7420 C   0  0  0  0  0  0  0  0  0  0  0  0
    6.3230   46.3480   53.8570 N   0  0  0  0  0  0  0  0  0  0  0  0
    6.2040   44.9580   53.4130 C   0  0  0  0  0  0  0  0  0  0  0  0
    0.8780   45.2720   53.9760 C   0  0  0  0  0  0  0  0  0  0  0  0
   -0.4620   44.9200   54.1980 C   0  0  0  0  0  0  0  0  0  0  0  0
   -1.0800   46.7374   58.2771 H   0  0  0  0  0  0  0  0  0  0  0  0
   -0.5230   47.6894   56.8593 H   0  0  0  0  0  0  0  0  0  0  0  0
   -2.1616   46.9537   56.8593 H   0  0  0  0  0  0  0  0  0  0  0  0
    0.4823   44.9905   58.2929 H   0  0  0  0  0  0  0  0  0  0  0  0
    0.5975   43.8833   56.8831 H   0  0  0  0  0  0  0  0  0  0  0  0
    1.5031   45.4346   56.8831 H   0  0  0  0  0  0  0  0  0  0  0  0
   -3.0836   44.6609   56.3777 H   0  0  0  0  0  0  0  0  0  0  0  0
   -4.1609   43.7001   54.3380 H   0  0  0  0  0  0  0  0  0  0  0  0
   -2.8642   43.5179   52.1910 H   0  0  0  0  0  0  0  0  0  0  0  0
    3.7120   44.6600   53.8520 H   0  0  0  0  0  0  0  0  0  0  0  0
    6.9907   44.7937   50.1764 H   0  0  0  0  0  0  0  0  0  0  0  0
    7.3295   42.9503   48.5397 H   0  0  0  0  0  0  0  0  0  0  0  0
    5.9627   40.8703   48.6900 H   0  0  0  0  0  0  0  0  0  0  0  0
    4.2792   40.6179   50.5106 H   0  0  0  0  0  0  0  0  0  0  0  0
    3.9230   42.4523   52.1532 H   0  0  0  0  0  0  0  0  0  0  0  0
    6.2397   46.1999   50.8452 H   0  0  0  0  0  0  0  0  0  0  0  0
    4.5579   46.6696   51.0718 H   0  0  0  0  0  0  0  0  0  0  0  0
    6.7034   47.8369   52.4107 H   0  0  0  0  0  0  0  0  0  0  0  0
    5.0375   47.8266   53.0604 H   0  0  0  0  0  0  0  0  0  0  0  0
    5.6650   46.4900   54.6600 H   0  0  0  0  0  0  0  0  0  0  0  0
    7.1787   44.5904   53.0598 H   0  0  0  0  0  0  0  0  0  0  0  0
    5.8760   44.3107   54.2397 H   0  0  0  0  0  0  0  0  0  0  0  0
    1.5323   45.7003   54.7496 H   0  0  0  0  0  0  0  0  0  0  0  0
  1  2  1  0
  2  3  1  0
  2  4  1  0
  4  5  2  0
  5  6  1  0
  6  7  2  0
  7  8  1  0
  8  9  1  0
  9 10  1  0
 10 11  1  0
 11 12  2  0
 11 13  1  0
 14 13  1  1
 14 15  1  0
 15 16  2  0
 16 17  1  0
 17 18  2  0
 18 19  1  0
 19 20  2  0
 14 21  1  0
 21 22  1  0
 22 23  1  0
 23 24  1  0
 10 25  2  0
 25 26  1  0
 26  4  1  0
 26  8  2  0
 24 14  1  0
 20 15  1  0
  1 27  1  0
  1 28  1  0
  1 29  1  0
  3 30  1  0
  3 31  1  0
  3 32  1  0
  5 33  1  0
  6 34  1  0
  7 35  1  0
 13 36  1  0
 16 37  1  0
 17 38  1  0
 18 39  1  0
 19 40  1  0
 20 41  1  0
 21 42  1  0
 21 43  1  0
 22 44  1  0
 22 45  1  0
 23 46  1  0
 24 47  1  0
 24 48  1  0
 25 49  1  0
M  END
>  <meeko>  (2) 
{"is_sidechain": [false], "free_energy": -8.435, "intermolecular_energy": -9.711, "internal_energy": 0.075}

$$$$
ligand_39_conformer_3_docked
     RDKit          3D

 49 52  0  0  0  0  0  0  0  0999 V2000
   -2.7960   44.4500   49.9470 C   0  0  0  0  0  0  0  0  0  0  0  0
   -2.8090   45.3890   51.0690 N   0  0  0  0  0  0  0  0  0  0  0  0
   -3.2540   46.7670   50.8610 C   0  0  0  0  0  0  0  0  0  0  0  0
   -2.4240   44.9590   52.3850 C   0  0  0  0  0  0  0  0  0  0  0  0
   -3.4090   44.6140   53.3340 C   0  0  0  0  0  0  0  0  0  0  0  0
   -3.0440   44.1750   54.6210 C   0  0  0  0  0  0  0  0  0  0  0  0
   -1.6910   44.0790   54.9800 C   0  0  0  0  0  0  0  0  0  0  0  0
   -0.7330   44.4310   54.0340 C   0  0  0  0  0  0  0  0  0  0  0  0
    0.9350   44.4380   54.2110 S   0  0  0  0  0  0  0  0  0  0  0  0
    1.2540   45.0040   52.6490 C   0  0  0  0  0  0  0  0  0  0  0  0
    2.6050   45.2700   52.1220 C   0  0  0  0  0  0  0  0  0  0  0  0
    2.7200   45.8370   51.0020 O   0  0  0  0  0  0  0  0  0  0  0  0
    3.7820   44.9110   52.8720 N   0  0  0  0  0  0  0  0  0  0  0  0
    5.1520   44.9560   52.3130 C   0  0  1  0  0  0  0  0  0  0  0  0
    5.3690   43.8430   51.2720 C   0  0  0  0  0  0  0  0  0  0  0  0
    6.3830   43.9650   50.2920 C   0  0  0  0  0  0  0  0  0  0  0  0
    6.6190   42.9410   49.3700 C   0  0  0  0  0  0  0  0  0  0  0  0
    5.8800   41.7610   49.4290 C   0  0  0  0  0  0  0  0  0  0  0  0
    4.9190   41.5920   50.4240 C   0  0  0  0  0  0  0  0  0  0  0  0
    4.6760   42.6120   51.3490 C   0  0  0  0  0  0  0  0  0  0  0  0
    5.4050   46.3200   51.6780 C   0  0  0  0  0  0  0  0  0  0  0  0
    5.8040   47.2150   52.8430 C   0  0  0  0  0  0  0  0  0  0  0  0
    6.2430   46.3610   53.9520 N   0  0  0  0  0  0  0  0  0  0  0  0
    6.1520   44.9760   53.4850 C   0  0  0  0  0  0  0  0  0  0  0  0
    0.0430   45.2010   51.9770 C   0  0  0  0  0  0  0  0  0  0  0  0
   -1.0720   44.8650   52.7610 C   0  0  0  0  0  0  0  0  0  0  0  0
   -2.7817   43.4195   50.3315 H   0  0  0  0  0  0  0  0  0  0  0  0
   -3.6963   44.5999   49.3330 H   0  0  0  0  0  0  0  0  0  0  0  0
   -1.9002   44.6247   49.3330 H   0  0  0  0  0  0  0  0  0  0  0  0
   -3.4108   47.2527   51.8354 H   0  0  0  0  0  0  0  0  0  0  0  0
   -2.4882   47.3182   50.2956 H   0  0  0  0  0  0  0  0  0  0  0  0
   -4.1976   46.7662   50.2956 H   0  0  0  0  0  0  0  0  0  0  0  0
   -4.4732   44.6887   53.0658 H   0  0  0  0  0  0  0  0  0  0  0  0
   -3.8236   43.9059   55.3489 H   0  0  0  0  0  0  0  0  0  0  0  0
   -1.3955   43.7348   55.9821 H   0  0  0  0  0  0  0  0  0  0  0  0
    3.6550   44.6170   53.8660 H   0  0  0  0  0  0  0  0  0  0  0  0
    6.9942   44.8788   50.2553 H   0  0  0  0  0  0  0  0  0  0  0  0
    7.3902   43.0671   48.5958 H   0  0  0  0  0  0  0  0  0  0  0  0
    6.0550   40.9641   48.6912 H   0  0  0  0  0  0  0  0  0  0  0  0
    4.3495   40.6527   50.4819 H   0  0  0  0  0  0  0  0  0  0  0  0
    3.9359   42.4552   52.1475 H   0  0  0  0  0  0  0  0  0  0  0  0
    6.2168   46.2598   50.9382 H   0  0  0  0  0  0  0  0  0  0  0  0
    4.5240   46.7010   51.1406 H   0  0  0  0  0  0  0  0  0  0  0  0
    6.6260   47.8790   52.5372 H   0  0  0  0  0  0  0  0  0  0  0  0
    4.9491   47.8324   53.1561 H   0  0  0  0  0  0  0  0  0  0  0  0
    5.5680   46.4790   54.7460 H   0  0  0  0  0  0  0  0  0  0  0  0
    7.1383   44.6272   53.1451 H   0  0  0  0  0  0  0  0  0  0  0  0
    5.8177   44.3115   54.2954 H   0  0  0  0  0  0  0  0  0  0  0  0
   -0.0279   45.5782   50.9461 H   0  0  0  0  0  0  0  0  0  0  0  0
  1  2  1  0
  2  3  1  0
  2  4  1  0
  4  5  2  0
  5  6  1  0
  6  7  2  0
  7  8  1  0
  8  9  1  0
  9 10  1  0
 10 11  1  0
 11 12  2  0
 11 13  1  0
 14 13  1  1
 14 15  1  0
 15 16  2  0
 16 17  1  0
 17 18  2  0
 18 19  1  0
 19 20  2  0
 14 21  1  0
 21 22  1  0
 22 23  1  0
 23 24  1  0
 10 25  2  0
 25 26  1  0
 26  4  1  0
 26  8  2  0
 24 14  1  0
 20 15  1  0
  1 27  1  0
  1 28  1  0
  1 29  1  0
  3 30  1  0
  3 31  1  0
  3 32  1  0
  5 33  1  0
  6 34  1  0
  7 35  1  0
 13 36  1  0
 16 37  1  0
 17 38  1  0
 18 39  1  0
 19 40  1  0
 20 41  1  0
 21 42  1  0
 21 43  1  0
 22 44  1  0
 22 45  1  0
 23 46  1  0
 24 47  1  0
 24 48  1  0
 25 49  1  0
M  END
>  <meeko>  (3) 
{"is_sidechain": [false], "free_energy": -8.42, "intermolecular_energy": -9.532, "internal_energy": -0.086}

$$$$
ligand_39_conformer_3_docked
     RDKit          3D

 49 52  0  0  0  0  0  0  0  0999 V2000
   -0.9850   45.1520   52.0130 C   0  0  0  0  0  0  0  0  0  0  0  0
   -0.4500   44.1740   52.9610 N   0  0  0  0  0  0  0  0  0  0  0  0
   -0.4740   42.7490   52.6290 C   0  0  0  0  0  0  0  0  0  0  0  0
    0.1370   44.6030   54.2000 C   0  0  0  0  0  0  0  0  0  0  0  0
   -0.6040   44.5320   55.3980 C   0  0  0  0  0  0  0  0  0  0  0  0
   -0.0330   44.9340   56.6200 C   0  0  0  0  0  0  0  0  0  0  0  0
    1.2830   45.4160   56.6640 C   0  0  0  0  0  0  0  0  0  0  0  0
    1.9970   45.4860   55.4720 C   0  0  0  0  0  0  0  0  0  0  0  0
    3.5610   46.0480   55.2400 S   0  0  0  0  0  0  0  0  0  0  0  0
    3.5670   45.7990   53.5660 C   0  0  0  0  0  0  0  0  0  0  0  0
    4.7030   46.1240   52.6830 C   0  0  0  0  0  0  0  0  0  0  0  0
    4.4700   46.6590   51.5660 O   0  0  0  0  0  0  0  0  0  0  0  0
    6.0600   45.8560   53.0860 N   0  0  0  0  0  0  0  0  0  0  0  0
    7.2190   45.9600   52.1700 C   0  0  1  0  0  0  0  0  0  0  0  0
    7.1540   44.8940   51.0600 C   0  0  0  0  0  0  0  0  0  0  0  0
    6.0740   43.9820   51.0050 C   0  0  0  0  0  0  0  0  0  0  0  0
    5.9810   43.0390   49.9760 C   0  0  0  0  0  0  0  0  0  0  0  0
    6.9370   43.0120   48.9620 C   0  0  0  0  0  0  0  0  0  0  0  0
    7.9760   43.9420   48.9620 C   0  0  0  0  0  0  0  0  0  0  0  0
    8.0760   44.8860   49.9880 C   0  0  0  0  0  0  0  0  0  0  0  0
    7.2650   47.3540   51.5520 C   0  0  0  0  0  0  0  0  0  0  0  0
    7.9600   48.2130   52.5990 C   0  0  0  0  0  0  0  0  0  0  0  0
    8.7030   47.3270   53.5030 N   0  0  0  0  0  0  0  0  0  0  0  0
    8.5060   45.9610   53.0170 C   0  0  0  0  0  0  0  0  0  0  0  0
    2.3290   45.2790   53.1750 C   0  0  0  0  0  0  0  0  0  0  0  0
    1.4540   45.0950   54.2570 C   0  0  0  0  0  0  0  0  0  0  0  0
   -1.4415   45.9865   52.5655 H   0  0  0  0  0  0  0  0  0  0  0  0
   -0.1699   45.5334   51.3804 H   0  0  0  0  0  0  0  0  0  0  0  0
   -1.7458   44.6713   51.3804 H   0  0  0  0  0  0  0  0  0  0  0  0
   -0.4840   42.1567   53.5559 H   0  0  0  0  0  0  0  0  0  0  0  0
   -1.3761   42.5247   52.0408 H   0  0  0  0  0  0  0  0  0  0  0  0
    0.4200   42.4944   52.0408 H   0  0  0  0  0  0  0  0  0  0  0  0
   -1.6385   44.1587   55.3771 H   0  0  0  0  0  0  0  0  0  0  0  0
   -0.6228   44.8697   57.5463 H   0  0  0  0  0  0  0  0  0  0  0  0
    1.7383   45.7301   57.6148 H   0  0  0  0  0  0  0  0  0  0  0  0
    6.2300   45.5880   54.0810 H   0  0  0  0  0  0  0  0  0  0  0  0
    5.2964   44.0148   51.7823 H   0  0  0  0  0  0  0  0  0  0  0  0
    5.1513   42.3169   49.9670 H   0  0  0  0  0  0  0  0  0  0  0  0
    6.8719   42.2585   48.1633 H   0  0  0  0  0  0  0  0  0  0  0  0
    8.7197   43.9327   48.1516 H   0  0  0  0  0  0  0  0  0  0  0  0
    8.8831   45.6329   49.9611 H   0  0  0  0  0  0  0  0  0  0  0  0
    7.8390   47.3445   50.6137 H   0  0  0  0  0  0  0  0  0  0  0  0
    6.2636   47.7322   51.2986 H   0  0  0  0  0  0  0  0  0  0  0  0
    8.6547   48.9097   52.1070 H   0  0  0  0  0  0  0  0  0  0  0  0
    7.2179   48.7955   53.1646 H   0  0  0  0  0  0  0  0  0  0  0  0
    8.2760   47.3970   54.4570 H   0  0  0  0  0  0  0  0  0  0  0  0
    9.3633   45.6531   52.4003 H   0  0  0  0  0  0  0  0  0  0  0  0
    8.4211   45.2560   53.8571 H   0  0  0  0  0  0  0  0  0  0  0  0
    2.0693   45.0402   52.1331 H   0  0  0  0  0  0  0  0  0  0  0  0
  1  2  1  0
  2  3  1  0
  2  4  1  0
  4  5  2  0
  5  6  1  0
  6  7  2  0
  7  8  1  0
  8  9  1  0
  9 10  1  0
 10 11  1  0
 11 12  2  0
 11 13  1  0
 14 13  1  1
 14 15  1  0
 15 16  2  0
 16 17  1  0
 17 18  2  0
 18 19  1  0
 19 20  2  0
 14 21  1  0
 21 22  1  0
 22 23  1  0
 23 24  1  0
 10 25  2  0
 25 26  1  0
 26  4  1  0
 26  8  2  0
 24 14  1  0
 20 15  1  0
  1 27  1  0
  1 28  1  0
  1 29  1  0
  3 30  1  0
  3 31  1  0
  3 32  1  0
  5 33  1  0
  6 34  1  0
  7 35  1  0
 13 36  1  0
 16 37  1  0
 17 38  1  0
 18 39  1  0
 19 40  1  0
 20 41  1  0
 21 42  1  0
 21 43  1  0
 22 44  1  0
 22 45  1  0
 23 46  1  0
 24 47  1  0
 24 48  1  0
 25 49  1  0
M  END
>  <meeko>  (4) 
{"is_sidechain": [false], "free_energy": -8.267, "intermolecular_energy": -9.805, "internal_energy": 0.376}

$$$$
ligand_39_conformer_3_docked
     RDKit          3D

 49 52  0  0  0  0  0  0  0  0999 V2000
    5.9570   42.3340   47.9690 C   0  0  0  0  0  0  0  0  0  0  0  0
    6.4310   42.3960   49.3520 N   0  0  0  0  0  0  0  0  0  0  0  0
    6.8400   41.1700   50.0380 C   0  0  0  0  0  0  0  0  0  0  0  0
    6.5360   43.6570   50.0320 C   0  0  0  0  0  0  0  0  0  0  0  0
    7.6810   44.4620   49.8580 C   0  0  0  0  0  0  0  0  0  0  0  0
    7.7870   45.7080   50.5050 C   0  0  0  0  0  0  0  0  0  0  0  0
    6.7560   46.1650   51.3380 C   0  0  0  0  0  0  0  0  0  0  0  0
    5.6370   45.3550   51.5040 C   0  0  0  0  0  0  0  0  0  0  0  0
    4.2880   45.6440   52.4580 S   0  0  0  0  0  0  0  0  0  0  0  0
    3.5160   44.1860   52.0800 C   0  0  0  0  0  0  0  0  0  0  0  0
    2.2150   43.7680   52.6330 C   0  0  0  0  0  0  0  0  0  0  0  0
    2.1040   42.6110   53.1190 O   0  0  0  0  0  0  0  0  0  0  0  0
    1.0860   44.6640   52.6410 N   0  0  0  0  0  0  0  0  0  0  0  0
   -0.2910   44.2400   52.9820 C   0  0  1  0  0  0  0  0  0  0  0  0
   -0.5700   44.3990   54.4880 C   0  0  0  0  0  0  0  0  0  0  0  0
    0.3830   45.0170   55.3330 C   0  0  0  0  0  0  0  0  0  0  0  0
    0.1220   45.2070   56.6930 C   0  0  0  0  0  0  0  0  0  0  0  0
   -1.1050   44.8230   57.2310 C   0  0  0  0  0  0  0  0  0  0  0  0
   -2.0830   44.2700   56.4070 C   0  0  0  0  0  0  0  0  0  0  0  0
   -1.8290   44.0760   55.0460 C   0  0  0  0  0  0  0  0  0  0  0  0
   -1.2960   45.0580   52.1770 C   0  0  0  0  0  0  0  0  0  0  0  0
   -1.3670   44.3550   50.8290 C   0  0  0  0  0  0  0  0  0  0  0  0
   -0.8640   42.9870   50.9950 N   0  0  0  0  0  0  0  0  0  0  0  0
   -0.5190   42.8290   52.4090 C   0  0  0  0  0  0  0  0  0  0  0  0
    4.3230   43.4540   51.2040 C   0  0  0  0  0  0  0  0  0  0  0  0
    5.5120   44.1240   50.8750 C   0  0  0  0  0  0  0  0  0  0  0  0
    4.8663   42.1913   47.9613 H   0  0  0  0  0  0  0  0  0  0  0  0
    6.2077   43.2726   47.4530 H   0  0  0  0  0  0  0  0  0  0  0  0
    6.4407   41.4915   47.4530 H   0  0  0  0  0  0  0  0  0  0  0  0
    6.7886   41.3240   51.1260 H   0  0  0  0  0  0  0  0  0  0  0  0
    6.1674   40.3479   49.7519 H   0  0  0  0  0  0  0  0  0  0  0  0
    7.8714   40.9164   49.7519 H   0  0  0  0  0  0  0  0  0  0  0  0
    8.4990   44.1130   49.2106 H   0  0  0  0  0  0  0  0  0  0  0  0
    8.6842   46.3267   50.3560 H   0  0  0  0  0  0  0  0  0  0  0  0
    6.8298   47.1376   51.8465 H   0  0  0  0  0  0  0  0  0  0  0  0
    1.2580   45.6670   52.4050 H   0  0  0  0  0  0  0  0  0  0  0  0
    1.3428   45.3525   54.9132 H   0  0  0  0  0  0  0  0  0  0  0  0
    0.8870   45.6607   57.3403 H   0  0  0  0  0  0  0  0  0  0  0  0
   -1.3011   44.9564   58.3051 H   0  0  0  0  0  0  0  0  0  0  0  0
   -3.0582   43.9851   56.8287 H   0  0  0  0  0  0  0  0  0  0  0  0
   -2.6194   43.6664   54.3999 H   0  0  0  0  0  0  0  0  0  0  0  0
   -2.2802   45.0572   52.6682 H   0  0  0  0  0  0  0  0  0  0  0  0
   -0.9976   46.1126   52.0835 H   0  0  0  0  0  0  0  0  0  0  0  0
   -2.4092   44.3279   50.4782 H   0  0  0  0  0  0  0  0  0  0  0  0
   -0.7590   44.8947   50.0880 H   0  0  0  0  0  0  0  0  0  0  0  0
    0.0170   42.8900   50.4340 H   0  0  0  0  0  0  0  0  0  0  0  0
   -1.3419   42.3331   52.9446 H   0  0  0  0  0  0  0  0  0  0  0  0
    0.3830   42.2101   52.5243 H   0  0  0  0  0  0  0  0  0  0  0  0
    4.0553   42.4606   50.8147 H   0  0  0  0  0  0  0  0  0  0  0  0
  1  2  1  0
  2  3  1  0
  2  4  1  0
  4  5  2  0
  5  6  1  0
  6  7  2  0
  7  8  1  0
  8  9  1  0
  9 10  1  0
 10 11  1  0
 11 12  2  0
 11 13  1  0
 14 13  1  1
 14 15  1  0
 15 16  2  0
 16 17  1  0
 17 18  2  0
 18 19  1  0
 19 20  2  0
 14 21  1  0
 21 22  1  0
 22 23  1  0
 23 24  1  0
 10 25  2  0
 25 26  1  0
 26  4  1  0
 26  8  2  0
 24 14  1  0
 20 15  1  0
  1 27  1  0
  1 28  1  0
  1 29  1  0
  3 30  1  0
  3 31  1  0
  3 32  1  0
  5 33  1  0
  6 34  1  0
  7 35  1  0
 13 36  1  0
 16 37  1  0
 17 38  1  0
 18 39  1  0
 19 40  1  0
 20 41  1  0
 21 42  1  0
 21 43  1  0
 22 44  1  0
 22 45  1  0
 23 46  1  0
 24 47  1  0
 24 48  1  0
 25 49  1  0
M  END
>  <meeko>  (5) 
{"is_sidechain": [false], "free_energy": -8.198, "intermolecular_energy": -9.29, "internal_energy": -0.054}

$$$$
