MODEL 1
REMARK VINA RESULT:    -9.079      0.000      0.000
REMARK INTER + INTRA:         -11.545
REMARK INTER:                 -10.936
REMARK INTRA:                  -0.608
REMARK UNBOUND:                -0.608
REMARK SMILES Cc1ccc(SCC(=O)N2CCC3(CC2)C[C@H](O)CCO3)cc1
REMARK SMILES IDX 7 1 6 2 5 3 2 4 3 5 23 6 4 7 22 8 1 9 8 10 9 11 10 12 11 13
REMARK SMILES IDX 15 14 12 15 14 16 13 17 16 18 21 19 17 20 20 21 19 22 18 23
REMARK H PARENT 18 24
ROOT
ATOM      1  C   UNL     1       8.299  46.138  53.339  1.00  0.00     0.175 C 
ENDROOT
BRANCH   1   2
ATOM      2  S   UNL     1       8.239  46.992  51.725  1.00  0.00    -0.116 SA
BRANCH   2   3
ATOM      3  C   UNL     1       7.626  45.565  50.821  1.00  0.00     0.008 A 
ATOM      4  C   UNL     1       6.673  43.323  49.422  1.00  0.00    -0.051 A 
ATOM      5  C   UNL     1       8.027  43.687  49.339  1.00  0.00     0.004 A 
ATOM      6  C   UNL     1       5.794  44.103  50.190  1.00  0.00     0.004 A 
ATOM      7  C   UNL     1       8.502  44.798  50.044  1.00  0.00     0.015 A 
ATOM      8  C   UNL     1       6.272  45.212  50.897  1.00  0.00     0.015 A 
ATOM      9  C   UNL     1       6.156  42.145  48.647  1.00  0.00     0.044 C 
ENDBRANCH   2   3
ENDBRANCH   1   2
BRANCH   1  10
ATOM     10  C   UNL     1       7.364  46.781  54.324  1.00  0.00     0.232 C 
ATOM     11  O   UNL     1       7.747  47.800  54.960  1.00  0.00    -0.274 OA
ATOM     12  N   UNL     1       6.041  46.264  54.546  1.00  0.00    -0.342 N 
ATOM     13  C   UNL     1       4.916  47.201  54.646  1.00  0.00     0.122 C 
ATOM     14  C   UNL     1       5.782  44.822  54.621  1.00  0.00     0.122 C 
ATOM     15  C   UNL     1       3.593  46.464  54.892  1.00  0.00     0.057 C 
ATOM     16  C   UNL     1       4.658  44.473  53.645  1.00  0.00     0.057 C 
ATOM     17  C   UNL     1       3.342  45.307  53.876  1.00  0.00     0.074 C 
ATOM     18  C   UNL     1       2.200  44.425  54.487  1.00  0.00     0.067 C 
ATOM     19  O   UNL     1       2.923  45.928  52.660  1.00  0.00    -0.375 OA
ATOM     20  C   UNL     1       1.496  43.513  53.471  1.00  0.00     0.119 C 
ATOM     21  C   UNL     1       2.431  45.007  51.700  1.00  0.00     0.163 C 
ATOM     22  C   UNL     1       1.175  44.301  52.202  1.00  0.00     0.060 C 
BRANCH  20  23
ATOM     23  O   UNL     1       2.297  42.400  53.173  1.00  0.00    -0.393 OA
ATOM     24  H   UNL     1       1.883  41.616  53.620  1.00  0.00     0.210 HD
ENDBRANCH  20  23
ENDBRANCH   1  10
TORSDOF 4
ENDMDL
MODEL 2
REMARK VINA RESULT:    -8.772      2.310      5.180
REMARK INTER + INTRA:         -11.175
REMARK INTER:                 -10.315
REMARK INTRA:                  -0.860
REMARK UNBOUND:                -0.608
REMARK SMILES Cc1ccc(SCC(=O)N2CCC3(CC2)C[C@H](O)CCO3)cc1
REMARK SMILES IDX 7 1 6 2 5 3 2 4 3 5 23 6 4 7 22 8 1 9 8 10 9 11 10 12 11 13
REMARK SMILES IDX 15 14 12 15 14 16 13 17 16 18 21 19 17 20 20 21 19 22 18 23
REMARK H PARENT 18 24
ROOT
ATOM      1  C   UNL     1       1.662  46.048  53.305  1.00  0.00     0.175 C 
ENDROOT
BRANCH   1   2
ATOM      2  S   UNL     1       1.003  44.725  52.231  1.00  0.00    -0.116 SA
BRANCH   2   3
ATOM      3  C   UNL     1       2.610  44.232  51.594  1.00  0.00     0.008 A 
ATOM      4  C   UNL     1       5.129  43.467  50.615  1.00  0.00    -0.051 A 
ATOM      5  C   UNL     1       4.708  44.804  50.520  1.00  0.00     0.004 A 
ATOM      6  C   UNL     1       4.270  42.512  51.181  1.00  0.00     0.004 A 
ATOM      7  C   UNL     1       3.457  45.186  51.017  1.00  0.00     0.015 A 
ATOM      8  C   UNL     1       3.021  42.896  51.680  1.00  0.00     0.015 A 
ATOM      9  C   UNL     1       6.461  43.052  50.061  1.00  0.00     0.044 C 
ENDBRANCH   2   3
ENDBRANCH   1   2
BRANCH   1  10
ATOM     10  C   UNL     1       2.526  45.478  54.394  1.00  0.00     0.232 C 
ATOM     11  O   UNL     1       2.040  44.622  55.181  1.00  0.00    -0.274 OA
ATOM     12  N   UNL     1       3.897  45.882  54.548  1.00  0.00    -0.342 N 
ATOM     13  C   UNL     1       4.917  44.860  54.814  1.00  0.00     0.122 C 
ATOM     14  C   UNL     1       4.308  47.282  54.394  1.00  0.00     0.122 C 
ATOM     15  C   UNL     1       6.312  45.484  54.957  1.00  0.00     0.057 C 
ATOM     16  C   UNL     1       5.460  47.348  53.390  1.00  0.00     0.057 C 
ATOM     17  C   UNL     1       6.681  46.429  53.771  1.00  0.00     0.074 C 
ATOM     18  C   UNL     1       7.912  47.272  54.248  1.00  0.00     0.067 C 
ATOM     19  O   UNL     1       7.028  45.578  52.678  1.00  0.00    -0.375 OA
ATOM     20  C   UNL     1       8.706  47.929  53.109  1.00  0.00     0.119 C 
ATOM     21  C   UNL     1       7.611  46.276  51.589  1.00  0.00     0.163 C 
ATOM     22  C   UNL     1       8.937  46.916  51.987  1.00  0.00     0.060 C 
BRANCH  20  23
ATOM     23  O   UNL     1       8.026  49.058  52.623  1.00  0.00    -0.393 OA
ATOM     24  H   UNL     1       8.445  49.297  51.756  1.00  0.00     0.210 HD
ENDBRANCH  20  23
ENDBRANCH   1  10
TORSDOF 4
ENDMDL
MODEL 3
REMARK VINA RESULT:    -8.382      2.700      4.616
REMARK INTER + INTRA:         -10.706
REMARK INTER:                 -10.413
REMARK INTRA:                  -0.293
REMARK UNBOUND:                -0.608
REMARK SMILES Cc1ccc(SCC(=O)N2CCC3(CC2)C[C@H](O)CCO3)cc1
REMARK SMILES IDX 7 1 6 2 5 3 2 4 3 5 23 6 4 7 22 8 1 9 8 10 9 11 10 12 11 13
REMARK SMILES IDX 15 14 12 15 14 16 13 17 16 18 21 19 17 20 20 21 19 22 18 23
REMARK H PARENT 18 24
ROOT
ATOM      1  C   UNL     1       5.662  45.526  51.308  1.00  0.00     0.175 C 
ENDROOT
BRANCH   1   2
ATOM      2  S   UNL     1       7.259  45.692  50.437  1.00  0.00    -0.116 SA
BRANCH   2   3
ATOM      3  C   UNL     1       8.166  46.242  51.888  1.00  0.00     0.008 A 
ATOM      4  C   UNL     1       9.584  47.120  54.149  1.00  0.00    -0.051 A 
ATOM      5  C   UNL     1      10.269  46.782  52.970  1.00  0.00     0.004 A 
ATOM      6  C   UNL     1       8.187  46.992  54.196  1.00  0.00     0.004 A 
ATOM      7  C   UNL     1       9.561  46.355  51.842  1.00  0.00     0.015 A 
ATOM      8  C   UNL     1       7.480  46.567  53.065  1.00  0.00     0.015 A 
ATOM      9  C   UNL     1      10.344  47.557  55.368  1.00  0.00     0.044 C 
ENDBRANCH   2   3
ENDBRANCH   1   2
BRANCH   1  10
ATOM     10  C   UNL     1       5.115  44.133  51.173  1.00  0.00     0.232 C 
ATOM     11  O   UNL     1       5.901  43.188  50.891  1.00  0.00    -0.274 OA
ATOM     12  N   UNL     1       3.718  43.856  51.369  1.00  0.00    -0.342 N 
ATOM     13  C   UNL     1       3.327  42.676  52.149  1.00  0.00     0.122 C 
ATOM     14  C   UNL     1       2.677  44.753  50.855  1.00  0.00     0.122 C 
ATOM     15  C   UNL     1       1.801  42.544  52.239  1.00  0.00     0.057 C 
ATOM     16  C   UNL     1       1.728  45.112  51.999  1.00  0.00     0.057 C 
ATOM     17  C   UNL     1       1.103  43.856  52.716  1.00  0.00     0.074 C 
ATOM     18  C   UNL     1      -0.418  43.694  52.375  1.00  0.00     0.067 C 
ATOM     19  O   UNL     1       1.313  43.928  54.126  1.00  0.00    -0.375 OA
ATOM     20  C   UNL     1      -1.341  44.649  53.146  1.00  0.00     0.119 C 
ATOM     21  C   UNL     1       0.546  44.943  54.755  1.00  0.00     0.163 C 
ATOM     22  C   UNL     1      -0.949  44.671  54.622  1.00  0.00     0.060 C 
BRANCH  20  23
ATOM     23  O   UNL     1      -1.280  45.941  52.599  1.00  0.00    -0.393 OA
ATOM     24  H   UNL     1      -0.799  45.867  51.733  1.00  0.00     0.210 HD
ENDBRANCH  20  23
ENDBRANCH   1  10
TORSDOF 4
ENDMDL
MODEL 4
REMARK VINA RESULT:    -7.755      2.952      4.587
REMARK INTER + INTRA:          -9.950
REMARK INTER:                  -9.558
REMARK INTRA:                  -0.392
REMARK UNBOUND:                -0.608
REMARK SMILES Cc1ccc(SCC(=O)N2CCC3(CC2)C[C@H](O)CCO3)cc1
REMARK SMILES IDX 7 1 6 2 5 3 2 4 3 5 23 6 4 7 22 8 1 9 8 10 9 11 10 12 11 13
REMARK SMILES IDX 15 14 12 15 14 16 13 17 16 18 21 19 17 20 20 21 19 22 18 23
REMARK H PARENT 18 24
ROOT
ATOM      1  C   UNL     1       4.204  46.012  51.149  1.00  0.00     0.175 C 
ENDROOT
BRANCH   1   2
ATOM      2  S   UNL     1       4.538  46.768  52.778  1.00  0.00    -0.116 SA
BRANCH   2   3
ATOM      3  C   UNL     1       6.326  46.647  52.637  1.00  0.00     0.008 A 
ATOM      4  C   UNL     1       9.121  46.476  52.410  1.00  0.00    -0.051 A 
ATOM      5  C   UNL     1       8.305  46.273  51.284  1.00  0.00     0.004 A 
ATOM      6  C   UNL     1       8.527  46.741  53.654  1.00  0.00     0.004 A 
ATOM      7  C   UNL     1       6.914  46.368  51.397  1.00  0.00     0.015 A 
ATOM      8  C   UNL     1       7.135  46.839  53.764  1.00  0.00     0.015 A 
ATOM      9  C   UNL     1      10.613  46.351  52.296  1.00  0.00     0.044 C 
ENDBRANCH   2   3
ENDBRANCH   1   2
BRANCH   1  10
ATOM     10  C   UNL     1       3.844  44.560  51.291  1.00  0.00     0.232 C 
ATOM     11  O   UNL     1       4.646  43.684  50.871  1.00  0.00    -0.274 OA
ATOM     12  N   UNL     1       2.610  44.153  51.907  1.00  0.00    -0.342 N 
ATOM     13  C   UNL     1       2.622  43.037  52.859  1.00  0.00     0.122 C 
ATOM     14  C   UNL     1       1.351  44.860  51.646  1.00  0.00     0.122 C 
ATOM     15  C   UNL     1       1.215  42.745  53.399  1.00  0.00     0.057 C 
ATOM     16  C   UNL     1       0.716  45.242  52.984  1.00  0.00     0.057 C 
ATOM     17  C   UNL     1       0.499  44.018  53.951  1.00  0.00     0.074 C 
ATOM     18  C   UNL     1      -1.018  43.647  54.081  1.00  0.00     0.067 C 
ATOM     19  O   UNL     1       1.080  44.279  55.229  1.00  0.00    -0.375 OA
ATOM     20  C   UNL     1      -1.817  44.576  55.007  1.00  0.00     0.119 C 
ATOM     21  C   UNL     1       0.382  45.268  55.969  1.00  0.00     0.163 C 
ATOM     22  C   UNL     1      -1.036  44.816  56.299  1.00  0.00     0.060 C 
BRANCH  20  23
ATOM     23  O   UNL     1      -2.093  45.793  54.363  1.00  0.00    -0.393 OA
ATOM     24  H   UNL     1      -1.228  46.268  54.258  1.00  0.00     0.210 HD
ENDBRANCH  20  23
ENDBRANCH   1  10
TORSDOF 4
ENDMDL
MODEL 5
REMARK VINA RESULT:    -7.020      2.797      4.212
REMARK INTER + INTRA:          -9.065
REMARK INTER:                  -8.773
REMARK INTRA:                  -0.292
REMARK UNBOUND:                -0.608
REMARK SMILES Cc1ccc(SCC(=O)N2CCC3(CC2)C[C@H](O)CCO3)cc1
REMARK SMILES IDX 7 1 6 2 5 3 2 4 3 5 23 6 4 7 22 8 1 9 8 10 9 11 10 12 11 13
REMARK SMILES IDX 15 14 12 15 14 16 13 17 16 18 21 19 17 20 20 21 19 22 18 23
REMARK H PARENT 18 24
ROOT
ATOM      1  C   UNL     1       3.404  46.587  53.573  1.00  0.00     0.175 C 
ENDROOT
BRANCH   1   2
ATOM      2  S   UNL     1       5.155  46.719  54.078  1.00  0.00    -0.116 SA
BRANCH   2   3
ATOM      3  C   UNL     1       5.792  45.841  52.646  1.00  0.00     0.008 A 
ATOM      4  C   UNL     1       6.775  44.476  50.396  1.00  0.00    -0.051 A 
ATOM      5  C   UNL     1       5.723  43.931  51.152  1.00  0.00     0.004 A 
ATOM      6  C   UNL     1       7.347  45.696  50.789  1.00  0.00     0.004 A 
ATOM      7  C   UNL     1       5.228  44.617  52.266  1.00  0.00     0.015 A 
ATOM      8  C   UNL     1       6.849  46.381  51.902  1.00  0.00     0.015 A 
ATOM      9  C   UNL     1       7.323  43.729  49.214  1.00  0.00     0.044 C 
ENDBRANCH   2   3
ENDBRANCH   1   2
BRANCH   1  10
ATOM     10  C   UNL     1       2.650  45.655  54.478  1.00  0.00     0.232 C 
ATOM     11  O   UNL     1       2.911  45.649  55.712  1.00  0.00    -0.274 OA
ATOM     12  N   UNL     1       1.631  44.778  53.967  1.00  0.00    -0.342 N 
ATOM     13  C   UNL     1       0.373  44.637  54.708  1.00  0.00     0.122 C 
ATOM     14  C   UNL     1       1.799  44.065  52.696  1.00  0.00     0.122 C 
ATOM     15  C   UNL     1      -0.580  43.655  54.014  1.00  0.00     0.057 C 
ATOM     16  C   UNL     1       0.580  44.340  51.813  1.00  0.00     0.057 C 
ATOM     17  C   UNL     1      -0.790  43.977  52.500  1.00  0.00     0.074 C 
ATOM     18  C   UNL     1      -1.434  42.699  51.864  1.00  0.00     0.067 C 
ATOM     19  O   UNL     1      -1.685  45.088  52.451  1.00  0.00    -0.375 OA
ATOM     20  C   UNL     1      -2.126  42.946  50.516  1.00  0.00     0.119 C 
ATOM     21  C   UNL     1      -2.163  45.364  51.144  1.00  0.00     0.163 C 
ATOM     22  C   UNL     1      -2.991  44.204  50.600  1.00  0.00     0.060 C 
BRANCH  20  23
ATOM     23  O   UNL     1      -1.175  43.068  49.490  1.00  0.00    -0.393 OA
ATOM     24  H   UNL     1      -1.259  43.988  49.124  1.00  0.00     0.210 HD
ENDBRANCH  20  23
ENDBRANCH   1  10
TORSDOF 4
ENDMDL
