ligand_82_conformer_1_docked
     RDKit          3D

 48 50  0  0  0  0  0  0  0  0999 V2000
   10.3980   47.5250   55.1550 C   0  0  0  0  0  0  0  0  0  0  0  0
    9.4390   47.0630   54.0980 C   0  0  0  0  0  0  0  0  0  0  0  0
    8.0550   47.1200   54.3260 C   0  0  0  0  0  0  0  0  0  0  0  0
    7.1610   46.7140   53.3330 C   0  0  0  0  0  0  0  0  0  0  0  0
    7.6410   46.2440   52.1040 C   0  0  0  0  0  0  0  0  0  0  0  0
    6.4930   45.6700   50.8500 S   0  0  0  0  0  0  0  0  0  0  0  0
    4.9920   46.1330   51.7840 C   0  0  0  0  0  0  0  0  0  0  0  0
    4.3490   44.9140   52.3870 C   0  0  0  0  0  0  0  0  0  0  0  0
    5.1010   43.9890   52.7970 O   0  0  0  0  0  0  0  0  0  0  0  0
    2.9130   44.7560   52.4590 N   0  0  0  0  0  0  0  0  0  0  0  0
    2.0220   45.9260   52.4200 C   0  0  0  0  0  0  0  0  0  0  0  0
    0.5770   45.5530   52.7850 C   0  0  0  0  0  0  0  0  0  0  0  0
    0.5210   44.5930   54.0040 C   0  0  0  0  0  0  0  0  0  0  0  0
    1.3350   43.2920   53.6920 C   0  0  0  0  0  0  0  0  0  0  0  0
    2.3170   43.4140   52.5140 C   0  0  0  0  0  0  0  0  0  0  0  0
    1.1320   45.2930   55.2700 C   0  0  0  0  0  0  0  0  0  0  0  0
    0.4810   44.7440   56.5460 C   0  0  1  0  0  0  0  0  0  0  0  0
    1.0150   45.3820   57.6770 O   0  0  0  0  0  0  0  0  0  0  0  0
   -1.0410   44.9660   56.4990 C   0  0  0  0  0  0  0  0  0  0  0  0
   -1.5600   45.0530   55.0550 C   0  0  0  0  0  0  0  0  0  0  0  0
   -0.8360   44.1860   54.2020 O   0  0  0  0  0  0  0  0  0  0  0  0
    9.0180   46.2200   51.8580 C   0  0  0  0  0  0  0  0  0  0  0  0
    9.9160   46.6310   52.8500 C   0  0  0  0  0  0  0  0  0  0  0  0
    9.9741   47.3208   56.1493 H   0  0  0  0  0  0  0  0  0  0  0  0
   11.3514   46.9874   55.0454 H   0  0  0  0  0  0  0  0  0  0  0  0
   10.5718   48.6056   55.0454 H   0  0  0  0  0  0  0  0  0  0  0  0
    7.6733   47.4859   55.2906 H   0  0  0  0  0  0  0  0  0  0  0  0
    6.0775   46.7634   53.5164 H   0  0  0  0  0  0  0  0  0  0  0  0
    5.2671   46.8320   52.5876 H   0  0  0  0  0  0  0  0  0  0  0  0
    4.2775   46.6081   51.0957 H   0  0  0  0  0  0  0  0  0  0  0  0
    2.3880   46.6767   53.1359 H   0  0  0  0  0  0  0  0  0  0  0  0
    2.0245   46.3245   51.3947 H   0  0  0  0  0  0  0  0  0  0  0  0
    0.0228   46.4713   53.0289 H   0  0  0  0  0  0  0  0  0  0  0  0
    0.1280   45.0382   51.9228 H   0  0  0  0  0  0  0  0  0  0  0  0
    1.9099   43.0239   54.5907 H   0  0  0  0  0  0  0  0  0  0  0  0
    0.5989   42.5269   53.4043 H   0  0  0  0  0  0  0  0  0  0  0  0
    3.1180   42.6699   52.6354 H   0  0  0  0  0  0  0  0  0  0  0  0
    1.7647   43.2384   51.5791 H   0  0  0  0  0  0  0  0  0  0  0  0
    2.2148   45.1020   55.3036 H   0  0  0  0  0  0  0  0  0  0  0  0
    0.9428   46.3748   55.2079 H   0  0  0  0  0  0  0  0  0  0  0  0
    0.6888   43.6657   56.6100 H   0  0  0  0  0  0  0  0  0  0  0  0
    1.7930   45.9140   57.3630 H   0  0  0  0  0  0  0  0  0  0  0  0
   -1.5392   44.1269   57.0066 H   0  0  0  0  0  0  0  0  0  0  0  0
   -1.2635   45.9193   57.0007 H   0  0  0  0  0  0  0  0  0  0  0  0
   -2.6228   44.7700   55.0372 H   0  0  0  0  0  0  0  0  0  0  0  0
   -1.4296   46.0851   54.6976 H   0  0  0  0  0  0  0  0  0  0  0  0
    9.3957   45.8775   50.8833 H   0  0  0  0  0  0  0  0  0  0  0  0
   10.9978   46.6155   52.6514 H   0  0  0  0  0  0  0  0  0  0  0  0
  1  2  1  0
  2  3  2  0
  3  4  1  0
  4  5  2  0
  5  6  1  0
  6  7  1  0
  7  8  1  0
  8  9  2  0
  8 10  1  0
 10 11  1  0
 11 12  1  0
 12 13  1  0
 13 14  1  0
 14 15  1  0
 13 16  1  0
 16 17  1  0
 17 18  1  0
 17 19  1  0
 19 20  1  0
 20 21  1  0
  5 22  1  0
 22 23  2  0
 23  2  1  0
 15 10  1  0
 21 13  1  0
  1 24  1  0
  1 25  1  0
  1 26  1  0
  3 27  1  0
  4 28  1  0
  7 29  1  0
  7 30  1  0
 11 31  1  0
 11 32  1  0
 12 33  1  0
 12 34  1  0
 14 35  1  0
 14 36  1  0
 15 37  1  0
 15 38  1  0
 16 39  1  0
 16 40  1  0
 17 41  1  1
 18 42  1  0
 19 43  1  0
 19 44  1  0
 20 45  1  0
 20 46  1  0
 22 47  1  0
 23 48  1  0
M  END
>  <meeko>  (1) 
{"is_sidechain": [false], "free_energy": -8.66, "intermolecular_energy": -10.432, "internal_energy": -0.2}

$$$$
ligand_82_conformer_1_docked
     RDKit          3D

 48 50  0  0  0  0  0  0  0  0999 V2000
   10.3850   47.7850   55.6380 C   0  0  0  0  0  0  0  0  0  0  0  0
    9.6100   47.2580   54.4670 C   0  0  0  0  0  0  0  0  0  0  0  0
    8.2080   47.2100   54.5110 C   0  0  0  0  0  0  0  0  0  0  0  0
    7.4850   46.7440   53.4100 C   0  0  0  0  0  0  0  0  0  0  0  0
    8.1560   46.3180   52.2570 C   0  0  0  0  0  0  0  0  0  0  0  0
    7.2280   45.6680   50.8660 S   0  0  0  0  0  0  0  0  0  0  0  0
    6.0110   44.7710   51.8920 C   0  0  0  0  0  0  0  0  0  0  0  0
    4.6200   45.2780   51.6220 C   0  0  0  0  0  0  0  0  0  0  0  0
    4.2640   45.4210   50.4220 O   0  0  0  0  0  0  0  0  0  0  0  0
    3.7140   45.6460   52.6870 N   0  0  0  0  0  0  0  0  0  0  0  0
    3.8850   45.1040   54.0450 C   0  0  0  0  0  0  0  0  0  0  0  0
    2.6680   45.4040   54.9340 C   0  0  0  0  0  0  0  0  0  0  0  0
    1.3320   45.1650   54.1810 C   0  0  0  0  0  0  0  0  0  0  0  0
    1.2780   46.0630   52.8990 C   0  0  0  0  0  0  0  0  0  0  0  0
    2.6390   46.6170   52.4440 C   0  0  0  0  0  0  0  0  0  0  0  0
    1.2120   43.6570   53.7590 C   0  0  0  0  0  0  0  0  0  0  0  0
   -0.2620   43.2400   53.6950 C   0  0  1  0  0  0  0  0  0  0  0  0
   -0.3690   41.8870   53.3350 O   0  0  0  0  0  0  0  0  0  0  0  0
   -0.9340   43.4640   55.0610 C   0  0  0  0  0  0  0  0  0  0  0  0
   -0.2280   44.5640   55.8700 C   0  0  0  0  0  0  0  0  0  0  0  0
    0.2530   45.5890   55.0200 O   0  0  0  0  0  0  0  0  0  0  0  0
    9.5520   46.3990   52.1950 C   0  0  0  0  0  0  0  0  0  0  0  0
   10.2780   46.8700   53.2940 C   0  0  0  0  0  0  0  0  0  0  0  0
    9.9049   47.4585   56.5723 H   0  0  0  0  0  0  0  0  0  0  0  0
   11.4143   47.3988   55.6003 H   0  0  0  0  0  0  0  0  0  0  0  0
   10.4042   48.8842   55.6003 H   0  0  0  0  0  0  0  0  0  0  0  0
    7.6765   47.5405   55.4156 H   0  0  0  0  0  0  0  0  0  0  0  0
    6.3862   46.7117   53.4489 H   0  0  0  0  0  0  0  0  0  0  0  0
    6.0579   43.6980   51.6545 H   0  0  0  0  0  0  0  0  0  0  0  0
    6.2501   44.9347   52.9531 H   0  0  0  0  0  0  0  0  0  0  0  0
    4.0187   44.0141   53.9796 H   0  0  0  0  0  0  0  0  0  0  0  0
    4.7662   45.5828   54.4969 H   0  0  0  0  0  0  0  0  0  0  0  0
    2.7015   44.7485   55.8167 H   0  0  0  0  0  0  0  0  0  0  0  0
    2.7110   46.4634   55.2268 H   0  0  0  0  0  0  0  0  0  0  0  0
    0.8606   45.4624   52.0774 H   0  0  0  0  0  0  0  0  0  0  0  0
    0.6583   46.9346   53.1563 H   0  0  0  0  0  0  0  0  0  0  0  0
    2.5940   46.8411   51.3680 H   0  0  0  0  0  0  0  0  0  0  0  0
    2.8552   47.5286   53.0205 H   0  0  0  0  0  0  0  0  0  0  0  0
    1.6718   43.5191   52.7693 H   0  0  0  0  0  0  0  0  0  0  0  0
    1.7289   43.0340   54.5037 H   0  0  0  0  0  0  0  0  0  0  0  0
   -0.7675   43.8555   52.9363 H   0  0  0  0  0  0  0  0  0  0  0  0
   -0.1980   41.8380   52.3580 H   0  0  0  0  0  0  0  0  0  0  0  0
   -1.9815   43.7579   54.8987 H   0  0  0  0  0  0  0  0  0  0  0  0
   -0.8709   42.5256   55.6315 H   0  0  0  0  0  0  0  0  0  0  0  0
   -0.9408   44.9965   56.5875 H   0  0  0  0  0  0  0  0  0  0  0  0
    0.6269   44.1167   56.3983 H   0  0  0  0  0  0  0  0  0  0  0  0
   10.0794   46.0916   51.2799 H   0  0  0  0  0  0  0  0  0  0  0  0
   11.3746   46.9367   53.2394 H   0  0  0  0  0  0  0  0  0  0  0  0
  1  2  1  0
  2  3  2  0
  3  4  1  0
  4  5  2  0
  5  6  1  0
  6  7  1  0
  7  8  1  0
  8  9  2  0
  8 10  1  0
 10 11  1  0
 11 12  1  0
 12 13  1  0
 13 14  1  0
 14 15  1  0
 13 16  1  0
 16 17  1  0
 17 18  1  0
 17 19  1  0
 19 20  1  0
 20 21  1  0
  5 22  1  0
 22 23  2  0
 23  2  1  0
 15 10  1  0
 21 13  1  0
  1 24  1  0
  1 25  1  0
  1 26  1  0
  3 27  1  0
  4 28  1  0
  7 29  1  0
  7 30  1  0
 11 31  1  0
 11 32  1  0
 12 33  1  0
 12 34  1  0
 14 35  1  0
 14 36  1  0
 15 37  1  0
 15 38  1  0
 16 39  1  0
 16 40  1  0
 17 41  1  6
 18 42  1  0
 19 43  1  0
 19 44  1  0
 20 45  1  0
 20 46  1  0
 22 47  1  0
 23 48  1  0
M  END
>  <meeko>  (2) 
{"is_sidechain": [false], "free_energy": -8.453, "intermolecular_energy": -10.053, "internal_energy": -0.329}

$$$$
ligand_82_conformer_1_docked
     RDKit          3D

 48 50  0  0  0  0  0  0  0  0999 V2000
   10.6450   46.1580   51.7630 C   0  0  0  0  0  0  0  0  0  0  0  0
    9.2400   46.4290   52.2110 C   0  0  0  0  0  0  0  0  0  0  0  0
    8.1610   46.1690   51.3510 C   0  0  0  0  0  0  0  0  0  0  0  0
    6.8500   46.3970   51.7770 C   0  0  0  0  0  0  0  0  0  0  0  0
    6.6050   46.8900   53.0650 C   0  0  0  0  0  0  0  0  0  0  0  0
    4.9240   47.2350   53.5900 S   0  0  0  0  0  0  0  0  0  0  0  0
    4.1390   46.2110   52.2960 C   0  0  0  0  0  0  0  0  0  0  0  0
    3.6040   44.9340   52.8870 C   0  0  0  0  0  0  0  0  0  0  0  0
    4.4030   44.1940   53.5210 O   0  0  0  0  0  0  0  0  0  0  0  0
    2.2310   44.5180   52.7040 N   0  0  0  0  0  0  0  0  0  0  0  0
    1.1810   45.4960   52.3810 C   0  0  0  0  0  0  0  0  0  0  0  0
   -0.2240   44.8850   52.5050 C   0  0  0  0  0  0  0  0  0  0  0  0
   -0.3610   44.0130   53.7820 C   0  0  0  0  0  0  0  0  0  0  0  0
    0.7080   42.8690   53.7610 C   0  0  0  0  0  0  0  0  0  0  0  0
    1.8720   43.0950   52.7810 C   0  0  0  0  0  0  0  0  0  0  0  0
   -0.1460   44.8960   55.0640 C   0  0  0  0  0  0  0  0  0  0  0  0
   -0.9390   44.3190   56.2430 C   0  0  1  0  0  0  0  0  0  0  0  0
   -0.7620   45.1170   57.3840 O   0  0  0  0  0  0  0  0  0  0  0  0
   -2.4350   44.2510   55.8900 C   0  0  0  0  0  0  0  0  0  0  0  0
   -2.6590   44.1460   54.3730 C   0  0  0  0  0  0  0  0  0  0  0  0
   -1.6410   43.3750   53.7620 O   0  0  0  0  0  0  0  0  0  0  0  0
    7.6740   47.1160   53.9380 C   0  0  0  0  0  0  0  0  0  0  0  0
    8.9880   46.8830   53.5150 C   0  0  0  0  0  0  0  0  0  0  0  0
   11.2928   46.0330   52.6432 H   0  0  0  0  0  0  0  0  0  0  0  0
   10.6664   45.2392   51.1586 H   0  0  0  0  0  0  0  0  0  0  0  0
   11.0066   47.0030   51.1586 H   0  0  0  0  0  0  0  0  0  0  0  0
    8.3486   45.7842   50.3377 H   0  0  0  0  0  0  0  0  0  0  0  0
    6.0087   46.1889   51.0996 H   0  0  0  0  0  0  0  0  0  0  0  0
    3.3108   46.7744   51.8413 H   0  0  0  0  0  0  0  0  0  0  0  0
    4.8918   45.9623   51.5335 H   0  0  0  0  0  0  0  0  0  0  0  0
    1.2618   46.3471   53.0731 H   0  0  0  0  0  0  0  0  0  0  0  0
    1.3231   45.8195   51.3393 H   0  0  0  0  0  0  0  0  0  0  0  0
   -0.9637   45.6981   52.5476 H   0  0  0  0  0  0  0  0  0  0  0  0
   -0.3959   44.2407   51.6301 H   0  0  0  0  0  0  0  0  0  0  0  0
    1.1265   42.7725   54.7737 H   0  0  0  0  0  0  0  0  0  0  0  0
    0.1864   41.9625   53.4201 H   0  0  0  0  0  0  0  0  0  0  0  0
    2.7463   42.5221   53.1236 H   0  0  0  0  0  0  0  0  0  0  0  0
    1.5571   42.7599   51.7817 H   0  0  0  0  0  0  0  0  0  0  0  0
    0.9239   44.9122   55.3189 H   0  0  0  0  0  0  0  0  0  0  0  0
   -0.4987   45.9177   54.8597 H   0  0  0  0  0  0  0  0  0  0  0  0
   -0.5683   43.3046   56.4517 H   0  0  0  0  0  0  0  0  0  0  0  0
   -1.4380   44.8200   58.0480 H   0  0  0  0  0  0  0  0  0  0  0  0
   -2.8761   43.3688   56.3770 H   0  0  0  0  0  0  0  0  0  0  0  0
   -2.9122   45.1772   56.2429 H   0  0  0  0  0  0  0  0  0  0  0  0
   -3.6326   43.6697   54.1853 H   0  0  0  0  0  0  0  0  0  0  0  0
   -2.6364   45.1589   53.9445 H   0  0  0  0  0  0  0  0  0  0  0  0
    7.4819   47.4775   54.9590 H   0  0  0  0  0  0  0  0  0  0  0  0
    9.8256   47.0563   54.2067 H   0  0  0  0  0  0  0  0  0  0  0  0
  1  2  1  0
  2  3  2  0
  3  4  1  0
  4  5  2  0
  5  6  1  0
  6  7  1  0
  7  8  1  0
  8  9  2  0
  8 10  1  0
 10 11  1  0
 11 12  1  0
 12 13  1  0
 13 14  1  0
 14 15  1  0
 13 16  1  0
 16 17  1  0
 17 18  1  0
 17 19  1  0
 19 20  1  0
 20 21  1  0
  5 22  1  0
 22 23  2  0
 23  2  1  0
 15 10  1  0
 21 13  1  0
  1 24  1  0
  1 25  1  0
  1 26  1  0
  3 27  1  0
  4 28  1  0
  7 29  1  0
  7 30  1  0
 11 31  1  0
 11 32  1  0
 12 33  1  0
 12 34  1  0
 14 35  1  0
 14 36  1  0
 15 37  1  0
 15 38  1  0
 16 39  1  0
 16 40  1  0
 17 41  1  1
 18 42  1  0
 19 43  1  0
 19 44  1  0
 20 45  1  0
 20 46  1  0
 22 47  1  0
 23 48  1  0
M  END
>  <meeko>  (3) 
{"is_sidechain": [false], "free_energy": -8.236, "intermolecular_energy": -9.805, "internal_energy": -0.316}

$$$$
ligand_82_conformer_1_docked
     RDKit          3D

 48 50  0  0  0  0  0  0  0  0999 V2000
   10.6540   46.2800   51.6400 C   0  0  0  0  0  0  0  0  0  0  0  0
    9.3310   46.4950   52.3130 C   0  0  0  0  0  0  0  0  0  0  0  0
    9.2590   46.6100   53.7100 C   0  0  0  0  0  0  0  0  0  0  0  0
    8.0300   46.8360   54.3350 C   0  0  0  0  0  0  0  0  0  0  0  0
    6.8620   46.9470   53.5710 C   0  0  0  0  0  0  0  0  0  0  0  0
    5.2770   47.1810   54.3790 S   0  0  0  0  0  0  0  0  0  0  0  0
    4.9360   45.3970   54.5820 C   0  0  0  0  0  0  0  0  0  0  0  0
    4.4600   44.8010   53.2850 C   0  0  0  0  0  0  0  0  0  0  0  0
    5.2320   44.0100   52.6790 O   0  0  0  0  0  0  0  0  0  0  0  0
    3.1830   45.1450   52.7020 N   0  0  0  0  0  0  0  0  0  0  0  0
    2.0920   45.6800   53.5330 C   0  0  0  0  0  0  0  0  0  0  0  0
    0.7590   45.7130   52.7700 C   0  0  0  0  0  0  0  0  0  0  0  0
    0.5300   44.4110   51.9570 C   0  0  0  0  0  0  0  0  0  0  0  0
    1.7060   44.2020   50.9450 C   0  0  0  0  0  0  0  0  0  0  0  0
    2.9720   45.0210   51.2530 C   0  0  0  0  0  0  0  0  0  0  0  0
    0.4550   43.1760   52.9250 C   0  0  0  0  0  0  0  0  0  0  0  0
   -0.4360   42.0830   52.3240 C   0  0  1  0  0  0  0  0  0  0  0  0
   -0.5170   40.9870   53.1970 O   0  0  0  0  0  0  0  0  0  0  0  0
   -1.8470   42.6380   52.0620 C   0  0  0  0  0  0  0  0  0  0  0  0
   -1.8320   44.1600   51.8510 C   0  0  0  0  0  0  0  0  0  0  0  0
   -0.6580   44.5660   51.1730 O   0  0  0  0  0  0  0  0  0  0  0  0
    6.9340   46.8690   52.1760 C   0  0  0  0  0  0  0  0  0  0  0  0
    8.1640   46.6480   51.5470 C   0  0  0  0  0  0  0  0  0  0  0  0
   11.4368   46.1528   52.4023 H   0  0  0  0  0  0  0  0  0  0  0  0
   10.6037   45.3782   51.0121 H   0  0  0  0  0  0  0  0  0  0  0  0
   10.8918   47.1513   51.0121 H   0  0  0  0  0  0  0  0  0  0  0  0
   10.1735   46.5219   54.3150 H   0  0  0  0  0  0  0  0  0  0  0  0
    7.9799   46.9269   55.4301 H   0  0  0  0  0  0  0  0  0  0  0  0
    5.8572   44.8860   54.8988 H   0  0  0  0  0  0  0  0  0  0  0  0
    4.1511   45.2689   55.3419 H   0  0  0  0  0  0  0  0  0  0  0  0
    1.9774   45.0440   54.4231 H   0  0  0  0  0  0  0  0  0  0  0  0
    2.3506   46.7112   53.8153 H   0  0  0  0  0  0  0  0  0  0  0  0
   -0.0622   45.8313   53.4922 H   0  0  0  0  0  0  0  0  0  0  0  0
    0.7886   46.5567   52.0648 H   0  0  0  0  0  0  0  0  0  0  0  0
    1.9776   43.1361   50.9506 H   0  0  0  0  0  0  0  0  0  0  0  0
    1.3406   44.5501   49.9676 H   0  0  0  0  0  0  0  0  0  0  0  0
    3.8423   44.5191   50.8050 H   0  0  0  0  0  0  0  0  0  0  0  0
    2.8470   46.0290   50.8308 H   0  0  0  0  0  0  0  0  0  0  0  0
    1.4673   42.7745   53.0802 H   0  0  0  0  0  0  0  0  0  0  0  0
    0.0267   43.4992   53.8853 H   0  0  0  0  0  0  0  0  0  0  0  0
    0.0075   41.7529   51.3730 H   0  0  0  0  0  0  0  0  0  0  0  0
   -1.1920   40.3670   52.8140 H   0  0  0  0  0  0  0  0  0  0  0  0
   -2.2568   42.1578   51.1612 H   0  0  0  0  0  0  0  0  0  0  0  0
   -2.4685   42.4213   52.9434 H   0  0  0  0  0  0  0  0  0  0  0  0
   -2.7100   44.4493   51.2549 H   0  0  0  0  0  0  0  0  0  0  0  0
   -1.8560   44.6507   52.8352 H   0  0  0  0  0  0  0  0  0  0  0  0
    6.0214   46.9817   51.5723 H   0  0  0  0  0  0  0  0  0  0  0  0
    8.2171   46.5939   50.4496 H   0  0  0  0  0  0  0  0  0  0  0  0
  1  2  1  0
  2  3  2  0
  3  4  1  0
  4  5  2  0
  5  6  1  0
  6  7  1  0
  7  8  1  0
  8  9  2  0
  8 10  1  0
 10 11  1  0
 11 12  1  0
 12 13  1  0
 13 14  1  0
 14 15  1  0
 13 16  1  0
 16 17  1  0
 17 18  1  0
 17 19  1  0
 19 20  1  0
 20 21  1  0
  5 22  1  0
 22 23  2  0
 23  2  1  0
 15 10  1  0
 21 13  1  0
  1 24  1  0
  1 25  1  0
  1 26  1  0
  3 27  1  0
  4 28  1  0
  7 29  1  0
  7 30  1  0
 11 31  1  0
 11 32  1  0
 12 33  1  0
 12 34  1  0
 14 35  1  0
 14 36  1  0
 15 37  1  0
 15 38  1  0
 16 39  1  0
 16 40  1  0
 17 41  1  6
 18 42  1  0
 19 43  1  0
 19 44  1  0
 20 45  1  0
 20 46  1  0
 22 47  1  0
 23 48  1  0
M  END
>  <meeko>  (4) 
{"is_sidechain": [false], "free_energy": -7.931, "intermolecular_energy": -9.608, "internal_energy": -0.146}

$$$$
ligand_82_conformer_1_docked
     RDKit          3D

 48 50  0  0  0  0  0  0  0  0999 V2000
   -1.1340   44.8820   56.5740 C   0  0  0  0  0  0  0  0  0  0  0  0
   -0.5340   44.5290   55.2460 C   0  0  0  0  0  0  0  0  0  0  0  0
   -0.9950   43.4100   54.5360 C   0  0  0  0  0  0  0  0  0  0  0  0
   -0.4540   43.0960   53.2870 C   0  0  0  0  0  0  0  0  0  0  0  0
    0.5550   43.8960   52.7370 C   0  0  0  0  0  0  0  0  0  0  0  0
    1.2880   43.4590   51.1580 S   0  0  0  0  0  0  0  0  0  0  0  0
    2.6210   44.7060   51.2510 C   0  0  0  0  0  0  0  0  0  0  0  0
    3.6850   44.2690   52.2220 C   0  0  0  0  0  0  0  0  0  0  0  0
    3.8920   43.0330   52.3560 O   0  0  0  0  0  0  0  0  0  0  0  0
    4.4270   45.2120   53.0280 N   0  0  0  0  0  0  0  0  0  0  0  0
    4.5540   46.6200   52.6180 C   0  0  0  0  0  0  0  0  0  0  0  0
    5.5990   47.3660   53.4620 C   0  0  0  0  0  0  0  0  0  0  0  0
    6.8800   46.5150   53.6750 C   0  0  0  0  0  0  0  0  0  0  0  0
    6.5100   45.1640   54.3750 C   0  0  0  0  0  0  0  0  0  0  0  0
    5.0180   44.7910   54.3050 C   0  0  0  0  0  0  0  0  0  0  0  0
    7.5610   46.2100   52.2930 C   0  0  0  0  0  0  0  0  0  0  0  0
    9.0750   46.0460   52.4730 C   0  0  1  0  0  0  0  0  0  0  0  0
    9.6870   45.7900   51.2350 O   0  0  0  0  0  0  0  0  0  0  0  0
    9.6750   47.3210   53.0910 C   0  0  0  0  0  0  0  0  0  0  0  0
    8.6370   48.0970   53.9160 C   0  0  0  0  0  0  0  0  0  0  0  0
    7.7480   47.2130   54.5730 O   0  0  0  0  0  0  0  0  0  0  0  0
    0.9920   45.0340   53.4230 C   0  0  0  0  0  0  0  0  0  0  0  0
    0.4480   45.3530   54.6720 C   0  0  0  0  0  0  0  0  0  0  0  0
   -0.4890   44.5025   57.3802 H   0  0  0  0  0  0  0  0  0  0  0  0
   -1.2211   45.9753   56.6580 H   0  0  0  0  0  0  0  0  0  0  0  0
   -2.1320   44.4271   56.6580 H   0  0  0  0  0  0  0  0  0  0  0  0
   -1.7860   42.7772   54.9649 H   0  0  0  0  0  0  0  0  0  0  0  0
   -0.8213   42.2186   52.7345 H   0  0  0  0  0  0  0  0  0  0  0  0
    3.0697   44.8312   50.2545 H   0  0  0  0  0  0  0  0  0  0  0  0
    2.1934   45.6587   51.5968 H   0  0  0  0  0  0  0  0  0  0  0  0
    4.8567   46.6576   51.5611 H   0  0  0  0  0  0  0  0  0  0  0  0
    3.5803   47.1095   52.7670 H   0  0  0  0  0  0  0  0  0  0  0  0
    5.8725   48.2990   52.9475 H   0  0  0  0  0  0  0  0  0  0  0  0
    5.1579   47.5738   54.4480 H   0  0  0  0  0  0  0  0  0  0  0  0
    7.0871   44.3600   53.8949 H   0  0  0  0  0  0  0  0  0  0  0  0
    6.7490   45.2908   55.4412 H   0  0  0  0  0  0  0  0  0  0  0  0
    4.9152   43.7005   54.4063 H   0  0  0  0  0  0  0  0  0  0  0  0
    4.4904   45.3065   55.1210 H   0  0  0  0  0  0  0  0  0  0  0  0
    7.1417   45.2813   51.8785 H   0  0  0  0  0  0  0  0  0  0  0  0
    7.3700   47.0478   51.6063 H   0  0  0  0  0  0  0  0  0  0  0  0
    9.2574   45.1959   53.1469 H   0  0  0  0  0  0  0  0  0  0  0  0
    9.0330   46.0510   50.5350 H   0  0  0  0  0  0  0  0  0  0  0  0
   10.5124   47.0392   53.7463 H   0  0  0  0  0  0  0  0  0  0  0  0
   10.0161   47.9708   52.2716 H   0  0  0  0  0  0  0  0  0  0  0  0
    9.1585   48.7074   54.6679 H   0  0  0  0  0  0  0  0  0  0  0  0
    8.0560   48.7371   53.2358 H   0  0  0  0  0  0  0  0  0  0  0  0
    1.7647   45.6793   52.9797 H   0  0  0  0  0  0  0  0  0  0  0  0
    0.7904   46.2517   55.2059 H   0  0  0  0  0  0  0  0  0  0  0  0
  1  2  1  0
  2  3  2  0
  3  4  1  0
  4  5  2  0
  5  6  1  0
  6  7  1  0
  7  8  1  0
  8  9  2  0
  8 10  1  0
 10 11  1  0
 11 12  1  0
 12 13  1  0
 13 14  1  0
 14 15  1  0
 13 16  1  0
 16 17  1  0
 17 18  1  0
 17 19  1  0
 19 20  1  0
 20 21  1  0
  5 22  1  0
 22 23  2  0
 23  2  1  0
 15 10  1  0
 21 13  1  0
  1 24  1  0
  1 25  1  0
  1 26  1  0
  3 27  1  0
  4 28  1  0
  7 29  1  0
  7 30  1  0
 11 31  1  0
 11 32  1  0
 12 33  1  0
 12 34  1  0
 14 35  1  0
 14 36  1  0
 15 37  1  0
 15 38  1  0
 16 39  1  0
 16 40  1  0
 17 41  1  1
 18 42  1  0
 19 43  1  0
 19 44  1  0
 20 45  1  0
 20 46  1  0
 22 47  1  0
 23 48  1  0
M  END
>  <meeko>  (5) 
{"is_sidechain": [false], "free_energy": -7.243, "intermolecular_energy": -8.993, "internal_energy": 0.067}

$$$$
