MODEL 1
REMARK VINA RESULT:    -9.624      0.000      0.000
REMARK INTER + INTRA:         -12.989
REMARK INTER:                 -12.719
REMARK INTRA:                  -0.270
REMARK UNBOUND:                -0.270
REMARK SMILES OCC[C@H]1CN(C[C@]23C[C@](c4nn[nH]n4)(CO2)C3)c2ccccc21
REMARK SMILES IDX 4 1 5 2 6 3 19 4 20 5 21 6 22 7 23 8 24 9 3 10 2 11 1 12
REMARK SMILES IDX 7 14 8 15 9 16 18 17 17 18 10 19 16 20 11 21 12 22 15 23
REMARK SMILES IDX 13 24 14 25
REMARK H PARENT 1 13 14 26
ROOT
ATOM      1  C   UNL     1       4.178  45.067  52.561  1.00  0.00     0.043 C 
ATOM      2  C   UNL     1       5.133  46.148  51.973  1.00  0.00     0.125 C 
ATOM      3  N   UNL     1       6.078  45.430  51.121  1.00  0.00    -0.368 N 
ATOM      4  C   UNL     1       5.651  44.083  51.000  1.00  0.00     0.040 A 
ATOM      5  C   UNL     1       6.159  43.111  50.130  1.00  0.00     0.026 A 
ATOM      6  C   UNL     1       5.520  41.864  50.075  1.00  0.00     0.002 A 
ATOM      7  C   UNL     1       4.374  41.620  50.855  1.00  0.00     0.000 A 
ATOM      8  C   UNL     1       3.872  42.619  51.703  1.00  0.00     0.006 A 
ATOM      9  C   UNL     1       4.551  43.840  51.781  1.00  0.00    -0.020 A 
ENDROOT
BRANCH   1  10
ATOM     10  C   UNL     1       4.420  44.901  54.078  1.00  0.00     0.038 C 
BRANCH  10  11
ATOM     11  C   UNL     1       4.289  46.213  54.861  1.00  0.00     0.156 C 
BRANCH  11  12
ATOM     12  O   UNL     1       3.500  46.016  56.003  1.00  0.00    -0.396 OA
ATOM     13  H   UNL     1       3.942  46.509  56.743  1.00  0.00     0.210 HD
ENDBRANCH  11  12
ENDBRANCH  10  11
ENDBRANCH   1  10
BRANCH   3  14
ATOM     14  C   UNL     1       7.243  46.041  50.484  1.00  0.00     0.152 C 
BRANCH  14  15
ATOM     15  C   UNL     1       8.355  46.262  51.509  1.00  0.00     0.088 C 
ATOM     16  C   UNL     1       8.686  47.671  51.980  1.00  0.00     0.055 C 
ATOM     17  C   UNL     1       8.108  45.841  52.950  1.00  0.00     0.055 C 
ATOM     18  O   UNL     1       9.617  45.694  51.199  1.00  0.00    -0.372 OA
ATOM     19  C   UNL     1       9.244  46.831  53.111  1.00  0.00     0.063 C 
ATOM     20  C   UNL     1      10.336  46.089  52.361  1.00  0.00     0.176 C 
BRANCH  19  21
ATOM     21  C   UNL     1       9.520  47.452  54.443  1.00  0.00     0.183 A 
ATOM     22  N   UNL     1      10.581  47.148  55.216  1.00  0.00    -0.113 NA
ATOM     23  N   UNL     1       8.789  48.446  54.982  1.00  0.00    -0.139 NA
ATOM     24  N   UNL     1      10.485  47.959  56.255  1.00  0.00    -0.050 NA
ATOM     25  N   UNL     1       9.418  48.727  56.109  1.00  0.00    -0.177 N 
ATOM     26  H   UNL     1       9.117  49.459  56.789  1.00  0.00     0.216 HD
ENDBRANCH  19  21
ENDBRANCH  14  15
ENDBRANCH   3  14
TORSDOF 6
ENDMDL
MODEL 2
REMARK VINA RESULT:    -8.998      2.777      6.940
REMARK INTER + INTRA:         -12.161
REMARK INTER:                 -11.984
REMARK INTRA:                  -0.177
REMARK UNBOUND:                -0.270
REMARK SMILES OCC[C@H]1CN(C[C@]23C[C@](c4nn[nH]n4)(CO2)C3)c2ccccc21
REMARK SMILES IDX 4 1 5 2 6 3 19 4 20 5 21 6 22 7 23 8 24 9 3 10 2 11 1 12
REMARK SMILES IDX 7 14 8 15 9 16 18 17 17 18 10 19 16 20 11 21 12 22 15 23
REMARK SMILES IDX 13 24 14 25
REMARK H PARENT 1 13 14 26
ROOT
ATOM      1  C   UNL     1       6.928  45.572  50.585  1.00  0.00     0.043 C 
ATOM      2  C   UNL     1       5.669  46.258  51.194  1.00  0.00     0.125 C 
ATOM      3  N   UNL     1       6.089  46.795  52.486  1.00  0.00    -0.368 N 
ATOM      4  C   UNL     1       7.496  46.665  52.600  1.00  0.00     0.040 A 
ATOM      5  C   UNL     1       8.318  47.219  53.587  1.00  0.00     0.026 A 
ATOM      6  C   UNL     1       9.708  47.075  53.458  1.00  0.00     0.002 A 
ATOM      7  C   UNL     1      10.251  46.417  52.339  1.00  0.00     0.000 A 
ATOM      8  C   UNL     1       9.405  45.890  51.351  1.00  0.00     0.006 A 
ATOM      9  C   UNL     1       8.021  46.000  51.521  1.00  0.00    -0.020 A 
ENDROOT
BRANCH   1  10
ATOM     10  C   UNL     1       6.743  44.038  50.551  1.00  0.00     0.038 C 
BRANCH  10  11
ATOM     11  C   UNL     1       7.058  43.419  49.185  1.00  0.00     0.156 C 
BRANCH  11  12
ATOM     12  O   UNL     1       8.442  43.426  48.959  1.00  0.00    -0.396 OA
ATOM     13  H   UNL     1       8.727  44.378  48.966  1.00  0.00     0.210 HD
ENDBRANCH  11  12
ENDBRANCH  10  11
ENDBRANCH   1  10
BRANCH   3  14
ATOM     14  C   UNL     1       5.182  47.395  53.463  1.00  0.00     0.152 C 
BRANCH  14  15
ATOM     15  C   UNL     1       4.155  46.367  53.937  1.00  0.00     0.088 C 
ATOM     16  C   UNL     1       2.808  46.258  53.236  1.00  0.00     0.055 C 
ATOM     17  C   UNL     1       4.418  44.895  53.654  1.00  0.00     0.055 C 
ATOM     18  O   UNL     1       3.827  46.396  55.316  1.00  0.00    -0.372 OA
ATOM     19  C   UNL     1       2.921  44.898  53.894  1.00  0.00     0.063 C 
ATOM     20  C   UNL     1       2.899  45.319  55.353  1.00  0.00     0.176 C 
BRANCH  19  21
ATOM     21  C   UNL     1       2.079  43.759  53.416  1.00  0.00     0.183 A 
ATOM     22  N   UNL     1       0.938  43.358  54.010  1.00  0.00    -0.113 NA
ATOM     23  N   UNL     1       2.317  43.062  52.288  1.00  0.00    -0.139 NA
ATOM     24  N   UNL     1       0.481  42.384  53.241  1.00  0.00    -0.050 NA
ATOM     25  N   UNL     1       1.306  42.214  52.221  1.00  0.00    -0.177 N 
ATOM     26  H   UNL     1       1.173  41.511  51.462  1.00  0.00     0.216 HD
ENDBRANCH  19  21
ENDBRANCH  14  15
ENDBRANCH   3  14
TORSDOF 6
ENDMDL
MODEL 3
REMARK VINA RESULT:    -8.513      1.626      3.196
REMARK INTER + INTRA:         -11.520
REMARK INTER:                 -11.528
REMARK INTRA:                   0.007
REMARK UNBOUND:                -0.270
REMARK SMILES OCC[C@H]1CN(C[C@]23C[C@](c4nn[nH]n4)(CO2)C3)c2ccccc21
REMARK SMILES IDX 4 1 5 2 6 3 19 4 20 5 21 6 22 7 23 8 24 9 3 10 2 11 1 12
REMARK SMILES IDX 7 14 8 15 9 16 18 17 17 18 10 19 16 20 11 21 12 22 15 23
REMARK SMILES IDX 13 24 14 25
REMARK H PARENT 1 13 14 26
ROOT
ATOM      1  C   UNL     1       4.370  43.620  52.283  1.00  0.00     0.043 C 
ATOM      2  C   UNL     1       5.605  44.029  51.425  1.00  0.00     0.125 C 
ATOM      3  N   UNL     1       5.812  45.454  51.671  1.00  0.00    -0.368 N 
ATOM      4  C   UNL     1       4.956  45.865  52.724  1.00  0.00     0.040 A 
ATOM      5  C   UNL     1       4.971  47.093  53.395  1.00  0.00     0.026 A 
ATOM      6  C   UNL     1       4.118  47.265  54.495  1.00  0.00     0.002 A 
ATOM      7  C   UNL     1       3.297  46.207  54.926  1.00  0.00     0.000 A 
ATOM      8  C   UNL     1       3.316  44.977  54.250  1.00  0.00     0.006 A 
ATOM      9  C   UNL     1       4.137  44.841  53.126  1.00  0.00    -0.020 A 
ENDROOT
BRANCH   1  10
ATOM     10  C   UNL     1       3.166  43.290  51.372  1.00  0.00     0.038 C 
BRANCH  10  11
ATOM     11  C   UNL     1       3.372  42.027  50.527  1.00  0.00     0.156 C 
BRANCH  11  12
ATOM     12  O   UNL     1       4.014  41.038  51.287  1.00  0.00    -0.396 OA
ATOM     13  H   UNL     1       4.172  41.427  52.186  1.00  0.00     0.210 HD
ENDBRANCH  11  12
ENDBRANCH  10  11
ENDBRANCH   1  10
BRANCH   3  14
ATOM     14  C   UNL     1       6.780  46.282  50.954  1.00  0.00     0.152 C 
BRANCH  14  15
ATOM     15  C   UNL     1       8.034  46.489  51.802  1.00  0.00     0.088 C 
ATOM     16  C   UNL     1       8.344  47.865  52.376  1.00  0.00     0.055 C 
ATOM     17  C   UNL     1       8.068  45.900  53.205  1.00  0.00     0.055 C 
ATOM     18  O   UNL     1       9.259  46.069  51.225  1.00  0.00    -0.372 OA
ATOM     19  C   UNL     1       9.145  46.963  53.293  1.00  0.00     0.063 C 
ATOM     20  C   UNL     1      10.140  46.401  52.293  1.00  0.00     0.176 C 
BRANCH  19  21
ATOM     21  C   UNL     1       9.603  47.462  54.626  1.00  0.00     0.183 A 
ATOM     22  N   UNL     1      10.627  46.932  55.323  1.00  0.00    -0.113 NA
ATOM     23  N   UNL     1       9.103  48.551  55.240  1.00  0.00    -0.139 NA
ATOM     24  N   UNL     1      10.742  47.701  56.392  1.00  0.00    -0.050 NA
ATOM     25  N   UNL     1       9.832  48.660  56.336  1.00  0.00    -0.177 N 
ATOM     26  H   UNL     1       9.712  49.405  57.056  1.00  0.00     0.216 HD
ENDBRANCH  19  21
ENDBRANCH  14  15
ENDBRANCH   3  14
TORSDOF 6
ENDMDL
MODEL 4
REMARK VINA RESULT:    -8.411      2.601      6.516
REMARK INTER + INTRA:         -11.385
REMARK INTER:                 -11.171
REMARK INTRA:                  -0.214
REMARK UNBOUND:                -0.270
REMARK SMILES OCC[C@H]1CN(C[C@]23C[C@](c4nn[nH]n4)(CO2)C3)c2ccccc21
REMARK SMILES IDX 4 1 5 2 6 3 19 4 20 5 21 6 22 7 23 8 24 9 3 10 2 11 1 12
REMARK SMILES IDX 7 14 8 15 9 16 18 17 17 18 10 19 16 20 11 21 12 22 15 23
REMARK SMILES IDX 13 24 14 25
REMARK H PARENT 1 13 14 26
ROOT
ATOM      1  C   UNL     1       8.684  46.669  54.443  1.00  0.00     0.043 C 
ATOM      2  C   UNL     1       7.145  46.897  54.518  1.00  0.00     0.125 C 
ATOM      3  N   UNL     1       6.670  46.888  53.136  1.00  0.00    -0.368 N 
ATOM      4  C   UNL     1       7.734  46.485  52.289  1.00  0.00     0.040 A 
ATOM      5  C   UNL     1       7.655  46.164  50.930  1.00  0.00     0.026 A 
ATOM      6  C   UNL     1       8.803  45.669  50.292  1.00  0.00     0.002 A 
ATOM      7  C   UNL     1       9.989  45.472  51.023  1.00  0.00     0.000 A 
ATOM      8  C   UNL     1      10.035  45.780  52.392  1.00  0.00     0.006 A 
ATOM      9  C   UNL     1       8.895  46.318  52.998  1.00  0.00    -0.020 A 
ENDROOT
BRANCH   1  10
ATOM     10  C   UNL     1       9.440  47.951  54.858  1.00  0.00     0.038 C 
BRANCH  10  11
ATOM     11  C   UNL     1      10.628  47.681  55.789  1.00  0.00     0.156 C 
BRANCH  11  12
ATOM     12  O   UNL     1      10.453  48.360  57.004  1.00  0.00    -0.396 OA
ATOM     13  H   UNL     1      10.578  47.690  57.726  1.00  0.00     0.210 HD
ENDBRANCH  11  12
ENDBRANCH  10  11
ENDBRANCH   1  10
BRANCH   3  14
ATOM     14  C   UNL     1       5.302  47.211  52.733  1.00  0.00     0.152 C 
BRANCH  14  15
ATOM     15  C   UNL     1       4.488  45.932  52.541  1.00  0.00     0.088 C 
ATOM     16  C   UNL     1       4.125  45.467  51.138  1.00  0.00     0.055 C 
ATOM     17  C   UNL     1       5.162  44.595  52.807  1.00  0.00     0.055 C 
ATOM     18  O   UNL     1       3.269  45.850  53.261  1.00  0.00    -0.372 OA
ATOM     19  C   UNL     1       3.998  44.181  51.929  1.00  0.00     0.063 C 
ATOM     20  C   UNL     1       2.845  44.558  52.843  1.00  0.00     0.176 C 
BRANCH  19  21
ATOM     21  C   UNL     1       4.015  42.861  51.228  1.00  0.00     0.183 A 
ATOM     22  N   UNL     1       5.135  42.239  50.810  1.00  0.00    -0.113 NA
ATOM     23  N   UNL     1       2.923  42.103  51.013  1.00  0.00    -0.139 NA
ATOM     24  N   UNL     1       4.716  41.087  50.313  1.00  0.00    -0.050 NA
ATOM     25  N   UNL     1       3.401  41.015  50.436  1.00  0.00    -0.177 N 
ATOM     26  H   UNL     1       2.821  40.205  50.126  1.00  0.00     0.216 HD
ENDBRANCH  19  21
ENDBRANCH  14  15
ENDBRANCH   3  14
TORSDOF 6
ENDMDL
MODEL 5
REMARK VINA RESULT:    -8.387      1.914      2.766
REMARK INTER + INTRA:         -11.354
REMARK INTER:                 -11.014
REMARK INTRA:                  -0.340
REMARK UNBOUND:                -0.270
REMARK SMILES OCC[C@H]1CN(C[C@]23C[C@](c4nn[nH]n4)(CO2)C3)c2ccccc21
REMARK SMILES IDX 4 1 5 2 6 3 19 4 20 5 21 6 22 7 23 8 24 9 3 10 2 11 1 12
REMARK SMILES IDX 7 14 8 15 9 16 18 17 17 18 10 19 16 20 11 21 12 22 15 23
REMARK SMILES IDX 13 24 14 25
REMARK H PARENT 1 13 14 26
ROOT
ATOM      1  C   UNL     1       2.109  43.264  51.421  1.00  0.00     0.043 C 
ATOM      2  C   UNL     1       2.364  44.800  51.427  1.00  0.00     0.125 C 
ATOM      3  N   UNL     1       3.799  44.971  51.212  1.00  0.00    -0.368 N 
ATOM      4  C   UNL     1       4.365  43.712  50.889  1.00  0.00     0.040 A 
ATOM      5  C   UNL     1       5.663  43.464  50.428  1.00  0.00     0.026 A 
ATOM      6  C   UNL     1       5.998  42.156  50.046  1.00  0.00     0.002 A 
ATOM      7  C   UNL     1       5.032  41.134  50.098  1.00  0.00     0.000 A 
ATOM      8  C   UNL     1       3.731  41.414  50.543  1.00  0.00     0.006 A 
ATOM      9  C   UNL     1       3.430  42.713  50.965  1.00  0.00    -0.020 A 
ENDROOT
BRANCH   1  10
ATOM     10  C   UNL     1       1.720  42.776  52.834  1.00  0.00     0.038 C 
BRANCH  10  11
ATOM     11  C   UNL     1       1.438  43.920  53.815  1.00  0.00     0.156 C 
BRANCH  11  12
ATOM     12  O   UNL     1       2.563  44.156  54.618  1.00  0.00    -0.396 OA
ATOM     13  H   UNL     1       2.673  45.142  54.672  1.00  0.00     0.210 HD
ENDBRANCH  11  12
ENDBRANCH  10  11
ENDBRANCH   1  10
BRANCH   3  14
ATOM     14  C   UNL     1       4.496  46.253  51.291  1.00  0.00     0.152 C 
BRANCH  14  15
ATOM     15  C   UNL     1       5.357  46.314  52.552  1.00  0.00     0.088 C 
ATOM     16  C   UNL     1       6.747  45.694  52.555  1.00  0.00     0.055 C 
ATOM     17  C   UNL     1       5.955  47.651  52.961  1.00  0.00     0.055 C 
ATOM     18  O   UNL     1       4.759  45.829  53.744  1.00  0.00    -0.372 OA
ATOM     19  C   UNL     1       6.849  46.678  53.703  1.00  0.00     0.063 C 
ATOM     20  C   UNL     1       5.829  46.069  54.650  1.00  0.00     0.176 C 
BRANCH  19  21
ATOM     21  C   UNL     1       8.188  47.115  54.203  1.00  0.00     0.183 A 
ATOM     22  N   UNL     1       8.372  48.004  55.198  1.00  0.00    -0.113 NA
ATOM     23  N   UNL     1       9.359  46.604  53.777  1.00  0.00    -0.139 NA
ATOM     24  N   UNL     1       9.683  48.051  55.370  1.00  0.00    -0.050 NA
ATOM     25  N   UNL     1      10.261  47.218  54.521  1.00  0.00    -0.177 N 
ATOM     26  H   UNL     1      11.291  47.062  54.453  1.00  0.00     0.216 HD
ENDBRANCH  19  21
ENDBRANCH  14  15
ENDBRANCH   3  14
TORSDOF 6
ENDMDL
