MODEL 1
REMARK VINA RESULT:    -6.684      0.000      0.000
REMARK INTER + INTRA:         -10.202
REMARK INTER:                 -10.201
REMARK INTRA:                  -0.001
REMARK UNBOUND:                -0.001
REMARK SMILES C[C@@H]1CN(C(=O)c2cc3oc(Br)cc3[nH]2)CCN(C2CCC2)C1
REMARK SMILES IDX 4 1 3 2 2 3 1 4 16 6 17 7 18 8 23 9 19 11 20 12 22 13 21 14
REMARK SMILES IDX 5 15 6 16 7 17 8 18 15 19 9 20 14 21 10 22 13 23 11 24 12 26
REMARK H PARENT 15 25
REMARK Flexibility Score:   47.900
ROOT
ATOM      1  N   UNL     1       4.395  45.369  52.267  1.00  0.00    -0.336 N 
ENDROOT
BRANCH   1   2
ATOM      2  C   UNL     1       4.696  44.437  51.178  1.00  0.00     0.124 C 
BRANCH   2   3
ATOM      3  C   UNL     1       6.218  44.288  50.982  1.00  0.00     0.019 CG0
ATOM      4  C   UNL     1       6.487  43.353  49.792  1.00  0.00     0.011 C 
ATOM      5  G   UNL     1       6.890  45.668  50.751  1.00  0.00     0.000 G0
ENDBRANCH   2   3
ENDBRANCH   1   2
BRANCH   1   6
ATOM      6  C   UNL     1       4.634  46.801  52.062  1.00  0.00     0.135 C 
BRANCH   6   7
ATOM      7  C   UNL     1       6.029  47.186  52.589  1.00  0.00     0.106 C 
BRANCH   7   8
ATOM      8  N   UNL     1       7.169  46.418  52.008  1.00  0.00    -0.298 NA
BRANCH   8   9
ATOM      9  C   UNL     1       6.917  45.668  50.755  1.00  0.00     0.090 CG0
ATOM     10  G   UNL     1       6.225  44.299  50.989  1.00  0.00     0.000 G0
ENDBRANCH   8   9
BRANCH   8  11
ATOM     11  C   UNL     1       8.487  47.112  51.953  1.00  0.00     0.056 C 
ATOM     12  C   UNL     1       9.680  46.180  51.744  1.00  0.00     0.019 C 
ATOM     13  C   UNL     1       9.070  47.568  53.292  1.00  0.00     0.019 C 
ATOM     14  C   UNL     1      10.262  46.641  53.078  1.00  0.00     0.003 C 
ENDBRANCH   8  11
ENDBRANCH   7   8
ENDBRANCH   6   7
ENDBRANCH   1   6
BRANCH   1  15
ATOM     15  C   UNL     1       4.212  44.861  53.599  1.00  0.00     0.270 C 
ATOM     16  O   UNL     1       5.184  44.326  54.201  1.00  0.00    -0.267 OA
BRANCH  15  17
ATOM     17  C   UNL     1       2.901  44.931  54.270  1.00  0.00     0.108 A 
ATOM     18  C   UNL     1       1.655  44.983  53.609  1.00  0.00     0.081 A 
ATOM     19  N   UNL     1       2.752  44.901  55.627  1.00  0.00    -0.348 N 
ATOM     20  C   UNL     1       0.771  44.993  54.655  1.00  0.00     0.154 A 
ATOM     21  C   UNL     1       1.427  44.949  55.791  1.00  0.00     0.086 A 
ATOM     22  O   UNL     1      -0.522  45.023  54.833  1.00  0.00    -0.448 OA
ATOM     23  C   UNL     1       0.543  44.945  56.835  1.00  0.00     0.085 A 
ATOM     24  C   UNL     1      -0.688  44.995  56.155  1.00  0.00     0.172 A 
ATOM     25  H   UNL     1       3.491  44.849  56.365  1.00  0.00     0.167 HD
ATOM     26  Br  UNL     1      -2.396  45.019  57.003  1.00  0.00    -0.008 Br
ENDBRANCH  15  17
ENDBRANCH   1  15
TORSDOF 3
ENDMDL
MODEL 2
REMARK VINA RESULT:    -6.564      2.365      2.958
REMARK INTER + INTRA:         -10.019
REMARK INTER:                 -10.002
REMARK INTRA:                  -0.018
REMARK UNBOUND:                -0.001
REMARK SMILES C[C@@H]1CN(C(=O)c2cc3oc(Br)cc3[nH]2)CCN(C2CCC2)C1
REMARK SMILES IDX 4 1 3 2 2 3 1 4 16 6 17 7 18 8 23 9 19 11 20 12 22 13 21 14
REMARK SMILES IDX 5 15 6 16 7 17 8 18 15 19 9 20 14 21 10 22 13 23 11 24 12 26
REMARK H PARENT 15 25
REMARK Flexibility Score:   47.900
ROOT
ATOM      1  N   UNL     1       4.940  44.117  52.059  1.00  0.00    -0.336 N 
ENDROOT
BRANCH   1   2
ATOM      2  C   UNL     1       5.048  44.617  53.431  1.00  0.00     0.124 C 
BRANCH   2   3
ATOM      3  C   UNL     1       4.909  46.152  53.475  1.00  0.00     0.019 CG0
ATOM      4  C   UNL     1       4.176  46.559  54.763  1.00  0.00     0.011 C 
ATOM      5  G   UNL     1       6.296  46.841  53.398  1.00  0.00     0.000 G0
ENDBRANCH   2   3
ENDBRANCH   1   2
BRANCH   1   6
ATOM      6  C   UNL     1       5.554  44.887  50.973  1.00  0.00     0.135 C 
BRANCH   6   7
ATOM      7  C   UNL     1       6.942  45.397  51.404  1.00  0.00     0.106 C 
BRANCH   7   8
ATOM      8  N   UNL     1       6.956  46.731  52.073  1.00  0.00    -0.298 NA
BRANCH   8   9
ATOM      9  C   UNL     1       6.300  46.835  53.398  1.00  0.00     0.090 CG0
ATOM     10  G   UNL     1       4.911  46.146  53.449  1.00  0.00     0.000 G0
ENDBRANCH   8   9
BRANCH   8  11
ATOM     11  C   UNL     1       8.249  47.473  52.063  1.00  0.00     0.056 C 
ATOM     12  C   UNL     1       9.477  46.594  51.831  1.00  0.00     0.019 C 
ATOM     13  C   UNL     1       8.799  47.893  53.428  1.00  0.00     0.019 C 
ATOM     14  C   UNL     1      10.027  47.019  53.190  1.00  0.00     0.003 C 
ENDBRANCH   8  11
ENDBRANCH   7   8
ENDBRANCH   6   7
ENDBRANCH   1   6
BRANCH   1  15
ATOM     15  C   UNL     1       3.967  43.104  51.753  1.00  0.00     0.270 C 
ATOM     16  O   UNL     1       4.329  42.051  51.162  1.00  0.00    -0.267 OA
BRANCH  15  17
ATOM     17  C   UNL     1       2.544  43.284  52.096  1.00  0.00     0.108 A 
ATOM     18  C   UNL     1       1.662  44.178  51.452  1.00  0.00     0.081 A 
ATOM     19  N   UNL     1       1.909  42.553  53.058  1.00  0.00    -0.348 N 
ATOM     20  C   UNL     1       0.479  43.936  52.099  1.00  0.00     0.154 A 
ATOM     21  C   UNL     1       0.654  43.008  53.010  1.00  0.00     0.086 A 
ATOM     22  O   UNL     1      -0.755  44.358  52.055  1.00  0.00    -0.448 OA
ATOM     23  C   UNL     1      -0.532  42.757  53.646  1.00  0.00     0.085 A 
ATOM     24  C   UNL     1      -1.393  43.655  52.989  1.00  0.00     0.172 A 
ATOM     25  H   UNL     1       2.302  41.811  53.682  1.00  0.00     0.167 HD
ATOM     26  Br  UNL     1      -3.251  43.854  53.374  1.00  0.00    -0.008 Br
ENDBRANCH  15  17
ENDBRANCH   1  15
TORSDOF 3
ENDMDL
MODEL 3
REMARK VINA RESULT:    -6.340      2.784      3.359
REMARK INTER + INTRA:          -9.677
REMARK INTER:                  -9.560
REMARK INTRA:                  -0.117
REMARK UNBOUND:                -0.001
REMARK SMILES C[C@@H]1CN(C(=O)c2cc3oc(Br)cc3[nH]2)CCN(C2CCC2)C1
REMARK SMILES IDX 4 1 3 2 2 3 1 4 16 6 17 7 18 8 23 9 19 11 20 12 22 13 21 14
REMARK SMILES IDX 5 15 6 16 7 17 8 18 15 19 9 20 14 21 10 22 13 23 11 24 12 26
REMARK H PARENT 15 25
REMARK Flexibility Score:   47.900
ROOT
ATOM      1  N   UNL     1       4.222  45.615  52.276  1.00  0.00    -0.336 N 
ENDROOT
BRANCH   1   2
ATOM      2  C   UNL     1       4.735  44.855  53.418  1.00  0.00     0.124 C 
BRANCH   2   3
ATOM      3  C   UNL     1       5.303  45.795  54.499  1.00  0.00     0.019 CG0
ATOM      4  C   UNL     1       5.195  45.114  55.873  1.00  0.00     0.011 C 
ATOM      5  G   UNL     1       6.777  46.171  54.194  1.00  0.00     0.000 G0
ENDBRANCH   2   3
ENDBRANCH   1   2
BRANCH   1   6
ATOM      6  C   UNL     1       5.145  45.991  51.201  1.00  0.00     0.135 C 
BRANCH   6   7
ATOM      7  C   UNL     1       6.601  45.865  51.685  1.00  0.00     0.106 C 
BRANCH   7   8
ATOM      8  N   UNL     1       6.971  46.733  52.841  1.00  0.00    -0.298 NA
BRANCH   8   9
ATOM      9  C   UNL     1       6.780  46.174  54.200  1.00  0.00     0.090 CG0
ATOM     10  G   UNL     1       5.305  45.800  54.507  1.00  0.00     0.000 G0
ENDBRANCH   8   9
BRANCH   8  11
ATOM     11  C   UNL     1       8.268  47.461  52.747  1.00  0.00     0.056 C 
ATOM     12  C   UNL     1       9.092  47.120  51.505  1.00  0.00     0.019 C 
ATOM     13  C   UNL     1       9.398  46.952  53.644  1.00  0.00     0.019 C 
ATOM     14  C   UNL     1      10.220  46.618  52.403  1.00  0.00     0.003 C 
ENDBRANCH   8  11
ENDBRANCH   7   8
ENDBRANCH   6   7
ENDBRANCH   1   6
BRANCH   1  15
ATOM     15  C   UNL     1       2.947  46.271  52.382  1.00  0.00     0.270 C 
ATOM     16  O   UNL     1       2.900  47.500  52.664  1.00  0.00    -0.267 OA
BRANCH  15  17
ATOM     17  C   UNL     1       1.688  45.529  52.190  1.00  0.00     0.108 A 
ATOM     18  C   UNL     1       1.470  44.546  51.201  1.00  0.00     0.081 A 
ATOM     19  N   UNL     1       0.598  45.682  52.998  1.00  0.00    -0.348 N 
ATOM     20  C   UNL     1       0.188  44.142  51.469  1.00  0.00     0.154 A 
ATOM     21  C   UNL     1      -0.281  44.811  52.496  1.00  0.00     0.086 A 
ATOM     22  O   UNL     1      -0.676  43.284  51.001  1.00  0.00    -0.448 OA
ATOM     23  C   UNL     1      -1.556  44.396  52.771  1.00  0.00     0.085 A 
ATOM     24  C   UNL     1      -1.750  43.419  51.778  1.00  0.00     0.172 A 
ATOM     25  H   UNL     1       0.475  46.322  53.816  1.00  0.00     0.167 HD
ATOM     26  Br  UNL     1      -3.348  42.401  51.556  1.00  0.00    -0.008 Br
ENDBRANCH  15  17
ENDBRANCH   1  15
TORSDOF 3
ENDMDL
MODEL 4
REMARK VINA RESULT:    -6.317      2.526      3.009
REMARK INTER + INTRA:          -9.641
REMARK INTER:                  -9.735
REMARK INTRA:                   0.094
REMARK UNBOUND:                -0.001
REMARK SMILES C[C@@H]1CN(C(=O)c2cc3oc(Br)cc3[nH]2)CCN(C2CCC2)C1
REMARK SMILES IDX 4 1 3 2 2 3 1 4 16 6 17 7 18 8 23 9 19 11 20 12 22 13 21 14
REMARK SMILES IDX 5 15 6 16 7 17 8 18 15 19 9 20 14 21 10 22 13 23 11 24 12 26
REMARK H PARENT 15 25
REMARK Flexibility Score:   47.900
ROOT
ATOM      1  N   UNL     1       4.290  45.793  53.824  1.00  0.00    -0.336 N 
ENDROOT
BRANCH   1   2
ATOM      2  C   UNL     1       5.127  44.849  53.081  1.00  0.00     0.124 C 
BRANCH   2   3
ATOM      3  C   UNL     1       5.623  45.470  51.759  1.00  0.00     0.019 CG0
ATOM      4  C   UNL     1       4.414  45.818  50.877  1.00  0.00     0.011 C 
ATOM      5  G   UNL     1       6.485  46.733  52.023  1.00  0.00     0.000 G0
ENDBRANCH   2   3
ENDBRANCH   1   2
BRANCH   1   6
ATOM      6  C   UNL     1       4.899  47.017  54.354  1.00  0.00     0.135 C 
BRANCH   6   7
ATOM      7  C   UNL     1       6.409  46.807  54.569  1.00  0.00     0.106 C 
BRANCH   7   8
ATOM      8  N   UNL     1       7.218  46.639  53.326  1.00  0.00    -0.298 NA
BRANCH   8   9
ATOM      9  C   UNL     1       6.500  46.720  52.032  1.00  0.00     0.090 CG0
ATOM     10  G   UNL     1       5.618  45.478  51.742  1.00  0.00     0.000 G0
ENDBRANCH   8   9
BRANCH   8  11
ATOM     11  C   UNL     1       8.511  47.378  53.261  1.00  0.00     0.056 C 
ATOM     12  C   UNL     1       9.742  46.482  53.137  1.00  0.00     0.019 C 
ATOM     13  C   UNL     1       9.040  47.935  54.584  1.00  0.00     0.019 C 
ATOM     14  C   UNL     1      10.271  47.043  54.454  1.00  0.00     0.003 C 
ENDBRANCH   8  11
ENDBRANCH   7   8
ENDBRANCH   6   7
ENDBRANCH   1   6
BRANCH   1  15
ATOM     15  C   UNL     1       3.010  45.362  54.318  1.00  0.00     0.270 C 
ATOM     16  O   UNL     1       2.798  45.341  55.561  1.00  0.00    -0.267 OA
BRANCH  15  17
ATOM     17  C   UNL     1       1.946  44.921  53.399  1.00  0.00     0.108 A 
ATOM     18  C   UNL     1       1.902  43.667  52.753  1.00  0.00     0.081 A 
ATOM     19  N   UNL     1       0.846  45.677  53.110  1.00  0.00    -0.348 N 
ATOM     20  C   UNL     1       0.721  43.736  52.062  1.00  0.00     0.154 A 
ATOM     21  C   UNL     1       0.145  44.894  52.284  1.00  0.00     0.086 A 
ATOM     22  O   UNL     1       0.016  42.979  51.267  1.00  0.00    -0.448 OA
ATOM     23  C   UNL     1      -1.041  44.956  51.606  1.00  0.00     0.085 A 
ATOM     24  C   UNL     1      -1.065  43.700  50.973  1.00  0.00     0.172 A 
ATOM     25  H   UNL     1       0.602  46.634  53.452  1.00  0.00     0.167 HD
ATOM     26  Br  UNL     1      -2.465  43.085  49.833  1.00  0.00    -0.008 Br
ENDBRANCH  15  17
ENDBRANCH   1  15
TORSDOF 3
ENDMDL
MODEL 5
REMARK VINA RESULT:    -6.245      1.680      2.021
REMARK INTER + INTRA:          -9.532
REMARK INTER:                 -10.081
REMARK INTRA:                   0.549
REMARK UNBOUND:                -0.001
REMARK SMILES C[C@@H]1CN(C(=O)c2cc3oc(Br)cc3[nH]2)CCN(C2CCC2)C1
REMARK SMILES IDX 4 1 3 2 2 3 1 4 16 6 17 7 18 8 23 9 19 11 20 12 22 13 21 14
REMARK SMILES IDX 5 15 6 16 7 17 8 18 15 19 9 20 14 21 10 22 13 23 11 24 12 26
REMARK H PARENT 15 25
REMARK Flexibility Score:   47.900
ROOT
ATOM      1  N   UNL     1       4.035  45.943  53.723  1.00  0.00    -0.336 N 
ENDROOT
BRANCH   1   2
ATOM      2  C   UNL     1       4.505  44.584  53.443  1.00  0.00     0.124 C 
BRANCH   2   3
ATOM      3  C   UNL     1       5.480  44.570  52.249  1.00  0.00     0.019 CG0
ATOM      4  C   UNL     1       4.685  44.382  50.947  1.00  0.00     0.011 C 
ATOM      5  G   UNL     1       6.314  45.877  52.192  1.00  0.00     0.000 G0
ENDBRANCH   2   3
ENDBRANCH   1   2
BRANCH   1   6
ATOM      6  C   UNL     1       4.858  46.820  54.560  1.00  0.00     0.135 C 
BRANCH   6   7
ATOM      7  C   UNL     1       6.273  46.233  54.713  1.00  0.00     0.106 C 
BRANCH   7   8
ATOM      8  N   UNL     1       7.064  46.127  53.451  1.00  0.00    -0.298 NA
BRANCH   8   9
ATOM      9  C   UNL     1       6.315  45.872  52.198  1.00  0.00     0.090 CG0
ATOM     10  G   UNL     1       5.471  44.570  52.243  1.00  0.00     0.000 G0
ENDBRANCH   8   9
BRANCH   8  11
ATOM     11  C   UNL     1       8.123  47.154  53.234  1.00  0.00     0.056 C 
ATOM     12  C   UNL     1       8.969  46.930  51.982  1.00  0.00     0.019 C 
ATOM     13  C   UNL     1       9.373  47.033  54.109  1.00  0.00     0.019 C 
ATOM     14  C   UNL     1      10.215  46.815  52.855  1.00  0.00     0.003 C 
ENDBRANCH   8  11
ENDBRANCH   7   8
ENDBRANCH   6   7
ENDBRANCH   1   6
BRANCH   1  15
ATOM     15  C   UNL     1       2.657  46.275  53.481  1.00  0.00     0.270 C 
ATOM     16  O   UNL     1       2.364  47.088  52.562  1.00  0.00    -0.267 OA
BRANCH  15  17
ATOM     17  C   UNL     1       1.578  45.701  54.305  1.00  0.00     0.108 A 
ATOM     18  C   UNL     1       1.645  45.492  55.699  1.00  0.00     0.081 A 
ATOM     19  N   UNL     1       0.358  45.351  53.801  1.00  0.00    -0.348 N 
ATOM     20  C   UNL     1       0.402  44.990  55.980  1.00  0.00     0.154 A 
ATOM     21  C   UNL     1      -0.306  44.919  54.877  1.00  0.00     0.086 A 
ATOM     22  O   UNL     1      -0.266  44.581  57.023  1.00  0.00    -0.448 OA
ATOM     23  C   UNL     1      -1.553  44.432  55.161  1.00  0.00     0.085 A 
ATOM     24  C   UNL     1      -1.463  44.234  56.551  1.00  0.00     0.172 A 
ATOM     25  H   UNL     1       0.017  45.408  52.814  1.00  0.00     0.167 HD
ATOM     26  Br  UNL     1      -2.871  43.555  57.643  1.00  0.00    -0.008 Br
ENDBRANCH  15  17
ENDBRANCH   1  15
TORSDOF 3
ENDMDL
