MODEL 1
REMARK VINA RESULT:    -9.337      0.000      0.000
REMARK INTER + INTRA:         -11.624
REMARK INTER:                 -11.247
REMARK INTRA:                  -0.377
REMARK UNBOUND:                -0.377
REMARK SMILES O=C(Nc1cccc(-c2[nH]nc3c2COCC3)c1)c1cncc(O)c1
REMARK SMILES IDX 1 1 2 2 3 3 19 5 20 6 25 7 21 8 23 9 22 10 24 11 4 13 5 14
REMARK SMILES IDX 18 15 6 16 8 17 7 18 9 19 10 20 13 21 11 22 14 23 12 24
REMARK SMILES IDX 15 25 17 26 16 27
REMARK H PARENT 3 4 24 12 10 28
ROOT
ATOM      1  O   UNL     1       1.287  44.970  52.307  1.00  0.00    -0.269 OA
ATOM      2  C   UNL     1       1.529  44.289  53.341  1.00  0.00     0.257 C 
ATOM      3  N   UNL     1       2.571  43.298  53.312  1.00  0.00    -0.322 N 
ATOM      4  H   UNL     1       2.471  42.462  53.932  1.00  0.00     0.170 HD
ENDROOT
BRANCH   2   5
ATOM      5  C   UNL     1       0.702  44.488  54.556  1.00  0.00     0.062 A 
ATOM      6  C   UNL     1      -0.652  44.111  54.567  1.00  0.00     0.125 A 
ATOM      7  C   UNL     1       1.238  45.078  55.714  1.00  0.00     0.063 A 
ATOM      8  N   UNL     1      -1.410  44.301  55.679  1.00  0.00    -0.260 NA
ATOM      9  C   UNL     1       0.435  45.263  56.846  1.00  0.00     0.134 A 
ATOM     10  C   UNL     1      -0.901  44.860  56.807  1.00  0.00     0.157 A 
BRANCH   9  11
ATOM     11  O   UNL     1       0.950  45.845  58.003  1.00  0.00    -0.506 OA
ATOM     12  H   UNL     1       1.798  45.499  58.438  1.00  0.00     0.293 HD
ENDBRANCH   9  11
ENDBRANCH   2   5
BRANCH   3  13
ATOM     13  C   UNL     1       3.658  43.312  52.371  1.00  0.00     0.042 A 
ATOM     14  C   UNL     1       3.725  42.321  51.382  1.00  0.00     0.026 A 
ATOM     15  C   UNL     1       4.687  44.267  52.457  1.00  0.00     0.036 A 
ATOM     16  C   UNL     1       4.785  42.301  50.472  1.00  0.00     0.003 A 
ATOM     17  C   UNL     1       5.749  44.262  51.536  1.00  0.00     0.002 A 
ATOM     18  C   UNL     1       5.791  43.267  50.546  1.00  0.00     0.010 A 
BRANCH  17  19
ATOM     19  C   UNL     1       6.827  45.275  51.614  1.00  0.00     0.071 A 
ATOM     20  N   UNL     1       7.550  45.709  50.556  1.00  0.00    -0.277 N 
ATOM     21  C   UNL     1       7.259  45.972  52.728  1.00  0.00     0.027 A 
ATOM     22  N   UNL     1       8.419  46.632  50.948  1.00  0.00    -0.180 NA
ATOM     23  C   UNL     1       6.835  45.975  54.166  1.00  0.00     0.200 C 
ATOM     24  C   UNL     1       8.258  46.783  52.274  1.00  0.00     0.071 A 
ATOM     25  O   UNL     1       7.203  47.201  54.790  1.00  0.00    -0.376 OA
ATOM     26  C   UNL     1       8.938  47.780  53.154  1.00  0.00     0.087 C 
ATOM     27  C   UNL     1       8.595  47.459  54.626  1.00  0.00     0.167 C 
ATOM     28  H   UNL     1       7.463  45.379  49.570  1.00  0.00     0.190 HD
ENDBRANCH  17  19
ENDBRANCH   3  13
TORSDOF 4
ENDMDL
MODEL 2
REMARK VINA RESULT:    -9.007      2.567      2.879
REMARK INTER + INTRA:         -11.227
REMARK INTER:                 -11.012
REMARK INTRA:                  -0.215
REMARK UNBOUND:                -0.377
REMARK SMILES O=C(Nc1cccc(-c2[nH]nc3c2COCC3)c1)c1cncc(O)c1
REMARK SMILES IDX 1 1 2 2 3 3 19 5 20 6 25 7 21 8 23 9 22 10 24 11 4 13 5 14
REMARK SMILES IDX 18 15 6 16 8 17 7 18 9 19 10 20 13 21 11 22 14 23 12 24
REMARK SMILES IDX 15 25 17 26 16 27
REMARK H PARENT 3 4 24 12 10 28
ROOT
ATOM      1  O   UNL     1       1.289  43.352  53.909  1.00  0.00    -0.269 OA
ATOM      2  C   UNL     1       0.652  44.391  54.235  1.00  0.00     0.257 C 
ATOM      3  N   UNL     1       1.277  45.680  54.100  1.00  0.00    -0.322 N 
ATOM      4  H   UNL     1       0.988  46.437  54.761  1.00  0.00     0.170 HD
ENDROOT
BRANCH   2   5
ATOM      5  C   UNL     1      -0.714  44.263  54.798  1.00  0.00     0.062 A 
ATOM      6  C   UNL     1      -1.780  43.830  53.990  1.00  0.00     0.125 A 
ATOM      7  C   UNL     1      -0.984  44.591  56.137  1.00  0.00     0.063 A 
ATOM      8  N   UNL     1      -3.033  43.720  54.507  1.00  0.00    -0.260 NA
ATOM      9  C   UNL     1      -2.284  44.469  56.644  1.00  0.00     0.134 A 
ATOM     10  C   UNL     1      -3.304  44.024  55.802  1.00  0.00     0.157 A 
BRANCH   9  11
ATOM     11  O   UNL     1      -2.569  44.789  57.970  1.00  0.00    -0.506 OA
ATOM     12  H   UNL     1      -1.982  44.466  58.731  1.00  0.00     0.293 HD
ENDBRANCH   9  11
ENDBRANCH   2   5
BRANCH   3  13
ATOM     13  C   UNL     1       2.381  45.941  53.218  1.00  0.00     0.042 A 
ATOM     14  C   UNL     1       2.180  45.899  51.831  1.00  0.00     0.026 A 
ATOM     15  C   UNL     1       3.674  46.182  53.716  1.00  0.00     0.036 A 
ATOM     16  C   UNL     1       3.243  46.125  50.955  1.00  0.00     0.003 A 
ATOM     17  C   UNL     1       4.747  46.425  52.840  1.00  0.00     0.002 A 
ATOM     18  C   UNL     1       4.520  46.389  51.455  1.00  0.00     0.010 A 
BRANCH  17  19
ATOM     19  C   UNL     1       6.107  46.693  53.362  1.00  0.00     0.071 A 
ATOM     20  N   UNL     1       6.379  47.076  54.631  1.00  0.00    -0.277 N 
ATOM     21  C   UNL     1       7.313  46.571  52.695  1.00  0.00     0.027 A 
ATOM     22  N   UNL     1       7.690  47.213  54.792  1.00  0.00    -0.180 NA
ATOM     23  C   UNL     1       7.679  46.151  51.303  1.00  0.00     0.200 C 
ATOM     24  C   UNL     1       8.262  46.923  53.610  1.00  0.00     0.071 A 
ATOM     25  O   UNL     1       9.027  45.691  51.261  1.00  0.00    -0.376 OA
ATOM     26  C   UNL     1       9.723  46.837  53.317  1.00  0.00     0.087 C 
ATOM     27  C   UNL     1       9.915  46.670  51.793  1.00  0.00     0.167 C 
ATOM     28  H   UNL     1       5.683  47.254  55.387  1.00  0.00     0.190 HD
ENDBRANCH  17  19
ENDBRANCH   3  13
TORSDOF 4
ENDMDL
MODEL 3
REMARK VINA RESULT:    -8.763      2.063      2.274
REMARK INTER + INTRA:         -10.933
REMARK INTER:                 -10.654
REMARK INTRA:                  -0.279
REMARK UNBOUND:                -0.377
REMARK SMILES O=C(Nc1cccc(-c2[nH]nc3c2COCC3)c1)c1cncc(O)c1
REMARK SMILES IDX 1 1 2 2 3 3 19 5 20 6 25 7 21 8 23 9 22 10 24 11 4 13 5 14
REMARK SMILES IDX 18 15 6 16 8 17 7 18 9 19 10 20 13 21 11 22 14 23 12 24
REMARK SMILES IDX 15 25 17 26 16 27
REMARK H PARENT 3 4 24 12 10 28
ROOT
ATOM      1  O   UNL     1       1.980  43.441  53.738  1.00  0.00    -0.269 OA
ATOM      2  C   UNL     1       1.675  44.529  54.300  1.00  0.00     0.257 C 
ATOM      3  N   UNL     1       2.475  45.700  54.063  1.00  0.00    -0.322 N 
ATOM      4  H   UNL     1       2.536  46.415  54.823  1.00  0.00     0.170 HD
ENDROOT
BRANCH   2   5
ATOM      5  C   UNL     1       0.524  44.569  55.234  1.00  0.00     0.062 A 
ATOM      6  C   UNL     1       0.660  45.145  56.509  1.00  0.00     0.125 A 
ATOM      7  C   UNL     1      -0.719  44.015  54.884  1.00  0.00     0.063 A 
ATOM      8  N   UNL     1      -0.394  45.175  57.367  1.00  0.00    -0.260 NA
ATOM      9  C   UNL     1      -1.789  44.058  55.787  1.00  0.00     0.134 A 
ATOM     10  C   UNL     1      -1.603  44.652  57.035  1.00  0.00     0.157 A 
BRANCH   9  11
ATOM     11  O   UNL     1      -3.029  43.515  55.455  1.00  0.00    -0.506 OA
ATOM     12  H   UNL     1      -3.387  42.689  55.921  1.00  0.00     0.293 HD
ENDBRANCH   9  11
ENDBRANCH   2   5
BRANCH   3  13
ATOM     13  C   UNL     1       3.316  45.870  52.909  1.00  0.00     0.042 A 
ATOM     14  C   UNL     1       2.736  45.905  51.633  1.00  0.00     0.026 A 
ATOM     15  C   UNL     1       4.715  45.944  53.029  1.00  0.00     0.036 A 
ATOM     16  C   UNL     1       3.536  46.045  50.497  1.00  0.00     0.003 A 
ATOM     17  C   UNL     1       5.527  46.098  51.891  1.00  0.00     0.002 A 
ATOM     18  C   UNL     1       4.924  46.143  50.624  1.00  0.00     0.010 A 
BRANCH  17  19
ATOM     19  C   UNL     1       6.999  46.191  52.015  1.00  0.00     0.071 A 
ATOM     20  N   UNL     1       7.874  45.840  51.043  1.00  0.00    -0.277 N 
ATOM     21  C   UNL     1       7.735  46.669  53.085  1.00  0.00     0.027 A 
ATOM     22  N   UNL     1       9.117  46.062  51.451  1.00  0.00    -0.180 NA
ATOM     23  C   UNL     1       7.355  47.235  54.420  1.00  0.00     0.200 C 
ATOM     24  C   UNL     1       9.038  46.550  52.701  1.00  0.00     0.071 A 
ATOM     25  O   UNL     1       8.407  48.048  54.932  1.00  0.00    -0.376 OA
ATOM     26  C   UNL     1      10.166  47.047  53.544  1.00  0.00     0.087 C 
ATOM     27  C   UNL     1       9.636  47.328  54.968  1.00  0.00     0.167 C 
ATOM     28  H   UNL     1       7.634  45.445  50.108  1.00  0.00     0.190 HD
ENDBRANCH  17  19
ENDBRANCH   3  13
TORSDOF 4
ENDMDL
MODEL 4
REMARK VINA RESULT:    -8.750      2.474      7.841
REMARK INTER + INTRA:         -10.917
REMARK INTER:                 -10.393
REMARK INTRA:                  -0.524
REMARK UNBOUND:                -0.377
REMARK SMILES O=C(Nc1cccc(-c2[nH]nc3c2COCC3)c1)c1cncc(O)c1
REMARK SMILES IDX 1 1 2 2 3 3 19 5 20 6 25 7 21 8 23 9 22 10 24 11 4 13 5 14
REMARK SMILES IDX 18 15 6 16 8 17 7 18 9 19 10 20 13 21 11 22 14 23 12 24
REMARK SMILES IDX 15 25 17 26 16 27
REMARK H PARENT 3 4 24 12 10 28
ROOT
ATOM      1  O   UNL     1       5.787  46.243  51.120  1.00  0.00    -0.269 OA
ATOM      2  C   UNL     1       6.358  45.727  52.120  1.00  0.00     0.257 C 
ATOM      3  N   UNL     1       5.730  44.636  52.814  1.00  0.00    -0.322 N 
ATOM      4  H   UNL     1       5.921  44.529  53.836  1.00  0.00     0.170 HD
ENDROOT
BRANCH   2   5
ATOM      5  C   UNL     1       7.647  46.289  52.592  1.00  0.00     0.062 A 
ATOM      6  C   UNL     1       8.839  46.024  51.896  1.00  0.00     0.125 A 
ATOM      7  C   UNL     1       7.717  47.076  53.754  1.00  0.00     0.063 A 
ATOM      8  N   UNL     1      10.020  46.534  52.334  1.00  0.00    -0.260 NA
ATOM      9  C   UNL     1       8.947  47.588  54.185  1.00  0.00     0.134 A 
ATOM     10  C   UNL     1      10.099  47.303  53.450  1.00  0.00     0.157 A 
BRANCH   9  11
ATOM     11  O   UNL     1       9.034  48.371  55.335  1.00  0.00    -0.506 OA
ATOM     12  H   UNL     1       8.854  47.984  56.254  1.00  0.00     0.293 HD
ENDBRANCH   9  11
ENDBRANCH   2   5
BRANCH   3  13
ATOM     13  C   UNL     1       4.737  43.781  52.221  1.00  0.00     0.042 A 
ATOM     14  C   UNL     1       5.069  43.021  51.091  1.00  0.00     0.026 A 
ATOM     15  C   UNL     1       3.422  43.735  52.717  1.00  0.00     0.036 A 
ATOM     16  C   UNL     1       4.114  42.203  50.484  1.00  0.00     0.003 A 
ATOM     17  C   UNL     1       2.458  42.903  52.120  1.00  0.00     0.002 A 
ATOM     18  C   UNL     1       2.816  42.141  50.996  1.00  0.00     0.010 A 
BRANCH  17  19
ATOM     19  C   UNL     1       1.076  42.841  52.648  1.00  0.00     0.071 A 
ATOM     20  N   UNL     1       0.633  41.913  53.528  1.00  0.00    -0.277 N 
ATOM     21  C   UNL     1       0.027  43.704  52.388  1.00  0.00     0.027 A 
ATOM     22  N   UNL     1      -0.640  42.141  53.824  1.00  0.00    -0.180 NA
ATOM     23  C   UNL     1      -0.104  44.936  51.543  1.00  0.00     0.200 C 
ATOM     24  C   UNL     1      -1.020  43.221  53.118  1.00  0.00     0.071 A 
ATOM     25  O   UNL     1      -1.185  45.741  52.004  1.00  0.00    -0.376 OA
ATOM     26  C   UNL     1      -2.334  43.925  53.190  1.00  0.00     0.087 C 
ATOM     27  C   UNL     1      -2.392  44.985  52.067  1.00  0.00     0.167 C 
ATOM     28  H   UNL     1       1.185  41.122  53.924  1.00  0.00     0.190 HD
ENDBRANCH  17  19
ENDBRANCH   3  13
TORSDOF 4
ENDMDL
MODEL 5
REMARK VINA RESULT:    -8.580      1.648      7.619
REMARK INTER + INTRA:         -10.713
REMARK INTER:                 -10.480
REMARK INTRA:                  -0.233
REMARK UNBOUND:                -0.377
REMARK SMILES O=C(Nc1cccc(-c2[nH]nc3c2COCC3)c1)c1cncc(O)c1
REMARK SMILES IDX 1 1 2 2 3 3 19 5 20 6 25 7 21 8 23 9 22 10 24 11 4 13 5 14
REMARK SMILES IDX 18 15 6 16 8 17 7 18 9 19 10 20 13 21 11 22 14 23 12 24
REMARK SMILES IDX 15 25 17 26 16 27
REMARK H PARENT 3 4 24 12 10 28
ROOT
ATOM      1  O   UNL     1       5.027  46.713  52.053  1.00  0.00    -0.269 OA
ATOM      2  C   UNL     1       5.841  45.965  52.660  1.00  0.00     0.257 C 
ATOM      3  N   UNL     1       5.383  44.725  53.226  1.00  0.00    -0.322 N 
ATOM      4  H   UNL     1       5.873  44.361  54.075  1.00  0.00     0.170 HD
ENDROOT
BRANCH   2   5
ATOM      5  C   UNL     1       7.249  46.401  52.823  1.00  0.00     0.062 A 
ATOM      6  C   UNL     1       8.160  46.286  51.758  1.00  0.00     0.125 A 
ATOM      7  C   UNL     1       7.716  46.917  54.044  1.00  0.00     0.063 A 
ATOM      8  N   UNL     1       9.452  46.680  51.911  1.00  0.00    -0.260 NA
ATOM      9  C   UNL     1       9.053  47.315  54.176  1.00  0.00     0.134 A 
ATOM     10  C   UNL     1       9.912  47.188  53.083  1.00  0.00     0.157 A 
BRANCH   9  11
ATOM     11  O   UNL     1       9.532  47.828  55.379  1.00  0.00    -0.506 OA
ATOM     12  H   UNL     1      10.257  47.356  55.906  1.00  0.00     0.293 HD
ENDBRANCH   9  11
ENDBRANCH   2   5
BRANCH   3  13
ATOM     13  C   UNL     1       4.198  44.039  52.786  1.00  0.00     0.042 A 
ATOM     14  C   UNL     1       4.246  43.255  51.626  1.00  0.00     0.026 A 
ATOM     15  C   UNL     1       2.975  44.185  53.465  1.00  0.00     0.036 A 
ATOM     16  C   UNL     1       3.102  42.600  51.167  1.00  0.00     0.003 A 
ATOM     17  C   UNL     1       1.821  43.518  53.018  1.00  0.00     0.002 A 
ATOM     18  C   UNL     1       1.895  42.728  51.860  1.00  0.00     0.010 A 
BRANCH  17  19
ATOM     19  C   UNL     1       0.535  43.658  53.739  1.00  0.00     0.071 A 
ATOM     20  N   UNL     1      -0.609  43.022  53.395  1.00  0.00    -0.277 N 
ATOM     21  C   UNL     1       0.274  44.401  54.876  1.00  0.00     0.027 A 
ATOM     22  N   UNL     1      -1.576  43.336  54.248  1.00  0.00    -0.180 NA
ATOM     23  C   UNL     1       1.123  45.277  55.747  1.00  0.00     0.200 C 
ATOM     24  C   UNL     1      -1.047  44.191  55.142  1.00  0.00     0.071 A 
ATOM     25  O   UNL     1       0.552  45.387  57.047  1.00  0.00    -0.376 OA
ATOM     26  C   UNL     1      -1.714  44.747  56.356  1.00  0.00     0.087 C 
ATOM     27  C   UNL     1      -0.801  45.830  56.973  1.00  0.00     0.167 C 
ATOM     28  H   UNL     1      -0.742  42.382  52.582  1.00  0.00     0.190 HD
ENDBRANCH  17  19
ENDBRANCH   3  13
TORSDOF 4
ENDMDL
