ligand_1_conformer_3_docked
     RDKit          3D

 54 58  0  0  0  0  0  0  0  0999 V2000
    3.3750   41.1030   50.4560 O   0  0  0  0  0  0  0  0  0  0  0  0
    3.3610   42.2690   50.9360 C   0  0  0  0  0  0  0  0  0  0  0  0
    4.5790   43.0960   50.8410 C   0  0  0  0  0  0  0  0  0  0  0  0
    4.6980   44.2890   51.5970 C   0  0  0  0  0  0  0  0  0  0  0  0
    5.8660   45.0710   51.5310 C   0  0  0  0  0  0  0  0  0  0  0  0
    6.8990   44.6310   50.7020 C   0  0  0  0  0  0  0  0  0  0  0  0
    6.7880   43.4750   49.9760 C   0  0  0  0  0  0  0  0  0  0  0  0
    5.6500   42.6730   50.0260 C   0  0  0  0  0  0  0  0  0  0  0  0
    7.9030   43.2790   49.2550 N   0  0  0  0  0  0  0  0  0  0  0  0
    8.6800   44.3410   49.5660 C   0  0  0  0  0  0  0  0  0  0  0  0
    9.8240   44.5190   49.0670 O   0  0  0  0  0  0  0  0  0  0  0  0
    8.1050   45.1950   50.4580 N   0  0  0  0  0  0  0  0  0  0  0  0
    8.6580   46.4430   51.0130 C   0  0  0  0  0  0  0  0  0  0  0  0
    9.9030   46.1790   51.8760 C   0  0  0  0  0  0  0  0  0  0  0  0
    9.5390   46.5830   53.3030 C   0  0  0  0  0  0  0  0  0  0  0  0
    8.4030   47.5830   53.1640 C   0  0  0  0  0  0  0  0  0  0  0  0
    7.6400   47.1710   51.9080 C   0  0  0  0  0  0  0  0  0  0  0  0
    2.1650   42.7630   51.5620 N   0  0  0  0  0  0  0  0  0  0  0  0
    0.9670   43.1520   50.8360 C   0  0  0  0  0  0  0  0  0  0  0  0
   -0.1460   43.1870   51.8760 C   0  0  0  0  0  0  0  0  0  0  0  0
    0.5560   43.2840   53.2330 C   0  0  2  0  0  0  0  0  0  0  0  0
    0.6400   44.6560   53.6230 O   0  0  0  0  0  0  0  0  0  0  0  0
    1.8210   45.3350   53.9680 C   0  0  0  0  0  0  0  0  0  0  0  0
    2.5600   45.0300   55.1290 C   0  0  0  0  0  0  0  0  0  0  0  0
    3.7390   45.7210   55.4130 C   0  0  0  0  0  0  0  0  0  0  0  0
    4.1890   46.7240   54.5510 C   0  0  0  0  0  0  0  0  0  0  0  0
    3.4530   47.0440   53.4070 C   0  0  0  0  0  0  0  0  0  0  0  0
    3.8880   48.0220   52.5730 F   0  0  0  0  0  0  0  0  0  0  0  0
    2.2770   46.3510   53.1170 C   0  0  0  0  0  0  0  0  0  0  0  0
    1.9500   42.6990   52.9960 C   0  0  0  0  0  0  0  0  0  0  0  0
    3.8669   44.6076   52.2434 H   0  0  0  0  0  0  0  0  0  0  0  0
    5.9618   45.9990   52.1139 H   0  0  0  0  0  0  0  0  0  0  0  0
    5.5884   41.7391   49.4481 H   0  0  0  0  0  0  0  0  0  0  0  0
    8.1170   42.4940   48.6020 H   0  0  0  0  0  0  0  0  0  0  0  0
    8.9163   47.0631   50.1419 H   0  0  0  0  0  0  0  0  0  0  0  0
   10.1704   45.1126   51.8401 H   0  0  0  0  0  0  0  0  0  0  0  0
   10.7678   46.7519   51.5101 H   0  0  0  0  0  0  0  0  0  0  0  0
    9.2105   45.7054   53.8792 H   0  0  0  0  0  0  0  0  0  0  0  0
   10.3987   47.0134   53.8374 H   0  0  0  0  0  0  0  0  0  0  0  0
    7.7445   47.5398   54.0440 H   0  0  0  0  0  0  0  0  0  0  0  0
    8.7775   48.6147   53.0909 H   0  0  0  0  0  0  0  0  0  0  0  0
    6.8100   46.4978   52.1686 H   0  0  0  0  0  0  0  0  0  0  0  0
    7.2049   48.0425   51.3969 H   0  0  0  0  0  0  0  0  0  0  0  0
    1.0988   44.1445   50.3805 H   0  0  0  0  0  0  0  0  0  0  0  0
    0.7398   42.4518   50.0186 H   0  0  0  0  0  0  0  0  0  0  0  0
   -0.7930   44.0621   51.7157 H   0  0  0  0  0  0  0  0  0  0  0  0
   -0.7870   42.2952   51.8140 H   0  0  0  0  0  0  0  0  0  0  0  0
    0.0238   42.7483   54.0329 H   0  0  0  0  0  0  0  0  0  0  0  0
    2.2063   44.2448   55.8134 H   0  0  0  0  0  0  0  0  0  0  0  0
    4.3150   45.4753   56.3174 H   0  0  0  0  0  0  0  0  0  0  0  0
    5.1226   47.2618   54.7727 H   0  0  0  0  0  0  0  0  0  0  0  0
    1.7033   46.6042   52.2133 H   0  0  0  0  0  0  0  0  0  0  0  0
    2.7101   43.2931   53.5245 H   0  0  0  0  0  0  0  0  0  0  0  0
    2.0267   41.6681   53.3721 H   0  0  0  0  0  0  0  0  0  0  0  0
  1  2  2  0
  2  3  1  0
  3  4  2  0
  4  5  1  0
  5  6  2  0
  6  7  1  0
  7  8  2  0
  7  9  1  0
  9 10  1  0
 10 11  2  0
 10 12  1  0
 12 13  1  0
 13 14  1  0
 14 15  1  0
 15 16  1  0
 16 17  1  0
  2 18  1  0
 18 19  1  0
 19 20  1  0
 20 21  1  0
 21 22  1  0
 22 23  1  0
 23 24  2  0
 24 25  1  0
 25 26  2  0
 26 27  1  0
 27 28  1  0
 27 29  2  0
 21 30  1  0
  8  3  1  0
 17 13  1  0
 30 18  1  0
 12  6  1  0
 29 23  1  0
  4 31  1  0
  5 32  1  0
  8 33  1  0
  9 34  1  0
 13 35  1  0
 14 36  1  0
 14 37  1  0
 15 38  1  0
 15 39  1  0
 16 40  1  0
 16 41  1  0
 17 42  1  0
 17 43  1  0
 19 44  1  0
 19 45  1  0
 20 46  1  0
 20 47  1  0
 21 48  1  1
 24 49  1  0
 25 50  1  0
 26 51  1  0
 29 52  1  0
 30 53  1  0
 30 54  1  0
M  END
>  <meeko>  (1) 
{"is_sidechain": [false], "free_energy": -10.043, "intermolecular_energy": -12.979, "internal_energy": -0.795}

$$$$
ligand_1_conformer_3_docked
     RDKit          3D

 54 58  0  0  0  0  0  0  0  0999 V2000
    5.3160   41.3800   50.1050 O   0  0  0  0  0  0  0  0  0  0  0  0
    5.3910   42.5650   50.5300 C   0  0  0  0  0  0  0  0  0  0  0  0
    4.2990   43.0940   51.3680 C   0  0  0  0  0  0  0  0  0  0  0  0
    2.9500   42.9750   50.9480 C   0  0  0  0  0  0  0  0  0  0  0  0
    1.8990   43.4540   51.7530 C   0  0  0  0  0  0  0  0  0  0  0  0
    2.2300   44.0450   52.9740 C   0  0  0  0  0  0  0  0  0  0  0  0
    3.5330   44.1540   53.3830 C   0  0  0  0  0  0  0  0  0  0  0  0
    4.5950   43.6820   52.6160 C   0  0  0  0  0  0  0  0  0  0  0  0
    3.5860   44.7650   54.5780 N   0  0  0  0  0  0  0  0  0  0  0  0
    2.2910   45.0170   54.8700 C   0  0  0  0  0  0  0  0  0  0  0  0
    1.9320   45.6030   55.9270 O   0  0  0  0  0  0  0  0  0  0  0  0
    1.4220   44.5840   53.9150 N   0  0  0  0  0  0  0  0  0  0  0  0
   -0.0480   44.6930   53.9020 C   0  0  0  0  0  0  0  0  0  0  0  0
   -0.7220   43.3280   54.1260 C   0  0  0  0  0  0  0  0  0  0  0  0
   -1.4790   42.9990   52.8420 C   0  0  0  0  0  0  0  0  0  0  0  0
   -1.7430   44.3370   52.1720 C   0  0  0  0  0  0  0  0  0  0  0  0
   -0.5690   45.2330   52.5590 C   0  0  0  0  0  0  0  0  0  0  0  0
    6.5330   43.3690   50.1890 N   0  0  0  0  0  0  0  0  0  0  0  0
    7.6350   42.9090   49.3590 C   0  0  0  0  0  0  0  0  0  0  0  0
    8.3640   44.1710   48.9160 C   0  0  0  0  0  0  0  0  0  0  0  0
    7.9380   45.2650   49.8970 C   0  0  2  0  0  0  0  0  0  0  0  0
    8.9040   45.3590   50.9470 O   0  0  0  0  0  0  0  0  0  0  0  0
    8.9180   46.3360   51.9570 C   0  0  0  0  0  0  0  0  0  0  0  0
    8.1160   47.4940   51.9040 C   0  0  0  0  0  0  0  0  0  0  0  0
    8.1530   48.4220   52.9470 C   0  0  0  0  0  0  0  0  0  0  0  0
    8.9910   48.2090   54.0450 C   0  0  0  0  0  0  0  0  0  0  0  0
    9.8020   47.0730   54.0960 C   0  0  0  0  0  0  0  0  0  0  0  0
   10.6190   46.8700   55.1600 F   0  0  0  0  0  0  0  0  0  0  0  0
    9.7630   46.1400   53.0580 C   0  0  0  0  0  0  0  0  0  0  0  0
    6.5860   44.7970   50.4430 C   0  0  0  0  0  0  0  0  0  0  0  0
    2.7218   42.5026   49.9812 H   0  0  0  0  0  0  0  0  0  0  0  0
    0.8511   43.3655   51.4305 H   0  0  0  0  0  0  0  0  0  0  0  0
    5.6325   43.7650   52.9720 H   0  0  0  0  0  0  0  0  0  0  0  0
    4.4310   44.9970   55.1440 H   0  0  0  0  0  0  0  0  0  0  0  0
   -0.2986   45.3862   54.7185 H   0  0  0  0  0  0  0  0  0  0  0  0
    0.0376   42.5581   54.3266 H   0  0  0  0  0  0  0  0  0  0  0  0
   -1.4017   43.3585   54.9903 H   0  0  0  0  0  0  0  0  0  0  0  0
   -0.8691   42.3564   52.1901 H   0  0  0  0  0  0  0  0  0  0  0  0
   -2.4123   42.4541   53.0468 H   0  0  0  0  0  0  0  0  0  0  0  0
   -1.7892   44.2162   51.0796 H   0  0  0  0  0  0  0  0  0  0  0  0
   -2.7038   44.7674   52.4906 H   0  0  0  0  0  0  0  0  0  0  0  0
    0.2199   45.1809   51.7942 H   0  0  0  0  0  0  0  0  0  0  0  0
   -0.8757   46.2863   52.6400 H   0  0  0  0  0  0  0  0  0  0  0  0
    8.3077   42.2595   49.9383 H   0  0  0  0  0  0  0  0  0  0  0  0
    7.2813   42.3190   48.5006 H   0  0  0  0  0  0  0  0  0  0  0  0
    9.4527   44.0199   48.9600 H   0  0  0  0  0  0  0  0  0  0  0  0
    8.1156   44.4387   47.8784 H   0  0  0  0  0  0  0  0  0  0  0  0
    7.8640   46.2579   49.4294 H   0  0  0  0  0  0  0  0  0  0  0  0
    7.4592   47.6672   51.0388 H   0  0  0  0  0  0  0  0  0  0  0  0
    7.5217   49.3218   52.9042 H   0  0  0  0  0  0  0  0  0  0  0  0
    9.0119   48.9366   54.8697 H   0  0  0  0  0  0  0  0  0  0  0  0
   10.4001   45.2445   53.1046 H   0  0  0  0  0  0  0  0  0  0  0  0
    6.5182   44.9973   51.5225 H   0  0  0  0  0  0  0  0  0  0  0  0
    5.7493   45.3260   49.9634 H   0  0  0  0  0  0  0  0  0  0  0  0
  1  2  2  0
  2  3  1  0
  3  4  2  0
  4  5  1  0
  5  6  2  0
  6  7  1  0
  7  8  2  0
  7  9  1  0
  9 10  1  0
 10 11  2  0
 10 12  1  0
 12 13  1  0
 13 14  1  0
 14 15  1  0
 15 16  1  0
 16 17  1  0
  2 18  1  0
 18 19  1  0
 19 20  1  0
 20 21  1  0
 21 22  1  0
 22 23  1  0
 23 24  2  0
 24 25  1  0
 25 26  2  0
 26 27  1  0
 27 28  1  0
 27 29  2  0
 21 30  1  0
  8  3  1  0
 17 13  1  0
 30 18  1  0
 12  6  1  0
 29 23  1  0
  4 31  1  0
  5 32  1  0
  8 33  1  0
  9 34  1  0
 13 35  1  0
 14 36  1  0
 14 37  1  0
 15 38  1  0
 15 39  1  0
 16 40  1  0
 16 41  1  0
 17 42  1  0
 17 43  1  0
 19 44  1  0
 19 45  1  0
 20 46  1  0
 20 47  1  0
 21 48  1  6
 24 49  1  0
 25 50  1  0
 26 51  1  0
 29 52  1  0
 30 53  1  0
 30 54  1  0
M  END
>  <meeko>  (2) 
{"is_sidechain": [false], "free_energy": -9.539, "intermolecular_energy": -12.717, "internal_energy": -0.405}

$$$$
ligand_1_conformer_3_docked
     RDKit          3D

 54 58  0  0  0  0  0  0  0  0999 V2000
    1.5610   43.3990   50.7950 O   0  0  0  0  0  0  0  0  0  0  0  0
    2.1610   44.0470   51.6960 C   0  0  0  0  0  0  0  0  0  0  0  0
    1.4370   44.3890   52.9340 C   0  0  0  0  0  0  0  0  0  0  0  0
    0.0340   44.1980   53.0210 C   0  0  0  0  0  0  0  0  0  0  0  0
   -0.6620   44.4980   54.2060 C   0  0  0  0  0  0  0  0  0  0  0  0
    0.0730   44.9860   55.2890 C   0  0  0  0  0  0  0  0  0  0  0  0
    1.4290   45.1640   55.2070 C   0  0  0  0  0  0  0  0  0  0  0  0
    2.1500   44.8680   54.0540 C   0  0  0  0  0  0  0  0  0  0  0  0
    1.8960   45.6490   56.3690 N   0  0  0  0  0  0  0  0  0  0  0  0
    0.7920   45.7570   57.1410 C   0  0  0  0  0  0  0  0  0  0  0  0
    0.8260   46.1970   58.3220 O   0  0  0  0  0  0  0  0  0  0  0  0
   -0.3510   45.3530   56.5200 N   0  0  0  0  0  0  0  0  0  0  0  0
   -1.7240   45.3350   57.0560 C   0  0  0  0  0  0  0  0  0  0  0  0
   -2.2770   43.9030   57.1550 C   0  0  0  0  0  0  0  0  0  0  0  0
   -3.4520   43.8200   56.1830 C   0  0  0  0  0  0  0  0  0  0  0  0
   -3.9350   45.2500   56.0080 C   0  0  0  0  0  0  0  0  0  0  0  0
   -2.6950   46.1280   56.1650 C   0  0  0  0  0  0  0  0  0  0  0  0
    3.5310   44.4340   51.4950 N   0  0  0  0  0  0  0  0  0  0  0  0
    4.6640   43.5400   51.6690 C   0  0  0  0  0  0  0  0  0  0  0  0
    5.8280   44.2150   50.9540 C   0  0  0  0  0  0  0  0  0  0  0  0
    5.4330   45.6870   50.8140 C   0  0  2  0  0  0  0  0  0  0  0  0
    5.9830   46.4280   51.9050 O   0  0  0  0  0  0  0  0  0  0  0  0
    7.3500   46.5360   52.2110 C   0  0  0  0  0  0  0  0  0  0  0  0
    8.3620   46.1660   51.3040 C   0  0  0  0  0  0  0  0  0  0  0  0
    9.7060   46.3150   51.6510 C   0  0  0  0  0  0  0  0  0  0  0  0
   10.0540   46.8250   52.9050 C   0  0  0  0  0  0  0  0  0  0  0  0
    9.0560   47.1790   53.8170 C   0  0  0  0  0  0  0  0  0  0  0  0
    9.3950   47.6700   55.0350 F   0  0  0  0  0  0  0  0  0  0  0  0
    7.7110   47.0360   53.4700 C   0  0  0  0  0  0  0  0  0  0  0  0
    3.9030   45.6900   50.8700 C   0  0  0  0  0  0  0  0  0  0  0  0
   -0.5164   43.8105   52.1510 H   0  0  0  0  0  0  0  0  0  0  0  0
   -1.7500   44.3530   54.2775 H   0  0  0  0  0  0  0  0  0  0  0  0
    3.2410   45.0031   54.0167 H   0  0  0  0  0  0  0  0  0  0  0  0
    2.8790   45.8940   56.6140 H   0  0  0  0  0  0  0  0  0  0  0  0
   -1.6566   45.7929   58.0539 H   0  0  0  0  0  0  0  0  0  0  0  0
   -1.5005   43.1762   56.8745 H   0  0  0  0  0  0  0  0  0  0  0  0
   -2.5951   43.6711   58.1821 H   0  0  0  0  0  0  0  0  0  0  0  0
   -3.1248   43.4039   55.2187 H   0  0  0  0  0  0  0  0  0  0  0  0
   -4.2492   43.1631   56.5611 H   0  0  0  0  0  0  0  0  0  0  0  0
   -4.3772   45.3859   55.0100 H   0  0  0  0  0  0  0  0  0  0  0  0
   -4.7112   45.5089   56.7432 H   0  0  0  0  0  0  0  0  0  0  0  0
   -2.2391   46.3246   55.1834 H   0  0  0  0  0  0  0  0  0  0  0  0
   -2.9451   47.1026   56.6095 H   0  0  0  0  0  0  0  0  0  0  0  0
    4.8916   43.4112   52.7374 H   0  0  0  0  0  0  0  0  0  0  0  0
    4.4602   42.5386   51.2620 H   0  0  0  0  0  0  0  0  0  0  0  0
    6.7492   44.1202   51.5476 H   0  0  0  0  0  0  0  0  0  0  0  0
    6.0249   43.7534   49.9751 H   0  0  0  0  0  0  0  0  0  0  0  0
    5.8040   46.1463   49.8859 H   0  0  0  0  0  0  0  0  0  0  0  0
    8.0924   45.7581   50.3186 H   0  0  0  0  0  0  0  0  0  0  0  0
   10.4924   46.0306   50.9364 H   0  0  0  0  0  0  0  0  0  0  0  0
   11.1135   46.9477   53.1740 H   0  0  0  0  0  0  0  0  0  0  0  0
    6.9287   47.3178   54.1901 H   0  0  0  0  0  0  0  0  0  0  0  0
    3.5427   46.5386   51.4700 H   0  0  0  0  0  0  0  0  0  0  0  0
    3.4600   45.7922   49.8683 H   0  0  0  0  0  0  0  0  0  0  0  0
  1  2  2  0
  2  3  1  0
  3  4  2  0
  4  5  1  0
  5  6  2  0
  6  7  1  0
  7  8  2  0
  7  9  1  0
  9 10  1  0
 10 11  2  0
 10 12  1  0
 12 13  1  0
 13 14  1  0
 14 15  1  0
 15 16  1  0
 16 17  1  0
  2 18  1  0
 18 19  1  0
 19 20  1  0
 20 21  1  0
 21 22  1  0
 22 23  1  0
 23 24  2  0
 24 25  1  0
 25 26  2  0
 26 27  1  0
 27 28  1  0
 27 29  2  0
 21 30  1  0
  8  3  1  0
 17 13  1  0
 30 18  1  0
 12  6  1  0
 29 23  1  0
  4 31  1  0
  5 32  1  0
  8 33  1  0
  9 34  1  0
 13 35  1  0
 14 36  1  0
 14 37  1  0
 15 38  1  0
 15 39  1  0
 16 40  1  0
 16 41  1  0
 17 42  1  0
 17 43  1  0
 19 44  1  0
 19 45  1  0
 20 46  1  0
 20 47  1  0
 21 48  1  6
 24 49  1  0
 25 50  1  0
 26 51  1  0
 29 52  1  0
 30 53  1  0
 30 54  1  0
M  END
>  <meeko>  (3) 
{"is_sidechain": [false], "free_energy": -9.303, "intermolecular_energy": -12.301, "internal_energy": -0.517}

$$$$
ligand_1_conformer_3_docked
     RDKit          3D

 54 58  0  0  0  0  0  0  0  0999 V2000
    3.5020   41.5440   51.0590 O   0  0  0  0  0  0  0  0  0  0  0  0
    3.1360   42.6690   51.4960 C   0  0  0  0  0  0  0  0  0  0  0  0
    4.1630   43.6650   51.8530 C   0  0  0  0  0  0  0  0  0  0  0  0
    5.1820   44.0090   50.9280 C   0  0  0  0  0  0  0  0  0  0  0  0
    6.1520   44.9760   51.2500 C   0  0  0  0  0  0  0  0  0  0  0  0
    6.0750   45.5850   52.5040 C   0  0  0  0  0  0  0  0  0  0  0  0
    5.0860   45.2580   53.3950 C   0  0  0  0  0  0  0  0  0  0  0  0
    4.1060   44.3130   53.1050 C   0  0  0  0  0  0  0  0  0  0  0  0
    5.2370   45.9690   54.5240 N   0  0  0  0  0  0  0  0  0  0  0  0
    6.3330   46.7240   54.2880 C   0  0  0  0  0  0  0  0  0  0  0  0
    6.8030   47.5280   55.1370 O   0  0  0  0  0  0  0  0  0  0  0  0
    6.8760   46.5250   53.0540 N   0  0  0  0  0  0  0  0  0  0  0  0
    8.0640   47.1700   52.4660 C   0  0  0  0  0  0  0  0  0  0  0  0
    8.5470   46.4300   51.2070 C   0  0  0  0  0  0  0  0  0  0  0  0
    9.9310   45.8740   51.5310 C   0  0  0  0  0  0  0  0  0  0  0  0
   10.4680   46.7490   52.6520 C   0  0  0  0  0  0  0  0  0  0  0  0
    9.2460   47.1960   53.4500 C   0  0  0  0  0  0  0  0  0  0  0  0
    1.7340   42.9520   51.6360 N   0  0  0  0  0  0  0  0  0  0  0  0
    0.8910   43.4460   50.5590 C   0  0  0  0  0  0  0  0  0  0  0  0
   -0.5400   43.1900   51.0130 C   0  0  0  0  0  0  0  0  0  0  0  0
   -0.4680   43.0010   52.5300 C   0  0  2  0  0  0  0  0  0  0  0  0
   -0.7380   44.2490   53.1740 O   0  0  0  0  0  0  0  0  0  0  0  0
   -0.3610   44.5890   54.4840 C   0  0  0  0  0  0  0  0  0  0  0  0
   -1.1900   44.3520   55.5980 C   0  0  0  0  0  0  0  0  0  0  0  0
   -0.7560   44.6900   56.8810 C   0  0  0  0  0  0  0  0  0  0  0  0
    0.5010   45.2710   57.0660 C   0  0  0  0  0  0  0  0  0  0  0  0
    1.3220   45.5250   55.9640 C   0  0  0  0  0  0  0  0  0  0  0  0
    2.5410   46.0950   56.1440 F   0  0  0  0  0  0  0  0  0  0  0  0
    0.8930   45.1830   54.6810 C   0  0  0  0  0  0  0  0  0  0  0  0
    0.9690   42.5480   52.8010 C   0  0  0  0  0  0  0  0  0  0  0  0
    5.2142   43.5134   49.9465 H   0  0  0  0  0  0  0  0  0  0  0  0
    6.9455   45.2436   50.5367 H   0  0  0  0  0  0  0  0  0  0  0  0
    3.3119   44.0787   53.8293 H   0  0  0  0  0  0  0  0  0  0  0  0
    4.6490   45.9400   55.3860 H   0  0  0  0  0  0  0  0  0  0  0  0
    7.7499   48.1941   52.2160 H   0  0  0  0  0  0  0  0  0  0  0  0
    7.8567   45.6097   50.9608 H   0  0  0  0  0  0  0  0  0  0  0  0
    8.5844   47.1058   50.3399 H   0  0  0  0  0  0  0  0  0  0  0  0
    9.8571   44.8276   51.8619 H   0  0  0  0  0  0  0  0  0  0  0  0
   10.5918   45.8861   50.6517 H   0  0  0  0  0  0  0  0  0  0  0  0
   11.1543   46.1745   53.2915 H   0  0  0  0  0  0  0  0  0  0  0  0
   11.0333   47.6078   52.2609 H   0  0  0  0  0  0  0  0  0  0  0  0
    9.0623   46.5055   54.2864 H   0  0  0  0  0  0  0  0  0  0  0  0
    9.3902   48.1982   53.8799 H   0  0  0  0  0  0  0  0  0  0  0  0
    1.0581   44.5219   50.4025 H   0  0  0  0  0  0  0  0  0  0  0  0
    1.1124   42.9454   49.6048 H   0  0  0  0  0  0  0  0  0  0  0  0
   -1.1805   44.0489   50.7639 H   0  0  0  0  0  0  0  0  0  0  0  0
   -0.9715   42.3092   50.5151 H   0  0  0  0  0  0  0  0  0  0  0  0
   -1.1996   42.2721   52.9088 H   0  0  0  0  0  0  0  0  0  0  0  0
   -2.1824   43.8992   55.4564 H   0  0  0  0  0  0  0  0  0  0  0  0
   -1.4051   44.4985   57.7482 H   0  0  0  0  0  0  0  0  0  0  0  0
    0.8444   45.5285   58.0788 H   0  0  0  0  0  0  0  0  0  0  0  0
    1.5444   45.3812   53.8171 H   0  0  0  0  0  0  0  0  0  0  0  0
    1.3610   43.0362   53.7055 H   0  0  0  0  0  0  0  0  0  0  0  0
    1.0278   41.4625   52.9691 H   0  0  0  0  0  0  0  0  0  0  0  0
  1  2  2  0
  2  3  1  0
  3  4  2  0
  4  5  1  0
  5  6  2  0
  6  7  1  0
  7  8  2  0
  7  9  1  0
  9 10  1  0
 10 11  2  0
 10 12  1  0
 12 13  1  0
 13 14  1  0
 14 15  1  0
 15 16  1  0
 16 17  1  0
  2 18  1  0
 18 19  1  0
 19 20  1  0
 20 21  1  0
 21 22  1  0
 22 23  1  0
 23 24  2  0
 24 25  1  0
 25 26  2  0
 26 27  1  0
 27 28  1  0
 27 29  2  0
 21 30  1  0
  8  3  1  0
 17 13  1  0
 30 18  1  0
 12  6  1  0
 29 23  1  0
  4 31  1  0
  5 32  1  0
  8 33  1  0
  9 34  1  0
 13 35  1  0
 14 36  1  0
 14 37  1  0
 15 38  1  0
 15 39  1  0
 16 40  1  0
 16 41  1  0
 17 42  1  0
 17 43  1  0
 19 44  1  0
 19 45  1  0
 20 46  1  0
 20 47  1  0
 21 48  1  1
 24 49  1  0
 25 50  1  0
 26 51  1  0
 29 52  1  0
 30 53  1  0
 30 54  1  0
M  END
>  <meeko>  (4) 
{"is_sidechain": [false], "free_energy": -9.295, "intermolecular_energy": -12.709, "internal_energy": -0.098}

$$$$
ligand_1_conformer_3_docked
     RDKit          3D

 54 58  0  0  0  0  0  0  0  0999 V2000
    7.0430   47.5860   55.2300 O   0  0  0  0  0  0  0  0  0  0  0  0
    6.5840   47.0410   54.1890 C   0  0  0  0  0  0  0  0  0  0  0  0
    5.2120   46.5000   54.2110 C   0  0  0  0  0  0  0  0  0  0  0  0
    4.7570   45.7410   55.3180 C   0  0  0  0  0  0  0  0  0  0  0  0
    3.4420   45.2430   55.3590 C   0  0  0  0  0  0  0  0  0  0  0  0
    2.6040   45.5230   54.2780 C   0  0  0  0  0  0  0  0  0  0  0  0
    3.0410   46.2620   53.2110 C   0  0  0  0  0  0  0  0  0  0  0  0
    4.3330   46.7790   53.1430 C   0  0  0  0  0  0  0  0  0  0  0  0
    2.0580   46.3810   52.3050 N   0  0  0  0  0  0  0  0  0  0  0  0
    1.0280   45.6980   52.8530 C   0  0  0  0  0  0  0  0  0  0  0  0
   -0.0880   45.5720   52.2810 O   0  0  0  0  0  0  0  0  0  0  0  0
    1.3180   45.1600   54.0710 N   0  0  0  0  0  0  0  0  0  0  0  0
    0.4420   44.3590   54.9460 C   0  0  0  0  0  0  0  0  0  0  0  0
   -0.5080   43.4640   54.1330 C   0  0  0  0  0  0  0  0  0  0  0  0
   -1.9240   43.9570   54.4180 C   0  0  0  0  0  0  0  0  0  0  0  0
   -1.8450   44.6610   55.7630 C   0  0  0  0  0  0  0  0  0  0  0  0
   -0.4380   45.2480   55.8410 C   0  0  0  0  0  0  0  0  0  0  0  0
    7.4060   46.9570   53.0130 N   0  0  0  0  0  0  0  0  0  0  0  0
    7.7930   48.1040   52.2070 C   0  0  0  0  0  0  0  0  0  0  0  0
    8.9700   47.6290   51.3630 C   0  0  0  0  0  0  0  0  0  0  0  0
    8.8980   46.1000   51.3720 C   0  0  2  0  0  0  0  0  0  0  0  0
    8.1920   45.6550   50.2120 O   0  0  0  0  0  0  0  0  0  0  0  0
    7.3320   44.5450   50.1580 C   0  0  0  0  0  0  0  0  0  0  0  0
    7.6800   43.3450   49.5060 C   0  0  0  0  0  0  0  0  0  0  0  0
    6.7960   42.2650   49.5020 C   0  0  0  0  0  0  0  0  0  0  0  0
    5.5560   42.3720   50.1380 C   0  0  0  0  0  0  0  0  0  0  0  0
    5.1960   43.5640   50.7710 C   0  0  0  0  0  0  0  0  0  0  0  0
    3.9900   43.6670   51.3850 F   0  0  0  0  0  0  0  0  0  0  0  0
    6.0810   44.6430   50.7830 C   0  0  0  0  0  0  0  0  0  0  0  0
    8.1260   45.7510   52.6470 C   0  0  0  0  0  0  0  0  0  0  0  0
    5.4407   45.5388   56.1557 H   0  0  0  0  0  0  0  0  0  0  0  0
    3.0854   44.6519   56.2154 H   0  0  0  0  0  0  0  0  0  0  0  0
    4.6574   47.3852   52.2843 H   0  0  0  0  0  0  0  0  0  0  0  0
    2.0850   46.8780   51.3880 H   0  0  0  0  0  0  0  0  0  0  0  0
    1.1190   43.7465   55.5597 H   0  0  0  0  0  0  0  0  0  0  0  0
   -0.2850   43.5508   53.0593 H   0  0  0  0  0  0  0  0  0  0  0  0
   -0.3927   42.4065   54.4131 H   0  0  0  0  0  0  0  0  0  0  0  0
   -2.2520   44.6575   53.6359 H   0  0  0  0  0  0  0  0  0  0  0  0
   -2.6493   43.1301   54.4318 H   0  0  0  0  0  0  0  0  0  0  0  0
   -2.5979   45.4608   55.8219 H   0  0  0  0  0  0  0  0  0  0  0  0
   -2.0426   43.9693   56.5951 H   0  0  0  0  0  0  0  0  0  0  0  0
   -0.4350   46.2841   55.4717 H   0  0  0  0  0  0  0  0  0  0  0  0
   -0.0673   45.2700   56.8764 H   0  0  0  0  0  0  0  0  0  0  0  0
    6.9597   48.4195   51.5619 H   0  0  0  0  0  0  0  0  0  0  0  0
    8.0606   48.9698   52.8306 H   0  0  0  0  0  0  0  0  0  0  0  0
    8.8832   48.0107   50.3350 H   0  0  0  0  0  0  0  0  0  0  0  0
    9.9282   47.9920   51.7630 H   0  0  0  0  0  0  0  0  0  0  0  0
    9.8884   45.6216   51.3561 H   0  0  0  0  0  0  0  0  0  0  0  0
    8.6521   43.2593   48.9983 H   0  0  0  0  0  0  0  0  0  0  0  0
    7.0756   41.3283   48.9976 H   0  0  0  0  0  0  0  0  0  0  0  0
    4.8635   41.5174   50.1401 H   0  0  0  0  0  0  0  0  0  0  0  0
    5.7946   45.5779   51.2869 H   0  0  0  0  0  0  0  0  0  0  0  0
    7.4224   44.9274   52.4559 H   0  0  0  0  0  0  0  0  0  0  0  0
    8.7993   45.4203   53.4515 H   0  0  0  0  0  0  0  0  0  0  0  0
  1  2  2  0
  2  3  1  0
  3  4  2  0
  4  5  1  0
  5  6  2  0
  6  7  1  0
  7  8  2  0
  7  9  1  0
  9 10  1  0
 10 11  2  0
 10 12  1  0
 12 13  1  0
 13 14  1  0
 14 15  1  0
 15 16  1  0
 16 17  1  0
  2 18  1  0
 18 19  1  0
 19 20  1  0
 20 21  1  0
 21 22  1  0
 22 23  1  0
 23 24  2  0
 24 25  1  0
 25 26  2  0
 26 27  1  0
 27 28  1  0
 27 29  2  0
 21 30  1  0
  8  3  1  0
 17 13  1  0
 30 18  1  0
 12  6  1  0
 29 23  1  0
  4 31  1  0
  5 32  1  0
  8 33  1  0
  9 34  1  0
 13 35  1  0
 14 36  1  0
 14 37  1  0
 15 38  1  0
 15 39  1  0
 16 40  1  0
 16 41  1  0
 17 42  1  0
 17 43  1  0
 19 44  1  0
 19 45  1  0
 20 46  1  0
 20 47  1  0
 21 48  1  1
 24 49  1  0
 25 50  1  0
 26 51  1  0
 29 52  1  0
 30 53  1  0
 30 54  1  0
M  END
>  <meeko>  (5) 
{"is_sidechain": [false], "free_energy": -9.166, "intermolecular_energy": -12.037, "internal_energy": -0.603}

$$$$
