MODEL 1
REMARK VINA RESULT:    -8.691      0.000      0.000
REMARK INTER + INTRA:         -11.216
REMARK INTER:                 -10.724
REMARK INTRA:                  -0.493
REMARK UNBOUND:                -0.493
REMARK SMILES CN1CC[C@@H]2[C@H]1CCCN2C(=O)[C@H]1CCN(c2ccc(-c3nn[nH]n3)cc2F)C1
REMARK SMILES IDX 13 1 14 2 15 3 16 4 29 5 11 6 12 7 10 8 2 9 3 10 6 11 4 12
REMARK SMILES IDX 5 13 7 14 8 15 9 16 1 17 17 18 18 19 27 20 19 21 26 22 20 23
REMARK SMILES IDX 28 24 21 25 22 26 25 27 23 28 24 29
REMARK H PARENT 24 30
ROOT
ATOM      1  C   UNL     1       0.938  43.023  52.132  1.00  0.00     0.100 C 
ATOM      2  C   UNL     1       0.672  44.255  51.260  1.00  0.00     0.037 C 
ATOM      3  C   UNL     1       2.033  44.922  51.097  1.00  0.00     0.117 C 
ATOM      4  N   UNL     1       2.831  44.465  52.226  1.00  0.00    -0.368 N 
ATOM      5  C   UNL     1       2.155  43.411  52.970  1.00  0.00     0.130 C 
ENDROOT
BRANCH   1   6
ATOM      6  C   UNL     1      -0.227  42.590  53.004  1.00  0.00     0.227 C 
ATOM      7  O   UNL     1      -0.223  41.448  53.540  1.00  0.00    -0.274 OA
BRANCH   6   8
ATOM      8  N   UNL     1      -1.385  43.439  53.162  1.00  0.00    -0.338 N 
ATOM      9  N   UNL     1      -2.620  45.834  55.753  1.00  0.00    -0.301 NA
ATOM     10  C   UNL     1      -1.692  44.980  56.514  1.00  0.00     0.086 C 
ATOM     11  C   UNL     1      -2.553  45.415  54.326  1.00  0.00     0.079 C 
ATOM     12  C   UNL     1      -1.238  43.868  55.589  1.00  0.00     0.042 C 
ATOM     13  C   UNL     1      -1.331  44.484  54.211  1.00  0.00     0.103 C 
ATOM     14  C   UNL     1      -3.836  44.754  53.777  1.00  0.00     0.023 C 
ATOM     15  C   UNL     1      -3.591  44.290  52.352  1.00  0.00     0.023 C 
ATOM     16  C   UNL     1      -2.581  43.152  52.350  1.00  0.00     0.120 C 
ATOM     17  C   UNL     1      -3.953  45.875  56.378  1.00  0.00     0.105 C 
ENDBRANCH   6   8
ENDBRANCH   1   6
BRANCH   4  18
ATOM     18  C   UNL     1       4.111  45.025  52.619  1.00  0.00     0.073 A 
ATOM     19  C   UNL     1       4.578  44.858  53.940  1.00  0.00     0.030 A 
ATOM     20  C   UNL     1       4.932  45.718  51.700  1.00  0.00     0.147 A 
ATOM     21  C   UNL     1       5.805  45.392  54.340  1.00  0.00     0.014 A 
ATOM     22  C   UNL     1       6.164  46.247  52.108  1.00  0.00     0.053 A 
ATOM     23  C   UNL     1       6.610  46.090  53.430  1.00  0.00     0.026 A 
ATOM     24  F   UNL     1       4.582  45.857  50.399  1.00  0.00    -0.205 F 
BRANCH  23  25
ATOM     25  C   UNL     1       7.910  46.649  53.857  1.00  0.00     0.204 A 
ATOM     26  N   UNL     1       8.074  47.490  54.900  1.00  0.00    -0.108 NA
ATOM     27  N   UNL     1       9.088  46.384  53.258  1.00  0.00    -0.134 NA
ATOM     28  N   UNL     1       9.372  47.734  54.940  1.00  0.00    -0.050 NA
ATOM     29  N   UNL     1       9.966  47.077  53.959  1.00  0.00    -0.177 N 
ATOM     30  H   UNL     1      10.992  47.090  53.774  1.00  0.00     0.216 HD
ENDBRANCH  23  25
ENDBRANCH   4  18
TORSDOF 4
ENDMDL
MODEL 2
REMARK VINA RESULT:    -8.531      3.216      9.723
REMARK INTER + INTRA:         -11.019
REMARK INTER:                 -10.368
REMARK INTRA:                  -0.651
REMARK UNBOUND:                -0.493
REMARK SMILES CN1CC[C@@H]2[C@H]1CCCN2C(=O)[C@H]1CCN(c2ccc(-c3nn[nH]n3)cc2F)C1
REMARK SMILES IDX 13 1 14 2 15 3 16 4 29 5 11 6 12 7 10 8 2 9 3 10 6 11 4 12
REMARK SMILES IDX 5 13 7 14 8 15 9 16 1 17 17 18 18 19 27 20 19 21 26 22 20 23
REMARK SMILES IDX 28 24 21 25 22 26 25 27 23 28 24 29
REMARK H PARENT 24 30
ROOT
ATOM      1  C   UNL     1       4.379  45.912  54.112  1.00  0.00     0.100 C 
ATOM      2  C   UNL     1       3.551  46.058  55.394  1.00  0.00     0.037 C 
ATOM      3  C   UNL     1       2.366  45.119  55.204  1.00  0.00     0.117 C 
ATOM      4  N   UNL     1       2.232  44.942  53.765  1.00  0.00    -0.368 N 
ATOM      5  C   UNL     1       3.356  45.524  53.045  1.00  0.00     0.130 C 
ENDROOT
BRANCH   1   6
ATOM      6  C   UNL     1       5.165  47.147  53.712  1.00  0.00     0.227 C 
ATOM      7  O   UNL     1       4.569  48.246  53.540  1.00  0.00    -0.274 OA
BRANCH   6   8
ATOM      8  N   UNL     1       6.582  47.065  53.442  1.00  0.00    -0.338 N 
ATOM      9  N   UNL     1       8.708  45.901  50.596  1.00  0.00    -0.301 NA
ATOM     10  C   UNL     1       7.437  45.191  50.367  1.00  0.00     0.086 C 
ATOM     11  C   UNL     1       8.516  46.802  51.766  1.00  0.00     0.079 C 
ATOM     12  C   UNL     1       6.539  45.475  51.554  1.00  0.00     0.042 C 
ATOM     13  C   UNL     1       7.001  46.830  52.041  1.00  0.00     0.103 C 
ATOM     14  C   UNL     1       9.325  46.420  53.025  1.00  0.00     0.023 C 
ATOM     15  C   UNL     1       8.957  47.358  54.161  1.00  0.00     0.023 C 
ATOM     16  C   UNL     1       7.516  47.115  54.581  1.00  0.00     0.120 C 
ATOM     17  C   UNL     1       9.846  44.970  50.646  1.00  0.00     0.105 C 
ENDBRANCH   6   8
ENDBRANCH   1   6
BRANCH   4  18
ATOM     18  C   UNL     1       1.095  44.326  53.107  1.00  0.00     0.073 A 
ATOM     19  C   UNL     1       0.228  45.109  52.317  1.00  0.00     0.030 A 
ATOM     20  C   UNL     1       0.840  42.938  53.208  1.00  0.00     0.147 A 
ATOM     21  C   UNL     1      -0.874  44.537  51.677  1.00  0.00     0.014 A 
ATOM     22  C   UNL     1      -0.265  42.371  52.559  1.00  0.00     0.053 A 
ATOM     23  C   UNL     1      -1.131  43.164  51.791  1.00  0.00     0.026 A 
ATOM     24  F   UNL     1       1.668  42.112  53.890  1.00  0.00    -0.205 F 
BRANCH  23  25
ATOM     25  C   UNL     1      -2.296  42.563  51.108  1.00  0.00     0.204 A 
ATOM     26  N   UNL     1      -2.706  42.891  49.865  1.00  0.00    -0.108 NA
ATOM     27  N   UNL     1      -3.088  41.613  51.644  1.00  0.00    -0.134 NA
ATOM     28  N   UNL     1      -3.758  42.124  49.640  1.00  0.00    -0.050 NA
ATOM     29  N   UNL     1      -3.980  41.370  50.703  1.00  0.00    -0.177 N 
ATOM     30  H   UNL     1      -4.746  40.667  50.780  1.00  0.00     0.216 HD
ENDBRANCH  23  25
ENDBRANCH   4  18
TORSDOF 4
ENDMDL
MODEL 3
REMARK VINA RESULT:    -8.262      2.444      8.822
REMARK INTER + INTRA:         -10.687
REMARK INTER:                 -10.834
REMARK INTRA:                   0.148
REMARK UNBOUND:                -0.493
REMARK SMILES CN1CC[C@@H]2[C@H]1CCCN2C(=O)[C@H]1CCN(c2ccc(-c3nn[nH]n3)cc2F)C1
REMARK SMILES IDX 13 1 14 2 15 3 16 4 29 5 11 6 12 7 10 8 2 9 3 10 6 11 4 12
REMARK SMILES IDX 5 13 7 14 8 15 9 16 1 17 17 18 18 19 27 20 19 21 26 22 20 23
REMARK SMILES IDX 28 24 21 25 22 26 25 27 23 28 24 29
REMARK H PARENT 24 30
ROOT
ATOM      1  C   UNL     1       3.401  44.209  51.465  1.00  0.00     0.100 C 
ATOM      2  C   UNL     1       3.155  42.718  51.726  1.00  0.00     0.037 C 
ATOM      3  C   UNL     1       1.858  42.669  52.525  1.00  0.00     0.117 C 
ATOM      4  N   UNL     1       1.728  43.979  53.145  1.00  0.00    -0.368 N 
ATOM      5  C   UNL     1       2.726  44.913  52.641  1.00  0.00     0.130 C 
ENDROOT
BRANCH   1   6
ATOM      6  C   UNL     1       4.860  44.605  51.337  1.00  0.00     0.227 C 
ATOM      7  O   UNL     1       5.507  44.305  50.296  1.00  0.00    -0.274 OA
BRANCH   6   8
ATOM      8  N   UNL     1       5.548  45.253  52.431  1.00  0.00    -0.338 N 
ATOM      9  N   UNL     1       8.315  47.745  52.759  1.00  0.00    -0.301 NA
ATOM     10  C   UNL     1       8.537  47.185  51.414  1.00  0.00     0.086 C 
ATOM     11  C   UNL     1       7.065  47.141  53.298  1.00  0.00     0.079 C 
ATOM     12  C   UNL     1       7.553  46.048  51.229  1.00  0.00     0.042 C 
ATOM     13  C   UNL     1       6.386  46.431  52.111  1.00  0.00     0.103 C 
ATOM     14  C   UNL     1       7.262  46.194  54.502  1.00  0.00     0.023 C 
ATOM     15  C   UNL     1       5.926  45.578  54.879  1.00  0.00     0.023 C 
ATOM     16  C   UNL     1       5.459  44.646  53.771  1.00  0.00     0.120 C 
ATOM     17  C   UNL     1       9.523  47.643  53.593  1.00  0.00     0.105 C 
ENDBRANCH   6   8
ENDBRANCH   1   6
BRANCH   4  18
ATOM     18  C   UNL     1       0.776  44.315  54.187  1.00  0.00     0.073 A 
ATOM     19  C   UNL     1      -0.601  44.087  53.983  1.00  0.00     0.030 A 
ATOM     20  C   UNL     1       1.191  44.844  55.431  1.00  0.00     0.147 A 
ATOM     21  C   UNL     1      -1.536  44.407  54.972  1.00  0.00     0.014 A 
ATOM     22  C   UNL     1       0.248  45.157  56.419  1.00  0.00     0.053 A 
ATOM     23  C   UNL     1      -1.122  44.943  56.198  1.00  0.00     0.026 A 
ATOM     24  F   UNL     1       2.501  45.023  55.725  1.00  0.00    -0.205 F 
BRANCH  23  25
ATOM     25  C   UNL     1      -2.114  45.275  57.242  1.00  0.00     0.204 A 
ATOM     26  N   UNL     1      -2.735  44.366  58.022  1.00  0.00    -0.108 NA
ATOM     27  N   UNL     1      -2.515  46.527  57.543  1.00  0.00    -0.134 NA
ATOM     28  N   UNL     1      -3.521  45.076  58.812  1.00  0.00    -0.050 NA
ATOM     29  N   UNL     1      -3.387  46.358  58.519  1.00  0.00    -0.177 N 
ATOM     30  H   UNL     1      -3.888  47.132  59.005  1.00  0.00     0.216 HD
ENDBRANCH  23  25
ENDBRANCH   4  18
TORSDOF 4
ENDMDL
MODEL 4
REMARK VINA RESULT:    -8.117      3.210      8.874
REMARK INTER + INTRA:         -10.509
REMARK INTER:                 -10.553
REMARK INTRA:                   0.045
REMARK UNBOUND:                -0.493
REMARK SMILES CN1CC[C@@H]2[C@H]1CCCN2C(=O)[C@H]1CCN(c2ccc(-c3nn[nH]n3)cc2F)C1
REMARK SMILES IDX 13 1 14 2 15 3 16 4 29 5 11 6 12 7 10 8 2 9 3 10 6 11 4 12
REMARK SMILES IDX 5 13 7 14 8 15 9 16 1 17 17 18 18 19 27 20 19 21 26 22 20 23
REMARK SMILES IDX 28 24 21 25 22 26 25 27 23 28 24 29
REMARK H PARENT 24 30
ROOT
ATOM      1  C   UNL     1       4.106  46.856  53.349  1.00  0.00     0.100 C 
ATOM      2  C   UNL     1       3.277  46.685  52.070  1.00  0.00     0.037 C 
ATOM      3  C   UNL     1       1.853  46.440  52.555  1.00  0.00     0.117 C 
ATOM      4  N   UNL     1       1.983  45.935  53.914  1.00  0.00    -0.368 N 
ATOM      5  C   UNL     1       3.354  46.036  54.396  1.00  0.00     0.130 C 
ENDROOT
BRANCH   1   6
ATOM      6  C   UNL     1       5.556  46.425  53.236  1.00  0.00     0.227 C 
ATOM      7  O   UNL     1       6.379  46.733  54.142  1.00  0.00    -0.274 OA
BRANCH   6   8
ATOM      8  N   UNL     1       6.031  45.733  52.060  1.00  0.00    -0.338 N 
ATOM      9  N   UNL     1       5.066  42.641  50.194  1.00  0.00    -0.301 NA
ATOM     10  C   UNL     1       4.502  42.404  51.534  1.00  0.00     0.086 C 
ATOM     11  C   UNL     1       5.652  44.010  50.187  1.00  0.00     0.079 C 
ATOM     12  C   UNL     1       4.963  43.538  52.427  1.00  0.00     0.042 C 
ATOM     13  C   UNL     1       5.152  44.696  51.473  1.00  0.00     0.103 C 
ATOM     14  C   UNL     1       7.190  44.063  50.064  1.00  0.00     0.023 C 
ATOM     15  C   UNL     1       7.652  45.506  50.172  1.00  0.00     0.023 C 
ATOM     16  C   UNL     1       7.394  46.024  51.578  1.00  0.00     0.120 C 
ATOM     17  C   UNL     1       5.941  41.536  49.771  1.00  0.00     0.105 C 
ENDBRANCH   6   8
ENDBRANCH   1   6
BRANCH   4  18
ATOM     18  C   UNL     1       0.907  45.339  54.685  1.00  0.00     0.073 A 
ATOM     19  C   UNL     1       0.737  45.685  56.042  1.00  0.00     0.030 A 
ATOM     20  C   UNL     1      -0.008  44.431  54.104  1.00  0.00     0.147 A 
ATOM     21  C   UNL     1      -0.289  45.120  56.803  1.00  0.00     0.014 A 
ATOM     22  C   UNL     1      -1.038  43.873  54.873  1.00  0.00     0.053 A 
ATOM     23  C   UNL     1      -1.186  44.210  56.228  1.00  0.00     0.026 A 
ATOM     24  F   UNL     1       0.050  44.107  52.790  1.00  0.00    -0.205 F 
BRANCH  23  25
ATOM     25  C   UNL     1      -2.273  43.618  57.036  1.00  0.00     0.204 A 
ATOM     26  N   UNL     1      -2.794  42.390  56.833  1.00  0.00    -0.108 NA
ATOM     27  N   UNL     1      -2.873  44.234  58.075  1.00  0.00    -0.134 NA
ATOM     28  N   UNL     1      -3.719  42.255  57.766  1.00  0.00    -0.050 NA
ATOM     29  N   UNL     1      -3.762  43.355  58.498  1.00  0.00    -0.177 N 
ATOM     30  H   UNL     1      -4.400  43.502  59.309  1.00  0.00     0.216 HD
ENDBRANCH  23  25
ENDBRANCH   4  18
TORSDOF 4
ENDMDL
MODEL 5
REMARK VINA RESULT:    -7.914      1.825      2.667
REMARK INTER + INTRA:         -10.258
REMARK INTER:                  -9.365
REMARK INTRA:                  -0.892
REMARK UNBOUND:                -0.493
REMARK SMILES CN1CC[C@@H]2[C@H]1CCCN2C(=O)[C@H]1CCN(c2ccc(-c3nn[nH]n3)cc2F)C1
REMARK SMILES IDX 13 1 14 2 15 3 16 4 29 5 11 6 12 7 10 8 2 9 3 10 6 11 4 12
REMARK SMILES IDX 5 13 7 14 8 15 9 16 1 17 17 18 18 19 27 20 19 21 26 22 20 23
REMARK SMILES IDX 28 24 21 25 22 26 25 27 23 28 24 29
REMARK H PARENT 24 30
ROOT
ATOM      1  C   UNL     1       0.058  44.021  54.645  1.00  0.00     0.100 C 
ATOM      2  C   UNL     1       0.386  43.179  53.406  1.00  0.00     0.037 C 
ATOM      3  C   UNL     1       1.903  43.248  53.277  1.00  0.00     0.117 C 
ATOM      4  N   UNL     1       2.304  44.457  53.982  1.00  0.00    -0.368 N 
ATOM      5  C   UNL     1       1.190  45.044  54.716  1.00  0.00     0.130 C 
ENDROOT
BRANCH   1   6
ATOM      6  C   UNL     1      -1.303  44.693  54.621  1.00  0.00     0.227 C 
ATOM      7  O   UNL     1      -1.687  45.303  53.585  1.00  0.00    -0.274 OA
BRANCH   6   8
ATOM      8  N   UNL     1      -2.136  44.716  55.802  1.00  0.00    -0.338 N 
ATOM      9  N   UNL     1      -3.155  47.287  58.316  1.00  0.00    -0.301 NA
ATOM     10  C   UNL     1      -1.912  47.850  57.758  1.00  0.00     0.086 C 
ATOM     11  C   UNL     1      -3.464  46.041  57.562  1.00  0.00     0.079 C 
ATOM     12  C   UNL     1      -1.325  46.812  56.824  1.00  0.00     0.042 C 
ATOM     13  C   UNL     1      -2.530  46.040  56.337  1.00  0.00     0.103 C 
ATOM     14  C   UNL     1      -3.347  44.736  58.380  1.00  0.00     0.023 C 
ATOM     15  C   UNL     1      -3.589  43.548  57.465  1.00  0.00     0.023 C 
ATOM     16  C   UNL     1      -2.454  43.435  56.459  1.00  0.00     0.120 C 
ATOM     17  C   UNL     1      -3.091  47.186  59.783  1.00  0.00     0.105 C 
ENDBRANCH   6   8
ENDBRANCH   1   6
BRANCH   4  18
ATOM     18  C   UNL     1       3.623  45.057  53.919  1.00  0.00     0.073 A 
ATOM     19  C   UNL     1       4.506  44.934  55.012  1.00  0.00     0.030 A 
ATOM     20  C   UNL     1       4.071  45.748  52.769  1.00  0.00     0.147 A 
ATOM     21  C   UNL     1       5.780  45.508  54.974  1.00  0.00     0.014 A 
ATOM     22  C   UNL     1       5.352  46.316  52.737  1.00  0.00     0.053 A 
ATOM     23  C   UNL     1       6.215  46.203  53.838  1.00  0.00     0.026 A 
ATOM     24  F   UNL     1       3.305  45.846  51.656  1.00  0.00    -0.205 F 
BRANCH  23  25
ATOM     25  C   UNL     1       7.565  46.804  53.801  1.00  0.00     0.204 A 
ATOM     26  N   UNL     1       8.093  47.558  54.788  1.00  0.00    -0.108 NA
ATOM     27  N   UNL     1       8.432  46.670  52.777  1.00  0.00    -0.134 NA
ATOM     28  N   UNL     1       9.301  47.881  54.361  1.00  0.00    -0.050 NA
ATOM     29  N   UNL     1       9.493  47.353  53.165  1.00  0.00    -0.177 N 
ATOM     30  H   UNL     1      10.371  47.447  52.610  1.00  0.00     0.216 HD
ENDBRANCH  23  25
ENDBRANCH   4  18
TORSDOF 4
ENDMDL
