ligand_15_conformer_4_docked
     RDKit          3D

 46 48  0  0  0  0  0  0  0  0999 V2000
   11.0580   47.5580   56.3650 C   0  0  0  0  0  0  0  0  0  0  0  0
    9.8820   48.0120   55.7060 O   0  0  0  0  0  0  0  0  0  0  0  0
    9.4210   47.5150   54.4770 C   0  0  0  0  0  0  0  0  0  0  0  0
   10.2710   46.8750   53.5550 C   0  0  0  0  0  0  0  0  0  0  0  0
    9.7660   46.4170   52.3350 C   0  0  0  0  0  0  0  0  0  0  0  0
    8.4160   46.5960   52.0210 C   0  0  0  0  0  0  0  0  0  0  0  0
    7.5560   47.2240   52.9340 C   0  0  0  0  0  0  0  0  0  0  0  0
    6.1210   47.4990   52.5600 C   0  0  0  0  0  0  0  0  0  0  0  0
    5.1700   46.4390   53.1330 C   0  0  0  0  0  0  0  0  0  0  0  0
    4.7700   45.4370   52.0880 C   0  0  0  0  0  0  0  0  0  0  0  0
    4.2530   45.8450   51.0130 O   0  0  0  0  0  0  0  0  0  0  0  0
    5.0750   44.0450   52.2760 N   0  0  0  0  0  0  0  0  0  0  0  0
    4.9310   43.0500   51.2510 C   0  0  0  0  0  0  0  0  0  0  0  0
    3.7280   42.3380   51.1500 C   0  0  0  0  0  0  0  0  0  0  0  0
    3.5580   41.3690   50.1570 C   0  0  0  0  0  0  0  0  0  0  0  0
    4.5900   41.0990   49.2460 C   0  0  0  0  0  0  0  0  0  0  0  0
    4.3820   40.1170   48.2170 N   0  0  0  0  0  0  0  0  0  0  0  0
    3.7490   40.3910   46.9570 C   0  0  0  0  0  0  0  0  0  0  0  0
    4.3640   41.1610   46.0190 N   0  0  0  0  0  0  0  0  0  0  0  0
    3.7830   41.3980   44.8140 C   0  0  0  0  0  0  0  0  0  0  0  0
    2.5420   40.8370   44.5200 C   0  0  0  0  0  0  0  0  0  0  0  0
    1.9280   40.0390   45.4850 C   0  0  0  0  0  0  0  0  0  0  0  0
    2.5420   39.8280   46.6780 N   0  0  0  0  0  0  0  0  0  0  0  0
    5.7790   41.8480   49.3160 C   0  0  0  0  0  0  0  0  0  0  0  0
    5.9470   42.8150   50.3110 C   0  0  0  0  0  0  0  0  0  0  0  0
    8.0660   47.6750   54.1620 C   0  0  0  0  0  0  0  0  0  0  0  0
   10.9129   47.6140   57.4540 H   0  0  0  0  0  0  0  0  0  0  0  0
   11.2618   46.5166   56.0753 H   0  0  0  0  0  0  0  0  0  0  0  0
   11.9087   48.1923   56.0753 H   0  0  0  0  0  0  0  0  0  0  0  0
   11.3352   46.7351   53.7955 H   0  0  0  0  0  0  0  0  0  0  0  0
   10.4332   45.9140   51.6196 H   0  0  0  0  0  0  0  0  0  0  0  0
    8.0265   46.2432   51.0546 H   0  0  0  0  0  0  0  0  0  0  0  0
    5.8333   48.4853   52.9529 H   0  0  0  0  0  0  0  0  0  0  0  0
    6.0421   47.4723   51.4632 H   0  0  0  0  0  0  0  0  0  0  0  0
    5.6748   45.9139   53.9573 H   0  0  0  0  0  0  0  0  0  0  0  0
    4.2619   46.9466   53.4904 H   0  0  0  0  0  0  0  0  0  0  0  0
    5.6060   43.7780   53.1360 H   0  0  0  0  0  0  0  0  0  0  0  0
    2.9113   42.5433   51.8577 H   0  0  0  0  0  0  0  0  0  0  0  0
    2.6099   40.8152   50.0896 H   0  0  0  0  0  0  0  0  0  0  0  0
    4.7780   39.1610   48.3600 H   0  0  0  0  0  0  0  0  0  0  0  0
    4.2913   42.0314   44.0721 H   0  0  0  0  0  0  0  0  0  0  0  0
    2.0577   41.0193   43.5493 H   0  0  0  0  0  0  0  0  0  0  0  0
    0.9488   39.5816   45.2804 H   0  0  0  0  0  0  0  0  0  0  0  0
    6.5806   41.6716   48.5837 H   0  0  0  0  0  0  0  0  0  0  0  0
    6.8804   43.3951   50.3579 H   0  0  0  0  0  0  0  0  0  0  0  0
    7.3933   48.1596   54.8850 H   0  0  0  0  0  0  0  0  0  0  0  0
  1  2  1  0
  2  3  1  0
  3  4  2  0
  4  5  1  0
  5  6  2  0
  6  7  1  0
  7  8  1  0
  8  9  1  0
  9 10  1  0
 10 11  2  0
 10 12  1  0
 12 13  1  0
 13 14  2  0
 14 15  1  0
 15 16  2  0
 16 17  1  0
 17 18  1  0
 18 19  2  0
 19 20  1  0
 20 21  2  0
 21 22  1  0
 22 23  2  0
 16 24  1  0
 24 25  2  0
  7 26  2  0
 26  3  1  0
 25 13  1  0
 23 18  1  0
  1 27  1  0
  1 28  1  0
  1 29  1  0
  4 30  1  0
  5 31  1  0
  6 32  1  0
  8 33  1  0
  8 34  1  0
  9 35  1  0
  9 36  1  0
 12 37  1  0
 14 38  1  0
 15 39  1  0
 17 40  1  0
 20 41  1  0
 21 42  1  0
 22 43  1  0
 24 44  1  0
 25 45  1  0
 26 46  1  0
M  END
>  <meeko>  (1) 
{"is_sidechain": [false], "free_energy": -8.387, "intermolecular_energy": -11.819, "internal_energy": -0.762}

$$$$
ligand_15_conformer_4_docked
     RDKit          3D

 46 48  0  0  0  0  0  0  0  0999 V2000
    5.8050   46.8920   54.8990 C   0  0  0  0  0  0  0  0  0  0  0  0
    7.1940   47.1960   54.8430 O   0  0  0  0  0  0  0  0  0  0  0  0
    8.0370   46.8540   53.7750 C   0  0  0  0  0  0  0  0  0  0  0  0
    9.4390   46.9590   53.8560 C   0  0  0  0  0  0  0  0  0  0  0  0
   10.2330   46.6250   52.7550 C   0  0  0  0  0  0  0  0  0  0  0  0
    9.6410   46.1890   51.5670 C   0  0  0  0  0  0  0  0  0  0  0  0
    8.2470   46.0710   51.4760 C   0  0  0  0  0  0  0  0  0  0  0  0
    7.6010   45.6880   50.1670 C   0  0  0  0  0  0  0  0  0  0  0  0
    7.4120   44.1690   50.0480 C   0  0  0  0  0  0  0  0  0  0  0  0
    5.9930   43.7690   50.3360 C   0  0  0  0  0  0  0  0  0  0  0  0
    5.6550   42.5620   50.1960 O   0  0  0  0  0  0  0  0  0  0  0  0
    5.0700   44.7350   50.8660 N   0  0  0  0  0  0  0  0  0  0  0  0
    3.7690   44.4020   51.3720 C   0  0  0  0  0  0  0  0  0  0  0  0
    3.6360   43.3420   52.2810 C   0  0  0  0  0  0  0  0  0  0  0  0
    2.3820   43.0020   52.7950 C   0  0  0  0  0  0  0  0  0  0  0  0
    1.2390   43.7170   52.4090 C   0  0  0  0  0  0  0  0  0  0  0  0
   -0.0360   43.3640   52.9720 N   0  0  0  0  0  0  0  0  0  0  0  0
   -0.5060   43.8170   54.2510 C   0  0  0  0  0  0  0  0  0  0  0  0
   -1.6800   43.3580   54.7670 N   0  0  0  0  0  0  0  0  0  0  0  0
   -2.1140   43.7600   55.9900 C   0  0  0  0  0  0  0  0  0  0  0  0
   -1.3460   44.6470   56.7410 C   0  0  0  0  0  0  0  0  0  0  0  0
   -0.1400   45.0990   56.2070 C   0  0  0  0  0  0  0  0  0  0  0  0
    0.2580   44.6740   54.9800 N   0  0  0  0  0  0  0  0  0  0  0  0
    1.3780   44.8110   51.5350 C   0  0  0  0  0  0  0  0  0  0  0  0
    2.6330   45.1490   51.0210 C   0  0  0  0  0  0  0  0  0  0  0  0
    7.4530   46.4000   52.5870 C   0  0  0  0  0  0  0  0  0  0  0  0
    5.4870   46.8224   55.9497 H   0  0  0  0  0  0  0  0  0  0  0  0
    5.2351   47.6867   54.3953 H   0  0  0  0  0  0  0  0  0  0  0  0
    5.6192   45.9319   54.3953 H   0  0  0  0  0  0  0  0  0  0  0  0
    9.9104   47.3046   54.7878 H   0  0  0  0  0  0  0  0  0  0  0  0
   11.3278   46.7058   52.8243 H   0  0  0  0  0  0  0  0  0  0  0  0
   10.2704   45.9376   50.7006 H   0  0  0  0  0  0  0  0  0  0  0  0
    6.6174   46.1757   50.0991 H   0  0  0  0  0  0  0  0  0  0  0  0
    8.2616   46.0156   49.3507 H   0  0  0  0  0  0  0  0  0  0  0  0
    7.6720   43.8549   49.0264 H   0  0  0  0  0  0  0  0  0  0  0  0
    8.0659   43.6800   50.7851 H   0  0  0  0  0  0  0  0  0  0  0  0
    5.4360   45.6930   51.0690 H   0  0  0  0  0  0  0  0  0  0  0  0
    4.5255   42.7742   52.5915 H   0  0  0  0  0  0  0  0  0  0  0  0
    2.2908   42.1683   53.5068 H   0  0  0  0  0  0  0  0  0  0  0  0
   -0.6960   42.8030   52.3870 H   0  0  0  0  0  0  0  0  0  0  0  0
   -3.0695   43.3860   56.3863 H   0  0  0  0  0  0  0  0  0  0  0  0
   -1.6833   44.9831   57.7326 H   0  0  0  0  0  0  0  0  0  0  0  0
    0.4879   45.7985   56.7784 H   0  0  0  0  0  0  0  0  0  0  0  0
    0.4944   45.4032   51.2549 H   0  0  0  0  0  0  0  0  0  0  0  0
    2.7314   46.0052   50.3375 H   0  0  0  0  0  0  0  0  0  0  0  0
    6.3595   46.2996   52.5225 H   0  0  0  0  0  0  0  0  0  0  0  0
  1  2  1  0
  2  3  1  0
  3  4  2  0
  4  5  1  0
  5  6  2  0
  6  7  1  0
  7  8  1  0
  8  9  1  0
  9 10  1  0
 10 11  2  0
 10 12  1  0
 12 13  1  0
 13 14  2  0
 14 15  1  0
 15 16  2  0
 16 17  1  0
 17 18  1  0
 18 19  2  0
 19 20  1  0
 20 21  2  0
 21 22  1  0
 22 23  2  0
 16 24  1  0
 24 25  2  0
  7 26  2  0
 26  3  1  0
 25 13  1  0
 23 18  1  0
  1 27  1  0
  1 28  1  0
  1 29  1  0
  4 30  1  0
  5 31  1  0
  6 32  1  0
  8 33  1  0
  8 34  1  0
  9 35  1  0
  9 36  1  0
 12 37  1  0
 14 38  1  0
 15 39  1  0
 17 40  1  0
 20 41  1  0
 21 42  1  0
 22 43  1  0
 24 44  1  0
 25 45  1  0
 26 46  1  0
M  END
>  <meeko>  (2) 
{"is_sidechain": [false], "free_energy": -8.284, "intermolecular_energy": -12.034, "internal_energy": -0.402}

$$$$
ligand_15_conformer_4_docked
     RDKit          3D

 46 48  0  0  0  0  0  0  0  0999 V2000
    9.5660   48.2110   55.3570 C   0  0  0  0  0  0  0  0  0  0  0  0
    8.5270   47.9470   54.4210 O   0  0  0  0  0  0  0  0  0  0  0  0
    8.6830   47.1680   53.2640 C   0  0  0  0  0  0  0  0  0  0  0  0
    9.9380   46.6950   52.8360 C   0  0  0  0  0  0  0  0  0  0  0  0
   10.0410   45.9400   51.6640 C   0  0  0  0  0  0  0  0  0  0  0  0
    8.9010   45.6560   50.9080 C   0  0  0  0  0  0  0  0  0  0  0  0
    7.6440   46.1140   51.3270 C   0  0  0  0  0  0  0  0  0  0  0  0
    6.4260   45.8860   50.4660 C   0  0  0  0  0  0  0  0  0  0  0  0
    5.9630   44.4230   50.5120 C   0  0  0  0  0  0  0  0  0  0  0  0
    4.9290   44.2080   51.5810 C   0  0  0  0  0  0  0  0  0  0  0  0
    4.6470   43.0320   51.9350 O   0  0  0  0  0  0  0  0  0  0  0  0
    4.3530   45.3390   52.2570 N   0  0  0  0  0  0  0  0  0  0  0  0
    3.5280   45.2330   53.4270 C   0  0  0  0  0  0  0  0  0  0  0  0
    4.1150   45.3600   54.6940 C   0  0  0  0  0  0  0  0  0  0  0  0
    3.3340   45.2690   55.8500 C   0  0  0  0  0  0  0  0  0  0  0  0
    1.9510   45.0510   55.7560 C   0  0  0  0  0  0  0  0  0  0  0  0
    1.1650   44.9880   56.9590 N   0  0  0  0  0  0  0  0  0  0  0  0
    0.3510   46.0650   57.4470 C   0  0  0  0  0  0  0  0  0  0  0  0
   -0.8410   46.3620   56.8590 N   0  0  0  0  0  0  0  0  0  0  0  0
   -1.6290   47.3590   57.3360 C   0  0  0  0  0  0  0  0  0  0  0  0
   -1.2260   48.0890   58.4530 C   0  0  0  0  0  0  0  0  0  0  0  0
   -0.0100   47.7660   59.0540 C   0  0  0  0  0  0  0  0  0  0  0  0
    0.7500   46.7610   58.5460 N   0  0  0  0  0  0  0  0  0  0  0  0
    1.3550   44.9730   54.4850 C   0  0  0  0  0  0  0  0  0  0  0  0
    2.1380   45.0630   53.3300 C   0  0  0  0  0  0  0  0  0  0  0  0
    7.5430   46.8650   52.5100 C   0  0  0  0  0  0  0  0  0  0  0  0
    9.1726   48.1110   56.3794 H   0  0  0  0  0  0  0  0  0  0  0  0
   10.3854   47.4925   55.2075 H   0  0  0  0  0  0  0  0  0  0  0  0
    9.9431   49.2335   55.2075 H   0  0  0  0  0  0  0  0  0  0  0  0
   10.8394   46.9200   53.4250 H   0  0  0  0  0  0  0  0  0  0  0  0
   11.0229   45.5683   51.3359 H   0  0  0  0  0  0  0  0  0  0  0  0
    8.9900   45.0710   49.9807 H   0  0  0  0  0  0  0  0  0  0  0  0
    5.6097   46.5296   50.8258 H   0  0  0  0  0  0  0  0  0  0  0  0
    6.6910   46.1289   49.4264 H   0  0  0  0  0  0  0  0  0  0  0  0
    5.5309   44.1536   49.5369 H   0  0  0  0  0  0  0  0  0  0  0  0
    6.8340   43.7915   50.7411 H   0  0  0  0  0  0  0  0  0  0  0  0
    4.7070   46.2880   52.0000 H   0  0  0  0  0  0  0  0  0  0  0  0
    5.1981   45.5325   54.7791 H   0  0  0  0  0  0  0  0  0  0  0  0
    3.8062   45.3688   56.8385 H   0  0  0  0  0  0  0  0  0  0  0  0
    1.1250   44.0790   57.4740 H   0  0  0  0  0  0  0  0  0  0  0  0
   -2.5841   47.5905   56.8419 H   0  0  0  0  0  0  0  0  0  0  0  0
   -1.8526   48.9008   58.8510 H   0  0  0  0  0  0  0  0  0  0  0  0
    0.3333   48.3238   59.9377 H   0  0  0  0  0  0  0  0  0  0  0  0
    0.2664   44.8404   54.3987 H   0  0  0  0  0  0  0  0  0  0  0  0
    1.6622   45.0003   52.3402 H   0  0  0  0  0  0  0  0  0  0  0  0
    6.5576   47.2187   52.8474 H   0  0  0  0  0  0  0  0  0  0  0  0
  1  2  1  0
  2  3  1  0
  3  4  2  0
  4  5  1  0
  5  6  2  0
  6  7  1  0
  7  8  1  0
  8  9  1  0
  9 10  1  0
 10 11  2  0
 10 12  1  0
 12 13  1  0
 13 14  2  0
 14 15  1  0
 15 16  2  0
 16 17  1  0
 17 18  1  0
 18 19  2  0
 19 20  1  0
 20 21  2  0
 21 22  1  0
 22 23  2  0
 16 24  1  0
 24 25  2  0
  7 26  2  0
 26  3  1  0
 25 13  1  0
 23 18  1  0
  1 27  1  0
  1 28  1  0
  1 29  1  0
  4 30  1  0
  5 31  1  0
  6 32  1  0
  8 33  1  0
  8 34  1  0
  9 35  1  0
  9 36  1  0
 12 37  1  0
 14 38  1  0
 15 39  1  0
 17 40  1  0
 20 41  1  0
 21 42  1  0
 22 43  1  0
 24 44  1  0
 25 45  1  0
 26 46  1  0
M  END
>  <meeko>  (3) 
{"is_sidechain": [false], "free_energy": -8.167, "intermolecular_energy": -11.448, "internal_energy": -0.823}

$$$$
ligand_15_conformer_4_docked
     RDKit          3D

 46 48  0  0  0  0  0  0  0  0999 V2000
    5.6940   46.9890   54.8720 C   0  0  0  0  0  0  0  0  0  0  0  0
    7.0870   47.2790   54.8760 O   0  0  0  0  0  0  0  0  0  0  0  0
    7.9710   46.9360   53.8420 C   0  0  0  0  0  0  0  0  0  0  0  0
    9.3680   47.0600   53.9700 C   0  0  0  0  0  0  0  0  0  0  0  0
   10.2030   46.7240   52.9020 C   0  0  0  0  0  0  0  0  0  0  0  0
    9.6580   46.2690   51.6990 C   0  0  0  0  0  0  0  0  0  0  0  0
    8.2690   46.1320   51.5600 C   0  0  0  0  0  0  0  0  0  0  0  0
    7.6740   45.7280   50.2340 C   0  0  0  0  0  0  0  0  0  0  0  0
    6.9150   44.3970   50.3330 C   0  0  0  0  0  0  0  0  0  0  0  0
    5.5530   44.5860   50.9380 C   0  0  0  0  0  0  0  0  0  0  0  0
    4.7820   45.4570   50.4530 O   0  0  0  0  0  0  0  0  0  0  0  0
    5.1060   43.7070   51.9830 N   0  0  0  0  0  0  0  0  0  0  0  0
    3.7560   43.6670   52.4710 C   0  0  0  0  0  0  0  0  0  0  0  0
    3.3500   44.5920   53.4430 C   0  0  0  0  0  0  0  0  0  0  0  0
    2.0400   44.5800   53.9290 C   0  0  0  0  0  0  0  0  0  0  0  0
    1.1130   43.6440   53.4480 C   0  0  0  0  0  0  0  0  0  0  0  0
   -0.2360   43.6700   53.9450 N   0  0  0  0  0  0  0  0  0  0  0  0
   -1.3770   44.0540   53.1620 C   0  0  0  0  0  0  0  0  0  0  0  0
   -1.3640   45.1990   52.4240 N   0  0  0  0  0  0  0  0  0  0  0  0
   -2.4290   45.5510   51.6570 C   0  0  0  0  0  0  0  0  0  0  0  0
   -3.5520   44.7280   51.6100 C   0  0  0  0  0  0  0  0  0  0  0  0
   -3.5470   43.5520   52.3590 C   0  0  0  0  0  0  0  0  0  0  0  0
   -2.4630   43.2360   53.1140 N   0  0  0  0  0  0  0  0  0  0  0  0
    1.5060   42.7480   52.4380 C   0  0  0  0  0  0  0  0  0  0  0  0
    2.8170   42.7600   51.9540 C   0  0  0  0  0  0  0  0  0  0  0  0
    7.4330   46.4630   52.6390 C   0  0  0  0  0  0  0  0  0  0  0  0
    5.3322   46.9137   55.9081 H   0  0  0  0  0  0  0  0  0  0  0  0
    5.1534   47.7939   54.3524 H   0  0  0  0  0  0  0  0  0  0  0  0
    5.5195   46.0353   54.3524 H   0  0  0  0  0  0  0  0  0  0  0  0
    9.8026   47.4223   54.9133 H   0  0  0  0  0  0  0  0  0  0  0  0
   11.2938   46.8180   53.0086 H   0  0  0  0  0  0  0  0  0  0  0  0
   10.3205   46.0173   50.8577 H   0  0  0  0  0  0  0  0  0  0  0  0
    6.9770   46.5118   49.9026 H   0  0  0  0  0  0  0  0  0  0  0  0
    8.4961   45.6008   49.5143 H   0  0  0  0  0  0  0  0  0  0  0  0
    6.8027   43.9732   49.3241 H   0  0  0  0  0  0  0  0  0  0  0  0
    7.4899   43.7181   50.9800 H   0  0  0  0  0  0  0  0  0  0  0  0
    5.7450   42.9290   52.2680 H   0  0  0  0  0  0  0  0  0  0  0  0
    4.0678   45.3325   53.8258 H   0  0  0  0  0  0  0  0  0  0  0  0
    1.7339   45.3092   54.6936 H   0  0  0  0  0  0  0  0  0  0  0  0
   -0.4120   43.3180   54.9130 H   0  0  0  0  0  0  0  0  0  0  0  0
   -2.4045   46.4838   51.0745 H   0  0  0  0  0  0  0  0  0  0  0  0
   -4.4231   44.9998   50.9958 H   0  0  0  0  0  0  0  0  0  0  0  0
   -4.4189   42.8817   52.3385 H   0  0  0  0  0  0  0  0  0  0  0  0
    0.7776   42.0338   52.0266 H   0  0  0  0  0  0  0  0  0  0  0  0
    3.1149   42.0551   51.1638 H   0  0  0  0  0  0  0  0  0  0  0  0
    6.3436   46.3494   52.5378 H   0  0  0  0  0  0  0  0  0  0  0  0
  1  2  1  0
  2  3  1  0
  3  4  2  0
  4  5  1  0
  5  6  2  0
  6  7  1  0
  7  8  1  0
  8  9  1  0
  9 10  1  0
 10 11  2  0
 10 12  1  0
 12 13  1  0
 13 14  2  0
 14 15  1  0
 15 16  2  0
 16 17  1  0
 17 18  1  0
 18 19  2  0
 19 20  1  0
 20 21  2  0
 21 22  1  0
 22 23  2  0
 16 24  1  0
 24 25  2  0
  7 26  2  0
 26  3  1  0
 25 13  1  0
 23 18  1  0
  1 27  1  0
  1 28  1  0
  1 29  1  0
  4 30  1  0
  5 31  1  0
  6 32  1  0
  8 33  1  0
  8 34  1  0
  9 35  1  0
  9 36  1  0
 12 37  1  0
 14 38  1  0
 15 39  1  0
 17 40  1  0
 20 41  1  0
 21 42  1  0
 22 43  1  0
 24 44  1  0
 25 45  1  0
 26 46  1  0
M  END
>  <meeko>  (4) 
{"is_sidechain": [false], "free_energy": -8.025, "intermolecular_energy": -11.525, "internal_energy": -0.546}

$$$$
ligand_15_conformer_4_docked
     RDKit          3D

 46 48  0  0  0  0  0  0  0  0999 V2000
    8.4310   44.1830   49.4960 C   0  0  0  0  0  0  0  0  0  0  0  0
    7.9420   45.4200   50.0030 O   0  0  0  0  0  0  0  0  0  0  0  0
    8.2810   45.9510   51.2560 C   0  0  0  0  0  0  0  0  0  0  0  0
    9.6060   46.2780   51.6050 C   0  0  0  0  0  0  0  0  0  0  0  0
    9.8930   46.7850   52.8750 C   0  0  0  0  0  0  0  0  0  0  0  0
    8.8690   46.9670   53.8080 C   0  0  0  0  0  0  0  0  0  0  0  0
    7.5440   46.6540   53.4710 C   0  0  0  0  0  0  0  0  0  0  0  0
    6.4520   46.7640   54.5060 C   0  0  0  0  0  0  0  0  0  0  0  0
    5.3110   47.6770   54.0350 C   0  0  0  0  0  0  0  0  0  0  0  0
    4.0550   46.8950   53.7720 C   0  0  0  0  0  0  0  0  0  0  0  0
    3.1480   47.4110   53.0640 O   0  0  0  0  0  0  0  0  0  0  0  0
    3.9460   45.5390   54.2350 N   0  0  0  0  0  0  0  0  0  0  0  0
    2.8880   44.6470   53.8520 C   0  0  0  0  0  0  0  0  0  0  0  0
    3.0790   43.7840   52.7640 C   0  0  0  0  0  0  0  0  0  0  0  0
    2.0690   42.9000   52.3750 C   0  0  0  0  0  0  0  0  0  0  0  0
    0.8500   42.8650   53.0680 C   0  0  0  0  0  0  0  0  0  0  0  0
   -0.1640   41.9290   52.6640 N   0  0  0  0  0  0  0  0  0  0  0  0
   -1.3300   42.2810   51.9050 C   0  0  0  0  0  0  0  0  0  0  0  0
   -1.3700   43.4330   51.1800 N   0  0  0  0  0  0  0  0  0  0  0  0
   -2.4600   43.7560   50.4350 C   0  0  0  0  0  0  0  0  0  0  0  0
   -3.5540   42.8940   50.3970 C   0  0  0  0  0  0  0  0  0  0  0  0
   -3.4950   41.7110   51.1340 C   0  0  0  0  0  0  0  0  0  0  0  0
   -2.3870   41.4260   51.8660 N   0  0  0  0  0  0  0  0  0  0  0  0
    0.6760   43.6970   54.1900 C   0  0  0  0  0  0  0  0  0  0  0  0
    1.6870   44.5810   54.5770 C   0  0  0  0  0  0  0  0  0  0  0  0
    7.2580   46.1520   52.1910 C   0  0  0  0  0  0  0  0  0  0  0  0
    8.6927   43.5209   50.3345 H   0  0  0  0  0  0  0  0  0  0  0  0
    7.6538   43.7059   48.8809 H   0  0  0  0  0  0  0  0  0  0  0  0
    9.3243   44.3663   48.8809 H   0  0  0  0  0  0  0  0  0  0  0  0
   10.4168   46.1338   50.8758 H   0  0  0  0  0  0  0  0  0  0  0  0
   10.9289   47.0418   53.1413 H   0  0  0  0  0  0  0  0  0  0  0  0
    9.1027   47.3569   54.8097 H   0  0  0  0  0  0  0  0  0  0  0  0
    6.0467   45.7608   54.7042 H   0  0  0  0  0  0  0  0  0  0  0  0
    6.8866   47.2015   55.4169 H   0  0  0  0  0  0  0  0  0  0  0  0
    5.1088   48.4275   54.8134 H   0  0  0  0  0  0  0  0  0  0  0  0
    5.6201   48.1608   53.0967 H   0  0  0  0  0  0  0  0  0  0  0  0
    4.7750   45.1250   54.7190 H   0  0  0  0  0  0  0  0  0  0  0  0
    4.0306   43.8028   52.2125 H   0  0  0  0  0  0  0  0  0  0  0  0
    2.2310   42.2273   51.5199 H   0  0  0  0  0  0  0  0  0  0  0  0
   -0.0100   40.9160   52.8720 H   0  0  0  0  0  0  0  0  0  0  0  0
   -2.4784   44.6957   49.8635 H   0  0  0  0  0  0  0  0  0  0  0  0
   -4.4440   43.1407   49.7994 H   0  0  0  0  0  0  0  0  0  0  0  0
   -4.3434   41.0110   51.1223 H   0  0  0  0  0  0  0  0  0  0  0  0
   -0.2605   43.6512   54.7652 H   0  0  0  0  0  0  0  0  0  0  0  0
    1.5412   45.2286   55.4542 H   0  0  0  0  0  0  0  0  0  0  0  0
    6.2189   45.9140   51.9198 H   0  0  0  0  0  0  0  0  0  0  0  0
  1  2  1  0
  2  3  1  0
  3  4  2  0
  4  5  1  0
  5  6  2  0
  6  7  1  0
  7  8  1  0
  8  9  1  0
  9 10  1  0
 10 11  2  0
 10 12  1  0
 12 13  1  0
 13 14  2  0
 14 15  1  0
 15 16  2  0
 16 17  1  0
 17 18  1  0
 18 19  2  0
 19 20  1  0
 20 21  2  0
 21 22  1  0
 22 23  2  0
 16 24  1  0
 24 25  2  0
  7 26  2  0
 26  3  1  0
 25 13  1  0
 23 18  1  0
  1 27  1  0
  1 28  1  0
  1 29  1  0
  4 30  1  0
  5 31  1  0
  6 32  1  0
  8 33  1  0
  8 34  1  0
  9 35  1  0
  9 36  1  0
 12 37  1  0
 14 38  1  0
 15 39  1  0
 17 40  1  0
 20 41  1  0
 21 42  1  0
 22 43  1  0
 24 44  1  0
 25 45  1  0
 26 46  1  0
M  END
>  <meeko>  (5) 
{"is_sidechain": [false], "free_energy": -7.773, "intermolecular_energy": -10.897, "internal_energy": -0.82}

$$$$
