ligand_99_conformer_4_docked
     RDKit          3D

 47 48  0  0  0  0  0  0  0  0999 V2000
   10.1980   46.2620   51.1540 C   0  0  0  0  0  0  0  0  0  0  0  0
    9.3450   46.5830   52.3560 C   0  0  0  0  0  0  0  0  0  0  0  0
    9.9510   47.1850   53.4720 C   0  0  0  0  0  0  0  0  0  0  0  0
    9.2000   47.5100   54.6020 C   0  0  0  0  0  0  0  0  0  0  0  0
    7.8330   47.2590   54.6280 C   0  0  0  0  0  0  0  0  0  0  0  0
    7.2000   46.6570   53.5330 C   0  0  0  0  0  0  0  0  0  0  0  0
    5.7780   46.4470   53.5920 N   0  0  0  0  0  0  0  0  0  0  0  0
    4.8710   47.5130   53.1500 C   0  0  0  0  0  0  0  0  0  0  0  0
    5.2770   45.1500   53.9690 C   0  0  0  0  0  0  0  0  0  0  0  0
    5.7930   44.5510   54.9530 O   0  0  0  0  0  0  0  0  0  0  0  0
    4.1480   44.5140   53.2640 C   0  0  0  0  0  0  0  0  0  0  0  0
    4.2480   43.6450   52.1980 C   0  0  0  0  0  0  0  0  0  0  0  0
    2.9440   43.2660   51.9370 C   0  0  0  0  0  0  0  0  0  0  0  0
    2.5570   42.3480   50.8160 C   0  0  0  0  0  0  0  0  0  0  0  0
    2.1130   43.9000   52.8090 N   0  0  0  0  0  0  0  0  0  0  0  0
    0.6450   43.7620   52.9910 C   0  0  0  0  0  0  0  0  0  0  0  0
    0.1620   44.7340   54.0950 C   0  0  0  0  0  0  0  0  0  0  0  0
   -0.1230   44.1090   51.6960 C   0  0  0  0  0  0  0  0  0  0  0  0
    0.3170   42.3260   53.4350 C   0  0  0  0  0  0  0  0  0  0  0  0
    2.8590   44.6380   53.6250 N   0  0  0  0  0  0  0  0  0  0  0  0
    7.9610   46.2630   52.4020 C   0  0  0  0  0  0  0  0  0  0  0  0
    7.2950   45.5570   51.2430 C   0  0  0  0  0  0  0  0  0  0  0  0
   11.1788   45.8929   51.4884 H   0  0  0  0  0  0  0  0  0  0  0  0
    9.7023   45.4889   50.5485 H   0  0  0  0  0  0  0  0  0  0  0  0
   10.3350   47.1701   50.5485 H   0  0  0  0  0  0  0  0  0  0  0  0
   11.0292   47.4023   53.4544 H   0  0  0  0  0  0  0  0  0  0  0  0
    9.6908   47.9660   55.4745 H   0  0  0  0  0  0  0  0  0  0  0  0
    7.2440   47.5352   55.5150 H   0  0  0  0  0  0  0  0  0  0  0  0
    4.4420   48.0172   54.0285 H   0  0  0  0  0  0  0  0  0  0  0  0
    5.4297   48.2424   52.5451 H   0  0  0  0  0  0  0  0  0  0  0  0
    4.0616   47.0784   52.5451 H   0  0  0  0  0  0  0  0  0  0  0  0
    5.1602   43.3251   51.6731 H   0  0  0  0  0  0  0  0  0  0  0  0
    2.1612   41.4092   51.2309 H   0  0  0  0  0  0  0  0  0  0  0  0
    1.7853   42.8296   50.1975 H   0  0  0  0  0  0  0  0  0  0  0  0
    3.4406   42.1318   50.1975 H   0  0  0  0  0  0  0  0  0  0  0  0
    0.3767   44.3019   55.0835 H   0  0  0  0  0  0  0  0  0  0  0  0
    0.6874   45.6950   53.9929 H   0  0  0  0  0  0  0  0  0  0  0  0
   -0.9213   44.8957   53.9929 H   0  0  0  0  0  0  0  0  0  0  0  0
   -1.0974   44.5493   51.9544 H   0  0  0  0  0  0  0  0  0  0  0  0
    0.4606   44.8309   51.1058 H   0  0  0  0  0  0  0  0  0  0  0  0
   -0.2790   43.1939   51.1058 H   0  0  0  0  0  0  0  0  0  0  0  0
    0.3055   42.2755   54.5338 H   0  0  0  0  0  0  0  0  0  0  0  0
   -0.6701   42.0378   53.0443 H   0  0  0  0  0  0  0  0  0  0  0  0
    1.0811   41.6379   53.0443 H   0  0  0  0  0  0  0  0  0  0  0  0
    6.5879   44.8074   51.6277 H   0  0  0  0  0  0  0  0  0  0  0  0
    6.7529   46.2913   50.6290 H   0  0  0  0  0  0  0  0  0  0  0  0
    8.0596   45.0586   50.6290 H   0  0  0  0  0  0  0  0  0  0  0  0
  1  2  1  0
  2  3  2  0
  3  4  1  0
  4  5  2  0
  5  6  1  0
  6  7  1  0
  7  8  1  0
  7  9  1  0
  9 10  2  0
  9 11  1  0
 11 12  1  0
 12 13  2  0
 13 14  1  0
 13 15  1  0
 15 16  1  0
 16 17  1  0
 16 18  1  0
 16 19  1  0
 15 20  1  0
  6 21  2  0
 21 22  1  0
 21  2  1  0
 20 11  2  0
  1 23  1  0
  1 24  1  0
  1 25  1  0
  3 26  1  0
  4 27  1  0
  5 28  1  0
  8 29  1  0
  8 30  1  0
  8 31  1  0
 12 32  1  0
 14 33  1  0
 14 34  1  0
 14 35  1  0
 17 36  1  0
 17 37  1  0
 17 38  1  0
 18 39  1  0
 18 40  1  0
 18 41  1  0
 19 42  1  0
 19 43  1  0
 19 44  1  0
 22 45  1  0
 22 46  1  0
 22 47  1  0
M  END
>  <meeko>  (1) 
{"is_sidechain": [false], "free_energy": -8.213, "intermolecular_energy": -10.134, "internal_energy": -0.457}

$$$$
ligand_99_conformer_4_docked
     RDKit          3D

 47 48  0  0  0  0  0  0  0  0999 V2000
   10.0870   46.4860   52.3520 C   0  0  0  0  0  0  0  0  0  0  0  0
    8.6170   46.2690   52.0940 C   0  0  0  0  0  0  0  0  0  0  0  0
    8.2210   45.7330   50.8580 C   0  0  0  0  0  0  0  0  0  0  0  0
    6.8730   45.5050   50.5780 C   0  0  0  0  0  0  0  0  0  0  0  0
    5.9030   45.7870   51.5340 C   0  0  0  0  0  0  0  0  0  0  0  0
    6.2660   46.3260   52.7750 C   0  0  0  0  0  0  0  0  0  0  0  0
    5.2320   46.5710   53.7460 N   0  0  0  0  0  0  0  0  0  0  0  0
    4.6370   47.9080   53.8460 C   0  0  0  0  0  0  0  0  0  0  0  0
    4.7200   45.4660   54.5160 C   0  0  0  0  0  0  0  0  0  0  0  0
    5.4530   44.9310   55.3920 O   0  0  0  0  0  0  0  0  0  0  0  0
    3.3440   44.9640   54.3390 C   0  0  0  0  0  0  0  0  0  0  0  0
    2.2890   45.1780   55.2020 C   0  0  0  0  0  0  0  0  0  0  0  0
    1.2070   44.5860   54.5780 C   0  0  0  0  0  0  0  0  0  0  0  0
   -0.1670   44.5310   55.1780 C   0  0  0  0  0  0  0  0  0  0  0  0
    1.6160   44.0350   53.4020 N   0  0  0  0  0  0  0  0  0  0  0  0
    0.8200   43.3690   52.3400 C   0  0  0  0  0  0  0  0  0  0  0  0
    1.7710   42.7700   51.2740 C   0  0  0  0  0  0  0  0  0  0  0  0
   -0.0300   42.2110   52.9090 C   0  0  0  0  0  0  0  0  0  0  0  0
   -0.0850   44.4040   51.6500 C   0  0  0  0  0  0  0  0  0  0  0  0
    2.9120   44.2920   53.2580 N   0  0  0  0  0  0  0  0  0  0  0  0
    7.6260   46.6230   53.0500 C   0  0  0  0  0  0  0  0  0  0  0  0
    8.0160   47.2610   54.3640 C   0  0  0  0  0  0  0  0  0  0  0  0
   10.2689   46.5128   53.4365 H   0  0  0  0  0  0  0  0  0  0  0  0
   10.6633   45.6632   51.9038 H   0  0  0  0  0  0  0  0  0  0  0  0
   10.4010   47.4402   51.9038 H   0  0  0  0  0  0  0  0  0  0  0  0
    8.9820   45.4901   50.1018 H   0  0  0  0  0  0  0  0  0  0  0  0
    6.5769   45.1012   49.5986 H   0  0  0  0  0  0  0  0  0  0  0  0
    4.8442   45.5855   51.3143 H   0  0  0  0  0  0  0  0  0  0  0  0
    4.5170   48.1776   54.9057 H   0  0  0  0  0  0  0  0  0  0  0  0
    5.2945   48.6397   53.3537 H   0  0  0  0  0  0  0  0  0  0  0  0
    3.6533   47.9093   53.3537 H   0  0  0  0  0  0  0  0  0  0  0  0
    2.3053   45.7019   56.1691 H   0  0  0  0  0  0  0  0  0  0  0  0
   -0.0884   44.5341   56.2752 H   0  0  0  0  0  0  0  0  0  0  0  0
   -0.7459   45.4067   54.8494 H   0  0  0  0  0  0  0  0  0  0  0  0
   -0.6741   43.6118   54.8494 H   0  0  0  0  0  0  0  0  0  0  0  0
    2.6000   42.2479   51.7741 H   0  0  0  0  0  0  0  0  0  0  0  0
    1.2155   42.0584   50.6454 H   0  0  0  0  0  0  0  0  0  0  0  0
    2.1728   43.5784   50.6454 H   0  0  0  0  0  0  0  0  0  0  0  0
   -0.0057   42.2441   54.0082 H   0  0  0  0  0  0  0  0  0  0  0  0
   -1.0687   42.3137   52.5619 H   0  0  0  0  0  0  0  0  0  0  0  0
    0.3793   41.2508   52.5619 H   0  0  0  0  0  0  0  0  0  0  0  0
   -0.6069   45.0009   52.4124 H   0  0  0  0  0  0  0  0  0  0  0  0
    0.5285   45.0668   51.0221 H   0  0  0  0  0  0  0  0  0  0  0  0
   -0.8237   43.8844   51.0221 H   0  0  0  0  0  0  0  0  0  0  0  0
    7.6405   46.6467   55.1956 H   0  0  0  0  0  0  0  0  0  0  0  0
    9.1120   47.3318   54.4262 H   0  0  0  0  0  0  0  0  0  0  0  0
    7.5793   48.2687   54.4262 H   0  0  0  0  0  0  0  0  0  0  0  0
  1  2  1  0
  2  3  2  0
  3  4  1  0
  4  5  2  0
  5  6  1  0
  6  7  1  0
  7  8  1  0
  7  9  1  0
  9 10  2  0
  9 11  1  0
 11 12  1  0
 12 13  2  0
 13 14  1  0
 13 15  1  0
 15 16  1  0
 16 17  1  0
 16 18  1  0
 16 19  1  0
 15 20  1  0
  6 21  2  0
 21 22  1  0
 21  2  1  0
 20 11  2  0
  1 23  1  0
  1 24  1  0
  1 25  1  0
  3 26  1  0
  4 27  1  0
  5 28  1  0
  8 29  1  0
  8 30  1  0
  8 31  1  0
 12 32  1  0
 14 33  1  0
 14 34  1  0
 14 35  1  0
 17 36  1  0
 17 37  1  0
 17 38  1  0
 18 39  1  0
 18 40  1  0
 18 41  1  0
 19 42  1  0
 19 43  1  0
 19 44  1  0
 22 45  1  0
 22 46  1  0
 22 47  1  0
M  END
>  <meeko>  (2) 
{"is_sidechain": [false], "free_energy": -8.169, "intermolecular_energy": -9.972, "internal_energy": -0.563}

$$$$
ligand_99_conformer_4_docked
     RDKit          3D

 47 48  0  0  0  0  0  0  0  0999 V2000
    9.6150   45.7520   50.9560 C   0  0  0  0  0  0  0  0  0  0  0  0
    9.0470   46.3310   52.2280 C   0  0  0  0  0  0  0  0  0  0  0  0
    9.9150   46.9850   53.1180 C   0  0  0  0  0  0  0  0  0  0  0  0
    9.4340   47.5450   54.3020 C   0  0  0  0  0  0  0  0  0  0  0  0
    8.0790   47.4810   54.6040 C   0  0  0  0  0  0  0  0  0  0  0  0
    7.1870   46.8340   53.7390 C   0  0  0  0  0  0  0  0  0  0  0  0
    5.7890   46.8210   54.0760 N   0  0  0  0  0  0  0  0  0  0  0  0
    4.9130   47.8840   53.5710 C   0  0  0  0  0  0  0  0  0  0  0  0
    5.2560   45.6980   54.8040 C   0  0  0  0  0  0  0  0  0  0  0  0
    5.9540   45.1590   55.7070 O   0  0  0  0  0  0  0  0  0  0  0  0
    3.8970   45.1810   54.5540 C   0  0  0  0  0  0  0  0  0  0  0  0
    2.7860   45.4180   55.3360 C   0  0  0  0  0  0  0  0  0  0  0  0
    1.7500   44.7970   54.6630 C   0  0  0  0  0  0  0  0  0  0  0  0
    0.3390   44.7550   55.1710 C   0  0  0  0  0  0  0  0  0  0  0  0
    2.2400   44.2070   53.5380 N   0  0  0  0  0  0  0  0  0  0  0  0
    1.5200   43.4970   52.4500 C   0  0  0  0  0  0  0  0  0  0  0  0
    2.5400   42.7900   51.5240 C   0  0  0  0  0  0  0  0  0  0  0  0
    0.5700   42.4140   53.0090 C   0  0  0  0  0  0  0  0  0  0  0  0
    0.7300   44.5150   51.6080 C   0  0  0  0  0  0  0  0  0  0  0  0
    3.5410   44.4670   53.4710 N   0  0  0  0  0  0  0  0  0  0  0  0
    7.6720   46.2040   52.5630 C   0  0  0  0  0  0  0  0  0  0  0  0
    6.7250   45.4510   51.6570 C   0  0  0  0  0  0  0  0  0  0  0  0
   10.3654   44.9870   51.2044 H   0  0  0  0  0  0  0  0  0  0  0  0
    8.8057   45.2944   50.3680 H   0  0  0  0  0  0  0  0  0  0  0  0
   10.0880   46.5523   50.3680 H   0  0  0  0  0  0  0  0  0  0  0  0
   10.9863   47.0565   52.8787 H   0  0  0  0  0  0  0  0  0  0  0  0
   10.1287   48.0381   54.9978 H   0  0  0  0  0  0  0  0  0  0  0  0
    7.7039   47.9420   55.5296 H   0  0  0  0  0  0  0  0  0  0  0  0
    4.4670   48.4252   54.4185 H   0  0  0  0  0  0  0  0  0  0  0  0
    5.5007   48.5831   52.9579 H   0  0  0  0  0  0  0  0  0  0  0  0
    4.1145   47.4407   52.9579 H   0  0  0  0  0  0  0  0  0  0  0  0
    2.7354   45.9759   56.2827 H   0  0  0  0  0  0  0  0  0  0  0  0
    0.3452   44.7552   56.2710 H   0  0  0  0  0  0  0  0  0  0  0  0
   -0.2081   45.6373   54.8072 H   0  0  0  0  0  0  0  0  0  0  0  0
   -0.1546   43.8418   54.8072 H   0  0  0  0  0  0  0  0  0  0  0  0
    3.2912   42.2693   52.1359 H   0  0  0  0  0  0  0  0  0  0  0  0
    2.0150   42.0611   50.8891 H   0  0  0  0  0  0  0  0  0  0  0  0
    3.0383   43.5374   50.8891 H   0  0  0  0  0  0  0  0  0  0  0  0
    0.5920   42.4391   54.1085 H   0  0  0  0  0  0  0  0  0  0  0  0
   -0.4543   42.6083   52.6582 H   0  0  0  0  0  0  0  0  0  0  0  0
    0.8961   41.4237   52.6582 H   0  0  0  0  0  0  0  0  0  0  0  0
    0.1940   45.2057   52.2756 H   0  0  0  0  0  0  0  0  0  0  0  0
    1.4253   45.0840   50.9733 H   0  0  0  0  0  0  0  0  0  0  0  0
    0.0062   43.9828   50.9733 H   0  0  0  0  0  0  0  0  0  0  0  0
    6.0087   44.8814   52.2674 H   0  0  0  0  0  0  0  0  0  0  0  0
    6.1796   46.1648   51.0222 H   0  0  0  0  0  0  0  0  0  0  0  0
    7.2975   44.7588   51.0222 H   0  0  0  0  0  0  0  0  0  0  0  0
  1  2  1  0
  2  3  2  0
  3  4  1  0
  4  5  2  0
  5  6  1  0
  6  7  1  0
  7  8  1  0
  7  9  1  0
  9 10  2  0
  9 11  1  0
 11 12  1  0
 12 13  2  0
 13 14  1  0
 13 15  1  0
 15 16  1  0
 16 17  1  0
 16 18  1  0
 16 19  1  0
 15 20  1  0
  6 21  2  0
 21 22  1  0
 21  2  1  0
 20 11  2  0
  1 23  1  0
  1 24  1  0
  1 25  1  0
  3 26  1  0
  4 27  1  0
  5 28  1  0
  8 29  1  0
  8 30  1  0
  8 31  1  0
 12 32  1  0
 14 33  1  0
 14 34  1  0
 14 35  1  0
 17 36  1  0
 17 37  1  0
 17 38  1  0
 18 39  1  0
 18 40  1  0
 18 41  1  0
 19 42  1  0
 19 43  1  0
 19 44  1  0
 22 45  1  0
 22 46  1  0
 22 47  1  0
M  END
>  <meeko>  (3) 
{"is_sidechain": [false], "free_energy": -8.056, "intermolecular_energy": -10.003, "internal_energy": -0.394}

$$$$
ligand_99_conformer_4_docked
     RDKit          3D

 47 48  0  0  0  0  0  0  0  0999 V2000
   -0.1650   42.1530   52.7130 C   0  0  0  0  0  0  0  0  0  0  0  0
    0.3520   43.3550   53.4630 C   0  0  0  0  0  0  0  0  0  0  0  0
   -0.3060   43.7520   54.6380 C   0  0  0  0  0  0  0  0  0  0  0  0
    0.1430   44.8510   55.3710 C   0  0  0  0  0  0  0  0  0  0  0  0
    1.2660   45.5570   54.9550 C   0  0  0  0  0  0  0  0  0  0  0  0
    1.9440   45.1880   53.7850 C   0  0  0  0  0  0  0  0  0  0  0  0
    3.1210   45.9260   53.4110 N   0  0  0  0  0  0  0  0  0  0  0  0
    2.9800   47.1890   52.6770 C   0  0  0  0  0  0  0  0  0  0  0  0
    4.4070   45.4690   53.8710 C   0  0  0  0  0  0  0  0  0  0  0  0
    4.4990   44.9180   55.0030 O   0  0  0  0  0  0  0  0  0  0  0  0
    5.6200   45.5880   53.0380 C   0  0  0  0  0  0  0  0  0  0  0  0
    5.8030   45.0240   51.7940 C   0  0  0  0  0  0  0  0  0  0  0  0
    7.0470   45.4730   51.3890 C   0  0  0  0  0  0  0  0  0  0  0  0
    7.6920   45.0740   50.0960 C   0  0  0  0  0  0  0  0  0  0  0  0
    7.5750   46.2600   52.3670 N   0  0  0  0  0  0  0  0  0  0  0  0
    8.8380   47.0420   52.3760 C   0  0  0  0  0  0  0  0  0  0  0  0
    9.1050   47.5860   53.8010 C   0  0  0  0  0  0  0  0  0  0  0  0
   10.0490   46.1680   51.9770 C   0  0  0  0  0  0  0  0  0  0  0  0
    8.7080   48.2390   51.4180 C   0  0  0  0  0  0  0  0  0  0  0  0
    6.6880   46.3400   53.3540 N   0  0  0  0  0  0  0  0  0  0  0  0
    1.4610   44.1120   52.9950 C   0  0  0  0  0  0  0  0  0  0  0  0
    2.1510   43.7480   51.7000 C   0  0  0  0  0  0  0  0  0  0  0  0
   -0.4945   41.3870   53.4304 H   0  0  0  0  0  0  0  0  0  0  0  0
   -1.0139   42.4525   52.0808 H   0  0  0  0  0  0  0  0  0  0  0  0
    0.6363   41.7428   52.0808 H   0  0  0  0  0  0  0  0  0  0  0  0
   -1.1858   43.1900   54.9847 H   0  0  0  0  0  0  0  0  0  0  0  0
   -0.3931   45.1597   56.2806 H   0  0  0  0  0  0  0  0  0  0  0  0
    1.6250   46.4111   55.5481 H   0  0  0  0  0  0  0  0  0  0  0  0
    2.8872   48.0200   53.3917 H   0  0  0  0  0  0  0  0  0  0  0  0
    3.8661   47.3465   52.0446 H   0  0  0  0  0  0  0  0  0  0  0  0
    2.0809   47.1472   52.0446 H   0  0  0  0  0  0  0  0  0  0  0  0
    5.1141   44.3645   51.2459 H   0  0  0  0  0  0  0  0  0  0  0  0
    8.6105   44.5058   50.3045 H   0  0  0  0  0  0  0  0  0  0  0  0
    6.9969   44.4479   49.5174 H   0  0  0  0  0  0  0  0  0  0  0  0
    7.9419   45.9755   49.5174 H   0  0  0  0  0  0  0  0  0  0  0  0
    8.7477   46.8581   54.5443 H   0  0  0  0  0  0  0  0  0  0  0  0
   10.1847   47.7475   53.9355 H   0  0  0  0  0  0  0  0  0  0  0  0
    8.5722   48.5389   53.9355 H   0  0  0  0  0  0  0  0  0  0  0  0
   10.5533   45.8040   52.8843 H   0  0  0  0  0  0  0  0  0  0  0  0
    9.7021   45.3107   51.3814 H   0  0  0  0  0  0  0  0  0  0  0  0
   10.7533   46.7673   51.3814 H   0  0  0  0  0  0  0  0  0  0  0  0
    8.6073   49.1662   52.0013 H   0  0  0  0  0  0  0  0  0  0  0  0
    9.6048   48.3003   50.7839 H   0  0  0  0  0  0  0  0  0  0  0  0
    7.8190   48.1063   50.7839 H   0  0  0  0  0  0  0  0  0  0  0  0
    3.1041   43.2452   51.9211 H   0  0  0  0  0  0  0  0  0  0  0  0
    1.5064   43.0726   51.1183 H   0  0  0  0  0  0  0  0  0  0  0  0
    2.3446   44.6614   51.1183 H   0  0  0  0  0  0  0  0  0  0  0  0
  1  2  1  0
  2  3  2  0
  3  4  1  0
  4  5  2  0
  5  6  1  0
  6  7  1  0
  7  8  1  0
  7  9  1  0
  9 10  2  0
  9 11  1  0
 11 12  1  0
 12 13  2  0
 13 14  1  0
 13 15  1  0
 15 16  1  0
 16 17  1  0
 16 18  1  0
 16 19  1  0
 15 20  1  0
  6 21  2  0
 21 22  1  0
 21  2  1  0
 20 11  2  0
  1 23  1  0
  1 24  1  0
  1 25  1  0
  3 26  1  0
  4 27  1  0
  5 28  1  0
  8 29  1  0
  8 30  1  0
  8 31  1  0
 12 32  1  0
 14 33  1  0
 14 34  1  0
 14 35  1  0
 17 36  1  0
 17 37  1  0
 17 38  1  0
 18 39  1  0
 18 40  1  0
 18 41  1  0
 19 42  1  0
 19 43  1  0
 19 44  1  0
 22 45  1  0
 22 46  1  0
 22 47  1  0
M  END
>  <meeko>  (4) 
{"is_sidechain": [false], "free_energy": -7.884, "intermolecular_energy": -9.734, "internal_energy": -0.45}

$$$$
ligand_99_conformer_4_docked
     RDKit          3D

 47 48  0  0  0  0  0  0  0  0999 V2000
   -1.3030   43.7160   54.8920 C   0  0  0  0  0  0  0  0  0  0  0  0
    0.0540   43.7110   54.2320 C   0  0  0  0  0  0  0  0  0  0  0  0
    0.3200   42.7490   53.2430 C   0  0  0  0  0  0  0  0  0  0  0  0
    1.5560   42.7130   52.5970 C   0  0  0  0  0  0  0  0  0  0  0  0
    2.5370   43.6480   52.9120 C   0  0  0  0  0  0  0  0  0  0  0  0
    2.3030   44.6180   53.8960 C   0  0  0  0  0  0  0  0  0  0  0  0
    3.3340   45.5850   54.1650 N   0  0  0  0  0  0  0  0  0  0  0  0
    4.0100   45.5780   55.4670 C   0  0  0  0  0  0  0  0  0  0  0  0
    3.7630   46.4620   53.1050 C   0  0  0  0  0  0  0  0  0  0  0  0
    2.9940   47.3850   52.7170 O   0  0  0  0  0  0  0  0  0  0  0  0
    5.0960   46.3400   52.4850 C   0  0  0  0  0  0  0  0  0  0  0  0
    5.4060   45.5770   51.3790 C   0  0  0  0  0  0  0  0  0  0  0  0
    6.7400   45.8440   51.1360 C   0  0  0  0  0  0  0  0  0  0  0  0
    7.5290   45.1930   50.0390 C   0  0  0  0  0  0  0  0  0  0  0  0
    7.1960   46.7200   52.0740 N   0  0  0  0  0  0  0  0  0  0  0  0
    8.5240   47.3740   52.1920 C   0  0  0  0  0  0  0  0  0  0  0  0
    9.6420   46.3430   51.9020 C   0  0  0  0  0  0  0  0  0  0  0  0
    8.6810   48.5290   51.1760 C   0  0  0  0  0  0  0  0  0  0  0  0
    8.7130   47.8990   53.6260 C   0  0  0  0  0  0  0  0  0  0  0  0
    6.1820   47.0310   52.8730 N   0  0  0  0  0  0  0  0  0  0  0  0
    1.0750   44.6270   54.6060 C   0  0  0  0  0  0  0  0  0  0  0  0
    0.8410   45.6320   55.7100 C   0  0  0  0  0  0  0  0  0  0  0  0
   -1.1791   43.7155   55.9850 H   0  0  0  0  0  0  0  0  0  0  0  0
   -1.8562   44.6162   54.5861 H   0  0  0  0  0  0  0  0  0  0  0  0
   -1.8628   42.8199   54.5861 H   0  0  0  0  0  0  0  0  0  0  0  0
   -0.4551   42.0159   52.9751 H   0  0  0  0  0  0  0  0  0  0  0  0
    1.7555   41.9435   51.8367 H   0  0  0  0  0  0  0  0  0  0  0  0
    3.5024   43.6257   52.3853 H   0  0  0  0  0  0  0  0  0  0  0  0
    3.2586   45.5858   56.2703 H   0  0  0  0  0  0  0  0  0  0  0  0
    4.6298   44.6734   55.5535 H   0  0  0  0  0  0  0  0  0  0  0  0
    4.6484   46.4696   55.5535 H   0  0  0  0  0  0  0  0  0  0  0  0
    4.7405   44.9060   50.8161 H   0  0  0  0  0  0  0  0  0  0  0  0
    8.3069   44.5511   50.4781 H   0  0  0  0  0  0  0  0  0  0  0  0
    6.8577   44.5825   49.4172 H   0  0  0  0  0  0  0  0  0  0  0  0
    8.0010   45.9680   49.4172 H   0  0  0  0  0  0  0  0  0  0  0  0
   10.0496   45.9671   52.8521 H   0  0  0  0  0  0  0  0  0  0  0  0
    9.2265   45.5044   51.3240 H   0  0  0  0  0  0  0  0  0  0  0  0
   10.4443   46.8249   51.3240 H   0  0  0  0  0  0  0  0  0  0  0  0
    8.8100   49.4781   51.7169 H   0  0  0  0  0  0  0  0  0  0  0  0
    9.5623   48.3443   50.5442 H   0  0  0  0  0  0  0  0  0  0  0  0
    7.7824   48.5862   50.5442 H   0  0  0  0  0  0  0  0  0  0  0  0
    8.4307   47.1147   54.3438 H   0  0  0  0  0  0  0  0  0  0  0  0
    9.7668   48.1746   53.7797 H   0  0  0  0  0  0  0  0  0  0  0  0
    8.0767   48.7830   53.7797 H   0  0  0  0  0  0  0  0  0  0  0  0
    0.9560   45.1379   56.6860 H   0  0  0  0  0  0  0  0  0  0  0  0
    1.5731   46.4485   55.6238 H   0  0  0  0  0  0  0  0  0  0  0  0
   -0.1764   46.0411   55.6238 H   0  0  0  0  0  0  0  0  0  0  0  0
  1  2  1  0
  2  3  2  0
  3  4  1  0
  4  5  2  0
  5  6  1  0
  6  7  1  0
  7  8  1  0
  7  9  1  0
  9 10  2  0
  9 11  1  0
 11 12  1  0
 12 13  2  0
 13 14  1  0
 13 15  1  0
 15 16  1  0
 16 17  1  0
 16 18  1  0
 16 19  1  0
 15 20  1  0
  6 21  2  0
 21 22  1  0
 21  2  1  0
 20 11  2  0
  1 23  1  0
  1 24  1  0
  1 25  1  0
  3 26  1  0
  4 27  1  0
  5 28  1  0
  8 29  1  0
  8 30  1  0
  8 31  1  0
 12 32  1  0
 14 33  1  0
 14 34  1  0
 14 35  1  0
 17 36  1  0
 17 37  1  0
 17 38  1  0
 18 39  1  0
 18 40  1  0
 18 41  1  0
 19 42  1  0
 19 43  1  0
 19 44  1  0
 22 45  1  0
 22 46  1  0
 22 47  1  0
M  END
>  <meeko>  (5) 
{"is_sidechain": [false], "free_energy": -7.606, "intermolecular_energy": -9.735, "internal_energy": -0.107}

$$$$
