ligand_50_conformer_1_docked
     RDKit          3D

 42 45  0  0  0  0  0  0  0  0999 V2000
    4.5660   42.5230   51.1010 C   0  0  0  0  0  0  0  0  0  0  0  0
    4.3930   43.6480   52.0650 C   0  0  0  0  0  0  0  0  0  0  0  0
    3.1990   43.8110   52.7180 N   0  0  0  0  0  0  0  0  0  0  0  0
    2.9990   44.7980   53.6440 C   0  0  0  0  0  0  0  0  0  0  0  0
    1.7150   44.9030   54.2940 N   0  0  0  0  0  0  0  0  0  0  0  0
    0.4740   44.6030   53.5950 C   0  0  0  0  0  0  0  0  0  0  0  0
   -0.6470   44.9170   54.5760 C   0  0  0  0  0  0  0  0  0  0  0  0
    0.0190   44.9090   55.9550 C   0  0  2  0  0  0  0  0  0  0  0  0
   -0.6490   45.8580   56.9660 C   0  0  0  0  0  0  0  0  0  0  0  0
    0.2380   46.2280   57.9900 O   0  0  0  0  0  0  0  0  0  0  0  0
    1.4940   45.2220   55.6960 C   0  0  0  0  0  0  0  0  0  0  0  0
    4.0840   45.6520   53.9010 C   0  0  0  0  0  0  0  0  0  0  0  0
    4.3200   46.7280   54.7420 C   0  0  0  0  0  0  0  0  0  0  0  0
    5.6000   47.1410   54.5690 N   0  0  0  0  0  0  0  0  0  0  0  0
    6.1710   46.3780   53.6440 N   0  0  0  0  0  0  0  0  0  0  0  0
    7.5390   46.5250   53.2190 C   0  0  0  0  0  0  0  0  0  0  0  0
    8.5390   46.7990   54.1680 C   0  0  0  0  0  0  0  0  0  0  0  0
    9.8710   46.9540   53.7700 C   0  0  0  0  0  0  0  0  0  0  0  0
   10.2160   46.8490   52.4210 C   0  0  0  0  0  0  0  0  0  0  0  0
    9.2280   46.5940   51.4660 C   0  0  0  0  0  0  0  0  0  0  0  0
    7.8950   46.4370   51.8600 C   0  0  0  0  0  0  0  0  0  0  0  0
    5.2600   45.4740   53.2350 C   0  0  0  0  0  0  0  0  0  0  0  0
    5.4430   44.4750   52.3390 N   0  0  0  0  0  0  0  0  0  0  0  0
    4.7104   41.5840   51.6554 H   0  0  0  0  0  0  0  0  0  0  0  0
    3.6699   42.4412   50.4683 H   0  0  0  0  0  0  0  0  0  0  0  0
    5.4453   42.7142   50.4683 H   0  0  0  0  0  0  0  0  0  0  0  0
    0.3811   45.2292   52.6954 H   0  0  0  0  0  0  0  0  0  0  0  0
    0.4400   43.5536   53.2670 H   0  0  0  0  0  0  0  0  0  0  0  0
   -1.0822   45.9045   54.3626 H   0  0  0  0  0  0  0  0  0  0  0  0
   -1.4694   44.1894   54.5102 H   0  0  0  0  0  0  0  0  0  0  0  0
   -0.0938   43.9302   56.4441 H   0  0  0  0  0  0  0  0  0  0  0  0
   -0.9836   46.7636   56.4387 H   0  0  0  0  0  0  0  0  0  0  0  0
   -1.5010   45.3320   57.4214 H   0  0  0  0  0  0  0  0  0  0  0  0
    1.1410   45.9130   57.7250 H   0  0  0  0  0  0  0  0  0  0  0  0
    1.7011   46.2854   55.8862 H   0  0  0  0  0  0  0  0  0  0  0  0
    2.1574   44.6447   56.3569 H   0  0  0  0  0  0  0  0  0  0  0  0
    3.5904   47.1730   55.4346 H   0  0  0  0  0  0  0  0  0  0  0  0
    8.2723   46.8922   55.2311 H   0  0  0  0  0  0  0  0  0  0  0  0
   10.6481   47.1590   54.5211 H   0  0  0  0  0  0  0  0  0  0  0  0
   11.2646   46.9669   52.1102 H   0  0  0  0  0  0  0  0  0  0  0  0
    9.4990   46.5166   50.4027 H   0  0  0  0  0  0  0  0  0  0  0  0
    7.1204   46.2436   51.1033 H   0  0  0  0  0  0  0  0  0  0  0  0
  1  2  1  0
  2  3  2  0
  3  4  1  0
  4  5  1  0
  5  6  1  0
  6  7  1  0
  7  8  1  0
  8  9  1  0
  9 10  1  0
  8 11  1  0
  4 12  2  0
 12 13  1  0
 13 14  2  0
 14 15  1  0
 15 16  1  0
 16 17  2  0
 17 18  1  0
 18 19  2  0
 19 20  1  0
 20 21  2  0
 15 22  1  0
 22 23  2  0
 23  2  1  0
 11  5  1  0
 22 12  1  0
 21 16  1  0
  1 24  1  0
  1 25  1  0
  1 26  1  0
  6 27  1  0
  6 28  1  0
  7 29  1  0
  7 30  1  0
  8 31  1  1
  9 32  1  0
  9 33  1  0
 10 34  1  0
 11 35  1  0
 11 36  1  0
 13 37  1  0
 17 38  1  0
 18 39  1  0
 19 40  1  0
 20 41  1  0
 21 42  1  0
M  END
>  <meeko>  (1) 
{"is_sidechain": [false], "free_energy": -8.834, "intermolecular_energy": -10.641, "internal_energy": -0.169}

$$$$
ligand_50_conformer_1_docked
     RDKit          3D

 42 45  0  0  0  0  0  0  0  0999 V2000
    5.2550   42.2050   50.4220 C   0  0  0  0  0  0  0  0  0  0  0  0
    4.7300   43.3010   51.2870 C   0  0  0  0  0  0  0  0  0  0  0  0
    3.4070   43.3140   51.6450 N   0  0  0  0  0  0  0  0  0  0  0  0
    2.8810   44.2700   52.4710 C   0  0  0  0  0  0  0  0  0  0  0  0
    1.4790   44.2150   52.8070 N   0  0  0  0  0  0  0  0  0  0  0  0
    0.9320   43.1630   53.6500 C   0  0  0  0  0  0  0  0  0  0  0  0
   -0.5720   43.3990   53.6940 C   0  0  0  0  0  0  0  0  0  0  0  0
   -0.7560   44.8610   53.2810 C   0  0  2  0  0  0  0  0  0  0  0  0
   -2.0900   45.1340   52.5630 C   0  0  0  0  0  0  0  0  0  0  0  0
   -2.1140   46.4160   51.9900 O   0  0  0  0  0  0  0  0  0  0  0  0
    0.4780   45.2050   52.4430 C   0  0  0  0  0  0  0  0  0  0  0  0
    3.7660   45.2530   52.9430 C   0  0  0  0  0  0  0  0  0  0  0  0
    3.6710   46.3510   53.7840 C   0  0  0  0  0  0  0  0  0  0  0  0
    4.8960   46.9200   53.8950 N   0  0  0  0  0  0  0  0  0  0  0  0
    5.7530   46.2320   53.1480 N   0  0  0  0  0  0  0  0  0  0  0  0
    7.1540   46.5490   53.0420 C   0  0  0  0  0  0  0  0  0  0  0  0
    7.9000   46.8100   54.2050 C   0  0  0  0  0  0  0  0  0  0  0  0
    9.2590   47.1280   54.1180 C   0  0  0  0  0  0  0  0  0  0  0  0
    9.8840   47.1990   52.8710 C   0  0  0  0  0  0  0  0  0  0  0  0
    9.1490   46.9590   51.7080 C   0  0  0  0  0  0  0  0  0  0  0  0
    7.7900   46.6390   51.7900 C   0  0  0  0  0  0  0  0  0  0  0  0
    5.0770   45.2220   52.5690 C   0  0  0  0  0  0  0  0  0  0  0  0
    5.5810   44.2530   51.7690 N   0  0  0  0  0  0  0  0  0  0  0  0
    5.6439   41.3932   51.0543 H   0  0  0  0  0  0  0  0  0  0  0  0
    4.4441   41.8188   49.7869 H   0  0  0  0  0  0  0  0  0  0  0  0
    6.0642   42.5948   49.7869 H   0  0  0  0  0  0  0  0  0  0  0  0
    1.1513   42.1751   53.2189 H   0  0  0  0  0  0  0  0  0  0  0  0
    1.3726   43.1845   54.6577 H   0  0  0  0  0  0  0  0  0  0  0  0
   -1.0890   42.7304   52.9899 H   0  0  0  0  0  0  0  0  0  0  0  0
   -0.9932   43.1948   54.6894 H   0  0  0  0  0  0  0  0  0  0  0  0
   -0.8267   45.5161   54.1618 H   0  0  0  0  0  0  0  0  0  0  0  0
   -2.2283   44.3852   51.7692 H   0  0  0  0  0  0  0  0  0  0  0  0
   -2.8998   45.0728   53.3050 H   0  0  0  0  0  0  0  0  0  0  0  0
   -2.1490   46.2980   51.0050 H   0  0  0  0  0  0  0  0  0  0  0  0
    0.2449   45.1404   51.3699 H   0  0  0  0  0  0  0  0  0  0  0  0
    0.8285   46.2304   52.6321 H   0  0  0  0  0  0  0  0  0  0  0  0
    2.7536   46.7021   54.2790 H   0  0  0  0  0  0  0  0  0  0  0  0
    7.4115   46.7637   55.1895 H   0  0  0  0  0  0  0  0  0  0  0  0
    9.8369   47.3226   55.0335 H   0  0  0  0  0  0  0  0  0  0  0  0
   10.9544   47.4438   52.8050 H   0  0  0  0  0  0  0  0  0  0  0  0
    9.6399   47.0218   50.7256 H   0  0  0  0  0  0  0  0  0  0  0  0
    7.2148   46.4566   50.8703 H   0  0  0  0  0  0  0  0  0  0  0  0
  1  2  1  0
  2  3  2  0
  3  4  1  0
  4  5  1  0
  5  6  1  0
  6  7  1  0
  7  8  1  0
  8  9  1  0
  9 10  1  0
  8 11  1  0
  4 12  2  0
 12 13  1  0
 13 14  2  0
 14 15  1  0
 15 16  1  0
 16 17  2  0
 17 18  1  0
 18 19  2  0
 19 20  1  0
 20 21  2  0
 15 22  1  0
 22 23  2  0
 23  2  1  0
 11  5  1  0
 22 12  1  0
 21 16  1  0
  1 24  1  0
  1 25  1  0
  1 26  1  0
  6 27  1  0
  6 28  1  0
  7 29  1  0
  7 30  1  0
  8 31  1  1
  9 32  1  0
  9 33  1  0
 10 34  1  0
 11 35  1  0
 11 36  1  0
 13 37  1  0
 17 38  1  0
 18 39  1  0
 19 40  1  0
 20 41  1  0
 21 42  1  0
M  END
>  <meeko>  (2) 
{"is_sidechain": [false], "free_energy": -8.828, "intermolecular_energy": -10.387, "internal_energy": -0.416}

$$$$
ligand_50_conformer_1_docked
     RDKit          3D

 42 45  0  0  0  0  0  0  0  0999 V2000
    5.7650   42.2260   49.6820 C   0  0  0  0  0  0  0  0  0  0  0  0
    5.4450   43.2490   50.7190 C   0  0  0  0  0  0  0  0  0  0  0  0
    6.4100   44.1360   51.1240 N   0  0  0  0  0  0  0  0  0  0  0  0
    6.1590   45.1230   52.0390 C   0  0  0  0  0  0  0  0  0  0  0  0
    7.2250   46.0210   52.4130 N   0  0  0  0  0  0  0  0  0  0  0  0
    8.1010   46.6290   51.4220 C   0  0  0  0  0  0  0  0  0  0  0  0
    9.1340   47.4250   52.2070 C   0  0  0  0  0  0  0  0  0  0  0  0
    8.5050   47.6400   53.5860 C   0  0  2  0  0  0  0  0  0  0  0  0
    9.5380   47.7400   54.7230 C   0  0  0  0  0  0  0  0  0  0  0  0
    9.1630   48.7010   55.6770 O   0  0  0  0  0  0  0  0  0  0  0  0
    7.5040   46.4960   53.7590 C   0  0  0  0  0  0  0  0  0  0  0  0
    4.8550   45.1900   52.5550 C   0  0  0  0  0  0  0  0  0  0  0  0
    4.1840   46.0090   53.4490 C   0  0  0  0  0  0  0  0  0  0  0  0
    2.8950   45.5990   53.5300 N   0  0  0  0  0  0  0  0  0  0  0  0
    2.7330   44.5480   52.7340 N   0  0  0  0  0  0  0  0  0  0  0  0
    1.4780   43.8620   52.5610 C   0  0  0  0  0  0  0  0  0  0  0  0
    1.1020   42.8560   53.4670 C   0  0  0  0  0  0  0  0  0  0  0  0
   -0.1090   42.1740   53.3080 C   0  0  0  0  0  0  0  0  0  0  0  0
   -0.9500   42.4820   52.2370 C   0  0  0  0  0  0  0  0  0  0  0  0
   -0.5790   43.4680   51.3200 C   0  0  0  0  0  0  0  0  0  0  0  0
    0.6300   44.1530   51.4760 C   0  0  0  0  0  0  0  0  0  0  0  0
    3.9140   44.2940   52.1400 C   0  0  0  0  0  0  0  0  0  0  0  0
    4.1780   43.3400   51.2160 N   0  0  0  0  0  0  0  0  0  0  0  0
    6.0590   41.2863   50.1724 H   0  0  0  0  0  0  0  0  0  0  0  0
    4.8788   42.0505   49.0544 H   0  0  0  0  0  0  0  0  0  0  0  0
    6.5932   42.5867   49.0544 H   0  0  0  0  0  0  0  0  0  0  0  0
    8.5943   45.8518   50.8198 H   0  0  0  0  0  0  0  0  0  0  0  0
    7.5394   47.2718   50.7281 H   0  0  0  0  0  0  0  0  0  0  0  0
   10.0732   46.8590   52.2945 H   0  0  0  0  0  0  0  0  0  0  0  0
    9.3840   48.3762   51.7143 H   0  0  0  0  0  0  0  0  0  0  0  0
    7.9986   48.6148   53.6442 H   0  0  0  0  0  0  0  0  0  0  0  0
    9.6222   46.7605   55.2165 H   0  0  0  0  0  0  0  0  0  0  0  0
   10.5016   48.0437   54.2879 H   0  0  0  0  0  0  0  0  0  0  0  0
    8.1790   48.8040   55.6200 H   0  0  0  0  0  0  0  0  0  0  0  0
    7.9408   45.6911   54.3685 H   0  0  0  0  0  0  0  0  0  0  0  0
    6.5900   46.8262   54.2742 H   0  0  0  0  0  0  0  0  0  0  0  0
    4.6246   46.8521   54.0013 H   0  0  0  0  0  0  0  0  0  0  0  0
    1.7648   42.6028   54.3076 H   0  0  0  0  0  0  0  0  0  0  0  0
   -0.3990   41.3942   54.0276 H   0  0  0  0  0  0  0  0  0  0  0  0
   -1.9042   41.9484   52.1155 H   0  0  0  0  0  0  0  0  0  0  0  0
   -1.2394   43.7062   50.4732 H   0  0  0  0  0  0  0  0  0  0  0  0
    0.9200   44.9237   50.7466 H   0  0  0  0  0  0  0  0  0  0  0  0
  1  2  1  0
  2  3  2  0
  3  4  1  0
  4  5  1  0
  5  6  1  0
  6  7  1  0
  7  8  1  0
  8  9  1  0
  9 10  1  0
  8 11  1  0
  4 12  2  0
 12 13  1  0
 13 14  2  0
 14 15  1  0
 15 16  1  0
 16 17  2  0
 17 18  1  0
 18 19  2  0
 19 20  1  0
 20 21  2  0
 15 22  1  0
 22 23  2  0
 23  2  1  0
 11  5  1  0
 22 12  1  0
 21 16  1  0
  1 24  1  0
  1 25  1  0
  1 26  1  0
  6 27  1  0
  6 28  1  0
  7 29  1  0
  7 30  1  0
  8 31  1  6
  9 32  1  0
  9 33  1  0
 10 34  1  0
 11 35  1  0
 11 36  1  0
 13 37  1  0
 17 38  1  0
 18 39  1  0
 19 40  1  0
 20 41  1  0
 21 42  1  0
M  END
>  <meeko>  (3) 
{"is_sidechain": [false], "free_energy": -8.501, "intermolecular_energy": -9.971, "internal_energy": -0.439}

$$$$
ligand_50_conformer_1_docked
     RDKit          3D

 42 45  0  0  0  0  0  0  0  0999 V2000
    5.4140   45.5420   55.6430 C   0  0  0  0  0  0  0  0  0  0  0  0
    4.3320   44.9690   54.7920 C   0  0  0  0  0  0  0  0  0  0  0  0
    3.0260   45.0510   55.2000 N   0  0  0  0  0  0  0  0  0  0  0  0
    1.9900   44.5820   54.4380 C   0  0  0  0  0  0  0  0  0  0  0  0
    0.6400   44.7070   54.9330 N   0  0  0  0  0  0  0  0  0  0  0  0
   -0.4950   44.1400   54.2200 C   0  0  0  0  0  0  0  0  0  0  0  0
   -1.7320   44.5570   55.0020 C   0  0  0  0  0  0  0  0  0  0  0  0
   -1.2170   44.9240   56.3960 C   0  0  2  0  0  0  0  0  0  0  0  0
   -2.0560   46.0080   57.0960 C   0  0  0  0  0  0  0  0  0  0  0  0
   -1.5470   47.2930   56.8490 O   0  0  0  0  0  0  0  0  0  0  0  0
    0.2500   45.3110   56.1980 C   0  0  0  0  0  0  0  0  0  0  0  0
    2.3250   44.0030   53.2030 C   0  0  0  0  0  0  0  0  0  0  0  0
    1.6220   43.4420   52.1480 C   0  0  0  0  0  0  0  0  0  0  0  0
    2.5050   43.0720   51.1880 N   0  0  0  0  0  0  0  0  0  0  0  0
    3.7320   43.3640   51.6030 N   0  0  0  0  0  0  0  0  0  0  0  0
    4.9180   43.1200   50.8240 C   0  0  0  0  0  0  0  0  0  0  0  0
    5.2500   41.8060   50.4520 C   0  0  0  0  0  0  0  0  0  0  0  0
    6.4040   41.5520   49.7030 C   0  0  0  0  0  0  0  0  0  0  0  0
    7.2430   42.6030   49.3280 C   0  0  0  0  0  0  0  0  0  0  0  0
    6.9320   43.9120   49.7060 C   0  0  0  0  0  0  0  0  0  0  0  0
    5.7790   44.1720   50.4540 C   0  0  0  0  0  0  0  0  0  0  0  0
    3.6320   43.9290   52.8210 C   0  0  0  0  0  0  0  0  0  0  0  0
    4.6400   44.4200   53.5810 N   0  0  0  0  0  0  0  0  0  0  0  0
    5.1570   45.4059   56.7039 H   0  0  0  0  0  0  0  0  0  0  0  0
    6.3619   45.0277   55.4265 H   0  0  0  0  0  0  0  0  0  0  0  0
    5.5213   46.6151   55.4265 H   0  0  0  0  0  0  0  0  0  0  0  0
   -0.5392   44.5364   53.1949 H   0  0  0  0  0  0  0  0  0  0  0  0
   -0.4167   43.0455   54.1432 H   0  0  0  0  0  0  0  0  0  0  0  0
   -2.2146   45.4243   54.5278 H   0  0  0  0  0  0  0  0  0  0  0  0
   -2.4859   43.7569   55.0384 H   0  0  0  0  0  0  0  0  0  0  0  0
   -1.3085   44.0746   57.0889 H   0  0  0  0  0  0  0  0  0  0  0  0
   -3.0898   45.9555   56.7238 H   0  0  0  0  0  0  0  0  0  0  0  0
   -2.0200   45.8254   58.1801 H   0  0  0  0  0  0  0  0  0  0  0  0
   -0.8850   47.2120   56.1140 H   0  0  0  0  0  0  0  0  0  0  0  0
    0.3569   46.4048   56.1517 H   0  0  0  0  0  0  0  0  0  0  0  0
    0.8811   44.9641   57.0295 H   0  0  0  0  0  0  0  0  0  0  0  0
    0.5302   43.3178   52.0981 H   0  0  0  0  0  0  0  0  0  0  0  0
    4.5984   40.9720   50.7517 H   0  0  0  0  0  0  0  0  0  0  0  0
    6.6510   40.5213   49.4087 H   0  0  0  0  0  0  0  0  0  0  0  0
    8.1477   42.4010   48.7358 H   0  0  0  0  0  0  0  0  0  0  0  0
    7.5954   44.7397   49.4147 H   0  0  0  0  0  0  0  0  0  0  0  0
    5.5432   45.2034   50.7550 H   0  0  0  0  0  0  0  0  0  0  0  0
  1  2  1  0
  2  3  2  0
  3  4  1  0
  4  5  1  0
  5  6  1  0
  6  7  1  0
  7  8  1  0
  8  9  1  0
  9 10  1  0
  8 11  1  0
  4 12  2  0
 12 13  1  0
 13 14  2  0
 14 15  1  0
 15 16  1  0
 16 17  2  0
 17 18  1  0
 18 19  2  0
 19 20  1  0
 20 21  2  0
 15 22  1  0
 22 23  2  0
 23  2  1  0
 11  5  1  0
 22 12  1  0
 21 16  1  0
  1 24  1  0
  1 25  1  0
  1 26  1  0
  6 27  1  0
  6 28  1  0
  7 29  1  0
  7 30  1  0
  8 31  1  1
  9 32  1  0
  9 33  1  0
 10 34  1  0
 11 35  1  0
 11 36  1  0
 13 37  1  0
 17 38  1  0
 18 39  1  0
 19 40  1  0
 20 41  1  0
 21 42  1  0
M  END
>  <meeko>  (4) 
{"is_sidechain": [false], "free_energy": -7.533, "intermolecular_energy": -9.237, "internal_energy": -0.007}

$$$$
ligand_50_conformer_1_docked
     RDKit          3D

 42 45  0  0  0  0  0  0  0  0999 V2000
    5.8900   46.7860   54.6730 C   0  0  0  0  0  0  0  0  0  0  0  0
    5.0090   45.8250   53.9500 C   0  0  0  0  0  0  0  0  0  0  0  0
    5.4860   45.1500   52.8560 N   0  0  0  0  0  0  0  0  0  0  0  0
    4.7370   44.2250   52.1820 C   0  0  0  0  0  0  0  0  0  0  0  0
    5.3100   43.5520   51.0410 N   0  0  0  0  0  0  0  0  0  0  0  0
    6.4760   44.0770   50.3460 C   0  0  0  0  0  0  0  0  0  0  0  0
    6.7140   43.1480   49.1640 C   0  0  0  0  0  0  0  0  0  0  0  0
    5.9770   41.8540   49.5210 C   0  0  2  0  0  0  0  0  0  0  0  0
    5.4520   41.0870   48.2940 C   0  0  0  0  0  0  0  0  0  0  0  0
    6.0780   41.5150   47.1120 O   0  0  0  0  0  0  0  0  0  0  0  0
    4.8810   42.2700   50.5050 C   0  0  0  0  0  0  0  0  0  0  0  0
    3.4380   43.9910   52.6630 C   0  0  0  0  0  0  0  0  0  0  0  0
    2.3870   43.1590   52.3130 C   0  0  0  0  0  0  0  0  0  0  0  0
    1.3680   43.3570   53.1850 N   0  0  0  0  0  0  0  0  0  0  0  0
    1.7320   44.2890   54.0590 N   0  0  0  0  0  0  0  0  0  0  0  0
    0.8970   44.7400   55.1410 C   0  0  0  0  0  0  0  0  0  0  0  0
   -0.5020   44.6510   55.0270 C   0  0  0  0  0  0  0  0  0  0  0  0
   -1.3270   45.0930   56.0660 C   0  0  0  0  0  0  0  0  0  0  0  0
   -0.7670   45.6380   57.2230 C   0  0  0  0  0  0  0  0  0  0  0  0
    0.6210   45.7470   57.3410 C   0  0  0  0  0  0  0  0  0  0  0  0
    1.4510   45.3050   56.3050 C   0  0  0  0  0  0  0  0  0  0  0  0
    2.9840   44.6780   53.7500 C   0  0  0  0  0  0  0  0  0  0  0  0
    3.7510   45.5730   54.4160 N   0  0  0  0  0  0  0  0  0  0  0  0
    5.7668   46.6516   55.7578 H   0  0  0  0  0  0  0  0  0  0  0  0
    6.9387   46.6008   54.3973 H   0  0  0  0  0  0  0  0  0  0  0  0
    5.6146   47.8147   54.3973 H   0  0  0  0  0  0  0  0  0  0  0  0
    6.2822   45.1010   49.9942 H   0  0  0  0  0  0  0  0  0  0  0  0
    7.3537   44.1199   51.0076 H   0  0  0  0  0  0  0  0  0  0  0  0
    6.3042   43.5841   48.2411 H   0  0  0  0  0  0  0  0  0  0  0  0
    7.7854   42.9764   48.9830 H   0  0  0  0  0  0  0  0  0  0  0  0
    6.6584   41.1221   49.9793 H   0  0  0  0  0  0  0  0  0  0  0  0
    5.6474   40.0135   48.4332 H   0  0  0  0  0  0  0  0  0  0  0  0
    4.3730   41.2804   48.2022 H   0  0  0  0  0  0  0  0  0  0  0  0
    5.4820   42.1870   46.6900 H   0  0  0  0  0  0  0  0  0  0  0  0
    3.9166   42.3731   49.9860 H   0  0  0  0  0  0  0  0  0  0  0  0
    4.7381   41.5218   51.2986 H   0  0  0  0  0  0  0  0  0  0  0  0
    2.3804   42.4548   51.4680 H   0  0  0  0  0  0  0  0  0  0  0  0
   -0.9502   44.2309   54.1145 H   0  0  0  0  0  0  0  0  0  0  0  0
   -2.4199   45.0111   55.9715 H   0  0  0  0  0  0  0  0  0  0  0  0
   -1.4178   45.9812   58.0408 H   0  0  0  0  0  0  0  0  0  0  0  0
    1.0621   46.1812   58.2503 H   0  0  0  0  0  0  0  0  0  0  0  0
    2.5427   45.3996   56.4007 H   0  0  0  0  0  0  0  0  0  0  0  0
  1  2  1  0
  2  3  2  0
  3  4  1  0
  4  5  1  0
  5  6  1  0
  6  7  1  0
  7  8  1  0
  8  9  1  0
  9 10  1  0
  8 11  1  0
  4 12  2  0
 12 13  1  0
 13 14  2  0
 14 15  1  0
 15 16  1  0
 16 17  2  0
 17 18  1  0
 18 19  2  0
 19 20  1  0
 20 21  2  0
 15 22  1  0
 22 23  2  0
 23  2  1  0
 11  5  1  0
 22 12  1  0
 21 16  1  0
  1 24  1  0
  1 25  1  0
  1 26  1  0
  6 27  1  0
  6 28  1  0
  7 29  1  0
  7 30  1  0
  8 31  1  1
  9 32  1  0
  9 33  1  0
 10 34  1  0
 11 35  1  0
 11 36  1  0
 13 37  1  0
 17 38  1  0
 18 39  1  0
 19 40  1  0
 20 41  1  0
 21 42  1  0
M  END
>  <meeko>  (5) 
{"is_sidechain": [false], "free_energy": -7.488, "intermolecular_energy": -9.332, "internal_energy": 0.142}

$$$$
