ligand_44_conformer_4_docked
     RDKit          3D

 47 50  0  0  0  0  0  0  0  0999 V2000
    9.9280   47.4820   54.8260 C   0  0  0  0  0  0  0  0  0  0  0  0
    8.8540   48.3000   54.3810 O   0  0  0  0  0  0  0  0  0  0  0  0
    8.2110   48.0950   53.1570 C   0  0  0  0  0  0  0  0  0  0  0  0
    7.9200   49.0720   52.4120 O   0  0  0  0  0  0  0  0  0  0  0  0
    7.9090   46.6930   52.7080 C   0  0  2  0  0  0  0  0  0  0  0  0
    8.4840   46.4630   51.2860 C   0  0  0  0  0  0  0  0  0  0  0  0
    7.8000   45.3070   50.6040 C   0  0  0  0  0  0  0  0  0  0  0  0
    8.5140   44.3830   49.8290 C   0  0  0  0  0  0  0  0  0  0  0  0
    7.8380   43.3440   49.1810 C   0  0  0  0  0  0  0  0  0  0  0  0
    6.4480   43.2320   49.2930 C   0  0  0  0  0  0  0  0  0  0  0  0
    5.7290   44.1600   50.0520 C   0  0  0  0  0  0  0  0  0  0  0  0
    6.4040   45.2000   50.7080 C   0  0  0  0  0  0  0  0  0  0  0  0
    5.6830   46.2040   51.5550 C   0  0  0  0  0  0  0  0  0  0  0  0
    6.4540   46.4210   52.7930 N   0  0  0  0  0  0  0  0  0  0  0  0
    5.8500   46.2440   54.0970 C   0  0  0  0  0  0  0  0  0  0  0  0
    6.5450   45.8050   55.0550 O   0  0  0  0  0  0  0  0  0  0  0  0
    4.4070   46.5950   54.3480 C   0  0  2  0  0  0  0  0  0  0  0  0
    3.6900   45.7720   55.4200 C   0  0  0  0  0  0  0  0  0  0  0  0
    3.3710   45.5390   53.9420 C   0  0  0  0  0  0  0  0  0  0  0  0
    2.0220   46.0840   53.4500 C   0  0  0  0  0  0  0  0  0  0  0  0
    0.9630   44.9610   53.3470 C   0  0  0  0  0  0  0  0  0  0  0  0
    1.4780   43.6620   53.6030 O   0  0  0  0  0  0  0  0  0  0  0  0
    2.6210   43.4230   52.8040 C   0  0  0  0  0  0  0  0  0  0  0  0
    3.8270   44.1770   53.3740 C   0  0  0  0  0  0  0  0  0  0  0  0
    9.9468   47.4677   55.9257 H   0  0  0  0  0  0  0  0  0  0  0  0
    9.7900   46.4581   54.4483 H   0  0  0  0  0  0  0  0  0  0  0  0
   10.8784   47.8871   54.4483 H   0  0  0  0  0  0  0  0  0  0  0  0
    8.3996   45.9730   53.3795 H   0  0  0  0  0  0  0  0  0  0  0  0
    8.3344   47.3731   50.6866 H   0  0  0  0  0  0  0  0  0  0  0  0
    9.5554   46.2307   51.3761 H   0  0  0  0  0  0  0  0  0  0  0  0
    9.6057   44.4749   49.7304 H   0  0  0  0  0  0  0  0  0  0  0  0
    8.4007   42.6131   48.5818 H   0  0  0  0  0  0  0  0  0  0  0  0
    5.9201   42.4126   48.7831 H   0  0  0  0  0  0  0  0  0  0  0  0
    4.6354   44.0748   50.1347 H   0  0  0  0  0  0  0  0  0  0  0  0
    5.5903   47.1526   51.0059 H   0  0  0  0  0  0  0  0  0  0  0  0
    4.6772   45.8327   51.8009 H   0  0  0  0  0  0  0  0  0  0  0  0
    4.5437   47.6683   54.1499 H   0  0  0  0  0  0  0  0  0  0  0  0
    4.2430   45.0105   55.9895 H   0  0  0  0  0  0  0  0  0  0  0  0
    3.0961   46.0107   56.3146 H   0  0  0  0  0  0  0  0  0  0  0  0
    1.6657   46.8482   54.1564 H   0  0  0  0  0  0  0  0  0  0  0  0
    2.1675   46.5154   52.4487 H   0  0  0  0  0  0  0  0  0  0  0  0
    0.1659   45.1680   54.0763 H   0  0  0  0  0  0  0  0  0  0  0  0
    0.5955   44.9613   52.3102 H   0  0  0  0  0  0  0  0  0  0  0  0
    2.8381   42.3447   52.7923 H   0  0  0  0  0  0  0  0  0  0  0  0
    2.4258   43.7759   51.7806 H   0  0  0  0  0  0  0  0  0  0  0  0
    4.2842   43.5808   54.1774 H   0  0  0  0  0  0  0  0  0  0  0  0
    4.5622   44.3450   52.5732 H   0  0  0  0  0  0  0  0  0  0  0  0
  1  2  1  0
  2  3  1  0
  3  4  2  0
  3  5  1  0
  5  6  1  0
  6  7  1  0
  7  8  2  0
  8  9  1  0
  9 10  2  0
 10 11  1  0
 11 12  2  0
 12 13  1  0
 13 14  1  0
 14 15  1  0
 15 16  2  0
 15 17  1  0
 17 18  1  0
 18 19  1  0
 19 20  1  0
 20 21  1  0
 21 22  1  0
 22 23  1  0
 23 24  1  0
 14  5  1  0
 19 17  1  0
 12  7  1  0
 24 19  1  0
  1 25  1  0
  1 26  1  0
  1 27  1  0
  5 28  1  1
  6 29  1  0
  6 30  1  0
  8 31  1  0
  9 32  1  0
 10 33  1  0
 11 34  1  0
 13 35  1  0
 13 36  1  0
 17 37  1  1
 18 38  1  0
 18 39  1  0
 20 40  1  0
 20 41  1  0
 21 42  1  0
 21 43  1  0
 23 44  1  0
 23 45  1  0
 24 46  1  0
 24 47  1  0
M  END
>  <meeko>  (1) 
{"is_sidechain": [false], "free_energy": -9.321, "intermolecular_energy": -11.5, "internal_energy": -0.716}

$$$$
ligand_44_conformer_4_docked
     RDKit          3D

 47 50  0  0  0  0  0  0  0  0999 V2000
    3.2610   45.7790   55.3320 C   0  0  0  0  0  0  0  0  0  0  0  0
    2.8410   46.2850   54.0720 O   0  0  0  0  0  0  0  0  0  0  0  0
    3.7330   46.5250   53.0230 C   0  0  0  0  0  0  0  0  0  0  0  0
    3.3680   47.1770   52.0050 O   0  0  0  0  0  0  0  0  0  0  0  0
    5.1520   46.0420   53.1370 C   0  0  2  0  0  0  0  0  0  0  0  0
    6.0560   47.1880   53.6580 C   0  0  0  0  0  0  0  0  0  0  0  0
    7.5010   46.9390   53.3180 C   0  0  0  0  0  0  0  0  0  0  0  0
    8.5310   47.2180   54.2280 C   0  0  0  0  0  0  0  0  0  0  0  0
    9.8640   47.0070   53.8620 C   0  0  0  0  0  0  0  0  0  0  0  0
   10.1750   46.5300   52.5840 C   0  0  0  0  0  0  0  0  0  0  0  0
    9.1530   46.2650   51.6670 C   0  0  0  0  0  0  0  0  0  0  0  0
    7.8150   46.4700   52.0320 C   0  0  0  0  0  0  0  0  0  0  0  0
    6.6820   46.1750   51.0970 C   0  0  0  0  0  0  0  0  0  0  0  0
    5.6170   45.4830   51.8440 N   0  0  0  0  0  0  0  0  0  0  0  0
    5.1050   44.2000   51.4120 C   0  0  0  0  0  0  0  0  0  0  0  0
    5.3160   43.8070   50.2320 O   0  0  0  0  0  0  0  0  0  0  0  0
    4.3410   43.3020   52.3510 C   0  0  2  0  0  0  0  0  0  0  0  0
    3.7140   42.0530   51.7280 C   0  0  0  0  0  0  0  0  0  0  0  0
    2.8240   43.2290   52.1350 C   0  0  0  0  0  0  0  0  0  0  0  0
    1.9810   43.0290   53.4040 C   0  0  0  0  0  0  0  0  0  0  0  0
    0.5150   42.6780   53.0550 C   0  0  0  0  0  0  0  0  0  0  0  0
    0.2240   42.7370   51.6670 O   0  0  0  0  0  0  0  0  0  0  0  0
    0.6410   43.9780   51.1320 C   0  0  0  0  0  0  0  0  0  0  0  0
    2.1640   43.9950   50.9680 C   0  0  0  0  0  0  0  0  0  0  0  0
    2.7821   46.3559   56.1369 H   0  0  0  0  0  0  0  0  0  0  0  0
    2.9719   44.7211   55.4171 H   0  0  0  0  0  0  0  0  0  0  0  0
    4.3541   45.8684   55.4171 H   0  0  0  0  0  0  0  0  0  0  0  0
    5.2085   45.2230   53.8691 H   0  0  0  0  0  0  0  0  0  0  0  0
    5.7369   48.1344   53.1971 H   0  0  0  0  0  0  0  0  0  0  0  0
    5.9593   47.2376   54.7526 H   0  0  0  0  0  0  0  0  0  0  0  0
    8.2902   47.6029   55.2299 H   0  0  0  0  0  0  0  0  0  0  0  0
   10.6700   47.2165   54.5806 H   0  0  0  0  0  0  0  0  0  0  0  0
   11.2246   46.3632   52.3002 H   0  0  0  0  0  0  0  0  0  0  0  0
    9.3987   45.8961   50.6603 H   0  0  0  0  0  0  0  0  0  0  0  0
    6.2910   47.1156   50.6818 H   0  0  0  0  0  0  0  0  0  0  0  0
    7.0344   45.5378   50.2725 H   0  0  0  0  0  0  0  0  0  0  0  0
    4.9967   43.4991   53.2119 H   0  0  0  0  0  0  0  0  0  0  0  0
    3.8763   41.8294   50.6633 H   0  0  0  0  0  0  0  0  0  0  0  0
    3.7330   40.9774   51.9575 H   0  0  0  0  0  0  0  0  0  0  0  0
    2.4143   42.2099   53.9967 H   0  0  0  0  0  0  0  0  0  0  0  0
    1.9865   43.9684   53.9763 H   0  0  0  0  0  0  0  0  0  0  0  0
    0.3098   41.6568   53.4087 H   0  0  0  0  0  0  0  0  0  0  0  0
   -0.1191   43.4307   53.5463 H   0  0  0  0  0  0  0  0  0  0  0  0
    0.1676   44.1287   50.1506 H   0  0  0  0  0  0  0  0  0  0  0  0
    0.3436   44.7844   51.8185 H   0  0  0  0  0  0  0  0  0  0  0  0
    2.4343   43.5142   50.0163 H   0  0  0  0  0  0  0  0  0  0  0  0
    2.5181   45.0364   50.9706 H   0  0  0  0  0  0  0  0  0  0  0  0
  1  2  1  0
  2  3  1  0
  3  4  2  0
  3  5  1  0
  5  6  1  0
  6  7  1  0
  7  8  2  0
  8  9  1  0
  9 10  2  0
 10 11  1  0
 11 12  2  0
 12 13  1  0
 13 14  1  0
 14 15  1  0
 15 16  2  0
 15 17  1  0
 17 18  1  0
 18 19  1  0
 19 20  1  0
 20 21  1  0
 21 22  1  0
 22 23  1  0
 23 24  1  0
 14  5  1  0
 19 17  1  0
 12  7  1  0
 24 19  1  0
  1 25  1  0
  1 26  1  0
  1 27  1  0
  5 28  1  1
  6 29  1  0
  6 30  1  0
  8 31  1  0
  9 32  1  0
 10 33  1  0
 11 34  1  0
 13 35  1  0
 13 36  1  0
 17 37  1  1
 18 38  1  0
 18 39  1  0
 20 40  1  0
 20 41  1  0
 21 42  1  0
 21 43  1  0
 23 44  1  0
 23 45  1  0
 24 46  1  0
 24 47  1  0
M  END
>  <meeko>  (2) 
{"is_sidechain": [false], "free_energy": -8.795, "intermolecular_energy": -11.017, "internal_energy": -0.551}

$$$$
ligand_44_conformer_4_docked
     RDKit          3D

 47 50  0  0  0  0  0  0  0  0999 V2000
    2.4870   45.4060   55.1710 C   0  0  0  0  0  0  0  0  0  0  0  0
    3.6580   46.0560   55.6490 O   0  0  0  0  0  0  0  0  0  0  0  0
    4.4310   46.8990   54.8460 C   0  0  0  0  0  0  0  0  0  0  0  0
    4.2140   48.1430   54.8240 O   0  0  0  0  0  0  0  0  0  0  0  0
    5.5590   46.3190   54.0410 C   0  0  2  0  0  0  0  0  0  0  0  0
    6.9160   46.7840   54.6290 C   0  0  0  0  0  0  0  0  0  0  0  0
    8.0190   46.6680   53.6100 C   0  0  0  0  0  0  0  0  0  0  0  0
    9.2980   46.2090   53.9590 C   0  0  0  0  0  0  0  0  0  0  0  0
   10.3060   46.1500   52.9910 C   0  0  0  0  0  0  0  0  0  0  0  0
   10.0470   46.5600   51.6790 C   0  0  0  0  0  0  0  0  0  0  0  0
    8.7790   47.0340   51.3310 C   0  0  0  0  0  0  0  0  0  0  0  0
    7.7640   47.0900   52.2960 C   0  0  0  0  0  0  0  0  0  0  0  0
    6.3800   47.5630   51.9670 C   0  0  0  0  0  0  0  0  0  0  0  0
    5.4050   46.6610   52.6060 N   0  0  0  0  0  0  0  0  0  0  0  0
    4.3770   45.9960   51.8350 C   0  0  0  0  0  0  0  0  0  0  0  0
    3.6800   46.6580   51.0170 O   0  0  0  0  0  0  0  0  0  0  0  0
    4.1290   44.5160   51.9670 C   0  0  2  0  0  0  0  0  0  0  0  0
    5.2260   43.7080   52.6630 C   0  0  0  0  0  0  0  0  0  0  0  0
    5.0460   43.5990   51.1470 C   0  0  0  0  0  0  0  0  0  0  0  0
    4.4050   42.3000   50.6370 C   0  0  0  0  0  0  0  0  0  0  0  0
    5.4710   41.3240   50.0850 C   0  0  0  0  0  0  0  0  0  0  0  0
    6.7820   41.8680   50.0470 O   0  0  0  0  0  0  0  0  0  0  0  0
    6.7750   43.1170   49.3830 C   0  0  0  0  0  0  0  0  0  0  0  0
    6.1910   44.1970   50.3000 C   0  0  0  0  0  0  0  0  0  0  0  0
    1.8803   45.0692   56.0245 H   0  0  0  0  0  0  0  0  0  0  0  0
    1.9016   46.1083   54.5594 H   0  0  0  0  0  0  0  0  0  0  0  0
    2.7734   44.5377   54.5594 H   0  0  0  0  0  0  0  0  0  0  0  0
    5.5343   45.2211   54.1037 H   0  0  0  0  0  0  0  0  0  0  0  0
    6.8290   47.8338   54.9458 H   0  0  0  0  0  0  0  0  0  0  0  0
    7.1637   46.1399   55.4856 H   0  0  0  0  0  0  0  0  0  0  0  0
    9.5078   45.8960   54.9924 H   0  0  0  0  0  0  0  0  0  0  0  0
   11.3057   45.7799   53.2624 H   0  0  0  0  0  0  0  0  0  0  0  0
   10.8420   46.5093   50.9204 H   0  0  0  0  0  0  0  0  0  0  0  0
    8.5778   47.3628   50.3007 H   0  0  0  0  0  0  0  0  0  0  0  0
    6.2396   48.5865   52.3448 H   0  0  0  0  0  0  0  0  0  0  0  0
    6.2333   47.5597   50.8768 H   0  0  0  0  0  0  0  0  0  0  0  0
    3.0410   44.6214   52.0899 H   0  0  0  0  0  0  0  0  0  0  0  0
    6.1074   44.2202   53.0763 H   0  0  0  0  0  0  0  0  0  0  0  0
    5.2520   42.9898   53.4958 H   0  0  0  0  0  0  0  0  0  0  0  0
    3.8707   41.8145   51.4670 H   0  0  0  0  0  0  0  0  0  0  0  0
    3.7114   42.5529   49.8215 H   0  0  0  0  0  0  0  0  0  0  0  0
    5.4855   40.4288   50.7241 H   0  0  0  0  0  0  0  0  0  0  0  0
    5.1889   41.0958   49.0466 H   0  0  0  0  0  0  0  0  0  0  0  0
    7.8050   43.3896   49.1097 H   0  0  0  0  0  0  0  0  0  0  0  0
    6.1556   43.0400   48.4772 H   0  0  0  0  0  0  0  0  0  0  0  0
    6.9796   44.5757   50.9669 H   0  0  0  0  0  0  0  0  0  0  0  0
    5.7977   45.0212   49.6868 H   0  0  0  0  0  0  0  0  0  0  0  0
  1  2  1  0
  2  3  1  0
  3  4  2  0
  3  5  1  0
  5  6  1  0
  6  7  1  0
  7  8  2  0
  8  9  1  0
  9 10  2  0
 10 11  1  0
 11 12  2  0
 12 13  1  0
 13 14  1  0
 14 15  1  0
 15 16  2  0
 15 17  1  0
 17 18  1  0
 18 19  1  0
 19 20  1  0
 20 21  1  0
 21 22  1  0
 22 23  1  0
 23 24  1  0
 14  5  1  0
 19 17  1  0
 12  7  1  0
 24 19  1  0
  1 25  1  0
  1 26  1  0
  1 27  1  0
  5 28  1  6
  6 29  1  0
  6 30  1  0
  8 31  1  0
  9 32  1  0
 10 33  1  0
 11 34  1  0
 13 35  1  0
 13 36  1  0
 17 37  1  1
 18 38  1  0
 18 39  1  0
 20 40  1  0
 20 41  1  0
 21 42  1  0
 21 43  1  0
 23 44  1  0
 23 45  1  0
 24 46  1  0
 24 47  1  0
M  END
>  <meeko>  (3) 
{"is_sidechain": [false], "free_energy": -8.449, "intermolecular_energy": -10.288, "internal_energy": -0.853}

$$$$
ligand_44_conformer_4_docked
     RDKit          3D

 47 50  0  0  0  0  0  0  0  0999 V2000
    3.7890   42.9500   52.0460 C   0  0  0  0  0  0  0  0  0  0  0  0
    4.3220   43.8220   51.0580 O   0  0  0  0  0  0  0  0  0  0  0  0
    4.0960   45.2020   51.0730 C   0  0  0  0  0  0  0  0  0  0  0  0
    3.0000   45.6780   50.6630 O   0  0  0  0  0  0  0  0  0  0  0  0
    5.1520   46.1160   51.6270 C   0  0  2  0  0  0  0  0  0  0  0  0
    6.5440   45.6970   51.0860 C   0  0  0  0  0  0  0  0  0  0  0  0
    7.6480   46.2200   51.9660 C   0  0  0  0  0  0  0  0  0  0  0  0
    8.8350   46.7380   51.4280 C   0  0  0  0  0  0  0  0  0  0  0  0
    9.8540   47.1800   52.2790 C   0  0  0  0  0  0  0  0  0  0  0  0
    9.6970   47.0950   53.6660 C   0  0  0  0  0  0  0  0  0  0  0  0
    8.5220   46.5650   54.2080 C   0  0  0  0  0  0  0  0  0  0  0  0
    7.4970   46.1260   53.3590 C   0  0  0  0  0  0  0  0  0  0  0  0
    6.2070   45.5750   53.8890 C   0  0  0  0  0  0  0  0  0  0  0  0
    5.0930   46.1420   53.1080 N   0  0  0  0  0  0  0  0  0  0  0  0
    4.0020   46.8430   53.7520 C   0  0  0  0  0  0  0  0  0  0  0  0
    3.5280   47.8860   53.2240 O   0  0  0  0  0  0  0  0  0  0  0  0
    3.3970   46.3410   55.0380 C   0  0  2  0  0  0  0  0  0  0  0  0
    3.3150   44.8220   55.1970 C   0  0  0  0  0  0  0  0  0  0  0  0
    2.0440   45.6280   54.9190 C   0  0  0  0  0  0  0  0  0  0  0  0
    1.0880   45.8110   56.1070 C   0  0  0  0  0  0  0  0  0  0  0  0
   -0.1060   44.8310   56.0240 C   0  0  0  0  0  0  0  0  0  0  0  0
   -0.1410   44.0670   54.8280 O   0  0  0  0  0  0  0  0  0  0  0  0
   -0.0410   44.9170   53.7020 C   0  0  0  0  0  0  0  0  0  0  0  0
    1.4050   45.3970   53.5320 C   0  0  0  0  0  0  0  0  0  0  0  0
    4.0275   43.3401   53.0465 H   0  0  0  0  0  0  0  0  0  0  0  0
    2.6972   42.8860   51.9280 H   0  0  0  0  0  0  0  0  0  0  0  0
    4.2299   41.9491   51.9280 H   0  0  0  0  0  0  0  0  0  0  0  0
    4.9667   47.1466   51.2900 H   0  0  0  0  0  0  0  0  0  0  0  0
    6.6008   44.5990   51.0528 H   0  0  0  0  0  0  0  0  0  0  0  0
    6.6695   46.1215   50.0790 H   0  0  0  0  0  0  0  0  0  0  0  0
    8.9649   46.7968   50.3373 H   0  0  0  0  0  0  0  0  0  0  0  0
   10.7806   47.5953   51.8560 H   0  0  0  0  0  0  0  0  0  0  0  0
   10.4993   47.4457   54.3318 H   0  0  0  0  0  0  0  0  0  0  0  0
    8.4024   46.4927   55.2991 H   0  0  0  0  0  0  0  0  0  0  0  0
    6.2058   44.4792   53.7933 H   0  0  0  0  0  0  0  0  0  0  0  0
    6.0940   45.8419   54.9501 H   0  0  0  0  0  0  0  0  0  0  0  0
    3.7901   47.1688   55.6464 H   0  0  0  0  0  0  0  0  0  0  0  0
    3.7302   44.1648   54.4187 H   0  0  0  0  0  0  0  0  0  0  0  0
    3.6259   44.1040   55.9701 H   0  0  0  0  0  0  0  0  0  0  0  0
    1.6384   45.6269   57.0414 H   0  0  0  0  0  0  0  0  0  0  0  0
    0.6961   46.8385   56.0821 H   0  0  0  0  0  0  0  0  0  0  0  0
   -0.0451   44.1380   56.8760 H   0  0  0  0  0  0  0  0  0  0  0  0
   -1.0213   45.4408   56.0402 H   0  0  0  0  0  0  0  0  0  0  0  0
   -0.3498   44.3660   52.8014 H   0  0  0  0  0  0  0  0  0  0  0  0
   -0.6951   45.7890   53.8495 H   0  0  0  0  0  0  0  0  0  0  0  0
    1.9812   44.6353   52.9864 H   0  0  0  0  0  0  0  0  0  0  0  0
    1.4112   46.3406   52.9667 H   0  0  0  0  0  0  0  0  0  0  0  0
  1  2  1  0
  2  3  1  0
  3  4  2  0
  3  5  1  0
  5  6  1  0
  6  7  1  0
  7  8  2  0
  8  9  1  0
  9 10  2  0
 10 11  1  0
 11 12  2  0
 12 13  1  0
 13 14  1  0
 14 15  1  0
 15 16  2  0
 15 17  1  0
 17 18  1  0
 18 19  1  0
 19 20  1  0
 20 21  1  0
 21 22  1  0
 22 23  1  0
 23 24  1  0
 14  5  1  0
 19 17  1  0
 12  7  1  0
 24 19  1  0
  1 25  1  0
  1 26  1  0
  1 27  1  0
  5 28  1  6
  6 29  1  0
  6 30  1  0
  8 31  1  0
  9 32  1  0
 10 33  1  0
 11 34  1  0
 13 35  1  0
 13 36  1  0
 17 37  1  1
 18 38  1  0
 18 39  1  0
 20 40  1  0
 20 41  1  0
 21 42  1  0
 21 43  1  0
 23 44  1  0
 23 45  1  0
 24 46  1  0
 24 47  1  0
M  END
>  <meeko>  (4) 
{"is_sidechain": [false], "free_energy": -8.188, "intermolecular_energy": -10.313, "internal_energy": -0.505}

$$$$
ligand_44_conformer_4_docked
     RDKit          3D

 47 50  0  0  0  0  0  0  0  0999 V2000
    8.2250   47.4580   53.1470 C   0  0  0  0  0  0  0  0  0  0  0  0
    7.0550   47.6000   52.3530 O   0  0  0  0  0  0  0  0  0  0  0  0
    5.8480   46.9710   52.6730 C   0  0  0  0  0  0  0  0  0  0  0  0
    4.8490   47.6470   53.0460 O   0  0  0  0  0  0  0  0  0  0  0  0
    5.7320   45.4800   52.5230 C   0  0  2  0  0  0  0  0  0  0  0  0
    6.2950   45.0470   51.1450 C   0  0  0  0  0  0  0  0  0  0  0  0
    5.7610   43.6990   50.7380 C   0  0  0  0  0  0  0  0  0  0  0  0
    6.5760   42.7400   50.1200 C   0  0  0  0  0  0  0  0  0  0  0  0
    6.0340   41.5130   49.7240 C   0  0  0  0  0  0  0  0  0  0  0  0
    4.6760   41.2450   49.9300 C   0  0  0  0  0  0  0  0  0  0  0  0
    3.8550   42.2040   50.5300 C   0  0  0  0  0  0  0  0  0  0  0  0
    4.3960   43.4330   50.9340 C   0  0  0  0  0  0  0  0  0  0  0  0
    3.5660   44.4840   51.6080 C   0  0  0  0  0  0  0  0  0  0  0  0
    4.3310   45.0430   52.7370 N   0  0  0  0  0  0  0  0  0  0  0  0
    3.7930   45.0520   54.0800 C   0  0  0  0  0  0  0  0  0  0  0  0
    4.5130   44.6810   55.0470 O   0  0  0  0  0  0  0  0  0  0  0  0
    2.3880   45.5210   54.3600 C   0  0  2  0  0  0  0  0  0  0  0  0
    1.6990   44.9000   55.5760 C   0  0  0  0  0  0  0  0  0  0  0  0
    1.2750   44.4840   54.1660 C   0  0  0  0  0  0  0  0  0  0  0  0
   -0.0720   45.0370   53.6780 C   0  0  0  0  0  0  0  0  0  0  0  0
   -1.1920   43.9750   53.7950 C   0  0  0  0  0  0  0  0  0  0  0  0
   -0.7310   42.6960   54.2030 O   0  0  0  0  0  0  0  0  0  0  0  0
    0.3450   42.2800   53.3830 C   0  0  0  0  0  0  0  0  0  0  0  0
    1.6230   43.0320   53.7720 C   0  0  0  0  0  0  0  0  0  0  0  0
    7.9517   47.4912   54.2120 H   0  0  0  0  0  0  0  0  0  0  0  0
    8.7063   46.4949   52.9218 H   0  0  0  0  0  0  0  0  0  0  0  0
    8.9227   48.2781   52.9218 H   0  0  0  0  0  0  0  0  0  0  0  0
    6.3355   44.9797   53.2946 H   0  0  0  0  0  0  0  0  0  0  0  0
    6.0047   45.7912   50.3888 H   0  0  0  0  0  0  0  0  0  0  0  0
    7.3902   44.9792   51.2218 H   0  0  0  0  0  0  0  0  0  0  0  0
    7.6413   42.9526   49.9467 H   0  0  0  0  0  0  0  0  0  0  0  0
    6.6767   40.7568   49.2495 H   0  0  0  0  0  0  0  0  0  0  0  0
    4.2539   40.2779   49.6192 H   0  0  0  0  0  0  0  0  0  0  0  0
    2.7862   41.9950   50.6850 H   0  0  0  0  0  0  0  0  0  0  0  0
    3.3284   45.2834   50.8908 H   0  0  0  0  0  0  0  0  0  0  0  0
    2.6286   44.0408   51.9752 H   0  0  0  0  0  0  0  0  0  0  0  0
    2.5677   46.5464   54.0047 H   0  0  0  0  0  0  0  0  0  0  0  0
    2.2466   44.1928   56.2163 H   0  0  0  0  0  0  0  0  0  0  0  0
    1.1765   45.2961   56.4592 H   0  0  0  0  0  0  0  0  0  0  0  0
   -0.3424   45.9115   54.2880 H   0  0  0  0  0  0  0  0  0  0  0  0
    0.0310   45.3175   52.6194 H   0  0  0  0  0  0  0  0  0  0  0  0
   -1.9291   44.3285   54.5310 H   0  0  0  0  0  0  0  0  0  0  0  0
   -1.6233   43.8536   52.7904 H   0  0  0  0  0  0  0  0  0  0  0  0
    0.5047   41.1994   53.5123 H   0  0  0  0  0  0  0  0  0  0  0  0
    0.1034   42.4987   52.3324 H   0  0  0  0  0  0  0  0  0  0  0  0
    2.0993   42.5262   54.6248 H   0  0  0  0  0  0  0  0  0  0  0  0
    2.3133   43.0431   52.9156 H   0  0  0  0  0  0  0  0  0  0  0  0
  1  2  1  0
  2  3  1  0
  3  4  2  0
  3  5  1  0
  5  6  1  0
  6  7  1  0
  7  8  2  0
  8  9  1  0
  9 10  2  0
 10 11  1  0
 11 12  2  0
 12 13  1  0
 13 14  1  0
 14 15  1  0
 15 16  2  0
 15 17  1  0
 17 18  1  0
 18 19  1  0
 19 20  1  0
 20 21  1  0
 21 22  1  0
 22 23  1  0
 23 24  1  0
 14  5  1  0
 19 17  1  0
 12  7  1  0
 24 19  1  0
  1 25  1  0
  1 26  1  0
  1 27  1  0
  5 28  1  1
  6 29  1  0
  6 30  1  0
  8 31  1  0
  9 32  1  0
 10 33  1  0
 11 34  1  0
 13 35  1  0
 13 36  1  0
 17 37  1  6
 18 38  1  0
 18 39  1  0
 20 40  1  0
 20 41  1  0
 21 42  1  0
 21 43  1  0
 23 44  1  0
 23 45  1  0
 24 46  1  0
 24 47  1  0
M  END
>  <meeko>  (5) 
{"is_sidechain": [false], "free_energy": -7.674, "intermolecular_energy": -9.926, "internal_energy": -0.258}

$$$$
