ligand_33_conformer_5_docked
     RDKit          3D

 52 55  0  0  0  0  0  0  0  0999 V2000
    6.3210   47.5480   52.8920 C   0  0  0  0  0  0  0  0  0  0  0  0
    7.7550   47.4390   52.3360 C   0  0  1  0  0  0  0  0  0  0  0  0
    8.7600   47.7720   53.4820 C   0  0  0  0  0  0  0  0  0  0  0  0
    9.8360   46.6960   53.6490 C   0  0  0  0  0  0  0  0  0  0  0  0
   10.4760   46.3840   52.3020 C   0  0  0  0  0  0  0  0  0  0  0  0
    9.4220   46.0370   51.2300 C   0  0  0  0  0  0  0  0  0  0  0  0
    8.0320   46.0960   51.7470 N   0  0  0  0  0  0  0  0  0  0  0  0
    7.0860   45.7180   50.6620 C   0  0  0  0  0  0  0  0  0  0  0  0
    6.4180   44.3650   50.9600 C   0  0  0  0  0  0  0  0  0  0  0  0
    4.9720   44.5000   51.4910 C   0  0  0  0  0  0  0  0  0  0  0  0
    4.2440   43.1280   51.5540 C   0  0  0  0  0  0  0  0  0  0  0  0
    2.7280   43.2340   51.3150 C   0  0  0  0  0  0  0  0  0  0  0  0
    2.2210   44.5200   51.8110 N   0  0  0  0  0  0  0  0  0  0  0  0
    1.3880   44.5580   52.9880 C   0  0  0  0  0  0  0  0  0  0  0  0
    0.0730   44.1830   52.9110 N   0  0  0  0  0  0  0  0  0  0  0  0
   -0.7550   44.2080   54.0030 C   0  0  0  0  0  0  0  0  0  0  0  0
   -0.2870   44.6210   55.2160 N   0  0  0  0  0  0  0  0  0  0  0  0
    1.0110   44.9910   55.3060 C   0  0  0  0  0  0  0  0  0  0  0  0
    1.6380   45.4590   56.3940 N   0  0  0  0  0  0  0  0  0  0  0  0
    2.8870   45.7520   56.0500 N   0  0  0  0  0  0  0  0  0  0  0  0
    3.0490   45.4690   54.7330 C   0  0  0  0  0  0  0  0  0  0  0  0
    1.8540   44.9750   54.2410 C   0  0  0  0  0  0  0  0  0  0  0  0
    2.7880   45.7540   51.2420 C   0  0  0  0  0  0  0  0  0  0  0  0
    4.1790   45.5050   50.6310 C   0  0  0  0  0  0  0  0  0  0  0  0
    6.3529   47.5456   53.9915 H   0  0  0  0  0  0  0  0  0  0  0  0
    5.8616   48.4837   52.5406 H   0  0  0  0  0  0  0  0  0  0  0  0
    5.7255   46.6925   52.5406 H   0  0  0  0  0  0  0  0  0  0  0  0
    7.8726   48.1611   51.5146 H   0  0  0  0  0  0  0  0  0  0  0  0
    9.2510   48.7294   53.2535 H   0  0  0  0  0  0  0  0  0  0  0  0
    8.1904   47.8238   54.4216 H   0  0  0  0  0  0  0  0  0  0  0  0
   10.6081   47.0580   54.3438 H   0  0  0  0  0  0  0  0  0  0  0  0
    9.3728   45.7818   54.0486 H   0  0  0  0  0  0  0  0  0  0  0  0
   11.0471   47.2627   51.9677 H   0  0  0  0  0  0  0  0  0  0  0  0
   11.1315   45.5100   52.4306 H   0  0  0  0  0  0  0  0  0  0  0  0
    9.5181   46.7513   50.3990 H   0  0  0  0  0  0  0  0  0  0  0  0
    9.6098   45.0031   50.9046 H   0  0  0  0  0  0  0  0  0  0  0  0
    6.3089   46.4918   50.5765 H   0  0  0  0  0  0  0  0  0  0  0  0
    7.6487   45.6314   49.7208 H   0  0  0  0  0  0  0  0  0  0  0  0
    6.3954   43.7750   50.0319 H   0  0  0  0  0  0  0  0  0  0  0  0
    7.0099   43.8762   51.7479 H   0  0  0  0  0  0  0  0  0  0  0  0
    5.0288   44.8811   52.5213 H   0  0  0  0  0  0  0  0  0  0  0  0
    4.6737   42.4688   50.7854 H   0  0  0  0  0  0  0  0  0  0  0  0
    4.3875   42.7285   52.5688 H   0  0  0  0  0  0  0  0  0  0  0  0
    2.5245   43.1555   50.2368 H   0  0  0  0  0  0  0  0  0  0  0  0
    2.2235   42.4190   51.8547 H   0  0  0  0  0  0  0  0  0  0  0  0
   -1.8039   43.8929   53.9006 H   0  0  0  0  0  0  0  0  0  0  0  0
    1.2340   45.5950   57.3440 H   0  0  0  0  0  0  0  0  0  0  0  0
    3.9740   45.6087   54.1543 H   0  0  0  0  0  0  0  0  0  0  0  0
    2.1144   46.1283   50.4571 H   0  0  0  0  0  0  0  0  0  0  0  0
    2.8930   46.4914   52.0515 H   0  0  0  0  0  0  0  0  0  0  0  0
    4.0614   45.0992   49.6154 H   0  0  0  0  0  0  0  0  0  0  0  0
    4.7291   46.4569   50.5964 H   0  0  0  0  0  0  0  0  0  0  0  0
  1  2  1  0
  2  3  1  0
  3  4  1  0
  4  5  1  0
  5  6  1  0
  6  7  1  0
  7  8  1  0
  8  9  1  0
  9 10  1  0
 10 11  1  0
 11 12  1  0
 12 13  1  0
 13 14  1  0
 14 15  2  0
 15 16  1  0
 16 17  2  0
 17 18  1  0
 18 19  1  0
 19 20  1  0
 20 21  2  0
 21 22  1  0
 13 23  1  0
 23 24  1  0
  7  2  1  0
 24 10  1  0
 22 14  1  0
 22 18  2  0
  1 25  1  0
  1 26  1  0
  1 27  1  0
  2 28  1  6
  3 29  1  0
  3 30  1  0
  4 31  1  0
  4 32  1  0
  5 33  1  0
  5 34  1  0
  6 35  1  0
  6 36  1  0
  8 37  1  0
  8 38  1  0
  9 39  1  0
  9 40  1  0
 10 41  1  0
 11 42  1  0
 11 43  1  0
 12 44  1  0
 12 45  1  0
 16 46  1  0
 19 47  1  0
 21 48  1  0
 23 49  1  0
 23 50  1  0
 24 51  1  0
 24 52  1  0
M  END
>  <meeko>  (1) 
{"is_sidechain": [false], "free_energy": -8.545, "intermolecular_energy": -10.543, "internal_energy": -0.981}

$$$$
ligand_33_conformer_5_docked
     RDKit          3D

 52 55  0  0  0  0  0  0  0  0999 V2000
    6.1540   47.5280   53.1070 C   0  0  0  0  0  0  0  0  0  0  0  0
    7.5220   47.4110   52.4060 C   0  0  1  0  0  0  0  0  0  0  0  0
    8.6420   47.7510   53.4380 C   0  0  0  0  0  0  0  0  0  0  0  0
    9.7280   46.6730   53.5010 C   0  0  0  0  0  0  0  0  0  0  0  0
   10.2230   46.3490   52.0960 C   0  0  0  0  0  0  0  0  0  0  0  0
    9.0630   45.9960   51.1440 C   0  0  0  0  0  0  0  0  0  0  0  0
    7.7340   46.0630   51.8030 N   0  0  0  0  0  0  0  0  0  0  0  0
    6.6790   45.6780   50.8260 C   0  0  0  0  0  0  0  0  0  0  0  0
    6.0320   44.3370   51.2130 C   0  0  0  0  0  0  0  0  0  0  0  0
    4.6590   44.4990   51.9070 C   0  0  0  0  0  0  0  0  0  0  0  0
    3.9880   43.1270   52.1960 C   0  0  0  0  0  0  0  0  0  0  0  0
    2.4510   43.1800   52.1410 C   0  0  0  0  0  0  0  0  0  0  0  0
    1.9690   44.5010   52.5680 N   0  0  0  0  0  0  0  0  0  0  0  0
    1.2890   44.6430   53.8320 C   0  0  0  0  0  0  0  0  0  0  0  0
    1.9420   45.1870   54.9060 N   0  0  0  0  0  0  0  0  0  0  0  0
    1.3360   45.3370   56.1260 C   0  0  0  0  0  0  0  0  0  0  0  0
    0.0460   44.9340   56.3110 N   0  0  0  0  0  0  0  0  0  0  0  0
   -0.6110   44.3970   55.2570 C   0  0  0  0  0  0  0  0  0  0  0  0
   -1.8600   43.9110   55.2540 N   0  0  0  0  0  0  0  0  0  0  0  0
   -2.1070   43.4320   54.0410 N   0  0  0  0  0  0  0  0  0  0  0  0
   -1.0050   43.6150   53.2710 C   0  0  0  0  0  0  0  0  0  0  0  0
   -0.0350   44.2380   54.0370 C   0  0  0  0  0  0  0  0  0  0  0  0
    2.4230   45.6800   51.8140 C   0  0  0  0  0  0  0  0  0  0  0  0
    3.7340   45.3960   51.0590 C   0  0  0  0  0  0  0  0  0  0  0  0
    6.2985   47.5156   54.1974 H   0  0  0  0  0  0  0  0  0  0  0  0
    5.6702   48.4708   52.8119 H   0  0  0  0  0  0  0  0  0  0  0  0
    5.5171   46.6810   52.8119 H   0  0  0  0  0  0  0  0  0  0  0  0
    7.5543   48.1263   51.5709 H   0  0  0  0  0  0  0  0  0  0  0  0
    9.1082   48.7051   53.1511 H   0  0  0  0  0  0  0  0  0  0  0  0
    8.1738   47.8123   54.4315 H   0  0  0  0  0  0  0  0  0  0  0  0
   10.5692   47.0384   54.1084 H   0  0  0  0  0  0  0  0  0  0  0  0
    9.3079   45.7632   53.9546 H   0  0  0  0  0  0  0  0  0  0  0  0
   10.7569   47.2239   51.6966 H   0  0  0  0  0  0  0  0  0  0  0  0
   10.8873   45.4747   52.1622 H   0  0  0  0  0  0  0  0  0  0  0  0
    9.0730   46.7029   50.3013 H   0  0  0  0  0  0  0  0  0  0  0  0
    9.2140   44.9589   50.8100 H   0  0  0  0  0  0  0  0  0  0  0  0
    5.9044   46.4588   50.8067 H   0  0  0  0  0  0  0  0  0  0  0  0
    7.1424   45.5702   49.8342 H   0  0  0  0  0  0  0  0  0  0  0  0
    5.8935   43.7395   50.2999 H   0  0  0  0  0  0  0  0  0  0  0  0
    6.7047   43.8455   51.9313 H   0  0  0  0  0  0  0  0  0  0  0  0
    4.8310   44.9845   52.8789 H   0  0  0  0  0  0  0  0  0  0  0  0
    4.3397   42.4014   51.4479 H   0  0  0  0  0  0  0  0  0  0  0  0
    4.2685   42.8350   53.2188 H   0  0  0  0  0  0  0  0  0  0  0  0
    2.1183   42.9884   51.1102 H   0  0  0  0  0  0  0  0  0  0  0  0
    2.0429   42.4150   52.8179 H   0  0  0  0  0  0  0  0  0  0  0  0
    1.8935   45.7853   56.9616 H   0  0  0  0  0  0  0  0  0  0  0  0
   -2.5280   43.8850   56.0530 H   0  0  0  0  0  0  0  0  0  0  0  0
   -0.9002   43.3186   52.2169 H   0  0  0  0  0  0  0  0  0  0  0  0
    1.6460   45.9609   51.0879 H   0  0  0  0  0  0  0  0  0  0  0  0
    2.6056   46.4969   52.5277 H   0  0  0  0  0  0  0  0  0  0  0  0
    3.5037   44.8864   50.1117 H   0  0  0  0  0  0  0  0  0  0  0  0
    4.2453   46.3495   50.8605 H   0  0  0  0  0  0  0  0  0  0  0  0
  1  2  1  0
  2  3  1  0
  3  4  1  0
  4  5  1  0
  5  6  1  0
  6  7  1  0
  7  8  1  0
  8  9  1  0
  9 10  1  0
 10 11  1  0
 11 12  1  0
 12 13  1  0
 13 14  1  0
 14 15  2  0
 15 16  1  0
 16 17  2  0
 17 18  1  0
 18 19  1  0
 19 20  1  0
 20 21  2  0
 21 22  1  0
 13 23  1  0
 23 24  1  0
  7  2  1  0
 24 10  1  0
 22 14  1  0
 22 18  2  0
  1 25  1  0
  1 26  1  0
  1 27  1  0
  2 28  1  6
  3 29  1  0
  3 30  1  0
  4 31  1  0
  4 32  1  0
  5 33  1  0
  5 34  1  0
  6 35  1  0
  6 36  1  0
  8 37  1  0
  8 38  1  0
  9 39  1  0
  9 40  1  0
 10 41  1  0
 11 42  1  0
 11 43  1  0
 12 44  1  0
 12 45  1  0
 16 46  1  0
 19 47  1  0
 21 48  1  0
 23 49  1  0
 23 50  1  0
 24 51  1  0
 24 52  1  0
M  END
>  <meeko>  (2) 
{"is_sidechain": [false], "free_energy": -8.412, "intermolecular_energy": -10.555, "internal_energy": -0.804}

$$$$
ligand_33_conformer_5_docked
     RDKit          3D

 52 55  0  0  0  0  0  0  0  0999 V2000
    9.9010   47.1950   54.3870 C   0  0  0  0  0  0  0  0  0  0  0  0
    9.2480   47.1140   52.9930 C   0  0  1  0  0  0  0  0  0  0  0  0
   10.2780   46.5020   51.9940 C   0  0  0  0  0  0  0  0  0  0  0  0
    9.7020   45.3210   51.2080 C   0  0  0  0  0  0  0  0  0  0  0  0
    8.3610   45.7070   50.5950 C   0  0  0  0  0  0  0  0  0  0  0  0
    7.3880   46.2750   51.6480 C   0  0  0  0  0  0  0  0  0  0  0  0
    7.9780   46.3290   53.0100 N   0  0  0  0  0  0  0  0  0  0  0  0
    6.9670   46.8580   53.9650 C   0  0  0  0  0  0  0  0  0  0  0  0
    5.7700   47.4700   53.2170 C   0  0  0  0  0  0  0  0  0  0  0  0
    4.4120   46.8550   53.6270 C   0  0  0  0  0  0  0  0  0  0  0  0
    4.5680   45.4020   54.1590 C   0  0  0  0  0  0  0  0  0  0  0  0
    3.3490   44.5130   53.8590 C   0  0  0  0  0  0  0  0  0  0  0  0
    2.1200   45.3160   53.8480 N   0  0  0  0  0  0  0  0  0  0  0  0
    1.1570   45.1700   54.9130 C   0  0  0  0  0  0  0  0  0  0  0  0
    1.4460   45.6380   56.1680 N   0  0  0  0  0  0  0  0  0  0  0  0
    0.5640   45.5170   57.2090 C   0  0  0  0  0  0  0  0  0  0  0  0
   -0.6440   44.9090   57.0250 N   0  0  0  0  0  0  0  0  0  0  0  0
   -0.9420   44.4450   55.7890 C   0  0  0  0  0  0  0  0  0  0  0  0
   -2.0530   43.7910   55.4250 N   0  0  0  0  0  0  0  0  0  0  0  0
   -1.9320   43.4660   54.1430 N   0  0  0  0  0  0  0  0  0  0  0  0
   -0.7340   43.9180   53.6940 C   0  0  0  0  0  0  0  0  0  0  0  0
   -0.0870   44.5540   54.7390 C   0  0  0  0  0  0  0  0  0  0  0  0
    2.0290   46.4300   52.8900 C   0  0  0  0  0  0  0  0  0  0  0  0
    3.4240   46.9050   52.4450 C   0  0  0  0  0  0  0  0  0  0  0  0
    9.1256   47.0988   55.1613 H   0  0  0  0  0  0  0  0  0  0  0  0
   10.6323   46.3807   54.4972 H   0  0  0  0  0  0  0  0  0  0  0  0
   10.4111   48.1633   54.4972 H   0  0  0  0  0  0  0  0  0  0  0  0
    8.9743   48.1293   52.6701 H   0  0  0  0  0  0  0  0  0  0  0  0
   10.5861   47.2825   51.2827 H   0  0  0  0  0  0  0  0  0  0  0  0
   11.1310   46.1293   52.5800 H   0  0  0  0  0  0  0  0  0  0  0  0
   10.4016   45.0408   50.4067 H   0  0  0  0  0  0  0  0  0  0  0  0
    9.5557   44.4704   51.8900 H   0  0  0  0  0  0  0  0  0  0  0  0
    8.5307   46.4692   49.8202 H   0  0  0  0  0  0  0  0  0  0  0  0
    7.9085   44.8000   50.1677 H   0  0  0  0  0  0  0  0  0  0  0  0
    7.1024   47.2942   51.3485 H   0  0  0  0  0  0  0  0  0  0  0  0
    6.5186   45.6024   51.6911 H   0  0  0  0  0  0  0  0  0  0  0  0
    6.6104   46.0362   54.6033 H   0  0  0  0  0  0  0  0  0  0  0  0
    7.4379   47.6430   54.5750 H   0  0  0  0  0  0  0  0  0  0  0  0
    5.7420   48.5494   53.4273 H   0  0  0  0  0  0  0  0  0  0  0  0
    5.9128   47.2592   52.1469 H   0  0  0  0  0  0  0  0  0  0  0  0
    4.0078   47.4585   54.4530 H   0  0  0  0  0  0  0  0  0  0  0  0
    5.4541   44.9507   53.6887 H   0  0  0  0  0  0  0  0  0  0  0  0
    4.6669   45.4631   55.2528 H   0  0  0  0  0  0  0  0  0  0  0  0
    3.4802   44.0378   52.8757 H   0  0  0  0  0  0  0  0  0  0  0  0
    3.2663   43.7449   54.6421 H   0  0  0  0  0  0  0  0  0  0  0  0
    0.8311   45.9125   58.2001 H   0  0  0  0  0  0  0  0  0  0  0  0
   -2.8690   43.5510   56.0270 H   0  0  0  0  0  0  0  0  0  0  0  0
   -0.3433   43.7991   52.6726 H   0  0  0  0  0  0  0  0  0  0  0  0
    1.4659   46.0964   52.0059 H   0  0  0  0  0  0  0  0  0  0  0  0
    1.5191   47.2701   53.3842 H   0  0  0  0  0  0  0  0  0  0  0  0
    3.7894   46.2511   51.6394 H   0  0  0  0  0  0  0  0  0  0  0  0
    3.3497   47.9422   52.0862 H   0  0  0  0  0  0  0  0  0  0  0  0
  1  2  1  0
  2  3  1  0
  3  4  1  0
  4  5  1  0
  5  6  1  0
  6  7  1  0
  7  8  1  0
  8  9  1  0
  9 10  1  0
 10 11  1  0
 11 12  1  0
 12 13  1  0
 13 14  1  0
 14 15  2  0
 15 16  1  0
 16 17  2  0
 17 18  1  0
 18 19  1  0
 19 20  1  0
 20 21  2  0
 21 22  1  0
 13 23  1  0
 23 24  1  0
  7  2  1  0
 24 10  1  0
 22 14  1  0
 22 18  2  0
  1 25  1  0
  1 26  1  0
  1 27  1  0
  2 28  1  6
  3 29  1  0
  3 30  1  0
  4 31  1  0
  4 32  1  0
  5 33  1  0
  5 34  1  0
  6 35  1  0
  6 36  1  0
  8 37  1  0
  8 38  1  0
  9 39  1  0
  9 40  1  0
 10 41  1  0
 11 42  1  0
 11 43  1  0
 12 44  1  0
 12 45  1  0
 16 46  1  0
 19 47  1  0
 21 48  1  0
 23 49  1  0
 23 50  1  0
 24 51  1  0
 24 52  1  0
M  END
>  <meeko>  (3) 
{"is_sidechain": [false], "free_energy": -8.241, "intermolecular_energy": -10.389, "internal_energy": -0.759}

$$$$
ligand_33_conformer_5_docked
     RDKit          3D

 52 55  0  0  0  0  0  0  0  0999 V2000
    9.3870   47.5450   54.6050 C   0  0  0  0  0  0  0  0  0  0  0  0
    9.0070   47.3040   53.1300 C   0  0  1  0  0  0  0  0  0  0  0  0
   10.2820   46.8520   52.3540 C   0  0  0  0  0  0  0  0  0  0  0  0
   10.0580   45.5620   51.5590 C   0  0  0  0  0  0  0  0  0  0  0  0
    8.7980   45.6840   50.7110 C   0  0  0  0  0  0  0  0  0  0  0  0
    7.5760   46.1060   51.5530 C   0  0  0  0  0  0  0  0  0  0  0  0
    7.9040   46.3080   52.9870 N   0  0  0  0  0  0  0  0  0  0  0  0
    6.6690   46.6800   53.7280 C   0  0  0  0  0  0  0  0  0  0  0  0
    5.5730   47.1660   52.7630 C   0  0  0  0  0  0  0  0  0  0  0  0
    4.3580   46.2120   52.6880 C   0  0  0  0  0  0  0  0  0  0  0  0
    4.6720   44.8190   53.3030 C   0  0  0  0  0  0  0  0  0  0  0  0
    3.9040   43.6710   52.6260 C   0  0  0  0  0  0  0  0  0  0  0  0
    2.6000   44.1430   52.1420 N   0  0  0  0  0  0  0  0  0  0  0  0
    1.3910   43.7090   52.7980 C   0  0  0  0  0  0  0  0  0  0  0  0
    0.6330   42.7100   52.2470 N   0  0  0  0  0  0  0  0  0  0  0  0
   -0.5250   42.2690   52.8320 C   0  0  0  0  0  0  0  0  0  0  0  0
   -0.9680   42.8280   53.9960 N   0  0  0  0  0  0  0  0  0  0  0  0
   -0.2260   43.8140   54.5510 C   0  0  0  0  0  0  0  0  0  0  0  0
   -0.5150   44.5060   55.6620 N   0  0  0  0  0  0  0  0  0  0  0  0
    0.4380   45.4140   55.8360 N   0  0  0  0  0  0  0  0  0  0  0  0
    1.3360   45.2950   54.8250 C   0  0  0  0  0  0  0  0  0  0  0  0
    0.9260   44.2680   53.9930 C   0  0  0  0  0  0  0  0  0  0  0  0
    2.5810   45.2450   51.1670 C   0  0  0  0  0  0  0  0  0  0  0  0
    3.8770   46.0740   51.2290 C   0  0  0  0  0  0  0  0  0  0  0  0
    8.6397   47.0710   55.2583 H   0  0  0  0  0  0  0  0  0  0  0  0
   10.3772   47.1095   54.8044 H   0  0  0  0  0  0  0  0  0  0  0  0
    9.4152   48.6264   54.8044 H   0  0  0  0  0  0  0  0  0  0  0  0
    8.6254   48.2436   52.7039 H   0  0  0  0  0  0  0  0  0  0  0  0
   10.5718   47.6510   51.6557 H   0  0  0  0  0  0  0  0  0  0  0  0
   11.0718   46.6558   53.0941 H   0  0  0  0  0  0  0  0  0  0  0  0
   10.9227   45.3838   50.9029 H   0  0  0  0  0  0  0  0  0  0  0  0
    9.9415   44.7220   52.2596 H   0  0  0  0  0  0  0  0  0  0  0  0
    8.9679   46.4379   49.9282 H   0  0  0  0  0  0  0  0  0  0  0  0
    8.5855   44.6978   50.2726 H   0  0  0  0  0  0  0  0  0  0  0  0
    7.1791   47.0484   51.1477 H   0  0  0  0  0  0  0  0  0  0  0  0
    6.8382   45.2922   51.4947 H   0  0  0  0  0  0  0  0  0  0  0  0
    6.3007   45.8013   54.2777 H   0  0  0  0  0  0  0  0  0  0  0  0
    6.9103   47.4965   54.4245 H   0  0  0  0  0  0  0  0  0  0  0  0
    5.2223   48.1523   53.1010 H   0  0  0  0  0  0  0  0  0  0  0  0
    6.0181   47.2068   51.7579 H   0  0  0  0  0  0  0  0  0  0  0  0
    3.5491   46.6533   53.2888 H   0  0  0  0  0  0  0  0  0  0  0  0
    5.7502   44.6266   53.2006 H   0  0  0  0  0  0  0  0  0  0  0  0
    4.3557   44.8477   54.3562 H   0  0  0  0  0  0  0  0  0  0  0  0
    4.4913   43.2938   51.7758 H   0  0  0  0  0  0  0  0  0  0  0  0
    3.7428   42.8677   53.3600 H   0  0  0  0  0  0  0  0  0  0  0  0
   -1.1014   41.4593   52.3606 H   0  0  0  0  0  0  0  0  0  0  0  0
   -1.3430   44.3840   56.2820 H   0  0  0  0  0  0  0  0  0  0  0  0
    2.2374   45.9109   54.6899 H   0  0  0  0  0  0  0  0  0  0  0  0
    2.4725   44.8260   50.1557 H   0  0  0  0  0  0  0  0  0  0  0  0
    1.7358   45.9061   51.4090 H   0  0  0  0  0  0  0  0  0  0  0  0
    4.6565   45.5729   50.6363 H   0  0  0  0  0  0  0  0  0  0  0  0
    3.6789   47.0767   50.8224 H   0  0  0  0  0  0  0  0  0  0  0  0
  1  2  1  0
  2  3  1  0
  3  4  1  0
  4  5  1  0
  5  6  1  0
  6  7  1  0
  7  8  1  0
  8  9  1  0
  9 10  1  0
 10 11  1  0
 11 12  1  0
 12 13  1  0
 13 14  1  0
 14 15  2  0
 15 16  1  0
 16 17  2  0
 17 18  1  0
 18 19  1  0
 19 20  1  0
 20 21  2  0
 21 22  1  0
 13 23  1  0
 23 24  1  0
  7  2  1  0
 24 10  1  0
 22 14  1  0
 22 18  2  0
  1 25  1  0
  1 26  1  0
  1 27  1  0
  2 28  1  6
  3 29  1  0
  3 30  1  0
  4 31  1  0
  4 32  1  0
  5 33  1  0
  5 34  1  0
  6 35  1  0
  6 36  1  0
  8 37  1  0
  8 38  1  0
  9 39  1  0
  9 40  1  0
 10 41  1  0
 11 42  1  0
 11 43  1  0
 12 44  1  0
 12 45  1  0
 16 46  1  0
 19 47  1  0
 21 48  1  0
 23 49  1  0
 23 50  1  0
 24 51  1  0
 24 52  1  0
M  END
>  <meeko>  (4) 
{"is_sidechain": [false], "free_energy": -8.235, "intermolecular_energy": -10.322, "internal_energy": -0.819}

$$$$
ligand_33_conformer_5_docked
     RDKit          3D

 52 55  0  0  0  0  0  0  0  0999 V2000
    6.3360   47.8360   53.1540 C   0  0  0  0  0  0  0  0  0  0  0  0
    7.5730   47.4800   52.3070 C   0  0  1  0  0  0  0  0  0  0  0  0
    8.8550   47.8420   53.1190 C   0  0  0  0  0  0  0  0  0  0  0  0
    9.8440   46.6760   53.2040 C   0  0  0  0  0  0  0  0  0  0  0  0
   10.1020   46.1080   51.8130 C   0  0  0  0  0  0  0  0  0  0  0  0
    8.7900   45.7490   51.0860 C   0  0  0  0  0  0  0  0  0  0  0  0
    7.5810   46.0460   51.8940 N   0  0  0  0  0  0  0  0  0  0  0  0
    6.3680   45.6410   51.1330 C   0  0  0  0  0  0  0  0  0  0  0  0
    5.7590   44.3520   51.7120 C   0  0  0  0  0  0  0  0  0  0  0  0
    4.4730   44.5990   52.5350 C   0  0  0  0  0  0  0  0  0  0  0  0
    3.6160   45.7540   51.9440 C   0  0  0  0  0  0  0  0  0  0  0  0
    2.8320   46.5350   53.0120 C   0  0  0  0  0  0  0  0  0  0  0  0
    2.4650   45.6510   54.1260 N   0  0  0  0  0  0  0  0  0  0  0  0
    1.0870   45.2690   54.3150 C   0  0  0  0  0  0  0  0  0  0  0  0
    0.3430   44.8330   53.2510 N   0  0  0  0  0  0  0  0  0  0  0  0
   -0.9700   44.4650   53.3830 C   0  0  0  0  0  0  0  0  0  0  0  0
   -1.5870   44.5310   54.5980 N   0  0  0  0  0  0  0  0  0  0  0  0
   -0.8620   44.9570   55.6590 C   0  0  0  0  0  0  0  0  0  0  0  0
   -1.3000   45.1250   56.9140 N   0  0  0  0  0  0  0  0  0  0  0  0
   -0.2950   45.6050   57.6350 N   0  0  0  0  0  0  0  0  0  0  0  0
    0.7880   45.7430   56.8290 C   0  0  0  0  0  0  0  0  0  0  0  0
    0.4410   45.3270   55.5550 C   0  0  0  0  0  0  0  0  0  0  0  0
    3.5470   44.9750   54.8600 C   0  0  0  0  0  0  0  0  0  0  0  0
    4.8270   44.8760   54.0100 C   0  0  0  0  0  0  0  0  0  0  0  0
    6.5895   47.7630   54.2219 H   0  0  0  0  0  0  0  0  0  0  0  0
    6.0161   48.8627   52.9224 H   0  0  0  0  0  0  0  0  0  0  0  0
    5.5193   47.1364   52.9224 H   0  0  0  0  0  0  0  0  0  0  0  0
    7.5445   48.0645   51.3756 H   0  0  0  0  0  0  0  0  0  0  0  0
    9.3534   48.6924   52.6308 H   0  0  0  0  0  0  0  0  0  0  0  0
    8.5424   48.0905   54.1439 H   0  0  0  0  0  0  0  0  0  0  0  0
   10.7918   47.0330   53.6332 H   0  0  0  0  0  0  0  0  0  0  0  0
    9.4185   45.8877   53.8424 H   0  0  0  0  0  0  0  0  0  0  0  0
   10.6448   46.8572   51.2180 H   0  0  0  0  0  0  0  0  0  0  0  0
   10.6927   45.1869   51.9251 H   0  0  0  0  0  0  0  0  0  0  0  0
    8.7377   46.3263   50.1511 H   0  0  0  0  0  0  0  0  0  0  0  0
    8.8030   44.6652   50.8983 H   0  0  0  0  0  0  0  0  0  0  0  0
    5.6223   46.4478   51.1887 H   0  0  0  0  0  0  0  0  0  0  0  0
    6.6560   45.4540   50.0880 H   0  0  0  0  0  0  0  0  0  0  0  0
    5.5160   43.6759   50.8791 H   0  0  0  0  0  0  0  0  0  0  0  0
    6.5042   43.9176   52.3946 H   0  0  0  0  0  0  0  0  0  0  0  0
    3.8624   43.6856   52.4819 H   0  0  0  0  0  0  0  0  0  0  0  0
    4.2849   46.4530   51.4205 H   0  0  0  0  0  0  0  0  0  0  0  0
    2.8794   45.2998   51.2650 H   0  0  0  0  0  0  0  0  0  0  0  0
    3.4570   47.3566   53.3920 H   0  0  0  0  0  0  0  0  0  0  0  0
    1.9142   46.9371   52.5582 H   0  0  0  0  0  0  0  0  0  0  0  0
   -1.5303   44.1141   52.5038 H   0  0  0  0  0  0  0  0  0  0  0  0
   -2.2590   44.9380   57.2770 H   0  0  0  0  0  0  0  0  0  0  0  0
    1.7743   46.1212   57.1359 H   0  0  0  0  0  0  0  0  0  0  0  0
    3.7683   45.5439   55.7751 H   0  0  0  0  0  0  0  0  0  0  0  0
    3.2145   43.9554   55.1046 H   0  0  0  0  0  0  0  0  0  0  0  0
    5.3813   45.8237   54.0778 H   0  0  0  0  0  0  0  0  0  0  0  0
    5.4445   44.0488   54.3900 H   0  0  0  0  0  0  0  0  0  0  0  0
  1  2  1  0
  2  3  1  0
  3  4  1  0
  4  5  1  0
  5  6  1  0
  6  7  1  0
  7  8  1  0
  8  9  1  0
  9 10  1  0
 10 11  1  0
 11 12  1  0
 12 13  1  0
 13 14  1  0
 14 15  2  0
 15 16  1  0
 16 17  2  0
 17 18  1  0
 18 19  1  0
 19 20  1  0
 20 21  2  0
 21 22  1  0
 13 23  1  0
 23 24  1  0
  7  2  1  0
 24 10  1  0
 22 14  1  0
 22 18  2  0
  1 25  1  0
  1 26  1  0
  1 27  1  0
  2 28  1  6
  3 29  1  0
  3 30  1  0
  4 31  1  0
  4 32  1  0
  5 33  1  0
  5 34  1  0
  6 35  1  0
  6 36  1  0
  8 37  1  0
  8 38  1  0
  9 39  1  0
  9 40  1  0
 10 41  1  0
 11 42  1  0
 11 43  1  0
 12 44  1  0
 12 45  1  0
 16 46  1  0
 19 47  1  0
 21 48  1  0
 23 49  1  0
 23 50  1  0
 24 51  1  0
 24 52  1  0
M  END
>  <meeko>  (5) 
{"is_sidechain": [false], "free_energy": -8.066, "intermolecular_energy": -10.169, "internal_energy": -0.763}

$$$$
