MODEL 1
REMARK VINA RESULT:    -8.361      0.000      0.000
REMARK INTER + INTRA:         -12.406
REMARK INTER:                 -11.293
REMARK INTRA:                  -1.113
REMARK UNBOUND:                -1.113
REMARK SMILES CN(C)C(=O)[C@H](NC(=O)Cc1csc(N2CCCNC2=O)n1)c1ccccc1
REMARK SMILES IDX 7 1 8 2 9 3 6 5 4 6 2 7 5 8 1 9 3 10 23 11 24 12 28 13 25 14
REMARK SMILES IDX 27 15 26 16 10 17 11 18 12 19 22 20 13 21 14 22 15 23 16 24
REMARK SMILES IDX 20 25 17 26 19 27 21 28 18 29
REMARK H PARENT 7 4 19 30
ROOT
ATOM      1  N   UNL     1       3.923  44.753  51.880  1.00  0.00    -0.340 N 
ATOM      2  C   UNL     1       2.784  45.256  51.168  1.00  0.00     0.226 C 
ATOM      3  O   UNL     1       2.794  46.421  50.687  1.00  0.00    -0.275 OA
ATOM      4  H   UNL     1       3.818  43.848  52.394  1.00  0.00     0.164 HD
ENDROOT
BRANCH   1   5
ATOM      5  C   UNL     1       5.250  45.360  51.762  1.00  0.00     0.202 C 
BRANCH   5   6
ATOM      6  C   UNL     1       5.935  45.520  53.104  1.00  0.00     0.249 C 
ATOM      7  N   UNL     1       6.498  46.768  53.559  1.00  0.00    -0.347 N 
ATOM      8  O   UNL     1       5.912  44.539  53.897  1.00  0.00    -0.272 OA
ATOM      9  C   UNL     1       6.280  47.163  54.952  1.00  0.00     0.146 C 
ATOM     10  C   UNL     1       7.403  47.551  52.711  1.00  0.00     0.146 C 
ENDBRANCH   5   6
BRANCH   5  11
ATOM     11  C   UNL     1       6.110  44.571  50.794  1.00  0.00    -0.016 A 
ATOM     12  C   UNL     1       7.317  45.098  50.296  1.00  0.00     0.006 A 
ATOM     13  C   UNL     1       5.736  43.265  50.424  1.00  0.00     0.006 A 
ATOM     14  C   UNL     1       8.121  44.341  49.438  1.00  0.00     0.000 A 
ATOM     15  C   UNL     1       6.544  42.512  49.566  1.00  0.00     0.000 A 
ATOM     16  C   UNL     1       7.733  43.050  49.072  1.00  0.00     0.000 A 
ENDBRANCH   5  11
ENDBRANCH   1   5
BRANCH   2  17
ATOM     17  C   UNL     1       1.598  44.368  50.942  1.00  0.00     0.157 C 
BRANCH  17  18
ATOM     18  C   UNL     1       0.818  44.252  52.217  1.00  0.00     0.063 A 
ATOM     19  C   UNL     1      -0.138  43.266  52.444  1.00  0.00     0.093 A 
ATOM     20  N   UNL     1       1.094  45.045  53.287  1.00  0.00    -0.224 NA
ATOM     21  S   UNL     1      -0.650  43.406  54.041  1.00  0.00    -0.105 S 
ATOM     22  C   UNL     1       0.356  44.719  54.369  1.00  0.00     0.193 A 
BRANCH  22  23
ATOM     23  N   UNL     1       0.543  45.335  55.660  1.00  0.00    -0.270 N 
ATOM     24  C   UNL     1      -0.624  45.526  56.533  1.00  0.00     0.132 C 
ATOM     25  C   UNL     1       1.855  45.649  56.173  1.00  0.00     0.323 C 
ATOM     26  C   UNL     1      -0.445  46.749  57.435  1.00  0.00     0.043 C 
ATOM     27  N   UNL     1       1.986  46.371  57.403  1.00  0.00    -0.338 N 
ATOM     28  O   UNL     1       2.895  45.294  55.555  1.00  0.00    -0.248 OA
ATOM     29  C   UNL     1       0.833  46.618  58.264  1.00  0.00     0.119 C 
ATOM     30  H   UNL     1       2.941  46.585  57.768  1.00  0.00     0.165 HD
ENDBRANCH  22  23
ENDBRANCH  17  18
ENDBRANCH   2  17
TORSDOF 6
ENDMDL
MODEL 2
REMARK VINA RESULT:    -8.217      2.967      6.792
REMARK INTER + INTRA:         -12.212
REMARK INTER:                 -10.587
REMARK INTRA:                  -1.625
REMARK UNBOUND:                -1.113
REMARK SMILES CN(C)C(=O)[C@H](NC(=O)Cc1csc(N2CCCNC2=O)n1)c1ccccc1
REMARK SMILES IDX 7 1 8 2 9 3 6 5 4 6 2 7 5 8 1 9 3 10 23 11 24 12 28 13 25 14
REMARK SMILES IDX 27 15 26 16 10 17 11 18 12 19 22 20 13 21 14 22 15 23 16 24
REMARK SMILES IDX 20 25 17 26 19 27 21 28 18 29
REMARK H PARENT 7 4 19 30
ROOT
ATOM      1  N   UNL     1       3.265  43.149  52.693  1.00  0.00    -0.340 N 
ATOM      2  C   UNL     1       2.978  42.592  51.403  1.00  0.00     0.226 C 
ATOM      3  O   UNL     1       2.004  43.017  50.725  1.00  0.00    -0.275 OA
ATOM      4  H   UNL     1       3.979  42.668  53.285  1.00  0.00     0.164 HD
ENDROOT
BRANCH   1   5
ATOM      5  C   UNL     1       2.732  44.444  53.121  1.00  0.00     0.202 C 
BRANCH   5   6
ATOM      6  C   UNL     1       1.519  44.303  54.019  1.00  0.00     0.249 C 
ATOM      7  N   UNL     1       0.178  44.140  53.512  1.00  0.00    -0.347 N 
ATOM      8  O   UNL     1       1.713  44.218  55.262  1.00  0.00    -0.272 OA
ATOM      9  C   UNL     1      -0.697  43.163  54.163  1.00  0.00     0.146 C 
ATOM     10  C   UNL     1      -0.363  45.033  52.483  1.00  0.00     0.146 C 
ENDBRANCH   5   6
BRANCH   5  11
ATOM     11  C   UNL     1       3.817  45.270  53.786  1.00  0.00    -0.016 A 
ATOM     12  C   UNL     1       5.016  44.678  54.225  1.00  0.00     0.006 A 
ATOM     13  C   UNL     1       3.659  46.663  53.919  1.00  0.00     0.006 A 
ATOM     14  C   UNL     1       6.025  45.460  54.796  1.00  0.00     0.000 A 
ATOM     15  C   UNL     1       4.671  47.440  54.490  1.00  0.00     0.000 A 
ATOM     16  C   UNL     1       5.852  46.839  54.930  1.00  0.00     0.000 A 
ENDBRANCH   5  11
ENDBRANCH   1   5
BRANCH   2  17
ATOM     17  C   UNL     1       3.881  41.541  50.831  1.00  0.00     0.157 C 
BRANCH  17  18
ATOM     18  C   UNL     1       5.147  42.185  50.355  1.00  0.00     0.063 A 
ATOM     19  C   UNL     1       5.808  41.807  49.188  1.00  0.00     0.093 A 
ATOM     20  N   UNL     1       5.664  43.275  50.983  1.00  0.00    -0.224 NA
ATOM     21  S   UNL     1       7.082  42.880  48.951  1.00  0.00    -0.105 S 
ATOM     22  C   UNL     1       6.746  43.769  50.344  1.00  0.00     0.193 A 
BRANCH  22  23
ATOM     23  N   UNL     1       7.406  44.986  50.747  1.00  0.00    -0.270 N 
ATOM     24  C   UNL     1       8.864  45.090  50.593  1.00  0.00     0.132 C 
ATOM     25  C   UNL     1       6.666  46.150  51.172  1.00  0.00     0.323 C 
ATOM     26  C   UNL     1       9.467  46.015  51.651  1.00  0.00     0.043 C 
ATOM     27  N   UNL     1       7.365  47.293  51.678  1.00  0.00    -0.338 N 
ATOM     28  O   UNL     1       5.408  46.181  51.101  1.00  0.00    -0.248 OA
ATOM     29  C   UNL     1       8.818  47.398  51.583  1.00  0.00     0.119 C 
ATOM     30  H   UNL     1       6.819  48.133  51.975  1.00  0.00     0.165 HD
ENDBRANCH  22  23
ENDBRANCH  17  18
ENDBRANCH   2  17
TORSDOF 6
ENDMDL
MODEL 3
REMARK VINA RESULT:    -8.098      2.535      3.728
REMARK INTER + INTRA:         -12.051
REMARK INTER:                 -11.443
REMARK INTRA:                  -0.608
REMARK UNBOUND:                -1.113
REMARK SMILES CN(C)C(=O)[C@H](NC(=O)Cc1csc(N2CCCNC2=O)n1)c1ccccc1
REMARK SMILES IDX 7 1 8 2 9 3 6 5 4 6 2 7 5 8 1 9 3 10 23 11 24 12 28 13 25 14
REMARK SMILES IDX 27 15 26 16 10 17 11 18 12 19 22 20 13 21 14 22 15 23 16 24
REMARK SMILES IDX 20 25 17 26 19 27 21 28 18 29
REMARK H PARENT 7 4 19 30
ROOT
ATOM      1  N   UNL     1       5.072  46.235  52.026  1.00  0.00    -0.340 N 
ATOM      2  C   UNL     1       4.553  47.334  52.789  1.00  0.00     0.226 C 
ATOM      3  O   UNL     1       5.329  48.073  53.453  1.00  0.00    -0.275 OA
ATOM      4  H   UNL     1       4.389  45.558  51.617  1.00  0.00     0.164 HD
ENDROOT
BRANCH   1   5
ATOM      5  C   UNL     1       6.486  46.137  51.658  1.00  0.00     0.202 C 
BRANCH   5   6
ATOM      6  C   UNL     1       7.395  46.051  52.867  1.00  0.00     0.249 C 
ATOM      7  N   UNL     1       8.561  46.883  53.039  1.00  0.00    -0.347 N 
ATOM      8  O   UNL     1       7.048  45.289  53.811  1.00  0.00    -0.272 OA
ATOM      9  C   UNL     1       8.817  47.458  54.361  1.00  0.00     0.146 C 
ATOM     10  C   UNL     1       9.559  47.028  51.974  1.00  0.00     0.146 C 
ENDBRANCH   5   6
BRANCH   5  11
ATOM     11  C   UNL     1       6.709  44.969  50.716  1.00  0.00    -0.016 A 
ATOM     12  C   UNL     1       7.849  44.905  49.892  1.00  0.00     0.006 A 
ATOM     13  C   UNL     1       5.798  43.896  50.698  1.00  0.00     0.006 A 
ATOM     14  C   UNL     1       8.062  43.801  49.061  1.00  0.00     0.000 A 
ATOM     15  C   UNL     1       6.016  42.794  49.866  1.00  0.00     0.000 A 
ATOM     16  C   UNL     1       7.145  42.747  49.047  1.00  0.00     0.000 A 
ENDBRANCH   5  11
ENDBRANCH   1   5
BRANCH   2  17
ATOM     17  C   UNL     1       3.088  47.641  52.744  1.00  0.00     0.157 C 
BRANCH  17  18
ATOM     18  C   UNL     1       2.314  46.407  53.094  1.00  0.00     0.063 A 
ATOM     19  C   UNL     1       2.513  45.682  54.266  1.00  0.00     0.093 A 
ATOM     20  N   UNL     1       1.270  45.988  52.328  1.00  0.00    -0.224 NA
ATOM     21  S   UNL     1       1.340  44.478  54.330  1.00  0.00    -0.105 S 
ATOM     22  C   UNL     1       0.638  44.921  52.863  1.00  0.00     0.193 A 
BRANCH  22  23
ATOM     23  N   UNL     1      -0.566  44.362  52.301  1.00  0.00    -0.270 N 
ATOM     24  C   UNL     1      -1.867  44.885  52.742  1.00  0.00     0.132 C 
ATOM     25  C   UNL     1      -0.531  43.399  51.226  1.00  0.00     0.323 C 
ATOM     26  C   UNL     1      -2.950  43.807  52.666  1.00  0.00     0.043 C 
ATOM     27  N   UNL     1      -1.745  42.781  50.783  1.00  0.00    -0.338 N 
ATOM     28  O   UNL     1       0.555  43.095  50.663  1.00  0.00    -0.248 OA
ATOM     29  C   UNL     1      -3.047  43.249  51.246  1.00  0.00     0.119 C 
ATOM     30  H   UNL     1      -1.708  42.092  49.999  1.00  0.00     0.165 HD
ENDBRANCH  22  23
ENDBRANCH  17  18
ENDBRANCH   2  17
TORSDOF 6
ENDMDL
MODEL 4
REMARK VINA RESULT:    -7.792      2.866      6.520
REMARK INTER + INTRA:         -11.639
REMARK INTER:                  -9.978
REMARK INTRA:                  -1.661
REMARK UNBOUND:                -1.113
REMARK SMILES CN(C)C(=O)[C@H](NC(=O)Cc1csc(N2CCCNC2=O)n1)c1ccccc1
REMARK SMILES IDX 7 1 8 2 9 3 6 5 4 6 2 7 5 8 1 9 3 10 23 11 24 12 28 13 25 14
REMARK SMILES IDX 27 15 26 16 10 17 11 18 12 19 22 20 13 21 14 22 15 23 16 24
REMARK SMILES IDX 20 25 17 26 19 27 21 28 18 29
REMARK H PARENT 7 4 19 30
ROOT
ATOM      1  N   UNL     1       2.988  44.548  53.183  1.00  0.00    -0.340 N 
ATOM      2  C   UNL     1       2.614  44.812  54.542  1.00  0.00     0.226 C 
ATOM      3  O   UNL     1       1.686  44.157  55.088  1.00  0.00    -0.275 OA
ATOM      4  H   UNL     1       3.651  45.212  52.720  1.00  0.00     0.164 HD
ENDROOT
BRANCH   1   5
ATOM      5  C   UNL     1       2.621  43.308  52.497  1.00  0.00     0.202 C 
BRANCH   5   6
ATOM      6  C   UNL     1       1.314  43.429  51.739  1.00  0.00     0.249 C 
ATOM      7  N   UNL     1       0.029  43.164  52.337  1.00  0.00    -0.347 N 
ATOM      8  O   UNL     1       1.356  43.887  50.565  1.00  0.00    -0.272 OA
ATOM      9  C   UNL     1      -1.078  44.075  52.038  1.00  0.00     0.146 C 
ATOM     10  C   UNL     1      -0.223  41.933  53.092  1.00  0.00     0.146 C 
ENDBRANCH   5   6
BRANCH   5  11
ATOM     11  C   UNL     1       3.746  42.852  51.588  1.00  0.00    -0.016 A 
ATOM     12  C   UNL     1       3.718  41.585  50.973  1.00  0.00     0.006 A 
ATOM     13  C   UNL     1       4.814  43.723  51.299  1.00  0.00     0.006 A 
ATOM     14  C   UNL     1       4.741  41.197  50.102  1.00  0.00     0.000 A 
ATOM     15  C   UNL     1       5.835  43.329  50.428  1.00  0.00     0.000 A 
ATOM     16  C   UNL     1       5.799  42.067  49.832  1.00  0.00     0.000 A 
ENDBRANCH   5  11
ENDBRANCH   1   5
BRANCH   2  17
ATOM     17  C   UNL     1       3.375  45.829  55.337  1.00  0.00     0.157 C 
BRANCH  17  18
ATOM     18  C   UNL     1       4.257  46.616  54.416  1.00  0.00     0.063 A 
ATOM     19  C   UNL     1       3.950  47.899  53.970  1.00  0.00     0.093 A 
ATOM     20  N   UNL     1       5.487  46.160  54.056  1.00  0.00    -0.224 NA
ATOM     21  S   UNL     1       5.269  48.467  53.093  1.00  0.00    -0.105 S 
ATOM     22  C   UNL     1       6.167  47.056  53.309  1.00  0.00     0.193 A 
BRANCH  22  23
ATOM     23  N   UNL     1       7.535  46.856  52.899  1.00  0.00    -0.270 N 
ATOM     24  C   UNL     1       7.814  46.507  51.498  1.00  0.00     0.132 C 
ATOM     25  C   UNL     1       8.643  47.116  53.785  1.00  0.00     0.323 C 
ATOM     26  C   UNL     1       9.081  45.658  51.382  1.00  0.00     0.043 C 
ATOM     27  N   UNL     1       9.976  46.787  53.376  1.00  0.00    -0.338 N 
ATOM     28  O   UNL     1       8.459  47.634  54.919  1.00  0.00    -0.248 OA
ATOM     29  C   UNL     1      10.271  46.388  52.003  1.00  0.00     0.119 C 
ATOM     30  H   UNL     1      10.771  46.987  54.023  1.00  0.00     0.165 HD
ENDBRANCH  22  23
ENDBRANCH  17  18
ENDBRANCH   2  17
TORSDOF 6
ENDMDL
MODEL 5
REMARK VINA RESULT:    -7.700      2.088      4.012
REMARK INTER + INTRA:         -11.514
REMARK INTER:                 -11.868
REMARK INTRA:                   0.354
REMARK UNBOUND:                -1.113
REMARK SMILES CN(C)C(=O)[C@H](NC(=O)Cc1csc(N2CCCNC2=O)n1)c1ccccc1
REMARK SMILES IDX 7 1 8 2 9 3 6 5 4 6 2 7 5 8 1 9 3 10 23 11 24 12 28 13 25 14
REMARK SMILES IDX 27 15 26 16 10 17 11 18 12 19 22 20 13 21 14 22 15 23 16 24
REMARK SMILES IDX 20 25 17 26 19 27 21 28 18 29
REMARK H PARENT 7 4 19 30
ROOT
ATOM      1  N   UNL     1       6.263  45.305  52.895  1.00  0.00    -0.340 N 
ATOM      2  C   UNL     1       5.375  46.171  53.615  1.00  0.00     0.226 C 
ATOM      3  O   UNL     1       4.913  47.210  53.069  1.00  0.00    -0.275 OA
ATOM      4  H   UNL     1       6.743  44.544  53.428  1.00  0.00     0.164 HD
ENDROOT
BRANCH   1   5
ATOM      5  C   UNL     1       6.375  45.338  51.435  1.00  0.00     0.202 C 
BRANCH   5   6
ATOM      6  C   UNL     1       7.777  45.679  50.970  1.00  0.00     0.249 C 
ATOM      7  N   UNL     1       8.611  46.655  51.628  1.00  0.00    -0.347 N 
ATOM      8  O   UNL     1       8.267  44.997  50.029  1.00  0.00    -0.272 OA
ATOM      9  C   UNL     1      10.027  46.338  51.828  1.00  0.00     0.146 C 
ATOM     10  C   UNL     1       8.110  47.995  51.949  1.00  0.00     0.146 C 
ENDBRANCH   5   6
BRANCH   5  11
ATOM     11  C   UNL     1       5.899  44.029  50.837  1.00  0.00    -0.016 A 
ATOM     12  C   UNL     1       6.564  43.443  49.742  1.00  0.00     0.006 A 
ATOM     13  C   UNL     1       4.809  43.347  51.413  1.00  0.00     0.006 A 
ATOM     14  C   UNL     1       6.138  42.214  49.229  1.00  0.00     0.000 A 
ATOM     15  C   UNL     1       4.389  42.118  50.896  1.00  0.00     0.000 A 
ATOM     16  C   UNL     1       5.051  41.553  49.805  1.00  0.00     0.000 A 
ENDBRANCH   5  11
ENDBRANCH   1   5
BRANCH   2  17
ATOM     17  C   UNL     1       4.944  45.805  55.003  1.00  0.00     0.157 C 
BRANCH  17  18
ATOM     18  C   UNL     1       3.495  45.426  54.986  1.00  0.00     0.063 A 
ATOM     19  C   UNL     1       2.601  45.765  55.999  1.00  0.00     0.093 A 
ATOM     20  N   UNL     1       2.935  44.826  53.901  1.00  0.00    -0.224 NA
ATOM     21  S   UNL     1       1.065  45.286  55.509  1.00  0.00    -0.105 S 
ATOM     22  C   UNL     1       1.602  44.660  54.039  1.00  0.00     0.193 A 
BRANCH  22  23
ATOM     23  N   UNL     1       0.763  44.151  52.982  1.00  0.00    -0.270 N 
ATOM     24  C   UNL     1      -0.451  43.402  53.336  1.00  0.00     0.132 C 
ATOM     25  C   UNL     1       1.007  44.466  51.595  1.00  0.00     0.323 C 
ATOM     26  C   UNL     1      -0.796  42.369  52.262  1.00  0.00     0.043 C 
ATOM     27  N   UNL     1       0.223  43.840  50.573  1.00  0.00    -0.338 N 
ATOM     28  O   UNL     1       1.901  45.290  51.265  1.00  0.00    -0.248 OA
ATOM     29  C   UNL     1      -0.959  43.048  50.901  1.00  0.00     0.119 C 
ATOM     30  H   UNL     1       0.403  44.082  49.573  1.00  0.00     0.165 HD
ENDBRANCH  22  23
ENDBRANCH  17  18
ENDBRANCH   2  17
TORSDOF 6
ENDMDL
