ligand_70_conformer_2_docked
     RDKit          3D

 51 53  0  0  0  0  0  0  0  0999 V2000
    6.9420   44.8080   50.2080 C   0  0  0  0  0  0  0  0  0  0  0  0
    7.2680   43.5560   49.4680 C   0  0  0  0  0  0  0  0  0  0  0  0
    8.4240   43.3950   48.9900 O   0  0  0  0  0  0  0  0  0  0  0  0
    6.3010   42.5520   49.3550 O   0  0  0  0  0  0  0  0  0  0  0  0
    5.9330   41.6940   50.4330 C   0  0  0  0  0  0  0  0  0  0  0  0
    4.4360   41.6060   50.5450 C   0  0  0  0  0  0  0  0  0  0  0  0
    3.8610   40.5810   50.0890 O   0  0  0  0  0  0  0  0  0  0  0  0
    3.6580   42.6720   51.1360 N   0  0  0  0  0  0  0  0  0  0  0  0
    2.1880   42.6620   50.9830 C   0  0  0  0  0  0  0  0  0  0  0  0
    1.6440   44.0870   50.8320 C   0  0  0  0  0  0  0  0  0  0  0  0
    2.2100   44.9400   51.8660 N   0  0  0  0  0  0  0  0  0  0  0  0
    1.6670   46.0630   52.3090 N   0  0  0  0  0  0  0  0  0  0  0  0
    2.5260   46.5990   53.2030 C   0  0  0  0  0  0  0  0  0  0  0  0
    3.6450   45.7900   53.3040 C   0  0  0  0  0  0  0  0  0  0  0  0
    5.0380   46.0380   54.3440 S   0  0  2  0  0  6  0  0  0  0  0  0
    5.0190   44.8240   55.6440 C   0  0  0  0  0  0  0  0  0  0  0  0
    4.9540   47.4130   54.9460 O   0  0  0  0  0  0  0  0  0  0  0  0
    6.3550   45.8820   53.4940 N   0  0  0  0  0  0  0  0  0  0  0  0
    7.4900   46.7500   53.5790 C   0  0  0  0  0  0  0  0  0  0  0  0
    7.3600   47.9610   53.9050 O   0  0  0  0  0  0  0  0  0  0  0  0
    8.8600   46.1800   53.3700 C   0  0  2  0  0  0  0  0  0  0  0  0
   10.0020   47.1910   53.5220 C   0  0  0  0  0  0  0  0  0  0  0  0
    9.6400   46.6570   52.1390 C   0  0  0  0  0  0  0  0  0  0  0  0
   10.6340   45.6560   51.5450 C   0  0  0  0  0  0  0  0  0  0  0  0
    9.0170   47.6880   51.1860 C   0  0  0  0  0  0  0  0  0  0  0  0
    3.4090   44.7480   52.4340 C   0  0  0  0  0  0  0  0  0  0  0  0
    4.2900   43.5780   52.1150 C   0  0  0  0  0  0  0  0  0  0  0  0
    6.9916   44.6177   51.2903 H   0  0  0  0  0  0  0  0  0  0  0  0
    7.6661   45.5915   49.9399 H   0  0  0  0  0  0  0  0  0  0  0  0
    5.9278   45.1388   49.9399 H   0  0  0  0  0  0  0  0  0  0  0  0
    6.3427   40.6892   50.2527 H   0  0  0  0  0  0  0  0  0  0  0  0
    6.3375   42.1044   51.3700 H   0  0  0  0  0  0  0  0  0  0  0  0
    1.9230   42.0787   50.0888 H   0  0  0  0  0  0  0  0  0  0  0  0
    1.7442   42.2099   51.8822 H   0  0  0  0  0  0  0  0  0  0  0  0
    1.9191   44.4805   49.8423 H   0  0  0  0  0  0  0  0  0  0  0  0
    0.5487   44.0713   50.9318 H   0  0  0  0  0  0  0  0  0  0  0  0
    2.3622   47.5316   53.7628 H   0  0  0  0  0  0  0  0  0  0  0  0
    5.0269   45.3316   56.6198 H   0  0  0  0  0  0  0  0  0  0  0  0
    4.1111   44.2089   55.5580 H   0  0  0  0  0  0  0  0  0  0  0  0
    5.9072   44.1808   55.5580 H   0  0  0  0  0  0  0  0  0  0  0  0
    8.6115   45.1912   53.7829 H   0  0  0  0  0  0  0  0  0  0  0  0
    9.7795   48.2362   53.7830 H   0  0  0  0  0  0  0  0  0  0  0  0
   10.9241   47.2372   54.1200 H   0  0  0  0  0  0  0  0  0  0  0  0
   11.1557   45.1306   52.3585 H   0  0  0  0  0  0  0  0  0  0  0  0
   10.0930   44.9261   50.9248 H   0  0  0  0  0  0  0  0  0  0  0  0
   11.3676   46.1918   50.9248 H   0  0  0  0  0  0  0  0  0  0  0  0
    8.5355   48.4848   51.7718 H   0  0  0  0  0  0  0  0  0  0  0  0
    9.8034   48.1233   50.5518 H   0  0  0  0  0  0  0  0  0  0  0  0
    8.2660   47.1943   50.5518 H   0  0  0  0  0  0  0  0  0  0  0  0
    5.2381   43.9484   51.6981 H   0  0  0  0  0  0  0  0  0  0  0  0
    4.4624   43.0142   53.0437 H   0  0  0  0  0  0  0  0  0  0  0  0
  1  2  1  0
  2  3  2  0
  2  4  1  0
  4  5  1  0
  5  6  1  0
  6  7  2  0
  6  8  1  0
  8  9  1  0
  9 10  1  0
 10 11  1  0
 11 12  1  0
 12 13  2  0
 13 14  1  0
 14 15  1  0
 15 16  1  1
 15 17  2  0
 15 18  2  0
 18 19  1  0
 19 20  2  0
 19 21  1  0
 21 22  1  0
 22 23  1  0
 23 24  1  0
 23 25  1  0
 14 26  2  0
 26 27  1  0
 27  8  1  0
 26 11  1  0
 23 21  1  0
  1 28  1  0
  1 29  1  0
  1 30  1  0
  5 31  1  0
  5 32  1  0
  9 33  1  0
  9 34  1  0
 10 35  1  0
 10 36  1  0
 13 37  1  0
 16 38  1  0
 16 39  1  0
 16 40  1  0
 21 41  1  1
 22 42  1  0
 22 43  1  0
 24 44  1  0
 24 45  1  0
 24 46  1  0
 25 47  1  0
 25 48  1  0
 25 49  1  0
 27 50  1  0
 27 51  1  0
M  END
>  <meeko>  (1) 
{"is_sidechain": [false], "free_energy": -8.887, "intermolecular_energy": -12.524, "internal_energy": -0.539}

$$$$
ligand_70_conformer_2_docked
     RDKit          3D

 51 53  0  0  0  0  0  0  0  0999 V2000
   -1.2130   48.9610   59.4410 C   0  0  0  0  0  0  0  0  0  0  0  0
   -0.2830   47.8280   59.1720 C   0  0  0  0  0  0  0  0  0  0  0  0
    0.5500   47.4790   60.0520 O   0  0  0  0  0  0  0  0  0  0  0  0
   -0.3800   47.1320   57.9630 O   0  0  0  0  0  0  0  0  0  0  0  0
    0.5970   46.1920   57.5190 C   0  0  0  0  0  0  0  0  0  0  0  0
   -0.0540   45.0930   56.7270 C   0  0  0  0  0  0  0  0  0  0  0  0
   -1.0930   44.5540   57.1940 O   0  0  0  0  0  0  0  0  0  0  0  0
    0.5010   44.6330   55.4730 N   0  0  0  0  0  0  0  0  0  0  0  0
   -0.4050   44.0860   54.4420 C   0  0  0  0  0  0  0  0  0  0  0  0
    0.2630   42.9360   53.6800 C   0  0  0  0  0  0  0  0  0  0  0  0
    1.6000   43.3350   53.2640 N   0  0  0  0  0  0  0  0  0  0  0  0
    2.2740   42.8030   52.2570 N   0  0  0  0  0  0  0  0  0  0  0  0
    3.4940   43.3830   52.2400 C   0  0  0  0  0  0  0  0  0  0  0  0
    3.5830   44.2900   53.2820 C   0  0  0  0  0  0  0  0  0  0  0  0
    4.9540   45.3140   53.6760 S   0  0  2  0  0  6  0  0  0  0  0  0
    5.4770   44.9750   55.3420 C   0  0  0  0  0  0  0  0  0  0  0  0
    4.5300   46.7530   53.5710 O   0  0  0  0  0  0  0  0  0  0  0  0
    6.1340   45.0070   52.6790 N   0  0  0  0  0  0  0  0  0  0  0  0
    6.9490   46.0000   52.0470 C   0  0  0  0  0  0  0  0  0  0  0  0
    6.9630   46.1290   50.7930 O   0  0  0  0  0  0  0  0  0  0  0  0
    7.7210   46.9610   52.9000 C   0  0  2  0  0  0  0  0  0  0  0  0
    8.5030   48.0230   52.1200 C   0  0  0  0  0  0  0  0  0  0  0  0
    9.2510   46.8940   52.8250 C   0  0  0  0  0  0  0  0  0  0  0  0
   10.0030   47.3040   54.0950 C   0  0  0  0  0  0  0  0  0  0  0  0
    9.9330   45.8810   51.8940 C   0  0  0  0  0  0  0  0  0  0  0  0
    2.3600   44.2260   53.9130 C   0  0  0  0  0  0  0  0  0  0  0  0
    1.8930   44.9790   55.1230 C   0  0  0  0  0  0  0  0  0  0  0  0
   -1.3230   49.0951   60.5272 H   0  0  0  0  0  0  0  0  0  0  0  0
   -0.8070   49.8819   58.9972 H   0  0  0  0  0  0  0  0  0  0  0  0
   -2.1954   48.7423   58.9972 H   0  0  0  0  0  0  0  0  0  0  0  0
    1.3340   46.7074   56.8856 H   0  0  0  0  0  0  0  0  0  0  0  0
    1.0937   45.7527   58.3967 H   0  0  0  0  0  0  0  0  0  0  0  0
   -1.3192   43.7133   54.9272 H   0  0  0  0  0  0  0  0  0  0  0  0
   -0.6477   44.8864   53.7275 H   0  0  0  0  0  0  0  0  0  0  0  0
    0.3314   42.0546   54.3345 H   0  0  0  0  0  0  0  0  0  0  0  0
   -0.3371   42.6903   52.7915 H   0  0  0  0  0  0  0  0  0  0  0  0
    4.2910   43.1684   51.5128 H   0  0  0  0  0  0  0  0  0  0  0  0
    4.7697   45.4335   56.0488 H   0  0  0  0  0  0  0  0  0  0  0  0
    5.5038   43.8873   55.5037 H   0  0  0  0  0  0  0  0  0  0  0  0
    6.4809   45.3946   55.5037 H   0  0  0  0  0  0  0  0  0  0  0  0
    6.9937   46.9549   53.7252 H   0  0  0  0  0  0  0  0  0  0  0  0
    8.4521   48.0465   51.0214 H   0  0  0  0  0  0  0  0  0  0  0  0
    8.5549   49.1216   52.1417 H   0  0  0  0  0  0  0  0  0  0  0  0
    9.4281   46.9906   54.9789 H   0  0  0  0  0  0  0  0  0  0  0  0
   10.9904   46.8194   54.1091 H   0  0  0  0  0  0  0  0  0  0  0  0
   10.1305   48.3965   54.1091 H   0  0  0  0  0  0  0  0  0  0  0  0
   10.4470   45.1175   52.4964 H   0  0  0  0  0  0  0  0  0  0  0  0
    9.1752   45.3983   51.2593 H   0  0  0  0  0  0  0  0  0  0  0  0
   10.6653   46.4015   51.2593 H   0  0  0  0  0  0  0  0  0  0  0  0
    2.5469   44.7315   55.9722 H   0  0  0  0  0  0  0  0  0  0  0  0
    1.9343   46.0547   54.8967 H   0  0  0  0  0  0  0  0  0  0  0  0
  1  2  1  0
  2  3  2  0
  2  4  1  0
  4  5  1  0
  5  6  1  0
  6  7  2  0
  6  8  1  0
  8  9  1  0
  9 10  1  0
 10 11  1  0
 11 12  1  0
 12 13  2  0
 13 14  1  0
 14 15  1  0
 15 16  1  1
 15 17  2  0
 15 18  2  0
 18 19  1  0
 19 20  2  0
 19 21  1  0
 21 22  1  0
 22 23  1  0
 23 24  1  0
 23 25  1  0
 14 26  2  0
 26 27  1  0
 27  8  1  0
 26 11  1  0
 23 21  1  0
  1 28  1  0
  1 29  1  0
  1 30  1  0
  5 31  1  0
  5 32  1  0
  9 33  1  0
  9 34  1  0
 10 35  1  0
 10 36  1  0
 13 37  1  0
 16 38  1  0
 16 39  1  0
 16 40  1  0
 21 41  1  1
 22 42  1  0
 22 43  1  0
 24 44  1  0
 24 45  1  0
 24 46  1  0
 25 47  1  0
 25 48  1  0
 25 49  1  0
 27 50  1  0
 27 51  1  0
M  END
>  <meeko>  (2) 
{"is_sidechain": [false], "free_energy": -8.598, "intermolecular_energy": -12.323, "internal_energy": -0.332}

$$$$
ligand_70_conformer_2_docked
     RDKit          3D

 51 53  0  0  0  0  0  0  0  0999 V2000
   -3.6020   42.7030   59.0340 C   0  0  0  0  0  0  0  0  0  0  0  0
   -2.8510   43.1190   57.8160 C   0  0  0  0  0  0  0  0  0  0  0  0
   -2.8420   42.3710   56.8000 O   0  0  0  0  0  0  0  0  0  0  0  0
   -2.2050   44.3590   57.7970 O   0  0  0  0  0  0  0  0  0  0  0  0
   -1.7690   44.9970   56.5980 C   0  0  0  0  0  0  0  0  0  0  0  0
   -0.2720   44.9210   56.4780 C   0  0  0  0  0  0  0  0  0  0  0  0
    0.4270   45.2870   57.4610 O   0  0  0  0  0  0  0  0  0  0  0  0
    0.3670   44.4690   55.2620 N   0  0  0  0  0  0  0  0  0  0  0  0
   -0.4570   43.8630   54.1960 C   0  0  0  0  0  0  0  0  0  0  0  0
    0.3020   42.7340   53.4910 C   0  0  0  0  0  0  0  0  0  0  0  0
    1.6390   43.1890   53.1360 N   0  0  0  0  0  0  0  0  0  0  0  0
    2.3890   42.6750   52.1740 N   0  0  0  0  0  0  0  0  0  0  0  0
    3.5800   43.3110   52.2100 C   0  0  0  0  0  0  0  0  0  0  0  0
    3.5720   44.2380   53.2380 C   0  0  0  0  0  0  0  0  0  0  0  0
    4.8720   45.3320   53.6830 S   0  0  2  0  0  6  0  0  0  0  0  0
    5.3100   45.0560   55.3850 C   0  0  0  0  0  0  0  0  0  0  0  0
    4.3920   46.7470   53.5150 O   0  0  0  0  0  0  0  0  0  0  0  0
    6.1210   45.0540   52.7640 N   0  0  0  0  0  0  0  0  0  0  0  0
    6.9270   46.0680   52.1540 C   0  0  0  0  0  0  0  0  0  0  0  0
    6.9880   46.1830   50.9000 O   0  0  0  0  0  0  0  0  0  0  0  0
    7.6310   47.0630   53.0260 C   0  0  2  0  0  0  0  0  0  0  0  0
    8.4410   48.1180   52.2660 C   0  0  0  0  0  0  0  0  0  0  0  0
    9.1630   47.0220   53.0440 C   0  0  0  0  0  0  0  0  0  0  0  0
    9.8310   47.4760   54.3450 C   0  0  0  0  0  0  0  0  0  0  0  0
    9.9160   45.9980   52.1800 C   0  0  0  0  0  0  0  0  0  0  0  0
    2.3220   44.1260   53.8070 C   0  0  0  0  0  0  0  0  0  0  0  0
    1.7580   44.8740   54.9770 C   0  0  0  0  0  0  0  0  0  0  0  0
   -3.0453   43.0114   59.9312 H   0  0  0  0  0  0  0  0  0  0  0  0
   -4.5927   43.1809   59.0350 H   0  0  0  0  0  0  0  0  0  0  0  0
   -3.7223   41.6096   59.0350 H   0  0  0  0  0  0  0  0  0  0  0  0
   -2.2278   44.4955   55.7331 H   0  0  0  0  0  0  0  0  0  0  0  0
   -2.0714   46.0542   56.6262 H   0  0  0  0  0  0  0  0  0  0  0  0
   -1.3771   43.4554   54.6402 H   0  0  0  0  0  0  0  0  0  0  0  0
   -0.6983   44.6394   53.4551 H   0  0  0  0  0  0  0  0  0  0  0  0
    0.3773   41.8677   54.1646 H   0  0  0  0  0  0  0  0  0  0  0  0
   -0.2393   42.4456   52.5779 H   0  0  0  0  0  0  0  0  0  0  0  0
    4.4234   43.1221   51.5296 H   0  0  0  0  0  0  0  0  0  0  0  0
    4.5608   45.5281   56.0376 H   0  0  0  0  0  0  0  0  0  0  0  0
    5.3412   43.9748   55.5849 H   0  0  0  0  0  0  0  0  0  0  0  0
    6.2988   45.4945   55.5849 H   0  0  0  0  0  0  0  0  0  0  0  0
    6.8560   47.0645   53.8066 H   0  0  0  0  0  0  0  0  0  0  0  0
    8.4560   48.1121   51.1661 H   0  0  0  0  0  0  0  0  0  0  0  0
    8.4736   49.2175   52.2612 H   0  0  0  0  0  0  0  0  0  0  0  0
    9.2622   47.0894   55.2035 H   0  0  0  0  0  0  0  0  0  0  0  0
   10.8602   47.0895   54.3830 H   0  0  0  0  0  0  0  0  0  0  0  0
    9.8505   48.5752   54.3830 H   0  0  0  0  0  0  0  0  0  0  0  0
   10.4410   45.2840   52.8316 H   0  0  0  0  0  0  0  0  0  0  0  0
    9.1994   45.4565   51.5450 H   0  0  0  0  0  0  0  0  0  0  0  0
   10.6465   46.5206   51.5450 H   0  0  0  0  0  0  0  0  0  0  0  0
    2.3776   44.6707   55.8629 H   0  0  0  0  0  0  0  0  0  0  0  0
    1.7608   45.9466   54.7332 H   0  0  0  0  0  0  0  0  0  0  0  0
  1  2  1  0
  2  3  2  0
  2  4  1  0
  4  5  1  0
  5  6  1  0
  6  7  2  0
  6  8  1  0
  8  9  1  0
  9 10  1  0
 10 11  1  0
 11 12  1  0
 12 13  2  0
 13 14  1  0
 14 15  1  0
 15 16  1  1
 15 17  2  0
 15 18  2  0
 18 19  1  0
 19 20  2  0
 19 21  1  0
 21 22  1  0
 22 23  1  0
 23 24  1  0
 23 25  1  0
 14 26  2  0
 26 27  1  0
 27  8  1  0
 26 11  1  0
 23 21  1  0
  1 28  1  0
  1 29  1  0
  1 30  1  0
  5 31  1  0
  5 32  1  0
  9 33  1  0
  9 34  1  0
 10 35  1  0
 10 36  1  0
 13 37  1  0
 16 38  1  0
 16 39  1  0
 16 40  1  0
 21 41  1  1
 22 42  1  0
 22 43  1  0
 24 44  1  0
 24 45  1  0
 24 46  1  0
 25 47  1  0
 25 48  1  0
 25 49  1  0
 27 50  1  0
 27 51  1  0
M  END
>  <meeko>  (3) 
{"is_sidechain": [false], "free_energy": -8.527, "intermolecular_energy": -12.124, "internal_energy": -0.431}

$$$$
ligand_70_conformer_2_docked
     RDKit          3D

 51 53  0  0  0  0  0  0  0  0999 V2000
    7.6890   45.2980   49.9200 C   0  0  0  0  0  0  0  0  0  0  0  0
    8.5510   44.1760   49.4520 C   0  0  0  0  0  0  0  0  0  0  0  0
    9.7520   44.1090   49.8320 O   0  0  0  0  0  0  0  0  0  0  0  0
    8.0020   43.1820   48.6350 O   0  0  0  0  0  0  0  0  0  0  0  0
    6.6080   42.8880   48.5880 C   0  0  0  0  0  0  0  0  0  0  0  0
    6.2200   41.9970   49.7350 C   0  0  0  0  0  0  0  0  0  0  0  0
    6.8610   40.9240   49.9030 O   0  0  0  0  0  0  0  0  0  0  0  0
    5.1240   42.3320   50.6170 N   0  0  0  0  0  0  0  0  0  0  0  0
    3.9400   41.4500   50.6640 C   0  0  0  0  0  0  0  0  0  0  0  0
    2.6580   42.2650   50.8630 C   0  0  0  0  0  0  0  0  0  0  0  0
    2.8410   43.2090   51.9560 N   0  0  0  0  0  0  0  0  0  0  0  0
    1.8660   43.7430   52.6740 N   0  0  0  0  0  0  0  0  0  0  0  0
    2.4320   44.6220   53.5300 C   0  0  0  0  0  0  0  0  0  0  0  0
    3.8000   44.6460   53.3220 C   0  0  0  0  0  0  0  0  0  0  0  0
    4.9840   45.6060   54.1940 S   0  0  2  0  0  6  0  0  0  0  0  0
    5.3630   44.8070   55.7370 C   0  0  0  0  0  0  0  0  0  0  0  0
    4.4000   46.9640   54.4660 O   0  0  0  0  0  0  0  0  0  0  0  0
    6.2930   45.7270   53.3260 N   0  0  0  0  0  0  0  0  0  0  0  0
    7.0420   46.9340   53.1420 C   0  0  0  0  0  0  0  0  0  0  0  0
    6.8410   47.6780   52.1450 O   0  0  0  0  0  0  0  0  0  0  0  0
    8.0100   47.3590   54.2040 C   0  0  2  0  0  0  0  0  0  0  0  0
    8.8450   48.5950   53.8490 C   0  0  0  0  0  0  0  0  0  0  0  0
    9.5040   47.2190   53.8900 C   0  0  0  0  0  0  0  0  0  0  0  0
   10.4210   46.9700   55.0910 C   0  0  0  0  0  0  0  0  0  0  0  0
    9.9570   46.6720   52.5280 C   0  0  0  0  0  0  0  0  0  0  0  0
    4.0210   43.7380   52.3090 C   0  0  0  0  0  0  0  0  0  0  0  0
    5.3170   43.3630   51.6570 C   0  0  0  0  0  0  0  0  0  0  0  0
    7.6753   45.3158   51.0198 H   0  0  0  0  0  0  0  0  0  0  0  0
    8.0899   46.2504   49.5428 H   0  0  0  0  0  0  0  0  0  0  0  0
    6.6655   45.1560   49.5428 H   0  0  0  0  0  0  0  0  0  0  0  0
    6.0376   43.8266   48.6494 H   0  0  0  0  0  0  0  0  0  0  0  0
    6.3847   42.3703   47.6434 H   0  0  0  0  0  0  0  0  0  0  0  0
    3.8689   40.8921   49.7186 H   0  0  0  0  0  0  0  0  0  0  0  0
    4.0512   40.7577   51.5116 H   0  0  0  0  0  0  0  0  0  0  0  0
    2.4278   42.8157   49.9390 H   0  0  0  0  0  0  0  0  0  0  0  0
    1.8279   41.5848   51.1044 H   0  0  0  0  0  0  0  0  0  0  0  0
    1.8907   45.2238   54.2749 H   0  0  0  0  0  0  0  0  0  0  0  0
    5.0555   45.4552   56.5708 H   0  0  0  0  0  0  0  0  0  0  0  0
    4.8225   43.8509   55.7973 H   0  0  0  0  0  0  0  0  0  0  0  0
    6.4454   44.6207   55.7973 H   0  0  0  0  0  0  0  0  0  0  0  0
    7.3710   47.0435   55.0420 H   0  0  0  0  0  0  0  0  0  0  0  0
    8.6926   49.1029   52.8853 H   0  0  0  0  0  0  0  0  0  0  0  0
    9.0406   49.5648   54.3298 H   0  0  0  0  0  0  0  0  0  0  0  0
    9.8557   47.1235   56.0220 H   0  0  0  0  0  0  0  0  0  0  0  0
   10.7976   45.9371   55.0568 H   0  0  0  0  0  0  0  0  0  0  0  0
   11.2684   47.6706   55.0568 H   0  0  0  0  0  0  0  0  0  0  0  0
   10.6517   45.8332   52.6824 H   0  0  0  0  0  0  0  0  0  0  0  0
    9.0801   46.3227   51.9631 H   0  0  0  0  0  0  0  0  0  0  0  0
   10.4636   47.4684   51.9631 H   0  0  0  0  0  0  0  0  0  0  0  0
    5.7562   44.2591   51.1942 H   0  0  0  0  0  0  0  0  0  0  0  0
    5.9844   42.9524   52.4290 H   0  0  0  0  0  0  0  0  0  0  0  0
  1  2  1  0
  2  3  2  0
  2  4  1  0
  4  5  1  0
  5  6  1  0
  6  7  2  0
  6  8  1  0
  8  9  1  0
  9 10  1  0
 10 11  1  0
 11 12  1  0
 12 13  2  0
 13 14  1  0
 14 15  1  0
 15 16  1  1
 15 17  2  0
 15 18  2  0
 18 19  1  0
 19 20  2  0
 19 21  1  0
 21 22  1  0
 22 23  1  0
 23 24  1  0
 23 25  1  0
 14 26  2  0
 26 27  1  0
 27  8  1  0
 26 11  1  0
 23 21  1  0
  1 28  1  0
  1 29  1  0
  1 30  1  0
  5 31  1  0
  5 32  1  0
  9 33  1  0
  9 34  1  0
 10 35  1  0
 10 36  1  0
 13 37  1  0
 16 38  1  0
 16 39  1  0
 16 40  1  0
 21 41  1  1
 22 42  1  0
 22 43  1  0
 24 44  1  0
 24 45  1  0
 24 46  1  0
 25 47  1  0
 25 48  1  0
 25 49  1  0
 27 50  1  0
 27 51  1  0
M  END
>  <meeko>  (4) 
{"is_sidechain": [false], "free_energy": -8.303, "intermolecular_energy": -11.514, "internal_energy": -0.727}

$$$$
ligand_70_conformer_2_docked
     RDKit          3D

 51 53  0  0  0  0  0  0  0  0999 V2000
    0.6260   45.2480   57.0040 C   0  0  0  0  0  0  0  0  0  0  0  0
   -0.8370   45.1750   56.7320 C   0  0  0  0  0  0  0  0  0  0  0  0
   -1.6560   45.2600   57.6880 O   0  0  0  0  0  0  0  0  0  0  0  0
   -1.2870   45.0650   55.4130 O   0  0  0  0  0  0  0  0  0  0  0  0
   -0.9550   43.9720   54.5600 C   0  0  0  0  0  0  0  0  0  0  0  0
   -0.6670   44.4620   53.1680 C   0  0  0  0  0  0  0  0  0  0  0  0
   -1.5870   45.0470   52.5360 O   0  0  0  0  0  0  0  0  0  0  0  0
    0.6200   44.2510   52.5420 N   0  0  0  0  0  0  0  0  0  0  0  0
    0.6770   43.6640   51.1880 C   0  0  0  0  0  0  0  0  0  0  0  0
    1.8940   42.7450   51.0390 C   0  0  0  0  0  0  0  0  0  0  0  0
    3.0840   43.4240   51.5310 N   0  0  0  0  0  0  0  0  0  0  0  0
    4.3270   43.1380   51.1760 N   0  0  0  0  0  0  0  0  0  0  0  0
    5.1440   43.9300   51.9050 C   0  0  0  0  0  0  0  0  0  0  0  0
    4.3830   44.7180   52.7500 C   0  0  0  0  0  0  0  0  0  0  0  0
    4.9710   45.9260   53.8810 S   0  0  2  0  0  6  0  0  0  0  0  0
    3.9670   45.8900   55.3490 C   0  0  0  0  0  0  0  0  0  0  0  0
    4.8660   47.2820   53.2400 O   0  0  0  0  0  0  0  0  0  0  0  0
    6.4670   45.6020   54.2550 N   0  0  0  0  0  0  0  0  0  0  0  0
    7.5160   46.5720   54.3410 C   0  0  0  0  0  0  0  0  0  0  0  0
    7.3380   47.6720   54.9290 O   0  0  0  0  0  0  0  0  0  0  0  0
    8.8720   46.2270   53.8030 C   0  0  2  0  0  0  0  0  0  0  0  0
    9.9000   47.3610   53.8880 C   0  0  0  0  0  0  0  0  0  0  0  0
    9.3300   46.9530   52.5330 C   0  0  0  0  0  0  0  0  0  0  0  0
   10.2910   46.1780   51.6270 C   0  0  0  0  0  0  0  0  0  0  0  0
    8.4160   47.9940   51.8700 C   0  0  0  0  0  0  0  0  0  0  0  0
    3.0780   44.3630   52.4870 C   0  0  0  0  0  0  0  0  0  0  0  0
    1.8230   44.8810   53.1230 C   0  0  0  0  0  0  0  0  0  0  0  0
    0.7969   45.2565   58.0906 H   0  0  0  0  0  0  0  0  0  0  0  0
    1.1254   44.3737   56.5611 H   0  0  0  0  0  0  0  0  0  0  0  0
    1.0359   46.1677   56.5611 H   0  0  0  0  0  0  0  0  0  0  0  0
   -0.0650   43.4608   54.9557 H   0  0  0  0  0  0  0  0  0  0  0  0
   -1.8061   43.2760   54.5243 H   0  0  0  0  0  0  0  0  0  0  0  0
   -0.2384   43.0805   51.0100 H   0  0  0  0  0  0  0  0  0  0  0  0
    0.7622   44.4801   50.4554 H   0  0  0  0  0  0  0  0  0  0  0  0
    1.7311   41.8253   51.6200 H   0  0  0  0  0  0  0  0  0  0  0  0
    2.0316   42.4915   49.9775 H   0  0  0  0  0  0  0  0  0  0  0  0
    6.2418   43.9457   51.8372 H   0  0  0  0  0  0  0  0  0  0  0  0
    4.6154   45.9132   56.2373 H   0  0  0  0  0  0  0  0  0  0  0  0
    3.3002   46.7648   55.3587 H   0  0  0  0  0  0  0  0  0  0  0  0
    3.3646   44.9697   55.3587 H   0  0  0  0  0  0  0  0  0  0  0  0
    8.8246   45.1706   54.1061 H   0  0  0  0  0  0  0  0  0  0  0  0
    9.6182   48.3259   54.3348 H   0  0  0  0  0  0  0  0  0  0  0  0
   10.9123   47.4622   54.3064 H   0  0  0  0  0  0  0  0  0  0  0  0
   10.9987   45.6073   52.2462 H   0  0  0  0  0  0  0  0  0  0  0  0
    9.7185   45.4859   50.9920 H   0  0  0  0  0  0  0  0  0  0  0  0
   10.8461   46.8842   50.9920 H   0  0  0  0  0  0  0  0  0  0  0  0
    7.9024   48.5790   52.6472 H   0  0  0  0  0  0  0  0  0  0  0  0
    9.0204   48.6669   51.2440 H   0  0  0  0  0  0  0  0  0  0  0  0
    7.6706   47.4817   51.2440 H   0  0  0  0  0  0  0  0  0  0  0  0
    1.8537   44.6653   54.2012 H   0  0  0  0  0  0  0  0  0  0  0  0
    1.7664   45.9644   52.9410 H   0  0  0  0  0  0  0  0  0  0  0  0
  1  2  1  0
  2  3  2  0
  2  4  1  0
  4  5  1  0
  5  6  1  0
  6  7  2  0
  6  8  1  0
  8  9  1  0
  9 10  1  0
 10 11  1  0
 11 12  1  0
 12 13  2  0
 13 14  1  0
 14 15  1  0
 15 16  1  1
 15 17  2  0
 15 18  2  0
 18 19  1  0
 19 20  2  0
 19 21  1  0
 21 22  1  0
 22 23  1  0
 23 24  1  0
 23 25  1  0
 14 26  2  0
 26 27  1  0
 27  8  1  0
 26 11  1  0
 23 21  1  0
  1 28  1  0
  1 29  1  0
  1 30  1  0
  5 31  1  0
  5 32  1  0
  9 33  1  0
  9 34  1  0
 10 35  1  0
 10 36  1  0
 13 37  1  0
 16 38  1  0
 16 39  1  0
 16 40  1  0
 21 41  1  6
 22 42  1  0
 22 43  1  0
 24 44  1  0
 24 45  1  0
 24 46  1  0
 25 47  1  0
 25 48  1  0
 25 49  1  0
 27 50  1  0
 27 51  1  0
M  END
>  <meeko>  (5) 
{"is_sidechain": [false], "free_energy": -8.271, "intermolecular_energy": -11.858, "internal_energy": -0.337}

$$$$
