ligand_67_conformer_1_docked
     RDKit          3D

 59 61  0  0  0  0  0  0  0  0999 V2000
    3.1070   46.7750   51.2390 C   0  0  0  0  0  0  0  0  0  0  0  0
    4.0160   47.0000   52.4490 C   0  0  0  0  0  0  0  0  0  0  0  0
    4.7490   45.7930   52.8850 N   0  0  0  0  0  0  0  0  0  0  0  0
    6.1400   45.6800   52.3710 C   0  0  0  0  0  0  0  0  0  0  0  0
    6.9210   46.9680   52.6910 C   0  0  0  0  0  0  0  0  0  0  0  0
    8.3920   46.8410   52.2650 C   0  0  0  0  0  0  0  0  0  0  0  0
    8.5110   46.4750   50.7780 C   0  0  0  0  0  0  0  0  0  0  0  0
    7.7220   45.2000   50.4540 C   0  0  0  0  0  0  0  0  0  0  0  0
    6.2510   45.3540   50.8610 C   0  0  0  0  0  0  0  0  0  0  0  0
    4.4700   45.3510   54.5640 S   0  0  0  0  0  0  0  0  0  0  0  0
    5.2500   44.1080   54.8890 O   0  0  0  0  0  0  0  0  0  0  0  0
    4.9090   46.4570   55.4840 O   0  0  0  0  0  0  0  0  0  0  0  0
    2.7310   45.0160   54.8460 C   0  0  0  0  0  0  0  0  0  0  0  0
    2.1210   44.1530   53.7370 C   0  0  0  0  0  0  0  0  0  0  0  0
    3.0730   43.1530   53.2550 N   0  0  0  0  0  0  0  0  0  0  0  0
    3.2660   42.8740   51.8620 C   0  0  0  0  0  0  0  0  0  0  0  0
    2.7310   43.6130   50.9920 O   0  0  0  0  0  0  0  0  0  0  0  0
    4.0400   41.7280   51.4730 N   0  0  0  0  0  0  0  0  0  0  0  0
    4.3190   41.3530   50.1170 C   0  0  0  0  0  0  0  0  0  0  0  0
    5.4780   41.6060   49.4020 C   0  0  0  0  0  0  0  0  0  0  0  0
    5.2520   41.0140   48.1770 C   0  0  0  0  0  0  0  0  0  0  0  0
    4.0250   40.4480   48.1860 N   0  0  0  0  0  0  0  0  0  0  0  0
    3.4190   39.7120   47.1050 C   0  0  0  0  0  0  0  0  0  0  0  0
    2.7200   38.5200   47.3780 C   0  0  0  0  0  0  0  0  0  0  0  0
    2.1110   37.7990   46.3500 C   0  0  0  0  0  0  0  0  0  0  0  0
    2.1900   38.2530   45.0340 C   0  0  0  0  0  0  0  0  0  0  0  0
    2.8820   39.4290   44.7380 C   0  0  0  0  0  0  0  0  0  0  0  0
    2.9590   39.8450   43.4490 F   0  0  0  0  0  0  0  0  0  0  0  0
    3.5000   40.1640   45.7630 C   0  0  0  0  0  0  0  0  0  0  0  0
    4.2500   41.3460   45.4100 C   0  0  0  0  0  0  0  0  0  0  0  0
    4.8520   42.2930   45.1260 N   0  0  0  0  0  0  0  0  0  0  0  0
    3.4600   40.6390   49.3680 N   0  0  0  0  0  0  0  0  0  0  0  0
    2.0930   46.5240   51.5838 H   0  0  0  0  0  0  0  0  0  0  0  0
    3.0714   47.6914   50.6317 H   0  0  0  0  0  0  0  0  0  0  0  0
    3.5030   45.9478   50.6317 H   0  0  0  0  0  0  0  0  0  0  0  0
    4.7513   47.7759   52.1893 H   0  0  0  0  0  0  0  0  0  0  0  0
    3.3647   47.2951   53.2849 H   0  0  0  0  0  0  0  0  0  0  0  0
    6.5791   44.8154   52.8903 H   0  0  0  0  0  0  0  0  0  0  0  0
    6.4620   47.8101   52.1523 H   0  0  0  0  0  0  0  0  0  0  0  0
    6.8844   47.1390   53.7770 H   0  0  0  0  0  0  0  0  0  0  0  0
    8.9002   47.8008   52.4399 H   0  0  0  0  0  0  0  0  0  0  0  0
    8.8583   46.0409   52.8586 H   0  0  0  0  0  0  0  0  0  0  0  0
    8.1169   47.3042   50.1721 H   0  0  0  0  0  0  0  0  0  0  0  0
    9.5716   46.2954   50.5480 H   0  0  0  0  0  0  0  0  0  0  0  0
    7.7790   45.0051   49.3729 H   0  0  0  0  0  0  0  0  0  0  0  0
    8.1585   44.3616   51.0166 H   0  0  0  0  0  0  0  0  0  0  0  0
    5.7976   46.1704   50.2796 H   0  0  0  0  0  0  0  0  0  0  0  0
    5.7244   44.4093   50.6602 H   0  0  0  0  0  0  0  0  0  0  0  0
    2.6228   44.4887   55.8053 H   0  0  0  0  0  0  0  0  0  0  0  0
    2.1988   45.9787   54.8562 H   0  0  0  0  0  0  0  0  0  0  0  0
    1.2315   43.6397   54.1312 H   0  0  0  0  0  0  0  0  0  0  0  0
    1.8522   44.8090   52.8959 H   0  0  0  0  0  0  0  0  0  0  0  0
    3.6290   42.6180   53.9590 H   0  0  0  0  0  0  0  0  0  0  0  0
    4.3370   41.0650   52.2230 H   0  0  0  0  0  0  0  0  0  0  0  0
    6.3725   42.1530   49.7346 H   0  0  0  0  0  0  0  0  0  0  0  0
    5.9553   41.0042   47.3313 H   0  0  0  0  0  0  0  0  0  0  0  0
    2.6534   38.1534   48.4130 H   0  0  0  0  0  0  0  0  0  0  0  0
    1.5674   36.8704   46.5784 H   0  0  0  0  0  0  0  0  0  0  0  0
    1.7060   37.6833   44.2271 H   0  0  0  0  0  0  0  0  0  0  0  0
  1  2  1  0
  2  3  1  0
  3  4  1  0
  4  5  1  0
  5  6  1  0
  6  7  1  0
  7  8  1  0
  8  9  1  0
  3 10  1  0
 10 11  2  0
 10 12  2  0
 10 13  1  0
 13 14  1  0
 14 15  1  0
 15 16  1  0
 16 17  2  0
 16 18  1  0
 18 19  1  0
 19 20  1  0
 20 21  2  0
 21 22  1  0
 22 23  1  0
 23 24  2  0
 24 25  1  0
 25 26  2  0
 26 27  1  0
 27 28  1  0
 27 29  2  0
 29 30  1  0
 30 31  3  0
 22 32  1  0
  9  4  1  0
 32 19  2  0
 29 23  1  0
  1 33  1  0
  1 34  1  0
  1 35  1  0
  2 36  1  0
  2 37  1  0
  4 38  1  0
  5 39  1  0
  5 40  1  0
  6 41  1  0
  6 42  1  0
  7 43  1  0
  7 44  1  0
  8 45  1  0
  8 46  1  0
  9 47  1  0
  9 48  1  0
 13 49  1  0
 13 50  1  0
 14 51  1  0
 14 52  1  0
 15 53  1  0
 18 54  1  0
 20 55  1  0
 21 56  1  0
 24 57  1  0
 25 58  1  0
 26 59  1  0
M  END
>  <meeko>  (1) 
{"is_sidechain": [false], "free_energy": -8.431, "intermolecular_energy": -12.374, "internal_energy": -1.178}

$$$$
ligand_67_conformer_1_docked
     RDKit          3D

 59 61  0  0  0  0  0  0  0  0999 V2000
    6.4210   44.8490   50.7410 C   0  0  0  0  0  0  0  0  0  0  0  0
    5.4000   45.9320   51.0890 C   0  0  0  0  0  0  0  0  0  0  0  0
    5.4090   46.3350   52.5110 N   0  0  0  0  0  0  0  0  0  0  0  0
    6.6400   47.0400   52.9580 C   0  0  0  0  0  0  0  0  0  0  0  0
    7.6400   47.1370   51.7900 C   0  0  0  0  0  0  0  0  0  0  0  0
    8.8790   47.9510   52.1910 C   0  0  0  0  0  0  0  0  0  0  0  0
    9.5460   47.3680   53.4460 C   0  0  0  0  0  0  0  0  0  0  0  0
    8.5490   47.2580   54.6070 C   0  0  0  0  0  0  0  0  0  0  0  0
    7.3310   46.4200   54.1970 C   0  0  0  0  0  0  0  0  0  0  0  0
    3.8690   46.9510   53.0940 S   0  0  0  0  0  0  0  0  0  0  0  0
    4.0900   48.2610   53.7980 O   0  0  0  0  0  0  0  0  0  0  0  0
    2.9160   47.1660   51.9500 O   0  0  0  0  0  0  0  0  0  0  0  0
    3.1320   45.8030   54.2570 C   0  0  0  0  0  0  0  0  0  0  0  0
    2.2450   44.7660   53.5620 C   0  0  0  0  0  0  0  0  0  0  0  0
    3.0040   43.5660   53.2090 N   0  0  0  0  0  0  0  0  0  0  0  0
    3.3190   43.2190   51.8550 C   0  0  0  0  0  0  0  0  0  0  0  0
    3.0910   44.0390   50.9250 O   0  0  0  0  0  0  0  0  0  0  0  0
    3.8620   41.9200   51.5680 N   0  0  0  0  0  0  0  0  0  0  0  0
    4.2340   41.4610   50.2610 C   0  0  0  0  0  0  0  0  0  0  0  0
    5.4750   41.5770   49.6570 C   0  0  0  0  0  0  0  0  0  0  0  0
    5.3140   40.9520   48.4370 C   0  0  0  0  0  0  0  0  0  0  0  0
    4.0440   40.4990   48.3440 N   0  0  0  0  0  0  0  0  0  0  0  0
    3.4790   39.7720   47.2340 C   0  0  0  0  0  0  0  0  0  0  0  0
    2.7340   38.6020   47.4750 C   0  0  0  0  0  0  0  0  0  0  0  0
    2.1630   37.8910   46.4190 C   0  0  0  0  0  0  0  0  0  0  0  0
    2.3270   38.3330   45.1070 C   0  0  0  0  0  0  0  0  0  0  0  0
    3.0660   39.4880   44.8430 C   0  0  0  0  0  0  0  0  0  0  0  0
    3.2260   39.8930   43.5580 F   0  0  0  0  0  0  0  0  0  0  0  0
    3.6470   40.2140   45.8970 C   0  0  0  0  0  0  0  0  0  0  0  0
    4.4470   41.3720   45.5800 C   0  0  0  0  0  0  0  0  0  0  0  0
    5.0900   42.3010   45.3240 N   0  0  0  0  0  0  0  0  0  0  0  0
    3.3880   40.7930   49.4560 N   0  0  0  0  0  0  0  0  0  0  0  0
    6.8279   44.4174   51.6674 H   0  0  0  0  0  0  0  0  0  0  0  0
    5.9314   44.0590   50.1526 H   0  0  0  0  0  0  0  0  0  0  0  0
    7.2385   45.2912   50.1526 H   0  0  0  0  0  0  0  0  0  0  0  0
    5.6161   46.8200   50.4769 H   0  0  0  0  0  0  0  0  0  0  0  0
    4.4057   45.5077   50.8857 H   0  0  0  0  0  0  0  0  0  0  0  0
    6.3101   48.0399   53.2764 H   0  0  0  0  0  0  0  0  0  0  0  0
    7.9540   46.1233   51.5005 H   0  0  0  0  0  0  0  0  0  0  0  0
    7.1461   47.6434   50.9476 H   0  0  0  0  0  0  0  0  0  0  0  0
    9.6013   47.9366   51.3615 H   0  0  0  0  0  0  0  0  0  0  0  0
    8.5619   48.9808   52.4122 H   0  0  0  0  0  0  0  0  0  0  0  0
    9.9357   46.3663   53.2122 H   0  0  0  0  0  0  0  0  0  0  0  0
   10.3609   48.0412   53.7507 H   0  0  0  0  0  0  0  0  0  0  0  0
    9.0445   46.7796   55.4646 H   0  0  0  0  0  0  0  0  0  0  0  0
    8.2086   48.2682   54.8783 H   0  0  0  0  0  0  0  0  0  0  0  0
    7.6591   45.3982   53.9553 H   0  0  0  0  0  0  0  0  0  0  0  0
    6.6148   46.4003   55.0317 H   0  0  0  0  0  0  0  0  0  0  0  0
    3.9356   45.2785   54.7948 H   0  0  0  0  0  0  0  0  0  0  0  0
    2.4995   46.3805   54.9472 H   0  0  0  0  0  0  0  0  0  0  0  0
    1.4251   44.4847   54.2392 H   0  0  0  0  0  0  0  0  0  0  0  0
    1.8510   45.2115   52.6366 H   0  0  0  0  0  0  0  0  0  0  0  0
    3.3210   42.9360   53.9790 H   0  0  0  0  0  0  0  0  0  0  0  0
    3.8950   41.2250   52.3460 H   0  0  0  0  0  0  0  0  0  0  0  0
    6.3803   42.0567   50.0574 H   0  0  0  0  0  0  0  0  0  0  0  0
    6.0915   40.8408   47.6669 H   0  0  0  0  0  0  0  0  0  0  0  0
    2.6007   38.2446   48.5067 H   0  0  0  0  0  0  0  0  0  0  0  0
    1.5819   36.9794   46.6222 H   0  0  0  0  0  0  0  0  0  0  0  0
    1.8731   37.7705   44.2778 H   0  0  0  0  0  0  0  0  0  0  0  0
  1  2  1  0
  2  3  1  0
  3  4  1  0
  4  5  1  0
  5  6  1  0
  6  7  1  0
  7  8  1  0
  8  9  1  0
  3 10  1  0
 10 11  2  0
 10 12  2  0
 10 13  1  0
 13 14  1  0
 14 15  1  0
 15 16  1  0
 16 17  2  0
 16 18  1  0
 18 19  1  0
 19 20  1  0
 20 21  2  0
 21 22  1  0
 22 23  1  0
 23 24  2  0
 24 25  1  0
 25 26  2  0
 26 27  1  0
 27 28  1  0
 27 29  2  0
 29 30  1  0
 30 31  3  0
 22 32  1  0
  9  4  1  0
 32 19  2  0
 29 23  1  0
  1 33  1  0
  1 34  1  0
  1 35  1  0
  2 36  1  0
  2 37  1  0
  4 38  1  0
  5 39  1  0
  5 40  1  0
  6 41  1  0
  6 42  1  0
  7 43  1  0
  7 44  1  0
  8 45  1  0
  8 46  1  0
  9 47  1  0
  9 48  1  0
 13 49  1  0
 13 50  1  0
 14 51  1  0
 14 52  1  0
 15 53  1  0
 18 54  1  0
 20 55  1  0
 21 56  1  0
 24 57  1  0
 25 58  1  0
 26 59  1  0
M  END
>  <meeko>  (2) 
{"is_sidechain": [false], "free_energy": -8.388, "intermolecular_energy": -13.662, "internal_energy": 0.174}

$$$$
ligand_67_conformer_1_docked
     RDKit          3D

 59 61  0  0  0  0  0  0  0  0999 V2000
   -2.8000   41.7740   51.2350 C   0  0  0  0  0  0  0  0  0  0  0  0
   -2.5890   43.1870   51.7800 C   0  0  0  0  0  0  0  0  0  0  0  0
   -1.7950   43.2410   53.0250 N   0  0  0  0  0  0  0  0  0  0  0  0
   -0.3550   43.5670   52.8400 C   0  0  0  0  0  0  0  0  0  0  0  0
   -0.1580   44.3260   51.5140 C   0  0  0  0  0  0  0  0  0  0  0  0
    1.3030   44.7680   51.3440 C   0  0  0  0  0  0  0  0  0  0  0  0
    2.2620   43.5730   51.4480 C   0  0  0  0  0  0  0  0  0  0  0  0
    2.0590   42.8080   52.7620 C   0  0  0  0  0  0  0  0  0  0  0  0
    0.6010   42.3510   52.9030 C   0  0  0  0  0  0  0  0  0  0  0  0
   -2.6260   43.9960   54.3770 S   0  0  0  0  0  0  0  0  0  0  0  0
   -2.8030   45.4620   54.0990 O   0  0  0  0  0  0  0  0  0  0  0  0
   -3.9790   43.3720   54.5840 O   0  0  0  0  0  0  0  0  0  0  0  0
   -1.6690   43.8200   55.8830 C   0  0  0  0  0  0  0  0  0  0  0  0
   -1.2410   45.1750   56.4570 C   0  0  0  0  0  0  0  0  0  0  0  0
   -0.2570   45.8320   55.5980 N   0  0  0  0  0  0  0  0  0  0  0  0
    1.0830   45.3480   55.4430 C   0  0  0  0  0  0  0  0  0  0  0  0
    1.4080   44.2280   55.9220 O   0  0  0  0  0  0  0  0  0  0  0  0
    2.0550   46.1660   54.7710 N   0  0  0  0  0  0  0  0  0  0  0  0
    3.4190   45.7880   54.5380 C   0  0  0  0  0  0  0  0  0  0  0  0
    4.2800   45.1740   55.4320 C   0  0  0  0  0  0  0  0  0  0  0  0
    5.4440   45.0010   54.7120 C   0  0  0  0  0  0  0  0  0  0  0  0
    5.2610   45.4900   53.4650 N   0  0  0  0  0  0  0  0  0  0  0  0
    6.2310   45.4830   52.3980 C   0  0  0  0  0  0  0  0  0  0  0  0
    5.9880   44.7150   51.2420 C   0  0  0  0  0  0  0  0  0  0  0  0
    6.9030   44.7050   50.1890 C   0  0  0  0  0  0  0  0  0  0  0  0
    8.0750   45.4570   50.2710 C   0  0  0  0  0  0  0  0  0  0  0  0
    8.3390   46.2220   51.4080 C   0  0  0  0  0  0  0  0  0  0  0  0
    9.4910   46.9350   51.4740 F   0  0  0  0  0  0  0  0  0  0  0  0
    7.4260   46.2410   52.4760 C   0  0  0  0  0  0  0  0  0  0  0  0
    7.7600   47.0020   53.6570 C   0  0  0  0  0  0  0  0  0  0  0  0
    8.0290   47.6120   54.6030 N   0  0  0  0  0  0  0  0  0  0  0  0
    4.0280   45.9570   53.3500 N   0  0  0  0  0  0  0  0  0  0  0  0
   -2.9052   41.0696   52.0733 H   0  0  0  0  0  0  0  0  0  0  0  0
   -3.7116   41.7506   50.6198 H   0  0  0  0  0  0  0  0  0  0  0  0
   -1.9350   41.4853   50.6198 H   0  0  0  0  0  0  0  0  0  0  0  0
   -2.0689   43.7792   51.0126 H   0  0  0  0  0  0  0  0  0  0  0  0
   -3.5853   43.5859   52.0216 H   0  0  0  0  0  0  0  0  0  0  0  0
   -0.0808   44.1983   53.6981 H   0  0  0  0  0  0  0  0  0  0  0  0
   -0.4339   43.6667   50.6778 H   0  0  0  0  0  0  0  0  0  0  0  0
   -0.7959   45.2221   51.5252 H   0  0  0  0  0  0  0  0  0  0  0  0
    1.4226   45.2389   50.3571 H   0  0  0  0  0  0  0  0  0  0  0  0
    1.5464   45.4800   52.1464 H   0  0  0  0  0  0  0  0  0  0  0  0
    2.0779   42.8914   50.6045 H   0  0  0  0  0  0  0  0  0  0  0  0
    3.2940   43.9529   51.4234 H   0  0  0  0  0  0  0  0  0  0  0  0
    2.7165   41.9262   52.7719 H   0  0  0  0  0  0  0  0  0  0  0  0
    2.3035   43.4754   53.6015 H   0  0  0  0  0  0  0  0  0  0  0  0
    0.3583   41.6566   52.0852 H   0  0  0  0  0  0  0  0  0  0  0  0
    0.4768   41.8499   53.8743 H   0  0  0  0  0  0  0  0  0  0  0  0
   -2.2800   43.2948   56.6319 H   0  0  0  0  0  0  0  0  0  0  0  0
   -0.7584   43.2524   55.6408 H   0  0  0  0  0  0  0  0  0  0  0  0
   -2.1264   45.8216   56.5462 H   0  0  0  0  0  0  0  0  0  0  0  0
   -0.7814   45.0040   57.4416 H   0  0  0  0  0  0  0  0  0  0  0  0
   -0.5460   46.6930   55.0820 H   0  0  0  0  0  0  0  0  0  0  0  0
    1.7800   47.1420   54.5230 H   0  0  0  0  0  0  0  0  0  0  0  0
    4.0815   44.8897   56.4759 H   0  0  0  0  0  0  0  0  0  0  0  0
    6.3688   44.5409   55.0903 H   0  0  0  0  0  0  0  0  0  0  0  0
    5.0675   44.1172   51.1691 H   0  0  0  0  0  0  0  0  0  0  0  0
    6.6997   44.1024   49.2915 H   0  0  0  0  0  0  0  0  0  0  0  0
    8.7928   45.4470   49.4375 H   0  0  0  0  0  0  0  0  0  0  0  0
  1  2  1  0
  2  3  1  0
  3  4  1  0
  4  5  1  0
  5  6  1  0
  6  7  1  0
  7  8  1  0
  8  9  1  0
  3 10  1  0
 10 11  2  0
 10 12  2  0
 10 13  1  0
 13 14  1  0
 14 15  1  0
 15 16  1  0
 16 17  2  0
 16 18  1  0
 18 19  1  0
 19 20  1  0
 20 21  2  0
 21 22  1  0
 22 23  1  0
 23 24  2  0
 24 25  1  0
 25 26  2  0
 26 27  1  0
 27 28  1  0
 27 29  2  0
 29 30  1  0
 30 31  3  0
 22 32  1  0
  9  4  1  0
 32 19  2  0
 29 23  1  0
  1 33  1  0
  1 34  1  0
  1 35  1  0
  2 36  1  0
  2 37  1  0
  4 38  1  0
  5 39  1  0
  5 40  1  0
  6 41  1  0
  6 42  1  0
  7 43  1  0
  7 44  1  0
  8 45  1  0
  8 46  1  0
  9 47  1  0
  9 48  1  0
 13 49  1  0
 13 50  1  0
 14 51  1  0
 14 52  1  0
 15 53  1  0
 18 54  1  0
 20 55  1  0
 21 56  1  0
 24 57  1  0
 25 58  1  0
 26 59  1  0
M  END
>  <meeko>  (3) 
{"is_sidechain": [false], "free_energy": -8.249, "intermolecular_energy": -11.779, "internal_energy": -1.506}

$$$$
ligand_67_conformer_1_docked
     RDKit          3D

 59 61  0  0  0  0  0  0  0  0999 V2000
   -3.3970   42.6280   51.9690 C   0  0  0  0  0  0  0  0  0  0  0  0
   -2.6830   43.8610   52.5260 C   0  0  0  0  0  0  0  0  0  0  0  0
   -1.6840   43.5580   53.5720 N   0  0  0  0  0  0  0  0  0  0  0  0
   -0.2650   43.6740   53.1400 C   0  0  0  0  0  0  0  0  0  0  0  0
   -0.2030   44.1180   51.6670 C   0  0  0  0  0  0  0  0  0  0  0  0
    1.2500   44.3470   51.2210 C   0  0  0  0  0  0  0  0  0  0  0  0
    2.1100   43.0980   51.4620 C   0  0  0  0  0  0  0  0  0  0  0  0
    2.0380   42.6460   52.9260 C   0  0  0  0  0  0  0  0  0  0  0  0
    0.5840   42.3960   53.3460 C   0  0  0  0  0  0  0  0  0  0  0  0
   -2.0970   44.1800   55.1630 S   0  0  0  0  0  0  0  0  0  0  0  0
   -3.3780   44.9610   55.0770 O   0  0  0  0  0  0  0  0  0  0  0  0
   -2.2780   43.0530   56.1440 O   0  0  0  0  0  0  0  0  0  0  0  0
   -0.8090   45.2730   55.7650 C   0  0  0  0  0  0  0  0  0  0  0  0
    0.1410   44.5670   56.7370 C   0  0  0  0  0  0  0  0  0  0  0  0
    1.4140   45.2780   56.8510 N   0  0  0  0  0  0  0  0  0  0  0  0
    2.1720   45.6970   55.7090 C   0  0  0  0  0  0  0  0  0  0  0  0
    1.6730   45.6090   54.5540 O   0  0  0  0  0  0  0  0  0  0  0  0
    3.5130   46.1810   55.8910 N   0  0  0  0  0  0  0  0  0  0  0  0
    4.3650   46.6440   54.8340 C   0  0  0  0  0  0  0  0  0  0  0  0
    4.0350   47.5330   53.8250 C   0  0  0  0  0  0  0  0  0  0  0  0
    5.2020   47.6670   53.1020 C   0  0  0  0  0  0  0  0  0  0  0  0
    6.1560   46.8950   53.6670 N   0  0  0  0  0  0  0  0  0  0  0  0
    7.5230   46.7700   53.2250 C   0  0  0  0  0  0  0  0  0  0  0  0
    8.5570   47.3500   53.9840 C   0  0  0  0  0  0  0  0  0  0  0  0
    9.8880   47.2290   53.5860 C   0  0  0  0  0  0  0  0  0  0  0  0
   10.2110   46.5290   52.4240 C   0  0  0  0  0  0  0  0  0  0  0  0
    9.2020   45.9490   51.6520 C   0  0  0  0  0  0  0  0  0  0  0  0
    9.5360   45.2840   50.5160 F   0  0  0  0  0  0  0  0  0  0  0  0
    7.8570   46.0640   52.0410 C   0  0  0  0  0  0  0  0  0  0  0  0
    6.8400   45.4960   51.1890 C   0  0  0  0  0  0  0  0  0  0  0  0
    6.0250   45.0410   50.5040 N   0  0  0  0  0  0  0  0  0  0  0  0
    5.6560   46.2810   54.7280 N   0  0  0  0  0  0  0  0  0  0  0  0
   -3.7574   42.0057   52.8014 H   0  0  0  0  0  0  0  0  0  0  0  0
   -4.2508   42.9459   51.3525 H   0  0  0  0  0  0  0  0  0  0  0  0
   -2.6963   42.0458   51.3525 H   0  0  0  0  0  0  0  0  0  0  0  0
   -2.1705   44.3682   51.6953 H   0  0  0  0  0  0  0  0  0  0  0  0
   -3.4541   44.4891   52.9960 H   0  0  0  0  0  0  0  0  0  0  0  0
    0.1851   44.4324   53.7974 H   0  0  0  0  0  0  0  0  0  0  0  0
   -0.6539   43.3373   51.0368 H   0  0  0  0  0  0  0  0  0  0  0  0
   -0.7546   45.0640   51.5628 H   0  0  0  0  0  0  0  0  0  0  0  0
    1.2618   44.5888   50.1480 H   0  0  0  0  0  0  0  0  0  0  0  0
    1.6681   45.1760   51.8108 H   0  0  0  0  0  0  0  0  0  0  0  0
    1.7478   42.2837   50.8173 H   0  0  0  0  0  0  0  0  0  0  0  0
    3.1555   43.3454   51.2260 H   0  0  0  0  0  0  0  0  0  0  0  0
    2.6132   41.7160   53.0454 H   0  0  0  0  0  0  0  0  0  0  0  0
    2.4581   43.4392   53.5618 H   0  0  0  0  0  0  0  0  0  0  0  0
    0.1659   41.5811   52.7369 H   0  0  0  0  0  0  0  0  0  0  0  0
    0.5626   42.1214   54.4110 H   0  0  0  0  0  0  0  0  0  0  0  0
   -0.2280   45.6422   54.9070 H   0  0  0  0  0  0  0  0  0  0  0  0
   -1.2929   46.0995   56.3060 H   0  0  0  0  0  0  0  0  0  0  0  0
   -0.3323   44.5195   57.7288 H   0  0  0  0  0  0  0  0  0  0  0  0
    0.3424   43.5567   56.3514 H   0  0  0  0  0  0  0  0  0  0  0  0
    1.7840   45.4820   57.8050 H   0  0  0  0  0  0  0  0  0  0  0  0
    3.9340   46.0960   56.8430 H   0  0  0  0  0  0  0  0  0  0  0  0
    3.0658   48.0200   53.6422 H   0  0  0  0  0  0  0  0  0  0  0  0
    5.3343   48.2989   52.2114 H   0  0  0  0  0  0  0  0  0  0  0  0
    8.3122   47.9051   54.9016 H   0  0  0  0  0  0  0  0  0  0  0  0
   10.6851   47.6869   54.1902 H   0  0  0  0  0  0  0  0  0  0  0  0
   11.2623   46.4335   52.1149 H   0  0  0  0  0  0  0  0  0  0  0  0
  1  2  1  0
  2  3  1  0
  3  4  1  0
  4  5  1  0
  5  6  1  0
  6  7  1  0
  7  8  1  0
  8  9  1  0
  3 10  1  0
 10 11  2  0
 10 12  2  0
 10 13  1  0
 13 14  1  0
 14 15  1  0
 15 16  1  0
 16 17  2  0
 16 18  1  0
 18 19  1  0
 19 20  1  0
 20 21  2  0
 21 22  1  0
 22 23  1  0
 23 24  2  0
 24 25  1  0
 25 26  2  0
 26 27  1  0
 27 28  1  0
 27 29  2  0
 29 30  1  0
 30 31  3  0
 22 32  1  0
  9  4  1  0
 32 19  2  0
 29 23  1  0
  1 33  1  0
  1 34  1  0
  1 35  1  0
  2 36  1  0
  2 37  1  0
  4 38  1  0
  5 39  1  0
  5 40  1  0
  6 41  1  0
  6 42  1  0
  7 43  1  0
  7 44  1  0
  8 45  1  0
  8 46  1  0
  9 47  1  0
  9 48  1  0
 13 49  1  0
 13 50  1  0
 14 51  1  0
 14 52  1  0
 15 53  1  0
 18 54  1  0
 20 55  1  0
 21 56  1  0
 24 57  1  0
 25 58  1  0
 26 59  1  0
M  END
>  <meeko>  (4) 
{"is_sidechain": [false], "free_energy": -8.242, "intermolecular_energy": -12.999, "internal_energy": -0.276}

$$$$
ligand_67_conformer_1_docked
     RDKit          3D

 59 61  0  0  0  0  0  0  0  0999 V2000
    2.9800   46.4180   51.1260 C   0  0  0  0  0  0  0  0  0  0  0  0
    4.4460   46.0620   50.8740 C   0  0  0  0  0  0  0  0  0  0  0  0
    5.0370   45.1800   51.9020 N   0  0  0  0  0  0  0  0  0  0  0  0
    5.3920   43.8140   51.4330 C   0  0  0  0  0  0  0  0  0  0  0  0
    6.2030   43.9060   50.1260 C   0  0  0  0  0  0  0  0  0  0  0  0
    6.6740   42.5160   49.6710 C   0  0  0  0  0  0  0  0  0  0  0  0
    5.4910   41.5490   49.5230 C   0  0  0  0  0  0  0  0  0  0  0  0
    4.6730   41.4660   50.8190 C   0  0  0  0  0  0  0  0  0  0  0  0
    4.1890   42.8580   51.2440 C   0  0  0  0  0  0  0  0  0  0  0  0
    6.1750   45.9860   52.9730 S   0  0  0  0  0  0  0  0  0  0  0  0
    7.1280   44.9740   53.5420 O   0  0  0  0  0  0  0  0  0  0  0  0
    6.9590   47.0310   52.2260 O   0  0  0  0  0  0  0  0  0  0  0  0
    5.3100   46.7720   54.3340 C   0  0  0  0  0  0  0  0  0  0  0  0
    4.7800   45.7530   55.3470 C   0  0  0  0  0  0  0  0  0  0  0  0
    3.9540   44.7360   54.6980 N   0  0  0  0  0  0  0  0  0  0  0  0
    2.5670   44.9390   54.3960 C   0  0  0  0  0  0  0  0  0  0  0  0
    2.0540   46.0830   54.5340 O   0  0  0  0  0  0  0  0  0  0  0  0
    1.7660   43.8240   53.9720 N   0  0  0  0  0  0  0  0  0  0  0  0
    0.3760   43.9020   53.6260 C   0  0  0  0  0  0  0  0  0  0  0  0
   -0.6630   43.1680   54.1730 C   0  0  0  0  0  0  0  0  0  0  0  0
   -1.7850   43.6410   53.5240 C   0  0  0  0  0  0  0  0  0  0  0  0
   -1.4100   44.6000   52.6490 N   0  0  0  0  0  0  0  0  0  0  0  0
   -2.2860   45.3590   51.7910 C   0  0  0  0  0  0  0  0  0  0  0  0
   -2.8680   46.5490   52.2670 C   0  0  0  0  0  0  0  0  0  0  0  0
   -3.7060   47.3100   51.4500 C   0  0  0  0  0  0  0  0  0  0  0  0
   -3.9800   46.8940   50.1470 C   0  0  0  0  0  0  0  0  0  0  0  0
   -3.4180   45.7150   49.6550 C   0  0  0  0  0  0  0  0  0  0  0  0
   -3.7080   45.3210   48.3890 F   0  0  0  0  0  0  0  0  0  0  0  0
   -2.5730   44.9400   50.4670 C   0  0  0  0  0  0  0  0  0  0  0  0
   -2.0540   43.7000   49.9400 C   0  0  0  0  0  0  0  0  0  0  0  0
   -1.6400   42.7050   49.5160 N   0  0  0  0  0  0  0  0  0  0  0  0
   -0.0990   44.7720   52.7160 N   0  0  0  0  0  0  0  0  0  0  0  0
    2.7946   46.4630   52.2093 H   0  0  0  0  0  0  0  0  0  0  0  0
    2.7575   47.3963   50.6750 H   0  0  0  0  0  0  0  0  0  0  0  0
    2.3336   45.6507   50.6750 H   0  0  0  0  0  0  0  0  0  0  0  0
    4.5159   45.5538   49.9009 H   0  0  0  0  0  0  0  0  0  0  0  0
    5.0112   47.0053   50.9017 H   0  0  0  0  0  0  0  0  0  0  0  0
    5.9945   43.3700   52.2392 H   0  0  0  0  0  0  0  0  0  0  0  0
    5.5710   44.3465   49.3408 H   0  0  0  0  0  0  0  0  0  0  0  0
    7.0878   44.5342   50.3062 H   0  0  0  0  0  0  0  0  0  0  0  0
    7.1840   42.6099   48.7009 H   0  0  0  0  0  0  0  0  0  0  0  0
    7.3587   42.1142   50.4324 H   0  0  0  0  0  0  0  0  0  0  0  0
    4.8394   41.9018   48.7100 H   0  0  0  0  0  0  0  0  0  0  0  0
    5.8871   40.5478   49.2977 H   0  0  0  0  0  0  0  0  0  0  0  0
    3.8016   40.8151   50.6550 H   0  0  0  0  0  0  0  0  0  0  0  0
    5.3116   41.0551   51.6149 H   0  0  0  0  0  0  0  0  0  0  0  0
    3.5231   43.2627   50.4676 H   0  0  0  0  0  0  0  0  0  0  0  0
    3.6488   42.7717   52.1983 H   0  0  0  0  0  0  0  0  0  0  0  0
    6.0031   47.4546   54.8475 H   0  0  0  0  0  0  0  0  0  0  0  0
    4.4484   47.3151   53.9184 H   0  0  0  0  0  0  0  0  0  0  0  0
    5.6320   45.2614   55.8394 H   0  0  0  0  0  0  0  0  0  0  0  0
    4.1591   46.2862   56.0820 H   0  0  0  0  0  0  0  0  0  0  0  0
    4.3950   43.8220   54.4510 H   0  0  0  0  0  0  0  0  0  0  0  0
    2.1960   42.8740   54.0150 H   0  0  0  0  0  0  0  0  0  0  0  0
   -0.6068   42.3879   54.9465 H   0  0  0  0  0  0  0  0  0  0  0  0
   -2.8154   43.2944   53.6914 H   0  0  0  0  0  0  0  0  0  0  0  0
   -2.6602   46.8830   53.2942 H   0  0  0  0  0  0  0  0  0  0  0  0
   -4.1511   48.2395   51.8345 H   0  0  0  0  0  0  0  0  0  0  0  0
   -4.6404   47.4964   49.5059 H   0  0  0  0  0  0  0  0  0  0  0  0
  1  2  1  0
  2  3  1  0
  3  4  1  0
  4  5  1  0
  5  6  1  0
  6  7  1  0
  7  8  1  0
  8  9  1  0
  3 10  1  0
 10 11  2  0
 10 12  2  0
 10 13  1  0
 13 14  1  0
 14 15  1  0
 15 16  1  0
 16 17  2  0
 16 18  1  0
 18 19  1  0
 19 20  1  0
 20 21  2  0
 21 22  1  0
 22 23  1  0
 23 24  2  0
 24 25  1  0
 25 26  2  0
 26 27  1  0
 27 28  1  0
 27 29  2  0
 29 30  1  0
 30 31  3  0
 22 32  1  0
  9  4  1  0
 32 19  2  0
 29 23  1  0
  1 33  1  0
  1 34  1  0
  1 35  1  0
  2 36  1  0
  2 37  1  0
  4 38  1  0
  5 39  1  0
  5 40  1  0
  6 41  1  0
  6 42  1  0
  7 43  1  0
  7 44  1  0
  8 45  1  0
  8 46  1  0
  9 47  1  0
  9 48  1  0
 13 49  1  0
 13 50  1  0
 14 51  1  0
 14 52  1  0
 15 53  1  0
 18 54  1  0
 20 55  1  0
 21 56  1  0
 24 57  1  0
 25 58  1  0
 26 59  1  0
M  END
>  <meeko>  (5) 
{"is_sidechain": [false], "free_energy": -8.054, "intermolecular_energy": -11.181, "internal_energy": -1.817}

$$$$
