MODEL 1
REMARK VINA RESULT:    -9.155      0.000      0.000
REMARK INTER + INTRA:         -12.676
REMARK INTER:                 -11.831
REMARK INTRA:                  -0.845
REMARK UNBOUND:                -0.845
REMARK SMILES Cc1cccc(Oc2ccc(C(=O)Nc3cccc([C@H]4CCC(=O)N4)c3)nc2)c1
REMARK SMILES IDX 8 1 9 2 10 3 11 4 27 5 28 6 7 7 6 8 2 9 3 10 29 11 4 12 5 13
REMARK SMILES IDX 1 14 12 15 13 16 14 17 15 19 16 20 26 21 17 22 19 23 18 24
REMARK SMILES IDX 20 25 21 26 25 27 22 28 23 29 24 30
REMARK H PARENT 14 18 25 31
ROOT
ATOM      1  C   UNL     1      -0.586  43.864  53.740  1.00  0.00     0.145 A 
ATOM      2  C   UNL     1      -0.675  44.781  52.681  1.00  0.00     0.051 A 
ATOM      3  C   UNL     1       0.483  45.213  52.029  1.00  0.00     0.038 A 
ATOM      4  C   UNL     1       1.732  44.713  52.437  1.00  0.00     0.128 A 
ATOM      5  N   UNL     1       1.788  43.822  53.466  1.00  0.00    -0.247 NA
ATOM      6  C   UNL     1       0.676  43.408  54.126  1.00  0.00     0.159 A 
ENDROOT
BRANCH   1   7
ATOM      7  O   UNL     1      -1.712  43.434  54.457  1.00  0.00    -0.456 OA
BRANCH   7   8
ATOM      8  C   UNL     1      -2.191  44.008  55.643  1.00  0.00     0.127 A 
ATOM      9  C   UNL     1      -3.110  43.689  57.876  1.00  0.00    -0.047 A 
ATOM     10  C   UNL     1      -3.263  45.078  58.007  1.00  0.00     0.003 A 
ATOM     11  C   UNL     1      -2.591  43.160  56.683  1.00  0.00     0.050 A 
ATOM     12  C   UNL     1      -2.880  45.928  56.966  1.00  0.00     0.004 A 
ATOM     13  C   UNL     1      -2.342  45.399  55.790  1.00  0.00     0.047 A 
ATOM     14  C   UNL     1      -3.568  42.765  58.966  1.00  0.00     0.044 C 
ENDBRANCH   7   8
ENDBRANCH   1   7
BRANCH   4  15
ATOM     15  C   UNL     1       2.980  45.131  51.761  1.00  0.00     0.274 C 
ATOM     16  O   UNL     1       2.924  45.923  50.781  1.00  0.00    -0.267 OA
ATOM     17  N   UNL     1       4.256  44.684  52.252  1.00  0.00    -0.321 N 
ATOM     18  H   UNL     1       4.305  44.306  53.225  1.00  0.00     0.170 HD
BRANCH  17  19
ATOM     19  C   UNL     1       5.492  44.800  51.525  1.00  0.00     0.041 A 
ATOM     20  C   UNL     1       5.731  43.946  50.439  1.00  0.00     0.026 A 
ATOM     21  C   UNL     1       6.442  45.789  51.841  1.00  0.00     0.032 A 
ATOM     22  C   UNL     1       6.911  44.053  49.701  1.00  0.00     0.003 A 
ATOM     23  C   UNL     1       7.634  45.901  51.099  1.00  0.00    -0.024 A 
ATOM     24  C   UNL     1       7.860  45.021  50.031  1.00  0.00     0.006 A 
BRANCH  23  25
ATOM     25  C   UNL     1       8.667  46.949  51.453  1.00  0.00     0.113 C 
ATOM     26  C   UNL     1       8.042  48.197  52.134  1.00  0.00     0.040 C 
ATOM     27  N   UNL     1       9.617  46.408  52.409  1.00  0.00    -0.349 N 
ATOM     28  C   UNL     1       8.606  48.268  53.565  1.00  0.00     0.102 C 
ATOM     29  C   UNL     1       9.575  47.154  53.604  1.00  0.00     0.220 C 
ATOM     30  O   UNL     1      10.288  46.876  54.606  1.00  0.00    -0.275 OA
ATOM     31  H   UNL     1      10.236  45.584  52.239  1.00  0.00     0.164 HD
ENDBRANCH  23  25
ENDBRANCH  17  19
ENDBRANCH   4  15
TORSDOF 5
ENDMDL
MODEL 2
REMARK VINA RESULT:    -9.081      2.721     10.319
REMARK INTER + INTRA:         -12.581
REMARK INTER:                 -11.723
REMARK INTRA:                  -0.858
REMARK UNBOUND:                -0.845
REMARK SMILES Cc1cccc(Oc2ccc(C(=O)Nc3cccc([C@H]4CCC(=O)N4)c3)nc2)c1
REMARK SMILES IDX 8 1 9 2 10 3 11 4 27 5 28 6 7 7 6 8 2 9 3 10 29 11 4 12 5 13
REMARK SMILES IDX 1 14 12 15 13 16 14 17 15 19 16 20 26 21 17 22 19 23 18 24
REMARK SMILES IDX 20 25 21 26 25 27 22 28 23 29 24 30
REMARK H PARENT 14 18 25 31
ROOT
ATOM      1  C   UNL     1       5.144  47.106  53.428  1.00  0.00     0.145 A 
ATOM      2  C   UNL     1       5.232  45.870  54.087  1.00  0.00     0.051 A 
ATOM      3  C   UNL     1       4.077  45.121  54.328  1.00  0.00     0.038 A 
ATOM      4  C   UNL     1       2.834  45.611  53.894  1.00  0.00     0.128 A 
ATOM      5  N   UNL     1       2.778  46.812  53.254  1.00  0.00    -0.247 NA
ATOM      6  C   UNL     1       3.887  47.565  53.031  1.00  0.00     0.159 A 
ENDROOT
BRANCH   1   7
ATOM      7  O   UNL     1       6.266  47.917  53.203  1.00  0.00    -0.456 OA
BRANCH   7   8
ATOM      8  C   UNL     1       7.594  47.472  53.138  1.00  0.00     0.127 A 
ATOM      9  C   UNL     1       9.743  47.194  54.248  1.00  0.00    -0.047 A 
ATOM     10  C   UNL     1      10.293  46.705  53.053  1.00  0.00     0.003 A 
ATOM     11  C   UNL     1       8.398  47.593  54.277  1.00  0.00     0.050 A 
ATOM     12  C   UNL     1       9.499  46.597  51.908  1.00  0.00     0.004 A 
ATOM     13  C   UNL     1       8.154  46.974  51.948  1.00  0.00     0.047 A 
ATOM     14  C   UNL     1      10.601  47.365  55.467  1.00  0.00     0.044 C 
ENDBRANCH   7   8
ENDBRANCH   1   7
BRANCH   4  15
ATOM     15  C   UNL     1       1.589  44.841  54.113  1.00  0.00     0.274 C 
ATOM     16  O   UNL     1       1.567  43.606  53.859  1.00  0.00    -0.267 OA
ATOM     17  N   UNL     1       0.426  45.482  54.665  1.00  0.00    -0.321 N 
ATOM     18  H   UNL     1       0.553  46.396  55.156  1.00  0.00     0.170 HD
BRANCH  17  19
ATOM     19  C   UNL     1      -0.894  44.911  54.663  1.00  0.00     0.041 A 
ATOM     20  C   UNL     1      -1.526  44.639  55.885  1.00  0.00     0.026 A 
ATOM     21  C   UNL     1      -1.591  44.673  53.463  1.00  0.00     0.032 A 
ATOM     22  C   UNL     1      -2.816  44.107  55.912  1.00  0.00     0.003 A 
ATOM     23  C   UNL     1      -2.893  44.138  53.485  1.00  0.00    -0.024 A 
ATOM     24  C   UNL     1      -3.496  43.853  54.720  1.00  0.00     0.006 A 
BRANCH  23  25
ATOM     25  C   UNL     1      -3.635  43.860  52.195  1.00  0.00     0.113 C 
ATOM     26  C   UNL     1      -3.733  45.112  51.281  1.00  0.00     0.040 C 
ATOM     27  N   UNL     1      -2.926  42.857  51.421  1.00  0.00    -0.349 N 
ATOM     28  C   UNL     1      -2.947  44.802  49.995  1.00  0.00     0.102 C 
ATOM     29  C   UNL     1      -2.534  43.396  50.178  1.00  0.00     0.220 C 
ATOM     30  O   UNL     1      -1.881  42.736  49.325  1.00  0.00    -0.275 OA
ATOM     31  H   UNL     1      -2.730  41.881  51.738  1.00  0.00     0.164 HD
ENDBRANCH  23  25
ENDBRANCH  17  19
ENDBRANCH   4  15
TORSDOF 5
ENDMDL
MODEL 3
REMARK VINA RESULT:    -8.493      2.227     10.133
REMARK INTER + INTRA:         -11.821
REMARK INTER:                 -10.887
REMARK INTRA:                  -0.934
REMARK UNBOUND:                -0.845
REMARK SMILES Cc1cccc(Oc2ccc(C(=O)Nc3cccc([C@H]4CCC(=O)N4)c3)nc2)c1
REMARK SMILES IDX 8 1 9 2 10 3 11 4 27 5 28 6 7 7 6 8 2 9 3 10 29 11 4 12 5 13
REMARK SMILES IDX 1 14 12 15 13 16 14 17 15 19 16 20 26 21 17 22 19 23 18 24
REMARK SMILES IDX 20 25 21 26 25 27 22 28 23 29 24 30
REMARK H PARENT 14 18 25 31
ROOT
ATOM      1  C   UNL     1       5.675  45.183  50.913  1.00  0.00     0.145 A 
ATOM      2  C   UNL     1       5.511  43.922  51.510  1.00  0.00     0.051 A 
ATOM      3  C   UNL     1       4.271  43.552  52.034  1.00  0.00     0.038 A 
ATOM      4  C   UNL     1       3.190  44.447  51.949  1.00  0.00     0.128 A 
ATOM      5  N   UNL     1       3.377  45.662  51.363  1.00  0.00    -0.247 NA
ATOM      6  C   UNL     1       4.582  46.049  50.867  1.00  0.00     0.159 A 
ENDROOT
BRANCH   1   7
ATOM      7  O   UNL     1       6.910  45.620  50.413  1.00  0.00    -0.456 OA
BRANCH   7   8
ATOM      8  C   UNL     1       8.046  45.907  51.184  1.00  0.00     0.127 A 
ATOM      9  C   UNL     1       9.012  47.039  53.111  1.00  0.00    -0.047 A 
ATOM     10  C   UNL     1      10.290  46.614  52.715  1.00  0.00     0.003 A 
ATOM     11  C   UNL     1       7.897  46.697  52.329  1.00  0.00     0.050 A 
ATOM     12  C   UNL     1      10.447  45.839  51.564  1.00  0.00     0.004 A 
ATOM     13  C   UNL     1       9.332  45.481  50.801  1.00  0.00     0.047 A 
ATOM     14  C   UNL     1       8.840  47.917  54.316  1.00  0.00     0.044 C 
ENDBRANCH   7   8
ENDBRANCH   1   7
BRANCH   4  15
ATOM     15  C   UNL     1       1.855  44.086  52.476  1.00  0.00     0.274 C 
ATOM     16  O   UNL     1       1.716  43.030  53.152  1.00  0.00    -0.267 OA
ATOM     17  N   UNL     1       0.733  44.961  52.269  1.00  0.00    -0.321 N 
ATOM     18  H   UNL     1       0.923  45.952  51.998  1.00  0.00     0.170 HD
BRANCH  17  19
ATOM     19  C   UNL     1      -0.639  44.588  52.492  1.00  0.00     0.041 A 
ATOM     20  C   UNL     1      -1.302  43.810  51.533  1.00  0.00     0.026 A 
ATOM     21  C   UNL     1      -1.313  44.937  53.677  1.00  0.00     0.032 A 
ATOM     22  C   UNL     1      -2.626  43.414  51.734  1.00  0.00     0.003 A 
ATOM     23  C   UNL     1      -2.648  44.539  53.886  1.00  0.00    -0.024 A 
ATOM     24  C   UNL     1      -3.298  43.779  52.901  1.00  0.00     0.006 A 
BRANCH  23  25
ATOM     25  C   UNL     1      -3.382  44.933  55.149  1.00  0.00     0.113 C 
ATOM     26  C   UNL     1      -3.559  43.744  56.132  1.00  0.00     0.040 C 
ATOM     27  N   UNL     1      -2.623  45.938  55.873  1.00  0.00    -0.349 N 
ATOM     28  C   UNL     1      -2.767  44.082  57.407  1.00  0.00     0.102 C 
ATOM     29  C   UNL     1      -2.272  45.449  57.148  1.00  0.00     0.220 C 
ATOM     30  O   UNL     1      -1.589  46.119  57.970  1.00  0.00    -0.275 OA
ATOM     31  H   UNL     1      -2.368  46.881  55.502  1.00  0.00     0.164 HD
ENDBRANCH  23  25
ENDBRANCH  17  19
ENDBRANCH   4  15
TORSDOF 5
ENDMDL
MODEL 4
REMARK VINA RESULT:    -8.451      6.634      8.520
REMARK INTER + INTRA:         -11.767
REMARK INTER:                 -10.911
REMARK INTRA:                  -0.856
REMARK UNBOUND:                -0.845
REMARK SMILES Cc1cccc(Oc2ccc(C(=O)Nc3cccc([C@H]4CCC(=O)N4)c3)nc2)c1
REMARK SMILES IDX 8 1 9 2 10 3 11 4 27 5 28 6 7 7 6 8 2 9 3 10 29 11 4 12 5 13
REMARK SMILES IDX 1 14 12 15 13 16 14 17 15 19 16 20 26 21 17 22 19 23 18 24
REMARK SMILES IDX 20 25 21 26 25 27 22 28 23 29 24 30
REMARK H PARENT 14 18 25 31
ROOT
ATOM      1  C   UNL     1       3.483  40.395  46.774  1.00  0.00     0.145 A 
ATOM      2  C   UNL     1       4.487  41.138  46.134  1.00  0.00     0.051 A 
ATOM      3  C   UNL     1       5.509  41.725  46.884  1.00  0.00     0.038 A 
ATOM      4  C   UNL     1       5.528  41.555  48.279  1.00  0.00     0.128 A 
ATOM      5  N   UNL     1       4.542  40.826  48.873  1.00  0.00    -0.247 NA
ATOM      6  C   UNL     1       3.528  40.267  48.164  1.00  0.00     0.159 A 
ENDROOT
BRANCH   1   7
ATOM      7  O   UNL     1       2.411  39.824  46.074  1.00  0.00    -0.456 OA
BRANCH   7   8
ATOM      8  C   UNL     1       2.296  38.473  45.718  1.00  0.00     0.127 A 
ATOM      9  C   UNL     1       1.293  36.296  46.146  1.00  0.00    -0.047 A 
ATOM     10  C   UNL     1       2.092  35.734  45.138  1.00  0.00     0.003 A 
ATOM     11  C   UNL     1       1.414  37.662  46.443  1.00  0.00     0.050 A 
ATOM     12  C   UNL     1       2.984  36.535  44.421  1.00  0.00     0.004 A 
ATOM     13  C   UNL     1       3.086  37.900  44.705  1.00  0.00     0.047 A 
ATOM     14  C   UNL     1       0.371  35.433  46.957  1.00  0.00     0.044 C 
ENDBRANCH   7   8
ENDBRANCH   1   7
BRANCH   4  15
ATOM     15  C   UNL     1       6.602  42.145  49.108  1.00  0.00     0.274 C 
ATOM     16  O   UNL     1       7.059  41.499  50.090  1.00  0.00    -0.267 OA
ATOM     17  N   UNL     1       7.163  43.424  48.765  1.00  0.00    -0.321 N 
ATOM     18  H   UNL     1       7.008  43.788  47.798  1.00  0.00     0.170 HD
BRANCH  17  19
ATOM     19  C   UNL     1       7.999  44.204  49.638  1.00  0.00     0.041 A 
ATOM     20  C   UNL     1       9.380  43.959  49.665  1.00  0.00     0.026 A 
ATOM     21  C   UNL     1       7.473  45.248  50.423  1.00  0.00     0.032 A 
ATOM     22  C   UNL     1      10.218  44.718  50.485  1.00  0.00     0.003 A 
ATOM     23  C   UNL     1       8.314  46.017  51.250  1.00  0.00    -0.024 A 
ATOM     24  C   UNL     1       9.689  45.737  51.277  1.00  0.00     0.006 A 
BRANCH  23  25
ATOM     25  C   UNL     1       7.746  47.124  52.112  1.00  0.00     0.113 C 
ATOM     26  C   UNL     1       6.664  46.613  53.102  1.00  0.00     0.040 C 
ATOM     27  N   UNL     1       8.795  47.702  52.933  1.00  0.00    -0.349 N 
ATOM     28  C   UNL     1       7.205  46.833  54.525  1.00  0.00     0.102 C 
ATOM     29  C   UNL     1       8.487  47.530  54.298  1.00  0.00     0.220 C 
ATOM     30  O   UNL     1       9.249  47.924  55.223  1.00  0.00    -0.275 OA
ATOM     31  H   UNL     1       9.654  48.171  52.567  1.00  0.00     0.164 HD
ENDBRANCH  23  25
ENDBRANCH  17  19
ENDBRANCH   4  15
TORSDOF 5
ENDMDL
MODEL 5
REMARK VINA RESULT:    -8.428      6.438      8.706
REMARK INTER + INTRA:         -11.736
REMARK INTER:                 -10.817
REMARK INTRA:                  -0.919
REMARK UNBOUND:                -0.845
REMARK SMILES Cc1cccc(Oc2ccc(C(=O)Nc3cccc([C@H]4CCC(=O)N4)c3)nc2)c1
REMARK SMILES IDX 8 1 9 2 10 3 11 4 27 5 28 6 7 7 6 8 2 9 3 10 29 11 4 12 5 13
REMARK SMILES IDX 1 14 12 15 13 16 14 17 15 19 16 20 26 21 17 22 19 23 18 24
REMARK SMILES IDX 20 25 21 26 25 27 22 28 23 29 24 30
REMARK H PARENT 14 18 25 31
ROOT
ATOM      1  C   UNL     1       3.639  40.401  46.280  1.00  0.00     0.145 A 
ATOM      2  C   UNL     1       4.685  41.194  45.780  1.00  0.00     0.051 A 
ATOM      3  C   UNL     1       5.594  41.788  46.659  1.00  0.00     0.038 A 
ATOM      4  C   UNL     1       5.457  41.576  48.042  1.00  0.00     0.128 A 
ATOM      5  N   UNL     1       4.435  40.800  48.498  1.00  0.00    -0.247 NA
ATOM      6  C   UNL     1       3.528  40.232  47.661  1.00  0.00     0.159 A 
ENDROOT
BRANCH   1   7
ATOM      7  O   UNL     1       2.674  39.820  45.444  1.00  0.00    -0.456 OA
BRANCH   7   8
ATOM      8  C   UNL     1       1.797  40.519  44.603  1.00  0.00     0.127 A 
ATOM      9  C   UNL     1       0.757  40.735  42.412  1.00  0.00    -0.047 A 
ATOM     10  C   UNL     1       0.141  41.926  42.826  1.00  0.00     0.003 A 
ATOM     11  C   UNL     1       1.599  40.047  43.300  1.00  0.00     0.050 A 
ATOM     12  C   UNL     1       0.348  42.411  44.120  1.00  0.00     0.004 A 
ATOM     13  C   UNL     1       1.168  41.711  45.008  1.00  0.00     0.047 A 
ATOM     14  C   UNL     1       0.584  40.236  41.007  1.00  0.00     0.044 C 
ENDBRANCH   7   8
ENDBRANCH   1   7
BRANCH   4  15
ATOM     15  C   UNL     1       6.409  42.173  49.005  1.00  0.00     0.274 C 
ATOM     16  O   UNL     1       6.550  41.654  50.146  1.00  0.00    -0.267 OA
ATOM     17  N   UNL     1       7.210  43.306  48.627  1.00  0.00    -0.321 N 
ATOM     18  H   UNL     1       7.315  43.517  47.609  1.00  0.00     0.170 HD
BRANCH  17  19
ATOM     19  C   UNL     1       7.949  44.123  49.551  1.00  0.00     0.041 A 
ATOM     20  C   UNL     1       9.340  43.971  49.640  1.00  0.00     0.026 A 
ATOM     21  C   UNL     1       7.317  45.112  50.328  1.00  0.00     0.032 A 
ATOM     22  C   UNL     1      10.086  44.768  50.511  1.00  0.00     0.003 A 
ATOM     23  C   UNL     1       8.064  45.919  51.207  1.00  0.00    -0.024 A 
ATOM     24  C   UNL     1       9.453  45.733  51.294  1.00  0.00     0.006 A 
BRANCH  23  25
ATOM     25  C   UNL     1       7.383  46.968  52.060  1.00  0.00     0.113 C 
ATOM     26  C   UNL     1       6.401  46.350  53.092  1.00  0.00     0.040 C 
ATOM     27  N   UNL     1       8.371  47.695  52.837  1.00  0.00    -0.349 N 
ATOM     28  C   UNL     1       6.947  46.673  54.494  1.00  0.00     0.102 C 
ATOM     29  C   UNL     1       8.123  47.522  54.214  1.00  0.00     0.220 C 
ATOM     30  O   UNL     1       8.852  48.032  55.107  1.00  0.00    -0.275 OA
ATOM     31  H   UNL     1       9.153  48.260  52.436  1.00  0.00     0.164 HD
ENDBRANCH  23  25
ENDBRANCH  17  19
ENDBRANCH   4  15
TORSDOF 5
ENDMDL
