ligand_43_conformer_4_docked
     RDKit          3D

 55 58  0  0  0  0  0  0  0  0999 V2000
    7.3210   43.0520   49.3230 C   0  0  0  0  0  0  0  0  0  0  0  0
    6.8430   41.6430   49.6560 C   0  0  0  0  0  0  0  0  0  0  0  0
    5.3840   41.6460   49.9830 C   0  0  0  0  0  0  0  0  0  0  0  0
    4.4880   40.8220   49.4050 N   0  0  0  0  0  0  0  0  0  0  0  0
    3.3450   41.1710   49.9110 O   0  0  0  0  0  0  0  0  0  0  0  0
    3.5150   42.1640   50.7500 C   0  0  0  0  0  0  0  0  0  0  0  0
    2.4220   42.8160   51.5000 C   0  0  0  0  0  0  0  0  0  0  0  0
    1.1840   43.0550   50.8900 C   0  0  0  0  0  0  0  0  0  0  0  0
    0.1510   43.6620   51.6050 C   0  0  0  0  0  0  0  0  0  0  0  0
    0.3310   44.0350   52.9460 C   0  0  0  0  0  0  0  0  0  0  0  0
   -0.8180   44.6600   53.6920 C   0  0  0  0  0  0  0  0  0  0  0  0
    1.5780   43.8030   53.5740 C   0  0  0  0  0  0  0  0  0  0  0  0
    1.7860   44.1760   54.9540 N   0  0  0  0  0  0  0  0  0  0  0  0
    2.0800   45.5420   55.3940 C   0  0  0  0  0  0  0  0  0  0  0  0
    3.5110   45.9010   55.0890 C   0  0  0  0  0  0  0  0  0  0  0  0
    3.8100   47.1130   54.4490 C   0  0  0  0  0  0  0  0  0  0  0  0
    5.1370   47.4690   54.1960 C   0  0  0  0  0  0  0  0  0  0  0  0
    6.1860   46.6210   54.5870 C   0  0  0  0  0  0  0  0  0  0  0  0
    7.5920   46.9910   54.3290 C   0  0  0  0  0  0  0  0  0  0  0  0
    8.1650   47.7910   55.1180 O   0  0  0  0  0  0  0  0  0  0  0  0
    8.3100   46.4810   53.1910 N   0  0  0  0  0  0  0  0  0  0  0  0
    7.6710   46.0080   51.9730 C   0  0  0  0  0  0  0  0  0  0  0  0
    8.7640   46.0040   50.9120 C   0  0  0  0  0  0  0  0  0  0  0  0
   10.0820   46.0450   51.6790 C   0  0  0  0  0  0  0  0  0  0  0  0
    9.7470   46.6370   53.0410 C   0  0  0  0  0  0  0  0  0  0  0  0
    5.8850   45.3930   55.1950 C   0  0  0  0  0  0  0  0  0  0  0  0
    4.5570   45.0370   55.4490 C   0  0  0  0  0  0  0  0  0  0  0  0
    2.6150   43.2000   52.8350 C   0  0  0  0  0  0  0  0  0  0  0  0
    4.8120   42.5210   50.8350 N   0  0  0  0  0  0  0  0  0  0  0  0
    7.5087   43.6053   50.2550 H   0  0  0  0  0  0  0  0  0  0  0  0
    8.2501   42.9951   48.7369 H   0  0  0  0  0  0  0  0  0  0  0  0
    6.5490   43.5721   48.7369 H   0  0  0  0  0  0  0  0  0  0  0  0
    7.0181   40.9877   48.7900 H   0  0  0  0  0  0  0  0  0  0  0  0
    7.4016   41.2762   50.5297 H   0  0  0  0  0  0  0  0  0  0  0  0
    1.0253   42.7626   49.8415 H   0  0  0  0  0  0  0  0  0  0  0  0
   -0.8145   43.8502   51.1126 H   0  0  0  0  0  0  0  0  0  0  0  0
   -0.6464   44.5667   54.7745 H   0  0  0  0  0  0  0  0  0  0  0  0
   -0.8943   45.7239   53.4232 H   0  0  0  0  0  0  0  0  0  0  0  0
   -1.7526   44.1460   53.4232 H   0  0  0  0  0  0  0  0  0  0  0  0
    1.8120   43.4340   55.6890 H   0  0  0  0  0  0  0  0  0  0  0  0
    1.4122   46.2420   54.8705 H   0  0  0  0  0  0  0  0  0  0  0  0
    1.9222   45.6062   56.4807 H   0  0  0  0  0  0  0  0  0  0  0  0
    2.9953   47.7866   54.1448 H   0  0  0  0  0  0  0  0  0  0  0  0
    5.3614   48.4185   53.6879 H   0  0  0  0  0  0  0  0  0  0  0  0
    7.2726   44.9929   52.1177 H   0  0  0  0  0  0  0  0  0  0  0  0
    6.8243   46.6475   51.6828 H   0  0  0  0  0  0  0  0  0  0  0  0
    8.7033   45.0907   50.3019 H   0  0  0  0  0  0  0  0  0  0  0  0
    8.6667   46.8575   50.2249 H   0  0  0  0  0  0  0  0  0  0  0  0
   10.4919   45.0305   51.7919 H   0  0  0  0  0  0  0  0  0  0  0  0
   10.8404   46.6423   51.1518 H   0  0  0  0  0  0  0  0  0  0  0  0
   10.2775   46.0939   53.8370 H   0  0  0  0  0  0  0  0  0  0  0  0
   10.0521   47.6914   53.1132 H   0  0  0  0  0  0  0  0  0  0  0  0
    6.6982   44.7065   55.4734 H   0  0  0  0  0  0  0  0  0  0  0  0
    4.3309   44.0755   55.9331 H   0  0  0  0  0  0  0  0  0  0  0  0
    3.5909   43.0278   53.3124 H   0  0  0  0  0  0  0  0  0  0  0  0
  1  2  1  0
  2  3  1  0
  3  4  2  0
  4  5  1  0
  5  6  1  0
  6  7  1  0
  7  8  2  0
  8  9  1  0
  9 10  2  0
 10 11  1  0
 10 12  1  0
 12 13  1  0
 13 14  1  0
 14 15  1  0
 15 16  2  0
 16 17  1  0
 17 18  2  0
 18 19  1  0
 19 20  2  0
 19 21  1  0
 21 22  1  0
 22 23  1  0
 23 24  1  0
 24 25  1  0
 18 26  1  0
 26 27  2  0
 12 28  2  0
  6 29  2  0
 29  3  1  0
 28  7  1  0
 27 15  1  0
 25 21  1  0
  1 30  1  0
  1 31  1  0
  1 32  1  0
  2 33  1  0
  2 34  1  0
  8 35  1  0
  9 36  1  0
 11 37  1  0
 11 38  1  0
 11 39  1  0
 13 40  1  0
 14 41  1  0
 14 42  1  0
 16 43  1  0
 17 44  1  0
 22 45  1  0
 22 46  1  0
 23 47  1  0
 23 48  1  0
 24 49  1  0
 24 50  1  0
 25 51  1  0
 25 52  1  0
 26 53  1  0
 27 54  1  0
 28 55  1  0
M  END
>  <meeko>  (1) 
{"is_sidechain": [false], "free_energy": -9.568, "intermolecular_energy": -12.924, "internal_energy": -1.402}

$$$$
ligand_43_conformer_4_docked
     RDKit          3D

 55 58  0  0  0  0  0  0  0  0999 V2000
    9.9540   47.2090   54.4630 C   0  0  0  0  0  0  0  0  0  0  0  0
    9.6040   47.3000   52.9830 C   0  0  0  0  0  0  0  0  0  0  0  0
    8.1340   47.1170   52.7780 C   0  0  0  0  0  0  0  0  0  0  0  0
    7.2180   48.0660   53.0530 N   0  0  0  0  0  0  0  0  0  0  0  0
    6.0760   47.5070   52.7950 O   0  0  0  0  0  0  0  0  0  0  0  0
    6.2660   46.2750   52.3910 C   0  0  0  0  0  0  0  0  0  0  0  0
    5.1800   45.3440   52.0210 C   0  0  0  0  0  0  0  0  0  0  0  0
    3.8400   45.7420   52.1100 C   0  0  0  0  0  0  0  0  0  0  0  0
    2.8180   44.8630   51.7500 C   0  0  0  0  0  0  0  0  0  0  0  0
    3.1140   43.5720   51.2850 C   0  0  0  0  0  0  0  0  0  0  0  0
    1.9840   42.6640   50.8790 C   0  0  0  0  0  0  0  0  0  0  0  0
    4.4630   43.1550   51.1940 C   0  0  0  0  0  0  0  0  0  0  0  0
    4.7930   41.8320   50.7170 N   0  0  0  0  0  0  0  0  0  0  0  0
    5.8130   41.5630   49.7010 C   0  0  0  0  0  0  0  0  0  0  0  0
    5.1710   41.2490   48.3750 C   0  0  0  0  0  0  0  0  0  0  0  0
    4.0280   40.4370   48.3240 C   0  0  0  0  0  0  0  0  0  0  0  0
    3.4040   40.1720   47.1020 C   0  0  0  0  0  0  0  0  0  0  0  0
    3.9110   40.7210   45.9130 C   0  0  0  0  0  0  0  0  0  0  0  0
    3.2560   40.4510   44.6180 C   0  0  0  0  0  0  0  0  0  0  0  0
    3.8490   39.7210   43.7760 O   0  0  0  0  0  0  0  0  0  0  0  0
    1.9740   41.0160   44.2880 N   0  0  0  0  0  0  0  0  0  0  0  0
    1.4420   42.2290   44.8890 C   0  0  0  0  0  0  0  0  0  0  0  0
    0.3330   42.6970   43.9560 C   0  0  0  0  0  0  0  0  0  0  0  0
   -0.0220   41.4860   43.0990 C   0  0  0  0  0  0  0  0  0  0  0  0
    1.2050   40.5840   43.1330 C   0  0  0  0  0  0  0  0  0  0  0  0
    5.0740   41.5050   45.9610 C   0  0  0  0  0  0  0  0  0  0  0  0
    5.6960   41.7710   47.1840 C   0  0  0  0  0  0  0  0  0  0  0  0
    5.4830   44.0500   51.5730 C   0  0  0  0  0  0  0  0  0  0  0  0
    7.5770   45.9610   52.3640 N   0  0  0  0  0  0  0  0  0  0  0  0
    9.0632   47.4406   55.0654 H   0  0  0  0  0  0  0  0  0  0  0  0
   10.2997   46.1911   54.6961 H   0  0  0  0  0  0  0  0  0  0  0  0
   10.7518   47.9296   54.6961 H   0  0  0  0  0  0  0  0  0  0  0  0
    9.9022   48.2875   52.6010 H   0  0  0  0  0  0  0  0  0  0  0  0
   10.1393   46.5056   52.4423 H   0  0  0  0  0  0  0  0  0  0  0  0
    3.5921   46.7530   52.4656 H   0  0  0  0  0  0  0  0  0  0  0  0
    1.7693   45.1850   51.8314 H   0  0  0  0  0  0  0  0  0  0  0  0
    1.4907   42.2676   51.7788 H   0  0  0  0  0  0  0  0  0  0  0  0
    1.2552   43.2306   50.2808 H   0  0  0  0  0  0  0  0  0  0  0  0
    2.3804   41.8303   50.2808 H   0  0  0  0  0  0  0  0  0  0  0  0
    4.2320   41.0130   51.0420 H   0  0  0  0  0  0  0  0  0  0  0  0
    6.4557   42.4488   49.5907 H   0  0  0  0  0  0  0  0  0  0  0  0
    6.4108   40.6963   50.0196 H   0  0  0  0  0  0  0  0  0  0  0  0
    3.6209   40.0067   49.2508 H   0  0  0  0  0  0  0  0  0  0  0  0
    2.5112   39.5302   47.0713 H   0  0  0  0  0  0  0  0  0  0  0  0
    1.0375   42.0161   45.8895 H   0  0  0  0  0  0  0  0  0  0  0  0
    2.2202   42.9965   45.0129 H   0  0  0  0  0  0  0  0  0  0  0  0
   -0.5420   43.0271   44.5352 H   0  0  0  0  0  0  0  0  0  0  0  0
    0.6527   43.5509   43.3406 H   0  0  0  0  0  0  0  0  0  0  0  0
   -0.8946   40.9627   43.5170 H   0  0  0  0  0  0  0  0  0  0  0  0
   -0.2832   41.7781   42.0712 H   0  0  0  0  0  0  0  0  0  0  0  0
    0.9051   39.5314   43.2429 H   0  0  0  0  0  0  0  0  0  0  0  0
    1.7896   40.6559   42.2040 H   0  0  0  0  0  0  0  0  0  0  0  0
    5.4982   41.9122   45.0314 H   0  0  0  0  0  0  0  0  0  0  0  0
    6.6026   42.3934   47.2125 H   0  0  0  0  0  0  0  0  0  0  0  0
    6.5335   43.7288   51.5166 H   0  0  0  0  0  0  0  0  0  0  0  0
  1  2  1  0
  2  3  1  0
  3  4  2  0
  4  5  1  0
  5  6  1  0
  6  7  1  0
  7  8  2  0
  8  9  1  0
  9 10  2  0
 10 11  1  0
 10 12  1  0
 12 13  1  0
 13 14  1  0
 14 15  1  0
 15 16  2  0
 16 17  1  0
 17 18  2  0
 18 19  1  0
 19 20  2  0
 19 21  1  0
 21 22  1  0
 22 23  1  0
 23 24  1  0
 24 25  1  0
 18 26  1  0
 26 27  2  0
 12 28  2  0
  6 29  2  0
 29  3  1  0
 28  7  1  0
 27 15  1  0
 25 21  1  0
  1 30  1  0
  1 31  1  0
  1 32  1  0
  2 33  1  0
  2 34  1  0
  8 35  1  0
  9 36  1  0
 11 37  1  0
 11 38  1  0
 11 39  1  0
 13 40  1  0
 14 41  1  0
 14 42  1  0
 16 43  1  0
 17 44  1  0
 22 45  1  0
 22 46  1  0
 23 47  1  0
 23 48  1  0
 24 49  1  0
 24 50  1  0
 25 51  1  0
 25 52  1  0
 26 53  1  0
 27 54  1  0
 28 55  1  0
M  END
>  <meeko>  (2) 
{"is_sidechain": [false], "free_energy": -8.66, "intermolecular_energy": -12.074, "internal_energy": -1.025}

$$$$
ligand_43_conformer_4_docked
     RDKit          3D

 55 58  0  0  0  0  0  0  0  0999 V2000
    5.8860   41.5550   49.1520 C   0  0  0  0  0  0  0  0  0  0  0  0
    6.4080   42.6750   48.2590 C   0  0  0  0  0  0  0  0  0  0  0  0
    7.3750   43.5360   49.0060 C   0  0  0  0  0  0  0  0  0  0  0  0
    8.6770   43.6500   48.6810 N   0  0  0  0  0  0  0  0  0  0  0  0
    9.1770   44.4320   49.5890 O   0  0  0  0  0  0  0  0  0  0  0  0
    8.2410   44.7790   50.4390 C   0  0  0  0  0  0  0  0  0  0  0  0
    8.4620   45.6580   51.6060 C   0  0  0  0  0  0  0  0  0  0  0  0
    9.6750   46.3400   51.7640 C   0  0  0  0  0  0  0  0  0  0  0  0
    9.8760   47.1760   52.8620 C   0  0  0  0  0  0  0  0  0  0  0  0
    8.8660   47.3540   53.8220 C   0  0  0  0  0  0  0  0  0  0  0  0
    9.1110   48.2880   54.9770 C   0  0  0  0  0  0  0  0  0  0  0  0
    7.6370   46.6670   53.6770 C   0  0  0  0  0  0  0  0  0  0  0  0
    6.5820   46.8360   54.6500 N   0  0  0  0  0  0  0  0  0  0  0  0
    5.3300   47.5450   54.3780 C   0  0  0  0  0  0  0  0  0  0  0  0
    4.3550   46.6440   53.6650 C   0  0  0  0  0  0  0  0  0  0  0  0
    3.7740   47.0550   52.4560 C   0  0  0  0  0  0  0  0  0  0  0  0
    2.8980   46.2090   51.7700 C   0  0  0  0  0  0  0  0  0  0  0  0
    2.5960   44.9370   52.2800 C   0  0  0  0  0  0  0  0  0  0  0  0
    1.6750   44.0340   51.5600 C   0  0  0  0  0  0  0  0  0  0  0  0
    2.1550   43.1990   50.7450 O   0  0  0  0  0  0  0  0  0  0  0  0
    0.2500   44.1020   51.7490 N   0  0  0  0  0  0  0  0  0  0  0  0
   -0.4520   45.2880   52.2130 C   0  0  0  0  0  0  0  0  0  0  0  0
   -1.9110   45.0750   51.8340 C   0  0  0  0  0  0  0  0  0  0  0  0
   -2.0550   43.5790   51.5730 C   0  0  0  0  0  0  0  0  0  0  0  0
   -0.6540   43.0840   51.2410 C   0  0  0  0  0  0  0  0  0  0  0  0
    3.1500   44.5400   53.5070 C   0  0  0  0  0  0  0  0  0  0  0  0
    4.0270   45.3850   54.1920 C   0  0  0  0  0  0  0  0  0  0  0  0
    7.4550   45.8170   52.5690 C   0  0  0  0  0  0  0  0  0  0  0  0
    7.0540   44.2260   50.1190 N   0  0  0  0  0  0  0  0  0  0  0  0
    6.0171   41.8362   50.2073 H   0  0  0  0  0  0  0  0  0  0  0  0
    4.8181   41.3898   48.9465 H   0  0  0  0  0  0  0  0  0  0  0  0
    6.4462   40.6309   48.9465 H   0  0  0  0  0  0  0  0  0  0  0  0
    6.9141   42.2357   47.3867 H   0  0  0  0  0  0  0  0  0  0  0  0
    5.5590   43.2945   47.9343 H   0  0  0  0  0  0  0  0  0  0  0  0
   10.4736   46.2156   51.0179 H   0  0  0  0  0  0  0  0  0  0  0  0
   10.8354   47.7015   52.9775 H   0  0  0  0  0  0  0  0  0  0  0  0
    8.9688   47.7459   55.9235 H   0  0  0  0  0  0  0  0  0  0  0  0
   10.1404   48.6724   54.9257 H   0  0  0  0  0  0  0  0  0  0  0  0
    8.4029   49.1282   54.9257 H   0  0  0  0  0  0  0  0  0  0  0  0
    6.7310   46.5120   55.6310 H   0  0  0  0  0  0  0  0  0  0  0  0
    4.8876   47.8757   55.3293 H   0  0  0  0  0  0  0  0  0  0  0  0
    5.5455   48.4126   53.7370 H   0  0  0  0  0  0  0  0  0  0  0  0
    4.0091   48.0482   52.0458 H   0  0  0  0  0  0  0  0  0  0  0  0
    2.4430   46.5420   50.8255 H   0  0  0  0  0  0  0  0  0  0  0  0
   -0.3499   45.3927   53.3032 H   0  0  0  0  0  0  0  0  0  0  0  0
   -0.0441   46.2047   51.7622 H   0  0  0  0  0  0  0  0  0  0  0  0
   -2.5706   45.3860   52.6575 H   0  0  0  0  0  0  0  0  0  0  0  0
   -2.1928   45.6700   50.9528 H   0  0  0  0  0  0  0  0  0  0  0  0
   -2.4404   43.0685   52.4679 H   0  0  0  0  0  0  0  0  0  0  0  0
   -2.7628   43.3749   50.7561 H   0  0  0  0  0  0  0  0  0  0  0  0
   -0.4610   42.1191   51.7326 H   0  0  0  0  0  0  0  0  0  0  0  0
   -0.5233   42.9259   50.1603 H   0  0  0  0  0  0  0  0  0  0  0  0
    2.8924   43.5585   53.9316 H   0  0  0  0  0  0  0  0  0  0  0  0
    4.4626   45.0620   55.1491 H   0  0  0  0  0  0  0  0  0  0  0  0
    6.5078   45.2690   52.4571 H   0  0  0  0  0  0  0  0  0  0  0  0
  1  2  1  0
  2  3  1  0
  3  4  2  0
  4  5  1  0
  5  6  1  0
  6  7  1  0
  7  8  2  0
  8  9  1  0
  9 10  2  0
 10 11  1  0
 10 12  1  0
 12 13  1  0
 13 14  1  0
 14 15  1  0
 15 16  2  0
 16 17  1  0
 17 18  2  0
 18 19  1  0
 19 20  2  0
 19 21  1  0
 21 22  1  0
 22 23  1  0
 23 24  1  0
 24 25  1  0
 18 26  1  0
 26 27  2  0
 12 28  2  0
  6 29  2  0
 29  3  1  0
 28  7  1  0
 27 15  1  0
 25 21  1  0
  1 30  1  0
  1 31  1  0
  1 32  1  0
  2 33  1  0
  2 34  1  0
  8 35  1  0
  9 36  1  0
 11 37  1  0
 11 38  1  0
 11 39  1  0
 13 40  1  0
 14 41  1  0
 14 42  1  0
 16 43  1  0
 17 44  1  0
 22 45  1  0
 22 46  1  0
 23 47  1  0
 23 48  1  0
 24 49  1  0
 24 50  1  0
 25 51  1  0
 25 52  1  0
 26 53  1  0
 27 54  1  0
 28 55  1  0
M  END
>  <meeko>  (3) 
{"is_sidechain": [false], "free_energy": -8.59, "intermolecular_energy": -11.884, "internal_energy": -1.121}

$$$$
ligand_43_conformer_4_docked
     RDKit          3D

 55 58  0  0  0  0  0  0  0  0999 V2000
   -0.1310   48.3140   60.4090 C   0  0  0  0  0  0  0  0  0  0  0  0
   -0.9300   48.3120   59.1110 C   0  0  0  0  0  0  0  0  0  0  0  0
   -0.4780   47.2020   58.2170 C   0  0  0  0  0  0  0  0  0  0  0  0
    0.7160   46.5900   58.3340 N   0  0  0  0  0  0  0  0  0  0  0  0
    0.7470   45.7380   57.3550 O   0  0  0  0  0  0  0  0  0  0  0  0
   -0.3610   45.8200   56.6590 C   0  0  0  0  0  0  0  0  0  0  0  0
   -0.6580   44.9990   55.4680 C   0  0  0  0  0  0  0  0  0  0  0  0
   -1.9650   44.5710   55.2040 C   0  0  0  0  0  0  0  0  0  0  0  0
   -2.2410   43.8050   54.0720 C   0  0  0  0  0  0  0  0  0  0  0  0
   -1.2190   43.4570   53.1750 C   0  0  0  0  0  0  0  0  0  0  0  0
   -1.5630   42.6530   51.9500 C   0  0  0  0  0  0  0  0  0  0  0  0
    0.1080   43.8780   53.4310 C   0  0  0  0  0  0  0  0  0  0  0  0
    1.1770   43.5350   52.5220 N   0  0  0  0  0  0  0  0  0  0  0  0
    1.4860   44.2910   51.3060 C   0  0  0  0  0  0  0  0  0  0  0  0
    2.9620   44.5810   51.2230 C   0  0  0  0  0  0  0  0  0  0  0  0
    3.8920   43.5520   51.4340 C   0  0  0  0  0  0  0  0  0  0  0  0
    5.2620   43.8050   51.3230 C   0  0  0  0  0  0  0  0  0  0  0  0
    5.7210   45.0900   50.9920 C   0  0  0  0  0  0  0  0  0  0  0  0
    7.1670   45.3650   50.8670 C   0  0  0  0  0  0  0  0  0  0  0  0
    7.7880   44.9150   49.8650 O   0  0  0  0  0  0  0  0  0  0  0  0
    7.8820   46.1110   51.8680 N   0  0  0  0  0  0  0  0  0  0  0  0
    7.4540   46.2290   53.2530 C   0  0  0  0  0  0  0  0  0  0  0  0
    8.6860   46.6850   54.0250 C   0  0  0  0  0  0  0  0  0  0  0  0
    9.6440   47.2420   52.9780 C   0  0  0  0  0  0  0  0  0  0  0  0
    9.2360   46.5960   51.6610 C   0  0  0  0  0  0  0  0  0  0  0  0
    4.7920   46.1260   50.8150 C   0  0  0  0  0  0  0  0  0  0  0  0
    3.4220   45.8730   50.9250 C   0  0  0  0  0  0  0  0  0  0  0  0
    0.3730   44.6420   54.5850 C   0  0  0  0  0  0  0  0  0  0  0  0
   -1.1920   46.7540   57.1640 N   0  0  0  0  0  0  0  0  0  0  0  0
   -0.8220   48.3123   61.2649 H   0  0  0  0  0  0  0  0  0  0  0  0
    0.5050   47.4174   60.4494 H   0  0  0  0  0  0  0  0  0  0  0  0
    0.5006   49.2137   60.4494 H   0  0  0  0  0  0  0  0  0  0  0  0
   -1.9968   48.1776   59.3433 H   0  0  0  0  0  0  0  0  0  0  0  0
   -0.7709   49.2703   58.5950 H   0  0  0  0  0  0  0  0  0  0  0  0
   -2.7785   44.8406   55.8935 H   0  0  0  0  0  0  0  0  0  0  0  0
   -3.2709   43.4698   53.8799 H   0  0  0  0  0  0  0  0  0  0  0  0
   -1.9788   41.6811   52.2541 H   0  0  0  0  0  0  0  0  0  0  0  0
   -2.3065   43.1984   51.3503 H   0  0  0  0  0  0  0  0  0  0  0  0
   -0.6550   42.4918   51.3503 H   0  0  0  0  0  0  0  0  0  0  0  0
    1.7220   42.6580   52.6770 H   0  0  0  0  0  0  0  0  0  0  0  0
    1.1832   43.7023   50.4275 H   0  0  0  0  0  0  0  0  0  0  0  0
    0.9380   45.2444   51.3322 H   0  0  0  0  0  0  0  0  0  0  0  0
    3.5411   42.5409   51.6881 H   0  0  0  0  0  0  0  0  0  0  0  0
    5.9842   42.9935   51.4958 H   0  0  0  0  0  0  0  0  0  0  0  0
    6.6474   46.9714   53.3437 H   0  0  0  0  0  0  0  0  0  0  0  0
    7.0603   45.2775   53.6399 H   0  0  0  0  0  0  0  0  0  0  0  0
    8.4163   47.4651   54.7522 H   0  0  0  0  0  0  0  0  0  0  0  0
    9.1393   45.8588   54.5924 H   0  0  0  0  0  0  0  0  0  0  0  0
    9.5486   48.3360   52.9143 H   0  0  0  0  0  0  0  0  0  0  0  0
   10.6923   47.0235   53.2298 H   0  0  0  0  0  0  0  0  0  0  0  0
    9.2590   47.3355   50.8470 H   0  0  0  0  0  0  0  0  0  0  0  0
    9.9208   45.7836   51.3762 H   0  0  0  0  0  0  0  0  0  0  0  0
    5.1438   47.1433   50.5883 H   0  0  0  0  0  0  0  0  0  0  0  0
    2.7008   46.6903   50.7773 H   0  0  0  0  0  0  0  0  0  0  0  0
    1.4034   44.9635   54.7970 H   0  0  0  0  0  0  0  0  0  0  0  0
  1  2  1  0
  2  3  1  0
  3  4  2  0
  4  5  1  0
  5  6  1  0
  6  7  1  0
  7  8  2  0
  8  9  1  0
  9 10  2  0
 10 11  1  0
 10 12  1  0
 12 13  1  0
 13 14  1  0
 14 15  1  0
 15 16  2  0
 16 17  1  0
 17 18  2  0
 18 19  1  0
 19 20  2  0
 19 21  1  0
 21 22  1  0
 22 23  1  0
 23 24  1  0
 24 25  1  0
 18 26  1  0
 26 27  2  0
 12 28  2  0
  6 29  2  0
 29  3  1  0
 28  7  1  0
 27 15  1  0
 25 21  1  0
  1 30  1  0
  1 31  1  0
  1 32  1  0
  2 33  1  0
  2 34  1  0
  8 35  1  0
  9 36  1  0
 11 37  1  0
 11 38  1  0
 11 39  1  0
 13 40  1  0
 14 41  1  0
 14 42  1  0
 16 43  1  0
 17 44  1  0
 22 45  1  0
 22 46  1  0
 23 47  1  0
 23 48  1  0
 24 49  1  0
 24 50  1  0
 25 51  1  0
 25 52  1  0
 26 53  1  0
 27 54  1  0
 28 55  1  0
M  END
>  <meeko>  (4) 
{"is_sidechain": [false], "free_energy": -8.519, "intermolecular_energy": -12.199, "internal_energy": -0.71}

$$$$
ligand_43_conformer_4_docked
     RDKit          3D

 55 58  0  0  0  0  0  0  0  0999 V2000
   -2.0060   48.6260   58.3970 C   0  0  0  0  0  0  0  0  0  0  0  0
   -0.7470   47.9260   58.8930 C   0  0  0  0  0  0  0  0  0  0  0  0
   -0.3240   46.8620   57.9320 C   0  0  0  0  0  0  0  0  0  0  0  0
    0.8720   46.2430   57.9830 N   0  0  0  0  0  0  0  0  0  0  0  0
    0.8720   45.4410   56.9630 O   0  0  0  0  0  0  0  0  0  0  0  0
   -0.2560   45.5590   56.3050 C   0  0  0  0  0  0  0  0  0  0  0  0
   -0.5890   44.8000   55.0830 C   0  0  0  0  0  0  0  0  0  0  0  0
   -1.9240   44.5600   54.7340 C   0  0  0  0  0  0  0  0  0  0  0  0
   -2.2340   43.8510   53.5740 C   0  0  0  0  0  0  0  0  0  0  0  0
   -1.2170   43.3730   52.7330 C   0  0  0  0  0  0  0  0  0  0  0  0
   -1.5920   42.6370   51.4740 C   0  0  0  0  0  0  0  0  0  0  0  0
    0.1380   43.6030   53.0750 C   0  0  0  0  0  0  0  0  0  0  0  0
    1.2020   43.1230   52.2250 N   0  0  0  0  0  0  0  0  0  0  0  0
    1.9050   43.9600   51.2490 C   0  0  0  0  0  0  0  0  0  0  0  0
    3.0480   44.6920   51.9040 C   0  0  0  0  0  0  0  0  0  0  0  0
    3.2140   46.0680   51.6910 C   0  0  0  0  0  0  0  0  0  0  0  0
    4.2500   46.7600   52.3250 C   0  0  0  0  0  0  0  0  0  0  0  0
    5.1290   46.0870   53.1870 C   0  0  0  0  0  0  0  0  0  0  0  0
    6.2230   46.8120   53.8660 C   0  0  0  0  0  0  0  0  0  0  0  0
    5.9440   47.5550   54.8470 O   0  0  0  0  0  0  0  0  0  0  0  0
    7.5870   46.7080   53.4200 N   0  0  0  0  0  0  0  0  0  0  0  0
    7.9730   46.3450   52.0650 C   0  0  0  0  0  0  0  0  0  0  0  0
    9.4210   46.7950   51.9180 C   0  0  0  0  0  0  0  0  0  0  0  0
    9.9390   46.9870   53.3390 C   0  0  0  0  0  0  0  0  0  0  0  0
    8.7040   47.2140   54.2000 C   0  0  0  0  0  0  0  0  0  0  0  0
    4.9830   44.7040   53.3740 C   0  0  0  0  0  0  0  0  0  0  0  0
    3.9470   44.0120   52.7400 C   0  0  0  0  0  0  0  0  0  0  0  0
    0.4340   44.3110   54.2570 C   0  0  0  0  0  0  0  0  0  0  0  0
   -1.0690   46.4680   56.8790 N   0  0  0  0  0  0  0  0  0  0  0  0
   -2.6041   48.9585   59.2582 H   0  0  0  0  0  0  0  0  0  0  0  0
   -1.7250   49.4974   57.7873 H   0  0  0  0  0  0  0  0  0  0  0  0
   -2.5979   47.9275   57.7873 H   0  0  0  0  0  0  0  0  0  0  0  0
    0.0618   48.6648   58.9935 H   0  0  0  0  0  0  0  0  0  0  0  0
   -0.9600   47.4605   59.8666 H   0  0  0  0  0  0  0  0  0  0  0  0
   -2.7331   44.9332   55.3791 H   0  0  0  0  0  0  0  0  0  0  0  0
   -3.2867   43.6643   53.3153 H   0  0  0  0  0  0  0  0  0  0  0  0
   -2.0770   41.6852   51.7363 H   0  0  0  0  0  0  0  0  0  0  0  0
   -2.2867   43.2518   50.8830 H   0  0  0  0  0  0  0  0  0  0  0  0
   -0.6862   42.4363   50.8830 H   0  0  0  0  0  0  0  0  0  0  0  0
    1.4490   42.1090   52.2320 H   0  0  0  0  0  0  0  0  0  0  0  0
    2.2981   43.3230   50.4430 H   0  0  0  0  0  0  0  0  0  0  0  0
    1.1988   44.6979   50.8405 H   0  0  0  0  0  0  0  0  0  0  0  0
    2.5258   46.6054   51.0219 H   0  0  0  0  0  0  0  0  0  0  0  0
    4.3768   47.8381   52.1471 H   0  0  0  0  0  0  0  0  0  0  0  0
    7.8922   45.2575   51.9209 H   0  0  0  0  0  0  0  0  0  0  0  0
    7.3214   46.8177   51.3153 H   0  0  0  0  0  0  0  0  0  0  0  0
   10.0102   46.0271   51.3954 H   0  0  0  0  0  0  0  0  0  0  0  0
    9.5011   47.7199   51.3280 H   0  0  0  0  0  0  0  0  0  0  0  0
   10.4808   46.0903   53.6742 H   0  0  0  0  0  0  0  0  0  0  0  0
   10.6409   47.8314   53.4049 H   0  0  0  0  0  0  0  0  0  0  0  0
    8.7906   46.6640   55.1487 H   0  0  0  0  0  0  0  0  0  0  0  0
    8.5748   48.2761   54.4554 H   0  0  0  0  0  0  0  0  0  0  0  0
    5.6870   44.1619   54.0225 H   0  0  0  0  0  0  0  0  0  0  0  0
    3.8359   42.9290   52.8972 H   0  0  0  0  0  0  0  0  0  0  0  0
    1.4839   44.4829   54.5364 H   0  0  0  0  0  0  0  0  0  0  0  0
  1  2  1  0
  2  3  1  0
  3  4  2  0
  4  5  1  0
  5  6  1  0
  6  7  1  0
  7  8  2  0
  8  9  1  0
  9 10  2  0
 10 11  1  0
 10 12  1  0
 12 13  1  0
 13 14  1  0
 14 15  1  0
 15 16  2  0
 16 17  1  0
 17 18  2  0
 18 19  1  0
 19 20  2  0
 19 21  1  0
 21 22  1  0
 22 23  1  0
 23 24  1  0
 24 25  1  0
 18 26  1  0
 26 27  2  0
 12 28  2  0
  6 29  2  0
 29  3  1  0
 28  7  1  0
 27 15  1  0
 25 21  1  0
  1 30  1  0
  1 31  1  0
  1 32  1  0
  2 33  1  0
  2 34  1  0
  8 35  1  0
  9 36  1  0
 11 37  1  0
 11 38  1  0
 11 39  1  0
 13 40  1  0
 14 41  1  0
 14 42  1  0
 16 43  1  0
 17 44  1  0
 22 45  1  0
 22 46  1  0
 23 47  1  0
 23 48  1  0
 24 49  1  0
 24 50  1  0
 25 51  1  0
 25 52  1  0
 26 53  1  0
 27 54  1  0
 28 55  1  0
M  END
>  <meeko>  (5) 
{"is_sidechain": [false], "free_energy": -8.422, "intermolecular_energy": -11.648, "internal_energy": -1.13}

$$$$
