ligand_3_conformer_4_docked
     RDKit          3D

 47 50  0  0  0  0  0  0  0  0999 V2000
    0.0690   45.5980   52.3590 O   0  0  0  0  0  0  0  0  0  0  0  0
    0.9390   45.4710   53.2650 C   0  0  0  0  0  0  0  0  0  0  0  0
    2.3740   45.5590   52.9100 C   0  0  0  0  0  0  0  0  0  0  0  0
    3.2220   44.4520   53.0800 C   0  0  0  0  0  0  0  0  0  0  0  0
    4.5740   44.5350   52.7350 C   0  0  0  0  0  0  0  0  0  0  0  0
    5.0970   45.7200   52.1970 C   0  0  0  0  0  0  0  0  0  0  0  0
    6.4900   45.8170   51.8550 N   0  0  0  0  0  0  0  0  0  0  0  0
    7.0770   45.3710   50.7150 C   0  0  0  0  0  0  0  0  0  0  0  0
    8.4110   45.6170   50.6630 N   0  0  0  0  0  0  0  0  0  0  0  0
    8.6520   46.2360   51.8330 C   0  0  0  0  0  0  0  0  0  0  0  0
    9.8790   46.6860   52.3160 C   0  0  0  0  0  0  0  0  0  0  0  0
    9.9050   47.2700   53.5970 C   0  0  0  0  0  0  0  0  0  0  0  0
    8.7200   47.3770   54.3580 C   0  0  0  0  0  0  0  0  0  0  0  0
    7.4960   46.9100   53.8430 C   0  0  0  0  0  0  0  0  0  0  0  0
    7.5010   46.3580   52.5590 C   0  0  0  0  0  0  0  0  0  0  0  0
    4.2530   46.8280   52.0290 C   0  0  0  0  0  0  0  0  0  0  0  0
    2.9010   46.7440   52.3730 C   0  0  0  0  0  0  0  0  0  0  0  0
    0.5160   45.2180   54.6160 N   0  0  0  0  0  0  0  0  0  0  0  0
   -0.3150   44.0460   54.9220 C   0  0  0  0  0  0  0  0  0  0  0  0
   -1.4160   44.3860   55.9420 C   0  0  0  0  0  0  0  0  0  0  0  0
   -1.0350   45.5200   56.9150 C   0  0  0  0  0  0  0  0  0  0  0  0
    0.4940   45.6710   57.0850 C   0  0  2  0  0  0  0  0  0  0  0  0
    1.0080   44.4490   57.5640 O   0  0  0  0  0  0  0  0  0  0  0  0
    0.8090   46.7820   58.1160 C   0  0  0  0  0  0  0  0  0  0  0  0
    1.9440   46.4630   58.8740 O   0  0  0  0  0  0  0  0  0  0  0  0
    1.1150   46.0100   55.7020 C   0  0  0  0  0  0  0  0  0  0  0  0
    2.8191   43.5131   53.4876 H   0  0  0  0  0  0  0  0  0  0  0  0
    5.2314   43.6661   52.8863 H   0  0  0  0  0  0  0  0  0  0  0  0
    6.5255   44.8602   49.9119 H   0  0  0  0  0  0  0  0  0  0  0  0
   10.7963   46.5884   51.7169 H   0  0  0  0  0  0  0  0  0  0  0  0
   10.8540   47.6452   54.0075 H   0  0  0  0  0  0  0  0  0  0  0  0
    8.7538   47.8286   55.3605 H   0  0  0  0  0  0  0  0  0  0  0  0
    6.5684   46.9771   54.4304 H   0  0  0  0  0  0  0  0  0  0  0  0
    4.6574   47.7676   51.6245 H   0  0  0  0  0  0  0  0  0  0  0  0
    2.2445   47.6136   52.2217 H   0  0  0  0  0  0  0  0  0  0  0  0
   -0.7854   43.6893   53.9939 H   0  0  0  0  0  0  0  0  0  0  0  0
    0.3308   43.2692   55.3574 H   0  0  0  0  0  0  0  0  0  0  0  0
   -2.3176   44.6908   55.3904 H   0  0  0  0  0  0  0  0  0  0  0  0
   -1.5789   43.4838   56.5499 H   0  0  0  0  0  0  0  0  0  0  0  0
   -1.4414   46.4665   56.5289 H   0  0  0  0  0  0  0  0  0  0  0  0
   -1.4558   45.2685   57.8997 H   0  0  0  0  0  0  0  0  0  0  0  0
    1.9960   44.4730   57.4720 H   0  0  0  0  0  0  0  0  0  0  0  0
    0.9881   47.7268   57.5819 H   0  0  0  0  0  0  0  0  0  0  0  0
   -0.0491   46.8783   58.7974 H   0  0  0  0  0  0  0  0  0  0  0  0
    2.4120   45.7410   58.3810 H   0  0  0  0  0  0  0  0  0  0  0  0
    0.9532   47.0778   55.4929 H   0  0  0  0  0  0  0  0  0  0  0  0
    2.1875   45.7691   55.7445 H   0  0  0  0  0  0  0  0  0  0  0  0
  1  2  2  0
  2  3  1  0
  3  4  2  0
  4  5  1  0
  5  6  2  0
  6  7  1  0
  7  8  1  0
  8  9  2  0
  9 10  1  0
 10 11  2  0
 11 12  1  0
 12 13  2  0
 13 14  1  0
 14 15  2  0
  6 16  1  0
 16 17  2  0
  2 18  1  0
 18 19  1  0
 19 20  1  0
 20 21  1  0
 21 22  1  0
 22 23  1  1
 22 24  1  0
 24 25  1  0
 22 26  1  0
 17  3  1  0
 26 18  1  0
 15  7  1  0
 15 10  1  0
  4 27  1  0
  5 28  1  0
  8 29  1  0
 11 30  1  0
 12 31  1  0
 13 32  1  0
 14 33  1  0
 16 34  1  0
 17 35  1  0
 19 36  1  0
 19 37  1  0
 20 38  1  0
 20 39  1  0
 21 40  1  0
 21 41  1  0
 23 42  1  0
 24 43  1  0
 24 44  1  0
 25 45  1  0
 26 46  1  0
 26 47  1  0
M  END
>  <meeko>  (1) 
{"is_sidechain": [false], "free_energy": -9.012, "intermolecular_energy": -11.646, "internal_energy": -0.769}

$$$$
ligand_3_conformer_4_docked
     RDKit          3D

 47 50  0  0  0  0  0  0  0  0999 V2000
    1.6450   42.6930   50.2330 O   0  0  0  0  0  0  0  0  0  0  0  0
    1.4890   43.5270   51.1670 C   0  0  0  0  0  0  0  0  0  0  0  0
    2.6730   44.2170   51.7310 C   0  0  0  0  0  0  0  0  0  0  0  0
    2.9470   45.5530   51.3990 C   0  0  0  0  0  0  0  0  0  0  0  0
    4.0590   46.2050   51.9400 C   0  0  0  0  0  0  0  0  0  0  0  0
    4.9050   45.5370   52.8380 C   0  0  0  0  0  0  0  0  0  0  0  0
    6.0600   46.1950   53.3860 N   0  0  0  0  0  0  0  0  0  0  0  0
    6.1310   46.8470   54.5740 C   0  0  0  0  0  0  0  0  0  0  0  0
    7.3610   47.3600   54.8340 N   0  0  0  0  0  0  0  0  0  0  0  0
    8.0730   47.0100   53.7480 C   0  0  0  0  0  0  0  0  0  0  0  0
    9.4060   47.3110   53.4750 C   0  0  0  0  0  0  0  0  0  0  0  0
    9.9370   46.8790   52.2460 C   0  0  0  0  0  0  0  0  0  0  0  0
    9.1290   46.1750   51.3260 C   0  0  0  0  0  0  0  0  0  0  0  0
    7.7850   45.8890   51.6280 C   0  0  0  0  0  0  0  0  0  0  0  0
    7.2960   46.3110   52.8680 C   0  0  0  0  0  0  0  0  0  0  0  0
    4.6350   44.2000   53.1680 C   0  0  0  0  0  0  0  0  0  0  0  0
    3.5220   43.5490   52.6280 C   0  0  0  0  0  0  0  0  0  0  0  0
    0.1670   43.7700   51.6810 N   0  0  0  0  0  0  0  0  0  0  0  0
   -1.0040   43.6000   50.8110 C   0  0  0  0  0  0  0  0  0  0  0  0
   -2.0410   44.7140   51.0380 C   0  0  0  0  0  0  0  0  0  0  0  0
   -2.0360   45.2860   52.4710 C   0  0  0  0  0  0  0  0  0  0  0  0
   -1.4720   44.2910   53.5090 C   0  0  2  0  0  0  0  0  0  0  0  0
   -2.2600   43.1220   53.4730 O   0  0  0  0  0  0  0  0  0  0  0  0
   -1.5490   44.9000   54.9300 C   0  0  0  0  0  0  0  0  0  0  0  0
   -0.4060   45.6580   55.2190 O   0  0  0  0  0  0  0  0  0  0  0  0
   -0.0020   43.9600   53.1300 C   0  0  0  0  0  0  0  0  0  0  0  0
    2.2816   46.0911   50.7078 H   0  0  0  0  0  0  0  0  0  0  0  0
    4.2718   47.2473   51.6601 H   0  0  0  0  0  0  0  0  0  0  0  0
    5.2764   46.9498   55.2589 H   0  0  0  0  0  0  0  0  0  0  0  0
   10.0223   47.8677   54.1963 H   0  0  0  0  0  0  0  0  0  0  0  0
   10.9880   47.0908   52.0000 H   0  0  0  0  0  0  0  0  0  0  0  0
    9.5540   45.8477   50.3656 H   0  0  0  0  0  0  0  0  0  0  0  0
    7.1422   45.3528   50.9144 H   0  0  0  0  0  0  0  0  0  0  0  0
    5.3032   43.6610   53.8557 H   0  0  0  0  0  0  0  0  0  0  0  0
    3.3099   42.5065   52.9076 H   0  0  0  0  0  0  0  0  0  0  0  0
   -0.6762   43.6252   49.7613 H   0  0  0  0  0  0  0  0  0  0  0  0
   -1.4753   42.6354   51.0508 H   0  0  0  0  0  0  0  0  0  0  0  0
   -1.8284   45.5341   50.3364 H   0  0  0  0  0  0  0  0  0  0  0  0
   -3.0327   44.2670   50.8746 H   0  0  0  0  0  0  0  0  0  0  0  0
   -1.4182   46.1961   52.4843 H   0  0  0  0  0  0  0  0  0  0  0  0
   -3.0794   45.4980   52.7473 H   0  0  0  0  0  0  0  0  0  0  0  0
   -2.9780   43.2140   54.1540 H   0  0  0  0  0  0  0  0  0  0  0  0
   -2.4353   45.5482   54.9951 H   0  0  0  0  0  0  0  0  0  0  0  0
   -1.6153   44.0782   55.6581 H   0  0  0  0  0  0  0  0  0  0  0  0
   -0.3580   45.7190   56.2080 H   0  0  0  0  0  0  0  0  0  0  0  0
    0.6436   44.7885   53.4567 H   0  0  0  0  0  0  0  0  0  0  0  0
    0.2726   43.0190   53.6291 H   0  0  0  0  0  0  0  0  0  0  0  0
  1  2  2  0
  2  3  1  0
  3  4  2  0
  4  5  1  0
  5  6  2  0
  6  7  1  0
  7  8  1  0
  8  9  2  0
  9 10  1  0
 10 11  2  0
 11 12  1  0
 12 13  2  0
 13 14  1  0
 14 15  2  0
  6 16  1  0
 16 17  2  0
  2 18  1  0
 18 19  1  0
 19 20  1  0
 20 21  1  0
 21 22  1  0
 22 23  1  1
 22 24  1  0
 24 25  1  0
 22 26  1  0
 17  3  1  0
 26 18  1  0
 15  7  1  0
 15 10  1  0
  4 27  1  0
  5 28  1  0
  8 29  1  0
 11 30  1  0
 12 31  1  0
 13 32  1  0
 14 33  1  0
 16 34  1  0
 17 35  1  0
 19 36  1  0
 19 37  1  0
 20 38  1  0
 20 39  1  0
 21 40  1  0
 21 41  1  0
 23 42  1  0
 24 43  1  0
 24 44  1  0
 25 45  1  0
 26 46  1  0
 26 47  1  0
M  END
>  <meeko>  (2) 
{"is_sidechain": [false], "free_energy": -8.576, "intermolecular_energy": -11.118, "internal_energy": -0.733}

$$$$
ligand_3_conformer_4_docked
     RDKit          3D

 47 50  0  0  0  0  0  0  0  0999 V2000
    0.8480   43.1190   50.4440 O   0  0  0  0  0  0  0  0  0  0  0  0
    1.2660   43.8600   51.3760 C   0  0  0  0  0  0  0  0  0  0  0  0
    2.6820   44.2940   51.3800 C   0  0  0  0  0  0  0  0  0  0  0  0
    3.0440   45.5590   50.8900 C   0  0  0  0  0  0  0  0  0  0  0  0
    4.3800   45.9700   50.9050 C   0  0  0  0  0  0  0  0  0  0  0  0
    5.3740   45.1300   51.4280 C   0  0  0  0  0  0  0  0  0  0  0  0
    6.7520   45.5400   51.4310 N   0  0  0  0  0  0  0  0  0  0  0  0
    7.6520   45.3600   50.4320 C   0  0  0  0  0  0  0  0  0  0  0  0
    8.8800   45.8660   50.7140 N   0  0  0  0  0  0  0  0  0  0  0  0
    8.7240   46.3730   51.9510 C   0  0  0  0  0  0  0  0  0  0  0  0
    9.6900   46.9920   52.7410 C   0  0  0  0  0  0  0  0  0  0  0  0
    9.3120   47.4070   54.0320 C   0  0  0  0  0  0  0  0  0  0  0  0
    7.9970   47.1870   54.4980 C   0  0  0  0  0  0  0  0  0  0  0  0
    7.0450   46.5560   53.6770 C   0  0  0  0  0  0  0  0  0  0  0  0
    7.4460   46.1780   52.3920 C   0  0  0  0  0  0  0  0  0  0  0  0
    5.0150   43.8650   51.9160 C   0  0  0  0  0  0  0  0  0  0  0  0
    3.6790   43.4540   51.9020 C   0  0  0  0  0  0  0  0  0  0  0  0
    0.3620   44.2450   52.4270 N   0  0  0  0  0  0  0  0  0  0  0  0
    0.8450   45.0490   53.5570 C   0  0  0  0  0  0  0  0  0  0  0  0
    0.2440   44.5680   54.8890 C   0  0  0  0  0  0  0  0  0  0  0  0
   -1.1530   43.9300   54.7480 C   0  0  0  0  0  0  0  0  0  0  0  0
   -1.9060   44.4170   53.4890 C   0  0  2  0  0  0  0  0  0  0  0  0
   -2.0360   45.8190   53.5670 O   0  0  0  0  0  0  0  0  0  0  0  0
   -3.3200   43.7880   53.4370 C   0  0  0  0  0  0  0  0  0  0  0  0
   -3.3420   42.6600   52.6040 O   0  0  0  0  0  0  0  0  0  0  0  0
   -1.0790   44.0220   52.2340 C   0  0  0  0  0  0  0  0  0  0  0  0
    2.2704   46.2317   50.4913 H   0  0  0  0  0  0  0  0  0  0  0  0
    4.6532   46.9574   50.5045 H   0  0  0  0  0  0  0  0  0  0  0  0
    7.4105   44.8536   49.4859 H   0  0  0  0  0  0  0  0  0  0  0  0
   10.7129   47.1510   52.3689 H   0  0  0  0  0  0  0  0  0  0  0  0
   10.0457   47.9060   54.6822 H   0  0  0  0  0  0  0  0  0  0  0  0
    7.7152   47.5115   55.5106 H   0  0  0  0  0  0  0  0  0  0  0  0
    6.0216   46.3667   54.0332 H   0  0  0  0  0  0  0  0  0  0  0  0
    5.7897   43.1921   52.3123 H   0  0  0  0  0  0  0  0  0  0  0  0
    3.4069   42.4663   52.3024 H   0  0  0  0  0  0  0  0  0  0  0  0
    1.9408   44.9693   53.6098 H   0  0  0  0  0  0  0  0  0  0  0  0
    0.5356   46.0922   53.3955 H   0  0  0  0  0  0  0  0  0  0  0  0
    0.9234   43.8217   55.3264 H   0  0  0  0  0  0  0  0  0  0  0  0
    0.1272   45.4566   55.5268 H   0  0  0  0  0  0  0  0  0  0  0  0
   -1.0368   42.8378   54.6883 H   0  0  0  0  0  0  0  0  0  0  0  0
   -1.7450   44.2283   55.6258 H   0  0  0  0  0  0  0  0  0  0  0  0
   -2.0770   46.0720   54.5270 H   0  0  0  0  0  0  0  0  0  0  0  0
   -3.6178   43.4898   54.4531 H   0  0  0  0  0  0  0  0  0  0  0  0
   -4.0190   44.5344   53.0318 H   0  0  0  0  0  0  0  0  0  0  0  0
   -2.6120   42.7880   51.9450 H   0  0  0  0  0  0  0  0  0  0  0  0
   -1.2472   42.9563   52.0196 H   0  0  0  0  0  0  0  0  0  0  0  0
   -1.4102   44.6550   51.3976 H   0  0  0  0  0  0  0  0  0  0  0  0
  1  2  2  0
  2  3  1  0
  3  4  2  0
  4  5  1  0
  5  6  2  0
  6  7  1  0
  7  8  1  0
  8  9  2  0
  9 10  1  0
 10 11  2  0
 11 12  1  0
 12 13  2  0
 13 14  1  0
 14 15  2  0
  6 16  1  0
 16 17  2  0
  2 18  1  0
 18 19  1  0
 19 20  1  0
 20 21  1  0
 21 22  1  0
 22 23  1  1
 22 24  1  0
 24 25  1  0
 22 26  1  0
 17  3  1  0
 26 18  1  0
 15  7  1  0
 15 10  1  0
  4 27  1  0
  5 28  1  0
  8 29  1  0
 11 30  1  0
 12 31  1  0
 13 32  1  0
 14 33  1  0
 16 34  1  0
 17 35  1  0
 19 36  1  0
 19 37  1  0
 20 38  1  0
 20 39  1  0
 21 40  1  0
 21 41  1  0
 23 42  1  0
 24 43  1  0
 24 44  1  0
 25 45  1  0
 26 46  1  0
 26 47  1  0
M  END
>  <meeko>  (3) 
{"is_sidechain": [false], "free_energy": -8.429, "intermolecular_energy": -10.986, "internal_energy": -0.675}

$$$$
ligand_3_conformer_4_docked
     RDKit          3D

 47 50  0  0  0  0  0  0  0  0999 V2000
    0.7600   45.5970   55.3170 O   0  0  0  0  0  0  0  0  0  0  0  0
    1.0360   45.0680   54.2050 C   0  0  0  0  0  0  0  0  0  0  0  0
    2.3950   45.2360   53.6390 C   0  0  0  0  0  0  0  0  0  0  0  0
    2.8920   46.5150   53.3390 C   0  0  0  0  0  0  0  0  0  0  0  0
    4.1780   46.6720   52.8150 C   0  0  0  0  0  0  0  0  0  0  0  0
    4.9970   45.5530   52.6000 C   0  0  0  0  0  0  0  0  0  0  0  0
    6.3150   45.7050   52.0470 N   0  0  0  0  0  0  0  0  0  0  0  0
    6.7170   45.3430   50.8020 C   0  0  0  0  0  0  0  0  0  0  0  0
    8.0220   45.6230   50.5530 N   0  0  0  0  0  0  0  0  0  0  0  0
    8.4390   46.1770   51.7060 C   0  0  0  0  0  0  0  0  0  0  0  0
    9.7220   46.6270   52.0150 C   0  0  0  0  0  0  0  0  0  0  0  0
    9.9450   47.1320   53.3090 C   0  0  0  0  0  0  0  0  0  0  0  0
    8.8960   47.1650   54.2550 C   0  0  0  0  0  0  0  0  0  0  0  0
    7.6130   46.7000   53.9140 C   0  0  0  0  0  0  0  0  0  0  0  0
    7.4190   46.2270   52.6130 C   0  0  0  0  0  0  0  0  0  0  0  0
    4.5020   44.2740   52.8970 C   0  0  0  0  0  0  0  0  0  0  0  0
    3.2160   44.1180   53.4210 C   0  0  0  0  0  0  0  0  0  0  0  0
    0.0180   44.3350   53.5010 N   0  0  0  0  0  0  0  0  0  0  0  0
   -0.2530   42.9340   53.8450 C   0  0  0  0  0  0  0  0  0  0  0  0
   -0.4960   42.0810   52.5880 C   0  0  0  0  0  0  0  0  0  0  0  0
   -1.0990   42.8700   51.4070 C   0  0  0  0  0  0  0  0  0  0  0  0
   -1.8730   44.1270   51.8630 C   0  0  2  0  0  0  0  0  0  0  0  0
   -2.9060   43.7190   52.7310 O   0  0  0  0  0  0  0  0  0  0  0  0
   -2.5020   44.8390   50.6400 C   0  0  0  0  0  0  0  0  0  0  0  0
   -1.9140   44.4050   49.4440 O   0  0  0  0  0  0  0  0  0  0  0  0
   -0.8880   45.0720   52.6060 C   0  0  0  0  0  0  0  0  0  0  0  0
    2.2640   47.4002   53.5179 H   0  0  0  0  0  0  0  0  0  0  0  0
    4.5501   47.6777   52.5699 H   0  0  0  0  0  0  0  0  0  0  0  0
    6.0504   44.8690   50.0665 H   0  0  0  0  0  0  0  0  0  0  0  0
   10.5324   46.5885   51.2722 H   0  0  0  0  0  0  0  0  0  0  0  0
   10.9426   47.5036   53.5861 H   0  0  0  0  0  0  0  0  0  0  0  0
    9.0840   47.5571   55.2654 H   0  0  0  0  0  0  0  0  0  0  0  0
    6.7913   46.7083   54.6453 H   0  0  0  0  0  0  0  0  0  0  0  0
    5.1299   43.3891   52.7163 H   0  0  0  0  0  0  0  0  0  0  0  0
    2.8441   43.1118   53.6645 H   0  0  0  0  0  0  0  0  0  0  0  0
    0.6103   42.5269   54.3917 H   0  0  0  0  0  0  0  0  0  0  0  0
   -1.1608   42.9006   54.4652 H   0  0  0  0  0  0  0  0  0  0  0  0
    0.4661   41.6560   52.2660 H   0  0  0  0  0  0  0  0  0  0  0  0
   -1.2274   41.3067   52.8627 H   0  0  0  0  0  0  0  0  0  0  0  0
   -0.2827   43.1824   50.7391 H   0  0  0  0  0  0  0  0  0  0  0  0
   -1.8127   42.2079   50.8950 H   0  0  0  0  0  0  0  0  0  0  0  0
   -3.5270   43.1360   52.2190 H   0  0  0  0  0  0  0  0  0  0  0  0
   -3.5793   44.6184   50.6111 H   0  0  0  0  0  0  0  0  0  0  0  0
   -2.3306   45.9209   50.7402 H   0  0  0  0  0  0  0  0  0  0  0  0
   -1.2250   43.7390   49.7000 H   0  0  0  0  0  0  0  0  0  0  0  0
   -0.2870   45.6143   51.8612 H   0  0  0  0  0  0  0  0  0  0  0  0
   -1.4819   45.7644   53.2208 H   0  0  0  0  0  0  0  0  0  0  0  0
  1  2  2  0
  2  3  1  0
  3  4  2  0
  4  5  1  0
  5  6  2  0
  6  7  1  0
  7  8  1  0
  8  9  2  0
  9 10  1  0
 10 11  2  0
 11 12  1  0
 12 13  2  0
 13 14  1  0
 14 15  2  0
  6 16  1  0
 16 17  2  0
  2 18  1  0
 18 19  1  0
 19 20  1  0
 20 21  1  0
 21 22  1  0
 22 23  1  1
 22 24  1  0
 24 25  1  0
 22 26  1  0
 17  3  1  0
 26 18  1  0
 15  7  1  0
 15 10  1  0
  4 27  1  0
  5 28  1  0
  8 29  1  0
 11 30  1  0
 12 31  1  0
 13 32  1  0
 14 33  1  0
 16 34  1  0
 17 35  1  0
 19 36  1  0
 19 37  1  0
 20 38  1  0
 20 39  1  0
 21 40  1  0
 21 41  1  0
 23 42  1  0
 24 43  1  0
 24 44  1  0
 25 45  1  0
 26 46  1  0
 26 47  1  0
M  END
>  <meeko>  (4) 
{"is_sidechain": [false], "free_energy": -8.297, "intermolecular_energy": -10.719, "internal_energy": -0.773}

$$$$
ligand_3_conformer_4_docked
     RDKit          3D

 47 50  0  0  0  0  0  0  0  0999 V2000
    6.8780   44.2980   50.0280 O   0  0  0  0  0  0  0  0  0  0  0  0
    6.5260   45.0360   50.9890 C   0  0  0  0  0  0  0  0  0  0  0  0
    5.1220   44.9920   51.4620 C   0  0  0  0  0  0  0  0  0  0  0  0
    4.2340   46.0370   51.1630 C   0  0  0  0  0  0  0  0  0  0  0  0
    2.9070   45.9870   51.6020 C   0  0  0  0  0  0  0  0  0  0  0  0
    2.4420   44.8830   52.3320 C   0  0  0  0  0  0  0  0  0  0  0  0
    1.0840   44.8330   52.8000 N   0  0  0  0  0  0  0  0  0  0  0  0
   -0.0300   44.7020   52.0370 C   0  0  0  0  0  0  0  0  0  0  0  0
   -1.1790   44.6700   52.7620 N   0  0  0  0  0  0  0  0  0  0  0  0
   -0.7430   44.7970   54.0290 C   0  0  0  0  0  0  0  0  0  0  0  0
   -1.5150   44.8560   55.1870 C   0  0  0  0  0  0  0  0  0  0  0  0
   -0.8450   45.0370   56.4120 C   0  0  0  0  0  0  0  0  0  0  0  0
    0.5620   45.1660   56.4450 C   0  0  0  0  0  0  0  0  0  0  0  0
    1.3130   45.1050   55.2570 C   0  0  0  0  0  0  0  0  0  0  0  0
    0.6190   44.8990   54.0610 C   0  0  0  0  0  0  0  0  0  0  0  0
    3.3300   43.8390   52.6340 C   0  0  0  0  0  0  0  0  0  0  0  0
    4.6560   43.8880   52.1940 C   0  0  0  0  0  0  0  0  0  0  0  0
    7.4890   45.9210   51.5860 N   0  0  0  0  0  0  0  0  0  0  0  0
    8.6140   46.4300   50.7910 C   0  0  0  0  0  0  0  0  0  0  0  0
    9.9190   46.4460   51.6070 C   0  0  0  0  0  0  0  0  0  0  0  0
    9.7040   46.6380   53.1230 C   0  0  0  0  0  0  0  0  0  0  0  0
    8.3730   47.3510   53.4500 C   0  0  2  0  0  0  0  0  0  0  0  0
    8.3790   48.6090   52.8140 O   0  0  0  0  0  0  0  0  0  0  0  0
    8.2450   47.5660   54.9780 C   0  0  0  0  0  0  0  0  0  0  0  0
    9.0370   48.6400   55.4070 O   0  0  0  0  0  0  0  0  0  0  0  0
    7.2010   46.4830   52.9150 C   0  0  0  0  0  0  0  0  0  0  0  0
    4.5841   46.9012   50.5794 H   0  0  0  0  0  0  0  0  0  0  0  0
    2.2239   46.8183   51.3735 H   0  0  0  0  0  0  0  0  0  0  0  0
   -0.0057   44.6289   50.9397 H   0  0  0  0  0  0  0  0  0  0  0  0
   -2.6104   44.7643   55.1458 H   0  0  0  0  0  0  0  0  0  0  0  0
   -1.4200   45.0782   57.3488 H   0  0  0  0  0  0  0  0  0  0  0  0
    1.0739   45.3153   57.4071 H   0  0  0  0  0  0  0  0  0  0  0  0
    2.4074   45.2155   55.2687 H   0  0  0  0  0  0  0  0  0  0  0  0
    2.9804   42.9767   53.2207 H   0  0  0  0  0  0  0  0  0  0  0  0
    5.3387   43.0564   52.4227 H   0  0  0  0  0  0  0  0  0  0  0  0
    8.7506   45.7847   49.9107 H   0  0  0  0  0  0  0  0  0  0  0  0
    8.3836   47.4620   50.4877 H   0  0  0  0  0  0  0  0  0  0  0  0
   10.4385   45.4894   51.4489 H   0  0  0  0  0  0  0  0  0  0  0  0
   10.5059   47.3073   51.2553 H   0  0  0  0  0  0  0  0  0  0  0  0
    9.7020   45.6498   53.6062 H   0  0  0  0  0  0  0  0  0  0  0  0
   10.5215   47.2717   53.4972 H   0  0  0  0  0  0  0  0  0  0  0  0
    8.1430   49.2980   53.4900 H   0  0  0  0  0  0  0  0  0  0  0  0
    7.1934   47.7749   55.2241 H   0  0  0  0  0  0  0  0  0  0  0  0
    8.5890   46.6541   55.4880 H   0  0  0  0  0  0  0  0  0  0  0  0
    9.0380   48.6050   56.3980 H   0  0  0  0  0  0  0  0  0  0  0  0
    7.0223   45.6563   53.6183 H   0  0  0  0  0  0  0  0  0  0  0  0
    6.3154   47.1291   52.8244 H   0  0  0  0  0  0  0  0  0  0  0  0
  1  2  2  0
  2  3  1  0
  3  4  2  0
  4  5  1  0
  5  6  2  0
  6  7  1  0
  7  8  1  0
  8  9  2  0
  9 10  1  0
 10 11  2  0
 11 12  1  0
 12 13  2  0
 13 14  1  0
 14 15  2  0
  6 16  1  0
 16 17  2  0
  2 18  1  0
 18 19  1  0
 19 20  1  0
 20 21  1  0
 21 22  1  0
 22 23  1  6
 22 24  1  0
 24 25  1  0
 22 26  1  0
 17  3  1  0
 26 18  1  0
 15  7  1  0
 15 10  1  0
  4 27  1  0
  5 28  1  0
  8 29  1  0
 11 30  1  0
 12 31  1  0
 13 32  1  0
 14 33  1  0
 16 34  1  0
 17 35  1  0
 19 36  1  0
 19 37  1  0
 20 38  1  0
 20 39  1  0
 21 40  1  0
 21 41  1  0
 23 42  1  0
 24 43  1  0
 24 44  1  0
 25 45  1  0
 26 46  1  0
 26 47  1  0
M  END
>  <meeko>  (5) 
{"is_sidechain": [false], "free_energy": -8.282, "intermolecular_energy": -10.881, "internal_energy": -0.591}

$$$$
