MODEL 1
REMARK VINA RESULT:    -8.740      0.000      0.000
REMARK INTER + INTRA:          -9.838
REMARK INTER:                  -9.507
REMARK INTRA:                  -0.331
REMARK UNBOUND:                -0.331
REMARK SMILES O=C(c1ccc2scnc2c1)N1CCC2(CCC(O)CC2)CC1
REMARK SMILES IDX 1 1 2 2 12 3 13 4 14 5 15 6 16 7 17 8 18 9 20 10 21 11 22 12
REMARK SMILES IDX 23 13 3 14 4 15 11 16 5 17 10 18 6 19 9 20 7 21 8 22 19 23
REMARK H PARENT 19 24
ROOT
ATOM      1  O   UNL     1       3.200  46.777  50.550  1.00  0.00    -0.269 OA
ATOM      2  C   UNL     1       3.828  45.823  51.086  1.00  0.00     0.253 C 
ATOM      3  N   UNL     1       3.105  44.657  51.530  1.00  0.00    -0.339 N 
ATOM      4  C   UNL     1       3.481  43.977  52.778  1.00  0.00     0.120 C 
ATOM      5  C   UNL     1       2.250  43.371  53.476  1.00  0.00     0.028 C 
ATOM      6  C   UNL     1       0.975  44.256  53.308  1.00  0.00    -0.026 C 
ATOM      7  C   UNL     1      -0.237  43.582  54.047  1.00  0.00     0.010 C 
ATOM      8  C   UNL     1      -0.595  44.203  55.414  1.00  0.00     0.032 C 
ATOM      9  C   UNL     1       0.648  44.635  56.196  1.00  0.00     0.114 C 
ATOM     10  C   UNL     1       1.483  45.677  55.413  1.00  0.00     0.032 C 
ATOM     11  C   UNL     1       1.203  45.683  53.897  1.00  0.00     0.010 C 
ATOM     12  C   UNL     1       0.650  44.376  51.777  1.00  0.00     0.028 C 
ATOM     13  C   UNL     1       1.875  44.244  50.848  1.00  0.00     0.120 C 
ENDROOT
BRANCH   2  14
ATOM     14  C   UNL     1       5.290  45.942  51.270  1.00  0.00     0.042 A 
ATOM     15  C   UNL     1       6.181  45.227  50.432  1.00  0.00     0.015 A 
ATOM     16  C   UNL     1       5.807  46.801  52.265  1.00  0.00     0.043 A 
ATOM     17  C   UNL     1       7.570  45.344  50.599  1.00  0.00     0.022 A 
ATOM     18  C   UNL     1       7.190  46.906  52.418  1.00  0.00     0.082 A 
ATOM     19  C   UNL     1       8.042  46.186  51.600  1.00  0.00     0.054 A 
ATOM     20  N   UNL     1       7.802  47.689  53.344  1.00  0.00    -0.245 NA
ATOM     21  S   UNL     1       9.627  46.525  52.028  1.00  0.00    -0.122 S 
ATOM     22  C   UNL     1       9.152  47.588  53.258  1.00  0.00     0.176 A 
ENDBRANCH   2  14
BRANCH   9  23
ATOM     23  O   UNL     1       0.247  45.169  57.431  1.00  0.00    -0.393 OA
ATOM     24  H   UNL     1       1.061  45.553  57.853  1.00  0.00     0.210 HD
ENDBRANCH   9  23
TORSDOF 2
ENDMDL
MODEL 2
REMARK VINA RESULT:    -8.341      3.436      7.063
REMARK INTER + INTRA:          -9.403
REMARK INTER:                  -9.241
REMARK INTRA:                  -0.163
REMARK UNBOUND:                -0.331
REMARK SMILES O=C(c1ccc2scnc2c1)N1CCC2(CCC(O)CC2)CC1
REMARK SMILES IDX 1 1 2 2 12 3 13 4 14 5 15 6 16 7 17 8 18 9 20 10 21 11 22 12
REMARK SMILES IDX 23 13 3 14 4 15 11 16 5 17 10 18 6 19 9 20 7 21 8 22 19 23
REMARK H PARENT 19 24
ROOT
ATOM      1  O   UNL     1       3.997  42.943  52.650  1.00  0.00    -0.269 OA
ATOM      2  C   UNL     1       3.545  44.120  52.683  1.00  0.00     0.253 C 
ATOM      3  N   UNL     1       4.239  45.167  51.976  1.00  0.00    -0.339 N 
ATOM      4  C   UNL     1       4.348  46.513  52.559  1.00  0.00     0.120 C 
ATOM      5  C   UNL     1       5.675  47.187  52.163  1.00  0.00     0.028 C 
ATOM      6  C   UNL     1       6.855  46.170  52.077  1.00  0.00    -0.026 C 
ATOM      7  C   UNL     1       8.175  46.924  51.676  1.00  0.00     0.010 C 
ATOM      8  C   UNL     1       9.151  47.195  52.840  1.00  0.00     0.032 C 
ATOM      9  C   UNL     1       8.420  47.548  54.137  1.00  0.00     0.114 C 
ATOM     10  C   UNL     1       7.465  46.413  54.582  1.00  0.00     0.032 C 
ATOM     11  C   UNL     1       7.075  45.449  53.444  1.00  0.00     0.010 C 
ATOM     12  C   UNL     1       6.513  45.100  50.981  1.00  0.00     0.028 C 
ATOM     13  C   UNL     1       5.004  44.862  50.764  1.00  0.00     0.120 C 
ENDROOT
BRANCH   2  14
ATOM     14  C   UNL     1       2.324  44.397  53.471  1.00  0.00     0.042 A 
ATOM     15  C   UNL     1       1.043  44.108  52.939  1.00  0.00     0.015 A 
ATOM     16  C   UNL     1       2.434  44.920  54.778  1.00  0.00     0.043 A 
ATOM     17  C   UNL     1      -0.117  44.363  53.688  1.00  0.00     0.022 A 
ATOM     18  C   UNL     1       1.272  45.168  55.509  1.00  0.00     0.082 A 
ATOM     19  C   UNL     1       0.030  44.895  54.964  1.00  0.00     0.054 A 
ATOM     20  N   UNL     1       1.251  45.679  56.767  1.00  0.00    -0.245 NA
ATOM     21  S   UNL     1      -1.156  45.296  56.079  1.00  0.00    -0.122 S 
ATOM     22  C   UNL     1      -0.019  45.811  57.223  1.00  0.00     0.176 A 
ENDBRANCH   2  14
BRANCH   9  23
ATOM     23  O   UNL     1       9.367  47.801  55.142  1.00  0.00    -0.393 OA
ATOM     24  H   UNL     1       9.821  46.937  55.331  1.00  0.00     0.210 HD
ENDBRANCH   9  23
TORSDOF 2
ENDMDL
MODEL 3
REMARK VINA RESULT:    -7.932      3.492      7.451
REMARK INTER + INTRA:          -8.959
REMARK INTER:                  -8.670
REMARK INTRA:                  -0.289
REMARK UNBOUND:                -0.331
REMARK SMILES O=C(c1ccc2scnc2c1)N1CCC2(CCC(O)CC2)CC1
REMARK SMILES IDX 1 1 2 2 12 3 13 4 14 5 15 6 16 7 17 8 18 9 20 10 21 11 22 12
REMARK SMILES IDX 23 13 3 14 4 15 11 16 5 17 10 18 6 19 9 20 7 21 8 22 19 23
REMARK H PARENT 19 24
ROOT
ATOM      1  O   UNL     1       3.442  42.240  53.074  1.00  0.00    -0.269 OA
ATOM      2  C   UNL     1       2.882  43.252  52.572  1.00  0.00     0.253 C 
ATOM      3  N   UNL     1       3.520  43.951  51.484  1.00  0.00    -0.339 N 
ATOM      4  C   UNL     1       3.466  45.419  51.408  1.00  0.00     0.120 C 
ATOM      5  C   UNL     1       4.747  45.992  50.775  1.00  0.00     0.028 C 
ATOM      6  C   UNL     1       6.020  45.180  51.170  1.00  0.00    -0.026 C 
ATOM      7  C   UNL     1       7.287  45.821  50.496  1.00  0.00     0.010 C 
ATOM      8  C   UNL     1       8.157  46.685  51.433  1.00  0.00     0.032 C 
ATOM      9  C   UNL     1       7.315  47.490  52.426  1.00  0.00     0.114 C 
ATOM     10  C   UNL     1       6.442  46.570  53.314  1.00  0.00     0.032 C 
ATOM     11  C   UNL     1       6.217  45.166  52.718  1.00  0.00     0.010 C 
ATOM     12  C   UNL     1       5.849  43.705  50.659  1.00  0.00     0.028 C 
ATOM     13  C   UNL     1       4.385  43.230  50.547  1.00  0.00     0.120 C 
ENDROOT
BRANCH   2  14
ATOM     14  C   UNL     1       1.593  43.710  53.134  1.00  0.00     0.042 A 
ATOM     15  C   UNL     1       1.561  44.518  54.297  1.00  0.00     0.015 A 
ATOM     16  C   UNL     1       0.383  43.371  52.488  1.00  0.00     0.043 A 
ATOM     17  C   UNL     1       0.339  44.960  54.829  1.00  0.00     0.022 A 
ATOM     18  C   UNL     1      -0.823  43.819  53.029  1.00  0.00     0.082 A 
ATOM     19  C   UNL     1      -0.832  44.592  54.176  1.00  0.00     0.054 A 
ATOM     20  N   UNL     1      -2.046  43.549  52.504  1.00  0.00    -0.245 NA
ATOM     21  S   UNL     1      -2.418  44.968  54.569  1.00  0.00    -0.122 S 
ATOM     22  C   UNL     1      -3.033  44.115  53.242  1.00  0.00     0.176 A 
ENDBRANCH   2  14
BRANCH   9  23
ATOM     23  O   UNL     1       8.169  48.265  53.227  1.00  0.00    -0.393 OA
ATOM     24  H   UNL     1       7.757  49.167  53.294  1.00  0.00     0.210 HD
ENDBRANCH   9  23
TORSDOF 2
ENDMDL
MODEL 4
REMARK VINA RESULT:    -7.761      4.446      6.725
REMARK INTER + INTRA:          -8.772
REMARK INTER:                  -8.501
REMARK INTRA:                  -0.272
REMARK UNBOUND:                -0.331
REMARK SMILES O=C(c1ccc2scnc2c1)N1CCC2(CCC(O)CC2)CC1
REMARK SMILES IDX 1 1 2 2 12 3 13 4 14 5 15 6 16 7 17 8 18 9 20 10 21 11 22 12
REMARK SMILES IDX 23 13 3 14 4 15 11 16 5 17 10 18 6 19 9 20 7 21 8 22 19 23
REMARK H PARENT 19 24
ROOT
ATOM      1  O   UNL     1       7.791  42.395  50.158  1.00  0.00    -0.269 OA
ATOM      2  C   UNL     1       6.731  42.921  49.723  1.00  0.00     0.253 C 
ATOM      3  N   UNL     1       6.485  44.323  49.954  1.00  0.00    -0.339 N 
ATOM      4  C   UNL     1       5.129  44.801  50.264  1.00  0.00     0.120 C 
ATOM      5  C   UNL     1       5.168  46.010  51.217  1.00  0.00     0.028 C 
ATOM      6  C   UNL     1       6.323  45.907  52.262  1.00  0.00    -0.026 C 
ATOM      7  C   UNL     1       6.299  47.167  53.201  1.00  0.00     0.010 C 
ATOM      8  C   UNL     1       5.686  46.929  54.597  1.00  0.00     0.032 C 
ATOM      9  C   UNL     1       4.490  45.975  54.548  1.00  0.00     0.114 C 
ATOM     10  C   UNL     1       4.883  44.595  53.968  1.00  0.00     0.032 C 
ATOM     11  C   UNL     1       6.178  44.620  53.131  1.00  0.00     0.010 C 
ATOM     12  C   UNL     1       7.689  45.858  51.491  1.00  0.00     0.028 C 
ATOM     13  C   UNL     1       7.605  45.262  50.070  1.00  0.00     0.120 C 
ENDROOT
BRANCH   2  14
ATOM     14  C   UNL     1       5.753  42.074  49.006  1.00  0.00     0.042 A 
ATOM     15  C   UNL     1       4.790  41.322  49.723  1.00  0.00     0.015 A 
ATOM     16  C   UNL     1       5.754  42.039  47.594  1.00  0.00     0.043 A 
ATOM     17  C   UNL     1       3.856  40.523  49.045  1.00  0.00     0.022 A 
ATOM     18  C   UNL     1       4.819  41.240  46.935  1.00  0.00     0.082 A 
ATOM     19  C   UNL     1       3.898  40.500  47.656  1.00  0.00     0.054 A 
ATOM     20  N   UNL     1       4.730  41.117  45.585  1.00  0.00    -0.245 NA
ATOM     21  S   UNL     1       2.922  39.654  46.588  1.00  0.00    -0.122 S 
ATOM     22  C   UNL     1       3.728  40.274  45.234  1.00  0.00     0.176 A 
ENDBRANCH   2  14
BRANCH   9  23
ATOM     23  O   UNL     1       3.974  45.823  55.845  1.00  0.00    -0.393 OA
ATOM     24  H   UNL     1       3.190  46.431  55.914  1.00  0.00     0.210 HD
ENDBRANCH   9  23
TORSDOF 2
ENDMDL
MODEL 5
REMARK VINA RESULT:    -7.598      3.715      7.154
REMARK INTER + INTRA:          -8.596
REMARK INTER:                  -8.341
REMARK INTRA:                  -0.255
REMARK UNBOUND:                -0.331
REMARK SMILES O=C(c1ccc2scnc2c1)N1CCC2(CCC(O)CC2)CC1
REMARK SMILES IDX 1 1 2 2 12 3 13 4 14 5 15 6 16 7 17 8 18 9 20 10 21 11 22 12
REMARK SMILES IDX 23 13 3 14 4 15 11 16 5 17 10 18 6 19 9 20 7 21 8 22 19 23
REMARK H PARENT 19 24
ROOT
ATOM      1  O   UNL     1       1.399  43.108  54.365  1.00  0.00    -0.269 OA
ATOM      2  C   UNL     1       1.181  44.340  54.202  1.00  0.00     0.253 C 
ATOM      3  N   UNL     1       1.616  44.984  52.988  1.00  0.00    -0.339 N 
ATOM      4  C   UNL     1       2.165  46.348  53.022  1.00  0.00     0.120 C 
ATOM      5  C   UNL     1       3.245  46.542  51.943  1.00  0.00     0.028 C 
ATOM      6  C   UNL     1       4.102  45.257  51.720  1.00  0.00    -0.026 C 
ATOM      7  C   UNL     1       5.184  45.527  50.613  1.00  0.00     0.010 C 
ATOM      8  C   UNL     1       6.610  45.783  51.144  1.00  0.00     0.032 C 
ATOM      9  C   UNL     1       6.608  46.594  52.441  1.00  0.00     0.114 C 
ATOM     10  C   UNL     1       5.813  45.879  53.562  1.00  0.00     0.032 C 
ATOM     11  C   UNL     1       4.817  44.825  53.038  1.00  0.00     0.010 C 
ATOM     12  C   UNL     1       3.152  44.100  51.248  1.00  0.00     0.028 C 
ATOM     13  C   UNL     1       1.693  44.227  51.735  1.00  0.00     0.120 C 
ENDROOT
BRANCH   2  14
ATOM     14  C   UNL     1       0.506  45.096  55.278  1.00  0.00     0.042 A 
ATOM     15  C   UNL     1      -0.906  45.212  55.301  1.00  0.00     0.015 A 
ATOM     16  C   UNL     1       1.269  45.681  56.314  1.00  0.00     0.043 A 
ATOM     17  C   UNL     1      -1.550  45.923  56.325  1.00  0.00     0.022 A 
ATOM     18  C   UNL     1       0.614  46.384  57.325  1.00  0.00     0.082 A 
ATOM     19  C   UNL     1      -0.765  46.499  57.318  1.00  0.00     0.054 A 
ATOM     20  N   UNL     1       1.240  46.996  58.363  1.00  0.00    -0.245 NA
ATOM     21  S   UNL     1      -1.245  47.393  58.652  1.00  0.00    -0.122 S 
ATOM     22  C   UNL     1       0.348  47.600  59.187  1.00  0.00     0.176 A 
ENDBRANCH   2  14
BRANCH   9  23
ATOM     23  O   UNL     1       7.935  46.805  52.852  1.00  0.00    -0.393 OA
ATOM     24  H   UNL     1       8.517  46.438  52.134  1.00  0.00     0.210 HD
ENDBRANCH   9  23
TORSDOF 2
ENDMDL
