ligand_37_conformer_3_docked
     RDKit          3D

 44 46  0  0  0  0  0  0  0  0999 V2000
   11.0310   47.6130   56.4710 C   0  0  0  0  0  0  0  0  0  0  0  0
    9.8800   48.0790   55.7770 O   0  0  0  0  0  0  0  0  0  0  0  0
    9.3700   47.4380   54.6430 C   0  0  0  0  0  0  0  0  0  0  0  0
   10.1890   47.2560   53.5290 C   0  0  0  0  0  0  0  0  0  0  0  0
    9.6620   46.6080   52.4150 C   0  0  0  0  0  0  0  0  0  0  0  0
    8.3760   46.1730   52.4290 N   0  0  0  0  0  0  0  0  0  0  0  0
    7.5790   46.3600   53.5170 C   0  0  0  0  0  0  0  0  0  0  0  0
    6.2210   45.8790   53.5200 N   0  0  0  0  0  0  0  0  0  0  0  0
    5.5640   45.5720   54.7950 C   0  0  0  0  0  0  0  0  0  0  0  0
    5.4740   45.7990   52.2920 C   0  0  0  0  0  0  0  0  0  0  0  0
    4.7290   46.7620   51.9590 O   0  0  0  0  0  0  0  0  0  0  0  0
    5.5630   44.6080   51.4120 C   0  0  0  0  0  0  0  0  0  0  0  0
    6.5070   44.5540   50.3730 C   0  0  0  0  0  0  0  0  0  0  0  0
    6.5820   43.4310   49.5440 C   0  0  0  0  0  0  0  0  0  0  0  0
    5.7220   42.3460   49.7350 C   0  0  0  0  0  0  0  0  0  0  0  0
    5.8310   41.2450   48.8740 O   0  0  0  0  0  0  0  0  0  0  0  0
    5.0350   41.0190   47.7420 C   0  0  0  0  0  0  0  0  0  0  0  0
    5.4400   41.5380   46.5100 C   0  0  0  0  0  0  0  0  0  0  0  0
    4.6690   41.2950   45.3730 C   0  0  0  0  0  0  0  0  0  0  0  0
    3.4860   40.5430   45.4700 C   0  0  0  0  0  0  0  0  0  0  0  0
    2.6490   40.2280   44.2560 C   0  0  0  0  0  0  0  0  0  0  0  0
    3.4690   39.9710   43.1720 F   0  0  0  0  0  0  0  0  0  0  0  0
    1.8430   41.3130   43.9650 F   0  0  0  0  0  0  0  0  0  0  0  0
    1.8490   39.1190   44.4710 F   0  0  0  0  0  0  0  0  0  0  0  0
    3.1320   40.0180   46.7240 C   0  0  0  0  0  0  0  0  0  0  0  0
    3.9030   40.2650   47.8140 N   0  0  0  0  0  0  0  0  0  0  0  0
    4.7500   42.4110   50.7520 C   0  0  0  0  0  0  0  0  0  0  0  0
    4.6750   43.5320   51.5840 C   0  0  0  0  0  0  0  0  0  0  0  0
    8.0870   46.9870   54.6150 N   0  0  0  0  0  0  0  0  0  0  0  0
   10.8587   47.6828   57.5552 H   0  0  0  0  0  0  0  0  0  0  0  0
   11.2251   46.5654   56.1972 H   0  0  0  0  0  0  0  0  0  0  0  0
   11.8992   48.2304   56.1972 H   0  0  0  0  0  0  0  0  0  0  0  0
   11.2283   47.6164   53.5304 H   0  0  0  0  0  0  0  0  0  0  0  0
   10.2872   46.4486   51.5241 H   0  0  0  0  0  0  0  0  0  0  0  0
    6.2165   45.8769   55.6265 H   0  0  0  0  0  0  0  0  0  0  0  0
    4.6112   46.1181   54.8573 H   0  0  0  0  0  0  0  0  0  0  0  0
    5.3716   44.4907   54.8573 H   0  0  0  0  0  0  0  0  0  0  0  0
    7.1909   45.4001   50.2109 H   0  0  0  0  0  0  0  0  0  0  0  0
    7.3251   43.4010   48.7335 H   0  0  0  0  0  0  0  0  0  0  0  0
    6.3612   42.1347   46.4368 H   0  0  0  0  0  0  0  0  0  0  0  0
    4.9879   41.6930   44.3984 H   0  0  0  0  0  0  0  0  0  0  0  0
    2.2251   39.4034   46.8234 H   0  0  0  0  0  0  0  0  0  0  0  0
    4.0471   41.5766   50.8923 H   0  0  0  0  0  0  0  0  0  0  0  0
    3.9157   43.5723   52.3789 H   0  0  0  0  0  0  0  0  0  0  0  0
  1  2  1  0
  2  3  1  0
  3  4  2  0
  4  5  1  0
  5  6  2  0
  6  7  1  0
  7  8  1  0
  8  9  1  0
  8 10  1  0
 10 11  2  0
 10 12  1  0
 12 13  2  0
 13 14  1  0
 14 15  2  0
 15 16  1  0
 16 17  1  0
 17 18  2  0
 18 19  1  0
 19 20  2  0
 20 21  1  0
 21 22  1  0
 21 23  1  0
 21 24  1  0
 20 25  1  0
 25 26  2  0
 15 27  1  0
 27 28  2  0
  7 29  2  0
 29  3  1  0
 28 12  1  0
 26 17  1  0
  1 30  1  0
  1 31  1  0
  1 32  1  0
  4 33  1  0
  5 34  1  0
  9 35  1  0
  9 36  1  0
  9 37  1  0
 13 38  1  0
 14 39  1  0
 18 40  1  0
 19 41  1  0
 25 42  1  0
 27 43  1  0
 28 44  1  0
M  END
>  <meeko>  (1) 
{"is_sidechain": [false], "free_energy": -8.988, "intermolecular_energy": -12.667, "internal_energy": -0.615}

$$$$
ligand_37_conformer_3_docked
     RDKit          3D

 44 46  0  0  0  0  0  0  0  0999 V2000
   -3.5070   42.3250   59.4210 C   0  0  0  0  0  0  0  0  0  0  0  0
   -3.4070   42.2510   58.0040 O   0  0  0  0  0  0  0  0  0  0  0  0
   -2.8880   43.2910   57.2280 C   0  0  0  0  0  0  0  0  0  0  0  0
   -2.9120   44.5960   57.7210 C   0  0  0  0  0  0  0  0  0  0  0  0
   -2.3810   45.6140   56.9320 C   0  0  0  0  0  0  0  0  0  0  0  0
   -1.8600   45.3260   55.7120 N   0  0  0  0  0  0  0  0  0  0  0  0
   -1.8470   44.0520   55.2330 C   0  0  0  0  0  0  0  0  0  0  0  0
   -1.2770   43.7620   53.9420 N   0  0  0  0  0  0  0  0  0  0  0  0
   -2.0930   43.9310   52.7360 C   0  0  0  0  0  0  0  0  0  0  0  0
    0.1140   43.4110   53.8220 C   0  0  0  0  0  0  0  0  0  0  0  0
    0.4360   42.1950   53.7150 O   0  0  0  0  0  0  0  0  0  0  0  0
    1.1740   44.4480   53.8240 C   0  0  0  0  0  0  0  0  0  0  0  0
    2.0360   44.5900   54.9240 C   0  0  0  0  0  0  0  0  0  0  0  0
    3.0290   45.5740   54.9230 C   0  0  0  0  0  0  0  0  0  0  0  0
    3.1810   46.4290   53.8280 C   0  0  0  0  0  0  0  0  0  0  0  0
    4.1870   47.4050   53.8750 O   0  0  0  0  0  0  0  0  0  0  0  0
    5.5450   47.1840   53.6030 C   0  0  0  0  0  0  0  0  0  0  0  0
    5.9300   46.8130   52.3130 C   0  0  0  0  0  0  0  0  0  0  0  0
    7.2820   46.6180   52.0270 C   0  0  0  0  0  0  0  0  0  0  0  0
    8.2470   46.7810   53.0340 C   0  0  0  0  0  0  0  0  0  0  0  0
    9.7190   46.6170   52.7510 C   0  0  0  0  0  0  0  0  0  0  0  0
   10.4620   47.2480   53.7330 F   0  0  0  0  0  0  0  0  0  0  0  0
   10.0130   47.1880   51.5260 F   0  0  0  0  0  0  0  0  0  0  0  0
   10.0790   45.2800   52.7210 F   0  0  0  0  0  0  0  0  0  0  0  0
    7.8170   47.1810   54.3090 C   0  0  0  0  0  0  0  0  0  0  0  0
    6.4960   47.3700   54.5610 N   0  0  0  0  0  0  0  0  0  0  0  0
    2.2970   46.3150   52.7390 C   0  0  0  0  0  0  0  0  0  0  0  0
    1.3040   45.3310   52.7380 C   0  0  0  0  0  0  0  0  0  0  0  0
   -2.3570   43.0470   55.9990 N   0  0  0  0  0  0  0  0  0  0  0  0
   -2.7023   41.7295   59.8770 H   0  0  0  0  0  0  0  0  0  0  0  0
   -3.4137   43.3733   59.7409 H   0  0  0  0  0  0  0  0  0  0  0  0
   -4.4823   41.9294   59.7409 H   0  0  0  0  0  0  0  0  0  0  0  0
   -3.3404   44.8160   58.7100 H   0  0  0  0  0  0  0  0  0  0  0  0
   -2.3839   46.6514   57.2977 H   0  0  0  0  0  0  0  0  0  0  0  0
   -3.1326   44.1463   53.0239 H   0  0  0  0  0  0  0  0  0  0  0  0
   -1.6972   44.7662   52.1396 H   0  0  0  0  0  0  0  0  0  0  0  0
   -2.0615   43.0073   52.1396 H   0  0  0  0  0  0  0  0  0  0  0  0
    1.9290   43.9226   55.7918 H   0  0  0  0  0  0  0  0  0  0  0  0
    3.6964   45.6762   55.7914 H   0  0  0  0  0  0  0  0  0  0  0  0
    5.1725   46.6753   51.5273 H   0  0  0  0  0  0  0  0  0  0  0  0
    7.5925   46.3359   51.0101 H   0  0  0  0  0  0  0  0  0  0  0  0
    8.5546   47.3424   55.1089 H   0  0  0  0  0  0  0  0  0  0  0  0
    2.3877   47.0028   51.8853 H   0  0  0  0  0  0  0  0  0  0  0  0
    0.6194   45.2471   51.8811 H   0  0  0  0  0  0  0  0  0  0  0  0
  1  2  1  0
  2  3  1  0
  3  4  2  0
  4  5  1  0
  5  6  2  0
  6  7  1  0
  7  8  1  0
  8  9  1  0
  8 10  1  0
 10 11  2  0
 10 12  1  0
 12 13  2  0
 13 14  1  0
 14 15  2  0
 15 16  1  0
 16 17  1  0
 17 18  2  0
 18 19  1  0
 19 20  2  0
 20 21  1  0
 21 22  1  0
 21 23  1  0
 21 24  1  0
 20 25  1  0
 25 26  2  0
 15 27  1  0
 27 28  2  0
  7 29  2  0
 29  3  1  0
 28 12  1  0
 26 17  1  0
  1 30  1  0
  1 31  1  0
  1 32  1  0
  4 33  1  0
  5 34  1  0
  9 35  1  0
  9 36  1  0
  9 37  1  0
 13 38  1  0
 14 39  1  0
 18 40  1  0
 19 41  1  0
 25 42  1  0
 27 43  1  0
 28 44  1  0
M  END
>  <meeko>  (2) 
{"is_sidechain": [false], "free_energy": -8.757, "intermolecular_energy": -12.023, "internal_energy": -0.933}

$$$$
ligand_37_conformer_3_docked
     RDKit          3D

 44 46  0  0  0  0  0  0  0  0999 V2000
    0.8740   45.9240   57.3770 C   0  0  0  0  0  0  0  0  0  0  0  0
   -0.5140   45.7520   57.6400 O   0  0  0  0  0  0  0  0  0  0  0  0
   -1.3510   44.9970   56.8140 C   0  0  0  0  0  0  0  0  0  0  0  0
   -2.6490   44.7030   57.2340 C   0  0  0  0  0  0  0  0  0  0  0  0
   -3.4670   43.9560   56.3900 C   0  0  0  0  0  0  0  0  0  0  0  0
   -2.9950   43.5290   55.1900 N   0  0  0  0  0  0  0  0  0  0  0  0
   -1.7250   43.8130   54.7900 C   0  0  0  0  0  0  0  0  0  0  0  0
   -1.2460   43.3640   53.5070 N   0  0  0  0  0  0  0  0  0  0  0  0
   -2.0820   43.5460   52.3170 C   0  0  0  0  0  0  0  0  0  0  0  0
    0.0870   42.8350   53.3730 C   0  0  0  0  0  0  0  0  0  0  0  0
    0.3440   41.6860   53.8280 O   0  0  0  0  0  0  0  0  0  0  0  0
    1.1620   43.6150   52.7120 C   0  0  0  0  0  0  0  0  0  0  0  0
    1.0150   44.9950   52.4930 C   0  0  0  0  0  0  0  0  0  0  0  0
    2.0280   45.7240   51.8650 C   0  0  0  0  0  0  0  0  0  0  0  0
    3.2040   45.0920   51.4470 C   0  0  0  0  0  0  0  0  0  0  0  0
    4.1900   45.8630   50.8160 O   0  0  0  0  0  0  0  0  0  0  0  0
    5.4920   46.0650   51.2940 C   0  0  0  0  0  0  0  0  0  0  0  0
    6.5660   45.4930   50.6080 C   0  0  0  0  0  0  0  0  0  0  0  0
    7.8680   45.7110   51.0610 C   0  0  0  0  0  0  0  0  0  0  0  0
    8.0940   46.4910   52.2070 C   0  0  0  0  0  0  0  0  0  0  0  0
    9.4890   46.7790   52.7020 C   0  0  0  0  0  0  0  0  0  0  0  0
   10.3640   46.8530   51.6330 F   0  0  0  0  0  0  0  0  0  0  0  0
    9.8930   45.7600   53.5460 F   0  0  0  0  0  0  0  0  0  0  0  0
    9.5400   47.9790   53.3920 F   0  0  0  0  0  0  0  0  0  0  0  0
    6.9870   47.0690   52.8490 C   0  0  0  0  0  0  0  0  0  0  0  0
    5.7310   46.8460   52.3850 N   0  0  0  0  0  0  0  0  0  0  0  0
    3.3400   43.7040   51.6310 C   0  0  0  0  0  0  0  0  0  0  0  0
    2.3280   42.9740   52.2610 C   0  0  0  0  0  0  0  0  0  0  0  0
   -0.9180   44.5490   55.6040 N   0  0  0  0  0  0  0  0  0  0  0  0
    1.4218   45.9919   58.3285 H   0  0  0  0  0  0  0  0  0  0  0  0
    1.2470   45.0652   56.7996 H   0  0  0  0  0  0  0  0  0  0  0  0
    1.0261   46.8479   56.7996 H   0  0  0  0  0  0  0  0  0  0  0  0
   -3.0176   45.0533   58.2094 H   0  0  0  0  0  0  0  0  0  0  0  0
   -4.4952   43.7118   56.6951 H   0  0  0  0  0  0  0  0  0  0  0  0
   -3.1139   43.7707   52.6247 H   0  0  0  0  0  0  0  0  0  0  0  0
   -1.6887   44.3796   51.7166 H   0  0  0  0  0  0  0  0  0  0  0  0
   -2.0708   42.6244   51.7166 H   0  0  0  0  0  0  0  0  0  0  0  0
    0.0962   45.5049   52.8182 H   0  0  0  0  0  0  0  0  0  0  0  0
    1.8998   46.8036   51.6979 H   0  0  0  0  0  0  0  0  0  0  0  0
    6.3867   44.8745   49.7162 H   0  0  0  0  0  0  0  0  0  0  0  0
    8.7186   45.2712   50.5196 H   0  0  0  0  0  0  0  0  0  0  0  0
    7.1385   47.7061   53.7329 H   0  0  0  0  0  0  0  0  0  0  0  0
    4.2466   43.1909   51.2776 H   0  0  0  0  0  0  0  0  0  0  0  0
    2.4454   41.8898   52.4047 H   0  0  0  0  0  0  0  0  0  0  0  0
  1  2  1  0
  2  3  1  0
  3  4  2  0
  4  5  1  0
  5  6  2  0
  6  7  1  0
  7  8  1  0
  8  9  1  0
  8 10  1  0
 10 11  2  0
 10 12  1  0
 12 13  2  0
 13 14  1  0
 14 15  2  0
 15 16  1  0
 16 17  1  0
 17 18  2  0
 18 19  1  0
 19 20  2  0
 20 21  1  0
 21 22  1  0
 21 23  1  0
 21 24  1  0
 20 25  1  0
 25 26  2  0
 15 27  1  0
 27 28  2  0
  7 29  2  0
 29  3  1  0
 28 12  1  0
 26 17  1  0
  1 30  1  0
  1 31  1  0
  1 32  1  0
  4 33  1  0
  5 34  1  0
  9 35  1  0
  9 36  1  0
  9 37  1  0
 13 38  1  0
 14 39  1  0
 18 40  1  0
 19 41  1  0
 25 42  1  0
 27 43  1  0
 28 44  1  0
M  END
>  <meeko>  (3) 
{"is_sidechain": [false], "free_energy": -8.653, "intermolecular_energy": -11.96, "internal_energy": -0.848}

$$$$
ligand_37_conformer_3_docked
     RDKit          3D

 44 46  0  0  0  0  0  0  0  0999 V2000
   -1.7450   47.8360   58.3530 C   0  0  0  0  0  0  0  0  0  0  0  0
   -1.7060   46.4480   58.0460 O   0  0  0  0  0  0  0  0  0  0  0  0
   -0.7810   45.8970   57.1550 C   0  0  0  0  0  0  0  0  0  0  0  0
    0.5830   45.9870   57.4350 C   0  0  0  0  0  0  0  0  0  0  0  0
    1.4850   45.4230   56.5360 C   0  0  0  0  0  0  0  0  0  0  0  0
    1.0300   44.8070   55.4150 N   0  0  0  0  0  0  0  0  0  0  0  0
   -0.3020   44.7290   55.1430 C   0  0  0  0  0  0  0  0  0  0  0  0
   -0.7680   44.0580   53.9560 N   0  0  0  0  0  0  0  0  0  0  0  0
   -2.0690   44.4190   53.3830 C   0  0  0  0  0  0  0  0  0  0  0  0
    0.0790   43.1160   53.2720 C   0  0  0  0  0  0  0  0  0  0  0  0
   -0.2220   41.8910   53.2890 O   0  0  0  0  0  0  0  0  0  0  0  0
    1.2980   43.5580   52.5510 C   0  0  0  0  0  0  0  0  0  0  0  0
    2.4880   42.8150   52.6330 C   0  0  0  0  0  0  0  0  0  0  0  0
    3.6350   43.2390   51.9560 C   0  0  0  0  0  0  0  0  0  0  0  0
    3.6160   44.4070   51.1860 C   0  0  0  0  0  0  0  0  0  0  0  0
    4.7920   44.7950   50.5310 O   0  0  0  0  0  0  0  0  0  0  0  0
    5.9370   45.3100   51.1550 C   0  0  0  0  0  0  0  0  0  0  0  0
    7.1450   45.3310   50.4540 C   0  0  0  0  0  0  0  0  0  0  0  0
    8.2830   45.8660   51.0580 C   0  0  0  0  0  0  0  0  0  0  0  0
    8.2170   46.3680   52.3680 C   0  0  0  0  0  0  0  0  0  0  0  0
    9.4170   46.9890   53.0370 C   0  0  0  0  0  0  0  0  0  0  0  0
    9.1510   48.3090   53.3530 F   0  0  0  0  0  0  0  0  0  0  0  0
   10.4960   46.9410   52.1720 F   0  0  0  0  0  0  0  0  0  0  0  0
    9.7460   46.3180   54.2030 F   0  0  0  0  0  0  0  0  0  0  0  0
    6.9760   46.3510   53.0260 C   0  0  0  0  0  0  0  0  0  0  0  0
    5.8810   45.8300   52.4130 N   0  0  0  0  0  0  0  0  0  0  0  0
    2.4370   45.1730   51.1310 C   0  0  0  0  0  0  0  0  0  0  0  0
    1.2880   44.7500   51.8060 C   0  0  0  0  0  0  0  0  0  0  0  0
   -1.1940   45.2710   56.0190 N   0  0  0  0  0  0  0  0  0  0  0  0
   -1.7488   47.9701   59.4448 H   0  0  0  0  0  0  0  0  0  0  0  0
   -0.8604   48.3310   57.9258 H   0  0  0  0  0  0  0  0  0  0  0  0
   -2.6560   48.2806   57.9258 H   0  0  0  0  0  0  0  0  0  0  0  0
    0.9380   46.4921   58.3454 H   0  0  0  0  0  0  0  0  0  0  0  0
    2.5657   45.4767   56.7342 H   0  0  0  0  0  0  0  0  0  0  0  0
   -2.7846   44.6176   54.1944 H   0  0  0  0  0  0  0  0  0  0  0  0
   -1.9589   45.3205   52.7624 H   0  0  0  0  0  0  0  0  0  0  0  0
   -2.4392   43.5896   52.7624 H   0  0  0  0  0  0  0  0  0  0  0  0
    2.5170   41.8940   53.2337 H   0  0  0  0  0  0  0  0  0  0  0  0
    4.5606   42.6492   52.0292 H   0  0  0  0  0  0  0  0  0  0  0  0
    7.1986   44.9281   49.4318 H   0  0  0  0  0  0  0  0  0  0  0  0
    9.2345   45.8948   50.5068 H   0  0  0  0  0  0  0  0  0  0  0  0
    6.8902   46.7616   54.0429 H   0  0  0  0  0  0  0  0  0  0  0  0
    2.4192   46.1094   50.5540 H   0  0  0  0  0  0  0  0  0  0  0  0
    0.3701   45.3540   51.7537 H   0  0  0  0  0  0  0  0  0  0  0  0
  1  2  1  0
  2  3  1  0
  3  4  2  0
  4  5  1  0
  5  6  2  0
  6  7  1  0
  7  8  1  0
  8  9  1  0
  8 10  1  0
 10 11  2  0
 10 12  1  0
 12 13  2  0
 13 14  1  0
 14 15  2  0
 15 16  1  0
 16 17  1  0
 17 18  2  0
 18 19  1  0
 19 20  2  0
 20 21  1  0
 21 22  1  0
 21 23  1  0
 21 24  1  0
 20 25  1  0
 25 26  2  0
 15 27  1  0
 27 28  2  0
  7 29  2  0
 29  3  1  0
 28 12  1  0
 26 17  1  0
  1 30  1  0
  1 31  1  0
  1 32  1  0
  4 33  1  0
  5 34  1  0
  9 35  1  0
  9 36  1  0
  9 37  1  0
 13 38  1  0
 14 39  1  0
 18 40  1  0
 19 41  1  0
 25 42  1  0
 27 43  1  0
 28 44  1  0
M  END
>  <meeko>  (4) 
{"is_sidechain": [false], "free_energy": -8.553, "intermolecular_energy": -12.011, "internal_energy": -0.657}

$$$$
ligand_37_conformer_3_docked
     RDKit          3D

 44 46  0  0  0  0  0  0  0  0999 V2000
   -3.1800   45.3820   48.4180 C   0  0  0  0  0  0  0  0  0  0  0  0
   -2.7030   44.0430   48.4780 O   0  0  0  0  0  0  0  0  0  0  0  0
   -2.6600   43.3100   49.6670 C   0  0  0  0  0  0  0  0  0  0  0  0
   -3.2450   42.0450   49.7180 C   0  0  0  0  0  0  0  0  0  0  0  0
   -3.1830   41.3300   50.9120 C   0  0  0  0  0  0  0  0  0  0  0  0
   -2.5640   41.8690   51.9930 N   0  0  0  0  0  0  0  0  0  0  0  0
   -2.0000   43.1070   51.9400 C   0  0  0  0  0  0  0  0  0  0  0  0
   -1.3350   43.6580   53.0940 N   0  0  0  0  0  0  0  0  0  0  0  0
   -2.0930   44.4800   54.0430 C   0  0  0  0  0  0  0  0  0  0  0  0
    0.0360   43.3200   53.3740 C   0  0  0  0  0  0  0  0  0  0  0  0
    0.3540   42.1080   53.5260 O   0  0  0  0  0  0  0  0  0  0  0  0
    1.0800   44.3670   53.4880 C   0  0  0  0  0  0  0  0  0  0  0  0
    1.1830   45.3840   52.5240 C   0  0  0  0  0  0  0  0  0  0  0  0
    2.1720   46.3660   52.6340 C   0  0  0  0  0  0  0  0  0  0  0  0
    3.0720   46.3520   53.7040 C   0  0  0  0  0  0  0  0  0  0  0  0
    4.0510   47.3540   53.7680 O   0  0  0  0  0  0  0  0  0  0  0  0
    5.4180   47.1690   53.5210 C   0  0  0  0  0  0  0  0  0  0  0  0
    5.8370   46.8180   52.2350 C   0  0  0  0  0  0  0  0  0  0  0  0
    7.1980   46.6590   51.9730 C   0  0  0  0  0  0  0  0  0  0  0  0
    8.1390   46.8370   52.9990 C   0  0  0  0  0  0  0  0  0  0  0  0
    9.6200   46.7110   52.7430 C   0  0  0  0  0  0  0  0  0  0  0  0
   10.3280   47.3950   53.7160 F   0  0  0  0  0  0  0  0  0  0  0  0
    9.9150   47.2550   51.5050 F   0  0  0  0  0  0  0  0  0  0  0  0
   10.0230   45.3870   52.7590 F   0  0  0  0  0  0  0  0  0  0  0  0
    7.6760   47.2150   54.2700 C   0  0  0  0  0  0  0  0  0  0  0  0
    6.3460   47.3700   54.4980 N   0  0  0  0  0  0  0  0  0  0  0  0
    2.9950   45.3150   54.6520 C   0  0  0  0  0  0  0  0  0  0  0  0
    2.0050   44.3340   54.5460 C   0  0  0  0  0  0  0  0  0  0  0  0
   -2.0500   43.8130   50.7760 N   0  0  0  0  0  0  0  0  0  0  0  0
   -3.3176   45.7683   49.4387 H   0  0  0  0  0  0  0  0  0  0  0  0
   -2.4495   46.0079   47.8845 H   0  0  0  0  0  0  0  0  0  0  0  0
   -4.1417   45.4051   47.8845 H   0  0  0  0  0  0  0  0  0  0  0  0
   -3.7446   41.6210   48.8345 H   0  0  0  0  0  0  0  0  0  0  0  0
   -3.6353   40.3295   50.9787 H   0  0  0  0  0  0  0  0  0  0  0  0
   -1.8276   44.1922   55.0710 H   0  0  0  0  0  0  0  0  0  0  0  0
   -1.8497   45.5410   53.8849 H   0  0  0  0  0  0  0  0  0  0  0  0
   -3.1702   44.3233   53.8849 H   0  0  0  0  0  0  0  0  0  0  0  0
    0.4811   45.4077   51.6774 H   0  0  0  0  0  0  0  0  0  0  0  0
    2.2427   47.1564   51.8723 H   0  0  0  0  0  0  0  0  0  0  0  0
    5.0981   46.6680   51.4340 H   0  0  0  0  0  0  0  0  0  0  0  0
    7.5344   46.3935   50.9599 H   0  0  0  0  0  0  0  0  0  0  0  0
    8.3944   47.3864   55.0852 H   0  0  0  0  0  0  0  0  0  0  0  0
    3.7175   45.2762   55.4806 H   0  0  0  0  0  0  0  0  0  0  0  0
    1.9493   43.5308   55.2955 H   0  0  0  0  0  0  0  0  0  0  0  0
  1  2  1  0
  2  3  1  0
  3  4  2  0
  4  5  1  0
  5  6  2  0
  6  7  1  0
  7  8  1  0
  8  9  1  0
  8 10  1  0
 10 11  2  0
 10 12  1  0
 12 13  2  0
 13 14  1  0
 14 15  2  0
 15 16  1  0
 16 17  1  0
 17 18  2  0
 18 19  1  0
 19 20  2  0
 20 21  1  0
 21 22  1  0
 21 23  1  0
 21 24  1  0
 20 25  1  0
 25 26  2  0
 15 27  1  0
 27 28  2  0
  7 29  2  0
 29  3  1  0
 28 12  1  0
 26 17  1  0
  1 30  1  0
  1 31  1  0
  1 32  1  0
  4 33  1  0
  5 34  1  0
  9 35  1  0
  9 36  1  0
  9 37  1  0
 13 38  1  0
 14 39  1  0
 18 40  1  0
 19 41  1  0
 25 42  1  0
 27 43  1  0
 28 44  1  0
M  END
>  <meeko>  (5) 
{"is_sidechain": [false], "free_energy": -8.191, "intermolecular_energy": -11.26, "internal_energy": -0.898}

$$$$
