ligand_84_conformer_2_docked
     RDKit          3D

 51 53  0  0  0  0  0  0  0  0999 V2000
    6.2800   47.1630   54.9520 C   0  0  0  0  0  0  0  0  0  0  0  0
    6.4980   46.7680   53.5590 N   0  0  0  0  0  0  0  0  0  0  0  0
    7.4030   47.5510   52.7110 C   0  0  0  0  0  0  0  0  0  0  0  0
    5.9350   45.5200   53.1040 C   0  0  0  0  0  0  0  0  0  0  0  0
    5.9120   44.5390   53.8970 O   0  0  0  0  0  0  0  0  0  0  0  0
    5.2500   45.3600   51.7620 C   0  0  2  0  0  0  0  0  0  0  0  0
    3.9230   44.7530   51.8800 N   0  0  0  0  0  0  0  0  0  0  0  0
    2.7840   45.2560   51.1680 C   0  0  0  0  0  0  0  0  0  0  0  0
    2.7940   46.4210   50.6870 O   0  0  0  0  0  0  0  0  0  0  0  0
    1.5980   44.3680   50.9420 C   0  0  0  0  0  0  0  0  0  0  0  0
    0.8180   44.2520   52.2170 C   0  0  0  0  0  0  0  0  0  0  0  0
   -0.1380   43.2660   52.4440 C   0  0  0  0  0  0  0  0  0  0  0  0
   -0.6500   43.4060   54.0410 S   0  0  0  0  0  0  0  0  0  0  0  0
    0.3560   44.7190   54.3690 C   0  0  0  0  0  0  0  0  0  0  0  0
    0.5430   45.3350   55.6600 N   0  0  0  0  0  0  0  0  0  0  0  0
   -0.6240   45.5260   56.5330 C   0  0  0  0  0  0  0  0  0  0  0  0
   -0.4450   46.7490   57.4350 C   0  0  0  0  0  0  0  0  0  0  0  0
    0.8330   46.6180   58.2640 C   0  0  0  0  0  0  0  0  0  0  0  0
    1.9860   46.3710   57.4030 N   0  0  0  0  0  0  0  0  0  0  0  0
    1.8550   45.6490   56.1730 C   0  0  0  0  0  0  0  0  0  0  0  0
    2.8950   45.2940   55.5550 O   0  0  0  0  0  0  0  0  0  0  0  0
    1.0940   45.0450   53.2870 N   0  0  0  0  0  0  0  0  0  0  0  0
    6.1100   44.5710   50.7940 C   0  0  0  0  0  0  0  0  0  0  0  0
    7.3170   45.0980   50.2960 C   0  0  0  0  0  0  0  0  0  0  0  0
    8.1210   44.3410   49.4380 C   0  0  0  0  0  0  0  0  0  0  0  0
    7.7330   43.0500   49.0720 C   0  0  0  0  0  0  0  0  0  0  0  0
    6.5440   42.5120   49.5660 C   0  0  0  0  0  0  0  0  0  0  0  0
    5.7360   43.2650   50.4240 C   0  0  0  0  0  0  0  0  0  0  0  0
    6.7021   46.3981   55.6204 H   0  0  0  0  0  0  0  0  0  0  0  0
    6.7734   48.1278   55.1411 H   0  0  0  0  0  0  0  0  0  0  0  0
    5.2007   47.2598   55.1411 H   0  0  0  0  0  0  0  0  0  0  0  0
    8.0827   48.1391   53.3452 H   0  0  0  0  0  0  0  0  0  0  0  0
    7.9902   46.8714   52.0759 H   0  0  0  0  0  0  0  0  0  0  0  0
    6.8149   48.2298   52.0759 H   0  0  0  0  0  0  0  0  0  0  0  0
    5.1119   46.3749   51.3608 H   0  0  0  0  0  0  0  0  0  0  0  0
    3.8180   43.8480   52.3940 H   0  0  0  0  0  0  0  0  0  0  0  0
    0.9590   44.8003   50.1580 H   0  0  0  0  0  0  0  0  0  0  0  0
    1.9382   43.3710   50.6253 H   0  0  0  0  0  0  0  0  0  0  0  0
   -0.4949   42.5276   51.7109 H   0  0  0  0  0  0  0  0  0  0  0  0
   -1.5192   45.6676   55.9097 H   0  0  0  0  0  0  0  0  0  0  0  0
   -0.7323   44.6358   57.1700 H   0  0  0  0  0  0  0  0  0  0  0  0
   -0.3814   47.6529   56.8114 H   0  0  0  0  0  0  0  0  0  0  0  0
   -1.3061   46.8190   58.1159 H   0  0  0  0  0  0  0  0  0  0  0  0
    0.9955   47.5495   58.8260 H   0  0  0  0  0  0  0  0  0  0  0  0
    0.7201   45.7692   58.9545 H   0  0  0  0  0  0  0  0  0  0  0  0
    2.9410   46.5850   57.7680 H   0  0  0  0  0  0  0  0  0  0  0  0
    7.6298   46.1125   50.5839 H   0  0  0  0  0  0  0  0  0  0  0  0
    9.0602   44.7628   49.0508 H   0  0  0  0  0  0  0  0  0  0  0  0
    8.3649   42.4573   48.3942 H   0  0  0  0  0  0  0  0  0  0  0  0
    6.2417   41.4938   49.2801 H   0  0  0  0  0  0  0  0  0  0  0  0
    4.8016   42.8338   50.8125 H   0  0  0  0  0  0  0  0  0  0  0  0
  1  2  1  0
  2  3  1  0
  2  4  1  0
  4  5  2  0
  4  6  1  0
  6  7  1  0
  7  8  1  0
  8  9  2  0
  8 10  1  0
 10 11  1  0
 11 12  2  0
 12 13  1  0
 13 14  1  0
 14 15  1  0
 15 16  1  0
 16 17  1  0
 17 18  1  0
 18 19  1  0
 19 20  1  0
 20 21  2  0
 14 22  2  0
  6 23  1  0
 23 24  2  0
 24 25  1  0
 25 26  2  0
 26 27  1  0
 27 28  2  0
 22 11  1  0
 28 23  1  0
 20 15  1  0
  1 29  1  0
  1 30  1  0
  1 31  1  0
  3 32  1  0
  3 33  1  0
  3 34  1  0
  6 35  1  6
  7 36  1  0
 10 37  1  0
 10 38  1  0
 12 39  1  0
 16 40  1  0
 16 41  1  0
 17 42  1  0
 17 43  1  0
 18 44  1  0
 18 45  1  0
 19 46  1  0
 24 47  1  0
 25 48  1  0
 26 49  1  0
 27 50  1  0
 28 51  1  0
M  END
>  <meeko>  (1) 
{"is_sidechain": [false], "free_energy": -8.361, "intermolecular_energy": -11.293, "internal_energy": -1.113}

$$$$
ligand_84_conformer_2_docked
     RDKit          3D

 51 53  0  0  0  0  0  0  0  0999 V2000
   -0.6970   43.1630   54.1630 C   0  0  0  0  0  0  0  0  0  0  0  0
    0.1780   44.1400   53.5120 N   0  0  0  0  0  0  0  0  0  0  0  0
   -0.3630   45.0330   52.4830 C   0  0  0  0  0  0  0  0  0  0  0  0
    1.5190   44.3030   54.0190 C   0  0  0  0  0  0  0  0  0  0  0  0
    1.7130   44.2180   55.2620 O   0  0  0  0  0  0  0  0  0  0  0  0
    2.7320   44.4440   53.1210 C   0  0  2  0  0  0  0  0  0  0  0  0
    3.2650   43.1490   52.6930 N   0  0  0  0  0  0  0  0  0  0  0  0
    2.9780   42.5920   51.4030 C   0  0  0  0  0  0  0  0  0  0  0  0
    2.0040   43.0170   50.7250 O   0  0  0  0  0  0  0  0  0  0  0  0
    3.8810   41.5410   50.8310 C   0  0  0  0  0  0  0  0  0  0  0  0
    5.1470   42.1850   50.3550 C   0  0  0  0  0  0  0  0  0  0  0  0
    5.8080   41.8070   49.1880 C   0  0  0  0  0  0  0  0  0  0  0  0
    7.0820   42.8800   48.9510 S   0  0  0  0  0  0  0  0  0  0  0  0
    6.7460   43.7690   50.3440 C   0  0  0  0  0  0  0  0  0  0  0  0
    7.4060   44.9860   50.7470 N   0  0  0  0  0  0  0  0  0  0  0  0
    8.8640   45.0900   50.5930 C   0  0  0  0  0  0  0  0  0  0  0  0
    9.4670   46.0150   51.6510 C   0  0  0  0  0  0  0  0  0  0  0  0
    8.8180   47.3980   51.5830 C   0  0  0  0  0  0  0  0  0  0  0  0
    7.3650   47.2930   51.6780 N   0  0  0  0  0  0  0  0  0  0  0  0
    6.6660   46.1500   51.1720 C   0  0  0  0  0  0  0  0  0  0  0  0
    5.4080   46.1810   51.1010 O   0  0  0  0  0  0  0  0  0  0  0  0
    5.6640   43.2750   50.9830 N   0  0  0  0  0  0  0  0  0  0  0  0
    3.8170   45.2700   53.7860 C   0  0  0  0  0  0  0  0  0  0  0  0
    5.0160   44.6780   54.2250 C   0  0  0  0  0  0  0  0  0  0  0  0
    6.0250   45.4600   54.7960 C   0  0  0  0  0  0  0  0  0  0  0  0
    5.8520   46.8390   54.9300 C   0  0  0  0  0  0  0  0  0  0  0  0
    4.6710   47.4400   54.4900 C   0  0  0  0  0  0  0  0  0  0  0  0
    3.6590   46.6630   53.9190 C   0  0  0  0  0  0  0  0  0  0  0  0
   -0.6085   43.2618   55.2550 H   0  0  0  0  0  0  0  0  0  0  0  0
   -1.7390   43.3458   53.8615 H   0  0  0  0  0  0  0  0  0  0  0  0
   -0.4009   42.1474   53.8615 H   0  0  0  0  0  0  0  0  0  0  0  0
   -0.8755   45.8790   52.9643 H   0  0  0  0  0  0  0  0  0  0  0  0
    0.4585   45.4104   51.8563 H   0  0  0  0  0  0  0  0  0  0  0  0
   -1.0779   44.4797   51.8563 H   0  0  0  0  0  0  0  0  0  0  0  0
    2.3912   44.9730   52.2187 H   0  0  0  0  0  0  0  0  0  0  0  0
    3.9790   42.6680   53.2850 H   0  0  0  0  0  0  0  0  0  0  0  0
    4.1158   40.7963   51.6058 H   0  0  0  0  0  0  0  0  0  0  0  0
    3.3803   41.0426   49.9878 H   0  0  0  0  0  0  0  0  0  0  0  0
    5.5442   40.9594   48.5384 H   0  0  0  0  0  0  0  0  0  0  0  0
    9.3081   44.0890   50.6964 H   0  0  0  0  0  0  0  0  0  0  0  0
    9.0804   45.5094   49.5994 H   0  0  0  0  0  0  0  0  0  0  0  0
    9.2972   45.5837   52.6486 H   0  0  0  0  0  0  0  0  0  0  0  0
   10.5458   46.1176   51.4619 H   0  0  0  0  0  0  0  0  0  0  0  0
    9.1905   48.0127   52.4157 H   0  0  0  0  0  0  0  0  0  0  0  0
    9.0762   47.8621   50.6197 H   0  0  0  0  0  0  0  0  0  0  0  0
    6.8190   48.1330   51.9750 H   0  0  0  0  0  0  0  0  0  0  0  0
    5.1604   43.5928   54.1182 H   0  0  0  0  0  0  0  0  0  0  0  0
    6.9569   44.9877   55.1403 H   0  0  0  0  0  0  0  0  0  0  0  0
    6.6459   47.4517   55.3821 H   0  0  0  0  0  0  0  0  0  0  0  0
    4.5367   48.5269   54.5929 H   0  0  0  0  0  0  0  0  0  0  0  0
    2.7325   47.1431   53.5710 H   0  0  0  0  0  0  0  0  0  0  0  0
  1  2  1  0
  2  3  1  0
  2  4  1  0
  4  5  2  0
  4  6  1  0
  6  7  1  0
  7  8  1  0
  8  9  2  0
  8 10  1  0
 10 11  1  0
 11 12  2  0
 12 13  1  0
 13 14  1  0
 14 15  1  0
 15 16  1  0
 16 17  1  0
 17 18  1  0
 18 19  1  0
 19 20  1  0
 20 21  2  0
 14 22  2  0
  6 23  1  0
 23 24  2  0
 24 25  1  0
 25 26  2  0
 26 27  1  0
 27 28  2  0
 22 11  1  0
 28 23  1  0
 20 15  1  0
  1 29  1  0
  1 30  1  0
  1 31  1  0
  3 32  1  0
  3 33  1  0
  3 34  1  0
  6 35  1  6
  7 36  1  0
 10 37  1  0
 10 38  1  0
 12 39  1  0
 16 40  1  0
 16 41  1  0
 17 42  1  0
 17 43  1  0
 18 44  1  0
 18 45  1  0
 19 46  1  0
 24 47  1  0
 25 48  1  0
 26 49  1  0
 27 50  1  0
 28 51  1  0
M  END
>  <meeko>  (2) 
{"is_sidechain": [false], "free_energy": -8.217, "intermolecular_energy": -10.587, "internal_energy": -1.625}

$$$$
ligand_84_conformer_2_docked
     RDKit          3D

 51 53  0  0  0  0  0  0  0  0999 V2000
    8.8170   47.4580   54.3610 C   0  0  0  0  0  0  0  0  0  0  0  0
    8.5610   46.8830   53.0390 N   0  0  0  0  0  0  0  0  0  0  0  0
    9.5590   47.0280   51.9740 C   0  0  0  0  0  0  0  0  0  0  0  0
    7.3950   46.0510   52.8670 C   0  0  0  0  0  0  0  0  0  0  0  0
    7.0480   45.2890   53.8110 O   0  0  0  0  0  0  0  0  0  0  0  0
    6.4860   46.1370   51.6580 C   0  0  2  0  0  0  0  0  0  0  0  0
    5.0720   46.2350   52.0260 N   0  0  0  0  0  0  0  0  0  0  0  0
    4.5530   47.3340   52.7890 C   0  0  0  0  0  0  0  0  0  0  0  0
    5.3290   48.0730   53.4530 O   0  0  0  0  0  0  0  0  0  0  0  0
    3.0880   47.6410   52.7440 C   0  0  0  0  0  0  0  0  0  0  0  0
    2.3140   46.4070   53.0940 C   0  0  0  0  0  0  0  0  0  0  0  0
    2.5130   45.6820   54.2660 C   0  0  0  0  0  0  0  0  0  0  0  0
    1.3400   44.4780   54.3300 S   0  0  0  0  0  0  0  0  0  0  0  0
    0.6380   44.9210   52.8630 C   0  0  0  0  0  0  0  0  0  0  0  0
   -0.5660   44.3620   52.3010 N   0  0  0  0  0  0  0  0  0  0  0  0
   -1.8670   44.8850   52.7420 C   0  0  0  0  0  0  0  0  0  0  0  0
   -2.9500   43.8070   52.6660 C   0  0  0  0  0  0  0  0  0  0  0  0
   -3.0470   43.2490   51.2460 C   0  0  0  0  0  0  0  0  0  0  0  0
   -1.7450   42.7810   50.7830 N   0  0  0  0  0  0  0  0  0  0  0  0
   -0.5310   43.3990   51.2260 C   0  0  0  0  0  0  0  0  0  0  0  0
    0.5550   43.0950   50.6630 O   0  0  0  0  0  0  0  0  0  0  0  0
    1.2700   45.9880   52.3280 N   0  0  0  0  0  0  0  0  0  0  0  0
    6.7090   44.9690   50.7160 C   0  0  0  0  0  0  0  0  0  0  0  0
    7.8490   44.9050   49.8920 C   0  0  0  0  0  0  0  0  0  0  0  0
    8.0620   43.8010   49.0610 C   0  0  0  0  0  0  0  0  0  0  0  0
    7.1450   42.7470   49.0470 C   0  0  0  0  0  0  0  0  0  0  0  0
    6.0160   42.7940   49.8660 C   0  0  0  0  0  0  0  0  0  0  0  0
    5.7980   43.8960   50.6980 C   0  0  0  0  0  0  0  0  0  0  0  0
    8.5003   46.7466   55.1379 H   0  0  0  0  0  0  0  0  0  0  0  0
    9.8920   47.6644   54.4692 H   0  0  0  0  0  0  0  0  0  0  0  0
    8.2510   48.3950   54.4692 H   0  0  0  0  0  0  0  0  0  0  0  0
   10.5537   47.1725   52.4208 H   0  0  0  0  0  0  0  0  0  0  0  0
    9.5650   46.1213   51.3512 H   0  0  0  0  0  0  0  0  0  0  0  0
    9.3067   47.8989   51.3512 H   0  0  0  0  0  0  0  0  0  0  0  0
    6.7534   47.0665   51.1340 H   0  0  0  0  0  0  0  0  0  0  0  0
    4.3890   45.5580   51.6170 H   0  0  0  0  0  0  0  0  0  0  0  0
    2.8568   48.4374   53.4667 H   0  0  0  0  0  0  0  0  0  0  0  0
    2.8119   47.9756   51.7331 H   0  0  0  0  0  0  0  0  0  0  0  0
    3.2970   45.8640   55.0158 H   0  0  0  0  0  0  0  0  0  0  0  0
   -1.7800   45.2338   53.7816 H   0  0  0  0  0  0  0  0  0  0  0  0
   -2.1529   45.7140   52.0779 H   0  0  0  0  0  0  0  0  0  0  0  0
   -2.6988   42.9912   53.3598 H   0  0  0  0  0  0  0  0  0  0  0  0
   -3.9173   44.2526   52.9414 H   0  0  0  0  0  0  0  0  0  0  0  0
   -3.7566   42.4085   51.2365 H   0  0  0  0  0  0  0  0  0  0  0  0
   -3.3927   44.0496   50.5755 H   0  0  0  0  0  0  0  0  0  0  0  0
   -1.7080   42.0920   49.9990 H   0  0  0  0  0  0  0  0  0  0  0  0
    8.5772   45.7294   49.9022 H   0  0  0  0  0  0  0  0  0  0  0  0
    8.9530   43.7622   48.4171 H   0  0  0  0  0  0  0  0  0  0  0  0
    7.3129   41.8804   48.3906 H   0  0  0  0  0  0  0  0  0  0  0  0
    5.2962   41.9622   49.8568 H   0  0  0  0  0  0  0  0  0  0  0  0
    4.9078   43.9249   51.3435 H   0  0  0  0  0  0  0  0  0  0  0  0
  1  2  1  0
  2  3  1  0
  2  4  1  0
  4  5  2  0
  4  6  1  0
  6  7  1  0
  7  8  1  0
  8  9  2  0
  8 10  1  0
 10 11  1  0
 11 12  2  0
 12 13  1  0
 13 14  1  0
 14 15  1  0
 15 16  1  0
 16 17  1  0
 17 18  1  0
 18 19  1  0
 19 20  1  0
 20 21  2  0
 14 22  2  0
  6 23  1  0
 23 24  2  0
 24 25  1  0
 25 26  2  0
 26 27  1  0
 27 28  2  0
 22 11  1  0
 28 23  1  0
 20 15  1  0
  1 29  1  0
  1 30  1  0
  1 31  1  0
  3 32  1  0
  3 33  1  0
  3 34  1  0
  6 35  1  6
  7 36  1  0
 10 37  1  0
 10 38  1  0
 12 39  1  0
 16 40  1  0
 16 41  1  0
 17 42  1  0
 17 43  1  0
 18 44  1  0
 18 45  1  0
 19 46  1  0
 24 47  1  0
 25 48  1  0
 26 49  1  0
 27 50  1  0
 28 51  1  0
M  END
>  <meeko>  (3) 
{"is_sidechain": [false], "free_energy": -8.098, "intermolecular_energy": -11.443, "internal_energy": -0.608}

$$$$
ligand_84_conformer_2_docked
     RDKit          3D

 51 53  0  0  0  0  0  0  0  0999 V2000
   -1.0780   44.0750   52.0380 C   0  0  0  0  0  0  0  0  0  0  0  0
    0.0290   43.1640   52.3370 N   0  0  0  0  0  0  0  0  0  0  0  0
   -0.2230   41.9330   53.0920 C   0  0  0  0  0  0  0  0  0  0  0  0
    1.3140   43.4290   51.7390 C   0  0  0  0  0  0  0  0  0  0  0  0
    1.3560   43.8870   50.5650 O   0  0  0  0  0  0  0  0  0  0  0  0
    2.6210   43.3080   52.4970 C   0  0  2  0  0  0  0  0  0  0  0  0
    2.9880   44.5480   53.1830 N   0  0  0  0  0  0  0  0  0  0  0  0
    2.6140   44.8120   54.5420 C   0  0  0  0  0  0  0  0  0  0  0  0
    1.6860   44.1570   55.0880 O   0  0  0  0  0  0  0  0  0  0  0  0
    3.3750   45.8290   55.3370 C   0  0  0  0  0  0  0  0  0  0  0  0
    4.2570   46.6160   54.4160 C   0  0  0  0  0  0  0  0  0  0  0  0
    3.9500   47.8990   53.9700 C   0  0  0  0  0  0  0  0  0  0  0  0
    5.2690   48.4670   53.0930 S   0  0  0  0  0  0  0  0  0  0  0  0
    6.1670   47.0560   53.3090 C   0  0  0  0  0  0  0  0  0  0  0  0
    7.5350   46.8560   52.8990 N   0  0  0  0  0  0  0  0  0  0  0  0
    7.8140   46.5070   51.4980 C   0  0  0  0  0  0  0  0  0  0  0  0
    9.0810   45.6580   51.3820 C   0  0  0  0  0  0  0  0  0  0  0  0
   10.2710   46.3880   52.0030 C   0  0  0  0  0  0  0  0  0  0  0  0
    9.9760   46.7870   53.3760 N   0  0  0  0  0  0  0  0  0  0  0  0
    8.6430   47.1160   53.7850 C   0  0  0  0  0  0  0  0  0  0  0  0
    8.4590   47.6340   54.9190 O   0  0  0  0  0  0  0  0  0  0  0  0
    5.4870   46.1600   54.0560 N   0  0  0  0  0  0  0  0  0  0  0  0
    3.7460   42.8520   51.5880 C   0  0  0  0  0  0  0  0  0  0  0  0
    3.7180   41.5850   50.9730 C   0  0  0  0  0  0  0  0  0  0  0  0
    4.7410   41.1970   50.1020 C   0  0  0  0  0  0  0  0  0  0  0  0
    5.7990   42.0670   49.8320 C   0  0  0  0  0  0  0  0  0  0  0  0
    5.8350   43.3290   50.4280 C   0  0  0  0  0  0  0  0  0  0  0  0
    4.8140   43.7230   51.2990 C   0  0  0  0  0  0  0  0  0  0  0  0
   -1.5187   44.4376   52.9784 H   0  0  0  0  0  0  0  0  0  0  0  0
   -0.7027   44.9293   51.4555 H   0  0  0  0  0  0  0  0  0  0  0  0
   -1.8441   43.5423   51.4555 H   0  0  0  0  0  0  0  0  0  0  0  0
   -0.1789   42.1484   54.1698 H   0  0  0  0  0  0  0  0  0  0  0  0
   -1.2195   41.5436   52.8364 H   0  0  0  0  0  0  0  0  0  0  0  0
    0.5403   41.1833   52.8364 H   0  0  0  0  0  0  0  0  0  0  0  0
    2.4615   42.5412   53.2694 H   0  0  0  0  0  0  0  0  0  0  0  0
    3.6510   45.2120   52.7200 H   0  0  0  0  0  0  0  0  0  0  0  0
    2.6689   46.5071   55.8387 H   0  0  0  0  0  0  0  0  0  0  0  0
    3.9910   45.3208   56.0935 H   0  0  0  0  0  0  0  0  0  0  0  0
    3.0129   48.4437   54.1575 H   0  0  0  0  0  0  0  0  0  0  0  0
    6.9632   45.9393   51.0932 H   0  0  0  0  0  0  0  0  0  0  0  0
    7.9644   47.4371   50.9303 H   0  0  0  0  0  0  0  0  0  0  0  0
    8.9271   44.7038   51.9072 H   0  0  0  0  0  0  0  0  0  0  0  0
    9.2911   45.4746   50.3179 H   0  0  0  0  0  0  0  0  0  0  0  0
   11.1447   45.7196   52.0016 H   0  0  0  0  0  0  0  0  0  0  0  0
   10.4786   47.2912   51.4104 H   0  0  0  0  0  0  0  0  0  0  0  0
   10.7710   46.9870   54.0230 H   0  0  0  0  0  0  0  0  0  0  0  0
    2.8857   40.8960   51.1793 H   0  0  0  0  0  0  0  0  0  0  0  0
    4.7120   40.2044   49.6287 H   0  0  0  0  0  0  0  0  0  0  0  0
    6.6044   41.7581   49.1495 H   0  0  0  0  0  0  0  0  0  0  0  0
    6.6677   44.0146   50.2122 H   0  0  0  0  0  0  0  0  0  0  0  0
    4.8456   44.7205   51.7616 H   0  0  0  0  0  0  0  0  0  0  0  0
  1  2  1  0
  2  3  1  0
  2  4  1  0
  4  5  2  0
  4  6  1  0
  6  7  1  0
  7  8  1  0
  8  9  2  0
  8 10  1  0
 10 11  1  0
 11 12  2  0
 12 13  1  0
 13 14  1  0
 14 15  1  0
 15 16  1  0
 16 17  1  0
 17 18  1  0
 18 19  1  0
 19 20  1  0
 20 21  2  0
 14 22  2  0
  6 23  1  0
 23 24  2  0
 24 25  1  0
 25 26  2  0
 26 27  1  0
 27 28  2  0
 22 11  1  0
 28 23  1  0
 20 15  1  0
  1 29  1  0
  1 30  1  0
  1 31  1  0
  3 32  1  0
  3 33  1  0
  3 34  1  0
  6 35  1  1
  7 36  1  0
 10 37  1  0
 10 38  1  0
 12 39  1  0
 16 40  1  0
 16 41  1  0
 17 42  1  0
 17 43  1  0
 18 44  1  0
 18 45  1  0
 19 46  1  0
 24 47  1  0
 25 48  1  0
 26 49  1  0
 27 50  1  0
 28 51  1  0
M  END
>  <meeko>  (4) 
{"is_sidechain": [false], "free_energy": -7.792, "intermolecular_energy": -9.978, "internal_energy": -1.661}

$$$$
ligand_84_conformer_2_docked
     RDKit          3D

 51 53  0  0  0  0  0  0  0  0999 V2000
   10.0270   46.3380   51.8280 C   0  0  0  0  0  0  0  0  0  0  0  0
    8.6110   46.6550   51.6280 N   0  0  0  0  0  0  0  0  0  0  0  0
    8.1100   47.9950   51.9490 C   0  0  0  0  0  0  0  0  0  0  0  0
    7.7770   45.6790   50.9700 C   0  0  0  0  0  0  0  0  0  0  0  0
    8.2670   44.9970   50.0290 O   0  0  0  0  0  0  0  0  0  0  0  0
    6.3750   45.3380   51.4350 C   0  0  2  0  0  0  0  0  0  0  0  0
    6.2630   45.3050   52.8950 N   0  0  0  0  0  0  0  0  0  0  0  0
    5.3750   46.1710   53.6150 C   0  0  0  0  0  0  0  0  0  0  0  0
    4.9130   47.2100   53.0690 O   0  0  0  0  0  0  0  0  0  0  0  0
    4.9440   45.8050   55.0030 C   0  0  0  0  0  0  0  0  0  0  0  0
    3.4950   45.4260   54.9860 C   0  0  0  0  0  0  0  0  0  0  0  0
    2.6010   45.7650   55.9990 C   0  0  0  0  0  0  0  0  0  0  0  0
    1.0650   45.2860   55.5090 S   0  0  0  0  0  0  0  0  0  0  0  0
    1.6020   44.6600   54.0390 C   0  0  0  0  0  0  0  0  0  0  0  0
    0.7630   44.1510   52.9820 N   0  0  0  0  0  0  0  0  0  0  0  0
   -0.4510   43.4020   53.3360 C   0  0  0  0  0  0  0  0  0  0  0  0
   -0.7960   42.3690   52.2620 C   0  0  0  0  0  0  0  0  0  0  0  0
   -0.9590   43.0480   50.9010 C   0  0  0  0  0  0  0  0  0  0  0  0
    0.2230   43.8400   50.5730 N   0  0  0  0  0  0  0  0  0  0  0  0
    1.0070   44.4660   51.5950 C   0  0  0  0  0  0  0  0  0  0  0  0
    1.9010   45.2900   51.2650 O   0  0  0  0  0  0  0  0  0  0  0  0
    2.9350   44.8260   53.9010 N   0  0  0  0  0  0  0  0  0  0  0  0
    5.8990   44.0290   50.8370 C   0  0  0  0  0  0  0  0  0  0  0  0
    6.5640   43.4430   49.7420 C   0  0  0  0  0  0  0  0  0  0  0  0
    6.1380   42.2140   49.2290 C   0  0  0  0  0  0  0  0  0  0  0  0
    5.0510   41.5530   49.8050 C   0  0  0  0  0  0  0  0  0  0  0  0
    4.3890   42.1180   50.8960 C   0  0  0  0  0  0  0  0  0  0  0  0
    4.8090   43.3470   51.4130 C   0  0  0  0  0  0  0  0  0  0  0  0
   10.2433   46.2896   52.9054 H   0  0  0  0  0  0  0  0  0  0  0  0
   10.2543   45.3667   51.3644 H   0  0  0  0  0  0  0  0  0  0  0  0
   10.6468   47.1196   51.3644 H   0  0  0  0  0  0  0  0  0  0  0  0
    8.0642   48.1174   53.0412 H   0  0  0  0  0  0  0  0  0  0  0  0
    8.7862   48.7510   51.5233 H   0  0  0  0  0  0  0  0  0  0  0  0
    7.1037   48.1219   51.5233 H   0  0  0  0  0  0  0  0  0  0  0  0
    5.7219   46.1461   51.0738 H   0  0  0  0  0  0  0  0  0  0  0  0
    6.7430   44.5440   53.4280 H   0  0  0  0  0  0  0  0  0  0  0  0
    5.5424   44.9545   55.3616 H   0  0  0  0  0  0  0  0  0  0  0  0
    5.0931   46.6636   55.6743 H   0  0  0  0  0  0  0  0  0  0  0  0
    2.8542   46.2578   56.9493 H   0  0  0  0  0  0  0  0  0  0  0  0
   -0.2871   42.8841   54.2925 H   0  0  0  0  0  0  0  0  0  0  0  0
   -1.2871   44.1121   53.4179 H   0  0  0  0  0  0  0  0  0  0  0  0
    0.0124   41.6254   52.2015 H   0  0  0  0  0  0  0  0  0  0  0  0
   -1.7427   41.8776   52.5310 H   0  0  0  0  0  0  0  0  0  0  0  0
   -1.1032   42.2782   50.1286 H   0  0  0  0  0  0  0  0  0  0  0  0
   -1.8316   43.7165   50.9422 H   0  0  0  0  0  0  0  0  0  0  0  0
    0.4030   44.0820   49.5730 H   0  0  0  0  0  0  0  0  0  0  0  0
    7.4244   43.9559   49.2874 H   0  0  0  0  0  0  0  0  0  0  0  0
    6.6600   41.7670   48.3701 H   0  0  0  0  0  0  0  0  0  0  0  0
    4.7166   40.5870   49.3988 H   0  0  0  0  0  0  0  0  0  0  0  0
    3.5346   41.5949   51.3502 H   0  0  0  0  0  0  0  0  0  0  0  0
    4.2849   43.7846   52.2754 H   0  0  0  0  0  0  0  0  0  0  0  0
  1  2  1  0
  2  3  1  0
  2  4  1  0
  4  5  2  0
  4  6  1  0
  6  7  1  0
  7  8  1  0
  8  9  2  0
  8 10  1  0
 10 11  1  0
 11 12  2  0
 12 13  1  0
 13 14  1  0
 14 15  1  0
 15 16  1  0
 16 17  1  0
 17 18  1  0
 18 19  1  0
 19 20  1  0
 20 21  2  0
 14 22  2  0
  6 23  1  0
 23 24  2  0
 24 25  1  0
 25 26  2  0
 26 27  1  0
 27 28  2  0
 22 11  1  0
 28 23  1  0
 20 15  1  0
  1 29  1  0
  1 30  1  0
  1 31  1  0
  3 32  1  0
  3 33  1  0
  3 34  1  0
  6 35  1  6
  7 36  1  0
 10 37  1  0
 10 38  1  0
 12 39  1  0
 16 40  1  0
 16 41  1  0
 17 42  1  0
 17 43  1  0
 18 44  1  0
 18 45  1  0
 19 46  1  0
 24 47  1  0
 25 48  1  0
 26 49  1  0
 27 50  1  0
 28 51  1  0
M  END
>  <meeko>  (5) 
{"is_sidechain": [false], "free_energy": -7.7, "intermolecular_energy": -11.868, "internal_energy": 0.354}

$$$$
