ligand_63_conformer_4_docked
     RDKit          3D

 56 57  0  0  0  0  0  0  0  0999 V2000
   -3.1520   43.1980   57.7730 C   0  0  0  0  0  0  0  0  0  0  0  0
   -2.8450   43.9250   56.5870 O   0  0  0  0  0  0  0  0  0  0  0  0
   -1.5470   44.2700   56.1790 C   0  0  0  0  0  0  0  0  0  0  0  0
   -0.7230   45.1360   56.9300 C   0  0  0  0  0  0  0  0  0  0  0  0
    0.5630   45.4640   56.4860 C   0  0  0  0  0  0  0  0  0  0  0  0
    1.3400   46.3270   57.2750 O   0  0  0  0  0  0  0  0  0  0  0  0
    0.9300   46.8620   58.5300 C   0  0  0  0  0  0  0  0  0  0  0  0
    1.0280   44.9280   55.2710 C   0  0  0  0  0  0  0  0  0  0  0  0
    0.2180   44.0690   54.5180 C   0  0  0  0  0  0  0  0  0  0  0  0
    0.8150   43.4310   52.9850 S   0  0  0  0  0  0  0  0  0  0  0  0
    0.8450   44.5460   51.9760 O   0  0  0  0  0  0  0  0  0  0  0  0
   -0.0790   42.3360   52.4730 O   0  0  0  0  0  0  0  0  0  0  0  0
    2.4210   42.8070   53.1970 N   0  0  0  0  0  0  0  0  0  0  0  0
    3.5920   43.3970   52.5960 C   0  0  0  0  0  0  0  0  0  0  0  0
    4.3690   44.3380   53.2990 C   0  0  0  0  0  0  0  0  0  0  0  0
    5.4990   44.9150   52.7120 C   0  0  0  0  0  0  0  0  0  0  0  0
    6.4000   46.1310   53.6090 S   0  0  0  0  0  0  0  0  0  0  0  0
    6.2580   45.8900   55.0880 O   0  0  0  0  0  0  0  0  0  0  0  0
    5.8350   47.4840   53.2750 O   0  0  0  0  0  0  0  0  0  0  0  0
    8.0770   45.9900   53.1400 N   0  0  0  0  0  0  0  0  0  0  0  0
    8.8540   47.2520   53.0700 C   0  0  0  0  0  0  0  0  0  0  0  0
   10.2470   46.9200   52.4930 C   0  0  0  0  0  0  0  0  0  0  0  0
    8.1650   48.2410   52.1020 C   0  0  0  0  0  0  0  0  0  0  0  0
    9.0550   47.9100   54.4540 C   0  0  0  0  0  0  0  0  0  0  0  0
    5.8710   44.5490   51.4140 C   0  0  0  0  0  0  0  0  0  0  0  0
    5.1170   43.6130   50.7050 C   0  0  0  0  0  0  0  0  0  0  0  0
    3.9700   43.0330   51.2840 C   0  0  0  0  0  0  0  0  0  0  0  0
    3.1810   42.1060   50.5820 O   0  0  0  0  0  0  0  0  0  0  0  0
    3.6930   40.9830   49.8680 C   0  0  0  0  0  0  0  0  0  0  0  0
   -1.0640   43.7390   54.9780 C   0  0  0  0  0  0  0  0  0  0  0  0
   -2.8951   43.8063   58.6528 H   0  0  0  0  0  0  0  0  0  0  0  0
   -4.2264   42.9626   57.7910 H   0  0  0  0  0  0  0  0  0  0  0  0
   -2.5716   42.2638   57.7910 H   0  0  0  0  0  0  0  0  0  0  0  0
   -1.0960   45.5578   57.8750 H   0  0  0  0  0  0  0  0  0  0  0  0
    1.3802   46.2745   59.3437 H   0  0  0  0  0  0  0  0  0  0  0  0
    1.2595   47.9086   58.6077 H   0  0  0  0  0  0  0  0  0  0  0  0
   -0.1663   46.8160   58.6077 H   0  0  0  0  0  0  0  0  0  0  0  0
    2.0347   45.1855   54.9101 H   0  0  0  0  0  0  0  0  0  0  0  0
    2.5050   41.9060   53.7170 H   0  0  0  0  0  0  0  0  0  0  0  0
    4.0833   44.6224   54.3224 H   0  0  0  0  0  0  0  0  0  0  0  0
    8.5200   45.3300   53.8240 H   0  0  0  0  0  0  0  0  0  0  0  0
   10.9549   46.7513   53.3179 H   0  0  0  0  0  0  0  0  0  0  0  0
   10.1811   46.0124   51.8750 H   0  0  0  0  0  0  0  0  0  0  0  0
   10.5975   47.7598   51.8750 H   0  0  0  0  0  0  0  0  0  0  0  0
    7.6304   49.0084   52.6810 H   0  0  0  0  0  0  0  0  0  0  0  0
    8.9241   48.7226   51.4681 H   0  0  0  0  0  0  0  0  0  0  0  0
    7.4502   47.6958   51.4681 H   0  0  0  0  0  0  0  0  0  0  0  0
    8.8314   47.1779   55.2440 H   0  0  0  0  0  0  0  0  0  0  0  0
   10.0973   48.2478   54.5515 H   0  0  0  0  0  0  0  0  0  0  0  0
    8.3794   48.7726   54.5515 H   0  0  0  0  0  0  0  0  0  0  0  0
    6.7607   45.0005   50.9508 H   0  0  0  0  0  0  0  0  0  0  0  0
    5.4198   43.3258   49.6872 H   0  0  0  0  0  0  0  0  0  0  0  0
    4.0401   40.2217   50.5821 H   0  0  0  0  0  0  0  0  0  0  0  0
    2.8997   40.5579   49.2355 H   0  0  0  0  0  0  0  0  0  0  0  0
    4.5342   41.3031   49.2355 H   0  0  0  0  0  0  0  0  0  0  0  0
   -1.6957   43.0569   54.3900 H   0  0  0  0  0  0  0  0  0  0  0  0
  1  2  1  0
  2  3  1  0
  3  4  2  0
  4  5  1  0
  5  6  1  0
  6  7  1  0
  5  8  2  0
  8  9  1  0
  9 10  1  0
 10 11  2  0
 10 12  2  0
 10 13  1  0
 13 14  1  0
 14 15  2  0
 15 16  1  0
 16 17  1  0
 17 18  2  0
 17 19  2  0
 17 20  1  0
 20 21  1  0
 21 22  1  0
 21 23  1  0
 21 24  1  0
 16 25  2  0
 25 26  1  0
 26 27  2  0
 27 28  1  0
 28 29  1  0
  9 30  2  0
 30  3  1  0
 27 14  1  0
  1 31  1  0
  1 32  1  0
  1 33  1  0
  4 34  1  0
  7 35  1  0
  7 36  1  0
  7 37  1  0
  8 38  1  0
 13 39  1  0
 15 40  1  0
 20 41  1  0
 22 42  1  0
 22 43  1  0
 22 44  1  0
 23 45  1  0
 23 46  1  0
 23 47  1  0
 24 48  1  0
 24 49  1  0
 24 50  1  0
 25 51  1  0
 26 52  1  0
 29 53  1  0
 29 54  1  0
 29 55  1  0
 30 56  1  0
M  END
>  <meeko>  (1) 
{"is_sidechain": [false], "free_energy": -8.406, "intermolecular_energy": -12.828, "internal_energy": -0.465}

$$$$
ligand_63_conformer_4_docked
     RDKit          3D

 56 57  0  0  0  0  0  0  0  0999 V2000
    0.9760   46.7490   58.3590 C   0  0  0  0  0  0  0  0  0  0  0  0
    1.3350   46.1340   57.1250 O   0  0  0  0  0  0  0  0  0  0  0  0
    0.4900   45.2980   56.3780 C   0  0  0  0  0  0  0  0  0  0  0  0
   -0.7990   44.9350   56.8210 C   0  0  0  0  0  0  0  0  0  0  0  0
   -1.6090   44.0920   56.0520 C   0  0  0  0  0  0  0  0  0  0  0  0
   -2.8860   43.7670   56.5390 O   0  0  0  0  0  0  0  0  0  0  0  0
   -3.1400   43.1980   57.8200 C   0  0  0  0  0  0  0  0  0  0  0  0
   -1.1190   43.5950   54.8290 C   0  0  0  0  0  0  0  0  0  0  0  0
    0.1600   43.9480   54.3820 C   0  0  0  0  0  0  0  0  0  0  0  0
    0.7600   43.2920   52.8590 S   0  0  0  0  0  0  0  0  0  0  0  0
    0.7810   44.3920   51.8330 O   0  0  0  0  0  0  0  0  0  0  0  0
   -0.1270   42.1830   52.3640 O   0  0  0  0  0  0  0  0  0  0  0  0
    2.3710   42.6830   53.0770 N   0  0  0  0  0  0  0  0  0  0  0  0
    3.5360   43.2690   52.4600 C   0  0  0  0  0  0  0  0  0  0  0  0
    4.3120   44.2230   53.1450 C   0  0  0  0  0  0  0  0  0  0  0  0
    5.4370   44.7960   52.5430 C   0  0  0  0  0  0  0  0  0  0  0  0
    6.3370   46.0300   53.4160 S   0  0  0  0  0  0  0  0  0  0  0  0
    6.2000   45.8130   54.8990 O   0  0  0  0  0  0  0  0  0  0  0  0
    5.7660   47.3760   53.0610 O   0  0  0  0  0  0  0  0  0  0  0  0
    8.0130   45.8860   52.9430 N   0  0  0  0  0  0  0  0  0  0  0  0
    8.8310   47.1220   53.0200 C   0  0  0  0  0  0  0  0  0  0  0  0
   10.2790   46.7560   52.6260 C   0  0  0  0  0  0  0  0  0  0  0  0
    8.3120   48.1610   52.0000 C   0  0  0  0  0  0  0  0  0  0  0  0
    8.8620   47.7330   54.4390 C   0  0  0  0  0  0  0  0  0  0  0  0
    5.8020   44.4130   51.2480 C   0  0  0  0  0  0  0  0  0  0  0  0
    5.0490   43.4630   50.5580 C   0  0  0  0  0  0  0  0  0  0  0  0
    3.9080   42.8860   51.1520 C   0  0  0  0  0  0  0  0  0  0  0  0
    3.1200   41.9450   50.4690 O   0  0  0  0  0  0  0  0  0  0  0  0
    3.6330   40.8180   49.7630 C   0  0  0  0  0  0  0  0  0  0  0  0
    0.9570   44.8030   55.1550 C   0  0  0  0  0  0  0  0  0  0  0  0
    1.3364   46.1315   59.1949 H   0  0  0  0  0  0  0  0  0  0  0  0
    1.4329   47.7479   58.4174 H   0  0  0  0  0  0  0  0  0  0  0  0
   -0.1185   46.8424   58.4174 H   0  0  0  0  0  0  0  0  0  0  0  0
   -1.1718   45.3190   57.7820 H   0  0  0  0  0  0  0  0  0  0  0  0
   -2.8252   43.9032   58.6034 H   0  0  0  0  0  0  0  0  0  0  0  0
   -4.2156   42.9918   57.9229 H   0  0  0  0  0  0  0  0  0  0  0  0
   -2.5753   42.2596   57.9229 H   0  0  0  0  0  0  0  0  0  0  0  0
   -1.7450   42.9253   54.2210 H   0  0  0  0  0  0  0  0  0  0  0  0
    2.4630   41.7920   53.6150 H   0  0  0  0  0  0  0  0  0  0  0  0
    4.0304   44.5213   54.1656 H   0  0  0  0  0  0  0  0  0  0  0  0
    8.4280   45.1400   53.5510 H   0  0  0  0  0  0  0  0  0  0  0  0
   10.8792   46.6043   53.5353 H   0  0  0  0  0  0  0  0  0  0  0  0
   10.2744   45.8308   52.0311 H   0  0  0  0  0  0  0  0  0  0  0  0
   10.7146   47.5723   52.0311 H   0  0  0  0  0  0  0  0  0  0  0  0
    7.8831   49.0197   52.5373 H   0  0  0  0  0  0  0  0  0  0  0  0
    9.1453   48.5027   51.3684 H   0  0  0  0  0  0  0  0  0  0  0  0
    7.5383   47.7000   51.3684 H   0  0  0  0  0  0  0  0  0  0  0  0
    8.8211   46.9269   55.1863 H   0  0  0  0  0  0  0  0  0  0  0  0
    9.7905   48.3080   54.5704 H   0  0  0  0  0  0  0  0  0  0  0  0
    7.9965   48.3991   54.5704 H   0  0  0  0  0  0  0  0  0  0  0  0
    6.6860   44.8626   50.7722 H   0  0  0  0  0  0  0  0  0  0  0  0
    5.3476   43.1618   49.5430 H   0  0  0  0  0  0  0  0  0  0  0  0
    3.9778   40.0606   50.4823 H   0  0  0  0  0  0  0  0  0  0  0  0
    2.8411   40.3898   49.1309 H   0  0  0  0  0  0  0  0  0  0  0  0
    4.4760   41.1339   49.1309 H   0  0  0  0  0  0  0  0  0  0  0  0
    1.9577   45.0874   54.7977 H   0  0  0  0  0  0  0  0  0  0  0  0
  1  2  1  0
  2  3  1  0
  3  4  2  0
  4  5  1  0
  5  6  1  0
  6  7  1  0
  5  8  2  0
  8  9  1  0
  9 10  1  0
 10 11  2  0
 10 12  2  0
 10 13  1  0
 13 14  1  0
 14 15  2  0
 15 16  1  0
 16 17  1  0
 17 18  2  0
 17 19  2  0
 17 20  1  0
 20 21  1  0
 21 22  1  0
 21 23  1  0
 21 24  1  0
 16 25  2  0
 25 26  1  0
 26 27  2  0
 27 28  1  0
 28 29  1  0
  9 30  2  0
 30  3  1  0
 27 14  1  0
  1 31  1  0
  1 32  1  0
  1 33  1  0
  4 34  1  0
  7 35  1  0
  7 36  1  0
  7 37  1  0
  8 38  1  0
 13 39  1  0
 15 40  1  0
 20 41  1  0
 22 42  1  0
 22 43  1  0
 22 44  1  0
 23 45  1  0
 23 46  1  0
 23 47  1  0
 24 48  1  0
 24 49  1  0
 24 50  1  0
 25 51  1  0
 26 52  1  0
 29 53  1  0
 29 54  1  0
 29 55  1  0
 30 56  1  0
M  END
>  <meeko>  (2) 
{"is_sidechain": [false], "free_energy": -8.399, "intermolecular_energy": -12.731, "internal_energy": -0.553}

$$$$
ligand_63_conformer_4_docked
     RDKit          3D

 56 57  0  0  0  0  0  0  0  0999 V2000
    2.2950   37.8070   46.6070 C   0  0  0  0  0  0  0  0  0  0  0  0
    2.3990   39.0340   47.3230 O   0  0  0  0  0  0  0  0  0  0  0  0
    3.4420   39.9610   47.1640 C   0  0  0  0  0  0  0  0  0  0  0  0
    3.9030   40.3720   45.8960 C   0  0  0  0  0  0  0  0  0  0  0  0
    4.9520   41.2910   45.7780 C   0  0  0  0  0  0  0  0  0  0  0  0
    5.3660   41.6680   44.4900 O   0  0  0  0  0  0  0  0  0  0  0  0
    5.7250   40.7540   43.4580 C   0  0  0  0  0  0  0  0  0  0  0  0
    5.5550   41.7990   46.9440 C   0  0  0  0  0  0  0  0  0  0  0  0
    5.1060   41.3960   48.2070 C   0  0  0  0  0  0  0  0  0  0  0  0
    5.8970   42.0270   49.6530 S   0  0  0  0  0  0  0  0  0  0  0  0
    6.4520   43.3900   49.3440 O   0  0  0  0  0  0  0  0  0  0  0  0
    7.0230   41.1300   50.0860 O   0  0  0  0  0  0  0  0  0  0  0  0
    4.7410   42.1590   50.9420 N   0  0  0  0  0  0  0  0  0  0  0  0
    4.3940   43.4060   51.5770 C   0  0  0  0  0  0  0  0  0  0  0  0
    5.3860   44.2270   52.1470 C   0  0  0  0  0  0  0  0  0  0  0  0
    5.0470   45.4320   52.7700 C   0  0  0  0  0  0  0  0  0  0  0  0
    6.3160   46.3910   53.5220 S   0  0  0  0  0  0  0  0  0  0  0  0
    6.4430   46.0260   54.9760 O   0  0  0  0  0  0  0  0  0  0  0  0
    5.9430   47.8440   53.4100 O   0  0  0  0  0  0  0  0  0  0  0  0
    7.8070   46.0340   52.6830 N   0  0  0  0  0  0  0  0  0  0  0  0
    8.8350   47.1030   52.6760 C   0  0  0  0  0  0  0  0  0  0  0  0
   10.1180   46.5220   52.0420 C   0  0  0  0  0  0  0  0  0  0  0  0
    8.3640   48.2810   51.7930 C   0  0  0  0  0  0  0  0  0  0  0  0
    9.1890   47.6040   54.0940 C   0  0  0  0  0  0  0  0  0  0  0  0
    3.7080   45.8340   52.8220 C   0  0  0  0  0  0  0  0  0  0  0  0
    2.7130   45.0370   52.2550 C   0  0  0  0  0  0  0  0  0  0  0  0
    3.0430   43.8150   51.6340 C   0  0  0  0  0  0  0  0  0  0  0  0
    2.0570   42.9840   51.0770 O   0  0  0  0  0  0  0  0  0  0  0  0
    0.7060   43.3750   50.8430 C   0  0  0  0  0  0  0  0  0  0  0  0
    4.0480   40.4840   48.3130 C   0  0  0  0  0  0  0  0  0  0  0  0
    2.2242   36.9717   47.3192 H   0  0  0  0  0  0  0  0  0  0  0  0
    1.3953   37.8267   45.9744 H   0  0  0  0  0  0  0  0  0  0  0  0
    3.1852   37.6750   45.9744 H   0  0  0  0  0  0  0  0  0  0  0  0
    3.4324   39.9653   44.9888 H   0  0  0  0  0  0  0  0  0  0  0  0
    6.0921   39.8194   43.9073 H   0  0  0  0  0  0  0  0  0  0  0  0
    4.8441   40.5400   42.8349 H   0  0  0  0  0  0  0  0  0  0  0  0
    6.5160   41.1968   42.8349 H   0  0  0  0  0  0  0  0  0  0  0  0
    6.3842   42.5171   46.8622 H   0  0  0  0  0  0  0  0  0  0  0  0
    4.3590   41.2620   51.3180 H   0  0  0  0  0  0  0  0  0  0  0  0
    6.4403   43.9166   52.1016 H   0  0  0  0  0  0  0  0  0  0  0  0
    8.1920   45.1640   53.1240 H   0  0  0  0  0  0  0  0  0  0  0  0
   10.8104   46.2085   52.8372 H   0  0  0  0  0  0  0  0  0  0  0  0
    9.8582   45.6537   51.4186 H   0  0  0  0  0  0  0  0  0  0  0  0
   10.5992   47.2900   51.4186 H   0  0  0  0  0  0  0  0  0  0  0  0
    8.0323   49.1105   52.4348 H   0  0  0  0  0  0  0  0  0  0  0  0
    9.1962   48.6188   51.1579 H   0  0  0  0  0  0  0  0  0  0  0  0
    7.5283   47.9519   51.1579 H   0  0  0  0  0  0  0  0  0  0  0  0
    8.7237   46.9455   54.8423 H   0  0  0  0  0  0  0  0  0  0  0  0
   10.2812   47.5933   54.2246 H   0  0  0  0  0  0  0  0  0  0  0  0
    8.8141   48.6299   54.2246 H   0  0  0  0  0  0  0  0  0  0  0  0
    3.4387   46.7816   53.3115 H   0  0  0  0  0  0  0  0  0  0  0  0
    1.6635   45.3644   52.2928 H   0  0  0  0  0  0  0  0  0  0  0  0
    0.1951   43.5229   51.8058 H   0  0  0  0  0  0  0  0  0  0  0  0
    0.6900   44.3146   50.2713 H   0  0  0  0  0  0  0  0  0  0  0  0
    0.1906   42.5892   50.2713 H   0  0  0  0  0  0  0  0  0  0  0  0
    3.6904   40.1762   49.3067 H   0  0  0  0  0  0  0  0  0  0  0  0
  1  2  1  0
  2  3  1  0
  3  4  2  0
  4  5  1  0
  5  6  1  0
  6  7  1  0
  5  8  2  0
  8  9  1  0
  9 10  1  0
 10 11  2  0
 10 12  2  0
 10 13  1  0
 13 14  1  0
 14 15  2  0
 15 16  1  0
 16 17  1  0
 17 18  2  0
 17 19  2  0
 17 20  1  0
 20 21  1  0
 21 22  1  0
 21 23  1  0
 21 24  1  0
 16 25  2  0
 25 26  1  0
 26 27  2  0
 27 28  1  0
 28 29  1  0
  9 30  2  0
 30  3  1  0
 27 14  1  0
  1 31  1  0
  1 32  1  0
  1 33  1  0
  4 34  1  0
  7 35  1  0
  7 36  1  0
  7 37  1  0
  8 38  1  0
 13 39  1  0
 15 40  1  0
 20 41  1  0
 22 42  1  0
 22 43  1  0
 22 44  1  0
 23 45  1  0
 23 46  1  0
 23 47  1  0
 24 48  1  0
 24 49  1  0
 24 50  1  0
 25 51  1  0
 26 52  1  0
 29 53  1  0
 29 54  1  0
 29 55  1  0
 30 56  1  0
M  END
>  <meeko>  (3) 
{"is_sidechain": [false], "free_energy": -8.33, "intermolecular_energy": -12.97, "internal_energy": -0.208}

$$$$
ligand_63_conformer_4_docked
     RDKit          3D

 56 57  0  0  0  0  0  0  0  0999 V2000
    5.2480   45.5700   55.2900 C   0  0  0  0  0  0  0  0  0  0  0  0
    3.9710   46.0750   55.6700 O   0  0  0  0  0  0  0  0  0  0  0  0
    2.7460   45.5100   55.2810 C   0  0  0  0  0  0  0  0  0  0  0  0
    1.5690   45.6580   56.0450 C   0  0  0  0  0  0  0  0  0  0  0  0
    0.3670   45.0720   55.6290 C   0  0  0  0  0  0  0  0  0  0  0  0
   -0.7750   45.2550   56.4260 O   0  0  0  0  0  0  0  0  0  0  0  0
   -1.0460   46.4260   57.1900 C   0  0  0  0  0  0  0  0  0  0  0  0
    0.3450   44.3210   54.4390 C   0  0  0  0  0  0  0  0  0  0  0  0
    1.5080   44.1670   53.6750 C   0  0  0  0  0  0  0  0  0  0  0  0
    1.4590   43.1990   52.2010 S   0  0  0  0  0  0  0  0  0  0  0  0
    1.3990   44.1240   51.0170 O   0  0  0  0  0  0  0  0  0  0  0  0
    0.2480   42.3080   52.1830 O   0  0  0  0  0  0  0  0  0  0  0  0
    2.8900   42.2230   52.0930 N   0  0  0  0  0  0  0  0  0  0  0  0
    4.0940   42.6440   51.4180 C   0  0  0  0  0  0  0  0  0  0  0  0
    4.6930   43.8820   51.7170 C   0  0  0  0  0  0  0  0  0  0  0  0
    5.8560   44.2920   51.0570 C   0  0  0  0  0  0  0  0  0  0  0  0
    6.5310   45.8760   51.4200 S   0  0  0  0  0  0  0  0  0  0  0  0
    5.4460   46.7970   51.9100 O   0  0  0  0  0  0  0  0  0  0  0  0
    7.1230   46.4410   50.1580 O   0  0  0  0  0  0  0  0  0  0  0  0
    7.7360   45.6560   52.6660 N   0  0  0  0  0  0  0  0  0  0  0  0
    8.8460   46.6400   52.6950 C   0  0  0  0  0  0  0  0  0  0  0  0
    9.3480   46.7450   54.1510 C   0  0  0  0  0  0  0  0  0  0  0  0
   10.0200   46.1350   51.8250 C   0  0  0  0  0  0  0  0  0  0  0  0
    8.4090   48.0500   52.2380 C   0  0  0  0  0  0  0  0  0  0  0  0
    6.4380   43.4610   50.0940 C   0  0  0  0  0  0  0  0  0  0  0  0
    5.8610   42.2270   49.7910 C   0  0  0  0  0  0  0  0  0  0  0  0
    4.6840   41.8080   50.4440 C   0  0  0  0  0  0  0  0  0  0  0  0
    4.0710   40.5810   50.1400 O   0  0  0  0  0  0  0  0  0  0  0  0
    3.5370   40.2360   48.8640 C   0  0  0  0  0  0  0  0  0  0  0  0
    2.7020   44.7680   54.0950 C   0  0  0  0  0  0  0  0  0  0  0  0
    5.8338   45.3383   56.1917 H   0  0  0  0  0  0  0  0  0  0  0  0
    5.1177   44.6557   54.6924 H   0  0  0  0  0  0  0  0  0  0  0  0
    5.7783   46.3261   54.6924 H   0  0  0  0  0  0  0  0  0  0  0  0
    1.5959   46.2402   56.9779 H   0  0  0  0  0  0  0  0  0  0  0  0
   -0.9903   46.1855   58.2619 H   0  0  0  0  0  0  0  0  0  0  0  0
   -0.3035   47.2010   56.9491 H   0  0  0  0  0  0  0  0  0  0  0  0
   -2.0535   46.7960   56.9491 H   0  0  0  0  0  0  0  0  0  0  0  0
   -0.5927   43.8516   54.1068 H   0  0  0  0  0  0  0  0  0  0  0  0
    2.8190   41.2500   52.4660 H   0  0  0  0  0  0  0  0  0  0  0  0
    4.2413   44.5347   52.4786 H   0  0  0  0  0  0  0  0  0  0  0  0
    7.2210   45.6650   53.5790 H   0  0  0  0  0  0  0  0  0  0  0  0
    8.5098   46.5697   54.8414 H   0  0  0  0  0  0  0  0  0  0  0  0
   10.1298   45.9910   54.3246 H   0  0  0  0  0  0  0  0  0  0  0  0
    9.7621   47.7492   54.3246 H   0  0  0  0  0  0  0  0  0  0  0  0
   10.8345   45.7846   52.4760 H   0  0  0  0  0  0  0  0  0  0  0  0
    9.6755   45.3055   51.1900 H   0  0  0  0  0  0  0  0  0  0  0  0
   10.3853   46.9556   51.1900 H   0  0  0  0  0  0  0  0  0  0  0  0
    8.2145   48.6775   53.1203 H   0  0  0  0  0  0  0  0  0  0  0  0
    9.2086   48.5040   51.6342 H   0  0  0  0  0  0  0  0  0  0  0  0
    7.4928   47.9722   51.6342 H   0  0  0  0  0  0  0  0  0  0  0  0
    7.3530   43.7811   49.5741 H   0  0  0  0  0  0  0  0  0  0  0  0
    6.3281   41.5764   49.0370 H   0  0  0  0  0  0  0  0  0  0  0  0
    2.6200   39.6435   48.9983 H   0  0  0  0  0  0  0  0  0  0  0  0
    3.3021   41.1535   48.3046 H   0  0  0  0  0  0  0  0  0  0  0  0
    4.2769   39.6447   48.3046 H   0  0  0  0  0  0  0  0  0  0  0  0
    3.6123   44.6558   53.4877 H   0  0  0  0  0  0  0  0  0  0  0  0
  1  2  1  0
  2  3  1  0
  3  4  2  0
  4  5  1  0
  5  6  1  0
  6  7  1  0
  5  8  2  0
  8  9  1  0
  9 10  1  0
 10 11  2  0
 10 12  2  0
 10 13  1  0
 13 14  1  0
 14 15  2  0
 15 16  1  0
 16 17  1  0
 17 18  2  0
 17 19  2  0
 17 20  1  0
 20 21  1  0
 21 22  1  0
 21 23  1  0
 21 24  1  0
 16 25  2  0
 25 26  1  0
 26 27  2  0
 27 28  1  0
 28 29  1  0
  9 30  2  0
 30  3  1  0
 27 14  1  0
  1 31  1  0
  1 32  1  0
  1 33  1  0
  4 34  1  0
  7 35  1  0
  7 36  1  0
  7 37  1  0
  8 38  1  0
 13 39  1  0
 15 40  1  0
 20 41  1  0
 22 42  1  0
 22 43  1  0
 22 44  1  0
 23 45  1  0
 23 46  1  0
 23 47  1  0
 24 48  1  0
 24 49  1  0
 24 50  1  0
 25 51  1  0
 26 52  1  0
 29 53  1  0
 29 54  1  0
 29 55  1  0
 30 56  1  0
M  END
>  <meeko>  (4) 
{"is_sidechain": [false], "free_energy": -8.174, "intermolecular_energy": -12.539, "internal_energy": -0.401}

$$$$
ligand_63_conformer_4_docked
     RDKit          3D

 56 57  0  0  0  0  0  0  0  0999 V2000
    5.7400   40.8640   43.4690 C   0  0  0  0  0  0  0  0  0  0  0  0
    5.4580   41.7250   44.5690 O   0  0  0  0  0  0  0  0  0  0  0  0
    4.9710   41.2920   45.8130 C   0  0  0  0  0  0  0  0  0  0  0  0
    3.8910   40.3930   45.9310 C   0  0  0  0  0  0  0  0  0  0  0  0
    3.4280   39.9910   47.1890 C   0  0  0  0  0  0  0  0  0  0  0  0
    2.3510   39.0910   47.2480 O   0  0  0  0  0  0  0  0  0  0  0  0
    1.9190   38.2790   46.1610 C   0  0  0  0  0  0  0  0  0  0  0  0
    4.0480   40.5030   48.3450 C   0  0  0  0  0  0  0  0  0  0  0  0
    5.1200   41.3970   48.2380 C   0  0  0  0  0  0  0  0  0  0  0  0
    5.8620   42.0430   49.7020 S   0  0  0  0  0  0  0  0  0  0  0  0
    6.3670   43.4310   49.4160 O   0  0  0  0  0  0  0  0  0  0  0  0
    7.0170   41.1870   50.1430 O   0  0  0  0  0  0  0  0  0  0  0  0
    4.6830   42.1150   50.9740 N   0  0  0  0  0  0  0  0  0  0  0  0
    4.3760   43.3160   51.7110 C   0  0  0  0  0  0  0  0  0  0  0  0
    5.4000   44.1730   52.1540 C   0  0  0  0  0  0  0  0  0  0  0  0
    5.1010   45.3340   52.8740 C   0  0  0  0  0  0  0  0  0  0  0  0
    6.4210   46.3400   53.4590 S   0  0  0  0  0  0  0  0  0  0  0  0
    6.6750   46.0580   54.9160 O   0  0  0  0  0  0  0  0  0  0  0  0
    6.0260   47.7820   53.2990 O   0  0  0  0  0  0  0  0  0  0  0  0
    7.8380   45.9420   52.5180 N   0  0  0  0  0  0  0  0  0  0  0  0
    8.9190   46.9580   52.4860 C   0  0  0  0  0  0  0  0  0  0  0  0
   10.1570   46.3100   51.8300 C   0  0  0  0  0  0  0  0  0  0  0  0
    8.4900   48.1550   51.6080 C   0  0  0  0  0  0  0  0  0  0  0  0
    9.3250   47.4450   53.8950 C   0  0  0  0  0  0  0  0  0  0  0  0
    3.7680   45.6540   53.1530 C   0  0  0  0  0  0  0  0  0  0  0  0
    2.7390   44.8190   52.7150 C   0  0  0  0  0  0  0  0  0  0  0  0
    3.0310   43.6420   51.9960 C   0  0  0  0  0  0  0  0  0  0  0  0
    2.0140   42.7730   51.5650 O   0  0  0  0  0  0  0  0  0  0  0  0
    0.8320   43.1850   50.8830 C   0  0  0  0  0  0  0  0  0  0  0  0
    5.5820   41.7830   46.9730 C   0  0  0  0  0  0  0  0  0  0  0  0
    6.0617   39.8817   43.8453 H   0  0  0  0  0  0  0  0  0  0  0  0
    4.8344   40.7433   42.8563 H   0  0  0  0  0  0  0  0  0  0  0  0
    6.5415   41.3024   42.8563 H   0  0  0  0  0  0  0  0  0  0  0  0
    3.4067   40.0031   45.0235 H   0  0  0  0  0  0  0  0  0  0  0  0
    1.4359   37.3710   46.5510 H   0  0  0  0  0  0  0  0  0  0  0  0
    1.2008   38.8412   45.5461 H   0  0  0  0  0  0  0  0  0  0  0  0
    2.7866   37.9975   45.5461 H   0  0  0  0  0  0  0  0  0  0  0  0
    3.6876   40.1985   49.3387 H   0  0  0  0  0  0  0  0  0  0  0  0
    4.2540   41.2070   51.2620 H   0  0  0  0  0  0  0  0  0  0  0  0
    6.4487   43.9268   51.9313 H   0  0  0  0  0  0  0  0  0  0  0  0
    8.2030   45.0370   52.9030 H   0  0  0  0  0  0  0  0  0  0  0  0
   10.8415   45.9517   52.6130 H   0  0  0  0  0  0  0  0  0  0  0  0
    9.8393   45.4625   51.2048 H   0  0  0  0  0  0  0  0  0  0  0  0
   10.6723   47.0540   51.2048 H   0  0  0  0  0  0  0  0  0  0  0  0
    8.1894   48.9938   52.2531 H   0  0  0  0  0  0  0  0  0  0  0  0
    9.3331   48.4647   50.9730 H   0  0  0  0  0  0  0  0  0  0  0  0
    7.6421   47.8587   50.9730 H   0  0  0  0  0  0  0  0  0  0  0  0
    8.8157   46.8341   54.6549 H   0  0  0  0  0  0  0  0  0  0  0  0
   10.4140   47.3487   54.0166 H   0  0  0  0  0  0  0  0  0  0  0  0
    9.0343   48.4989   54.0166 H   0  0  0  0  0  0  0  0  0  0  0  0
    3.5301   46.5665   53.7193 H   0  0  0  0  0  0  0  0  0  0  0  0
    1.6930   45.0810   52.9323 H   0  0  0  0  0  0  0  0  0  0  0  0
    0.0594   43.4543   51.6183 H   0  0  0  0  0  0  0  0  0  0  0  0
    1.0578   44.0574   50.2522 H   0  0  0  0  0  0  0  0  0  0  0  0
    0.4666   42.3612   50.2522 H   0  0  0  0  0  0  0  0  0  0  0  0
    6.4313   42.4772   46.8905 H   0  0  0  0  0  0  0  0  0  0  0  0
  1  2  1  0
  2  3  1  0
  3  4  2  0
  4  5  1  0
  5  6  1  0
  6  7  1  0
  5  8  2  0
  8  9  1  0
  9 10  1  0
 10 11  2  0
 10 12  2  0
 10 13  1  0
 13 14  1  0
 14 15  2  0
 15 16  1  0
 16 17  1  0
 17 18  2  0
 17 19  2  0
 17 20  1  0
 20 21  1  0
 21 22  1  0
 21 23  1  0
 21 24  1  0
 16 25  2  0
 25 26  1  0
 26 27  2  0
 27 28  1  0
 28 29  1  0
  9 30  2  0
 30  3  1  0
 27 14  1  0
  1 31  1  0
  1 32  1  0
  1 33  1  0
  4 34  1  0
  7 35  1  0
  7 36  1  0
  7 37  1  0
  8 38  1  0
 13 39  1  0
 15 40  1  0
 20 41  1  0
 22 42  1  0
 22 43  1  0
 22 44  1  0
 23 45  1  0
 23 46  1  0
 23 47  1  0
 24 48  1  0
 24 49  1  0
 24 50  1  0
 25 51  1  0
 26 52  1  0
 29 53  1  0
 29 54  1  0
 29 55  1  0
 30 56  1  0
M  END
>  <meeko>  (5) 
{"is_sidechain": [false], "free_energy": -8.147, "intermolecular_energy": -12.779, "internal_energy": -0.119}

$$$$
