MODEL 1
REMARK VINA RESULT:    -8.696      0.000      0.000
REMARK INTER + INTRA:          -9.577
REMARK INTER:                  -9.967
REMARK INTRA:                   0.390
REMARK UNBOUND:                 0.390
REMARK SMILES O=C1C[C@@](O)(C(=O)N2CC(CF)C2)c2cc(Br)ccc2N1
REMARK SMILES IDX 4 1 3 2 2 3 1 4 21 5 20 6 19 7 18 8 16 9 17 10 15 11 14 12
REMARK SMILES IDX 6 14 7 15 8 16 9 17 13 18 10 19 11 20 12 21 5 22
REMARK H PARENT 21 13 5 23
ROOT
ATOM      1  C   UNL     1       3.759  45.095  52.099  1.00  0.00     0.179 C 
ATOM      2  C   UNL     1       2.287  44.774  52.461  1.00  0.00     0.151 C 
ATOM      3  C   UNL     1       2.123  43.393  53.004  1.00  0.00     0.228 C 
ATOM      4  O   UNL     1       1.291  43.162  53.921  1.00  0.00    -0.275 OA
ATOM      5  N   UNL     1       2.851  42.322  52.410  1.00  0.00    -0.326 N 
ATOM      6  C   UNL     1       3.952  42.595  51.536  1.00  0.00     0.047 A 
ATOM      7  C   UNL     1       4.603  41.531  50.897  1.00  0.00     0.028 A 
ATOM      8  C   UNL     1       5.731  41.762  50.111  1.00  0.00     0.018 A 
ATOM      9  C   UNL     1       6.231  43.057  49.969  1.00  0.00     0.018 A 
ATOM     10  Br  UNL     1       7.800  43.364  48.925  1.00  0.00    -0.051 Br
ATOM     11  C   UNL     1       5.593  44.127  50.601  1.00  0.00     0.025 A 
ATOM     12  C   UNL     1       4.430  43.920  51.375  1.00  0.00     0.018 A 
ATOM     13  H   UNL     1       2.604  41.336  52.656  1.00  0.00     0.169 HD
ENDROOT
BRANCH   1  14
ATOM     14  C   UNL     1       4.505  45.482  53.376  1.00  0.00     0.259 C 
ATOM     15  O   UNL     1       3.877  45.465  54.469  1.00  0.00    -0.271 OA
ATOM     16  N   UNL     1       5.900  45.809  53.404  1.00  0.00    -0.339 N 
ATOM     17  C   UNL     1       6.849  46.215  54.458  1.00  0.00     0.127 C 
ATOM     18  C   UNL     1       7.072  45.910  52.509  1.00  0.00     0.127 C 
ATOM     19  C   UNL     1       8.046  46.330  53.565  1.00  0.00     0.059 C 
BRANCH  19  20
ATOM     20  C   UNL     1       8.594  47.756  53.404  1.00  0.00     0.221 C 
ATOM     21  F   UNL     1       9.979  47.785  53.440  1.00  0.00    -0.251 F 
ENDBRANCH  19  20
ENDBRANCH   1  14
BRANCH   1  22
ATOM     22  O   UNL     1       3.706  46.204  51.223  1.00  0.00    -0.375 OA
ATOM     23  H   UNL     1       3.270  46.968  51.683  1.00  0.00     0.212 HD
ENDBRANCH   1  22
TORSDOF 3
ENDMDL
MODEL 2
REMARK VINA RESULT:    -8.549      3.963      5.452
REMARK INTER + INTRA:          -9.408
REMARK INTER:                  -9.715
REMARK INTRA:                   0.307
REMARK UNBOUND:                 0.390
REMARK SMILES O=C1C[C@@](O)(C(=O)N2CC(CF)C2)c2cc(Br)ccc2N1
REMARK SMILES IDX 4 1 3 2 2 3 1 4 21 5 20 6 19 7 18 8 16 9 17 10 15 11 14 12
REMARK SMILES IDX 6 14 7 15 8 16 9 17 13 18 10 19 11 20 12 21 5 22
REMARK H PARENT 21 13 5 23
ROOT
ATOM      1  C   UNL     1       4.517  47.083  53.367  1.00  0.00     0.179 C 
ATOM      2  C   UNL     1       3.451  47.173  52.247  1.00  0.00     0.151 C 
ATOM      3  C   UNL     1       3.607  46.096  51.224  1.00  0.00     0.228 C 
ATOM      4  O   UNL     1       2.595  45.571  50.689  1.00  0.00    -0.275 OA
ATOM      5  N   UNL     1       4.916  45.735  50.790  1.00  0.00    -0.326 N 
ATOM      6  C   UNL     1       6.064  46.151  51.538  1.00  0.00     0.047 A 
ATOM      7  C   UNL     1       7.345  45.856  51.052  1.00  0.00     0.028 A 
ATOM      8  C   UNL     1       8.477  46.172  51.803  1.00  0.00     0.018 A 
ATOM      9  C   UNL     1       8.338  46.771  53.055  1.00  0.00     0.018 A 
ATOM     10  Br  UNL     1       9.889  47.166  54.098  1.00  0.00    -0.051 Br
ATOM     11  C   UNL     1       7.068  47.070  53.553  1.00  0.00     0.025 A 
ATOM     12  C   UNL     1       5.911  46.789  52.796  1.00  0.00     0.018 A 
ATOM     13  H   UNL     1       5.026  45.123  49.950  1.00  0.00     0.169 HD
ENDROOT
BRANCH   1  14
ATOM     14  C   UNL     1       4.077  46.023  54.378  1.00  0.00     0.259 C 
ATOM     15  O   UNL     1       4.945  45.526  55.145  1.00  0.00    -0.271 OA
ATOM     16  N   UNL     1       2.715  45.604  54.537  1.00  0.00    -0.339 N 
ATOM     17  C   UNL     1       2.026  44.626  55.400  1.00  0.00     0.127 C 
ATOM     18  C   UNL     1       1.363  45.878  54.008  1.00  0.00     0.127 C 
ATOM     19  C   UNL     1       0.649  44.883  54.871  1.00  0.00     0.059 C 
BRANCH  19  20
ATOM     20  C   UNL     1       0.021  43.706  54.110  1.00  0.00     0.221 C 
ATOM     21  F   UNL     1      -1.095  43.206  54.761  1.00  0.00    -0.251 F 
ENDBRANCH  19  20
ENDBRANCH   1  14
BRANCH   1  22
ATOM     22  O   UNL     1       4.534  48.354  53.985  1.00  0.00    -0.375 OA
ATOM     23  H   UNL     1       4.661  49.056  53.294  1.00  0.00     0.212 HD
ENDBRANCH   1  22
TORSDOF 3
ENDMDL
MODEL 3
REMARK VINA RESULT:    -8.517      3.373      4.367
REMARK INTER + INTRA:          -9.372
REMARK INTER:                  -9.409
REMARK INTRA:                   0.037
REMARK UNBOUND:                 0.390
REMARK SMILES O=C1C[C@@](O)(C(=O)N2CC(CF)C2)c2cc(Br)ccc2N1
REMARK SMILES IDX 4 1 3 2 2 3 1 4 21 5 20 6 19 7 18 8 16 9 17 10 15 11 14 12
REMARK SMILES IDX 6 14 7 15 8 16 9 17 13 18 10 19 11 20 12 21 5 22
REMARK H PARENT 21 13 5 23
ROOT
ATOM      1  C   UNL     1       3.692  46.705  53.202  1.00  0.00     0.179 C 
ATOM      2  C   UNL     1       4.527  46.923  54.488  1.00  0.00     0.151 C 
ATOM      3  C   UNL     1       4.669  45.674  55.292  1.00  0.00     0.228 C 
ATOM      4  O   UNL     1       5.742  45.427  55.906  1.00  0.00    -0.275 OA
ATOM      5  N   UNL     1       3.546  44.808  55.436  1.00  0.00    -0.326 N 
ATOM      6  C   UNL     1       2.411  44.951  54.575  1.00  0.00     0.047 A 
ATOM      7  C   UNL     1       1.283  44.145  54.785  1.00  0.00     0.028 A 
ATOM      8  C   UNL     1       0.200  44.203  53.909  1.00  0.00     0.018 A 
ATOM      9  C   UNL     1       0.240  45.054  52.805  1.00  0.00     0.018 A 
ATOM     10  Br  UNL     1      -1.229  45.101  51.585  1.00  0.00    -0.051 Br
ATOM     11  C   UNL     1       1.357  45.863  52.583  1.00  0.00     0.025 A 
ATOM     12  C   UNL     1       2.451  45.845  53.475  1.00  0.00     0.018 A 
ATOM     13  H   UNL     1       3.580  44.038  56.142  1.00  0.00     0.169 HD
ENDROOT
BRANCH   1  14
ATOM     14  C   UNL     1       4.592  46.088  52.131  1.00  0.00     0.259 C 
ATOM     15  O   UNL     1       4.094  45.243  51.340  1.00  0.00    -0.271 OA
ATOM     16  N   UNL     1       5.963  46.464  51.944  1.00  0.00    -0.339 N 
ATOM     17  C   UNL     1       7.037  46.041  51.025  1.00  0.00     0.127 C 
ATOM     18  C   UNL     1       6.982  47.388  52.483  1.00  0.00     0.127 C 
ATOM     19  C   UNL     1       8.085  46.965  51.563  1.00  0.00     0.059 C 
BRANCH  19  20
ATOM     20  C   UNL     1       9.266  46.267  52.254  1.00  0.00     0.221 C 
ATOM     21  F   UNL     1      10.216  47.172  52.697  1.00  0.00    -0.251 F 
ENDBRANCH  19  20
ENDBRANCH   1  14
BRANCH   1  22
ATOM     22  O   UNL     1       3.275  47.992  52.791  1.00  0.00    -0.375 OA
ATOM     23  H   UNL     1       2.761  48.423  53.524  1.00  0.00     0.212 HD
ENDBRANCH   1  22
TORSDOF 3
ENDMDL
MODEL 4
REMARK VINA RESULT:    -8.341      3.396      5.659
REMARK INTER + INTRA:          -9.170
REMARK INTER:                  -9.033
REMARK INTRA:                  -0.137
REMARK UNBOUND:                 0.390
REMARK SMILES O=C1C[C@@](O)(C(=O)N2CC(CF)C2)c2cc(Br)ccc2N1
REMARK SMILES IDX 4 1 3 2 2 3 1 4 21 5 20 6 19 7 18 8 16 9 17 10 15 11 14 12
REMARK SMILES IDX 6 14 7 15 8 16 9 17 13 18 10 19 11 20 12 21 5 22
REMARK H PARENT 21 13 5 23
ROOT
ATOM      1  C   UNL     1       4.041  45.012  53.139  1.00  0.00     0.179 C 
ATOM      2  C   UNL     1       4.313  45.876  54.395  1.00  0.00     0.151 C 
ATOM      3  C   UNL     1       4.939  47.189  54.057  1.00  0.00     0.228 C 
ATOM      4  O   UNL     1       4.640  48.226  54.707  1.00  0.00    -0.275 OA
ATOM      5  N   UNL     1       5.951  47.239  53.054  1.00  0.00    -0.326 N 
ATOM      6  C   UNL     1       6.137  46.134  52.163  1.00  0.00     0.047 A 
ATOM      7  C   UNL     1       7.189  46.167  51.237  1.00  0.00     0.028 A 
ATOM      8  C   UNL     1       7.340  45.145  50.301  1.00  0.00     0.018 A 
ATOM      9  C   UNL     1       6.430  44.088  50.269  1.00  0.00     0.018 A 
ATOM     10  Br  UNL     1       6.616  42.710  48.959  1.00  0.00    -0.051 Br
ATOM     11  C   UNL     1       5.376  44.041  51.185  1.00  0.00     0.025 A 
ATOM     12  C   UNL     1       5.225  45.048  52.162  1.00  0.00     0.018 A 
ATOM     13  H   UNL     1       6.521  48.108  52.945  1.00  0.00     0.169 HD
ENDROOT
BRANCH   1  14
ATOM     14  C   UNL     1       2.745  45.491  52.485  1.00  0.00     0.259 C 
ATOM     15  O   UNL     1       2.814  46.370  51.584  1.00  0.00    -0.271 OA
ATOM     16  N   UNL     1       1.455  44.952  52.805  1.00  0.00    -0.339 N 
ATOM     17  C   UNL     1       0.077  45.222  52.352  1.00  0.00     0.127 C 
ATOM     18  C   UNL     1       0.822  43.927  53.661  1.00  0.00     0.127 C 
ATOM     19  C   UNL     1      -0.583  44.194  53.218  1.00  0.00     0.059 C 
BRANCH  19  20
ATOM     20  C   UNL     1      -1.504  44.764  54.307  1.00  0.00     0.221 C 
ATOM     21  F   UNL     1      -2.236  43.772  54.937  1.00  0.00    -0.251 F 
ENDBRANCH  19  20
ENDBRANCH   1  14
BRANCH   1  22
ATOM     22  O   UNL     1       3.876  43.689  53.610  1.00  0.00    -0.375 OA
ATOM     23  H   UNL     1       4.234  43.621  54.534  1.00  0.00     0.212 HD
ENDBRANCH   1  22
TORSDOF 3
ENDMDL
MODEL 5
REMARK VINA RESULT:    -7.739      3.608      4.973
REMARK INTER + INTRA:          -8.480
REMARK INTER:                  -8.188
REMARK INTRA:                  -0.292
REMARK UNBOUND:                 0.390
REMARK SMILES O=C1C[C@@](O)(C(=O)N2CC(CF)C2)c2cc(Br)ccc2N1
REMARK SMILES IDX 4 1 3 2 2 3 1 4 21 5 20 6 19 7 18 8 16 9 17 10 15 11 14 12
REMARK SMILES IDX 6 14 7 15 8 16 9 17 13 18 10 19 11 20 12 21 5 22
REMARK H PARENT 21 13 5 23
ROOT
ATOM      1  C   UNL     1       3.561  45.457  52.087  1.00  0.00     0.179 C 
ATOM      2  C   UNL     1       2.660  44.511  51.256  1.00  0.00     0.151 C 
ATOM      3  C   UNL     1       3.320  43.202  50.970  1.00  0.00     0.228 C 
ATOM      4  O   UNL     1       2.647  42.138  50.950  1.00  0.00    -0.275 OA
ATOM      5  N   UNL     1       4.703  43.182  50.625  1.00  0.00    -0.326 N 
ATOM      6  C   UNL     1       5.522  44.333  50.862  1.00  0.00     0.047 A 
ATOM      7  C   UNL     1       6.859  44.324  50.441  1.00  0.00     0.028 A 
ATOM      8  C   UNL     1       7.700  45.396  50.737  1.00  0.00     0.018 A 
ATOM      9  C   UNL     1       7.219  46.480  51.470  1.00  0.00     0.018 A 
ATOM     10  Br  UNL     1       8.385  47.928  51.907  1.00  0.00    -0.051 Br
ATOM     11  C   UNL     1       5.888  46.503  51.897  1.00  0.00     0.025 A 
ATOM     12  C   UNL     1       5.010  45.444  51.580  1.00  0.00     0.018 A 
ATOM     13  H   UNL     1       5.123  42.304  50.244  1.00  0.00     0.169 HD
ENDROOT
BRANCH   1  14
ATOM     14  C   UNL     1       3.467  45.058  53.559  1.00  0.00     0.259 C 
ATOM     15  O   UNL     1       4.504  44.632  54.136  1.00  0.00    -0.271 OA
ATOM     16  N   UNL     1       2.270  45.194  54.337  1.00  0.00    -0.339 N 
ATOM     17  C   UNL     1       1.899  44.891  55.732  1.00  0.00     0.127 C 
ATOM     18  C   UNL     1       0.876  45.672  54.220  1.00  0.00     0.127 C 
ATOM     19  C   UNL     1       0.482  45.363  55.631  1.00  0.00     0.059 C 
BRANCH  19  20
ATOM     20  C   UNL     1      -0.576  44.259  55.776  1.00  0.00     0.221 C 
ATOM     21  F   UNL     1      -1.156  44.259  57.033  1.00  0.00    -0.251 F 
ENDBRANCH  19  20
ENDBRANCH   1  14
BRANCH   1  22
ATOM     22  O   UNL     1       3.026  46.753  51.909  1.00  0.00    -0.375 OA
ATOM     23  H   UNL     1       3.395  47.152  51.078  1.00  0.00     0.212 HD
ENDBRANCH   1  22
TORSDOF 3
ENDMDL
