ligand_81_conformer_3_docked
     RDKit          3D

 48 50  0  0  0  0  0  0  0  0999 V2000
    3.0730   44.9840   51.5500 O   0  0  0  0  0  0  0  0  0  0  0  0
    3.6480   43.9480   51.9820 C   0  0  0  0  0  0  0  0  0  0  0  0
    3.0110   43.1220   52.9680 N   0  0  0  0  0  0  0  0  0  0  0  0
    1.6320   43.2480   53.3570 C   0  0  0  0  0  0  0  0  0  0  0  0
    0.6330   42.7310   52.5210 C   0  0  0  0  0  0  0  0  0  0  0  0
   -0.7140   42.8650   52.8610 C   0  0  0  0  0  0  0  0  0  0  0  0
   -1.0780   43.5260   54.0370 C   0  0  0  0  0  0  0  0  0  0  0  0
   -0.0950   44.0630   54.8860 C   0  0  0  0  0  0  0  0  0  0  0  0
   -0.4910   44.7800   56.1220 C   0  0  0  0  0  0  0  0  0  0  0  0
   -1.5320   44.4190   56.7380 O   0  0  0  0  0  0  0  0  0  0  0  0
    0.3150   45.8520   56.6440 N   0  0  0  0  0  0  0  0  0  0  0  0
   -0.1460   46.7980   57.6230 C   0  0  0  0  0  0  0  0  0  0  0  0
   -1.3640   47.4660   57.4330 C   0  0  0  0  0  0  0  0  0  0  0  0
   -1.8110   48.3720   58.3960 C   0  0  0  0  0  0  0  0  0  0  0  0
   -1.0460   48.6010   59.5420 C   0  0  0  0  0  0  0  0  0  0  0  0
   -1.5940   49.7350   60.7630 Cl  0  0  0  0  0  0  0  0  0  0  0  0
    0.1590   47.9140   59.7050 C   0  0  0  0  0  0  0  0  0  0  0  0
    0.5770   47.0370   58.7550 N   0  0  0  0  0  0  0  0  0  0  0  0
    1.2600   43.9350   54.5280 C   0  0  0  0  0  0  0  0  0  0  0  0
    4.9640   43.6130   51.5190 N   0  0  0  0  0  0  0  0  0  0  0  0
    5.6790   44.4380   50.5380 C   0  0  2  0  0  0  0  0  0  0  0  0
    6.5180   43.5660   49.5900 C   0  0  0  0  0  0  0  0  0  0  0  0
    6.2210   42.2070   49.7680 O   0  0  0  0  0  0  0  0  0  0  0  0
    6.5480   45.4710   51.2280 C   0  0  0  0  0  0  0  0  0  0  0  0
    5.9810   46.4650   52.0490 C   0  0  0  0  0  0  0  0  0  0  0  0
    6.7970   47.3960   52.6960 C   0  0  0  0  0  0  0  0  0  0  0  0
    8.1840   47.3430   52.5420 C   0  0  0  0  0  0  0  0  0  0  0  0
    8.9660   48.2520   53.1760 F   0  0  0  0  0  0  0  0  0  0  0  0
    8.7610   46.3500   51.7400 C   0  0  0  0  0  0  0  0  0  0  0  0
   10.5040   46.2680   51.5460 Cl  0  0  0  0  0  0  0  0  0  0  0  0
    7.9460   45.4160   51.0900 C   0  0  0  0  0  0  0  0  0  0  0  0
    3.6110   42.4500   53.4980 H   0  0  0  0  0  0  0  0  0  0  0  0
    0.9126   42.2159   51.5901 H   0  0  0  0  0  0  0  0  0  0  0  0
   -1.4905   42.4495   52.2019 H   0  0  0  0  0  0  0  0  0  0  0  0
   -2.1413   43.6268   54.3002 H   0  0  0  0  0  0  0  0  0  0  0  0
    1.3060   45.9290   56.3200 H   0  0  0  0  0  0  0  0  0  0  0  0
   -1.9637   47.2772   56.5304 H   0  0  0  0  0  0  0  0  0  0  0  0
   -2.7630   48.9042   58.2529 H   0  0  0  0  0  0  0  0  0  0  0  0
    0.7705   48.0831   60.6036 H   0  0  0  0  0  0  0  0  0  0  0  0
    2.0366   44.3764   55.1700 H   0  0  0  0  0  0  0  0  0  0  0  0
    5.4050   42.7380   51.8820 H   0  0  0  0  0  0  0  0  0  0  0  0
    4.9281   44.9704   49.9357 H   0  0  0  0  0  0  0  0  0  0  0  0
    6.2984   43.8497   48.5502 H   0  0  0  0  0  0  0  0  0  0  0  0
    7.5829   43.7260   49.8144 H   0  0  0  0  0  0  0  0  0  0  0  0
    6.9050   41.7060   49.2530 H   0  0  0  0  0  0  0  0  0  0  0  0
    4.8899   46.5084   52.1814 H   0  0  0  0  0  0  0  0  0  0  0  0
    6.3454   48.1739   53.3292 H   0  0  0  0  0  0  0  0  0  0  0  0
    8.4027   44.6332   50.4666 H   0  0  0  0  0  0  0  0  0  0  0  0
  1  2  2  0
  2  3  1  0
  3  4  1  0
  4  5  2  0
  5  6  1  0
  6  7  2  0
  7  8  1  0
  8  9  1  0
  9 10  2  0
  9 11  1  0
 11 12  1  0
 12 13  2  0
 13 14  1  0
 14 15  2  0
 15 16  1  0
 15 17  1  0
 17 18  2  0
  8 19  2  0
  2 20  1  0
 20 21  1  0
 21 22  1  0
 22 23  1  0
 21 24  1  0
 24 25  2  0
 25 26  1  0
 26 27  2  0
 27 28  1  0
 27 29  1  0
 29 30  1  0
 29 31  2  0
 19  4  1  0
 31 24  1  0
 18 12  1  0
  3 32  1  0
  5 33  1  0
  6 34  1  0
  7 35  1  0
 11 36  1  0
 13 37  1  0
 14 38  1  0
 17 39  1  0
 19 40  1  0
 20 41  1  0
 21 42  1  6
 22 43  1  0
 22 44  1  0
 23 45  1  0
 25 46  1  0
 26 47  1  0
 31 48  1  0
M  END
>  <meeko>  (1) 
{"is_sidechain": [false], "free_energy": -9.141, "intermolecular_energy": -12.615, "internal_energy": -0.519}

$$$$
ligand_81_conformer_3_docked
     RDKit          3D

 48 50  0  0  0  0  0  0  0  0999 V2000
    2.8110   45.9060   52.7230 O   0  0  0  0  0  0  0  0  0  0  0  0
    3.4230   44.8470   53.0330 C   0  0  0  0  0  0  0  0  0  0  0  0
    2.8030   43.8750   53.8880 N   0  0  0  0  0  0  0  0  0  0  0  0
    1.4120   43.8930   54.2540 C   0  0  0  0  0  0  0  0  0  0  0  0
    0.4820   43.2190   53.4500 C   0  0  0  0  0  0  0  0  0  0  0  0
   -0.8760   43.2440   53.7670 C   0  0  0  0  0  0  0  0  0  0  0  0
   -1.3230   43.9500   54.8870 C   0  0  0  0  0  0  0  0  0  0  0  0
   -0.4110   44.6430   55.7030 C   0  0  0  0  0  0  0  0  0  0  0  0
   -0.8960   45.4070   56.8780 C   0  0  0  0  0  0  0  0  0  0  0  0
   -1.7930   44.9070   57.6110 O   0  0  0  0  0  0  0  0  0  0  0  0
   -0.3290   46.6870   57.2100 N   0  0  0  0  0  0  0  0  0  0  0  0
   -0.9420   47.6240   58.1110 C   0  0  0  0  0  0  0  0  0  0  0  0
   -0.3090   47.9510   59.3190 C   0  0  0  0  0  0  0  0  0  0  0  0
   -0.9030   48.8730   60.1820 C   0  0  0  0  0  0  0  0  0  0  0  0
   -2.1190   49.4660   59.8330 C   0  0  0  0  0  0  0  0  0  0  0  0
   -2.8790   50.6280   60.9060 Cl  0  0  0  0  0  0  0  0  0  0  0  0
   -2.7200   49.1250   58.6200 C   0  0  0  0  0  0  0  0  0  0  0  0
   -2.1250   48.2240   57.7940 N   0  0  0  0  0  0  0  0  0  0  0  0
    0.9560   44.6240   55.3670 C   0  0  0  0  0  0  0  0  0  0  0  0
    4.7610   44.6300   52.5650 N   0  0  0  0  0  0  0  0  0  0  0  0
    5.4590   45.6040   51.7170 C   0  0  2  0  0  0  0  0  0  0  0  0
    5.7940   45.0000   50.3440 C   0  0  0  0  0  0  0  0  0  0  0  0
    5.7830   43.5990   50.3990 O   0  0  0  0  0  0  0  0  0  0  0  0
    6.7120   46.1180   52.3980 C   0  0  0  0  0  0  0  0  0  0  0  0
    6.6560   46.6940   53.6820 C   0  0  0  0  0  0  0  0  0  0  0  0
    7.8230   47.1430   54.3060 C   0  0  0  0  0  0  0  0  0  0  0  0
    9.0570   47.0140   53.6650 C   0  0  0  0  0  0  0  0  0  0  0  0
   10.1830   47.4520   54.2820 F   0  0  0  0  0  0  0  0  0  0  0  0
    9.1270   46.4300   52.3950 C   0  0  0  0  0  0  0  0  0  0  0  0
   10.6750   46.2540   51.5840 Cl  0  0  0  0  0  0  0  0  0  0  0  0
    7.9600   45.9790   51.7670 C   0  0  0  0  0  0  0  0  0  0  0  0
    3.4210   43.1660   54.3420 H   0  0  0  0  0  0  0  0  0  0  0  0
    0.8257   42.6666   52.5630 H   0  0  0  0  0  0  0  0  0  0  0  0
   -1.5971   42.7065   53.1336 H   0  0  0  0  0  0  0  0  0  0  0  0
   -2.3953   43.9638   55.1320 H   0  0  0  0  0  0  0  0  0  0  0  0
    0.6000   46.9380   56.8020 H   0  0  0  0  0  0  0  0  0  0  0  0
    0.6505   47.4833   59.5848 H   0  0  0  0  0  0  0  0  0  0  0  0
   -0.4156   49.1319   61.1335 H   0  0  0  0  0  0  0  0  0  0  0  0
   -3.6764   49.5860   58.3322 H   0  0  0  0  0  0  0  0  0  0  0  0
    1.6752   45.1863   55.9807 H   0  0  0  0  0  0  0  0  0  0  0  0
    5.2340   43.7340   52.8240 H   0  0  0  0  0  0  0  0  0  0  0  0
    4.7826   46.4568   51.5582 H   0  0  0  0  0  0  0  0  0  0  0  0
    5.0477   45.3377   49.6099 H   0  0  0  0  0  0  0  0  0  0  0  0
    6.8001   45.3328   50.0490 H   0  0  0  0  0  0  0  0  0  0  0  0
    5.3990   43.3620   51.2830 H   0  0  0  0  0  0  0  0  0  0  0  0
    5.6885   46.7910   54.1964 H   0  0  0  0  0  0  0  0  0  0  0  0
    7.7694   47.5995   55.3054 H   0  0  0  0  0  0  0  0  0  0  0  0
    8.0203   45.5125   50.7726 H   0  0  0  0  0  0  0  0  0  0  0  0
  1  2  2  0
  2  3  1  0
  3  4  1  0
  4  5  2  0
  5  6  1  0
  6  7  2  0
  7  8  1  0
  8  9  1  0
  9 10  2  0
  9 11  1  0
 11 12  1  0
 12 13  2  0
 13 14  1  0
 14 15  2  0
 15 16  1  0
 15 17  1  0
 17 18  2  0
  8 19  2  0
  2 20  1  0
 20 21  1  0
 21 22  1  0
 22 23  1  0
 21 24  1  0
 24 25  2  0
 25 26  1  0
 26 27  2  0
 27 28  1  0
 27 29  1  0
 29 30  1  0
 29 31  2  0
 19  4  1  0
 31 24  1  0
 18 12  1  0
  3 32  1  0
  5 33  1  0
  6 34  1  0
  7 35  1  0
 11 36  1  0
 13 37  1  0
 14 38  1  0
 17 39  1  0
 19 40  1  0
 20 41  1  0
 21 42  1  6
 22 43  1  0
 22 44  1  0
 23 45  1  0
 25 46  1  0
 26 47  1  0
 31 48  1  0
M  END
>  <meeko>  (2) 
{"is_sidechain": [false], "free_energy": -9.019, "intermolecular_energy": -12.12, "internal_energy": -0.846}

$$$$
ligand_81_conformer_3_docked
     RDKit          3D

 48 50  0  0  0  0  0  0  0  0999 V2000
    1.6890   44.1520   51.6960 O   0  0  0  0  0  0  0  0  0  0  0  0
    2.2830   43.5170   52.6100 C   0  0  0  0  0  0  0  0  0  0  0  0
    1.6970   43.4060   53.9150 N   0  0  0  0  0  0  0  0  0  0  0  0
    0.3410   43.7710   54.2240 C   0  0  0  0  0  0  0  0  0  0  0  0
   -0.6880   43.3950   53.3510 C   0  0  0  0  0  0  0  0  0  0  0  0
   -2.0090   43.7610   53.6130 C   0  0  0  0  0  0  0  0  0  0  0  0
   -2.3150   44.5170   54.7480 C   0  0  0  0  0  0  0  0  0  0  0  0
   -1.2990   44.9160   55.6330 C   0  0  0  0  0  0  0  0  0  0  0  0
   -1.6310   45.7360   56.8240 C   0  0  0  0  0  0  0  0  0  0  0  0
   -2.5700   45.3690   57.5830 O   0  0  0  0  0  0  0  0  0  0  0  0
   -0.8710   46.9160   57.1420 N   0  0  0  0  0  0  0  0  0  0  0  0
   -1.3110   47.9280   58.0630 C   0  0  0  0  0  0  0  0  0  0  0  0
   -0.6200   48.1280   59.2660 C   0  0  0  0  0  0  0  0  0  0  0  0
   -1.0450   49.1230   60.1490 C   0  0  0  0  0  0  0  0  0  0  0  0
   -2.1510   49.9110   59.8250 C   0  0  0  0  0  0  0  0  0  0  0  0
   -2.6980   51.1670   60.9220 Cl  0  0  0  0  0  0  0  0  0  0  0  0
   -2.8150   49.6910   58.6150 C   0  0  0  0  0  0  0  0  0  0  0  0
   -2.3840   48.7170   57.7700 N   0  0  0  0  0  0  0  0  0  0  0  0
    0.0320   44.5540   55.3530 C   0  0  0  0  0  0  0  0  0  0  0  0
    3.5720   42.9390   52.3590 N   0  0  0  0  0  0  0  0  0  0  0  0
    4.2360   43.0500   51.0550 C   0  0  2  0  0  0  0  0  0  0  0  0
    4.7520   41.6820   50.5790 C   0  0  0  0  0  0  0  0  0  0  0  0
    3.6990   40.7620   50.4750 O   0  0  0  0  0  0  0  0  0  0  0  0
    5.3650   44.0620   51.1040 C   0  0  0  0  0  0  0  0  0  0  0  0
    6.3800   44.0650   50.1290 C   0  0  0  0  0  0  0  0  0  0  0  0
    7.4010   45.0190   50.1750 C   0  0  0  0  0  0  0  0  0  0  0  0
    7.4160   45.9840   51.1850 C   0  0  0  0  0  0  0  0  0  0  0  0
    8.4110   46.9050   51.2190 F   0  0  0  0  0  0  0  0  0  0  0  0
    6.4030   46.0000   52.1520 C   0  0  0  0  0  0  0  0  0  0  0  0
    6.4070   47.2140   53.4200 Cl  0  0  0  0  0  0  0  0  0  0  0  0
    5.3800   45.0460   52.1080 C   0  0  0  0  0  0  0  0  0  0  0  0
    2.3230   43.1270   54.7040 H   0  0  0  0  0  0  0  0  0  0  0  0
   -0.4529   42.8066   52.4518 H   0  0  0  0  0  0  0  0  0  0  0  0
   -2.8106   43.4540   52.9251 H   0  0  0  0  0  0  0  0  0  0  0  0
   -3.3582   44.8016   54.9499 H   0  0  0  0  0  0  0  0  0  0  0  0
    0.0730   47.0300   56.7070 H   0  0  0  0  0  0  0  0  0  0  0  0
    0.2521   47.5048   59.5132 H   0  0  0  0  0  0  0  0  0  0  0  0
   -0.5102   49.2853   61.0965 H   0  0  0  0  0  0  0  0  0  0  0  0
   -3.6865   50.3060   58.3463 H   0  0  0  0  0  0  0  0  0  0  0  0
    0.8390   44.8860   56.0228 H   0  0  0  0  0  0  0  0  0  0  0  0
    4.0300   42.4030   53.1310 H   0  0  0  0  0  0  0  0  0  0  0  0
    3.4902   43.4045   50.3283 H   0  0  0  0  0  0  0  0  0  0  0  0
    5.2277   41.7987   49.5941 H   0  0  0  0  0  0  0  0  0  0  0  0
    5.4793   41.3044   51.3128 H   0  0  0  0  0  0  0  0  0  0  0  0
    3.1890   41.0180   49.6630 H   0  0  0  0  0  0  0  0  0  0  0  0
    6.3699   43.3127   49.3265 H   0  0  0  0  0  0  0  0  0  0  0  0
    8.1949   45.0097   49.4136 H   0  0  0  0  0  0  0  0  0  0  0  0
    4.5818   45.0662   52.8646 H   0  0  0  0  0  0  0  0  0  0  0  0
  1  2  2  0
  2  3  1  0
  3  4  1  0
  4  5  2  0
  5  6  1  0
  6  7  2  0
  7  8  1  0
  8  9  1  0
  9 10  2  0
  9 11  1  0
 11 12  1  0
 12 13  2  0
 13 14  1  0
 14 15  2  0
 15 16  1  0
 15 17  1  0
 17 18  2  0
  8 19  2  0
  2 20  1  0
 20 21  1  0
 21 22  1  0
 22 23  1  0
 21 24  1  0
 24 25  2  0
 25 26  1  0
 26 27  2  0
 27 28  1  0
 27 29  1  0
 29 30  1  0
 29 31  2  0
 19  4  1  0
 31 24  1  0
 18 12  1  0
  3 32  1  0
  5 33  1  0
  6 34  1  0
  7 35  1  0
 11 36  1  0
 13 37  1  0
 14 38  1  0
 17 39  1  0
 19 40  1  0
 20 41  1  0
 21 42  1  6
 22 43  1  0
 22 44  1  0
 23 45  1  0
 25 46  1  0
 26 47  1  0
 31 48  1  0
M  END
>  <meeko>  (3) 
{"is_sidechain": [false], "free_energy": -8.543, "intermolecular_energy": -11.872, "internal_energy": -0.435}

$$$$
ligand_81_conformer_3_docked
     RDKit          3D

 48 50  0  0  0  0  0  0  0  0999 V2000
    3.2410   46.0610   55.0950 O   0  0  0  0  0  0  0  0  0  0  0  0
    3.6310   45.2720   54.1920 C   0  0  0  0  0  0  0  0  0  0  0  0
    2.8150   44.1590   53.7980 N   0  0  0  0  0  0  0  0  0  0  0  0
    1.4440   43.9840   54.1950 C   0  0  0  0  0  0  0  0  0  0  0  0
    0.6090   43.1540   53.4340 C   0  0  0  0  0  0  0  0  0  0  0  0
   -0.7320   42.9890   53.7810 C   0  0  0  0  0  0  0  0  0  0  0  0
   -1.2580   43.6600   54.8880 C   0  0  0  0  0  0  0  0  0  0  0  0
   -0.4440   44.5070   55.6610 C   0  0  0  0  0  0  0  0  0  0  0  0
   -1.0150   45.2310   56.8220 C   0  0  0  0  0  0  0  0  0  0  0  0
   -1.8590   44.6480   57.5580 O   0  0  0  0  0  0  0  0  0  0  0  0
   -0.5910   46.5690   57.1380 N   0  0  0  0  0  0  0  0  0  0  0  0
   -1.3060   47.4480   58.0220 C   0  0  0  0  0  0  0  0  0  0  0  0
   -2.3390   48.2540   57.5240 C   0  0  0  0  0  0  0  0  0  0  0  0
   -3.0390   49.0950   58.3920 C   0  0  0  0  0  0  0  0  0  0  0  0
   -2.7080   49.1220   59.7480 C   0  0  0  0  0  0  0  0  0  0  0  0
   -3.5770   50.1710   60.8530 Cl  0  0  0  0  0  0  0  0  0  0  0  0
   -1.6780   48.3010   60.2150 C   0  0  0  0  0  0  0  0  0  0  0  0
   -1.0090   47.4910   59.3530 N   0  0  0  0  0  0  0  0  0  0  0  0
    0.9040   44.6780   55.2940 C   0  0  0  0  0  0  0  0  0  0  0  0
    4.9160   45.4600   53.5820 N   0  0  0  0  0  0  0  0  0  0  0  0
    5.8080   46.5600   53.9680 C   0  0  2  0  0  0  0  0  0  0  0  0
    5.1390   47.9230   53.7320 C   0  0  0  0  0  0  0  0  0  0  0  0
    4.6160   48.4340   54.9290 O   0  0  0  0  0  0  0  0  0  0  0  0
    7.1280   46.4740   53.2250 C   0  0  0  0  0  0  0  0  0  0  0  0
    8.3120   46.9900   53.7870 C   0  0  0  0  0  0  0  0  0  0  0  0
    9.5240   46.8830   53.1010 C   0  0  0  0  0  0  0  0  0  0  0  0
    9.5730   46.2530   51.8550 C   0  0  0  0  0  0  0  0  0  0  0  0
   10.7570   46.1540   51.1990 F   0  0  0  0  0  0  0  0  0  0  0  0
    8.4060   45.7230   51.2930 C   0  0  0  0  0  0  0  0  0  0  0  0
    8.4580   44.9210   49.7320 Cl  0  0  0  0  0  0  0  0  0  0  0  0
    7.1900   45.8290   51.9780 C   0  0  0  0  0  0  0  0  0  0  0  0
    3.2750   43.3860   53.2660 H   0  0  0  0  0  0  0  0  0  0  0  0
    1.0143   42.6288   52.5566 H   0  0  0  0  0  0  0  0  0  0  0  0
   -1.3768   42.3292   53.1818 H   0  0  0  0  0  0  0  0  0  0  0  0
   -2.3161   43.5248   55.1567 H   0  0  0  0  0  0  0  0  0  0  0  0
    0.3090   46.9130   56.7310 H   0  0  0  0  0  0  0  0  0  0  0  0
   -2.5970   48.2243   56.4551 H   0  0  0  0  0  0  0  0  0  0  0  0
   -3.8482   49.7338   58.0086 H   0  0  0  0  0  0  0  0  0  0  0  0
   -1.4085   48.3104   61.2814 H   0  0  0  0  0  0  0  0  0  0  0  0
    1.5426   45.3617   55.8726 H   0  0  0  0  0  0  0  0  0  0  0  0
    5.2020   44.8000   52.8230 H   0  0  0  0  0  0  0  0  0  0  0  0
    6.0135   46.4638   55.0443 H   0  0  0  0  0  0  0  0  0  0  0  0
    5.8849   48.6270   53.3345 H   0  0  0  0  0  0  0  0  0  0  0  0
    4.3157   47.7926   53.0143 H   0  0  0  0  0  0  0  0  0  0  0  0
    4.0060   49.1730   54.6680 H   0  0  0  0  0  0  0  0  0  0  0  0
    8.2820   47.4799   54.7714 H   0  0  0  0  0  0  0  0  0  0  0  0
   10.4427   47.2960   53.5431 H   0  0  0  0  0  0  0  0  0  0  0  0
    6.2761   45.4043   51.5370 H   0  0  0  0  0  0  0  0  0  0  0  0
  1  2  2  0
  2  3  1  0
  3  4  1  0
  4  5  2  0
  5  6  1  0
  6  7  2  0
  7  8  1  0
  8  9  1  0
  9 10  2  0
  9 11  1  0
 11 12  1  0
 12 13  2  0
 13 14  1  0
 14 15  2  0
 15 16  1  0
 15 17  1  0
 17 18  2  0
  8 19  2  0
  2 20  1  0
 20 21  1  0
 21 22  1  0
 22 23  1  0
 21 24  1  0
 24 25  2  0
 25 26  1  0
 26 27  2  0
 27 28  1  0
 27 29  1  0
 29 30  1  0
 29 31  2  0
 19  4  1  0
 31 24  1  0
 18 12  1  0
  3 32  1  0
  5 33  1  0
  6 34  1  0
  7 35  1  0
 11 36  1  0
 13 37  1  0
 14 38  1  0
 17 39  1  0
 19 40  1  0
 20 41  1  0
 21 42  1  1
 22 43  1  0
 22 44  1  0
 23 45  1  0
 25 46  1  0
 26 47  1  0
 31 48  1  0
M  END
>  <meeko>  (4) 
{"is_sidechain": [false], "free_energy": -8.295, "intermolecular_energy": -11.926, "internal_energy": -0.041}

$$$$
ligand_81_conformer_3_docked
     RDKit          3D

 48 50  0  0  0  0  0  0  0  0999 V2000
    3.1550   44.3010   51.4760 O   0  0  0  0  0  0  0  0  0  0  0  0
    3.2360   43.3840   52.3390 C   0  0  0  0  0  0  0  0  0  0  0  0
    3.6610   42.0660   51.9610 N   0  0  0  0  0  0  0  0  0  0  0  0
    4.2410   41.7420   50.6850 C   0  0  0  0  0  0  0  0  0  0  0  0
    5.5500   42.1540   50.4010 C   0  0  0  0  0  0  0  0  0  0  0  0
    6.1260   41.8760   49.1610 C   0  0  0  0  0  0  0  0  0  0  0  0
    5.3970   41.1900   48.1860 C   0  0  0  0  0  0  0  0  0  0  0  0
    4.0780   40.7750   48.4440 C   0  0  0  0  0  0  0  0  0  0  0  0
    3.3040   40.0660   47.3960 C   0  0  0  0  0  0  0  0  0  0  0  0
    2.4340   40.6990   46.7360 O   0  0  0  0  0  0  0  0  0  0  0  0
    3.5610   38.6810   47.1000 N   0  0  0  0  0  0  0  0  0  0  0  0
    2.6650   37.8420   46.3530 C   0  0  0  0  0  0  0  0  0  0  0  0
    1.7110   37.0650   47.0230 C   0  0  0  0  0  0  0  0  0  0  0  0
    0.8340   36.2640   46.2890 C   0  0  0  0  0  0  0  0  0  0  0  0
    0.9120   36.2470   44.8950 C   0  0  0  0  0  0  0  0  0  0  0  0
   -0.1820   35.2460   43.9560 Cl  0  0  0  0  0  0  0  0  0  0  0  0
    1.8700   37.0380   44.2560 C   0  0  0  0  0  0  0  0  0  0  0  0
    2.7140   37.8100   44.9900 N   0  0  0  0  0  0  0  0  0  0  0  0
    3.5010   41.0730   49.6920 C   0  0  0  0  0  0  0  0  0  0  0  0
    2.8600   43.6450   53.6990 N   0  0  0  0  0  0  0  0  0  0  0  0
    2.3850   44.9620   54.1380 C   0  0  2  0  0  0  0  0  0  0  0  0
    3.4230   45.6530   55.0370 C   0  0  0  0  0  0  0  0  0  0  0  0
    4.3100   44.7150   55.5840 O   0  0  0  0  0  0  0  0  0  0  0  0
    1.0500   44.8500   54.8470 C   0  0  0  0  0  0  0  0  0  0  0  0
    0.9180   45.1980   56.2060 C   0  0  0  0  0  0  0  0  0  0  0  0
   -0.3240   45.1100   56.8390 C   0  0  0  0  0  0  0  0  0  0  0  0
   -1.4490   44.6860   56.1270 C   0  0  0  0  0  0  0  0  0  0  0  0
   -2.6500   44.6060   56.7530 F   0  0  0  0  0  0  0  0  0  0  0  0
   -1.3330   44.3520   54.7720 C   0  0  0  0  0  0  0  0  0  0  0  0
   -2.7410   43.8270   53.8650 Cl  0  0  0  0  0  0  0  0  0  0  0  0
   -0.0900   44.4380   54.1350 C   0  0  0  0  0  0  0  0  0  0  0  0
    3.4530   41.2830   52.6190 H   0  0  0  0  0  0  0  0  0  0  0  0
    6.1275   42.7005   51.1612 H   0  0  0  0  0  0  0  0  0  0  0  0
    7.1566   42.1977   48.9504 H   0  0  0  0  0  0  0  0  0  0  0  0
    5.8574   40.9732   47.2108 H   0  0  0  0  0  0  0  0  0  0  0  0
    4.4690   38.2670   47.4150 H   0  0  0  0  0  0  0  0  0  0  0  0
    1.6532   37.0859   48.1213 H   0  0  0  0  0  0  0  0  0  0  0  0
    0.0841   35.6483   46.8072 H   0  0  0  0  0  0  0  0  0  0  0  0
    1.9412   37.0360   43.1583 H   0  0  0  0  0  0  0  0  0  0  0  0
    2.4602   40.7800   49.8940 H   0  0  0  0  0  0  0  0  0  0  0  0
    2.9570   42.8690   54.3940 H   0  0  0  0  0  0  0  0  0  0  0  0
    2.2443   45.5833   53.2413 H   0  0  0  0  0  0  0  0  0  0  0  0
    3.9911   46.3806   54.4387 H   0  0  0  0  0  0  0  0  0  0  0  0
    2.8962   46.1612   55.8581 H   0  0  0  0  0  0  0  0  0  0  0  0
    4.9400   44.4740   54.8560 H   0  0  0  0  0  0  0  0  0  0  0  0
    1.7973   45.5406   56.7712 H   0  0  0  0  0  0  0  0  0  0  0  0
   -0.4168   45.3756   57.9024 H   0  0  0  0  0  0  0  0  0  0  0  0
   -0.0043   44.1812   53.0688 H   0  0  0  0  0  0  0  0  0  0  0  0
  1  2  2  0
  2  3  1  0
  3  4  1  0
  4  5  2  0
  5  6  1  0
  6  7  2  0
  7  8  1  0
  8  9  1  0
  9 10  2  0
  9 11  1  0
 11 12  1  0
 12 13  2  0
 13 14  1  0
 14 15  2  0
 15 16  1  0
 15 17  1  0
 17 18  2  0
  8 19  2  0
  2 20  1  0
 20 21  1  0
 21 22  1  0
 22 23  1  0
 21 24  1  0
 24 25  2  0
 25 26  1  0
 26 27  2  0
 27 28  1  0
 27 29  1  0
 29 30  1  0
 29 31  2  0
 19  4  1  0
 31 24  1  0
 18 12  1  0
  3 32  1  0
  5 33  1  0
  6 34  1  0
  7 35  1  0
 11 36  1  0
 13 37  1  0
 14 38  1  0
 17 39  1  0
 19 40  1  0
 20 41  1  0
 21 42  1  6
 22 43  1  0
 22 44  1  0
 23 45  1  0
 25 46  1  0
 26 47  1  0
 31 48  1  0
M  END
>  <meeko>  (5) 
{"is_sidechain": [false], "free_energy": -8.265, "intermolecular_energy": -11.119, "internal_energy": -0.806}

$$$$
