ligand_6_conformer_3_docked
     RDKit          3D

 44 47  0  0  0  0  0  0  0  0999 V2000
    0.2250   42.5820   53.6080 O   0  0  0  0  0  0  0  0  0  0  0  0
    1.2110   43.2160   53.1490 C   0  0  0  0  0  0  0  0  0  0  0  0
    1.7970   42.9770   51.8150 C   0  0  0  0  0  0  0  0  0  0  0  0
    3.0640   43.8620   51.8130 C   0  0  2  0  0  0  0  0  0  0  0  0
    4.2720   43.0250   51.7990 N   0  0  0  0  0  0  0  0  0  0  0  0
    5.3870   43.2860   50.9390 C   0  0  0  0  0  0  0  0  0  0  0  0
    5.7780   42.3720   50.0090 N   0  0  0  0  0  0  0  0  0  0  0  0
    6.8250   42.6190   49.1820 C   0  0  0  0  0  0  0  0  0  0  0  0
    7.5190   43.8260   49.2780 C   0  0  0  0  0  0  0  0  0  0  0  0
    7.1160   44.7520   50.2400 C   0  0  0  0  0  0  0  0  0  0  0  0
    7.7880   45.9780   50.3340 O   0  0  0  0  0  0  0  0  0  0  0  0
    8.4200   46.4690   51.4860 C   0  0  0  0  0  0  0  0  0  0  0  0
    7.7220   47.3730   52.2980 C   0  0  0  0  0  0  0  0  0  0  0  0
    8.3170   47.8940   53.4520 C   0  0  0  0  0  0  0  0  0  0  0  0
    9.6200   47.5250   53.7950 C   0  0  0  0  0  0  0  0  0  0  0  0
   10.3320   46.6400   52.9810 C   0  0  0  0  0  0  0  0  0  0  0  0
    9.7400   46.1160   51.8270 C   0  0  0  0  0  0  0  0  0  0  0  0
    6.0530   44.4660   51.0420 N   0  0  0  0  0  0  0  0  0  0  0  0
    2.9750   44.7660   53.0840 C   0  0  2  0  0  0  0  0  0  0  0  0
    4.2320   44.8150   53.9750 C   0  0  0  0  0  0  0  0  0  0  0  0
    3.9890   45.5910   55.2930 C   0  0  0  0  0  0  0  0  0  0  0  0
    2.5020   45.7780   55.6680 C   0  0  0  0  0  0  0  0  0  0  0  0
    1.6390   44.5750   55.2670 C   0  0  0  0  0  0  0  0  0  0  0  0
    1.8700   44.2400   53.8640 N   0  0  0  0  0  0  0  0  0  0  0  0
    2.0581   41.9164   51.6847 H   0  0  0  0  0  0  0  0  0  0  0  0
    1.1054   43.2175   50.9941 H   0  0  0  0  0  0  0  0  0  0  0  0
    3.1253   44.4916   50.9131 H   0  0  0  0  0  0  0  0  0  0  0  0
    4.3810   42.2840   52.5300 H   0  0  0  0  0  0  0  0  0  0  0  0
    7.1265   41.8685   48.4365 H   0  0  0  0  0  0  0  0  0  0  0  0
    8.3654   44.0423   48.6095 H   0  0  0  0  0  0  0  0  0  0  0  0
    6.6997   47.6749   52.0263 H   0  0  0  0  0  0  0  0  0  0  0  0
    7.7584   48.5948   54.0898 H   0  0  0  0  0  0  0  0  0  0  0  0
   10.0853   47.9309   54.7054 H   0  0  0  0  0  0  0  0  0  0  0  0
   11.3602   46.3548   53.2483 H   0  0  0  0  0  0  0  0  0  0  0  0
   10.3069   45.4265   51.1843 H   0  0  0  0  0  0  0  0  0  0  0  0
    2.8484   45.8030   52.7397 H   0  0  0  0  0  0  0  0  0  0  0  0
    4.5316   43.7855   54.2208 H   0  0  0  0  0  0  0  0  0  0  0  0
    5.0202   45.3404   53.4159 H   0  0  0  0  0  0  0  0  0  0  0  0
    4.4817   45.0424   56.1093 H   0  0  0  0  0  0  0  0  0  0  0  0
    4.3996   46.5999   55.1394 H   0  0  0  0  0  0  0  0  0  0  0  0
    2.4277   45.9182   56.7565 H   0  0  0  0  0  0  0  0  0  0  0  0
    2.1272   46.6554   55.1205 H   0  0  0  0  0  0  0  0  0  0  0  0
    1.9026   43.7118   55.8958 H   0  0  0  0  0  0  0  0  0  0  0  0
    0.5780   44.8288   55.4077 H   0  0  0  0  0  0  0  0  0  0  0  0
  1  2  2  0
  2  3  1  0
  3  4  1  0
  4  5  1  0
  5  6  1  0
  6  7  2  0
  7  8  1  0
  8  9  2  0
  9 10  1  0
 10 11  1  0
 11 12  1  0
 12 13  2  0
 13 14  1  0
 14 15  2  0
 15 16  1  0
 16 17  2  0
 10 18  2  0
  4 19  1  0
 19 20  1  0
 20 21  1  0
 21 22  1  0
 22 23  1  0
 23 24  1  0
 24  2  1  0
 18  6  1  0
 24 19  1  0
 17 12  1  0
  3 25  1  0
  3 26  1  0
  4 27  1  6
  5 28  1  0
  8 29  1  0
  9 30  1  0
 13 31  1  0
 14 32  1  0
 15 33  1  0
 16 34  1  0
 17 35  1  0
 19 36  1  6
 20 37  1  0
 20 38  1  0
 21 39  1  0
 21 40  1  0
 22 41  1  0
 22 42  1  0
 23 43  1  0
 23 44  1  0
M  END
>  <meeko>  (1) 
{"is_sidechain": [false], "free_energy": -9.183, "intermolecular_energy": -11.33, "internal_energy": -0.706}

$$$$
ligand_6_conformer_3_docked
     RDKit          3D

 44 47  0  0  0  0  0  0  0  0999 V2000
   -1.3720   42.6030   53.1420 O   0  0  0  0  0  0  0  0  0  0  0  0
   -0.4200   43.4170   53.2610 C   0  0  0  0  0  0  0  0  0  0  0  0
    0.6370   43.6070   52.2470 C   0  0  0  0  0  0  0  0  0  0  0  0
    1.6370   44.5590   52.9400 C   0  0  2  0  0  0  0  0  0  0  0  0
    2.9010   43.8610   53.2140 N   0  0  0  0  0  0  0  0  0  0  0  0
    3.9920   43.8380   52.2860 C   0  0  0  0  0  0  0  0  0  0  0  0
    4.2510   42.7270   51.5420 N   0  0  0  0  0  0  0  0  0  0  0  0
    5.2740   42.7050   50.6510 C   0  0  0  0  0  0  0  0  0  0  0  0
    6.0790   43.8320   50.4870 C   0  0  0  0  0  0  0  0  0  0  0  0
    5.8110   44.9620   51.2590 C   0  0  0  0  0  0  0  0  0  0  0  0
    6.5970   46.1100   51.0900 O   0  0  0  0  0  0  0  0  0  0  0  0
    7.7140   46.4490   51.8660 C   0  0  0  0  0  0  0  0  0  0  0  0
    7.5160   47.2050   53.0290 C   0  0  0  0  0  0  0  0  0  0  0  0
    8.6030   47.5730   53.8290 C   0  0  0  0  0  0  0  0  0  0  0  0
    9.8990   47.1970   53.4640 C   0  0  0  0  0  0  0  0  0  0  0  0
   10.1090   46.4610   52.2950 C   0  0  0  0  0  0  0  0  0  0  0  0
    9.0250   46.0910   51.4940 C   0  0  0  0  0  0  0  0  0  0  0  0
    4.7680   44.9440   52.1340 N   0  0  0  0  0  0  0  0  0  0  0  0
    0.9380   45.0650   54.2430 C   0  0  2  0  0  0  0  0  0  0  0  0
    1.7620   44.9670   55.5420 C   0  0  0  0  0  0  0  0  0  0  0  0
    0.9280   45.3260   56.7960 C   0  0  0  0  0  0  0  0  0  0  0  0
   -0.6020   45.2790   56.5890 C   0  0  0  0  0  0  0  0  0  0  0  0
   -1.0310   44.1670   55.6240 C   0  0  0  0  0  0  0  0  0  0  0  0
   -0.2570   44.2540   54.3870 N   0  0  0  0  0  0  0  0  0  0  0  0
    1.1163   42.6495   51.9949 H   0  0  0  0  0  0  0  0  0  0  0  0
    0.2521   44.0081   51.2978 H   0  0  0  0  0  0  0  0  0  0  0  0
    1.8989   45.4158   52.3018 H   0  0  0  0  0  0  0  0  0  0  0  0
    3.0650   43.4700   54.1700 H   0  0  0  0  0  0  0  0  0  0  0  0
    5.4683   41.7989   50.0584 H   0  0  0  0  0  0  0  0  0  0  0  0
    6.9079   43.8296   49.7639 H   0  0  0  0  0  0  0  0  0  0  0  0
    6.4989   47.5112   53.3149 H   0  0  0  0  0  0  0  0  0  0  0  0
    8.4379   48.1584   54.7455 H   0  0  0  0  0  0  0  0  0  0  0  0
   10.7530   47.4804   54.0967 H   0  0  0  0  0  0  0  0  0  0  0  0
   11.1298   46.1721   52.0044 H   0  0  0  0  0  0  0  0  0  0  0  0
    9.1959   45.5186   50.5704 H   0  0  0  0  0  0  0  0  0  0  0  0
    0.7574   46.1430   54.1197 H   0  0  0  0  0  0  0  0  0  0  0  0
    2.1343   43.9373   55.6478 H   0  0  0  0  0  0  0  0  0  0  0  0
    2.5894   45.6883   55.4706 H   0  0  0  0  0  0  0  0  0  0  0  0
    1.1876   44.6159   57.5949 H   0  0  0  0  0  0  0  0  0  0  0  0
    1.1757   46.3682   57.0459 H   0  0  0  0  0  0  0  0  0  0  0  0
   -1.0844   45.1066   57.5624 H   0  0  0  0  0  0  0  0  0  0  0  0
   -0.9091   46.2394   56.1494 H   0  0  0  0  0  0  0  0  0  0  0  0
   -0.8567   43.1883   56.0950 H   0  0  0  0  0  0  0  0  0  0  0  0
   -2.0997   44.2830   55.3908 H   0  0  0  0  0  0  0  0  0  0  0  0
  1  2  2  0
  2  3  1  0
  3  4  1  0
  4  5  1  0
  5  6  1  0
  6  7  2  0
  7  8  1  0
  8  9  2  0
  9 10  1  0
 10 11  1  0
 11 12  1  0
 12 13  2  0
 13 14  1  0
 14 15  2  0
 15 16  1  0
 16 17  2  0
 10 18  2  0
  4 19  1  0
 19 20  1  0
 20 21  1  0
 21 22  1  0
 22 23  1  0
 23 24  1  0
 24  2  1  0
 18  6  1  0
 24 19  1  0
 17 12  1  0
  3 25  1  0
  3 26  1  0
  4 27  1  6
  5 28  1  0
  8 29  1  0
  9 30  1  0
 13 31  1  0
 14 32  1  0
 15 33  1  0
 16 34  1  0
 17 35  1  0
 19 36  1  6
 20 37  1  0
 20 38  1  0
 21 39  1  0
 21 40  1  0
 22 41  1  0
 22 42  1  0
 23 43  1  0
 23 44  1  0
M  END
>  <meeko>  (2) 
{"is_sidechain": [false], "free_energy": -8.943, "intermolecular_energy": -11.112, "internal_energy": -0.628}

$$$$
ligand_6_conformer_3_docked
     RDKit          3D

 44 47  0  0  0  0  0  0  0  0999 V2000
   -0.5490   45.8990   57.6110 O   0  0  0  0  0  0  0  0  0  0  0  0
   -0.0770   45.3160   56.6000 C   0  0  0  0  0  0  0  0  0  0  0  0
    1.3670   45.1290   56.3550 C   0  0  0  0  0  0  0  0  0  0  0  0
    1.4170   44.5360   54.9280 C   0  0  2  0  0  0  0  0  0  0  0  0
    2.0240   45.4970   53.9970 N   0  0  0  0  0  0  0  0  0  0  0  0
    3.1760   45.1870   53.2030 C   0  0  0  0  0  0  0  0  0  0  0  0
    3.3420   43.9440   52.6720 N   0  0  0  0  0  0  0  0  0  0  0  0
    4.4240   43.6500   51.9070 C   0  0  0  0  0  0  0  0  0  0  0  0
    5.3870   44.6270   51.6570 C   0  0  0  0  0  0  0  0  0  0  0  0
    5.2120   45.8940   52.2130 C   0  0  0  0  0  0  0  0  0  0  0  0
    6.1590   46.8940   51.9520 O   0  0  0  0  0  0  0  0  0  0  0  0
    7.4810   46.8990   52.4200 C   0  0  0  0  0  0  0  0  0  0  0  0
    7.7130   47.2160   53.7640 C   0  0  0  0  0  0  0  0  0  0  0  0
    9.0170   47.2410   54.2710 C   0  0  0  0  0  0  0  0  0  0  0  0
   10.0990   46.9620   53.4320 C   0  0  0  0  0  0  0  0  0  0  0  0
    9.8800   46.6650   52.0850 C   0  0  0  0  0  0  0  0  0  0  0  0
    8.5780   46.6380   51.5750 C   0  0  0  0  0  0  0  0  0  0  0  0
    4.1060   46.1490   52.9650 N   0  0  0  0  0  0  0  0  0  0  0  0
   -0.0550   44.1780   54.5450 C   0  0  2  0  0  0  0  0  0  0  0  0
   -0.5450   44.6830   53.1730 C   0  0  0  0  0  0  0  0  0  0  0  0
   -2.0580   44.4320   52.9600 C   0  0  0  0  0  0  0  0  0  0  0  0
   -2.8550   44.1520   54.2540 C   0  0  0  0  0  0  0  0  0  0  0  0
   -2.3280   44.9500   55.4530 C   0  0  0  0  0  0  0  0  0  0  0  0
   -0.8840   44.7650   55.5810 N   0  0  0  0  0  0  0  0  0  0  0  0
    1.9012   46.0895   56.4006 H   0  0  0  0  0  0  0  0  0  0  0  0
    1.8487   44.4836   57.1043 H   0  0  0  0  0  0  0  0  0  0  0  0
    2.0436   43.6333   54.8787 H   0  0  0  0  0  0  0  0  0  0  0  0
    1.5280   46.3990   53.8080 H   0  0  0  0  0  0  0  0  0  0  0  0
    4.5412   42.6412   51.4843 H   0  0  0  0  0  0  0  0  0  0  0  0
    6.2659   44.4032   51.0346 H   0  0  0  0  0  0  0  0  0  0  0  0
    6.8649   47.4468   54.4254 H   0  0  0  0  0  0  0  0  0  0  0  0
    9.1904   47.4804   55.3305 H   0  0  0  0  0  0  0  0  0  0  0  0
   11.1234   46.9763   53.8325 H   0  0  0  0  0  0  0  0  0  0  0  0
   10.7331   46.4519   51.4240 H   0  0  0  0  0  0  0  0  0  0  0  0
    8.4099   46.4125   50.5116 H   0  0  0  0  0  0  0  0  0  0  0  0
   -0.1153   43.0825   54.4660 H   0  0  0  0  0  0  0  0  0  0  0  0
   -0.3528   45.7639   53.1048 H   0  0  0  0  0  0  0  0  0  0  0  0
    0.0007   44.1278   52.3958 H   0  0  0  0  0  0  0  0  0  0  0  0
   -2.4885   45.3224   52.4784 H   0  0  0  0  0  0  0  0  0  0  0  0
   -2.1384   43.5247   52.3433 H   0  0  0  0  0  0  0  0  0  0  0  0
   -3.9077   44.4227   54.0854 H   0  0  0  0  0  0  0  0  0  0  0  0
   -2.7448   43.0832   54.4896 H   0  0  0  0  0  0  0  0  0  0  0  0
   -2.5467   46.0178   55.3044 H   0  0  0  0  0  0  0  0  0  0  0  0
   -2.8204   44.5923   56.3693 H   0  0  0  0  0  0  0  0  0  0  0  0
  1  2  2  0
  2  3  1  0
  3  4  1  0
  4  5  1  0
  5  6  1  0
  6  7  2  0
  7  8  1  0
  8  9  2  0
  9 10  1  0
 10 11  1  0
 11 12  1  0
 12 13  2  0
 13 14  1  0
 14 15  2  0
 15 16  1  0
 16 17  2  0
 10 18  2  0
  4 19  1  0
 19 20  1  0
 20 21  1  0
 21 22  1  0
 22 23  1  0
 23 24  1  0
 24  2  1  0
 18  6  1  0
 24 19  1  0
 17 12  1  0
  3 25  1  0
  3 26  1  0
  4 27  1  1
  5 28  1  0
  8 29  1  0
  9 30  1  0
 13 31  1  0
 14 32  1  0
 15 33  1  0
 16 34  1  0
 17 35  1  0
 19 36  1  6
 20 37  1  0
 20 38  1  0
 21 39  1  0
 21 40  1  0
 22 41  1  0
 22 42  1  0
 23 43  1  0
 23 44  1  0
M  END
>  <meeko>  (3) 
{"is_sidechain": [false], "free_energy": -8.294, "intermolecular_energy": -10.288, "internal_energy": -0.651}

$$$$
ligand_6_conformer_3_docked
     RDKit          3D

 44 47  0  0  0  0  0  0  0  0999 V2000
   -0.5880   45.2420   55.3550 O   0  0  0  0  0  0  0  0  0  0  0  0
   -0.0380   44.4440   54.5510 C   0  0  0  0  0  0  0  0  0  0  0  0
    1.4010   44.1110   54.5730 C   0  0  0  0  0  0  0  0  0  0  0  0
    1.5930   43.2540   53.3010 C   0  0  2  0  0  0  0  0  0  0  0  0
    2.4190   43.9740   52.3210 N   0  0  0  0  0  0  0  0  0  0  0  0
    3.0870   45.2050   52.6240 C   0  0  0  0  0  0  0  0  0  0  0  0
    2.5080   46.4020   52.3290 N   0  0  0  0  0  0  0  0  0  0  0  0
    3.1290   47.5710   52.6260 C   0  0  0  0  0  0  0  0  0  0  0  0
    4.3800   47.5580   53.2430 C   0  0  0  0  0  0  0  0  0  0  0  0
    4.9680   46.3270   53.5330 C   0  0  0  0  0  0  0  0  0  0  0  0
    6.2140   46.2960   54.1740 O   0  0  0  0  0  0  0  0  0  0  0  0
    7.4550   46.4560   53.5390 C   0  0  0  0  0  0  0  0  0  0  0  0
    8.5100   47.0210   54.2670 C   0  0  0  0  0  0  0  0  0  0  0  0
    9.7620   47.2070   53.6710 C   0  0  0  0  0  0  0  0  0  0  0  0
    9.9640   46.8400   52.3380 C   0  0  0  0  0  0  0  0  0  0  0  0
    8.9120   46.2940   51.5970 C   0  0  0  0  0  0  0  0  0  0  0  0
    7.6600   46.1060   52.1900 C   0  0  0  0  0  0  0  0  0  0  0  0
    4.3040   45.1780   53.2270 N   0  0  0  0  0  0  0  0  0  0  0  0
    0.1620   42.9360   52.7600 C   0  0  2  0  0  0  0  0  0  0  0  0
   -0.0750   43.2040   51.2610 C   0  0  0  0  0  0  0  0  0  0  0  0
   -1.5600   43.0250   50.8590 C   0  0  0  0  0  0  0  0  0  0  0  0
   -2.5560   43.0550   52.0400 C   0  0  0  0  0  0  0  0  0  0  0  0
   -2.1280   44.0280   53.1460 C   0  0  0  0  0  0  0  0  0  0  0  0
   -0.7430   43.7670   53.5310 N   0  0  0  0  0  0  0  0  0  0  0  0
    2.0160   45.0220   54.5298 H   0  0  0  0  0  0  0  0  0  0  0  0
    1.7056   43.5882   55.4916 H   0  0  0  0  0  0  0  0  0  0  0  0
    2.1266   42.3158   53.5130 H   0  0  0  0  0  0  0  0  0  0  0  0
    2.6340   43.5130   51.4070 H   0  0  0  0  0  0  0  0  0  0  0  0
    2.6464   48.5285   52.3804 H   0  0  0  0  0  0  0  0  0  0  0  0
    4.8917   48.4984   53.4954 H   0  0  0  0  0  0  0  0  0  0  0  0
    8.3531   47.3203   55.3138 H   0  0  0  0  0  0  0  0  0  0  0  0
   10.5881   47.6425   54.2523 H   0  0  0  0  0  0  0  0  0  0  0  0
   10.9504   46.9807   51.8719 H   0  0  0  0  0  0  0  0  0  0  0  0
    9.0695   46.0118   50.5455 H   0  0  0  0  0  0  0  0  0  0  0  0
    6.8324   45.6834   51.6013 H   0  0  0  0  0  0  0  0  0  0  0  0
    0.0046   41.8527   52.8682 H   0  0  0  0  0  0  0  0  0  0  0  0
    0.2311   44.2358   51.0335 H   0  0  0  0  0  0  0  0  0  0  0  0
    0.5181   42.4738   50.6909 H   0  0  0  0  0  0  0  0  0  0  0  0
   -1.8272   43.8352   50.1646 H   0  0  0  0  0  0  0  0  0  0  0  0
   -1.6418   42.0248   50.4085 H   0  0  0  0  0  0  0  0  0  0  0  0
   -3.5421   43.3627   51.6619 H   0  0  0  0  0  0  0  0  0  0  0  0
   -2.5866   42.0458   52.4766 H   0  0  0  0  0  0  0  0  0  0  0  0
   -2.2153   45.0606   52.7770 H   0  0  0  0  0  0  0  0  0  0  0  0
   -2.7791   43.8891   54.0217 H   0  0  0  0  0  0  0  0  0  0  0  0
  1  2  2  0
  2  3  1  0
  3  4  1  0
  4  5  1  0
  5  6  1  0
  6  7  2  0
  7  8  1  0
  8  9  2  0
  9 10  1  0
 10 11  1  0
 11 12  1  0
 12 13  2  0
 13 14  1  0
 14 15  2  0
 15 16  1  0
 16 17  2  0
 10 18  2  0
  4 19  1  0
 19 20  1  0
 20 21  1  0
 21 22  1  0
 22 23  1  0
 23 24  1  0
 24  2  1  0
 18  6  1  0
 24 19  1  0
 17 12  1  0
  3 25  1  0
  3 26  1  0
  4 27  1  1
  5 28  1  0
  8 29  1  0
  9 30  1  0
 13 31  1  0
 14 32  1  0
 15 33  1  0
 16 34  1  0
 17 35  1  0
 19 36  1  6
 20 37  1  0
 20 38  1  0
 21 39  1  0
 21 40  1  0
 22 41  1  0
 22 42  1  0
 23 43  1  0
 23 44  1  0
M  END
>  <meeko>  (4) 
{"is_sidechain": [false], "free_energy": -7.938, "intermolecular_energy": -9.912, "internal_energy": -0.588}

$$$$
ligand_6_conformer_3_docked
     RDKit          3D

 44 47  0  0  0  0  0  0  0  0999 V2000
    6.2820   43.9030   49.8780 O   0  0  0  0  0  0  0  0  0  0  0  0
    6.1250   44.4410   51.0060 C   0  0  0  0  0  0  0  0  0  0  0  0
    5.0130   44.1230   51.9240 C   0  0  0  0  0  0  0  0  0  0  0  0
    5.1730   45.1610   53.0590 C   0  0  2  0  0  0  0  0  0  0  0  0
    4.0550   46.1140   53.0420 N   0  0  0  0  0  0  0  0  0  0  0  0
    2.7200   45.7510   53.4110 C   0  0  0  0  0  0  0  0  0  0  0  0
    1.7660   45.5430   52.4620 N   0  0  0  0  0  0  0  0  0  0  0  0
    0.5030   45.1850   52.8050 C   0  0  0  0  0  0  0  0  0  0  0  0
    0.1660   45.0250   54.1490 C   0  0  0  0  0  0  0  0  0  0  0  0
    1.1480   45.2480   55.1150 C   0  0  0  0  0  0  0  0  0  0  0  0
    0.8310   45.0690   56.4680 O   0  0  0  0  0  0  0  0  0  0  0  0
    0.3140   46.0590   57.3160 C   0  0  0  0  0  0  0  0  0  0  0  0
    1.1380   46.5700   58.3270 C   0  0  0  0  0  0  0  0  0  0  0  0
    0.6610   47.5510   59.2020 C   0  0  0  0  0  0  0  0  0  0  0  0
   -0.6500   48.0200   59.0790 C   0  0  0  0  0  0  0  0  0  0  0  0
   -1.4870   47.5020   58.0880 C   0  0  0  0  0  0  0  0  0  0  0  0
   -1.0130   46.5210   57.2110 C   0  0  0  0  0  0  0  0  0  0  0  0
    2.4050   45.5960   54.7240 N   0  0  0  0  0  0  0  0  0  0  0  0
    6.5560   45.8540   52.8330 C   0  0  2  0  0  0  0  0  0  0  0  0
    6.5590   47.3950   52.8630 C   0  0  0  0  0  0  0  0  0  0  0  0
    7.9310   47.9880   52.4590 C   0  0  0  0  0  0  0  0  0  0  0  0
    8.8600   47.0110   51.7050 C   0  0  0  0  0  0  0  0  0  0  0  0
    8.0880   46.0580   50.7840 C   0  0  0  0  0  0  0  0  0  0  0  0
    7.0080   45.4120   51.5270 N   0  0  0  0  0  0  0  0  0  0  0  0
    4.0420   44.2381   51.4200 H   0  0  0  0  0  0  0  0  0  0  0  0
    5.0404   43.0847   52.2863 H   0  0  0  0  0  0  0  0  0  0  0  0
    5.1504   44.6910   54.0533 H   0  0  0  0  0  0  0  0  0  0  0  0
    4.2580   47.1270   52.8750 H   0  0  0  0  0  0  0  0  0  0  0  0
   -0.2542   45.0212   52.0241 H   0  0  0  0  0  0  0  0  0  0  0  0
   -0.8524   44.7293   54.4413 H   0  0  0  0  0  0  0  0  0  0  0  0
    2.1674   46.1970   58.4334 H   0  0  0  0  0  0  0  0  0  0  0  0
    1.3176   47.9537   59.9873 H   0  0  0  0  0  0  0  0  0  0  0  0
   -1.0225   48.7971   59.7627 H   0  0  0  0  0  0  0  0  0  0  0  0
   -2.5209   47.8663   57.9971 H   0  0  0  0  0  0  0  0  0  0  0  0
   -1.6778   46.1091   56.4374 H   0  0  0  0  0  0  0  0  0  0  0  0
    7.2070   45.5669   53.6719 H   0  0  0  0  0  0  0  0  0  0  0  0
    5.7944   47.7639   52.1635 H   0  0  0  0  0  0  0  0  0  0  0  0
    6.3461   47.7119   53.8946 H   0  0  0  0  0  0  0  0  0  0  0  0
    7.7506   48.8583   51.8109 H   0  0  0  0  0  0  0  0  0  0  0  0
    8.4461   48.2455   53.3962 H   0  0  0  0  0  0  0  0  0  0  0  0
    9.5662   47.5947   51.0963 H   0  0  0  0  0  0  0  0  0  0  0  0
    9.3820   46.3998   52.4560 H   0  0  0  0  0  0  0  0  0  0  0  0
    7.6629   46.6273   49.9443 H   0  0  0  0  0  0  0  0  0  0  0  0
    8.7751   45.2883   50.4024 H   0  0  0  0  0  0  0  0  0  0  0  0
  1  2  2  0
  2  3  1  0
  3  4  1  0
  4  5  1  0
  5  6  1  0
  6  7  2  0
  7  8  1  0
  8  9  2  0
  9 10  1  0
 10 11  1  0
 11 12  1  0
 12 13  2  0
 13 14  1  0
 14 15  2  0
 15 16  1  0
 16 17  2  0
 10 18  2  0
  4 19  1  0
 19 20  1  0
 20 21  1  0
 21 22  1  0
 22 23  1  0
 23 24  1  0
 24  2  1  0
 18  6  1  0
 24 19  1  0
 17 12  1  0
  3 25  1  0
  3 26  1  0
  4 27  1  1
  5 28  1  0
  8 29  1  0
  9 30  1  0
 13 31  1  0
 14 32  1  0
 15 33  1  0
 16 34  1  0
 17 35  1  0
 19 36  1  1
 20 37  1  0
 20 38  1  0
 21 39  1  0
 21 40  1  0
 22 41  1  0
 22 42  1  0
 23 43  1  0
 23 44  1  0
M  END
>  <meeko>  (5) 
{"is_sidechain": [false], "free_energy": -7.805, "intermolecular_energy": -9.758, "internal_energy": -0.578}

$$$$
