ligand_92_conformer_2_docked
     RDKit          3D

 35 37  0  0  0  0  0  0  0  0999 V2000
    1.2910   43.1620   53.9210 O   0  0  0  0  0  0  0  0  0  0  0  0
    2.1230   43.3930   53.0040 C   0  0  0  0  0  0  0  0  0  0  0  0
    2.2870   44.7740   52.4610 C   0  0  0  0  0  0  0  0  0  0  0  0
    3.7590   45.0950   52.0990 C   0  0  1  0  0  0  0  0  0  0  0  0
    3.7060   46.2040   51.2230 O   0  0  0  0  0  0  0  0  0  0  0  0
    4.5050   45.4820   53.3760 C   0  0  0  0  0  0  0  0  0  0  0  0
    3.8770   45.4650   54.4690 O   0  0  0  0  0  0  0  0  0  0  0  0
    5.9000   45.8090   53.4040 N   0  0  0  0  0  0  0  0  0  0  0  0
    6.8490   46.2150   54.4580 C   0  0  0  0  0  0  0  0  0  0  0  0
    8.0460   46.3300   53.5650 C   0  0  0  0  0  0  0  0  0  0  0  0
    8.5940   47.7560   53.4040 C   0  0  0  0  0  0  0  0  0  0  0  0
    9.9790   47.7850   53.4400 F   0  0  0  0  0  0  0  0  0  0  0  0
    7.0720   45.9100   52.5090 C   0  0  0  0  0  0  0  0  0  0  0  0
    4.4300   43.9200   51.3750 C   0  0  0  0  0  0  0  0  0  0  0  0
    5.5930   44.1270   50.6010 C   0  0  0  0  0  0  0  0  0  0  0  0
    6.2310   43.0570   49.9690 C   0  0  0  0  0  0  0  0  0  0  0  0
    7.8000   43.3640   48.9250 Br  0  0  0  0  0  0  0  0  0  0  0  0
    5.7310   41.7620   50.1110 C   0  0  0  0  0  0  0  0  0  0  0  0
    4.6030   41.5310   50.8970 C   0  0  0  0  0  0  0  0  0  0  0  0
    3.9520   42.5950   51.5360 C   0  0  0  0  0  0  0  0  0  0  0  0
    2.8510   42.3220   52.4100 N   0  0  0  0  0  0  0  0  0  0  0  0
    1.6707   44.8730   51.5552 H   0  0  0  0  0  0  0  0  0  0  0  0
    1.9716   45.4813   53.2422 H   0  0  0  0  0  0  0  0  0  0  0  0
    3.2700   46.9680   51.6830 H   0  0  0  0  0  0  0  0  0  0  0  0
    6.5770   47.1718   54.9275 H   0  0  0  0  0  0  0  0  0  0  0  0
    6.9393   45.5518   55.3309 H   0  0  0  0  0  0  0  0  0  0  0  0
    9.0067   45.8283   53.7532 H   0  0  0  0  0  0  0  0  0  0  0  0
    8.2549   48.1603   52.4388 H   0  0  0  0  0  0  0  0  0  0  0  0
    8.2187   48.3618   54.2419 H   0  0  0  0  0  0  0  0  0  0  0  0
    6.9425   46.6704   51.7248 H   0  0  0  0  0  0  0  0  0  0  0  0
    7.3285   45.0180   51.9186 H   0  0  0  0  0  0  0  0  0  0  0  0
    6.0013   45.1429   50.4945 H   0  0  0  0  0  0  0  0  0  0  0  0
    6.2274   40.9225   49.6022 H   0  0  0  0  0  0  0  0  0  0  0  0
    4.2212   40.5063   51.0165 H   0  0  0  0  0  0  0  0  0  0  0  0
    2.6040   41.3360   52.6560 H   0  0  0  0  0  0  0  0  0  0  0  0
  1  2  2  0
  2  3  1  0
  3  4  1  0
  4  5  1  6
  4  6  1  0
  6  7  2  0
  6  8  1  0
  8  9  1  0
  9 10  1  0
 10 11  1  0
 11 12  1  0
 10 13  1  0
  4 14  1  0
 14 15  2  0
 15 16  1  0
 16 17  1  0
 16 18  2  0
 18 19  1  0
 19 20  2  0
 20 21  1  0
 21  2  1  0
 13  8  1  0
 20 14  1  0
  3 22  1  0
  3 23  1  0
  5 24  1  0
  9 25  1  0
  9 26  1  0
 10 27  1  0
 11 28  1  0
 11 29  1  0
 13 30  1  0
 13 31  1  0
 15 32  1  0
 18 33  1  0
 19 34  1  0
 21 35  1  0
M  END
>  <meeko>  (1) 
{"is_sidechain": [false], "free_energy": -8.696, "intermolecular_energy": -9.967, "internal_energy": 0.39}

$$$$
ligand_92_conformer_2_docked
     RDKit          3D

 35 37  0  0  0  0  0  0  0  0999 V2000
    2.5950   45.5710   50.6890 O   0  0  0  0  0  0  0  0  0  0  0  0
    3.6070   46.0960   51.2240 C   0  0  0  0  0  0  0  0  0  0  0  0
    3.4510   47.1730   52.2470 C   0  0  0  0  0  0  0  0  0  0  0  0
    4.5170   47.0830   53.3670 C   0  0  1  0  0  0  0  0  0  0  0  0
    4.5340   48.3540   53.9850 O   0  0  0  0  0  0  0  0  0  0  0  0
    4.0770   46.0230   54.3780 C   0  0  0  0  0  0  0  0  0  0  0  0
    4.9450   45.5260   55.1450 O   0  0  0  0  0  0  0  0  0  0  0  0
    2.7150   45.6040   54.5370 N   0  0  0  0  0  0  0  0  0  0  0  0
    2.0260   44.6260   55.4000 C   0  0  0  0  0  0  0  0  0  0  0  0
    0.6490   44.8830   54.8710 C   0  0  0  0  0  0  0  0  0  0  0  0
    0.0210   43.7060   54.1100 C   0  0  0  0  0  0  0  0  0  0  0  0
   -1.0950   43.2060   54.7610 F   0  0  0  0  0  0  0  0  0  0  0  0
    1.3630   45.8780   54.0080 C   0  0  0  0  0  0  0  0  0  0  0  0
    5.9110   46.7890   52.7960 C   0  0  0  0  0  0  0  0  0  0  0  0
    7.0680   47.0700   53.5530 C   0  0  0  0  0  0  0  0  0  0  0  0
    8.3380   46.7710   53.0550 C   0  0  0  0  0  0  0  0  0  0  0  0
    9.8890   47.1660   54.0980 Br  0  0  0  0  0  0  0  0  0  0  0  0
    8.4770   46.1720   51.8030 C   0  0  0  0  0  0  0  0  0  0  0  0
    7.3450   45.8560   51.0520 C   0  0  0  0  0  0  0  0  0  0  0  0
    6.0640   46.1510   51.5380 C   0  0  0  0  0  0  0  0  0  0  0  0
    4.9160   45.7350   50.7900 N   0  0  0  0  0  0  0  0  0  0  0  0
    3.5437   48.1494   51.7489 H   0  0  0  0  0  0  0  0  0  0  0  0
    2.4627   47.0508   52.7143 H   0  0  0  0  0  0  0  0  0  0  0  0
    4.6610   49.0560   53.2940 H   0  0  0  0  0  0  0  0  0  0  0  0
    2.3622   43.5937   55.2231 H   0  0  0  0  0  0  0  0  0  0  0  0
    2.1711   44.7285   56.4856 H   0  0  0  0  0  0  0  0  0  0  0  0
   -0.2190   45.1238   55.5024 H   0  0  0  0  0  0  0  0  0  0  0  0
   -0.2757   44.0484   53.1077 H   0  0  0  0  0  0  0  0  0  0  0  0
    0.7689   42.9017   54.0492 H   0  0  0  0  0  0  0  0  0  0  0  0
    1.2729   45.6514   52.9354 H   0  0  0  0  0  0  0  0  0  0  0  0
    1.0111   46.9194   54.0485 H   0  0  0  0  0  0  0  0  0  0  0  0
    6.9685   47.5300   54.5472 H   0  0  0  0  0  0  0  0  0  0  0  0
    9.4791   45.9489   51.4081 H   0  0  0  0  0  0  0  0  0  0  0  0
    7.4585   45.3716   50.0709 H   0  0  0  0  0  0  0  0  0  0  0  0
    5.0260   45.1230   49.9500 H   0  0  0  0  0  0  0  0  0  0  0  0
  1  2  2  0
  2  3  1  0
  3  4  1  0
  4  5  1  1
  4  6  1  0
  6  7  2  0
  6  8  1  0
  8  9  1  0
  9 10  1  0
 10 11  1  0
 11 12  1  0
 10 13  1  0
  4 14  1  0
 14 15  2  0
 15 16  1  0
 16 17  1  0
 16 18  2  0
 18 19  1  0
 19 20  2  0
 20 21  1  0
 21  2  1  0
 13  8  1  0
 20 14  1  0
  3 22  1  0
  3 23  1  0
  5 24  1  0
  9 25  1  0
  9 26  1  0
 10 27  1  0
 11 28  1  0
 11 29  1  0
 13 30  1  0
 13 31  1  0
 15 32  1  0
 18 33  1  0
 19 34  1  0
 21 35  1  0
M  END
>  <meeko>  (2) 
{"is_sidechain": [false], "free_energy": -8.549, "intermolecular_energy": -9.715, "internal_energy": 0.307}

$$$$
ligand_92_conformer_2_docked
     RDKit          3D

 35 37  0  0  0  0  0  0  0  0999 V2000
    5.7420   45.4270   55.9060 O   0  0  0  0  0  0  0  0  0  0  0  0
    4.6690   45.6740   55.2920 C   0  0  0  0  0  0  0  0  0  0  0  0
    4.5270   46.9230   54.4880 C   0  0  0  0  0  0  0  0  0  0  0  0
    3.6920   46.7050   53.2020 C   0  0  1  0  0  0  0  0  0  0  0  0
    3.2750   47.9920   52.7910 O   0  0  0  0  0  0  0  0  0  0  0  0
    4.5920   46.0880   52.1310 C   0  0  0  0  0  0  0  0  0  0  0  0
    4.0940   45.2430   51.3400 O   0  0  0  0  0  0  0  0  0  0  0  0
    5.9630   46.4640   51.9440 N   0  0  0  0  0  0  0  0  0  0  0  0
    7.0370   46.0410   51.0250 C   0  0  0  0  0  0  0  0  0  0  0  0
    8.0850   46.9650   51.5630 C   0  0  0  0  0  0  0  0  0  0  0  0
    9.2660   46.2670   52.2540 C   0  0  0  0  0  0  0  0  0  0  0  0
   10.2160   47.1720   52.6970 F   0  0  0  0  0  0  0  0  0  0  0  0
    6.9820   47.3880   52.4830 C   0  0  0  0  0  0  0  0  0  0  0  0
    2.4510   45.8450   53.4750 C   0  0  0  0  0  0  0  0  0  0  0  0
    1.3570   45.8630   52.5830 C   0  0  0  0  0  0  0  0  0  0  0  0
    0.2400   45.0540   52.8050 C   0  0  0  0  0  0  0  0  0  0  0  0
   -1.2290   45.1010   51.5850 Br  0  0  0  0  0  0  0  0  0  0  0  0
    0.2000   44.2030   53.9090 C   0  0  0  0  0  0  0  0  0  0  0  0
    1.2830   44.1450   54.7850 C   0  0  0  0  0  0  0  0  0  0  0  0
    2.4110   44.9510   54.5750 C   0  0  0  0  0  0  0  0  0  0  0  0
    3.5460   44.8080   55.4360 N   0  0  0  0  0  0  0  0  0  0  0  0
    4.0316   47.6865   55.1058 H   0  0  0  0  0  0  0  0  0  0  0  0
    5.5346   47.2426   54.1837 H   0  0  0  0  0  0  0  0  0  0  0  0
    2.7610   48.4230   53.5240 H   0  0  0  0  0  0  0  0  0  0  0  0
    7.3045   44.9808   51.1450 H   0  0  0  0  0  0  0  0  0  0  0  0
    6.8244   46.1002   49.9474 H   0  0  0  0  0  0  0  0  0  0  0  0
    8.6721   47.6587   50.9432 H   0  0  0  0  0  0  0  0  0  0  0  0
    8.8875   45.6987   53.1164 H   0  0  0  0  0  0  0  0  0  0  0  0
    9.7454   45.6031   51.5196 H   0  0  0  0  0  0  0  0  0  0  0  0
    7.2137   47.1939   53.5407 H   0  0  0  0  0  0  0  0  0  0  0  0
    6.7278   48.4581   52.5005 H   0  0  0  0  0  0  0  0  0  0  0  0
    1.3844   46.5219   51.7026 H   0  0  0  0  0  0  0  0  0  0  0  0
   -0.6865   43.5771   54.0888 H   0  0  0  0  0  0  0  0  0  0  0  0
    1.2524   43.4622   55.6469 H   0  0  0  0  0  0  0  0  0  0  0  0
    3.5800   44.0380   56.1420 H   0  0  0  0  0  0  0  0  0  0  0  0
  1  2  2  0
  2  3  1  0
  3  4  1  0
  4  5  1  6
  4  6  1  0
  6  7  2  0
  6  8  1  0
  8  9  1  0
  9 10  1  0
 10 11  1  0
 11 12  1  0
 10 13  1  0
  4 14  1  0
 14 15  2  0
 15 16  1  0
 16 17  1  0
 16 18  2  0
 18 19  1  0
 19 20  2  0
 20 21  1  0
 21  2  1  0
 13  8  1  0
 20 14  1  0
  3 22  1  0
  3 23  1  0
  5 24  1  0
  9 25  1  0
  9 26  1  0
 10 27  1  0
 11 28  1  0
 11 29  1  0
 13 30  1  0
 13 31  1  0
 15 32  1  0
 18 33  1  0
 19 34  1  0
 21 35  1  0
M  END
>  <meeko>  (3) 
{"is_sidechain": [false], "free_energy": -8.517, "intermolecular_energy": -9.409, "internal_energy": 0.037}

$$$$
ligand_92_conformer_2_docked
     RDKit          3D

 35 37  0  0  0  0  0  0  0  0999 V2000
    4.6400   48.2260   54.7070 O   0  0  0  0  0  0  0  0  0  0  0  0
    4.9390   47.1890   54.0570 C   0  0  0  0  0  0  0  0  0  0  0  0
    4.3130   45.8760   54.3950 C   0  0  0  0  0  0  0  0  0  0  0  0
    4.0410   45.0120   53.1390 C   0  0  1  0  0  0  0  0  0  0  0  0
    3.8760   43.6890   53.6100 O   0  0  0  0  0  0  0  0  0  0  0  0
    2.7450   45.4910   52.4850 C   0  0  0  0  0  0  0  0  0  0  0  0
    2.8140   46.3700   51.5840 O   0  0  0  0  0  0  0  0  0  0  0  0
    1.4550   44.9520   52.8050 N   0  0  0  0  0  0  0  0  0  0  0  0
    0.0770   45.2220   52.3520 C   0  0  0  0  0  0  0  0  0  0  0  0
   -0.5830   44.1940   53.2180 C   0  0  0  0  0  0  0  0  0  0  0  0
   -1.5040   44.7640   54.3070 C   0  0  0  0  0  0  0  0  0  0  0  0
   -2.2360   43.7720   54.9370 F   0  0  0  0  0  0  0  0  0  0  0  0
    0.8220   43.9270   53.6610 C   0  0  0  0  0  0  0  0  0  0  0  0
    5.2250   45.0480   52.1620 C   0  0  0  0  0  0  0  0  0  0  0  0
    5.3760   44.0410   51.1850 C   0  0  0  0  0  0  0  0  0  0  0  0
    6.4300   44.0880   50.2690 C   0  0  0  0  0  0  0  0  0  0  0  0
    6.6160   42.7100   48.9590 Br  0  0  0  0  0  0  0  0  0  0  0  0
    7.3400   45.1450   50.3010 C   0  0  0  0  0  0  0  0  0  0  0  0
    7.1890   46.1670   51.2370 C   0  0  0  0  0  0  0  0  0  0  0  0
    6.1370   46.1340   52.1630 C   0  0  0  0  0  0  0  0  0  0  0  0
    5.9510   47.2390   53.0540 N   0  0  0  0  0  0  0  0  0  0  0  0
    4.9893   45.3238   55.0641 H   0  0  0  0  0  0  0  0  0  0  0  0
    3.3461   46.0795   54.8784 H   0  0  0  0  0  0  0  0  0  0  0  0
    4.2340   43.6210   54.5340 H   0  0  0  0  0  0  0  0  0  0  0  0
   -0.2524   46.2458   52.5831 H   0  0  0  0  0  0  0  0  0  0  0  0
   -0.1143   45.1616   51.2705 H   0  0  0  0  0  0  0  0  0  0  0  0
   -1.2689   43.4203   52.8426 H   0  0  0  0  0  0  0  0  0  0  0  0
   -0.8888   45.2824   55.0572 H   0  0  0  0  0  0  0  0  0  0  0  0
   -2.2114   45.4559   53.8265 H   0  0  0  0  0  0  0  0  0  0  0  0
    0.9723   44.1182   54.7338 H   0  0  0  0  0  0  0  0  0  0  0  0
    1.1905   42.8953   53.5622 H   0  0  0  0  0  0  0  0  0  0  0  0
    4.6562   43.2102   51.1442 H   0  0  0  0  0  0  0  0  0  0  0  0
    8.1768   45.1720   49.5875 H   0  0  0  0  0  0  0  0  0  0  0  0
    7.9007   47.0057   51.2491 H   0  0  0  0  0  0  0  0  0  0  0  0
    6.5210   48.1080   52.9450 H   0  0  0  0  0  0  0  0  0  0  0  0
  1  2  2  0
  2  3  1  0
  3  4  1  0
  4  5  1  1
  4  6  1  0
  6  7  2  0
  6  8  1  0
  8  9  1  0
  9 10  1  0
 10 11  1  0
 11 12  1  0
 10 13  1  0
  4 14  1  0
 14 15  2  0
 15 16  1  0
 16 17  1  0
 16 18  2  0
 18 19  1  0
 19 20  2  0
 20 21  1  0
 21  2  1  0
 13  8  1  0
 20 14  1  0
  3 22  1  0
  3 23  1  0
  5 24  1  0
  9 25  1  0
  9 26  1  0
 10 27  1  0
 11 28  1  0
 11 29  1  0
 13 30  1  0
 13 31  1  0
 15 32  1  0
 18 33  1  0
 19 34  1  0
 21 35  1  0
M  END
>  <meeko>  (4) 
{"is_sidechain": [false], "free_energy": -8.341, "intermolecular_energy": -9.033, "internal_energy": -0.137}

$$$$
ligand_92_conformer_2_docked
     RDKit          3D

 35 37  0  0  0  0  0  0  0  0999 V2000
    2.6470   42.1380   50.9500 O   0  0  0  0  0  0  0  0  0  0  0  0
    3.3200   43.2020   50.9700 C   0  0  0  0  0  0  0  0  0  0  0  0
    2.6600   44.5110   51.2560 C   0  0  0  0  0  0  0  0  0  0  0  0
    3.5610   45.4570   52.0870 C   0  0  1  0  0  0  0  0  0  0  0  0
    3.0260   46.7530   51.9090 O   0  0  0  0  0  0  0  0  0  0  0  0
    3.4670   45.0580   53.5590 C   0  0  0  0  0  0  0  0  0  0  0  0
    4.5040   44.6320   54.1360 O   0  0  0  0  0  0  0  0  0  0  0  0
    2.2700   45.1940   54.3370 N   0  0  0  0  0  0  0  0  0  0  0  0
    1.8990   44.8910   55.7320 C   0  0  0  0  0  0  0  0  0  0  0  0
    0.4820   45.3630   55.6310 C   0  0  0  0  0  0  0  0  0  0  0  0
   -0.5760   44.2590   55.7760 C   0  0  0  0  0  0  0  0  0  0  0  0
   -1.1560   44.2590   57.0330 F   0  0  0  0  0  0  0  0  0  0  0  0
    0.8760   45.6720   54.2200 C   0  0  0  0  0  0  0  0  0  0  0  0
    5.0100   45.4440   51.5800 C   0  0  0  0  0  0  0  0  0  0  0  0
    5.8880   46.5030   51.8970 C   0  0  0  0  0  0  0  0  0  0  0  0
    7.2190   46.4800   51.4700 C   0  0  0  0  0  0  0  0  0  0  0  0
    8.3850   47.9280   51.9070 Br  0  0  0  0  0  0  0  0  0  0  0  0
    7.7000   45.3960   50.7370 C   0  0  0  0  0  0  0  0  0  0  0  0
    6.8590   44.3240   50.4410 C   0  0  0  0  0  0  0  0  0  0  0  0
    5.5220   44.3330   50.8620 C   0  0  0  0  0  0  0  0  0  0  0  0
    4.7030   43.1820   50.6250 N   0  0  0  0  0  0  0  0  0  0  0  0
    2.4189   45.0011   50.3012 H   0  0  0  0  0  0  0  0  0  0  0  0
    1.7534   44.3080   51.8450 H   0  0  0  0  0  0  0  0  0  0  0  0
    3.3950   47.1520   51.0780 H   0  0  0  0  0  0  0  0  0  0  0  0
    1.9728   43.8189   55.9668 H   0  0  0  0  0  0  0  0  0  0  0  0
    2.5193   45.3394   56.5221 H   0  0  0  0  0  0  0  0  0  0  0  0
    0.0240   46.0906   56.3172 H   0  0  0  0  0  0  0  0  0  0  0  0
   -1.3613   44.4184   55.0224 H   0  0  0  0  0  0  0  0  0  0  0  0
   -0.0774   43.2892   55.6317 H   0  0  0  0  0  0  0  0  0  0  0  0
    0.2925   45.1022   53.4819 H   0  0  0  0  0  0  0  0  0  0  0  0
    0.7287   46.7058   53.8741 H   0  0  0  0  0  0  0  0  0  0  0  0
    5.5207   47.3559   52.4866 H   0  0  0  0  0  0  0  0  0  0  0  0
    8.7444   45.3864   50.3917 H   0  0  0  0  0  0  0  0  0  0  0  0
    7.2473   43.4655   49.8733 H   0  0  0  0  0  0  0  0  0  0  0  0
    5.1230   42.3040   50.2440 H   0  0  0  0  0  0  0  0  0  0  0  0
  1  2  2  0
  2  3  1  0
  3  4  1  0
  4  5  1  1
  4  6  1  0
  6  7  2  0
  6  8  1  0
  8  9  1  0
  9 10  1  0
 10 11  1  0
 11 12  1  0
 10 13  1  0
  4 14  1  0
 14 15  2  0
 15 16  1  0
 16 17  1  0
 16 18  2  0
 18 19  1  0
 19 20  2  0
 20 21  1  0
 21  2  1  0
 13  8  1  0
 20 14  1  0
  3 22  1  0
  3 23  1  0
  5 24  1  0
  9 25  1  0
  9 26  1  0
 10 27  1  0
 11 28  1  0
 11 29  1  0
 13 30  1  0
 13 31  1  0
 15 32  1  0
 18 33  1  0
 19 34  1  0
 21 35  1  0
M  END
>  <meeko>  (5) 
{"is_sidechain": [false], "free_energy": -7.739, "intermolecular_energy": -8.188, "internal_energy": -0.292}

$$$$
