ligand_24_conformer_1_docked
     RDKit          3D

 49 52  0  0  0  0  0  0  0  0999 V2000
    8.2070   44.2830   48.8620 C   0  0  0  0  0  0  0  0  0  0  0  0
    7.4970   44.8160   50.0610 C   0  0  0  0  0  0  0  0  0  0  0  0
    6.1950   44.5060   50.2720 N   0  0  0  0  0  0  0  0  0  0  0  0
    5.5260   44.9540   51.3660 C   0  0  0  0  0  0  0  0  0  0  0  0
    4.1570   44.5560   51.5520 N   0  0  0  0  0  0  0  0  0  0  0  0
    3.8530   43.4540   52.4730 C   0  0  0  0  0  0  0  0  0  0  0  0
    2.5170   42.7900   52.1170 C   0  0  0  0  0  0  0  0  0  0  0  0
    1.2620   43.7090   52.2340 C   0  0  0  0  0  0  0  0  0  0  0  0
    1.5030   44.9310   53.0190 N   0  0  0  0  0  0  0  0  0  0  0  0
    0.9540   45.0650   54.3500 C   0  0  0  0  0  0  0  0  0  0  0  0
    1.7940   45.2910   55.4540 C   0  0  0  0  0  0  0  0  0  0  0  0
    1.2460   45.4090   56.7330 C   0  0  0  0  0  0  0  0  0  0  0  0
   -0.0960   45.2910   56.9140 N   0  0  0  0  0  0  0  0  0  0  0  0
   -0.9340   45.0530   55.8720 C   0  0  0  0  0  0  0  0  0  0  0  0
   -0.4280   44.9300   54.5760 C   0  0  0  0  0  0  0  0  0  0  0  0
    2.3300   45.9940   52.4240 C   0  0  0  0  0  0  0  0  0  0  0  0
    3.0850   45.4930   51.1900 C   0  0  0  0  0  0  0  0  0  0  0  0
    6.1910   45.7720   52.3060 C   0  0  0  0  0  0  0  0  0  0  0  0
    5.4350   46.3890   53.4550 C   0  0  0  0  0  0  0  0  0  0  0  0
    7.5730   46.0130   52.1090 C   0  0  0  0  0  0  0  0  0  0  0  0
    8.3700   46.7330   53.0650 N   0  0  0  0  0  0  0  0  0  0  0  0
    9.4720   46.2590   53.6800 C   0  0  0  0  0  0  0  0  0  0  0  0
    9.9070   47.2000   54.5860 C   0  0  0  0  0  0  0  0  0  0  0  0
    8.9980   48.2360   54.4800 C   0  0  0  0  0  0  0  0  0  0  0  0
    8.0670   47.9250   53.5570 N   0  0  0  0  0  0  0  0  0  0  0  0
    8.1760   45.5390   50.9850 N   0  0  0  0  0  0  0  0  0  0  0  0
    9.0481   43.6516   49.1845 H   0  0  0  0  0  0  0  0  0  0  0  0
    7.5090   43.6839   48.2587 H   0  0  0  0  0  0  0  0  0  0  0  0
    8.5874   45.1205   48.2587 H   0  0  0  0  0  0  0  0  0  0  0  0
    4.6548   42.7034   52.4123 H   0  0  0  0  0  0  0  0  0  0  0  0
    3.7806   43.8604   53.4926 H   0  0  0  0  0  0  0  0  0  0  0  0
    2.5811   42.4335   51.0784 H   0  0  0  0  0  0  0  0  0  0  0  0
    2.3730   41.9846   52.8522 H   0  0  0  0  0  0  0  0  0  0  0  0
    0.9484   44.0015   51.2210 H   0  0  0  0  0  0  0  0  0  0  0  0
    0.4859   43.1333   52.7596 H   0  0  0  0  0  0  0  0  0  0  0  0
    2.8814   45.3748   55.3108 H   0  0  0  0  0  0  0  0  0  0  0  0
    1.9017   45.5978   57.5958 H   0  0  0  0  0  0  0  0  0  0  0  0
   -2.0153   44.9568   56.0494 H   0  0  0  0  0  0  0  0  0  0  0  0
   -1.1077   44.7283   53.7350 H   0  0  0  0  0  0  0  0  0  0  0  0
    1.6793   46.8306   52.1297 H   0  0  0  0  0  0  0  0  0  0  0  0
    3.0683   46.3168   53.1728 H   0  0  0  0  0  0  0  0  0  0  0  0
    2.3762   44.9826   50.5213 H   0  0  0  0  0  0  0  0  0  0  0  0
    3.5419   46.3608   50.6919 H   0  0  0  0  0  0  0  0  0  0  0  0
    5.8635   46.0393   54.4058 H   0  0  0  0  0  0  0  0  0  0  0  0
    5.5128   47.4848   53.3988 H   0  0  0  0  0  0  0  0  0  0  0  0
    4.3770   46.0932   53.3988 H   0  0  0  0  0  0  0  0  0  0  0  0
    9.9444   45.2840   53.4899 H   0  0  0  0  0  0  0  0  0  0  0  0
   10.7837   47.1406   55.2477 H   0  0  0  0  0  0  0  0  0  0  0  0
    9.0298   49.1703   55.0598 H   0  0  0  0  0  0  0  0  0  0  0  0
  1  2  1  0
  2  3  2  0
  3  4  1  0
  4  5  1  0
  5  6  1  0
  6  7  1  0
  7  8  1  0
  8  9  1  0
  9 10  1  0
 10 11  2  0
 11 12  1  0
 12 13  2  0
 13 14  1  0
 14 15  2  0
  9 16  1  0
 16 17  1  0
  4 18  2  0
 18 19  1  0
 18 20  1  0
 20 21  1  0
 21 22  1  0
 22 23  2  0
 23 24  1  0
 24 25  2  0
 20 26  2  0
 26  2  1  0
 17  5  1  0
 25 21  1  0
 15 10  1  0
  1 27  1  0
  1 28  1  0
  1 29  1  0
  6 30  1  0
  6 31  1  0
  7 32  1  0
  7 33  1  0
  8 34  1  0
  8 35  1  0
 11 36  1  0
 12 37  1  0
 14 38  1  0
 15 39  1  0
 16 40  1  0
 16 41  1  0
 17 42  1  0
 17 43  1  0
 19 44  1  0
 19 45  1  0
 19 46  1  0
 22 47  1  0
 23 48  1  0
 24 49  1  0
M  END
>  <meeko>  (1) 
{"is_sidechain": [false], "free_energy": -6.867, "intermolecular_energy": -10.48, "internal_energy": 0.443}

$$$$
ligand_24_conformer_1_docked
     RDKit          3D

 49 52  0  0  0  0  0  0  0  0999 V2000
    5.7790   41.5740   49.8710 C   0  0  0  0  0  0  0  0  0  0  0  0
    5.1130   42.6260   50.6940 C   0  0  0  0  0  0  0  0  0  0  0  0
    3.8010   42.5090   51.0120 N   0  0  0  0  0  0  0  0  0  0  0  0
    3.1720   43.4350   51.7800 C   0  0  0  0  0  0  0  0  0  0  0  0
    1.7880   43.2320   52.1160 N   0  0  0  0  0  0  0  0  0  0  0  0
    0.7610   43.5050   51.1030 C   0  0  0  0  0  0  0  0  0  0  0  0
   -0.0670   44.7400   51.4760 C   0  0  0  0  0  0  0  0  0  0  0  0
   -1.0680   44.5420   52.6390 C   0  0  0  0  0  0  0  0  0  0  0  0
   -0.5000   43.8150   53.7870 N   0  0  0  0  0  0  0  0  0  0  0  0
   -0.4150   44.4500   55.0830 C   0  0  0  0  0  0  0  0  0  0  0  0
   -1.5670   44.6430   55.8660 C   0  0  0  0  0  0  0  0  0  0  0  0
   -1.4650   45.2660   57.1110 C   0  0  0  0  0  0  0  0  0  0  0  0
   -0.2580   45.6990   57.5620 N   0  0  0  0  0  0  0  0  0  0  0  0
    0.8720   45.5450   56.8230 C   0  0  0  0  0  0  0  0  0  0  0  0
    0.8150   44.9270   55.5720 C   0  0  0  0  0  0  0  0  0  0  0  0
   -0.0460   42.4300   53.5840 C   0  0  0  0  0  0  0  0  0  0  0  0
    1.4480   42.3710   53.2560 C   0  0  0  0  0  0  0  0  0  0  0  0
    3.8890   44.5550   52.2550 C   0  0  0  0  0  0  0  0  0  0  0  0
    3.1810   45.6610   52.9950 C   0  0  0  0  0  0  0  0  0  0  0  0
    5.2780   44.6130   51.9810 C   0  0  0  0  0  0  0  0  0  0  0  0
    6.1230   45.6470   52.5150 N   0  0  0  0  0  0  0  0  0  0  0  0
    6.6300   45.6760   53.7640 C   0  0  0  0  0  0  0  0  0  0  0  0
    7.3130   46.8600   53.9310 C   0  0  0  0  0  0  0  0  0  0  0  0
    7.1650   47.5240   52.7290 C   0  0  0  0  0  0  0  0  0  0  0  0
    6.4290   46.7720   51.8870 N   0  0  0  0  0  0  0  0  0  0  0  0
    5.8400   43.6540   51.1970 N   0  0  0  0  0  0  0  0  0  0  0  0
    6.2485   40.8324   50.5340 H   0  0  0  0  0  0  0  0  0  0  0  0
    5.0308   41.0767   49.2362 H   0  0  0  0  0  0  0  0  0  0  0  0
    6.5485   42.0376   49.2362 H   0  0  0  0  0  0  0  0  0  0  0  0
    1.2502   43.6798   50.1334 H   0  0  0  0  0  0  0  0  0  0  0  0
    0.0876   42.6371   51.0452 H   0  0  0  0  0  0  0  0  0  0  0  0
    0.6297   45.5422   51.7609 H   0  0  0  0  0  0  0  0  0  0  0  0
   -0.6749   44.9760   50.5901 H   0  0  0  0  0  0  0  0  0  0  0  0
   -1.4007   45.5321   52.9842 H   0  0  0  0  0  0  0  0  0  0  0  0
   -1.8985   43.9342   52.2505 H   0  0  0  0  0  0  0  0  0  0  0  0
   -2.5466   44.3037   55.4981 H   0  0  0  0  0  0  0  0  0  0  0  0
   -2.3640   45.4070   57.7290 H   0  0  0  0  0  0  0  0  0  0  0  0
    1.8348   45.9084   57.2115 H   0  0  0  0  0  0  0  0  0  0  0  0
    1.7291   44.8135   54.9707 H   0  0  0  0  0  0  0  0  0  0  0  0
   -0.2332   41.8544   54.5025 H   0  0  0  0  0  0  0  0  0  0  0  0
   -0.6024   42.0056   52.7353 H   0  0  0  0  0  0  0  0  0  0  0  0
    2.0195   42.7020   54.1357 H   0  0  0  0  0  0  0  0  0  0  0  0
    1.7000   41.3339   52.9897 H   0  0  0  0  0  0  0  0  0  0  0  0
    3.2833   45.5012   54.0785 H   0  0  0  0  0  0  0  0  0  0  0  0
    3.6280   46.6287   52.7232 H   0  0  0  0  0  0  0  0  0  0  0  0
    2.1151   45.6602   52.7232 H   0  0  0  0  0  0  0  0  0  0  0  0
    6.5171   44.8868   54.5219 H   0  0  0  0  0  0  0  0  0  0  0  0
    7.8564   47.2015   54.8243 H   0  0  0  0  0  0  0  0  0  0  0  0
    7.5834   48.5140   52.4950 H   0  0  0  0  0  0  0  0  0  0  0  0
  1  2  1  0
  2  3  2  0
  3  4  1  0
  4  5  1  0
  5  6  1  0
  6  7  1  0
  7  8  1  0
  8  9  1  0
  9 10  1  0
 10 11  2  0
 11 12  1  0
 12 13  2  0
 13 14  1  0
 14 15  2  0
  9 16  1  0
 16 17  1  0
  4 18  2  0
 18 19  1  0
 18 20  1  0
 20 21  1  0
 21 22  1  0
 22 23  2  0
 23 24  1  0
 24 25  2  0
 20 26  2  0
 26  2  1  0
 17  5  1  0
 25 21  1  0
 15 10  1  0
  1 27  1  0
  1 28  1  0
  1 29  1  0
  6 30  1  0
  6 31  1  0
  7 32  1  0
  7 33  1  0
  8 34  1  0
  8 35  1  0
 11 36  1  0
 12 37  1  0
 14 38  1  0
 15 39  1  0
 16 40  1  0
 16 41  1  0
 17 42  1  0
 17 43  1  0
 19 44  1  0
 19 45  1  0
 19 46  1  0
 22 47  1  0
 23 48  1  0
 24 49  1  0
M  END
>  <meeko>  (2) 
{"is_sidechain": [false], "free_energy": -6.631, "intermolecular_energy": -9.262, "internal_energy": -0.415}

$$$$
ligand_24_conformer_1_docked
     RDKit          3D

 49 52  0  0  0  0  0  0  0  0999 V2000
    4.3590   41.3460   50.3570 C   0  0  0  0  0  0  0  0  0  0  0  0
    3.5160   42.2800   51.1580 C   0  0  0  0  0  0  0  0  0  0  0  0
    4.0960   43.2680   51.8830 N   0  0  0  0  0  0  0  0  0  0  0  0
    3.3560   44.1500   52.6020 C   0  0  0  0  0  0  0  0  0  0  0  0
    4.0310   45.2000   53.3170 N   0  0  0  0  0  0  0  0  0  0  0  0
    3.9400   46.5760   52.8160 C   0  0  0  0  0  0  0  0  0  0  0  0
    4.0730   47.5890   53.9600 C   0  0  0  0  0  0  0  0  0  0  0  0
    5.4840   47.7010   54.5810 C   0  0  0  0  0  0  0  0  0  0  0  0
    6.3290   46.5160   54.3580 N   0  0  0  0  0  0  0  0  0  0  0  0
    7.5540   46.6240   53.5970 C   0  0  0  0  0  0  0  0  0  0  0  0
    7.5950   46.2440   52.2440 C   0  0  0  0  0  0  0  0  0  0  0  0
    8.7900   46.3470   51.5290 C   0  0  0  0  0  0  0  0  0  0  0  0
    9.9150   46.7990   52.1410 N   0  0  0  0  0  0  0  0  0  0  0  0
    9.9160   47.1570   53.4520 C   0  0  0  0  0  0  0  0  0  0  0  0
    8.7420   47.0700   54.2040 C   0  0  0  0  0  0  0  0  0  0  0  0
    5.9060   45.2340   54.9440 C   0  0  0  0  0  0  0  0  0  0  0  0
    4.4130   44.9780   54.7180 C   0  0  0  0  0  0  0  0  0  0  0  0
    1.9490   44.0380   52.6120 C   0  0  0  0  0  0  0  0  0  0  0  0
    1.1160   44.9200   53.5060 C   0  0  0  0  0  0  0  0  0  0  0  0
    1.3600   43.0530   51.7820 C   0  0  0  0  0  0  0  0  0  0  0  0
   -0.0650   42.9300   51.6270 N   0  0  0  0  0  0  0  0  0  0  0  0
   -0.8220   43.6420   50.7680 C   0  0  0  0  0  0  0  0  0  0  0  0
   -2.1440   43.3100   50.9720 C   0  0  0  0  0  0  0  0  0  0  0  0
   -2.1190   42.3860   51.9990 C   0  0  0  0  0  0  0  0  0  0  0  0
   -0.8460   42.1790   52.3880 N   0  0  0  0  0  0  0  0  0  0  0  0
    2.1640   42.1970   51.0950 N   0  0  0  0  0  0  0  0  0  0  0  0
    4.9394   40.7029   51.0349 H   0  0  0  0  0  0  0  0  0  0  0  0
    3.7129   40.7213   49.7227 H   0  0  0  0  0  0  0  0  0  0  0  0
    5.0464   41.9249   49.7227 H   0  0  0  0  0  0  0  0  0  0  0  0
    4.7468   46.7477   52.0883 H   0  0  0  0  0  0  0  0  0  0  0  0
    2.9568   46.7112   52.3415 H   0  0  0  0  0  0  0  0  0  0  0  0
    3.7929   48.5793   53.5716 H   0  0  0  0  0  0  0  0  0  0  0  0
    3.4141   47.2290   54.7639 H   0  0  0  0  0  0  0  0  0  0  0  0
    5.9881   48.5739   54.1406 H   0  0  0  0  0  0  0  0  0  0  0  0
    5.3480   47.7965   55.6684 H   0  0  0  0  0  0  0  0  0  0  0  0
    6.6877   45.8664   51.7498 H   0  0  0  0  0  0  0  0  0  0  0  0
    8.8203   46.0613   50.4672 H   0  0  0  0  0  0  0  0  0  0  0  0
   10.8434   47.5161   53.9221 H   0  0  0  0  0  0  0  0  0  0  0  0
    8.7465   47.3495   55.2679 H   0  0  0  0  0  0  0  0  0  0  0  0
    6.4824   44.4209   54.4785 H   0  0  0  0  0  0  0  0  0  0  0  0
    6.0888   45.2734   56.0280 H   0  0  0  0  0  0  0  0  0  0  0  0
    4.1845   43.9368   54.9894 H   0  0  0  0  0  0  0  0  0  0  0  0
    3.8452   45.6816   55.3445 H   0  0  0  0  0  0  0  0  0  0  0  0
    1.3358   44.6873   54.5584 H   0  0  0  0  0  0  0  0  0  0  0  0
    1.3551   45.9749   53.3061 H   0  0  0  0  0  0  0  0  0  0  0  0
    0.0491   44.7416   53.3061 H   0  0  0  0  0  0  0  0  0  0  0  0
   -0.4476   44.3657   50.0291 H   0  0  0  0  0  0  0  0  0  0  0  0
   -3.0240   43.6952   50.4360 H   0  0  0  0  0  0  0  0  0  0  0  0
   -3.0028   41.8949   52.4324 H   0  0  0  0  0  0  0  0  0  0  0  0
  1  2  1  0
  2  3  2  0
  3  4  1  0
  4  5  1  0
  5  6  1  0
  6  7  1  0
  7  8  1  0
  8  9  1  0
  9 10  1  0
 10 11  2  0
 11 12  1  0
 12 13  2  0
 13 14  1  0
 14 15  2  0
  9 16  1  0
 16 17  1  0
  4 18  2  0
 18 19  1  0
 18 20  1  0
 20 21  1  0
 21 22  1  0
 22 23  2  0
 23 24  1  0
 24 25  2  0
 20 26  2  0
 26  2  1  0
 17  5  1  0
 25 21  1  0
 15 10  1  0
  1 27  1  0
  1 28  1  0
  1 29  1  0
  6 30  1  0
  6 31  1  0
  7 32  1  0
  7 33  1  0
  8 34  1  0
  8 35  1  0
 11 36  1  0
 12 37  1  0
 14 38  1  0
 15 39  1  0
 16 40  1  0
 16 41  1  0
 17 42  1  0
 17 43  1  0
 19 44  1  0
 19 45  1  0
 19 46  1  0
 22 47  1  0
 23 48  1  0
 24 49  1  0
M  END
>  <meeko>  (3) 
{"is_sidechain": [false], "free_energy": -6.63, "intermolecular_energy": -9.578, "internal_energy": -0.096}

$$$$
ligand_24_conformer_1_docked
     RDKit          3D

 49 52  0  0  0  0  0  0  0  0999 V2000
    8.2260   44.1750   49.1070 C   0  0  0  0  0  0  0  0  0  0  0  0
    7.5430   44.8080   50.2730 C   0  0  0  0  0  0  0  0  0  0  0  0
    6.2120   44.6330   50.4570 N   0  0  0  0  0  0  0  0  0  0  0  0
    5.5640   45.1730   51.5210 C   0  0  0  0  0  0  0  0  0  0  0  0
    4.1580   44.9170   51.6800 N   0  0  0  0  0  0  0  0  0  0  0  0
    3.1930   45.7740   50.9800 C   0  0  0  0  0  0  0  0  0  0  0  0
    2.4960   46.7300   51.9550 C   0  0  0  0  0  0  0  0  0  0  0  0
    1.8330   46.0580   53.2000 C   0  0  0  0  0  0  0  0  0  0  0  0
    1.6350   44.6080   53.0400 N   0  0  0  0  0  0  0  0  0  0  0  0
    0.3670   44.0890   52.5770 C   0  0  0  0  0  0  0  0  0  0  0  0
    0.0660   42.7200   52.6900 C   0  0  0  0  0  0  0  0  0  0  0  0
   -1.1600   42.2370   52.2290 C   0  0  0  0  0  0  0  0  0  0  0  0
   -2.0560   43.0840   51.6580 N   0  0  0  0  0  0  0  0  0  0  0  0
   -1.7910   44.4090   51.5160 C   0  0  0  0  0  0  0  0  0  0  0  0
   -0.5760   44.9340   51.9640 C   0  0  0  0  0  0  0  0  0  0  0  0
    2.7620   43.7090   53.3410 C   0  0  0  0  0  0  0  0  0  0  0  0
    3.7220   43.5970   52.1530 C   0  0  0  0  0  0  0  0  0  0  0  0
    6.2830   45.9470   52.4580 C   0  0  0  0  0  0  0  0  0  0  0  0
    5.5650   46.6660   53.5710 C   0  0  0  0  0  0  0  0  0  0  0  0
    7.6870   46.0460   52.2920 C   0  0  0  0  0  0  0  0  0  0  0  0
    8.5280   46.7100   53.2520 N   0  0  0  0  0  0  0  0  0  0  0  0
    9.8070   46.3850   53.5280 C   0  0  0  0  0  0  0  0  0  0  0  0
   10.2490   47.1850   54.5580 C   0  0  0  0  0  0  0  0  0  0  0  0
    9.1630   47.9780   54.8770 C   0  0  0  0  0  0  0  0  0  0  0  0
    8.1260   47.6640   54.0770 N   0  0  0  0  0  0  0  0  0  0  0  0
    8.2670   45.4860   51.1970 N   0  0  0  0  0  0  0  0  0  0  0  0
    8.9882   43.4686   49.4677 H   0  0  0  0  0  0  0  0  0  0  0  0
    7.4861   43.6361   48.4969 H   0  0  0  0  0  0  0  0  0  0  0  0
    8.7072   44.9536   48.4969 H   0  0  0  0  0  0  0  0  0  0  0  0
    3.7228   46.3626   50.2165 H   0  0  0  0  0  0  0  0  0  0  0  0
    2.4304   45.1332   50.5134 H   0  0  0  0  0  0  0  0  0  0  0  0
    3.2450   47.4496   52.3173 H   0  0  0  0  0  0  0  0  0  0  0  0
    1.6740   47.1918   51.3884 H   0  0  0  0  0  0  0  0  0  0  0  0
    2.4784   46.2283   54.0743 H   0  0  0  0  0  0  0  0  0  0  0  0
    0.8388   46.5117   53.3255 H   0  0  0  0  0  0  0  0  0  0  0  0
    0.7953   42.0309   53.1408 H   0  0  0  0  0  0  0  0  0  0  0  0
   -1.4012   41.1684   52.3282 H   0  0  0  0  0  0  0  0  0  0  0  0
   -2.5348   45.0701   51.0472 H   0  0  0  0  0  0  0  0  0  0  0  0
   -0.3576   46.0047   51.8377 H   0  0  0  0  0  0  0  0  0  0  0  0
    3.3114   44.1025   54.2089 H   0  0  0  0  0  0  0  0  0  0  0  0
    2.3583   42.7083   53.5546 H   0  0  0  0  0  0  0  0  0  0  0  0
    4.6057   43.0194   52.4621 H   0  0  0  0  0  0  0  0  0  0  0  0
    3.1915   43.0961   51.3298 H   0  0  0  0  0  0  0  0  0  0  0  0
    5.9315   46.2990   54.5410 H   0  0  0  0  0  0  0  0  0  0  0  0
    5.7552   47.7466   53.4922 H   0  0  0  0  0  0  0  0  0  0  0  0
    4.4842   46.4773   53.4922 H   0  0  0  0  0  0  0  0  0  0  0  0
   10.3980   45.6110   53.0165 H   0  0  0  0  0  0  0  0  0  0  0  0
   11.2456   47.1914   55.0237 H   0  0  0  0  0  0  0  0  0  0  0  0
    9.1479   48.7472   55.6632 H   0  0  0  0  0  0  0  0  0  0  0  0
  1  2  1  0
  2  3  2  0
  3  4  1  0
  4  5  1  0
  5  6  1  0
  6  7  1  0
  7  8  1  0
  8  9  1  0
  9 10  1  0
 10 11  2  0
 11 12  1  0
 12 13  2  0
 13 14  1  0
 14 15  2  0
  9 16  1  0
 16 17  1  0
  4 18  2  0
 18 19  1  0
 18 20  1  0
 20 21  1  0
 21 22  1  0
 22 23  2  0
 23 24  1  0
 24 25  2  0
 20 26  2  0
 26  2  1  0
 17  5  1  0
 25 21  1  0
 15 10  1  0
  1 27  1  0
  1 28  1  0
  1 29  1  0
  6 30  1  0
  6 31  1  0
  7 32  1  0
  7 33  1  0
  8 34  1  0
  8 35  1  0
 11 36  1  0
 12 37  1  0
 14 38  1  0
 15 39  1  0
 16 40  1  0
 16 41  1  0
 17 42  1  0
 17 43  1  0
 19 44  1  0
 19 45  1  0
 19 46  1  0
 22 47  1  0
 23 48  1  0
 24 49  1  0
M  END
>  <meeko>  (4) 
{"is_sidechain": [false], "free_energy": -6.628, "intermolecular_energy": -10.165, "internal_energy": 0.492}

$$$$
ligand_24_conformer_1_docked
     RDKit          3D

 49 52  0  0  0  0  0  0  0  0999 V2000
    0.1390   45.2410   57.0010 C   0  0  0  0  0  0  0  0  0  0  0  0
    0.5220   45.0830   55.5680 C   0  0  0  0  0  0  0  0  0  0  0  0
    1.7670   45.4260   55.1570 N   0  0  0  0  0  0  0  0  0  0  0  0
    2.1570   45.2710   53.8660 C   0  0  0  0  0  0  0  0  0  0  0  0
    3.5050   45.6160   53.5020 N   0  0  0  0  0  0  0  0  0  0  0  0
    4.5050   44.5490   53.3760 C   0  0  0  0  0  0  0  0  0  0  0  0
    5.0640   44.4820   51.9490 C   0  0  0  0  0  0  0  0  0  0  0  0
    5.8270   45.7470   51.4500 C   0  0  0  0  0  0  0  0  0  0  0  0
    6.2100   46.6760   52.5260 N   0  0  0  0  0  0  0  0  0  0  0  0
    7.6000   46.8330   52.8960 C   0  0  0  0  0  0  0  0  0  0  0  0
    7.9540   47.3930   54.1360 C   0  0  0  0  0  0  0  0  0  0  0  0
    9.3010   47.5460   54.4700 C   0  0  0  0  0  0  0  0  0  0  0  0
   10.2690   47.1690   53.5940 N   0  0  0  0  0  0  0  0  0  0  0  0
    9.9620   46.6430   52.3800 C   0  0  0  0  0  0  0  0  0  0  0  0
    8.6270   46.4720   52.0060 C   0  0  0  0  0  0  0  0  0  0  0  0
    5.1510   47.4490   53.1950 C   0  0  0  0  0  0  0  0  0  0  0  0
    3.7600   46.9080   52.8530 C   0  0  0  0  0  0  0  0  0  0  0  0
    1.2480   44.7510   52.9180 C   0  0  0  0  0  0  0  0  0  0  0  0
    1.6120   44.6940   51.4570 C   0  0  0  0  0  0  0  0  0  0  0  0
   -0.0190   44.3210   53.3870 C   0  0  0  0  0  0  0  0  0  0  0  0
   -0.9740   43.6710   52.5300 N   0  0  0  0  0  0  0  0  0  0  0  0
   -1.8670   44.2980   51.7370 C   0  0  0  0  0  0  0  0  0  0  0  0
   -2.6640   43.3460   51.1400 C   0  0  0  0  0  0  0  0  0  0  0  0
   -2.2030   42.1410   51.6340 C   0  0  0  0  0  0  0  0  0  0  0  0
   -1.1820   42.3640   52.4850 N   0  0  0  0  0  0  0  0  0  0  0  0
   -0.3440   44.5160   54.6930 N   0  0  0  0  0  0  0  0  0  0  0  0
    0.9659   44.8999   57.6413 H   0  0  0  0  0  0  0  0  0  0  0  0
   -0.0731   46.3001   57.2092 H   0  0  0  0  0  0  0  0  0  0  0  0
   -0.7582   44.6395   57.2092 H   0  0  0  0  0  0  0  0  0  0  0  0
    5.3302   44.7455   54.0763 H   0  0  0  0  0  0  0  0  0  0  0  0
    4.0220   43.5882   53.6076 H   0  0  0  0  0  0  0  0  0  0  0  0
    5.7580   43.6300   51.8998 H   0  0  0  0  0  0  0  0  0  0  0  0
    4.1864   44.3887   51.2924 H   0  0  0  0  0  0  0  0  0  0  0  0
    6.7414   45.4188   50.9340 H   0  0  0  0  0  0  0  0  0  0  0  0
    5.1403   46.2929   50.7864 H   0  0  0  0  0  0  0  0  0  0  0  0
    7.1716   47.7098   54.8414 H   0  0  0  0  0  0  0  0  0  0  0  0
    9.5794   47.9729   55.4448 H   0  0  0  0  0  0  0  0  0  0  0  0
   10.7668   46.3509   51.6894 H   0  0  0  0  0  0  0  0  0  0  0  0
    8.3799   46.0561   51.0181 H   0  0  0  0  0  0  0  0  0  0  0  0
    5.2994   47.3910   54.2834 H   0  0  0  0  0  0  0  0  0  0  0  0
    5.2115   48.4906   52.8465 H   0  0  0  0  0  0  0  0  0  0  0  0
    3.0033   47.6317   53.1901 H   0  0  0  0  0  0  0  0  0  0  0  0
    3.7075   46.7610   51.7641 H   0  0  0  0  0  0  0  0  0  0  0  0
    2.6941   44.5246   51.3551 H   0  0  0  0  0  0  0  0  0  0  0  0
    1.0649   43.8706   50.9747 H   0  0  0  0  0  0  0  0  0  0  0  0
    1.3428   45.6452   50.9747 H   0  0  0  0  0  0  0  0  0  0  0  0
   -1.9456   45.3855   51.5916 H   0  0  0  0  0  0  0  0  0  0  0  0
   -3.4859   43.5093   50.4274 H   0  0  0  0  0  0  0  0  0  0  0  0
   -2.6071   41.1518   51.3729 H   0  0  0  0  0  0  0  0  0  0  0  0
  1  2  1  0
  2  3  2  0
  3  4  1  0
  4  5  1  0
  5  6  1  0
  6  7  1  0
  7  8  1  0
  8  9  1  0
  9 10  1  0
 10 11  2  0
 11 12  1  0
 12 13  2  0
 13 14  1  0
 14 15  2  0
  9 16  1  0
 16 17  1  0
  4 18  2  0
 18 19  1  0
 18 20  1  0
 20 21  1  0
 21 22  1  0
 22 23  2  0
 23 24  1  0
 24 25  2  0
 20 26  2  0
 26  2  1  0
 17  5  1  0
 25 21  1  0
 15 10  1  0
  1 27  1  0
  1 28  1  0
  1 29  1  0
  6 30  1  0
  6 31  1  0
  7 32  1  0
  7 33  1  0
  8 34  1  0
  8 35  1  0
 11 36  1  0
 12 37  1  0
 14 38  1  0
 15 39  1  0
 16 40  1  0
 16 41  1  0
 17 42  1  0
 17 43  1  0
 19 44  1  0
 19 45  1  0
 19 46  1  0
 22 47  1  0
 23 48  1  0
 24 49  1  0
M  END
>  <meeko>  (5) 
{"is_sidechain": [false], "free_energy": -6.562, "intermolecular_energy": -9.677, "internal_energy": 0.104}

$$$$
