MODEL 1
REMARK VINA RESULT:    -9.393      0.000      0.000
REMARK INTER + INTRA:         -10.922
REMARK INTER:                 -11.040
REMARK INTRA:                   0.118
REMARK UNBOUND:                 0.118
REMARK SMILES Cn1c(=O)n(C)c2cc(S(=O)(=O)Nc3ccc4c(c3)NCC4)c(Br)cc21
REMARK SMILES IDX 10 1 11 2 12 3 9 4 2 5 3 6 26 7 4 8 5 9 25 10 7 11 23 12
REMARK SMILES IDX 8 13 1 14 6 15 24 16 13 17 14 19 15 20 19 21 16 22 18 23
REMARK SMILES IDX 17 24 20 25 22 26 21 27
REMARK H PARENT 13 18 20 28
ROOT
ATOM      1  S   UNL     1       5.108  47.107  53.977  1.00  0.00     0.263 S 
ATOM      2  O   UNL     1       6.228  47.320  54.956  1.00  0.00    -0.201 OA
ATOM      3  O   UNL     1       4.621  48.450  53.507  1.00  0.00    -0.201 OA
ENDROOT
BRANCH   1   4
ATOM      4  C   UNL     1       5.710  46.144  52.621  1.00  0.00     0.104 A 
ATOM      5  N   UNL     1       6.977  43.619  49.628  1.00  0.00    -0.295 N 
ATOM      6  C   UNL     1       6.026  42.667  49.808  1.00  0.00     0.328 A 
ATOM      7  C   UNL     1       6.677  44.561  50.546  1.00  0.00     0.070 A 
ATOM      8  O   UNL     1       5.997  41.584  49.164  1.00  0.00    -0.248 OA
ATOM      9  N   UNL     1       5.125  42.993  50.768  1.00  0.00    -0.295 N 
ATOM     10  C   UNL     1       7.367  45.732  50.852  1.00  0.00     0.045 A 
ATOM     11  C   UNL     1       5.557  44.183  51.235  1.00  0.00     0.070 A 
ATOM     12  C   UNL     1       6.876  46.536  51.899  1.00  0.00     0.040 A 
ATOM     13  C   UNL     1       5.043  44.947  52.280  1.00  0.00     0.052 A 
ATOM     14  C   UNL     1       8.142  43.567  48.749  1.00  0.00     0.155 C 
ATOM     15  C   UNL     1       4.034  42.171  51.285  1.00  0.00     0.155 C 
ATOM     16  Br  UNL     1       7.840  48.143  52.308  1.00  0.00    -0.049 Br
ENDBRANCH   1   4
BRANCH   1  17
ATOM     17  N   UNL     1       3.804  46.274  54.762  1.00  0.00    -0.280 N 
ATOM     18  H   UNL     1       3.879  46.140  55.795  1.00  0.00     0.180 HD
BRANCH  17  19
ATOM     19  C   UNL     1       2.760  45.594  54.045  1.00  0.00     0.051 A 
ATOM     20  C   UNL     1       2.006  46.306  53.082  1.00  0.00     0.027 A 
ATOM     21  C   UNL     1       2.472  44.230  54.276  1.00  0.00     0.052 A 
ATOM     22  C   UNL     1       0.966  45.676  52.379  1.00  0.00     0.008 A 
ATOM     23  C   UNL     1       1.431  43.639  53.563  1.00  0.00     0.039 A 
ATOM     24  C   UNL     1       0.700  44.335  52.645  1.00  0.00    -0.023 A 
ATOM     25  N   UNL     1       0.995  42.301  53.671  1.00  0.00    -0.384 N 
ATOM     26  C   UNL     1      -0.340  43.459  52.038  1.00  0.00     0.059 C 
ATOM     27  C   UNL     1      -0.120  42.098  52.748  1.00  0.00     0.117 C 
ATOM     28  H   UNL     1       1.399  41.578  54.305  1.00  0.00     0.160 HD
ENDBRANCH  17  19
ENDBRANCH   1  17
TORSDOF 3
ENDMDL
MODEL 2
REMARK VINA RESULT:    -9.355      3.304      7.413
REMARK INTER + INTRA:         -10.877
REMARK INTER:                 -10.578
REMARK INTRA:                  -0.300
REMARK UNBOUND:                 0.118
REMARK SMILES Cn1c(=O)n(C)c2cc(S(=O)(=O)Nc3ccc4c(c3)NCC4)c(Br)cc21
REMARK SMILES IDX 10 1 11 2 12 3 9 4 2 5 3 6 26 7 4 8 5 9 25 10 7 11 23 12
REMARK SMILES IDX 8 13 1 14 6 15 24 16 13 17 14 19 15 20 19 21 16 22 18 23
REMARK SMILES IDX 17 24 20 25 22 26 21 27
REMARK H PARENT 13 18 20 28
ROOT
ATOM      1  S   UNL     1       3.141  45.995  51.987  1.00  0.00     0.263 S 
ATOM      2  O   UNL     1       2.791  46.072  50.527  1.00  0.00    -0.201 OA
ATOM      3  O   UNL     1       3.479  47.376  52.473  1.00  0.00    -0.201 OA
ENDROOT
BRANCH   1   4
ATOM      4  C   UNL     1       1.758  45.336  52.871  1.00  0.00     0.104 A 
ATOM      5  N   UNL     1      -1.665  43.926  54.670  1.00  0.00    -0.295 N 
ATOM      6  C   UNL     1      -2.397  43.787  53.536  1.00  0.00     0.328 A 
ATOM      7  C   UNL     1      -0.468  44.371  54.236  1.00  0.00     0.070 A 
ATOM      8  O   UNL     1      -3.608  43.437  53.529  1.00  0.00    -0.248 OA
ATOM      9  N   UNL     1      -1.697  44.085  52.414  1.00  0.00    -0.295 N 
ATOM     10  C   UNL     1       0.646  44.748  54.984  1.00  0.00     0.045 A 
ATOM     11  C   UNL     1      -0.486  44.466  52.872  1.00  0.00     0.070 A 
ATOM     12  C   UNL     1       1.774  45.232  54.294  1.00  0.00     0.040 A 
ATOM     13  C   UNL     1       0.607  44.946  52.153  1.00  0.00     0.052 A 
ATOM     14  C   UNL     1      -2.116  43.775  56.052  1.00  0.00     0.155 C 
ATOM     15  C   UNL     1      -2.190  44.136  51.040  1.00  0.00     0.155 C 
ATOM     16  Br  UNL     1       3.297  45.749  55.340  1.00  0.00    -0.049 Br
ENDBRANCH   1   4
BRANCH   1  17
ATOM     17  N   UNL     1       4.521  44.965  52.197  1.00  0.00    -0.280 N 
ATOM     18  H   UNL     1       4.341  43.986  52.512  1.00  0.00     0.180 HD
BRANCH  17  19
ATOM     19  C   UNL     1       5.875  45.447  52.159  1.00  0.00     0.051 A 
ATOM     20  C   UNL     1       6.586  45.416  50.937  1.00  0.00     0.027 A 
ATOM     21  C   UNL     1       6.510  45.955  53.315  1.00  0.00     0.052 A 
ATOM     22  C   UNL     1       7.917  45.862  50.871  1.00  0.00     0.008 A 
ATOM     23  C   UNL     1       7.831  46.385  53.214  1.00  0.00     0.039 A 
ATOM     24  C   UNL     1       8.516  46.341  52.034  1.00  0.00    -0.023 A 
ATOM     25  N   UNL     1       8.626  46.907  54.257  1.00  0.00    -0.384 N 
ATOM     26  C   UNL     1       9.900  46.860  52.217  1.00  0.00     0.059 C 
ATOM     27  C   UNL     1       9.946  47.231  53.721  1.00  0.00     0.117 C 
ATOM     28  H   UNL     1       8.323  47.037  55.247  1.00  0.00     0.160 HD
ENDBRANCH  17  19
ENDBRANCH   1  17
TORSDOF 3
ENDMDL
MODEL 3
REMARK VINA RESULT:    -9.101      2.684      5.671
REMARK INTER + INTRA:         -10.579
REMARK INTER:                 -10.815
REMARK INTRA:                   0.236
REMARK UNBOUND:                 0.118
REMARK SMILES Cn1c(=O)n(C)c2cc(S(=O)(=O)Nc3ccc4c(c3)NCC4)c(Br)cc21
REMARK SMILES IDX 10 1 11 2 12 3 9 4 2 5 3 6 26 7 4 8 5 9 25 10 7 11 23 12
REMARK SMILES IDX 8 13 1 14 6 15 24 16 13 17 14 19 15 20 19 21 16 22 18 23
REMARK SMILES IDX 17 24 20 25 22 26 21 27
REMARK H PARENT 13 18 20 28
ROOT
ATOM      1  S   UNL     1       3.293  45.868  53.588  1.00  0.00     0.263 S 
ATOM      2  O   UNL     1       1.883  46.366  53.432  1.00  0.00    -0.201 OA
ATOM      3  O   UNL     1       3.520  45.515  55.032  1.00  0.00    -0.201 OA
ENDROOT
BRANCH   1   4
ATOM      4  C   UNL     1       3.518  44.455  52.550  1.00  0.00     0.104 A 
ATOM      5  N   UNL     1       4.246  41.367  49.927  1.00  0.00    -0.295 N 
ATOM      6  C   UNL     1       5.449  41.813  49.484  1.00  0.00     0.328 A 
ATOM      7  C   UNL     1       3.872  42.285  50.842  1.00  0.00     0.070 A 
ATOM      8  O   UNL     1       6.107  41.246  48.571  1.00  0.00    -0.248 OA
ATOM      9  N   UNL     1       5.859  42.944  50.111  1.00  0.00    -0.295 N 
ATOM     10  C   UNL     1       2.684  42.362  51.565  1.00  0.00     0.045 A 
ATOM     11  C   UNL     1       4.847  43.238  50.953  1.00  0.00     0.070 A 
ATOM     12  C   UNL     1       2.506  43.457  52.433  1.00  0.00     0.040 A 
ATOM     13  C   UNL     1       4.707  44.339  51.795  1.00  0.00     0.052 A 
ATOM     14  C   UNL     1       3.468  40.238  49.423  1.00  0.00     0.155 C 
ATOM     15  C   UNL     1       7.046  43.745  49.824  1.00  0.00     0.155 C 
ATOM     16  Br  UNL     1       0.862  43.548  53.417  1.00  0.00    -0.049 Br
ENDBRANCH   1   4
BRANCH   1  17
ATOM     17  N   UNL     1       4.402  47.121  53.130  1.00  0.00    -0.280 N 
ATOM     18  H   UNL     1       4.008  47.941  52.616  1.00  0.00     0.180 HD
BRANCH  17  19
ATOM     19  C   UNL     1       5.829  46.987  53.236  1.00  0.00     0.051 A 
ATOM     20  C   UNL     1       6.441  47.098  54.507  1.00  0.00     0.027 A 
ATOM     21  C   UNL     1       6.636  46.742  52.102  1.00  0.00     0.052 A 
ATOM     22  C   UNL     1       7.835  46.990  54.643  1.00  0.00     0.008 A 
ATOM     23  C   UNL     1       8.015  46.645  52.272  1.00  0.00     0.039 A 
ATOM     24  C   UNL     1       8.599  46.765  53.500  1.00  0.00    -0.023 A 
ATOM     25  N   UNL     1       8.971  46.418  51.260  1.00  0.00    -0.384 N 
ATOM     26  C   UNL     1      10.077  46.619  53.387  1.00  0.00     0.059 C 
ATOM     27  C   UNL     1      10.298  46.389  51.870  1.00  0.00     0.117 C 
ATOM     28  H   UNL     1       8.766  46.294  50.245  1.00  0.00     0.160 HD
ENDBRANCH  17  19
ENDBRANCH   1  17
TORSDOF 3
ENDMDL
MODEL 4
REMARK VINA RESULT:    -9.054      3.009      7.090
REMARK INTER + INTRA:         -10.524
REMARK INTER:                 -10.746
REMARK INTRA:                   0.222
REMARK UNBOUND:                 0.118
REMARK SMILES Cn1c(=O)n(C)c2cc(S(=O)(=O)Nc3ccc4c(c3)NCC4)c(Br)cc21
REMARK SMILES IDX 10 1 11 2 12 3 9 4 2 5 3 6 26 7 4 8 5 9 25 10 7 11 23 12
REMARK SMILES IDX 8 13 1 14 6 15 24 16 13 17 14 19 15 20 19 21 16 22 18 23
REMARK SMILES IDX 17 24 20 25 22 26 21 27
REMARK H PARENT 13 18 20 28
ROOT
ATOM      1  S   UNL     1       6.647  43.115  49.537  1.00  0.00     0.263 S 
ATOM      2  O   UNL     1       7.637  42.148  50.126  1.00  0.00    -0.201 OA
ATOM      3  O   UNL     1       6.283  42.646  48.156  1.00  0.00    -0.201 OA
ENDROOT
BRANCH   1   4
ATOM      4  C   UNL     1       5.221  43.177  50.580  1.00  0.00     0.104 A 
ATOM      5  N   UNL     1       2.104  43.475  53.252  1.00  0.00    -0.295 N 
ATOM      6  C   UNL     1       2.577  44.550  53.932  1.00  0.00     0.328 A 
ATOM      7  C   UNL     1       3.028  43.259  52.294  1.00  0.00     0.070 A 
ATOM      8  O   UNL     1       2.012  45.032  54.950  1.00  0.00    -0.248 OA
ATOM      9  N   UNL     1       3.733  45.037  53.415  1.00  0.00    -0.295 N 
ATOM     10  C   UNL     1       3.083  42.236  51.350  1.00  0.00     0.045 A 
ATOM     11  C   UNL     1       4.013  44.204  52.392  1.00  0.00     0.070 A 
ATOM     12  C   UNL     1       4.190  42.196  50.479  1.00  0.00     0.040 A 
ATOM     13  C   UNL     1       5.126  44.195  51.554  1.00  0.00     0.052 A 
ATOM     14  C   UNL     1       0.941  42.651  53.575  1.00  0.00     0.155 C 
ATOM     15  C   UNL     1       4.563  46.115  53.944  1.00  0.00     0.155 C 
ATOM     16  Br  UNL     1       4.251  40.778  49.189  1.00  0.00    -0.049 Br
ENDBRANCH   1   4
BRANCH   1  17
ATOM     17  N   UNL     1       7.371  44.688  49.431  1.00  0.00    -0.280 N 
ATOM     18  H   UNL     1       7.374  45.148  48.492  1.00  0.00     0.180 HD
BRANCH  17  19
ATOM     19  C   UNL     1       8.130  45.279  50.498  1.00  0.00     0.051 A 
ATOM     20  C   UNL     1       9.515  45.005  50.596  1.00  0.00     0.027 A 
ATOM     21  C   UNL     1       7.527  46.132  51.450  1.00  0.00     0.052 A 
ATOM     22  C   UNL     1      10.282  45.551  51.638  1.00  0.00     0.008 A 
ATOM     23  C   UNL     1       8.317  46.654  52.472  1.00  0.00     0.039 A 
ATOM     24  C   UNL     1       9.650  46.375  52.568  1.00  0.00    -0.023 A 
ATOM     25  N   UNL     1       7.889  47.506  53.512  1.00  0.00    -0.384 N 
ATOM     26  C   UNL     1      10.241  47.062  53.749  1.00  0.00     0.059 C 
ATOM     27  C   UNL     1       9.033  47.813  54.366  1.00  0.00     0.117 C 
ATOM     28  H   UNL     1       6.916  47.857  53.649  1.00  0.00     0.160 HD
ENDBRANCH  17  19
ENDBRANCH   1  17
TORSDOF 3
ENDMDL
MODEL 5
REMARK VINA RESULT:    -8.929      2.963      3.483
REMARK INTER + INTRA:         -10.377
REMARK INTER:                 -10.152
REMARK INTRA:                  -0.225
REMARK UNBOUND:                 0.118
REMARK SMILES Cn1c(=O)n(C)c2cc(S(=O)(=O)Nc3ccc4c(c3)NCC4)c(Br)cc21
REMARK SMILES IDX 10 1 11 2 12 3 9 4 2 5 3 6 26 7 4 8 5 9 25 10 7 11 23 12
REMARK SMILES IDX 8 13 1 14 6 15 24 16 13 17 14 19 15 20 19 21 16 22 18 23
REMARK SMILES IDX 17 24 20 25 22 26 21 27
REMARK H PARENT 13 18 20 28
ROOT
ATOM      1  S   UNL     1       2.549  45.099  52.283  1.00  0.00     0.263 S 
ATOM      2  O   UNL     1       1.859  46.435  52.299  1.00  0.00    -0.201 OA
ATOM      3  O   UNL     1       1.876  44.225  51.262  1.00  0.00    -0.201 OA
ENDROOT
BRANCH   1   4
ATOM      4  C   UNL     1       4.254  45.342  51.880  1.00  0.00     0.104 A 
ATOM      5  N   UNL     1       8.234  45.566  50.857  1.00  0.00    -0.295 N 
ATOM      6  C   UNL     1       8.227  44.547  49.961  1.00  0.00     0.328 A 
ATOM      7  C   UNL     1       6.955  45.641  51.279  1.00  0.00     0.070 A 
ATOM      8  O   UNL     1       9.263  44.128  49.377  1.00  0.00    -0.248 OA
ATOM      9  N   UNL     1       6.995  44.011  49.778  1.00  0.00    -0.295 N 
ATOM     10  C   UNL     1       6.406  46.471  52.255  1.00  0.00     0.045 A 
ATOM     11  C   UNL     1       6.206  44.701  50.626  1.00  0.00     0.070 A 
ATOM     12  C   UNL     1       5.038  46.323  52.556  1.00  0.00     0.040 A 
ATOM     13  C   UNL     1       4.852  44.520  50.900  1.00  0.00     0.052 A 
ATOM     14  C   UNL     1       9.386  46.311  51.358  1.00  0.00     0.155 C 
ATOM     15  C   UNL     1       6.637  42.850  48.968  1.00  0.00     0.155 C 
ATOM     16  Br  UNL     1       4.300  47.471  53.904  1.00  0.00    -0.049 Br
ENDBRANCH   1   4
BRANCH   1  17
ATOM     17  N   UNL     1       2.410  44.358  53.845  1.00  0.00    -0.280 N 
ATOM     18  H   UNL     1       3.122  43.636  54.094  1.00  0.00     0.180 HD
BRANCH  17  19
ATOM     19  C   UNL     1       1.270  44.537  54.702  1.00  0.00     0.051 A 
ATOM     20  C   UNL     1       1.442  45.161  55.960  1.00  0.00     0.027 A 
ATOM     21  C   UNL     1      -0.020  44.107  54.315  1.00  0.00     0.052 A 
ATOM     22  C   UNL     1       0.351  45.333  56.829  1.00  0.00     0.008 A 
ATOM     23  C   UNL     1      -1.078  44.291  55.203  1.00  0.00     0.039 A 
ATOM     24  C   UNL     1      -0.902  44.883  56.420  1.00  0.00    -0.023 A 
ATOM     25  N   UNL     1      -2.422  43.916  54.995  1.00  0.00    -0.384 N 
ATOM     26  C   UNL     1      -2.195  44.948  57.156  1.00  0.00     0.059 C 
ATOM     27  C   UNL     1      -3.198  44.290  56.175  1.00  0.00     0.117 C 
ATOM     28  H   UNL     1      -2.799  43.448  54.142  1.00  0.00     0.160 HD
ENDBRANCH  17  19
ENDBRANCH   1  17
TORSDOF 3
ENDMDL
