MODEL 1
REMARK VINA RESULT:    -9.307      0.000      0.000
REMARK INTER + INTRA:         -13.346
REMARK INTER:                 -10.940
REMARK INTRA:                  -2.407
REMARK UNBOUND:                -2.407
REMARK SMILES O=c1[nH]c(CN2CCC(c3nc4ccccc4[nH]3)CC2)nc2c1oc1ccccc12
REMARK SMILES IDX 6 1 7 2 8 3 9 4 19 5 20 6 5 7 4 8 1 9 2 10 3 11 23 12 24 13
REMARK SMILES IDX 22 14 21 15 25 16 30 17 26 18 29 19 27 20 28 21 10 23 11 24
REMARK SMILES IDX 18 25 12 26 17 27 13 28 16 29 14 30 15 31
REMARK H PARENT 3 22 18 32
ROOT
ATOM      1  N   UNL     1       8.555  46.202  51.223  1.00  0.00    -0.296 NA
ATOM      2  C   UNL     1       9.841  45.990  51.919  1.00  0.00     0.086 C 
ATOM      3  C   UNL     1       9.904  46.792  53.240  1.00  0.00     0.027 C 
ATOM      4  C   UNL     1       8.731  47.787  53.392  1.00  0.00     0.058 C 
ATOM      5  C   UNL     1       8.538  48.558  52.069  1.00  0.00     0.027 C 
ATOM      6  C   UNL     1       8.395  47.621  50.847  1.00  0.00     0.086 C 
ENDROOT
BRANCH   1   7
ATOM      7  C   UNL     1       8.410  45.307  50.060  1.00  0.00     0.159 C 
BRANCH   7   8
ATOM      8  C   UNL     1       7.143  44.520  50.208  1.00  0.00     0.124 A 
ATOM      9  O   UNL     1       6.001  41.171  50.015  1.00  0.00    -0.265 OA
ATOM     10  C   UNL     1       6.002  42.416  50.208  1.00  0.00     0.294 A 
ATOM     11  N   UNL     1       7.131  43.159  49.993  1.00  0.00    -0.306 N 
ATOM     12  C   UNL     1       4.863  43.071  50.651  1.00  0.00     0.218 A 
ATOM     13  O   UNL     1       3.675  42.581  50.945  1.00  0.00    -0.449 OA
ATOM     14  C   UNL     1       4.901  44.422  50.851  1.00  0.00     0.124 A 
ATOM     15  N   UNL     1       6.017  45.159  50.649  1.00  0.00    -0.229 NA
ATOM     16  C   UNL     1       2.940  43.609  51.336  1.00  0.00     0.137 A 
ATOM     17  C   UNL     1       3.660  44.786  51.294  1.00  0.00     0.047 A 
ATOM     18  C   UNL     1       1.611  43.593  51.758  1.00  0.00     0.048 A 
ATOM     19  C   UNL     1       3.111  46.011  51.666  1.00  0.00     0.014 A 
ATOM     20  C   UNL     1       1.026  44.816  52.142  1.00  0.00     0.004 A 
ATOM     21  C   UNL     1       1.772  46.017  52.096  1.00  0.00     0.001 A 
ATOM     22  H   UNL     1       8.002  42.677  49.673  1.00  0.00     0.171 HD
ENDBRANCH   7   8
ENDBRANCH   1   7
BRANCH   4  23
ATOM     23  C   UNL     1       7.446  47.108  53.823  1.00  0.00     0.110 A 
ATOM     24  N   UNL     1       6.338  47.781  54.243  1.00  0.00    -0.233 NA
ATOM     25  N   UNL     1       7.294  45.758  53.836  1.00  0.00    -0.342 N 
ATOM     26  C   UNL     1       5.474  46.791  54.527  1.00  0.00     0.089 A 
ATOM     27  C   UNL     1       6.047  45.577  54.287  1.00  0.00     0.065 A 
ATOM     28  C   UNL     1       4.169  46.908  54.997  1.00  0.00     0.030 A 
ATOM     29  C   UNL     1       5.366  44.382  54.500  1.00  0.00     0.028 A 
ATOM     30  C   UNL     1       3.447  45.720  55.221  1.00  0.00     0.002 A 
ATOM     31  C   UNL     1       4.044  44.461  54.976  1.00  0.00     0.002 A 
ATOM     32  H   UNL     1       7.988  45.027  53.560  1.00  0.00     0.168 HD
ENDBRANCH   4  23
TORSDOF 3
ENDMDL
MODEL 2
REMARK VINA RESULT:    -9.289      3.263      6.662
REMARK INTER + INTRA:         -13.325
REMARK INTER:                 -12.667
REMARK INTRA:                  -0.658
REMARK UNBOUND:                -2.407
REMARK SMILES O=c1[nH]c(CN2CCC(c3nc4ccccc4[nH]3)CC2)nc2c1oc1ccccc12
REMARK SMILES IDX 6 1 7 2 8 3 9 4 19 5 20 6 5 7 4 8 1 9 2 10 3 11 23 12 24 13
REMARK SMILES IDX 22 14 21 15 25 16 30 17 26 18 29 19 27 20 28 21 10 23 11 24
REMARK SMILES IDX 18 25 12 26 17 27 13 28 16 29 14 30 15 31
REMARK H PARENT 3 22 18 32
ROOT
ATOM      1  N   UNL     1       2.261  44.818  51.714  1.00  0.00    -0.296 NA
ATOM      2  C   UNL     1       1.230  44.170  50.877  1.00  0.00     0.086 C 
ATOM      3  C   UNL     1       0.566  42.987  51.620  1.00  0.00     0.027 C 
ATOM      4  C   UNL     1       1.290  42.626  52.936  1.00  0.00     0.058 C 
ATOM      5  C   UNL     1       2.813  42.580  52.688  1.00  0.00     0.027 C 
ATOM      6  C   UNL     1       3.349  43.871  52.026  1.00  0.00     0.086 C 
ENDROOT
BRANCH   1   7
ATOM      7  C   UNL     1       2.773  46.054  51.090  1.00  0.00     0.159 C 
BRANCH   7   8
ATOM      8  C   UNL     1       3.940  46.552  51.886  1.00  0.00     0.124 A 
ATOM      9  O   UNL     1       4.618  48.207  54.945  1.00  0.00    -0.265 OA
ATOM     10  C   UNL     1       4.804  47.604  53.855  1.00  0.00     0.294 A 
ATOM     11  N   UNL     1       3.746  47.219  53.077  1.00  0.00    -0.306 N 
ATOM     12  C   UNL     1       6.083  47.302  53.415  1.00  0.00     0.218 A 
ATOM     13  O   UNL     1       7.246  47.546  53.987  1.00  0.00    -0.449 OA
ATOM     14  C   UNL     1       6.247  46.646  52.228  1.00  0.00     0.124 A 
ATOM     15  N   UNL     1       5.205  46.255  51.459  1.00  0.00    -0.229 NA
ATOM     16  C   UNL     1       8.166  47.049  53.177  1.00  0.00     0.137 A 
ATOM     17  C   UNL     1       7.593  46.475  52.059  1.00  0.00     0.047 A 
ATOM     18  C   UNL     1       9.548  47.053  53.355  1.00  0.00     0.048 A 
ATOM     19  C   UNL     1       8.351  45.873  51.057  1.00  0.00     0.014 A 
ATOM     20  C   UNL     1      10.344  46.452  52.359  1.00  0.00     0.004 A 
ATOM     21  C   UNL     1       9.748  45.866  51.218  1.00  0.00     0.001 A 
ATOM     22  H   UNL     1       2.775  47.425  53.403  1.00  0.00     0.171 HD
ENDBRANCH   7   8
ENDBRANCH   1   7
BRANCH   4  23
ATOM     23  C   UNL     1       0.948  43.576  54.067  1.00  0.00     0.110 A 
ATOM     24  N   UNL     1      -0.325  43.944  54.387  1.00  0.00    -0.233 NA
ATOM     25  N   UNL     1       1.890  44.151  54.858  1.00  0.00    -0.342 N 
ATOM     26  C   UNL     1      -0.144  44.786  55.419  1.00  0.00     0.089 A 
ATOM     27  C   UNL     1       1.184  44.914  55.701  1.00  0.00     0.065 A 
ATOM     28  C   UNL     1      -1.118  45.465  56.147  1.00  0.00     0.030 A 
ATOM     29  C   UNL     1       1.648  45.731  56.728  1.00  0.00     0.028 A 
ATOM     30  C   UNL     1      -0.687  46.297  57.197  1.00  0.00     0.002 A 
ATOM     31  C   UNL     1       0.691  46.432  57.485  1.00  0.00     0.002 A 
ATOM     32  H   UNL     1       2.927  44.028  54.820  1.00  0.00     0.168 HD
ENDBRANCH   4  23
TORSDOF 3
ENDMDL
MODEL 3
REMARK VINA RESULT:    -8.615      2.386      6.737
REMARK INTER + INTRA:         -12.532
REMARK INTER:                 -11.245
REMARK INTRA:                  -1.287
REMARK UNBOUND:                -2.407
REMARK SMILES O=c1[nH]c(CN2CCC(c3nc4ccccc4[nH]3)CC2)nc2c1oc1ccccc12
REMARK SMILES IDX 6 1 7 2 8 3 9 4 19 5 20 6 5 7 4 8 1 9 2 10 3 11 23 12 24 13
REMARK SMILES IDX 22 14 21 15 25 16 30 17 26 18 29 19 27 20 28 21 10 23 11 24
REMARK SMILES IDX 18 25 12 26 17 27 13 28 16 29 14 30 15 31
REMARK H PARENT 3 22 18 32
ROOT
ATOM      1  N   UNL     1       2.128  45.506  52.995  1.00  0.00    -0.296 NA
ATOM      2  C   UNL     1       1.865  44.999  54.358  1.00  0.00     0.086 C 
ATOM      3  C   UNL     1       1.200  43.604  54.320  1.00  0.00     0.027 C 
ATOM      4  C   UNL     1       0.763  43.188  52.897  1.00  0.00     0.058 C 
ATOM      5  C   UNL     1       0.038  44.369  52.218  1.00  0.00     0.027 C 
ATOM      6  C   UNL     1       0.864  45.676  52.250  1.00  0.00     0.086 C 
ENDROOT
BRANCH   1   7
ATOM      7  C   UNL     1       2.922  46.749  53.018  1.00  0.00     0.159 C 
BRANCH   7   8
ATOM      8  C   UNL     1       4.314  46.445  52.557  1.00  0.00     0.124 A 
ATOM      9  O   UNL     1       6.005  45.179  49.712  1.00  0.00    -0.265 OA
ATOM     10  C   UNL     1       5.808  45.682  50.850  1.00  0.00     0.294 A 
ATOM     11  N   UNL     1       4.539  45.887  51.317  1.00  0.00    -0.306 N 
ATOM     12  C   UNL     1       6.871  46.054  51.660  1.00  0.00     0.218 A 
ATOM     13  O   UNL     1       8.167  45.977  51.430  1.00  0.00    -0.449 OA
ATOM     14  C   UNL     1       6.620  46.598  52.887  1.00  0.00     0.124 A 
ATOM     15  N   UNL     1       5.367  46.812  53.350  1.00  0.00    -0.229 NA
ATOM     16  C   UNL     1       8.760  46.472  52.503  1.00  0.00     0.137 A 
ATOM     17  C   UNL     1       7.837  46.874  53.447  1.00  0.00     0.047 A 
ATOM     18  C   UNL     1      10.128  46.613  52.730  1.00  0.00     0.048 A 
ATOM     19  C   UNL     1       8.210  47.438  54.665  1.00  0.00     0.014 A 
ATOM     20  C   UNL     1      10.540  47.181  53.952  1.00  0.00     0.004 A 
ATOM     21  C   UNL     1       9.586  47.590  54.913  1.00  0.00     0.001 A 
ATOM     22  H   UNL     1       3.727  45.627  50.711  1.00  0.00     0.171 HD
ENDBRANCH   7   8
ENDBRANCH   1   7
BRANCH   4  23
ATOM     23  C   UNL     1       1.923  42.699  52.052  1.00  0.00     0.110 A 
ATOM     24  N   UNL     1       1.774  42.094  50.840  1.00  0.00    -0.233 NA
ATOM     25  N   UNL     1       3.219  42.816  52.441  1.00  0.00    -0.342 N 
ATOM     26  C   UNL     1       3.042  41.829  50.479  1.00  0.00     0.089 A 
ATOM     27  C   UNL     1       3.909  42.258  51.439  1.00  0.00     0.065 A 
ATOM     28  C   UNL     1       3.484  41.213  49.311  1.00  0.00     0.030 A 
ATOM     29  C   UNL     1       5.287  42.105  51.315  1.00  0.00     0.028 A 
ATOM     30  C   UNL     1       4.872  41.044  49.148  1.00  0.00     0.002 A 
ATOM     31  C   UNL     1       5.770  41.485  50.147  1.00  0.00     0.002 A 
ATOM     32  H   UNL     1       3.594  43.242  53.319  1.00  0.00     0.168 HD
ENDBRANCH   4  23
TORSDOF 3
ENDMDL
MODEL 4
REMARK VINA RESULT:    -8.513      2.605      6.712
REMARK INTER + INTRA:         -12.413
REMARK INTER:                 -10.995
REMARK INTRA:                  -1.418
REMARK UNBOUND:                -2.407
REMARK SMILES O=c1[nH]c(CN2CCC(c3nc4ccccc4[nH]3)CC2)nc2c1oc1ccccc12
REMARK SMILES IDX 6 1 7 2 8 3 9 4 19 5 20 6 5 7 4 8 1 9 2 10 3 11 23 12 24 13
REMARK SMILES IDX 22 14 21 15 25 16 30 17 26 18 29 19 27 20 28 21 10 23 11 24
REMARK SMILES IDX 18 25 12 26 17 27 13 28 16 29 14 30 15 31
REMARK H PARENT 3 22 18 32
ROOT
ATOM      1  N   UNL     1       2.295  45.593  52.536  1.00  0.00    -0.296 NA
ATOM      2  C   UNL     1       2.317  45.260  53.975  1.00  0.00     0.086 C 
ATOM      3  C   UNL     1       1.881  43.797  54.220  1.00  0.00     0.027 C 
ATOM      4  C   UNL     1       1.310  43.122  52.952  1.00  0.00     0.058 C 
ATOM      5  C   UNL     1       0.317  44.083  52.264  1.00  0.00     0.027 C 
ATOM      6  C   UNL     1       0.925  45.480  51.997  1.00  0.00     0.086 C 
ENDROOT
BRANCH   1   7
ATOM      7  C   UNL     1       2.879  46.922  52.273  1.00  0.00     0.159 C 
BRANCH   7   8
ATOM      8  C   UNL     1       4.359  46.853  52.494  1.00  0.00     0.124 A 
ATOM      9  O   UNL     1       6.753  47.539  55.015  1.00  0.00    -0.265 OA
ATOM     10  C   UNL     1       6.254  47.149  53.927  1.00  0.00     0.294 A 
ATOM     11  N   UNL     1       4.915  47.284  53.680  1.00  0.00    -0.306 N 
ATOM     12  C   UNL     1       7.043  46.562  52.949  1.00  0.00     0.218 A 
ATOM     13  O   UNL     1       8.336  46.305  52.958  1.00  0.00    -0.449 OA
ATOM     14  C   UNL     1       6.467  46.149  51.781  1.00  0.00     0.124 A 
ATOM     15  N   UNL     1       5.143  46.272  51.536  1.00  0.00    -0.229 NA
ATOM     16  C   UNL     1       8.604  45.726  51.800  1.00  0.00     0.137 A 
ATOM     17  C   UNL     1       7.468  45.605  51.024  1.00  0.00     0.047 A 
ATOM     18  C   UNL     1       9.837  45.261  51.347  1.00  0.00     0.048 A 
ATOM     19  C   UNL     1       7.485  45.019  49.761  1.00  0.00     0.014 A 
ATOM     20  C   UNL     1       9.888  44.662  50.072  1.00  0.00     0.004 A 
ATOM     21  C   UNL     1       8.720  44.543  49.284  1.00  0.00     0.001 A 
ATOM     22  H   UNL     1       4.304  47.711  54.413  1.00  0.00     0.171 HD
ENDBRANCH   7   8
ENDBRANCH   1   7
BRANCH   4  23
ATOM     23  C   UNL     1       2.396  42.676  51.993  1.00  0.00     0.110 A 
ATOM     24  N   UNL     1       2.158  41.942  50.869  1.00  0.00    -0.233 NA
ATOM     25  N   UNL     1       3.709  42.967  52.179  1.00  0.00    -0.342 N 
ATOM     26  C   UNL     1       3.388  41.777  50.353  1.00  0.00     0.089 A 
ATOM     27  C   UNL     1       4.320  42.388  51.138  1.00  0.00     0.065 A 
ATOM     28  C   UNL     1       3.740  41.097  49.189  1.00  0.00     0.030 A 
ATOM     29  C   UNL     1       5.677  42.369  50.830  1.00  0.00     0.028 A 
ATOM     30  C   UNL     1       5.104  41.060  48.842  1.00  0.00     0.002 A 
ATOM     31  C   UNL     1       6.069  41.690  49.660  1.00  0.00     0.002 A 
ATOM     32  H   UNL     1       4.145  43.516  52.954  1.00  0.00     0.168 HD
ENDBRANCH   4  23
TORSDOF 3
ENDMDL
MODEL 5
REMARK VINA RESULT:    -8.343      3.826      6.391
REMARK INTER + INTRA:         -12.212
REMARK INTER:                 -12.376
REMARK INTRA:                   0.164
REMARK UNBOUND:                -2.407
REMARK SMILES O=c1[nH]c(CN2CCC(c3nc4ccccc4[nH]3)CC2)nc2c1oc1ccccc12
REMARK SMILES IDX 6 1 7 2 8 3 9 4 19 5 20 6 5 7 4 8 1 9 2 10 3 11 23 12 24 13
REMARK SMILES IDX 22 14 21 15 25 16 30 17 26 18 29 19 27 20 28 21 10 23 11 24
REMARK SMILES IDX 18 25 12 26 17 27 13 28 16 29 14 30 15 31
REMARK H PARENT 3 22 18 32
ROOT
ATOM      1  N   UNL     1       3.941  45.200  53.482  1.00  0.00    -0.296 NA
ATOM      2  C   UNL     1       3.732  43.993  52.655  1.00  0.00     0.086 C 
ATOM      3  C   UNL     1       4.235  44.209  51.209  1.00  0.00     0.027 C 
ATOM      4  C   UNL     1       4.609  45.680  50.919  1.00  0.00     0.058 C 
ATOM      5  C   UNL     1       3.499  46.607  51.460  1.00  0.00     0.027 C 
ATOM      6  C   UNL     1       3.168  46.338  52.946  1.00  0.00     0.086 C 
ENDROOT
BRANCH   1   7
ATOM      7  C   UNL     1       3.632  44.948  54.903  1.00  0.00     0.159 C 
BRANCH   7   8
ATOM      8  C   UNL     1       2.145  44.853  55.066  1.00  0.00     0.124 A 
ATOM      9  O   UNL     1      -0.579  42.883  53.948  1.00  0.00    -0.265 OA
ATOM     10  C   UNL     1       0.076  43.754  54.579  1.00  0.00     0.294 A 
ATOM     11  N   UNL     1       1.420  43.907  54.375  1.00  0.00    -0.306 N 
ATOM     12  C   UNL     1      -0.542  44.579  55.507  1.00  0.00     0.218 A 
ATOM     13  O   UNL     1      -1.804  44.613  55.889  1.00  0.00    -0.449 OA
ATOM     14  C   UNL     1       0.199  45.513  56.173  1.00  0.00     0.124 A 
ATOM     15  N   UNL     1       1.530  45.662  55.983  1.00  0.00    -0.229 NA
ATOM     16  C   UNL     1      -1.885  45.564  56.804  1.00  0.00     0.137 A 
ATOM     17  C   UNL     1      -0.658  46.161  57.019  1.00  0.00     0.047 A 
ATOM     18  C   UNL     1      -3.015  45.969  57.513  1.00  0.00     0.048 A 
ATOM     19  C   UNL     1      -0.478  47.188  57.942  1.00  0.00     0.014 A 
ATOM     20  C   UNL     1      -2.867  47.006  58.456  1.00  0.00     0.004 A 
ATOM     21  C   UNL     1      -1.606  47.611  58.668  1.00  0.00     0.001 A 
ATOM     22  H   UNL     1       1.903  43.282  53.691  1.00  0.00     0.171 HD
ENDBRANCH   7   8
ENDBRANCH   1   7
BRANCH   4  23
ATOM     23  C   UNL     1       5.963  46.058  51.486  1.00  0.00     0.110 A 
ATOM     24  N   UNL     1       7.148  45.622  50.972  1.00  0.00    -0.233 NA
ATOM     25  N   UNL     1       6.109  46.864  52.570  1.00  0.00    -0.342 N 
ATOM     26  C   UNL     1       8.055  46.188  51.786  1.00  0.00     0.089 A 
ATOM     27  C   UNL     1       7.435  46.930  52.747  1.00  0.00     0.065 A 
ATOM     28  C   UNL     1       9.442  46.082  51.721  1.00  0.00     0.030 A 
ATOM     29  C   UNL     1       8.146  47.624  53.722  1.00  0.00     0.028 A 
ATOM     30  C   UNL     1      10.196  46.774  52.689  1.00  0.00     0.002 A 
ATOM     31  C   UNL     1       9.550  47.539  53.687  1.00  0.00     0.002 A 
ATOM     32  H   UNL     1       5.363  47.326  53.137  1.00  0.00     0.168 HD
ENDBRANCH   4  23
TORSDOF 3
ENDMDL
