MODEL 1
REMARK VINA RESULT:    -8.431      0.000      0.000
REMARK INTER + INTRA:         -10.699
REMARK INTER:                  -9.910
REMARK INTRA:                  -0.789
REMARK UNBOUND:                -0.789
REMARK SMILES N#Cc1ccsc1S(=O)(=O)Nc1cccc2c1NC(=O)C2
REMARK SMILES IDX 11 1 8 3 9 4 10 5 7 6 1 7 2 8 3 9 4 10 5 11 6 12 12 13 13 14
REMARK SMILES IDX 17 15 14 16 18 17 16 18 15 19 19 20 21 21 20 22
REMARK H PARENT 11 2 18 23
ROOT
ATOM      1  N   UNL     1       5.980  46.885  52.299  1.00  0.00    -0.277 N 
ATOM      2  H   UNL     1       5.535  47.304  51.454  1.00  0.00     0.180 HD
ENDROOT
BRANCH   1   3
ATOM      3  S   UNL     1       4.927  46.117  53.442  1.00  0.00     0.272 S 
ATOM      4  O   UNL     1       4.516  47.111  54.491  1.00  0.00    -0.200 OA
ATOM      5  O   UNL     1       5.654  44.977  54.100  1.00  0.00    -0.200 OA
BRANCH   3   6
ATOM      6  C   UNL     1       3.484  45.527  52.628  1.00  0.00     0.158 A 
ATOM      7  N   UNL     1       5.490  43.181  50.845  1.00  0.00    -0.192 NA
ATOM      8  C   UNL     1       4.568  43.771  51.220  1.00  0.00     0.101 C 
ATOM      9  C   UNL     1       3.421  44.505  51.687  1.00  0.00     0.083 A 
ATOM     10  C   UNL     1       2.121  44.245  51.238  1.00  0.00     0.032 A 
ATOM     11  C   UNL     1       1.159  45.059  51.824  1.00  0.00     0.068 A 
ATOM     12  S   UNL     1       1.928  46.100  52.900  1.00  0.00    -0.129 S 
ENDBRANCH   3   6
ENDBRANCH   1   3
BRANCH   1  13
ATOM     13  C   UNL     1       7.413  46.811  52.387  1.00  0.00     0.073 A 
ATOM     14  C   UNL     1       8.133  47.517  53.377  1.00  0.00     0.029 A 
ATOM     15  C   UNL     1       8.150  46.035  51.479  1.00  0.00     0.069 A 
ATOM     16  C   UNL     1       9.536  47.426  53.448  1.00  0.00     0.003 A 
ATOM     17  N   UNL     1       7.635  45.226  50.433  1.00  0.00    -0.324 N 
ATOM     18  C   UNL     1       9.527  45.947  51.554  1.00  0.00    -0.013 A 
ATOM     19  C   UNL     1      10.243  46.635  52.532  1.00  0.00     0.006 A 
ATOM     20  C   UNL     1       8.781  44.621  49.845  1.00  0.00     0.228 C 
ATOM     21  C   UNL     1      10.063  45.033  50.499  1.00  0.00     0.138 C 
ATOM     22  O   UNL     1       8.708  43.819  48.877  1.00  0.00    -0.274 OA
ATOM     23  H   UNL     1       6.638  45.056  50.176  1.00  0.00     0.170 HD
ENDBRANCH   1  13
TORSDOF 3
ENDMDL
MODEL 2
REMARK VINA RESULT:    -8.421      2.007      5.839
REMARK INTER + INTRA:         -10.687
REMARK INTER:                 -10.252
REMARK INTRA:                  -0.435
REMARK UNBOUND:                -0.789
REMARK SMILES N#Cc1ccsc1S(=O)(=O)Nc1cccc2c1NC(=O)C2
REMARK SMILES IDX 11 1 8 3 9 4 10 5 7 6 1 7 2 8 3 9 4 10 5 11 6 12 12 13 13 14
REMARK SMILES IDX 17 15 14 16 18 17 16 18 15 19 19 20 21 21 20 22
REMARK H PARENT 11 2 18 23
ROOT
ATOM      1  N   UNL     1       5.222  45.997  51.813  1.00  0.00    -0.277 N 
ATOM      2  H   UNL     1       5.133  46.590  50.960  1.00  0.00     0.180 HD
ENDROOT
BRANCH   1   3
ATOM      3  S   UNL     1       6.309  46.552  53.045  1.00  0.00     0.272 S 
ATOM      4  O   UNL     1       6.153  45.700  54.272  1.00  0.00    -0.200 OA
ATOM      5  O   UNL     1       5.983  47.978  53.390  1.00  0.00    -0.200 OA
BRANCH   3   6
ATOM      6  C   UNL     1       7.971  46.430  52.480  1.00  0.00     0.158 A 
ATOM      7  N   UNL     1       9.037  48.313  55.314  1.00  0.00    -0.192 NA
ATOM      8  C   UNL     1       9.064  47.707  54.328  1.00  0.00     0.101 C 
ATOM      9  C   UNL     1       9.099  46.953  53.102  1.00  0.00     0.083 A 
ATOM     10  C   UNL     1      10.289  46.666  52.423  1.00  0.00     0.032 A 
ATOM     11  C   UNL     1      10.100  45.916  51.268  1.00  0.00     0.068 A 
ATOM     12  S   UNL     1       8.454  45.612  51.095  1.00  0.00    -0.129 S 
ENDBRANCH   3   6
ENDBRANCH   1   3
BRANCH   1  13
ATOM     13  C   UNL     1       4.338  44.879  51.999  1.00  0.00     0.073 A 
ATOM     14  C   UNL     1       3.152  44.990  52.758  1.00  0.00     0.029 A 
ATOM     15  C   UNL     1       4.633  43.628  51.434  1.00  0.00     0.069 A 
ATOM     16  C   UNL     1       2.299  43.883  52.924  1.00  0.00     0.003 A 
ATOM     17  N   UNL     1       5.744  43.301  50.616  1.00  0.00    -0.324 N 
ATOM     18  C   UNL     1       3.791  42.545  51.598  1.00  0.00    -0.013 A 
ATOM     19  C   UNL     1       2.615  42.648  52.340  1.00  0.00     0.006 A 
ATOM     20  C   UNL     1       5.553  41.934  50.273  1.00  0.00     0.228 C 
ATOM     21  C   UNL     1       4.312  41.347  50.871  1.00  0.00     0.138 C 
ATOM     22  O   UNL     1       6.352  41.296  49.538  1.00  0.00    -0.274 OA
ATOM     23  H   UNL     1       6.509  43.927  50.282  1.00  0.00     0.170 HD
ENDBRANCH   1  13
TORSDOF 3
ENDMDL
MODEL 3
REMARK VINA RESULT:    -8.395      1.972      2.945
REMARK INTER + INTRA:         -10.656
REMARK INTER:                 -10.048
REMARK INTRA:                  -0.608
REMARK UNBOUND:                -0.789
REMARK SMILES N#Cc1ccsc1S(=O)(=O)Nc1cccc2c1NC(=O)C2
REMARK SMILES IDX 11 1 8 3 9 4 10 5 7 6 1 7 2 8 3 9 4 10 5 11 6 12 12 13 13 14
REMARK SMILES IDX 17 15 14 16 18 17 16 18 15 19 19 20 21 21 20 22
REMARK H PARENT 11 2 18 23
ROOT
ATOM      1  N   UNL     1       5.244  46.120  52.457  1.00  0.00    -0.277 N 
ATOM      2  H   UNL     1       4.508  46.467  51.804  1.00  0.00     0.180 HD
ENDROOT
BRANCH   1   3
ATOM      3  S   UNL     1       4.709  45.493  53.983  1.00  0.00     0.272 S 
ATOM      4  O   UNL     1       4.546  46.624  54.959  1.00  0.00    -0.200 OA
ATOM      5  O   UNL     1       5.734  44.530  54.511  1.00  0.00    -0.200 OA
BRANCH   3   6
ATOM      6  C   UNL     1       3.158  44.685  53.791  1.00  0.00     0.158 A 
ATOM      7  N   UNL     1       4.551  42.712  51.168  1.00  0.00    -0.192 NA
ATOM      8  C   UNL     1       3.796  43.141  51.933  1.00  0.00     0.101 C 
ATOM      9  C   UNL     1       2.856  43.675  52.884  1.00  0.00     0.083 A 
ATOM     10  C   UNL     1       1.539  43.211  52.990  1.00  0.00     0.032 A 
ATOM     11  C   UNL     1       0.805  43.854  53.979  1.00  0.00     0.068 A 
ATOM     12  S   UNL     1       1.794  44.996  54.720  1.00  0.00    -0.129 S 
ENDBRANCH   3   6
ENDBRANCH   1   3
BRANCH   1  13
ATOM     13  C   UNL     1       6.605  46.017  52.005  1.00  0.00     0.073 A 
ATOM     14  C   UNL     1       6.937  45.371  50.793  1.00  0.00     0.029 A 
ATOM     15  C   UNL     1       7.656  46.552  52.765  1.00  0.00     0.069 A 
ATOM     16  C   UNL     1       8.276  45.285  50.369  1.00  0.00     0.003 A 
ATOM     17  N   UNL     1       7.550  47.264  53.988  1.00  0.00    -0.324 N 
ATOM     18  C   UNL     1       8.969  46.467  52.343  1.00  0.00    -0.013 A 
ATOM     19  C   UNL     1       9.305  45.838  51.145  1.00  0.00     0.006 A 
ATOM     20  C   UNL     1       8.887  47.623  54.316  1.00  0.00     0.228 C 
ATOM     21  C   UNL     1       9.887  47.143  53.310  1.00  0.00     0.138 C 
ATOM     22  O   UNL     1       9.184  48.281  55.348  1.00  0.00    -0.274 OA
ATOM     23  H   UNL     1       6.687  47.525  54.512  1.00  0.00     0.170 HD
ENDBRANCH   1  13
TORSDOF 3
ENDMDL
MODEL 4
REMARK VINA RESULT:    -8.351      2.238      6.466
REMARK INTER + INTRA:         -10.605
REMARK INTER:                 -10.108
REMARK INTRA:                  -0.497
REMARK UNBOUND:                -0.789
REMARK SMILES N#Cc1ccsc1S(=O)(=O)Nc1cccc2c1NC(=O)C2
REMARK SMILES IDX 11 1 8 3 9 4 10 5 7 6 1 7 2 8 3 9 4 10 5 11 6 12 12 13 13 14
REMARK SMILES IDX 17 15 14 16 18 17 16 18 15 19 19 20 21 21 20 22
REMARK H PARENT 11 2 18 23
ROOT
ATOM      1  N   UNL     1       5.385  45.967  51.568  1.00  0.00    -0.277 N 
ATOM      2  H   UNL     1       5.045  46.701  50.910  1.00  0.00     0.180 HD
ENDROOT
BRANCH   1   3
ATOM      3  S   UNL     1       6.377  46.496  52.889  1.00  0.00     0.272 S 
ATOM      4  O   UNL     1       6.137  45.613  54.080  1.00  0.00    -0.200 OA
ATOM      5  O   UNL     1       6.017  47.912  53.244  1.00  0.00    -0.200 OA
BRANCH   3   6
ATOM      6  C   UNL     1       8.075  46.395  52.443  1.00  0.00     0.158 A 
ATOM      7  N   UNL     1       8.911  48.321  55.325  1.00  0.00    -0.192 NA
ATOM      8  C   UNL     1       9.017  47.707  54.350  1.00  0.00     0.101 C 
ATOM      9  C   UNL     1       9.149  46.942  53.137  1.00  0.00     0.083 A 
ATOM     10  C   UNL     1      10.388  46.668  52.546  1.00  0.00     0.032 A 
ATOM     11  C   UNL     1      10.292  45.905  51.388  1.00  0.00     0.068 A 
ATOM     12  S   UNL     1       8.667  45.572  51.104  1.00  0.00    -0.129 S 
ENDBRANCH   3   6
ENDBRANCH   1   3
BRANCH   1  13
ATOM     13  C   UNL     1       4.887  44.623  51.457  1.00  0.00     0.073 A 
ATOM     14  C   UNL     1       5.507  43.671  50.617  1.00  0.00     0.029 A 
ATOM     15  C   UNL     1       3.756  44.213  52.179  1.00  0.00     0.069 A 
ATOM     16  C   UNL     1       5.005  42.358  50.527  1.00  0.00     0.003 A 
ATOM     17  N   UNL     1       3.002  44.989  53.097  1.00  0.00    -0.324 N 
ATOM     18  C   UNL     1       3.268  42.924  52.088  1.00  0.00    -0.013 A 
ATOM     19  C   UNL     1       3.878  41.976  51.268  1.00  0.00     0.006 A 
ATOM     20  C   UNL     1       1.999  44.104  53.582  1.00  0.00     0.228 C 
ATOM     21  C   UNL     1       2.082  42.735  52.979  1.00  0.00     0.138 C 
ATOM     22  O   UNL     1       1.138  44.449  54.434  1.00  0.00    -0.274 OA
ATOM     23  H   UNL     1       3.168  45.972  53.404  1.00  0.00     0.170 HD
ENDBRANCH   1  13
TORSDOF 3
ENDMDL
MODEL 5
REMARK VINA RESULT:    -8.349      2.333      3.679
REMARK INTER + INTRA:         -10.602
REMARK INTER:                 -10.004
REMARK INTRA:                  -0.598
REMARK UNBOUND:                -0.789
REMARK SMILES N#Cc1ccsc1S(=O)(=O)Nc1cccc2c1NC(=O)C2
REMARK SMILES IDX 11 1 8 3 9 4 10 5 7 6 1 7 2 8 3 9 4 10 5 11 6 12 12 13 13 14
REMARK SMILES IDX 17 15 14 16 18 17 16 18 15 19 19 20 21 21 20 22
REMARK H PARENT 11 2 18 23
ROOT
ATOM      1  N   UNL     1       5.263  46.378  52.196  1.00  0.00    -0.277 N 
ATOM      2  H   UNL     1       4.921  47.343  52.393  1.00  0.00     0.180 HD
ENDROOT
BRANCH   1   3
ATOM      3  S   UNL     1       4.067  45.125  52.103  1.00  0.00     0.272 S 
ATOM      4  O   UNL     1       4.745  43.785  52.114  1.00  0.00    -0.200 OA
ATOM      5  O   UNL     1       3.289  45.274  50.826  1.00  0.00    -0.200 OA
BRANCH   3   6
ATOM      6  C   UNL     1       2.986  45.222  53.487  1.00  0.00     0.158 A 
ATOM      7  N   UNL     1       5.818  45.248  55.654  1.00  0.00    -0.192 NA
ATOM      8  C   UNL     1       4.721  45.265  55.285  1.00  0.00     0.101 C 
ATOM      9  C   UNL     1       3.356  45.286  54.826  1.00  0.00     0.083 A 
ATOM     10  C   UNL     1       2.265  45.384  55.698  1.00  0.00     0.032 A 
ATOM     11  C   UNL     1       1.037  45.400  55.048  1.00  0.00     0.068 A 
ATOM     12  S   UNL     1       1.311  45.292  53.391  1.00  0.00    -0.129 S 
ENDBRANCH   3   6
ENDBRANCH   1   3
BRANCH   1  13
ATOM     13  C   UNL     1       6.641  46.168  51.845  1.00  0.00     0.073 A 
ATOM     14  C   UNL     1       7.010  45.485  50.665  1.00  0.00     0.029 A 
ATOM     15  C   UNL     1       7.672  46.632  52.676  1.00  0.00     0.069 A 
ATOM     16  C   UNL     1       8.366  45.294  50.339  1.00  0.00     0.003 A 
ATOM     17  N   UNL     1       7.533  47.364  53.883  1.00  0.00    -0.324 N 
ATOM     18  C   UNL     1       9.002  46.444  52.351  1.00  0.00    -0.013 A 
ATOM     19  C   UNL     1       9.374  45.778  51.185  1.00  0.00     0.006 A 
ATOM     20  C   UNL     1       8.866  47.626  54.306  1.00  0.00     0.228 C 
ATOM     21  C   UNL     1       9.897  47.061  53.378  1.00  0.00     0.138 C 
ATOM     22  O   UNL     1       9.136  48.272  55.352  1.00  0.00    -0.274 OA
ATOM     23  H   UNL     1       6.656  47.695  54.342  1.00  0.00     0.170 HD
ENDBRANCH   1  13
TORSDOF 3
ENDMDL
