ligand_47_conformer_1_docked
     RDKit          3D

 43 46  0  0  0  0  0  0  0  0999 V2000
    8.2930   43.6870   48.7110 C   0  0  0  0  0  0  0  0  0  0  0  0
    7.1280   43.7120   49.5920 N   0  0  0  0  0  0  0  0  0  0  0  0
    6.1790   42.7550   49.7410 C   0  0  0  0  0  0  0  0  0  0  0  0
    6.1480   41.6930   49.0610 O   0  0  0  0  0  0  0  0  0  0  0  0
    5.2760   43.0490   50.7100 N   0  0  0  0  0  0  0  0  0  0  0  0
    4.1710   42.2230   51.1870 C   0  0  0  0  0  0  0  0  0  0  0  0
    5.7060   44.2240   51.2120 C   0  0  0  0  0  0  0  0  0  0  0  0
    5.1840   44.9620   52.2730 C   0  0  0  0  0  0  0  0  0  0  0  0
    5.8270   46.1670   52.6290 C   0  0  0  0  0  0  0  0  0  0  0  0
    5.1670   47.1360   53.9550 S   0  0  0  0  0  0  0  0  0  0  0  0
    4.6870   48.4680   53.4480 O   0  0  0  0  0  0  0  0  0  0  0  0
    6.2460   47.3600   54.9750 O   0  0  0  0  0  0  0  0  0  0  0  0
    3.8380   46.3200   54.7210 N   0  0  0  0  0  0  0  0  0  0  0  0
    2.7740   45.6600   54.0100 C   0  0  0  0  0  0  0  0  0  0  0  0
    2.0080   46.3260   53.0170 C   0  0  0  0  0  0  0  0  0  0  0  0
    0.9890   45.6480   52.3270 C   0  0  0  0  0  0  0  0  0  0  0  0
    0.7460   44.3120   52.6410 C   0  0  0  0  0  0  0  0  0  0  0  0
    1.4780   43.6670   53.5940 C   0  0  0  0  0  0  0  0  0  0  0  0
    2.4970   44.3070   54.2970 C   0  0  0  0  0  0  0  0  0  0  0  0
    1.0690   42.3260   53.7450 N   0  0  0  0  0  0  0  0  0  0  0  0
   -0.0240   42.0630   52.8130 C   0  0  0  0  0  0  0  0  0  0  0  0
   -0.2650   43.3920   52.0510 C   0  0  0  0  0  0  0  0  0  0  0  0
    7.0040   46.5740   51.9310 C   0  0  0  0  0  0  0  0  0  0  0  0
    7.9730   48.1620   52.3960 Br  0  0  0  0  0  0  0  0  0  0  0  0
    7.5080   45.7920   50.8740 C   0  0  0  0  0  0  0  0  0  0  0  0
    6.8250   44.6260   50.5360 C   0  0  0  0  0  0  0  0  0  0  0  0
    9.2107   43.6673   49.3171 H   0  0  0  0  0  0  0  0  0  0  0  0
    8.2535   42.7895   48.0762 H   0  0  0  0  0  0  0  0  0  0  0  0
    8.2920   44.5854   48.0762 H   0  0  0  0  0  0  0  0  0  0  0  0
    4.1649   42.2184   52.2870 H   0  0  0  0  0  0  0  0  0  0  0  0
    3.2200   42.6334   50.8167 H   0  0  0  0  0  0  0  0  0  0  0  0
    4.2955   41.1947   50.8167 H   0  0  0  0  0  0  0  0  0  0  0  0
    4.2943   44.6144   52.8185 H   0  0  0  0  0  0  0  0  0  0  0  0
    3.8230   46.3230   55.7650 H   0  0  0  0  0  0  0  0  0  0  0  0
    2.2141   47.3815   52.7860 H   0  0  0  0  0  0  0  0  0  0  0  0
    0.3957   46.1606   51.5555 H   0  0  0  0  0  0  0  0  0  0  0  0
    3.0747   43.7670   55.0616 H   0  0  0  0  0  0  0  0  0  0  0  0
    1.4800   41.6340   54.4110 H   0  0  0  0  0  0  0  0  0  0  0  0
    0.2568   41.2649   52.1101 H   0  0  0  0  0  0  0  0  0  0  0  0
   -0.9308   41.7300   53.3391 H   0  0  0  0  0  0  0  0  0  0  0  0
   -0.0983   43.2632   50.9714 H   0  0  0  0  0  0  0  0  0  0  0  0
   -1.2955   43.7642   52.1491 H   0  0  0  0  0  0  0  0  0  0  0  0
    8.4156   46.0934   50.3305 H   0  0  0  0  0  0  0  0  0  0  0  0
  1  2  1  0
  2  3  1  0
  3  4  2  0
  3  5  1  0
  5  6  1  0
  5  7  1  0
  7  8  2  0
  8  9  1  0
  9 10  1  0
 10 11  2  0
 10 12  2  0
 10 13  1  0
 13 14  1  0
 14 15  2  0
 15 16  1  0
 16 17  2  0
 17 18  1  0
 18 19  2  0
 18 20  1  0
 20 21  1  0
 21 22  1  0
  9 23  2  0
 23 24  1  0
 23 25  1  0
 25 26  2  0
 26  2  1  0
 26  7  1  0
 19 14  1  0
 22 17  1  0
  1 27  1  0
  1 28  1  0
  1 29  1  0
  6 30  1  0
  6 31  1  0
  6 32  1  0
  8 33  1  0
 13 34  1  0
 15 35  1  0
 16 36  1  0
 19 37  1  0
 20 38  1  0
 21 39  1  0
 21 40  1  0
 22 41  1  0
 22 42  1  0
 25 43  1  0
M  END
>  <meeko>  (1) 
{"is_sidechain": [false], "free_energy": -9.357, "intermolecular_energy": -10.998, "internal_energy": -0.111}

$$$$
ligand_47_conformer_1_docked
     RDKit          3D

 43 46  0  0  0  0  0  0  0  0999 V2000
   -2.0710   43.7450   56.0880 C   0  0  0  0  0  0  0  0  0  0  0  0
   -1.6520   43.9660   54.7050 N   0  0  0  0  0  0  0  0  0  0  0  0
   -2.4100   43.8810   53.5840 C   0  0  0  0  0  0  0  0  0  0  0  0
   -3.6200   43.5240   53.5870 O   0  0  0  0  0  0  0  0  0  0  0  0
   -1.7370   44.2360   52.4610 N   0  0  0  0  0  0  0  0  0  0  0  0
   -2.2530   44.3320   51.0990 C   0  0  0  0  0  0  0  0  0  0  0  0
   -0.5170   44.5960   52.9090 C   0  0  0  0  0  0  0  0  0  0  0  0
    0.5610   45.1030   52.1880 C   0  0  0  0  0  0  0  0  0  0  0  0
    1.7420   45.4270   52.8910 C   0  0  0  0  0  0  0  0  0  0  0  0
    3.1360   46.0450   51.9940 S   0  0  0  0  0  0  0  0  0  0  0  0
    3.5110   47.4180   52.4790 O   0  0  0  0  0  0  0  0  0  0  0  0
    2.7780   46.1220   50.5370 O   0  0  0  0  0  0  0  0  0  0  0  0
    4.5090   44.9960   52.1740 N   0  0  0  0  0  0  0  0  0  0  0  0
    5.8780   45.4310   52.0840 C   0  0  0  0  0  0  0  0  0  0  0  0
    6.5980   45.4000   50.8610 C   0  0  0  0  0  0  0  0  0  0  0  0
    7.9280   45.8490   50.8020 C   0  0  0  0  0  0  0  0  0  0  0  0
    8.5230   46.3230   51.9690 C   0  0  0  0  0  0  0  0  0  0  0  0
    7.8370   46.3560   53.1480 C   0  0  0  0  0  0  0  0  0  0  0  0
    6.5170   45.9190   53.2430 C   0  0  0  0  0  0  0  0  0  0  0  0
    8.6260   46.8760   54.1950 N   0  0  0  0  0  0  0  0  0  0  0  0
    9.9440   47.2160   53.6630 C   0  0  0  0  0  0  0  0  0  0  0  0
    9.9030   46.8520   52.1560 C   0  0  0  0  0  0  0  0  0  0  0  0
    1.7860   45.2690   54.3090 C   0  0  0  0  0  0  0  0  0  0  0  0
    3.3280   45.7480   55.3450 Br  0  0  0  0  0  0  0  0  0  0  0  0
    0.6680   44.7680   55.0030 C   0  0  0  0  0  0  0  0  0  0  0  0
   -0.4650   44.4330   54.2660 C   0  0  0  0  0  0  0  0  0  0  0  0
   -1.3083   44.1473   56.7709 H   0  0  0  0  0  0  0  0  0  0  0  0
   -3.0290   44.2551   56.2669 H   0  0  0  0  0  0  0  0  0  0  0  0
   -2.1910   42.6663   56.2669 H   0  0  0  0  0  0  0  0  0  0  0  0
   -3.3340   44.5331   51.1298 H   0  0  0  0  0  0  0  0  0  0  0  0
   -1.7426   45.1506   50.5704 H   0  0  0  0  0  0  0  0  0  0  0  0
   -2.0712   43.3846   50.5704 H   0  0  0  0  0  0  0  0  0  0  0  0
    0.4943   45.2473   51.0995 H   0  0  0  0  0  0  0  0  0  0  0  0
    4.3100   43.9860   52.3540 H   0  0  0  0  0  0  0  0  0  0  0  0
    6.1101   45.0209   49.9510 H   0  0  0  0  0  0  0  0  0  0  0  0
    8.4872   45.8267   49.8550 H   0  0  0  0  0  0  0  0  0  0  0  0
    5.9832   45.9540   54.2042 H   0  0  0  0  0  0  0  0  0  0  0  0
    8.3210   47.0000   55.1860 H   0  0  0  0  0  0  0  0  0  0  0  0
   10.1427   48.2902   53.7916 H   0  0  0  0  0  0  0  0  0  0  0  0
   10.7431   46.6717   54.1876 H   0  0  0  0  0  0  0  0  0  0  0  0
   10.0722   47.7412   51.5310 H   0  0  0  0  0  0  0  0  0  0  0  0
   10.6829   46.1328   51.8654 H   0  0  0  0  0  0  0  0  0  0  0  0
    0.6890   44.6448   56.0959 H   0  0  0  0  0  0  0  0  0  0  0  0
  1  2  1  0
  2  3  1  0
  3  4  2  0
  3  5  1  0
  5  6  1  0
  5  7  1  0
  7  8  2  0
  8  9  1  0
  9 10  1  0
 10 11  2  0
 10 12  2  0
 10 13  1  0
 13 14  1  0
 14 15  2  0
 15 16  1  0
 16 17  2  0
 17 18  1  0
 18 19  2  0
 18 20  1  0
 20 21  1  0
 21 22  1  0
  9 23  2  0
 23 24  1  0
 23 25  1  0
 25 26  2  0
 26  2  1  0
 26  7  1  0
 19 14  1  0
 22 17  1  0
  1 27  1  0
  1 28  1  0
  1 29  1  0
  6 30  1  0
  6 31  1  0
  6 32  1  0
  8 33  1  0
 13 34  1  0
 15 35  1  0
 16 36  1  0
 19 37  1  0
 20 38  1  0
 21 39  1  0
 21 40  1  0
 22 41  1  0
 22 42  1  0
 25 43  1  0
M  END
>  <meeko>  (2) 
{"is_sidechain": [false], "free_energy": -9.221, "intermolecular_energy": -10.635, "internal_energy": -0.314}

$$$$
ligand_47_conformer_1_docked
     RDKit          3D

 43 46  0  0  0  0  0  0  0  0999 V2000
    0.8700   42.7060   53.5600 C   0  0  0  0  0  0  0  0  0  0  0  0
    2.0730   43.4830   53.2700 N   0  0  0  0  0  0  0  0  0  0  0  0
    2.5750   44.5300   53.9720 C   0  0  0  0  0  0  0  0  0  0  0  0
    2.0070   45.0270   54.9820 O   0  0  0  0  0  0  0  0  0  0  0  0
    3.7610   44.9740   53.4850 N   0  0  0  0  0  0  0  0  0  0  0  0
    4.6150   46.0260   54.0270 C   0  0  0  0  0  0  0  0  0  0  0  0
    4.0270   44.1420   52.4580 C   0  0  0  0  0  0  0  0  0  0  0  0
    5.1510   44.1040   51.6360 C   0  0  0  0  0  0  0  0  0  0  0  0
    5.2090   43.1160   50.6280 C   0  0  0  0  0  0  0  0  0  0  0  0
    6.6130   43.0650   49.5520 S   0  0  0  0  0  0  0  0  0  0  0  0
    6.2040   42.6410   48.1690 O   0  0  0  0  0  0  0  0  0  0  0  0
    7.6040   42.0760   50.0960 O   0  0  0  0  0  0  0  0  0  0  0  0
    7.3790   44.6220   49.4540 N   0  0  0  0  0  0  0  0  0  0  0  0
    8.1810   45.1970   50.5010 C   0  0  0  0  0  0  0  0  0  0  0  0
    9.5770   44.9590   50.5960 C   0  0  0  0  0  0  0  0  0  0  0  0
   10.3360   45.5500   51.6200 C   0  0  0  0  0  0  0  0  0  0  0  0
    9.6880   46.3740   52.5380 C   0  0  0  0  0  0  0  0  0  0  0  0
    8.3470   46.6080   52.4530 C   0  0  0  0  0  0  0  0  0  0  0  0
    7.5630   46.0380   51.4510 C   0  0  0  0  0  0  0  0  0  0  0  0
    7.9030   47.4710   53.4770 N   0  0  0  0  0  0  0  0  0  0  0  0
    9.0470   47.8380   54.3070 C   0  0  0  0  0  0  0  0  0  0  0  0
   10.2700   47.1090   53.6950 C   0  0  0  0  0  0  0  0  0  0  0  0
    4.1490   42.1680   50.5060 C   0  0  0  0  0  0  0  0  0  0  0  0
    4.1820   40.7570   49.2080 Br  0  0  0  0  0  0  0  0  0  0  0  0
    3.0360   42.2320   51.3670 C   0  0  0  0  0  0  0  0  0  0  0  0
    3.0060   43.2400   52.3270 C   0  0  0  0  0  0  0  0  0  0  0  0
    0.7410   42.6227   54.6492 H   0  0  0  0  0  0  0  0  0  0  0  0
   -0.0056   43.2096   53.1245 H   0  0  0  0  0  0  0  0  0  0  0  0
    0.9690   41.7007   53.1245 H   0  0  0  0  0  0  0  0  0  0  0  0
    4.5868   45.9913   55.1261 H   0  0  0  0  0  0  0  0  0  0  0  0
    5.6483   45.8738   53.6817 H   0  0  0  0  0  0  0  0  0  0  0  0
    4.2536   47.0059   53.6817 H   0  0  0  0  0  0  0  0  0  0  0  0
    5.9717   44.8243   51.7683 H   0  0  0  0  0  0  0  0  0  0  0  0
    7.2320   45.1640   48.5730 H   0  0  0  0  0  0  0  0  0  0  0  0
   10.0694   44.3055   49.8608 H   0  0  0  0  0  0  0  0  0  0  0  0
   11.4179   45.3663   51.6954 H   0  0  0  0  0  0  0  0  0  0  0  0
    6.4828   46.2400   51.4018 H   0  0  0  0  0  0  0  0  0  0  0  0
    6.9200   47.7940   53.6180 H   0  0  0  0  0  0  0  0  0  0  0  0
    9.2011   48.9270   54.2856 H   0  0  0  0  0  0  0  0  0  0  0  0
    8.8912   47.5513   55.3575 H   0  0  0  0  0  0  0  0  0  0  0  0
   11.0315   47.8293   53.3614 H   0  0  0  0  0  0  0  0  0  0  0  0
   10.7800   46.4485   54.4117 H   0  0  0  0  0  0  0  0  0  0  0  0
    2.2138   41.5061   51.2833 H   0  0  0  0  0  0  0  0  0  0  0  0
  1  2  1  0
  2  3  1  0
  3  4  2  0
  3  5  1  0
  5  6  1  0
  5  7  1  0
  7  8  2  0
  8  9  1  0
  9 10  1  0
 10 11  2  0
 10 12  2  0
 10 13  1  0
 13 14  1  0
 14 15  2  0
 15 16  1  0
 16 17  2  0
 17 18  1  0
 18 19  2  0
 18 20  1  0
 20 21  1  0
 21 22  1  0
  9 23  2  0
 23 24  1  0
 23 25  1  0
 25 26  2  0
 26  2  1  0
 26  7  1  0
 19 14  1  0
 22 17  1  0
  1 27  1  0
  1 28  1  0
  1 29  1  0
  6 30  1  0
  6 31  1  0
  6 32  1  0
  8 33  1  0
 13 34  1  0
 15 35  1  0
 16 36  1  0
 19 37  1  0
 20 38  1  0
 21 39  1  0
 21 40  1  0
 22 41  1  0
 22 42  1  0
 25 43  1  0
M  END
>  <meeko>  (3) 
{"is_sidechain": [false], "free_energy": -9.009, "intermolecular_energy": -10.861, "internal_energy": 0.162}

$$$$
ligand_47_conformer_1_docked
     RDKit          3D

 43 46  0  0  0  0  0  0  0  0999 V2000
    3.4430   40.2410   49.4620 C   0  0  0  0  0  0  0  0  0  0  0  0
    4.2010   41.3920   49.9480 N   0  0  0  0  0  0  0  0  0  0  0  0
    5.3990   41.8460   49.5030 C   0  0  0  0  0  0  0  0  0  0  0  0
    6.0730   41.2680   48.6070 O   0  0  0  0  0  0  0  0  0  0  0  0
    5.7890   42.9950   50.1090 N   0  0  0  0  0  0  0  0  0  0  0  0
    6.9770   43.7970   49.8310 C   0  0  0  0  0  0  0  0  0  0  0  0
    4.7690   43.2910   50.9400 C   0  0  0  0  0  0  0  0  0  0  0  0
    4.6120   44.4000   51.7670 C   0  0  0  0  0  0  0  0  0  0  0  0
    3.4340   44.4970   52.5390 C   0  0  0  0  0  0  0  0  0  0  0  0
    3.2240   45.8830   53.6200 S   0  0  0  0  0  0  0  0  0  0  0  0
    3.4360   45.4740   55.0510 O   0  0  0  0  0  0  0  0  0  0  0  0
    1.8270   46.4120   53.4630 O   0  0  0  0  0  0  0  0  0  0  0  0
    4.3460   47.1510   53.2300 N   0  0  0  0  0  0  0  0  0  0  0  0
    5.7760   47.0310   53.3440 C   0  0  0  0  0  0  0  0  0  0  0  0
    6.4380   47.0790   54.5990 C   0  0  0  0  0  0  0  0  0  0  0  0
    7.8330   46.9390   54.6770 C   0  0  0  0  0  0  0  0  0  0  0  0
    8.5520   46.7540   53.4970 C   0  0  0  0  0  0  0  0  0  0  0  0
    7.9230   46.7060   52.2880 C   0  0  0  0  0  0  0  0  0  0  0  0
    6.5400   46.8410   52.1730 C   0  0  0  0  0  0  0  0  0  0  0  0
    8.8370   46.5070   51.2330 N   0  0  0  0  0  0  0  0  0  0  0  0
   10.1830   46.4140   51.7930 C   0  0  0  0  0  0  0  0  0  0  0  0
   10.0210   46.5780   53.3260 C   0  0  0  0  0  0  0  0  0  0  0  0
    2.4280   43.4910   52.4240 C   0  0  0  0  0  0  0  0  0  0  0  0
    0.7730   43.5820   53.3880 Br  0  0  0  0  0  0  0  0  0  0  0  0
    2.6190   42.3920   51.5640 C   0  0  0  0  0  0  0  0  0  0  0  0
    3.8080   42.3210   50.8430 C   0  0  0  0  0  0  0  0  0  0  0  0
    3.0631   39.6642   50.3181 H   0  0  0  0  0  0  0  0  0  0  0  0
    2.5976   40.5902   48.8510 H   0  0  0  0  0  0  0  0  0  0  0  0
    4.0978   39.6022   48.8510 H   0  0  0  0  0  0  0  0  0  0  0  0
    7.4390   44.1089   50.7793 H   0  0  0  0  0  0  0  0  0  0  0  0
    7.6960   43.1988   49.2521 H   0  0  0  0  0  0  0  0  0  0  0  0
    6.6910   44.6876   49.2521 H   0  0  0  0  0  0  0  0  0  0  0  0
    5.3857   45.1803   51.8175 H   0  0  0  0  0  0  0  0  0  0  0  0
    3.9400   48.0550   52.9000 H   0  0  0  0  0  0  0  0  0  0  0  0
    5.8528   47.2272   55.5186 H   0  0  0  0  0  0  0  0  0  0  0  0
    8.3476   46.9745   55.6486 H   0  0  0  0  0  0  0  0  0  0  0  0
    6.0534   46.8001   51.1873 H   0  0  0  0  0  0  0  0  0  0  0  0
    8.5930   46.4350   50.2200 H   0  0  0  0  0  0  0  0  0  0  0  0
   10.6277   45.4357   51.5583 H   0  0  0  0  0  0  0  0  0  0  0  0
   10.8476   47.1837   51.3737 H   0  0  0  0  0  0  0  0  0  0  0  0
   10.3754   45.6828   53.8579 H   0  0  0  0  0  0  0  0  0  0  0  0
   10.6058   47.4155   53.7341 H   0  0  0  0  0  0  0  0  0  0  0  0
    1.8502   41.6115   51.4647 H   0  0  0  0  0  0  0  0  0  0  0  0
  1  2  1  0
  2  3  1  0
  3  4  2  0
  3  5  1  0
  5  6  1  0
  5  7  1  0
  7  8  2  0
  8  9  1  0
  9 10  1  0
 10 11  2  0
 10 12  2  0
 10 13  1  0
 13 14  1  0
 14 15  2  0
 15 16  1  0
 16 17  2  0
 17 18  1  0
 18 19  2  0
 18 20  1  0
 20 21  1  0
 21 22  1  0
  9 23  2  0
 23 24  1  0
 23 25  1  0
 25 26  2  0
 26  2  1  0
 26  7  1  0
 19 14  1  0
 22 17  1  0
  1 27  1  0
  1 28  1  0
  1 29  1  0
  6 30  1  0
  6 31  1  0
  6 32  1  0
  8 33  1  0
 13 34  1  0
 15 35  1  0
 16 36  1  0
 19 37  1  0
 20 38  1  0
 21 39  1  0
 21 40  1  0
 22 41  1  0
 22 42  1  0
 25 43  1  0
M  END
>  <meeko>  (4) 
{"is_sidechain": [false], "free_energy": -8.907, "intermolecular_energy": -10.671, "internal_energy": 0.091}

$$$$
ligand_47_conformer_1_docked
     RDKit          3D

 43 46  0  0  0  0  0  0  0  0999 V2000
   -3.2260   43.8480   55.6390 C   0  0  0  0  0  0  0  0  0  0  0  0
   -1.9280   44.5130   55.7310 N   0  0  0  0  0  0  0  0  0  0  0  0
   -1.3780   45.1140   56.8140 C   0  0  0  0  0  0  0  0  0  0  0  0
   -1.9710   45.2330   57.9210 O   0  0  0  0  0  0  0  0  0  0  0  0
   -0.1160   45.5590   56.5900 N   0  0  0  0  0  0  0  0  0  0  0  0
    0.7970   46.1840   57.5430 C   0  0  0  0  0  0  0  0  0  0  0  0
    0.1440   45.1830   55.3220 C   0  0  0  0  0  0  0  0  0  0  0  0
    1.3210   45.3330   54.5930 C   0  0  0  0  0  0  0  0  0  0  0  0
    1.3570   44.8350   53.2720 C   0  0  0  0  0  0  0  0  0  0  0  0
    2.8310   45.0390   52.3150 S   0  0  0  0  0  0  0  0  0  0  0  0
    2.5160   45.6630   50.9840 O   0  0  0  0  0  0  0  0  0  0  0  0
    3.4520   43.6900   52.0880 O   0  0  0  0  0  0  0  0  0  0  0  0
    3.9780   46.0460   53.1450 N   0  0  0  0  0  0  0  0  0  0  0  0
    5.3700   46.1510   52.7900 C   0  0  0  0  0  0  0  0  0  0  0  0
    5.8400   45.8310   51.4900 C   0  0  0  0  0  0  0  0  0  0  0  0
    7.2020   45.9620   51.1700 C   0  0  0  0  0  0  0  0  0  0  0  0
    8.0780   46.4100   52.1570 C   0  0  0  0  0  0  0  0  0  0  0  0
    7.6330   46.7190   53.4080 C   0  0  0  0  0  0  0  0  0  0  0  0
    6.2890   46.6020   53.7610 C   0  0  0  0  0  0  0  0  0  0  0  0
    8.6830   47.1560   54.2420 N   0  0  0  0  0  0  0  0  0  0  0  0
    9.9270   47.1330   53.4760 C   0  0  0  0  0  0  0  0  0  0  0  0
    9.5470   46.6330   52.0590 C   0  0  0  0  0  0  0  0  0  0  0  0
    0.2160   44.1620   52.7380 C   0  0  0  0  0  0  0  0  0  0  0  0
    0.2070   43.4000   50.9790 Br  0  0  0  0  0  0  0  0  0  0  0  0
   -0.9500   44.0180   53.5150 C   0  0  0  0  0  0  0  0  0  0  0  0
   -0.9520   44.5500   54.8020 C   0  0  0  0  0  0  0  0  0  0  0  0
   -3.6098   43.6514   56.6510 H   0  0  0  0  0  0  0  0  0  0  0  0
   -3.9322   44.4954   55.0984 H   0  0  0  0  0  0  0  0  0  0  0  0
   -3.1131   42.8967   55.0984 H   0  0  0  0  0  0  0  0  0  0  0  0
    0.4677   45.9586   58.5681 H   0  0  0  0  0  0  0  0  0  0  0  0
    1.8128   45.7910   57.3894 H   0  0  0  0  0  0  0  0  0  0  0  0
    0.7982   47.2732   57.3894 H   0  0  0  0  0  0  0  0  0  0  0  0
    2.1995   45.8264   55.0345 H   0  0  0  0  0  0  0  0  0  0  0  0
    3.6200   46.6000   53.9550 H   0  0  0  0  0  0  0  0  0  0  0  0
    5.1320   45.4773   50.7260 H   0  0  0  0  0  0  0  0  0  0  0  0
    7.5687   45.7163   50.1625 H   0  0  0  0  0  0  0  0  0  0  0  0
    5.9519   46.8564   54.7767 H   0  0  0  0  0  0  0  0  0  0  0  0
    8.5890   47.4470   55.2400 H   0  0  0  0  0  0  0  0  0  0  0  0
   10.3610   48.1423   53.4215 H   0  0  0  0  0  0  0  0  0  0  0  0
   10.6774   46.4802   53.9458 H   0  0  0  0  0  0  0  0  0  0  0  0
    9.7805   47.3918   51.2976 H   0  0  0  0  0  0  0  0  0  0  0  0
   10.1002   45.7311   51.7580 H   0  0  0  0  0  0  0  0  0  0  0  0
   -1.8345   43.4997   53.1163 H   0  0  0  0  0  0  0  0  0  0  0  0
  1  2  1  0
  2  3  1  0
  3  4  2  0
  3  5  1  0
  5  6  1  0
  5  7  1  0
  7  8  2  0
  8  9  1  0
  9 10  1  0
 10 11  2  0
 10 12  2  0
 10 13  1  0
 13 14  1  0
 14 15  2  0
 15 16  1  0
 16 17  2  0
 17 18  1  0
 18 19  2  0
 18 20  1  0
 20 21  1  0
 21 22  1  0
  9 23  2  0
 23 24  1  0
 23 25  1  0
 25 26  2  0
 26  2  1  0
 26  7  1  0
 19 14  1  0
 22 17  1  0
  1 27  1  0
  1 28  1  0
  1 29  1  0
  6 30  1  0
  6 31  1  0
  6 32  1  0
  8 33  1  0
 13 34  1  0
 15 35  1  0
 16 36  1  0
 19 37  1  0
 20 38  1  0
 21 39  1  0
 21 40  1  0
 22 41  1  0
 22 42  1  0
 25 43  1  0
M  END
>  <meeko>  (5) 
{"is_sidechain": [false], "free_energy": -8.604, "intermolecular_energy": -10.147, "internal_energy": -0.077}

$$$$
