ligand_85_conformer_5_docked
     RDKit          3D

 44 47  0  0  0  0  0  0  0  0999 V2000
    7.2610   43.0510   49.2740 C   0  0  0  0  0  0  0  0  0  0  0  0
    6.6390   44.2030   50.0570 C   0  0  0  0  0  0  0  0  0  0  0  0
    7.5950   45.3940   50.1520 C   0  0  0  0  0  0  0  0  0  0  0  0
    7.3230   46.1550   51.3700 N   0  0  0  0  0  0  0  0  0  0  0  0
    6.0970   46.4570   51.7840 N   0  0  0  0  0  0  0  0  0  0  0  0
    6.2070   47.0800   52.9810 C   0  0  0  0  0  0  0  0  0  0  0  0
    5.0920   47.5150   53.7700 N   0  0  0  0  0  0  0  0  0  0  0  0
    4.4720   46.6490   54.7670 C   0  0  0  0  0  0  0  0  0  0  0  0
    3.5150   45.7060   54.1070 C   0  0  0  0  0  0  0  0  0  0  0  0
    3.8830   44.5510   53.5170 N   0  0  0  0  0  0  0  0  0  0  0  0
    2.6840   44.0780   53.1100 C   0  0  0  0  0  0  0  0  0  0  0  0
    2.5050   42.7710   52.4060 C   0  0  0  0  0  0  0  0  0  0  0  0
    3.4520   42.6910   51.2040 C   0  0  0  0  0  0  0  0  0  0  0  0
    3.2080   41.5090   50.2780 C   0  0  0  0  0  0  0  0  0  0  0  0
    4.4200   41.5180   51.1970 C   0  0  0  0  0  0  0  0  0  0  0  0
    1.6610   44.8920   53.4400 N   0  0  0  0  0  0  0  0  0  0  0  0
    2.2190   45.8910   54.0530 O   0  0  0  0  0  0  0  0  0  0  0  0
    7.5370   47.1560   53.3380 C   0  0  0  0  0  0  0  0  0  0  0  0
    8.1890   47.6340   54.4720 C   0  0  0  0  0  0  0  0  0  0  0  0
    9.5880   47.4900   54.5270 C   0  0  0  0  0  0  0  0  0  0  0  0
   10.2870   46.8710   53.4640 C   0  0  0  0  0  0  0  0  0  0  0  0
    9.5960   46.3910   52.3350 C   0  0  0  0  0  0  0  0  0  0  0  0
    8.2110   46.5580   52.3060 C   0  0  0  0  0  0  0  0  0  0  0  0
    7.6634   42.3057   49.9758 H   0  0  0  0  0  0  0  0  0  0  0  0
    6.4937   42.5816   48.6408 H   0  0  0  0  0  0  0  0  0  0  0  0
    8.0744   43.4350   48.6408 H   0  0  0  0  0  0  0  0  0  0  0  0
    5.7170   44.5237   49.5500 H   0  0  0  0  0  0  0  0  0  0  0  0
    6.4218   43.8513   51.0764 H   0  0  0  0  0  0  0  0  0  0  0  0
    8.6321   45.0282   50.1746 H   0  0  0  0  0  0  0  0  0  0  0  0
    7.4493   46.0457   49.2779 H   0  0  0  0  0  0  0  0  0  0  0  0
    4.7050   48.4750   53.6250 H   0  0  0  0  0  0  0  0  0  0  0  0
    5.2531   46.0719   55.2836 H   0  0  0  0  0  0  0  0  0  0  0  0
    3.9237   47.2695   55.4911 H   0  0  0  0  0  0  0  0  0  0  0  0
    2.7285   41.9487   53.1016 H   0  0  0  0  0  0  0  0  0  0  0  0
    1.4660   42.6890   52.0541 H   0  0  0  0  0  0  0  0  0  0  0  0
    3.5552   43.7791   51.0796 H   0  0  0  0  0  0  0  0  0  0  0  0
    2.3738   40.8194   50.4745 H   0  0  0  0  0  0  0  0  0  0  0  0
    3.0533   41.3877   49.1957 H   0  0  0  0  0  0  0  0  0  0  0  0
    4.4624   40.8348   52.0581 H   0  0  0  0  0  0  0  0  0  0  0  0
    5.5049   41.4058   51.0545 H   0  0  0  0  0  0  0  0  0  0  0  0
    7.6314   48.1065   55.2941 H   0  0  0  0  0  0  0  0  0  0  0  0
   10.1415   47.8611   55.4021 H   0  0  0  0  0  0  0  0  0  0  0  0
   11.3803   46.7637   53.5201 H   0  0  0  0  0  0  0  0  0  0  0  0
   10.1287   45.9021   51.5060 H   0  0  0  0  0  0  0  0  0  0  0  0
  1  2  1  0
  2  3  1  0
  3  4  1  0
  4  5  1  0
  5  6  2  0
  6  7  1  0
  7  8  1  0
  8  9  1  0
  9 10  2  0
 10 11  1  0
 11 12  1  0
 12 13  1  0
 13 14  1  0
 14 15  1  0
 11 16  2  0
 16 17  1  0
  6 18  1  0
 18 19  2  0
 19 20  1  0
 20 21  2  0
 21 22  1  0
 22 23  2  0
 23  4  1  0
 17  9  1  0
 23 18  1  0
 15 13  1  0
  1 24  1  0
  1 25  1  0
  1 26  1  0
  2 27  1  0
  2 28  1  0
  3 29  1  0
  3 30  1  0
  7 31  1  0
  8 32  1  0
  8 33  1  0
 12 34  1  0
 12 35  1  0
 13 36  1  0
 14 37  1  0
 14 38  1  0
 15 39  1  0
 15 40  1  0
 19 41  1  0
 20 42  1  0
 21 43  1  0
 22 44  1  0
M  END
>  <meeko>  (1) 
{"is_sidechain": [false], "free_energy": -8.251, "intermolecular_energy": -11.627, "internal_energy": -1.089}

$$$$
ligand_85_conformer_5_docked
     RDKit          3D

 44 47  0  0  0  0  0  0  0  0999 V2000
    4.0380   40.4780   48.3560 C   0  0  0  0  0  0  0  0  0  0  0  0
    3.3040   40.9150   49.6200 C   0  0  0  0  0  0  0  0  0  0  0  0
    4.2810   41.1810   50.7690 C   0  0  0  0  0  0  0  0  0  0  0  0
    4.6370   42.5980   50.8020 N   0  0  0  0  0  0  0  0  0  0  0  0
    3.9080   43.5200   51.4220 N   0  0  0  0  0  0  0  0  0  0  0  0
    4.5690   44.6980   51.3340 C   0  0  0  0  0  0  0  0  0  0  0  0
    4.1190   45.9220   51.9290 N   0  0  0  0  0  0  0  0  0  0  0  0
    4.2010   46.1530   53.3680 C   0  0  0  0  0  0  0  0  0  0  0  0
    5.5640   46.6500   53.7320 C   0  0  0  0  0  0  0  0  0  0  0  0
    6.4330   47.1820   52.8500 N   0  0  0  0  0  0  0  0  0  0  0  0
    7.4720   47.4830   53.6600 C   0  0  0  0  0  0  0  0  0  0  0  0
    8.7280   48.1420   53.1880 C   0  0  0  0  0  0  0  0  0  0  0  0
    9.8950   47.1530   53.2580 C   0  0  0  0  0  0  0  0  0  0  0  0
   10.2900   46.5370   51.9240 C   0  0  0  0  0  0  0  0  0  0  0  0
    9.5550   45.7010   52.9610 C   0  0  0  0  0  0  0  0  0  0  0  0
    7.2400   47.1580   54.9490 N   0  0  0  0  0  0  0  0  0  0  0  0
    6.0490   46.6420   54.9500 O   0  0  0  0  0  0  0  0  0  0  0  0
    5.7550   44.5080   50.6560 C   0  0  0  0  0  0  0  0  0  0  0  0
    6.8160   45.3550   50.3460 C   0  0  0  0  0  0  0  0  0  0  0  0
    7.9240   44.7930   49.6830 C   0  0  0  0  0  0  0  0  0  0  0  0
    7.9430   43.4160   49.3610 C   0  0  0  0  0  0  0  0  0  0  0  0
    6.8560   42.5860   49.6950 C   0  0  0  0  0  0  0  0  0  0  0  0
    5.7690   43.1750   50.3430 C   0  0  0  0  0  0  0  0  0  0  0  0
    4.9527   39.9334   48.6329 H   0  0  0  0  0  0  0  0  0  0  0  0
    3.3858   39.8210   47.7618 H   0  0  0  0  0  0  0  0  0  0  0  0
    4.3047   41.3645   47.7618 H   0  0  0  0  0  0  0  0  0  0  0  0
    2.7421   41.8364   49.4073 H   0  0  0  0  0  0  0  0  0  0  0  0
    2.6244   40.1051   49.9236 H   0  0  0  0  0  0  0  0  0  0  0  0
    3.8079   40.9016   51.7220 H   0  0  0  0  0  0  0  0  0  0  0  0
    5.1912   40.5826   50.6159 H   0  0  0  0  0  0  0  0  0  0  0  0
    3.7150   46.6690   51.3200 H   0  0  0  0  0  0  0  0  0  0  0  0
    3.4506   46.9026   53.6595 H   0  0  0  0  0  0  0  0  0  0  0  0
    4.0099   45.2071   53.8959 H   0  0  0  0  0  0  0  0  0  0  0  0
    8.5956   48.4766   52.1485 H   0  0  0  0  0  0  0  0  0  0  0  0
    8.9472   49.0061   53.8324 H   0  0  0  0  0  0  0  0  0  0  0  0
   10.4232   47.6724   54.0712 H   0  0  0  0  0  0  0  0  0  0  0  0
    9.7761   46.8459   51.0018 H   0  0  0  0  0  0  0  0  0  0  0  0
   11.2309   46.4311   51.3641 H   0  0  0  0  0  0  0  0  0  0  0  0
    8.5097   45.4052   52.7884 H   0  0  0  0  0  0  0  0  0  0  0  0
    9.7445   44.7399   53.4614 H   0  0  0  0  0  0  0  0  0  0  0  0
    6.7896   46.4227   50.6091 H   0  0  0  0  0  0  0  0  0  0  0  0
    8.7801   45.4291   49.4138 H   0  0  0  0  0  0  0  0  0  0  0  0
    8.8155   42.9894   48.8446 H   0  0  0  0  0  0  0  0  0  0  0  0
    6.8630   41.5127   49.4541 H   0  0  0  0  0  0  0  0  0  0  0  0
  1  2  1  0
  2  3  1  0
  3  4  1  0
  4  5  1  0
  5  6  2  0
  6  7  1  0
  7  8  1  0
  8  9  1  0
  9 10  2  0
 10 11  1  0
 11 12  1  0
 12 13  1  0
 13 14  1  0
 14 15  1  0
 11 16  2  0
 16 17  1  0
  6 18  1  0
 18 19  2  0
 19 20  1  0
 20 21  2  0
 21 22  1  0
 22 23  2  0
 23  4  1  0
 17  9  1  0
 23 18  1  0
 15 13  1  0
  1 24  1  0
  1 25  1  0
  1 26  1  0
  2 27  1  0
  2 28  1  0
  3 29  1  0
  3 30  1  0
  7 31  1  0
  8 32  1  0
  8 33  1  0
 12 34  1  0
 12 35  1  0
 13 36  1  0
 14 37  1  0
 14 38  1  0
 15 39  1  0
 15 40  1  0
 19 41  1  0
 20 42  1  0
 21 43  1  0
 22 44  1  0
M  END
>  <meeko>  (2) 
{"is_sidechain": [false], "free_energy": -8.213, "intermolecular_energy": -11.738, "internal_energy": -0.925}

$$$$
ligand_85_conformer_5_docked
     RDKit          3D

 44 47  0  0  0  0  0  0  0  0999 V2000
   10.9910   47.5590   56.2000 C   0  0  0  0  0  0  0  0  0  0  0  0
   10.1920   47.1060   54.9820 C   0  0  0  0  0  0  0  0  0  0  0  0
    9.0450   48.0730   54.6760 C   0  0  0  0  0  0  0  0  0  0  0  0
    7.9550   47.3590   54.0130 N   0  0  0  0  0  0  0  0  0  0  0  0
    6.7060   47.3480   54.4670 N   0  0  0  0  0  0  0  0  0  0  0  0
    5.9460   46.6750   53.5710 C   0  0  0  0  0  0  0  0  0  0  0  0
    4.5290   46.4960   53.6890 N   0  0  0  0  0  0  0  0  0  0  0  0
    3.9540   45.3230   54.3400 C   0  0  0  0  0  0  0  0  0  0  0  0
    3.5980   44.2900   53.3170 C   0  0  0  0  0  0  0  0  0  0  0  0
    4.4970   43.4890   52.7110 N   0  0  0  0  0  0  0  0  0  0  0  0
    3.6900   42.7480   51.9210 C   0  0  0  0  0  0  0  0  0  0  0  0
    4.1800   41.6520   51.0300 C   0  0  0  0  0  0  0  0  0  0  0  0
    5.1990   42.2080   50.0300 C   0  0  0  0  0  0  0  0  0  0  0  0
    5.5570   41.2630   48.8930 C   0  0  0  0  0  0  0  0  0  0  0  0
    6.5550   41.5200   50.0110 C   0  0  0  0  0  0  0  0  0  0  0  0
    2.3880   43.0760   52.0500 N   0  0  0  0  0  0  0  0  0  0  0  0
    2.3740   44.0380   52.9210 O   0  0  0  0  0  0  0  0  0  0  0  0
    6.7350   46.2680   52.5160 C   0  0  0  0  0  0  0  0  0  0  0  0
    6.4550   45.6080   51.3220 C   0  0  0  0  0  0  0  0  0  0  0  0
    7.5200   45.4080   50.4240 C   0  0  0  0  0  0  0  0  0  0  0  0
    8.8180   45.8760   50.7360 C   0  0  0  0  0  0  0  0  0  0  0  0
    9.0660   46.5470   51.9490 C   0  0  0  0  0  0  0  0  0  0  0  0
    7.9910   46.7210   52.8230 C   0  0  0  0  0  0  0  0  0  0  0  0
   10.4627   47.2595   57.1172 H   0  0  0  0  0  0  0  0  0  0  0  0
   11.9862   47.0908   56.1806 H   0  0  0  0  0  0  0  0  0  0  0  0
   11.1002   48.6534   56.1806 H   0  0  0  0  0  0  0  0  0  0  0  0
   10.8625   47.0589   54.1113 H   0  0  0  0  0  0  0  0  0  0  0  0
    9.7627   46.1164   55.1976 H   0  0  0  0  0  0  0  0  0  0  0  0
    8.6762   48.5102   55.6156 H   0  0  0  0  0  0  0  0  0  0  0  0
    9.4112   48.8707   54.0130 H   0  0  0  0  0  0  0  0  0  0  0  0
    3.8860   47.2190   53.2940 H   0  0  0  0  0  0  0  0  0  0  0  0
    4.6871   44.9011   55.0432 H   0  0  0  0  0  0  0  0  0  0  0  0
    3.0445   45.6215   54.8820 H   0  0  0  0  0  0  0  0  0  0  0  0
    4.6571   40.8714   51.6408 H   0  0  0  0  0  0  0  0  0  0  0  0
    3.3286   41.2254   50.4795 H   0  0  0  0  0  0  0  0  0  0  0  0
    4.8631   43.2525   50.1080 H   0  0  0  0  0  0  0  0  0  0  0  0
    5.0599   40.2849   48.8135 H   0  0  0  0  0  0  0  0  0  0  0  0
    5.5810   41.3399   47.7960 H   0  0  0  0  0  0  0  0  0  0  0  0
    6.7800   40.7278   50.7402 H   0  0  0  0  0  0  0  0  0  0  0  0
    7.6002   41.8598   50.0576 H   0  0  0  0  0  0  0  0  0  0  0  0
    5.4391   45.2561   51.0895 H   0  0  0  0  0  0  0  0  0  0  0  0
    7.3419   44.8843   49.4732 H   0  0  0  0  0  0  0  0  0  0  0  0
    9.6412   45.7143   50.0245 H   0  0  0  0  0  0  0  0  0  0  0  0
   10.0700   46.9205   52.1989 H   0  0  0  0  0  0  0  0  0  0  0  0
  1  2  1  0
  2  3  1  0
  3  4  1  0
  4  5  1  0
  5  6  2  0
  6  7  1  0
  7  8  1  0
  8  9  1  0
  9 10  2  0
 10 11  1  0
 11 12  1  0
 12 13  1  0
 13 14  1  0
 14 15  1  0
 11 16  2  0
 16 17  1  0
  6 18  1  0
 18 19  2  0
 19 20  1  0
 20 21  2  0
 21 22  1  0
 22 23  2  0
 23  4  1  0
 17  9  1  0
 23 18  1  0
 15 13  1  0
  1 24  1  0
  1 25  1  0
  1 26  1  0
  2 27  1  0
  2 28  1  0
  3 29  1  0
  3 30  1  0
  7 31  1  0
  8 32  1  0
  8 33  1  0
 12 34  1  0
 12 35  1  0
 13 36  1  0
 14 37  1  0
 14 38  1  0
 15 39  1  0
 15 40  1  0
 19 41  1  0
 20 42  1  0
 21 43  1  0
 22 44  1  0
M  END
>  <meeko>  (3) 
{"is_sidechain": [false], "free_energy": -8.196, "intermolecular_energy": -11.853, "internal_energy": -0.785}

$$$$
ligand_85_conformer_5_docked
     RDKit          3D

 44 47  0  0  0  0  0  0  0  0999 V2000
    9.9970   47.1550   54.0530 C   0  0  0  0  0  0  0  0  0  0  0  0
    9.9360   46.7910   52.5720 C   0  0  0  0  0  0  0  0  0  0  0  0
    8.8480   47.5860   51.8450 C   0  0  0  0  0  0  0  0  0  0  0  0
    7.5320   47.0400   52.1700 N   0  0  0  0  0  0  0  0  0  0  0  0
    6.7020   47.6030   53.0410 N   0  0  0  0  0  0  0  0  0  0  0  0
    5.5480   46.8950   53.0300 C   0  0  0  0  0  0  0  0  0  0  0  0
    4.3900   47.2290   53.8050 N   0  0  0  0  0  0  0  0  0  0  0  0
    3.9990   46.4530   54.9780 C   0  0  0  0  0  0  0  0  0  0  0  0
    2.7070   45.7440   54.7190 C   0  0  0  0  0  0  0  0  0  0  0  0
    1.9460   45.9400   53.6240 N   0  0  0  0  0  0  0  0  0  0  0  0
    0.9360   45.0730   53.8540 C   0  0  0  0  0  0  0  0  0  0  0  0
   -0.2030   44.8580   52.9090 C   0  0  0  0  0  0  0  0  0  0  0  0
    0.3330   44.5180   51.5140 C   0  0  0  0  0  0  0  0  0  0  0  0
   -0.3100   43.3020   50.8640 C   0  0  0  0  0  0  0  0  0  0  0  0
    1.1110   43.2160   51.4000 C   0  0  0  0  0  0  0  0  0  0  0  0
    1.0830   44.3940   55.0090 N   0  0  0  0  0  0  0  0  0  0  0  0
    2.1910   44.8410   55.5170 O   0  0  0  0  0  0  0  0  0  0  0  0
    5.6490   45.8690   52.1140 C   0  0  0  0  0  0  0  0  0  0  0  0
    4.7510   44.9000   51.6730 C   0  0  0  0  0  0  0  0  0  0  0  0
    5.1820   44.0300   50.6540 C   0  0  0  0  0  0  0  0  0  0  0  0
    6.4800   44.1580   50.1040 C   0  0  0  0  0  0  0  0  0  0  0  0
    7.3600   45.1530   50.5690 C   0  0  0  0  0  0  0  0  0  0  0  0
    6.9070   45.9940   51.5870 C   0  0  0  0  0  0  0  0  0  0  0  0
    9.8453   46.2500   54.6596 H   0  0  0  0  0  0  0  0  0  0  0  0
   10.9806   47.5902   54.2834 H   0  0  0  0  0  0  0  0  0  0  0  0
    9.2090   47.8871   54.2834 H   0  0  0  0  0  0  0  0  0  0  0  0
   10.9094   47.0108   52.1092 H   0  0  0  0  0  0  0  0  0  0  0  0
    9.6965   45.7206   52.4884 H   0  0  0  0  0  0  0  0  0  0  0  0
    8.8939   48.6390   52.1597 H   0  0  0  0  0  0  0  0  0  0  0  0
    9.0116   47.5149   50.7596 H   0  0  0  0  0  0  0  0  0  0  0  0
    3.8020   48.0450   53.5220 H   0  0  0  0  0  0  0  0  0  0  0  0
    4.7815   45.7130   55.2019 H   0  0  0  0  0  0  0  0  0  0  0  0
    3.8710   47.1331   55.8330 H   0  0  0  0  0  0  0  0  0  0  0  0
   -0.8265   44.0278   53.2724 H   0  0  0  0  0  0  0  0  0  0  0  0
   -0.8041   45.7774   52.8516 H   0  0  0  0  0  0  0  0  0  0  0  0
    0.5227   45.5601   51.2174 H   0  0  0  0  0  0  0  0  0  0  0  0
   -1.1246   42.7702   51.3774 H   0  0  0  0  0  0  0  0  0  0  0  0
   -0.7893   43.1003   49.8947 H   0  0  0  0  0  0  0  0  0  0  0  0
    1.3239   42.6219   52.3009 H   0  0  0  0  0  0  0  0  0  0  0  0
    2.0849   42.9263   50.9787 H   0  0  0  0  0  0  0  0  0  0  0  0
    3.7427   44.8177   52.1049 H   0  0  0  0  0  0  0  0  0  0  0  0
    4.5060   43.2457   50.2827 H   0  0  0  0  0  0  0  0  0  0  0  0
    6.8038   43.4736   49.3060 H   0  0  0  0  0  0  0  0  0  0  0  0
    8.3690   45.2641   50.1453 H   0  0  0  0  0  0  0  0  0  0  0  0
  1  2  1  0
  2  3  1  0
  3  4  1  0
  4  5  1  0
  5  6  2  0
  6  7  1  0
  7  8  1  0
  8  9  1  0
  9 10  2  0
 10 11  1  0
 11 12  1  0
 12 13  1  0
 13 14  1  0
 14 15  1  0
 11 16  2  0
 16 17  1  0
  6 18  1  0
 18 19  2  0
 19 20  1  0
 20 21  2  0
 21 22  1  0
 22 23  2  0
 23  4  1  0
 17  9  1  0
 23 18  1  0
 15 13  1  0
  1 24  1  0
  1 25  1  0
  1 26  1  0
  2 27  1  0
  2 28  1  0
  3 29  1  0
  3 30  1  0
  7 31  1  0
  8 32  1  0
  8 33  1  0
 12 34  1  0
 12 35  1  0
 13 36  1  0
 14 37  1  0
 14 38  1  0
 15 39  1  0
 15 40  1  0
 19 41  1  0
 20 42  1  0
 21 43  1  0
 22 44  1  0
M  END
>  <meeko>  (4) 
{"is_sidechain": [false], "free_energy": -8.032, "intermolecular_energy": -11.323, "internal_energy": -1.085}

$$$$
ligand_85_conformer_5_docked
     RDKit          3D

 44 47  0  0  0  0  0  0  0  0999 V2000
   -0.2220   43.0510   53.7670 C   0  0  0  0  0  0  0  0  0  0  0  0
    1.2330   42.6570   53.5280 C   0  0  0  0  0  0  0  0  0  0  0  0
    1.5750   42.6670   52.0360 C   0  0  0  0  0  0  0  0  0  0  0  0
    2.5400   43.7280   51.7530 N   0  0  0  0  0  0  0  0  0  0  0  0
    2.3640   44.9920   52.1210 N   0  0  0  0  0  0  0  0  0  0  0  0
    3.4800   45.6800   51.7850 C   0  0  0  0  0  0  0  0  0  0  0  0
    3.6870   47.0700   52.0690 N   0  0  0  0  0  0  0  0  0  0  0  0
    4.0110   47.5410   53.4120 C   0  0  0  0  0  0  0  0  0  0  0  0
    5.4420   47.2420   53.7310 C   0  0  0  0  0  0  0  0  0  0  0  0
    6.4890   47.7800   53.0730 N   0  0  0  0  0  0  0  0  0  0  0  0
    7.5240   47.2240   53.7390 C   0  0  0  0  0  0  0  0  0  0  0  0
    8.9590   47.5120   53.4300 C   0  0  0  0  0  0  0  0  0  0  0  0
    9.6540   46.2370   52.9430 C   0  0  0  0  0  0  0  0  0  0  0  0
   10.6070   46.4370   51.7740 C   0  0  0  0  0  0  0  0  0  0  0  0
    9.2650   45.7560   51.5540 C   0  0  0  0  0  0  0  0  0  0  0  0
    7.1270   46.4110   54.7390 N   0  0  0  0  0  0  0  0  0  0  0  0
    5.8300   46.4470   54.6980 O   0  0  0  0  0  0  0  0  0  0  0  0
    4.3900   44.8210   51.2060 C   0  0  0  0  0  0  0  0  0  0  0  0
    5.6930   44.9920   50.7420 C   0  0  0  0  0  0  0  0  0  0  0  0
    6.3650   43.8530   50.2590 C   0  0  0  0  0  0  0  0  0  0  0  0
    5.7280   42.5900   50.2630 C   0  0  0  0  0  0  0  0  0  0  0  0
    4.4130   42.4510   50.7460 C   0  0  0  0  0  0  0  0  0  0  0  0
    3.7700   43.6010   51.2080 C   0  0  0  0  0  0  0  0  0  0  0  0
   -0.4148   43.1032   54.8487 H   0  0  0  0  0  0  0  0  0  0  0  0
   -0.4152   44.0338   53.3123 H   0  0  0  0  0  0  0  0  0  0  0  0
   -0.8847   42.3000   53.3123 H   0  0  0  0  0  0  0  0  0  0  0  0
    1.8876   43.3702   54.0503 H   0  0  0  0  0  0  0  0  0  0  0  0
    1.3836   41.6371   53.9115 H   0  0  0  0  0  0  0  0  0  0  0  0
    2.0081   41.6958   51.7547 H   0  0  0  0  0  0  0  0  0  0  0  0
    0.6581   42.8477   51.4559 H   0  0  0  0  0  0  0  0  0  0  0  0
    3.5980   47.7690   51.2970 H   0  0  0  0  0  0  0  0  0  0  0  0
    3.8455   48.6271   53.4663 H   0  0  0  0  0  0  0  0  0  0  0  0
    3.3653   47.0269   54.1391 H   0  0  0  0  0  0  0  0  0  0  0  0
    9.0158   48.2807   52.6453 H   0  0  0  0  0  0  0  0  0  0  0  0
    9.4601   47.8721   54.3406 H   0  0  0  0  0  0  0  0  0  0  0  0
    9.7145   45.7659   53.9352 H   0  0  0  0  0  0  0  0  0  0  0  0
   10.7835   47.4467   51.3747 H   0  0  0  0  0  0  0  0  0  0  0  0
   11.6556   46.1736   51.5712 H   0  0  0  0  0  0  0  0  0  0  0  0
    8.4710   46.2731   50.9953 H   0  0  0  0  0  0  0  0  0  0  0  0
    8.9411   44.7959   51.1259 H   0  0  0  0  0  0  0  0  0  0  0  0
    6.1779   45.9793   50.7527 H   0  0  0  0  0  0  0  0  0  0  0  0
    7.3920   43.9458   49.8761 H   0  0  0  0  0  0  0  0  0  0  0  0
    6.2654   41.7078   49.8850 H   0  0  0  0  0  0  0  0  0  0  0  0
    3.9106   41.4725   50.7589 H   0  0  0  0  0  0  0  0  0  0  0  0
  1  2  1  0
  2  3  1  0
  3  4  1  0
  4  5  1  0
  5  6  2  0
  6  7  1  0
  7  8  1  0
  8  9  1  0
  9 10  2  0
 10 11  1  0
 11 12  1  0
 12 13  1  0
 13 14  1  0
 14 15  1  0
 11 16  2  0
 16 17  1  0
  6 18  1  0
 18 19  2  0
 19 20  1  0
 20 21  2  0
 21 22  1  0
 22 23  2  0
 23  4  1  0
 17  9  1  0
 23 18  1  0
 15 13  1  0
  1 24  1  0
  1 25  1  0
  1 26  1  0
  2 27  1  0
  2 28  1  0
  3 29  1  0
  3 30  1  0
  7 31  1  0
  8 32  1  0
  8 33  1  0
 12 34  1  0
 12 35  1  0
 13 36  1  0
 14 37  1  0
 14 38  1  0
 15 39  1  0
 15 40  1  0
 19 41  1  0
 20 42  1  0
 21 43  1  0
 22 44  1  0
M  END
>  <meeko>  (5) 
{"is_sidechain": [false], "free_energy": -8.007, "intermolecular_energy": -11.178, "internal_energy": -1.194}

$$$$
