ligand_86_conformer_4_docked
     RDKit          3D

 44 47  0  0  0  0  0  0  0  0999 V2000
    7.9780   44.8350   49.4460 O   0  0  0  0  0  0  0  0  0  0  0  0
    7.2700   44.8250   50.4900 C   0  0  0  0  0  0  0  0  0  0  0  0
    7.5400   45.7670   51.5410 N   0  0  0  0  0  0  0  0  0  0  0  0
    8.3980   46.9420   51.3360 C   0  0  0  0  0  0  0  0  0  0  0  0
    7.9550   48.1010   52.2440 C   0  0  0  0  0  0  0  0  0  0  0  0
    8.3430   47.8200   53.7010 C   0  0  0  0  0  0  0  0  0  0  0  0
    9.7420   47.6310   53.8190 O   0  0  0  0  0  0  0  0  0  0  0  0
   10.1300   46.4590   53.1260 C   0  0  0  0  0  0  0  0  0  0  0  0
    9.8740   46.6020   51.6160 C   0  0  0  0  0  0  0  0  0  0  0  0
    6.1820   43.8290   50.6230 C   0  0  0  0  0  0  0  0  0  0  0  0
    6.2210   42.6300   49.8950 C   0  0  0  0  0  0  0  0  0  0  0  0
    5.2190   41.7220   50.0120 N   0  0  0  0  0  0  0  0  0  0  0  0
    4.1470   41.9360   50.8190 C   0  0  0  0  0  0  0  0  0  0  0  0
    4.0430   43.1220   51.5620 C   0  0  0  0  0  0  0  0  0  0  0  0
    2.8710   43.3710   52.4400 C   0  0  0  0  0  0  0  0  0  0  0  0
    1.6390   42.7120   52.2020 C   0  0  0  0  0  0  0  0  0  0  0  0
    0.5280   42.9480   53.0290 C   0  0  0  0  0  0  0  0  0  0  0  0
    0.6710   43.8430   54.0850 C   0  0  0  0  0  0  0  0  0  0  0  0
    1.8490   44.4850   54.3270 C   0  0  0  0  0  0  0  0  0  0  0  0
    2.9700   44.2740   53.5250 C   0  0  0  0  0  0  0  0  0  0  0  0
    1.7080   45.3710   55.5120 C   0  0  0  0  0  0  0  0  0  0  0  0
    0.2350   45.1430   55.9310 C   0  0  0  0  0  0  0  0  0  0  0  0
   -0.2950   44.2010   54.9990 O   0  0  0  0  0  0  0  0  0  0  0  0
    5.0740   44.0710   51.4520 C   0  0  0  0  0  0  0  0  0  0  0  0
    7.1720   45.5630   52.4970 H   0  0  0  0  0  0  0  0  0  0  0  0
    8.2986   47.2495   50.2845 H   0  0  0  0  0  0  0  0  0  0  0  0
    8.4439   49.0286   51.9116 H   0  0  0  0  0  0  0  0  0  0  0  0
    6.8618   48.2050   52.1805 H   0  0  0  0  0  0  0  0  0  0  0  0
    8.0398   48.6727   54.3263 H   0  0  0  0  0  0  0  0  0  0  0  0
    7.8331   46.9034   54.0323 H   0  0  0  0  0  0  0  0  0  0  0  0
   11.2023   46.2801   53.2938 H   0  0  0  0  0  0  0  0  0  0  0  0
    9.5349   45.6147   53.5042 H   0  0  0  0  0  0  0  0  0  0  0  0
   10.5102   47.4063   51.2179 H   0  0  0  0  0  0  0  0  0  0  0  0
   10.1118   45.6452   51.1281 H   0  0  0  0  0  0  0  0  0  0  0  0
    7.0691   42.4247   49.2252 H   0  0  0  0  0  0  0  0  0  0  0  0
    3.3559   41.1750   50.8904 H   0  0  0  0  0  0  0  0  0  0  0  0
    1.5517   42.0084   51.3610 H   0  0  0  0  0  0  0  0  0  0  0  0
   -0.4298   42.4387   52.8466 H   0  0  0  0  0  0  0  0  0  0  0  0
    3.9138   44.7998   53.7319 H   0  0  0  0  0  0  0  0  0  0  0  0
    2.3995   45.0741   56.3143 H   0  0  0  0  0  0  0  0  0  0  0  0
    1.9448   46.4243   55.3013 H   0  0  0  0  0  0  0  0  0  0  0  0
    0.1860   44.7392   56.9530 H   0  0  0  0  0  0  0  0  0  0  0  0
   -0.3368   46.0827   55.9251 H   0  0  0  0  0  0  0  0  0  0  0  0
    5.0127   45.0111   52.0198 H   0  0  0  0  0  0  0  0  0  0  0  0
  1  2  2  0
  2  3  1  0
  3  4  1  0
  4  5  1  0
  5  6  1  0
  6  7  1  0
  7  8  1  0
  8  9  1  0
  2 10  1  0
 10 11  2  0
 11 12  1  0
 12 13  2  0
 13 14  1  0
 14 15  1  0
 15 16  2  0
 16 17  1  0
 17 18  2  0
 18 19  1  0
 19 20  2  0
 19 21  1  0
 21 22  1  0
 22 23  1  0
 14 24  2  0
  9  4  1  0
 24 10  1  0
 20 15  1  0
 23 18  1  0
  3 25  1  0
  4 26  1  0
  5 27  1  0
  5 28  1  0
  6 29  1  0
  6 30  1  0
  8 31  1  0
  8 32  1  0
  9 33  1  0
  9 34  1  0
 11 35  1  0
 13 36  1  0
 16 37  1  0
 17 38  1  0
 20 39  1  0
 21 40  1  0
 21 41  1  0
 22 42  1  0
 22 43  1  0
 24 44  1  0
M  END
>  <meeko>  (1) 
{"is_sidechain": [false], "free_energy": -9.056, "intermolecular_energy": -10.645, "internal_energy": -0.642}

$$$$
ligand_86_conformer_4_docked
     RDKit          3D

 44 47  0  0  0  0  0  0  0  0999 V2000
    1.6930   42.6930   51.0860 O   0  0  0  0  0  0  0  0  0  0  0  0
    1.2420   43.8660   51.1980 C   0  0  0  0  0  0  0  0  0  0  0  0
   -0.1220   44.1400   50.8350 N   0  0  0  0  0  0  0  0  0  0  0  0
   -1.1060   43.0690   50.6320 C   0  0  0  0  0  0  0  0  0  0  0  0
   -1.7080   42.6250   51.9760 C   0  0  0  0  0  0  0  0  0  0  0  0
   -2.6740   43.6900   52.5100 C   0  0  0  0  0  0  0  0  0  0  0  0
   -3.7140   43.9320   51.5800 O   0  0  0  0  0  0  0  0  0  0  0  0
   -3.1830   44.5070   50.4010 C   0  0  0  0  0  0  0  0  0  0  0  0
   -2.2340   43.5290   49.6890 C   0  0  0  0  0  0  0  0  0  0  0  0
    2.1310   44.9450   51.6850 C   0  0  0  0  0  0  0  0  0  0  0  0
    1.6000   46.0510   52.3670 C   0  0  0  0  0  0  0  0  0  0  0  0
    2.4160   47.0440   52.8060 N   0  0  0  0  0  0  0  0  0  0  0  0
    3.7580   47.0140   52.5990 C   0  0  0  0  0  0  0  0  0  0  0  0
    4.3470   45.9420   51.9120 C   0  0  0  0  0  0  0  0  0  0  0  0
    5.8130   45.9030   51.6710 C   0  0  0  0  0  0  0  0  0  0  0  0
    6.3340   45.3050   50.4960 C   0  0  0  0  0  0  0  0  0  0  0  0
    7.7190   45.2650   50.2670 C   0  0  0  0  0  0  0  0  0  0  0  0
    8.5620   45.8270   51.2220 C   0  0  0  0  0  0  0  0  0  0  0  0
    8.0760   46.4050   52.3560 C   0  0  0  0  0  0  0  0  0  0  0  0
    6.7070   46.4610   52.6150 C   0  0  0  0  0  0  0  0  0  0  0  0
    9.1990   46.9180   53.1840 C   0  0  0  0  0  0  0  0  0  0  0  0
   10.4410   46.5400   52.3390 C   0  0  0  0  0  0  0  0  0  0  0  0
    9.9370   45.8860   51.1750 O   0  0  0  0  0  0  0  0  0  0  0  0
    3.5150   44.9060   51.4520 C   0  0  0  0  0  0  0  0  0  0  0  0
   -0.3930   45.1290   50.6390 H   0  0  0  0  0  0  0  0  0  0  0  0
   -0.5836   42.2175   50.1714 H   0  0  0  0  0  0  0  0  0  0  0  0
   -2.2533   41.6803   51.8339 H   0  0  0  0  0  0  0  0  0  0  0  0
   -0.8935   42.4872   52.7024 H   0  0  0  0  0  0  0  0  0  0  0  0
   -3.1104   43.3397   53.4570 H   0  0  0  0  0  0  0  0  0  0  0  0
   -2.1171   44.6251   52.6699 H   0  0  0  0  0  0  0  0  0  0  0  0
   -4.0097   44.7640   49.7224 H   0  0  0  0  0  0  0  0  0  0  0  0
   -2.6152   45.4081   50.6760 H   0  0  0  0  0  0  0  0  0  0  0  0
   -2.8061   42.6501   49.3570 H   0  0  0  0  0  0  0  0  0  0  0  0
   -1.7828   44.0431   48.8275 H   0  0  0  0  0  0  0  0  0  0  0  0
    0.5166   46.1138   52.5470 H   0  0  0  0  0  0  0  0  0  0  0  0
    4.3871   47.8355   52.9724 H   0  0  0  0  0  0  0  0  0  0  0  0
    5.6468   44.8681   49.7565 H   0  0  0  0  0  0  0  0  0  0  0  0
    8.1272   44.8017   49.3567 H   0  0  0  0  0  0  0  0  0  0  0  0
    6.3294   46.9300   53.5356 H   0  0  0  0  0  0  0  0  0  0  0  0
    9.1273   48.0073   53.3195 H   0  0  0  0  0  0  0  0  0  0  0  0
    9.2186   46.5011   54.2018 H   0  0  0  0  0  0  0  0  0  0  0  0
   11.0020   47.4434   52.0578 H   0  0  0  0  0  0  0  0  0  0  0  0
   11.1298   45.8917   52.9005 H   0  0  0  0  0  0  0  0  0  0  0  0
    3.9522   44.0577   50.9049 H   0  0  0  0  0  0  0  0  0  0  0  0
  1  2  2  0
  2  3  1  0
  3  4  1  0
  4  5  1  0
  5  6  1  0
  6  7  1  0
  7  8  1  0
  8  9  1  0
  2 10  1  0
 10 11  2  0
 11 12  1  0
 12 13  2  0
 13 14  1  0
 14 15  1  0
 15 16  2  0
 16 17  1  0
 17 18  2  0
 18 19  1  0
 19 20  2  0
 19 21  1  0
 21 22  1  0
 22 23  1  0
 14 24  2  0
  9  4  1  0
 24 10  1  0
 20 15  1  0
 23 18  1  0
  3 25  1  0
  4 26  1  0
  5 27  1  0
  5 28  1  0
  6 29  1  0
  6 30  1  0
  8 31  1  0
  8 32  1  0
  9 33  1  0
  9 34  1  0
 11 35  1  0
 13 36  1  0
 16 37  1  0
 17 38  1  0
 20 39  1  0
 21 40  1  0
 21 41  1  0
 22 42  1  0
 22 43  1  0
 24 44  1  0
M  END
>  <meeko>  (2) 
{"is_sidechain": [false], "free_energy": -8.466, "intermolecular_energy": -9.987, "internal_energy": -0.606}

$$$$
ligand_86_conformer_4_docked
     RDKit          3D

 44 47  0  0  0  0  0  0  0  0999 V2000
    0.6560   43.3780   54.0640 O   0  0  0  0  0  0  0  0  0  0  0  0
    0.9760   44.5980   54.0740 C   0  0  0  0  0  0  0  0  0  0  0  0
    0.3820   45.4810   55.0400 N   0  0  0  0  0  0  0  0  0  0  0  0
   -0.3460   44.9780   56.2130 C   0  0  0  0  0  0  0  0  0  0  0  0
    0.5560   45.0010   57.4590 C   0  0  0  0  0  0  0  0  0  0  0  0
    0.7590   46.4400   57.9490 C   0  0  0  0  0  0  0  0  0  0  0  0
   -0.4840   47.0460   58.2500 O   0  0  0  0  0  0  0  0  0  0  0  0
   -1.2510   47.1880   57.0690 C   0  0  0  0  0  0  0  0  0  0  0  0
   -1.6110   45.8160   56.4770 C   0  0  0  0  0  0  0  0  0  0  0  0
    1.9470   45.1050   53.0770 C   0  0  0  0  0  0  0  0  0  0  0  0
    1.5630   45.2910   51.7400 C   0  0  0  0  0  0  0  0  0  0  0  0
    2.4560   45.7470   50.8260 N   0  0  0  0  0  0  0  0  0  0  0  0
    3.7420   46.0310   51.1580 C   0  0  0  0  0  0  0  0  0  0  0  0
    4.1910   45.8530   52.4760 C   0  0  0  0  0  0  0  0  0  0  0  0
    5.5980   46.1490   52.8500 C   0  0  0  0  0  0  0  0  0  0  0  0
    5.9210   46.5630   54.1670 C   0  0  0  0  0  0  0  0  0  0  0  0
    7.2510   46.8470   54.5220 C   0  0  0  0  0  0  0  0  0  0  0  0
    8.2360   46.7100   53.5490 C   0  0  0  0  0  0  0  0  0  0  0  0
    7.9410   46.3140   52.2790 C   0  0  0  0  0  0  0  0  0  0  0  0
    6.6330   46.0250   51.8930 C   0  0  0  0  0  0  0  0  0  0  0  0
    9.1840   46.2540   51.4650 C   0  0  0  0  0  0  0  0  0  0  0  0
   10.2710   46.6890   52.4780 C   0  0  0  0  0  0  0  0  0  0  0  0
    9.5850   46.9390   53.7040 O   0  0  0  0  0  0  0  0  0  0  0  0
    3.2770   45.3810   53.4340 C   0  0  0  0  0  0  0  0  0  0  0  0
    0.4090   46.5080   54.8550 H   0  0  0  0  0  0  0  0  0  0  0  0
   -0.6457   43.9408   56.0024 H   0  0  0  0  0  0  0  0  0  0  0  0
    0.0848   44.4097   58.2579 H   0  0  0  0  0  0  0  0  0  0  0  0
    1.5349   44.5730   57.1973 H   0  0  0  0  0  0  0  0  0  0  0  0
    1.3837   46.4284   58.8543 H   0  0  0  0  0  0  0  0  0  0  0  0
    1.2510   47.0185   57.1532 H   0  0  0  0  0  0  0  0  0  0  0  0
   -2.1774   47.7321   57.3051 H   0  0  0  0  0  0  0  0  0  0  0  0
   -0.6555   47.7432   56.3293 H   0  0  0  0  0  0  0  0  0  0  0  0
   -2.2576   45.2774   57.1853 H   0  0  0  0  0  0  0  0  0  0  0  0
   -2.1322   45.9733   55.5212 H   0  0  0  0  0  0  0  0  0  0  0  0
    0.5316   45.0657   51.4312 H   0  0  0  0  0  0  0  0  0  0  0  0
    4.4358   46.4027   50.3895 H   0  0  0  0  0  0  0  0  0  0  0  0
    5.1234   46.6629   54.9179 H   0  0  0  0  0  0  0  0  0  0  0  0
    7.5064   47.1691   55.5423 H   0  0  0  0  0  0  0  0  0  0  0  0
    6.4097   45.7066   50.8640 H   0  0  0  0  0  0  0  0  0  0  0  0
    9.3691   45.2340   51.0972 H   0  0  0  0  0  0  0  0  0  0  0  0
    9.1481   46.8837   50.5638 H   0  0  0  0  0  0  0  0  0  0  0  0
   11.0127   45.8877   52.6110 H   0  0  0  0  0  0  0  0  0  0  0  0
   10.8141   47.5800   52.1300 H   0  0  0  0  0  0  0  0  0  0  0  0
    3.6062   45.2265   54.4721 H   0  0  0  0  0  0  0  0  0  0  0  0
  1  2  2  0
  2  3  1  0
  3  4  1  0
  4  5  1  0
  5  6  1  0
  6  7  1  0
  7  8  1  0
  8  9  1  0
  2 10  1  0
 10 11  2  0
 11 12  1  0
 12 13  2  0
 13 14  1  0
 14 15  1  0
 15 16  2  0
 16 17  1  0
 17 18  2  0
 18 19  1  0
 19 20  2  0
 19 21  1  0
 21 22  1  0
 22 23  1  0
 14 24  2  0
  9  4  1  0
 24 10  1  0
 20 15  1  0
 23 18  1  0
  3 25  1  0
  4 26  1  0
  5 27  1  0
  5 28  1  0
  6 29  1  0
  6 30  1  0
  8 31  1  0
  8 32  1  0
  9 33  1  0
  9 34  1  0
 11 35  1  0
 13 36  1  0
 16 37  1  0
 17 38  1  0
 20 39  1  0
 21 40  1  0
 21 41  1  0
 22 42  1  0
 22 43  1  0
 24 44  1  0
M  END
>  <meeko>  (3) 
{"is_sidechain": [false], "free_energy": -8.244, "intermolecular_energy": -9.687, "internal_energy": -0.645}

$$$$
ligand_86_conformer_4_docked
     RDKit          3D

 44 47  0  0  0  0  0  0  0  0999 V2000
    5.1370   48.1700   53.6580 O   0  0  0  0  0  0  0  0  0  0  0  0
    5.4520   47.0680   53.1310 C   0  0  0  0  0  0  0  0  0  0  0  0
    6.7380   46.9190   52.5070 N   0  0  0  0  0  0  0  0  0  0  0  0
    7.8250   47.8840   52.7200 C   0  0  0  0  0  0  0  0  0  0  0  0
    8.6060   47.5450   54.0010 C   0  0  0  0  0  0  0  0  0  0  0  0
    9.4780   46.3020   53.7850 C   0  0  0  0  0  0  0  0  0  0  0  0
   10.3840   46.5060   52.7160 O   0  0  0  0  0  0  0  0  0  0  0  0
    9.6720   46.6440   51.5000 C   0  0  0  0  0  0  0  0  0  0  0  0
    8.7890   47.9020   51.5180 C   0  0  0  0  0  0  0  0  0  0  0  0
    4.4810   45.9490   53.1480 C   0  0  0  0  0  0  0  0  0  0  0  0
    4.6130   44.8790   52.2500 C   0  0  0  0  0  0  0  0  0  0  0  0
    3.7170   43.8580   52.2620 N   0  0  0  0  0  0  0  0  0  0  0  0
    2.6670   43.8340   53.1230 C   0  0  0  0  0  0  0  0  0  0  0  0
    2.4740   44.8820   54.0370 C   0  0  0  0  0  0  0  0  0  0  0  0
    1.3240   44.8720   54.9770 C   0  0  0  0  0  0  0  0  0  0  0  0
    1.4850   45.3050   56.3170 C   0  0  0  0  0  0  0  0  0  0  0  0
    0.4000   45.2940   57.2090 C   0  0  0  0  0  0  0  0  0  0  0  0
   -0.8330   44.8490   56.7410 C   0  0  0  0  0  0  0  0  0  0  0  0
   -1.0040   44.4300   55.4560 C   0  0  0  0  0  0  0  0  0  0  0  0
    0.0520   44.4280   54.5450 C   0  0  0  0  0  0  0  0  0  0  0  0
   -2.4160   44.0180   55.2410 C   0  0  0  0  0  0  0  0  0  0  0  0
   -3.0540   44.2640   56.6300 C   0  0  0  0  0  0  0  0  0  0  0  0
   -2.0060   44.7670   57.4580 O   0  0  0  0  0  0  0  0  0  0  0  0
    3.3930   45.9450   54.0360 C   0  0  0  0  0  0  0  0  0  0  0  0
    6.8710   46.1390   51.8250 H   0  0  0  0  0  0  0  0  0  0  0  0
    7.3720   48.8807   52.8262 H   0  0  0  0  0  0  0  0  0  0  0  0
    9.2491   48.3963   54.2689 H   0  0  0  0  0  0  0  0  0  0  0  0
    7.8901   47.3411   54.8109 H   0  0  0  0  0  0  0  0  0  0  0  0
   10.0451   46.0945   54.7044 H   0  0  0  0  0  0  0  0  0  0  0  0
    8.8260   45.4510   53.5386 H   0  0  0  0  0  0  0  0  0  0  0  0
   10.3895   46.7201   50.6697 H   0  0  0  0  0  0  0  0  0  0  0  0
    9.0251   45.7638   51.3710 H   0  0  0  0  0  0  0  0  0  0  0  0
    9.4322   48.7918   51.5862 H   0  0  0  0  0  0  0  0  0  0  0  0
    8.1945   47.9257   50.5928 H   0  0  0  0  0  0  0  0  0  0  0  0
    5.4466   44.8668   51.5324 H   0  0  0  0  0  0  0  0  0  0  0  0
    1.9636   42.9885   53.1041 H   0  0  0  0  0  0  0  0  0  0  0  0
    2.4698   45.6532   56.6619 H   0  0  0  0  0  0  0  0  0  0  0  0
    0.5215   45.6282   58.2499 H   0  0  0  0  0  0  0  0  0  0  0  0
   -0.1012   44.0877   53.5102 H   0  0  0  0  0  0  0  0  0  0  0  0
   -2.8967   44.6357   54.4681 H   0  0  0  0  0  0  0  0  0  0  0  0
   -2.5207   42.9813   54.8885 H   0  0  0  0  0  0  0  0  0  0  0  0
   -3.8674   45.0005   56.5525 H   0  0  0  0  0  0  0  0  0  0  0  0
   -3.4887   43.3422   57.0439 H   0  0  0  0  0  0  0  0  0  0  0  0
    3.2590   46.7818   54.7373 H   0  0  0  0  0  0  0  0  0  0  0  0
  1  2  2  0
  2  3  1  0
  3  4  1  0
  4  5  1  0
  5  6  1  0
  6  7  1  0
  7  8  1  0
  8  9  1  0
  2 10  1  0
 10 11  2  0
 11 12  1  0
 12 13  2  0
 13 14  1  0
 14 15  1  0
 15 16  2  0
 16 17  1  0
 17 18  2  0
 18 19  1  0
 19 20  2  0
 19 21  1  0
 21 22  1  0
 22 23  1  0
 14 24  2  0
  9  4  1  0
 24 10  1  0
 20 15  1  0
 23 18  1  0
  3 25  1  0
  4 26  1  0
  5 27  1  0
  5 28  1  0
  6 29  1  0
  6 30  1  0
  8 31  1  0
  8 32  1  0
  9 33  1  0
  9 34  1  0
 11 35  1  0
 13 36  1  0
 16 37  1  0
 17 38  1  0
 20 39  1  0
 21 40  1  0
 21 41  1  0
 22 42  1  0
 22 43  1  0
 24 44  1  0
M  END
>  <meeko>  (4) 
{"is_sidechain": [false], "free_energy": -8.15, "intermolecular_energy": -9.612, "internal_energy": -0.61}

$$$$
ligand_86_conformer_4_docked
     RDKit          3D

 44 47  0  0  0  0  0  0  0  0999 V2000
    2.0190   44.5750   55.9480 O   0  0  0  0  0  0  0  0  0  0  0  0
    1.3650   45.2120   55.0770 C   0  0  0  0  0  0  0  0  0  0  0  0
    0.0230   45.6380   55.3680 N   0  0  0  0  0  0  0  0  0  0  0  0
   -0.5170   45.6400   56.7340 C   0  0  0  0  0  0  0  0  0  0  0  0
   -1.3830   46.8890   56.9700 C   0  0  0  0  0  0  0  0  0  0  0  0
   -2.7180   46.7660   56.2250 C   0  0  0  0  0  0  0  0  0  0  0  0
   -3.4220   45.6120   56.6470 O   0  0  0  0  0  0  0  0  0  0  0  0
   -2.7090   44.4480   56.2720 C   0  0  0  0  0  0  0  0  0  0  0  0
   -1.3550   44.3740   56.9970 C   0  0  0  0  0  0  0  0  0  0  0  0
    1.9850   45.4940   53.7620 C   0  0  0  0  0  0  0  0  0  0  0  0
    1.1950   45.5670   52.6040 C   0  0  0  0  0  0  0  0  0  0  0  0
    1.7670   45.8180   51.3990 N   0  0  0  0  0  0  0  0  0  0  0  0
    3.1060   45.9980   51.2620 C   0  0  0  0  0  0  0  0  0  0  0  0
    3.9500   45.9230   52.3810 C   0  0  0  0  0  0  0  0  0  0  0  0
    5.4180   46.1070   52.2430 C   0  0  0  0  0  0  0  0  0  0  0  0
    6.0820   45.7310   51.0480 C   0  0  0  0  0  0  0  0  0  0  0  0
    7.4700   45.9020   50.9160 C   0  0  0  0  0  0  0  0  0  0  0  0
    8.1720   46.4490   51.9860 C   0  0  0  0  0  0  0  0  0  0  0  0
    7.5480   46.8150   53.1400 C   0  0  0  0  0  0  0  0  0  0  0  0
    6.1720   46.6590   53.3050 C   0  0  0  0  0  0  0  0  0  0  0  0
    8.5410   47.3680   54.0990 C   0  0  0  0  0  0  0  0  0  0  0  0
    9.8680   47.2620   53.3090 C   0  0  0  0  0  0  0  0  0  0  0  0
    9.5250   46.6930   52.0450 O   0  0  0  0  0  0  0  0  0  0  0  0
    3.3730   45.6640   53.6360 C   0  0  0  0  0  0  0  0  0  0  0  0
   -0.6040   45.8800   54.5680 H   0  0  0  0  0  0  0  0  0  0  0  0
    0.3337   45.6526   57.4312 H   0  0  0  0  0  0  0  0  0  0  0  0
   -1.5782   46.9958   58.0473 H   0  0  0  0  0  0  0  0  0  0  0  0
   -0.8451   47.7712   56.5926 H   0  0  0  0  0  0  0  0  0  0  0  0
   -3.3294   47.6571   56.4300 H   0  0  0  0  0  0  0  0  0  0  0  0
   -2.5152   46.6822   55.1471 H   0  0  0  0  0  0  0  0  0  0  0  0
   -3.3055   43.5612   56.5324 H   0  0  0  0  0  0  0  0  0  0  0  0
   -2.5248   44.4837   55.1881 H   0  0  0  0  0  0  0  0  0  0  0  0
   -1.5310   44.2776   58.0785 H   0  0  0  0  0  0  0  0  0  0  0  0
   -0.8016   43.5026   56.6170 H   0  0  0  0  0  0  0  0  0  0  0  0
    0.1071   45.4201   52.6735 H   0  0  0  0  0  0  0  0  0  0  0  0
    3.5315   46.2037   50.2687 H   0  0  0  0  0  0  0  0  0  0  0  0
    5.5046   45.3012   50.2162 H   0  0  0  0  0  0  0  0  0  0  0  0
    7.9888   45.6110   49.9907 H   0  0  0  0  0  0  0  0  0  0  0  0
    5.6823   46.9595   54.2431 H   0  0  0  0  0  0  0  0  0  0  0  0
    8.3108   48.4139   54.3502 H   0  0  0  0  0  0  0  0  0  0  0  0
    8.5616   46.8374   55.0624 H   0  0  0  0  0  0  0  0  0  0  0  0
   10.3128   48.2587   53.1722 H   0  0  0  0  0  0  0  0  0  0  0  0
   10.6080   46.6469   53.8420 H   0  0  0  0  0  0  0  0  0  0  0  0
    4.0142   45.5939   54.5271 H   0  0  0  0  0  0  0  0  0  0  0  0
  1  2  2  0
  2  3  1  0
  3  4  1  0
  4  5  1  0
  5  6  1  0
  6  7  1  0
  7  8  1  0
  8  9  1  0
  2 10  1  0
 10 11  2  0
 11 12  1  0
 12 13  2  0
 13 14  1  0
 14 15  1  0
 15 16  2  0
 16 17  1  0
 17 18  2  0
 18 19  1  0
 19 20  2  0
 19 21  1  0
 21 22  1  0
 22 23  1  0
 14 24  2  0
  9  4  1  0
 24 10  1  0
 20 15  1  0
 23 18  1  0
  3 25  1  0
  4 26  1  0
  5 27  1  0
  5 28  1  0
  6 29  1  0
  6 30  1  0
  8 31  1  0
  8 32  1  0
  9 33  1  0
  9 34  1  0
 11 35  1  0
 13 36  1  0
 16 37  1  0
 17 38  1  0
 20 39  1  0
 21 40  1  0
 21 41  1  0
 22 42  1  0
 22 43  1  0
 24 44  1  0
M  END
>  <meeko>  (5) 
{"is_sidechain": [false], "free_energy": -8.007, "intermolecular_energy": -9.455, "internal_energy": -0.599}

$$$$
