ligand_96_conformer_2_docked
     RDKit          3D

 40 42  0  0  0  0  0  0  0  0999 V2000
    9.8980   47.2320   54.5220 C   0  0  0  0  0  0  0  0  0  0  0  0
    8.7360   47.0320   53.5380 C   0  0  0  0  0  0  0  0  0  0  0  0
    9.1950   47.2560   52.0820 C   0  0  0  0  0  0  0  0  0  0  0  0
    8.9030   46.0780   51.1970 C   0  0  0  0  0  0  0  0  0  0  0  0
    9.8270   45.2660   50.9200 O   0  0  0  0  0  0  0  0  0  0  0  0
    7.5740   45.8570   50.7040 N   0  0  0  0  0  0  0  0  0  0  0  0
    7.1760   44.6050   50.0640 C   0  0  0  0  0  0  0  0  0  0  0  0
    5.7990   44.2120   50.5230 C   0  0  0  0  0  0  0  0  0  0  0  0
    5.4700   42.8630   50.7220 C   0  0  0  0  0  0  0  0  0  0  0  0
    4.2050   42.5090   51.2000 C   0  0  0  0  0  0  0  0  0  0  0  0
    3.2470   43.4940   51.4960 C   0  0  0  0  0  0  0  0  0  0  0  0
    1.9480   43.1090   51.9920 N   0  0  0  0  0  0  0  0  0  0  0  0
    0.7740   43.0930   51.3310 C   0  0  0  0  0  0  0  0  0  0  0  0
   -0.2330   42.6800   52.1260 N   0  0  0  0  0  0  0  0  0  0  0  0
    0.3980   42.4490   53.2970 C   0  0  0  0  0  0  0  0  0  0  0  0
    1.7170   42.7060   53.2290 N   0  0  0  0  0  0  0  0  0  0  0  0
    3.5840   44.8470   51.2950 C   0  0  0  0  0  0  0  0  0  0  0  0
    4.8490   45.2000   50.8160 C   0  0  0  0  0  0  0  0  0  0  0  0
    8.2790   45.7020   53.6600 O   0  0  0  0  0  0  0  0  0  0  0  0
    6.9080   45.7850   53.8800 C   0  0  0  0  0  0  0  0  0  0  0  0
    6.6380   47.1940   54.3100 C   0  0  0  0  0  0  0  0  0  0  0  0
    7.7100   47.9530   53.8530 O   0  0  0  0  0  0  0  0  0  0  0  0
    9.5206   47.1670   55.5532 H   0  0  0  0  0  0  0  0  0  0  0  0
   10.6552   46.4510   54.3588 H   0  0  0  0  0  0  0  0  0  0  0  0
   10.3505   48.2212   54.3588 H   0  0  0  0  0  0  0  0  0  0  0  0
    8.6733   48.1369   51.6796 H   0  0  0  0  0  0  0  0  0  0  0  0
   10.2853   47.4011   52.0948 H   0  0  0  0  0  0  0  0  0  0  0  0
    6.8410   46.5820   50.8730 H   0  0  0  0  0  0  0  0  0  0  0  0
    7.1725   44.7383   48.9721 H   0  0  0  0  0  0  0  0  0  0  0  0
    7.8894   43.8143   50.3392 H   0  0  0  0  0  0  0  0  0  0  0  0
    6.2106   42.0803   50.5010 H   0  0  0  0  0  0  0  0  0  0  0  0
    3.9565   41.4475   51.3462 H   0  0  0  0  0  0  0  0  0  0  0  0
    0.6528   43.3806   50.2762 H   0  0  0  0  0  0  0  0  0  0  0  0
   -0.1093   42.0908   54.2049 H   0  0  0  0  0  0  0  0  0  0  0  0
    2.8459   45.6319   51.5167 H   0  0  0  0  0  0  0  0  0  0  0  0
    5.1006   46.2606   50.6680 H   0  0  0  0  0  0  0  0  0  0  0  0
    6.3589   45.5569   52.9546 H   0  0  0  0  0  0  0  0  0  0  0  0
    6.5802   45.0635   54.6428 H   0  0  0  0  0  0  0  0  0  0  0  0
    5.6988   47.5547   53.8654 H   0  0  0  0  0  0  0  0  0  0  0  0
    6.5338   47.2659   55.4027 H   0  0  0  0  0  0  0  0  0  0  0  0
  1  2  1  0
  2  3  1  0
  3  4  1  0
  4  5  2  0
  4  6  1  0
  6  7  1  0
  7  8  1  0
  8  9  2  0
  9 10  1  0
 10 11  2  0
 11 12  1  0
 12 13  1  0
 13 14  2  0
 14 15  1  0
 15 16  2  0
 11 17  1  0
 17 18  2  0
  2 19  1  0
 19 20  1  0
 20 21  1  0
 21 22  1  0
 22  2  1  0
 18  8  1  0
 16 12  1  0
  1 23  1  0
  1 24  1  0
  1 25  1  0
  3 26  1  0
  3 27  1  0
  6 28  1  0
  7 29  1  0
  7 30  1  0
  9 31  1  0
 10 32  1  0
 13 33  1  0
 15 34  1  0
 17 35  1  0
 18 36  1  0
 20 37  1  0
 20 38  1  0
 21 39  1  0
 21 40  1  0
M  END
>  <meeko>  (1) 
{"is_sidechain": [false], "free_energy": -7.68, "intermolecular_energy": -9.925, "internal_energy": -0.619}

$$$$
ligand_96_conformer_2_docked
     RDKit          3D

 40 42  0  0  0  0  0  0  0  0999 V2000
    0.2020   42.2200   53.7780 C   0  0  0  0  0  0  0  0  0  0  0  0
    0.2430   43.7530   53.8640 C   0  0  0  0  0  0  0  0  0  0  0  0
   -0.0680   44.3960   52.4960 C   0  0  0  0  0  0  0  0  0  0  0  0
    1.1500   44.5200   51.6250 C   0  0  0  0  0  0  0  0  0  0  0  0
    1.3560   43.6670   50.7210 O   0  0  0  0  0  0  0  0  0  0  0  0
    2.0500   45.6250   51.7970 N   0  0  0  0  0  0  0  0  0  0  0  0
    3.0940   45.9400   50.8250 C   0  0  0  0  0  0  0  0  0  0  0  0
    4.3980   46.1810   51.5350 C   0  0  0  0  0  0  0  0  0  0  0  0
    5.6050   45.7270   50.9850 C   0  0  0  0  0  0  0  0  0  0  0  0
    6.8180   46.0010   51.6240 C   0  0  0  0  0  0  0  0  0  0  0  0
    6.8490   46.7420   52.8190 C   0  0  0  0  0  0  0  0  0  0  0  0
    8.1110   47.0190   53.4610 N   0  0  0  0  0  0  0  0  0  0  0  0
    9.3540   46.8180   52.9780 C   0  0  0  0  0  0  0  0  0  0  0  0
   10.2940   47.1910   53.8690 N   0  0  0  0  0  0  0  0  0  0  0  0
    9.5520   47.6270   54.9100 C   0  0  0  0  0  0  0  0  0  0  0  0
    8.2300   47.5270   54.6750 N   0  0  0  0  0  0  0  0  0  0  0  0
    5.6340   47.1960   53.3650 C   0  0  0  0  0  0  0  0  0  0  0  0
    4.4210   46.9200   52.7250 C   0  0  0  0  0  0  0  0  0  0  0  0
   -0.7430   44.1700   54.7850 O   0  0  0  0  0  0  0  0  0  0  0  0
   -0.0910   44.9880   55.7020 C   0  0  0  0  0  0  0  0  0  0  0  0
    1.3710   44.7020   55.5520 C   0  0  0  0  0  0  0  0  0  0  0  0
    1.5330   44.1510   54.2860 O   0  0  0  0  0  0  0  0  0  0  0  0
    0.1907   41.7960   54.7929 H   0  0  0  0  0  0  0  0  0  0  0  0
   -0.7048   41.9071   53.2397 H   0  0  0  0  0  0  0  0  0  0  0  0
    1.0908   41.8590   53.2397 H   0  0  0  0  0  0  0  0  0  0  0  0
   -0.8114   43.7744   51.9755 H   0  0  0  0  0  0  0  0  0  0  0  0
   -0.4477   45.4111   52.6839 H   0  0  0  0  0  0  0  0  0  0  0  0
    1.9100   46.2740   52.6030 H   0  0  0  0  0  0  0  0  0  0  0  0
    3.2089   45.0976   50.1271 H   0  0  0  0  0  0  0  0  0  0  0  0
    2.8107   46.8464   50.2699 H   0  0  0  0  0  0  0  0  0  0  0  0
    5.5977   45.1528   50.0468 H   0  0  0  0  0  0  0  0  0  0  0  0
    7.7582   45.6331   51.1874 H   0  0  0  0  0  0  0  0  0  0  0  0
    9.5729   46.4025   51.9833 H   0  0  0  0  0  0  0  0  0  0  0  0
    9.9795   48.0195   55.8444 H   0  0  0  0  0  0  0  0  0  0  0  0
    5.6381   47.7722   54.3020 H   0  0  0  0  0  0  0  0  0  0  0  0
    3.4788   47.2857   53.1591 H   0  0  0  0  0  0  0  0  0  0  0  0
   -0.2969   46.0461   55.4829 H   0  0  0  0  0  0  0  0  0  0  0  0
   -0.4343   44.7922   56.7285 H   0  0  0  0  0  0  0  0  0  0  0  0
    1.9520   45.6319   55.6398 H   0  0  0  0  0  0  0  0  0  0  0  0
    1.7266   44.0161   56.3350 H   0  0  0  0  0  0  0  0  0  0  0  0
  1  2  1  0
  2  3  1  0
  3  4  1  0
  4  5  2  0
  4  6  1  0
  6  7  1  0
  7  8  1  0
  8  9  2  0
  9 10  1  0
 10 11  2  0
 11 12  1  0
 12 13  1  0
 13 14  2  0
 14 15  1  0
 15 16  2  0
 11 17  1  0
 17 18  2  0
  2 19  1  0
 19 20  1  0
 20 21  1  0
 21 22  1  0
 22  2  1  0
 18  8  1  0
 16 12  1  0
  1 23  1  0
  1 24  1  0
  1 25  1  0
  3 26  1  0
  3 27  1  0
  6 28  1  0
  7 29  1  0
  7 30  1  0
  9 31  1  0
 10 32  1  0
 13 33  1  0
 15 34  1  0
 17 35  1  0
 18 36  1  0
 20 37  1  0
 20 38  1  0
 21 39  1  0
 21 40  1  0
M  END
>  <meeko>  (2) 
{"is_sidechain": [false], "free_energy": -7.646, "intermolecular_energy": -9.667, "internal_energy": -0.833}

$$$$
ligand_96_conformer_2_docked
     RDKit          3D

 40 42  0  0  0  0  0  0  0  0999 V2000
    9.7370   47.8000   54.9660 C   0  0  0  0  0  0  0  0  0  0  0  0
    8.8930   47.1620   53.8520 C   0  0  0  0  0  0  0  0  0  0  0  0
    7.4970   46.7590   54.3730 C   0  0  0  0  0  0  0  0  0  0  0  0
    6.4690   46.6930   53.2790 C   0  0  0  0  0  0  0  0  0  0  0  0
    5.5690   47.5740   53.2200 O   0  0  0  0  0  0  0  0  0  0  0  0
    6.5360   45.6590   52.2870 N   0  0  0  0  0  0  0  0  0  0  0  0
    5.7340   45.6940   51.0670 C   0  0  0  0  0  0  0  0  0  0  0  0
    4.4180   45.0040   51.3000 C   0  0  0  0  0  0  0  0  0  0  0  0
    4.3730   43.7250   51.8720 C   0  0  0  0  0  0  0  0  0  0  0  0
    3.1440   43.1120   52.1340 C   0  0  0  0  0  0  0  0  0  0  0  0
    1.9360   43.7690   51.8380 C   0  0  0  0  0  0  0  0  0  0  0  0
    0.6780   43.1220   52.1200 N   0  0  0  0  0  0  0  0  0  0  0  0
    0.3620   42.3340   53.1680 C   0  0  0  0  0  0  0  0  0  0  0  0
   -0.9120   41.9010   53.0900 N   0  0  0  0  0  0  0  0  0  0  0  0
   -1.3430   42.4700   51.9440 C   0  0  0  0  0  0  0  0  0  0  0  0
   -0.3910   43.2090   51.3480 N   0  0  0  0  0  0  0  0  0  0  0  0
    1.9880   45.0540   51.2650 C   0  0  0  0  0  0  0  0  0  0  0  0
    3.2190   45.6650   51.0020 C   0  0  0  0  0  0  0  0  0  0  0  0
    8.7250   48.1160   52.8250 O   0  0  0  0  0  0  0  0  0  0  0  0
    9.1340   47.4920   51.6510 C   0  0  0  0  0  0  0  0  0  0  0  0
    9.9450   46.3050   52.0680 C   0  0  0  0  0  0  0  0  0  0  0  0
    9.5650   46.0140   53.3740 O   0  0  0  0  0  0  0  0  0  0  0  0
    9.3385   47.4988   55.9461 H   0  0  0  0  0  0  0  0  0  0  0  0
   10.7800   47.4625   54.8748 H   0  0  0  0  0  0  0  0  0  0  0  0
    9.6968   48.8955   54.8748 H   0  0  0  0  0  0  0  0  0  0  0  0
    7.5703   45.7694   54.8478 H   0  0  0  0  0  0  0  0  0  0  0  0
    7.1732   47.5292   55.0885 H   0  0  0  0  0  0  0  0  0  0  0  0
    7.2360   44.8910   52.3980 H   0  0  0  0  0  0  0  0  0  0  0  0
    5.5516   46.7402   50.7802 H   0  0  0  0  0  0  0  0  0  0  0  0
    6.2766   45.1771   50.2618 H   0  0  0  0  0  0  0  0  0  0  0  0
    5.3090   43.2012   52.1159 H   0  0  0  0  0  0  0  0  0  0  0  0
    3.1215   42.1051   52.5764 H   0  0  0  0  0  0  0  0  0  0  0  0
    1.0555   42.0775   53.9824 H   0  0  0  0  0  0  0  0  0  0  0  0
   -2.3593   42.3432   51.5428 H   0  0  0  0  0  0  0  0  0  0  0  0
    1.0538   45.5816   51.0222 H   0  0  0  0  0  0  0  0  0  0  0  0
    3.2457   46.6712   50.5582 H   0  0  0  0  0  0  0  0  0  0  0  0
    8.2598   47.1698   51.0662 H   0  0  0  0  0  0  0  0  0  0  0  0
    9.7199   48.1747   51.0180 H   0  0  0  0  0  0  0  0  0  0  0  0
    9.7342   45.4491   51.4100 H   0  0  0  0  0  0  0  0  0  0  0  0
   11.0231   46.5131   52.0015 H   0  0  0  0  0  0  0  0  0  0  0  0
  1  2  1  0
  2  3  1  0
  3  4  1  0
  4  5  2  0
  4  6  1  0
  6  7  1  0
  7  8  1  0
  8  9  2  0
  9 10  1  0
 10 11  2  0
 11 12  1  0
 12 13  1  0
 13 14  2  0
 14 15  1  0
 15 16  2  0
 11 17  1  0
 17 18  2  0
  2 19  1  0
 19 20  1  0
 20 21  1  0
 21 22  1  0
 22  2  1  0
 18  8  1  0
 16 12  1  0
  1 23  1  0
  1 24  1  0
  1 25  1  0
  3 26  1  0
  3 27  1  0
  6 28  1  0
  7 29  1  0
  7 30  1  0
  9 31  1  0
 10 32  1  0
 13 33  1  0
 15 34  1  0
 17 35  1  0
 18 36  1  0
 20 37  1  0
 20 38  1  0
 21 39  1  0
 21 40  1  0
M  END
>  <meeko>  (3) 
{"is_sidechain": [false], "free_energy": -7.634, "intermolecular_energy": -9.993, "internal_energy": -0.492}

$$$$
ligand_96_conformer_2_docked
     RDKit          3D

 40 42  0  0  0  0  0  0  0  0999 V2000
   -1.4040   44.8760   53.5490 C   0  0  0  0  0  0  0  0  0  0  0  0
   -0.1710   44.3080   54.2660 C   0  0  0  0  0  0  0  0  0  0  0  0
    0.1080   42.8550   53.8260 C   0  0  0  0  0  0  0  0  0  0  0  0
    1.0440   42.7760   52.6540 C   0  0  0  0  0  0  0  0  0  0  0  0
    0.5730   42.7700   51.4840 O   0  0  0  0  0  0  0  0  0  0  0  0
    2.4630   42.7480   52.8630 N   0  0  0  0  0  0  0  0  0  0  0  0
    3.4170   42.9330   51.7720 C   0  0  0  0  0  0  0  0  0  0  0  0
    4.5030   43.8820   52.1990 C   0  0  0  0  0  0  0  0  0  0  0  0
    4.7060   44.1730   53.5550 C   0  0  0  0  0  0  0  0  0  0  0  0
    5.7510   45.0140   53.9470 C   0  0  0  0  0  0  0  0  0  0  0  0
    6.6200   45.5730   52.9930 C   0  0  0  0  0  0  0  0  0  0  0  0
    7.6960   46.4350   53.4170 N   0  0  0  0  0  0  0  0  0  0  0  0
    8.8820   46.6490   52.8120 C   0  0  0  0  0  0  0  0  0  0  0  0
    9.6400   47.5180   53.5090 N   0  0  0  0  0  0  0  0  0  0  0  0
    8.8490   47.8150   54.5620 C   0  0  0  0  0  0  0  0  0  0  0  0
    7.6710   47.1650   54.5190 N   0  0  0  0  0  0  0  0  0  0  0  0
    6.4120   45.2750   51.6330 C   0  0  0  0  0  0  0  0  0  0  0  0
    5.3650   44.4340   51.2420 C   0  0  0  0  0  0  0  0  0  0  0  0
    0.9460   45.0990   53.9170 O   0  0  0  0  0  0  0  0  0  0  0  0
    1.5310   45.4890   55.1180 C   0  0  0  0  0  0  0  0  0  0  0  0
    0.4970   45.2690   56.1780 C   0  0  0  0  0  0  0  0  0  0  0  0
   -0.4000   44.3400   55.6610 O   0  0  0  0  0  0  0  0  0  0  0  0
   -2.1384   45.2143   54.2948 H   0  0  0  0  0  0  0  0  0  0  0  0
   -1.1027   45.7261   52.9192 H   0  0  0  0  0  0  0  0  0  0  0  0
   -1.8543   44.0946   52.9192 H   0  0  0  0  0  0  0  0  0  0  0  0
    0.5548   42.3107   54.6710 H   0  0  0  0  0  0  0  0  0  0  0  0
   -0.8498   42.4105   53.5179 H   0  0  0  0  0  0  0  0  0  0  0  0
    2.8320   42.6690   53.8370 H   0  0  0  0  0  0  0  0  0  0  0  0
    3.8630   41.9626   51.5086 H   0  0  0  0  0  0  0  0  0  0  0  0
    2.8934   43.3499   50.8990 H   0  0  0  0  0  0  0  0  0  0  0  0
    4.0397   43.7374   54.3141 H   0  0  0  0  0  0  0  0  0  0  0  0
    5.8954   45.2412   55.0135 H   0  0  0  0  0  0  0  0  0  0  0  0
    9.1914   46.1744   51.8691 H   0  0  0  0  0  0  0  0  0  0  0  0
    9.1351   48.5102   55.3650 H   0  0  0  0  0  0  0  0  0  0  0  0
    7.0782   45.7070   50.8717 H   0  0  0  0  0  0  0  0  0  0  0  0
    5.2173   44.2044   50.1764 H   0  0  0  0  0  0  0  0  0  0  0  0
    2.4231   44.8790   55.3232 H   0  0  0  0  0  0  0  0  0  0  0  0
    1.8524   46.5405   55.0841 H   0  0  0  0  0  0  0  0  0  0  0  0
    0.9663   44.8773   57.0925 H   0  0  0  0  0  0  0  0  0  0  0  0
   -0.0092   46.2086   56.4441 H   0  0  0  0  0  0  0  0  0  0  0  0
  1  2  1  0
  2  3  1  0
  3  4  1  0
  4  5  2  0
  4  6  1  0
  6  7  1  0
  7  8  1  0
  8  9  2  0
  9 10  1  0
 10 11  2  0
 11 12  1  0
 12 13  1  0
 13 14  2  0
 14 15  1  0
 15 16  2  0
 11 17  1  0
 17 18  2  0
  2 19  1  0
 19 20  1  0
 20 21  1  0
 21 22  1  0
 22  2  1  0
 18  8  1  0
 16 12  1  0
  1 23  1  0
  1 24  1  0
  1 25  1  0
  3 26  1  0
  3 27  1  0
  6 28  1  0
  7 29  1  0
  7 30  1  0
  9 31  1  0
 10 32  1  0
 13 33  1  0
 15 34  1  0
 17 35  1  0
 18 36  1  0
 20 37  1  0
 20 38  1  0
 21 39  1  0
 21 40  1  0
M  END
>  <meeko>  (4) 
{"is_sidechain": [false], "free_energy": -7.487, "intermolecular_energy": -9.336, "internal_energy": -0.959}

$$$$
ligand_96_conformer_2_docked
     RDKit          3D

 40 42  0  0  0  0  0  0  0  0999 V2000
   -1.3520   43.8000   54.9440 C   0  0  0  0  0  0  0  0  0  0  0  0
   -0.8290   43.5720   53.5180 C   0  0  0  0  0  0  0  0  0  0  0  0
    0.5940   42.9740   53.5360 C   0  0  0  0  0  0  0  0  0  0  0  0
    1.4380   43.4580   52.3920 C   0  0  0  0  0  0  0  0  0  0  0  0
    1.6340   42.7020   51.4020 O   0  0  0  0  0  0  0  0  0  0  0  0
    1.9850   44.7840   52.4080 N   0  0  0  0  0  0  0  0  0  0  0  0
    2.5860   45.3960   51.2260 C   0  0  0  0  0  0  0  0  0  0  0  0
    4.0310   45.7180   51.4950 C   0  0  0  0  0  0  0  0  0  0  0  0
    4.3940   46.5080   52.5940 C   0  0  0  0  0  0  0  0  0  0  0  0
    5.7420   46.7590   52.8680 C   0  0  0  0  0  0  0  0  0  0  0  0
    6.7530   46.2170   52.0550 C   0  0  0  0  0  0  0  0  0  0  0  0
    8.1380   46.4830   52.3560 N   0  0  0  0  0  0  0  0  0  0  0  0
    8.6490   47.1520   53.4100 C   0  0  0  0  0  0  0  0  0  0  0  0
    9.9940   47.2070   53.3520 N   0  0  0  0  0  0  0  0  0  0  0  0
   10.2640   46.5380   52.2110 C   0  0  0  0  0  0  0  0  0  0  0  0
    9.1500   46.0960   51.5990 N   0  0  0  0  0  0  0  0  0  0  0  0
    6.3810   45.4230   50.9530 C   0  0  0  0  0  0  0  0  0  0  0  0
    5.0320   45.1740   50.6800 C   0  0  0  0  0  0  0  0  0  0  0  0
   -1.6880   42.6550   52.8740 O   0  0  0  0  0  0  0  0  0  0  0  0
   -2.0730   43.2610   51.6830 C   0  0  0  0  0  0  0  0  0  0  0  0
   -1.7680   44.7180   51.8360 C   0  0  0  0  0  0  0  0  0  0  0  0
   -0.8080   44.8110   52.8380 O   0  0  0  0  0  0  0  0  0  0  0  0
   -0.5942   43.4696   55.6697 H   0  0  0  0  0  0  0  0  0  0  0  0
   -1.5593   44.8701   55.0918 H   0  0  0  0  0  0  0  0  0  0  0  0
   -2.2771   43.2235   55.0918 H   0  0  0  0  0  0  0  0  0  0  0  0
    1.0834   43.2574   54.4795 H   0  0  0  0  0  0  0  0  0  0  0  0
    0.4980   41.8823   53.4409 H   0  0  0  0  0  0  0  0  0  0  0  0
    1.8830   45.3660   53.2700 H   0  0  0  0  0  0  0  0  0  0  0  0
    2.5196   44.6967   50.3795 H   0  0  0  0  0  0  0  0  0  0  0  0
    2.0469   46.3240   50.9848 H   0  0  0  0  0  0  0  0  0  0  0  0
    3.6149   46.9326   53.2441 H   0  0  0  0  0  0  0  0  0  0  0  0
    6.0144   47.3873   53.7289 H   0  0  0  0  0  0  0  0  0  0  0  0
    8.0445   47.5962   54.2145 H   0  0  0  0  0  0  0  0  0  0  0  0
   11.2806   46.3727   51.8248 H   0  0  0  0  0  0  0  0  0  0  0  0
    7.1575   44.9953   50.3018 H   0  0  0  0  0  0  0  0  0  0  0  0
    4.7553   44.5469   49.8197 H   0  0  0  0  0  0  0  0  0  0  0  0
   -1.5055   42.8394   50.8402 H   0  0  0  0  0  0  0  0  0  0  0  0
   -3.1407   43.0953   51.4767 H   0  0  0  0  0  0  0  0  0  0  0  0
   -1.3756   45.1264   50.8930 H   0  0  0  0  0  0  0  0  0  0  0  0
   -2.6711   45.2915   52.0920 H   0  0  0  0  0  0  0  0  0  0  0  0
  1  2  1  0
  2  3  1  0
  3  4  1  0
  4  5  2  0
  4  6  1  0
  6  7  1  0
  7  8  1  0
  8  9  2  0
  9 10  1  0
 10 11  2  0
 11 12  1  0
 12 13  1  0
 13 14  2  0
 14 15  1  0
 15 16  2  0
 11 17  1  0
 17 18  2  0
  2 19  1  0
 19 20  1  0
 20 21  1  0
 21 22  1  0
 22  2  1  0
 18  8  1  0
 16 12  1  0
  1 23  1  0
  1 24  1  0
  1 25  1  0
  3 26  1  0
  3 27  1  0
  6 28  1  0
  7 29  1  0
  7 30  1  0
  9 31  1  0
 10 32  1  0
 13 33  1  0
 15 34  1  0
 17 35  1  0
 18 36  1  0
 20 37  1  0
 20 38  1  0
 21 39  1  0
 21 40  1  0
M  END
>  <meeko>  (5) 
{"is_sidechain": [false], "free_energy": -7.172, "intermolecular_energy": -9.141, "internal_energy": -0.747}

$$$$
