ligand_69_conformer_3_docked
     RDKit          3D

 43 46  0  0  0  0  0  0  0  0999 V2000
    1.7460   44.0430   51.6720 C   0  0  0  0  0  0  0  0  0  0  0  0
    2.4390   44.4810   52.8780 N   0  0  0  0  0  0  0  0  0  0  0  0
    1.8520   44.5200   54.2020 C   0  0  0  0  0  0  0  0  0  0  0  0
    2.9930   44.9440   55.1430 C   0  0  0  0  0  0  0  0  0  0  0  0
    4.1020   45.5860   54.2570 C   0  0  0  0  0  0  0  0  0  0  0  0
    3.9910   47.1290   54.3010 C   0  0  0  0  0  0  0  0  0  0  0  0
    5.0430   47.8040   53.4060 C   0  0  0  0  0  0  0  0  0  0  0  0
    6.3500   47.1330   53.4840 N   0  0  0  0  0  0  0  0  0  0  0  0
    7.4450   47.6760   52.7200 C   0  0  0  0  0  0  0  0  0  0  0  0
    7.4740   48.9100   52.4670 O   0  0  0  0  0  0  0  0  0  0  0  0
    8.5490   46.8270   52.2260 C   0  0  0  0  0  0  0  0  0  0  0  0
    9.8730   46.9030   52.6460 C   0  0  0  0  0  0  0  0  0  0  0  0
   10.5920   45.9640   51.9110 C   0  0  0  0  0  0  0  0  0  0  0  0
    9.6740   45.3710   51.0670 C   0  0  0  0  0  0  0  0  0  0  0  0
    9.8760   44.3950   50.0980 C   0  0  0  0  0  0  0  0  0  0  0  0
    8.7650   44.0010   49.3400 C   0  0  0  0  0  0  0  0  0  0  0  0
    7.5130   44.6010   49.5710 C   0  0  0  0  0  0  0  0  0  0  0  0
    7.3910   45.5550   50.5370 N   0  0  0  0  0  0  0  0  0  0  0  0
    8.4560   45.8970   51.2590 N   0  0  0  0  0  0  0  0  0  0  0  0
    6.6120   46.1930   54.5840 C   0  0  0  0  0  0  0  0  0  0  0  0
    5.5250   45.1050   54.6790 C   0  0  0  0  0  0  0  0  0  0  0  0
    3.7190   45.0820   52.9010 C   0  0  0  0  0  0  0  0  0  0  0  0
    4.4340   45.1940   51.8690 O   0  0  0  0  0  0  0  0  0  0  0  0
    0.8467   43.4746   51.9518 H   0  0  0  0  0  0  0  0  0  0  0  0
    1.4544   44.9212   51.0772 H   0  0  0  0  0  0  0  0  0  0  0  0
    2.4141   43.4028   51.0772 H   0  0  0  0  0  0  0  0  0  0  0  0
    1.0317   45.2520   54.2378 H   0  0  0  0  0  0  0  0  0  0  0  0
    1.4254   43.5475   54.4889 H   0  0  0  0  0  0  0  0  0  0  0  0
    2.6248   45.6764   55.8765 H   0  0  0  0  0  0  0  0  0  0  0  0
    3.3861   44.0787   55.6968 H   0  0  0  0  0  0  0  0  0  0  0  0
    2.9888   47.4236   53.9564 H   0  0  0  0  0  0  0  0  0  0  0  0
    4.1649   47.4544   55.3373 H   0  0  0  0  0  0  0  0  0  0  0  0
    4.6920   47.7766   52.3638 H   0  0  0  0  0  0  0  0  0  0  0  0
    5.1723   48.8384   53.7570 H   0  0  0  0  0  0  0  0  0  0  0  0
   10.2764   47.5784   53.4148 H   0  0  0  0  0  0  0  0  0  0  0  0
   11.6665   45.7412   51.9868 H   0  0  0  0  0  0  0  0  0  0  0  0
   10.8682   43.9497   49.9328 H   0  0  0  0  0  0  0  0  0  0  0  0
    8.8711   43.2255   48.5672 H   0  0  0  0  0  0  0  0  0  0  0  0
    6.6379   44.3018   48.9754 H   0  0  0  0  0  0  0  0  0  0  0  0
    7.5855   45.7097   54.4149 H   0  0  0  0  0  0  0  0  0  0  0  0
    6.6104   46.7607   55.5262 H   0  0  0  0  0  0  0  0  0  0  0  0
    5.8149   44.2693   54.0251 H   0  0  0  0  0  0  0  0  0  0  0  0
    5.4599   44.8140   55.7378 H   0  0  0  0  0  0  0  0  0  0  0  0
  1  2  1  0
  2  3  1  0
  3  4  1  0
  4  5  1  0
  5  6  1  0
  6  7  1  0
  7  8  1  0
  8  9  1  0
  9 10  2  0
  9 11  1  0
 11 12  2  0
 12 13  1  0
 13 14  2  0
 14 15  1  0
 15 16  2  0
 16 17  1  0
 17 18  2  0
 18 19  1  0
  8 20  1  0
 20 21  1  0
  5 22  1  0
 22 23  2  0
 22  2  1  0
 21  5  1  0
 19 11  1  0
 19 14  1  0
  1 24  1  0
  1 25  1  0
  1 26  1  0
  3 27  1  0
  3 28  1  0
  4 29  1  0
  4 30  1  0
  6 31  1  0
  6 32  1  0
  7 33  1  0
  7 34  1  0
 12 35  1  0
 13 36  1  0
 15 37  1  0
 16 38  1  0
 17 39  1  0
 20 40  1  0
 20 41  1  0
 21 42  1  0
 21 43  1  0
M  END
>  <meeko>  (1) 
{"is_sidechain": [false], "free_energy": -9.152, "intermolecular_energy": -9.687, "internal_energy": -0.495}

$$$$
ligand_69_conformer_3_docked
     RDKit          3D

 43 46  0  0  0  0  0  0  0  0999 V2000
   -0.3930   43.6100   50.1730 C   0  0  0  0  0  0  0  0  0  0  0  0
    0.2980   43.4460   51.4470 N   0  0  0  0  0  0  0  0  0  0  0  0
   -0.2310   42.7260   52.5880 C   0  0  0  0  0  0  0  0  0  0  0  0
    0.8940   42.7400   53.6370 C   0  0  0  0  0  0  0  0  0  0  0  0
    1.8820   43.8760   53.2340 C   0  0  0  0  0  0  0  0  0  0  0  0
    1.5960   45.1490   54.0650 C   0  0  0  0  0  0  0  0  0  0  0  0
    2.5220   46.3110   53.6690 C   0  0  0  0  0  0  0  0  0  0  0  0
    3.9000   45.8600   53.4190 N   0  0  0  0  0  0  0  0  0  0  0  0
    4.8900   46.8470   53.0680 C   0  0  0  0  0  0  0  0  0  0  0  0
    4.7660   48.0290   53.4880 O   0  0  0  0  0  0  0  0  0  0  0  0
    6.0610   46.5150   52.2310 C   0  0  0  0  0  0  0  0  0  0  0  0
    6.0150   45.8620   51.0030 C   0  0  0  0  0  0  0  0  0  0  0  0
    7.3280   45.7120   50.5670 C   0  0  0  0  0  0  0  0  0  0  0  0
    8.1140   46.2670   51.5570 C   0  0  0  0  0  0  0  0  0  0  0  0
    9.5000   46.3450   51.6370 C   0  0  0  0  0  0  0  0  0  0  0  0
   10.0470   46.9260   52.7890 C   0  0  0  0  0  0  0  0  0  0  0  0
    9.1950   47.3890   53.8090 C   0  0  0  0  0  0  0  0  0  0  0  0
    7.8450   47.2760   53.6640 N   0  0  0  0  0  0  0  0  0  0  0  0
    7.3480   46.7420   52.5500 N   0  0  0  0  0  0  0  0  0  0  0  0
    4.3170   44.5290   53.8810 C   0  0  0  0  0  0  0  0  0  0  0  0
    3.3680   43.4240   53.3770 C   0  0  0  0  0  0  0  0  0  0  0  0
    1.4990   44.0990   51.8040 C   0  0  0  0  0  0  0  0  0  0  0  0
    2.1500   44.8120   50.9940 O   0  0  0  0  0  0  0  0  0  0  0  0
   -1.4481   43.8604   50.3577 H   0  0  0  0  0  0  0  0  0  0  0  0
    0.0814   44.4205   49.6002 H   0  0  0  0  0  0  0  0  0  0  0  0
   -0.3334   42.6728   49.6002 H   0  0  0  0  0  0  0  0  0  0  0  0
   -1.1278   43.2292   52.9786 H   0  0  0  0  0  0  0  0  0  0  0  0
   -0.5300   41.7013   52.3224 H   0  0  0  0  0  0  0  0  0  0  0  0
    0.4768   42.9392   54.6351 H   0  0  0  0  0  0  0  0  0  0  0  0
    1.4082   41.7682   53.6727 H   0  0  0  0  0  0  0  0  0  0  0  0
    0.5520   45.4541   53.9007 H   0  0  0  0  0  0  0  0  0  0  0  0
    1.7777   44.9133   55.1240 H   0  0  0  0  0  0  0  0  0  0  0  0
    2.1309   46.7803   52.7542 H   0  0  0  0  0  0  0  0  0  0  0  0
    2.5458   47.0253   54.5052 H   0  0  0  0  0  0  0  0  0  0  0  0
    5.1098   45.5269   50.4754 H   0  0  0  0  0  0  0  0  0  0  0  0
    7.6684   45.2482   49.6295 H   0  0  0  0  0  0  0  0  0  0  0  0
   10.1417   45.9657   50.8281 H   0  0  0  0  0  0  0  0  0  0  0  0
   11.1378   47.0198   52.8956 H   0  0  0  0  0  0  0  0  0  0  0  0
    9.6171   47.8401   54.7192 H   0  0  0  0  0  0  0  0  0  0  0  0
    5.3314   44.3244   53.5079 H   0  0  0  0  0  0  0  0  0  0  0  0
    4.2916   44.5257   54.9807 H   0  0  0  0  0  0  0  0  0  0  0  0
    3.7228   43.0871   52.3918 H   0  0  0  0  0  0  0  0  0  0  0  0
    3.3845   42.6237   54.1315 H   0  0  0  0  0  0  0  0  0  0  0  0
  1  2  1  0
  2  3  1  0
  3  4  1  0
  4  5  1  0
  5  6  1  0
  6  7  1  0
  7  8  1  0
  8  9  1  0
  9 10  2  0
  9 11  1  0
 11 12  2  0
 12 13  1  0
 13 14  2  0
 14 15  1  0
 15 16  2  0
 16 17  1  0
 17 18  2  0
 18 19  1  0
  8 20  1  0
 20 21  1  0
  5 22  1  0
 22 23  2  0
 22  2  1  0
 21  5  1  0
 19 11  1  0
 19 14  1  0
  1 24  1  0
  1 25  1  0
  1 26  1  0
  3 27  1  0
  3 28  1  0
  4 29  1  0
  4 30  1  0
  6 31  1  0
  6 32  1  0
  7 33  1  0
  7 34  1  0
 12 35  1  0
 13 36  1  0
 15 37  1  0
 16 38  1  0
 17 39  1  0
 20 40  1  0
 20 41  1  0
 21 42  1  0
 21 43  1  0
M  END
>  <meeko>  (2) 
{"is_sidechain": [false], "free_energy": -8.693, "intermolecular_energy": -9.391, "internal_energy": -0.305}

$$$$
ligand_69_conformer_3_docked
     RDKit          3D

 43 46  0  0  0  0  0  0  0  0999 V2000
   -0.0170   45.0470   56.9130 C   0  0  0  0  0  0  0  0  0  0  0  0
   -0.2200   44.9470   55.4730 N   0  0  0  0  0  0  0  0  0  0  0  0
   -1.5120   44.9330   54.8180 C   0  0  0  0  0  0  0  0  0  0  0  0
   -1.2070   44.9240   53.3110 C   0  0  0  0  0  0  0  0  0  0  0  0
    0.2740   44.4660   53.1460 C   0  0  0  0  0  0  0  0  0  0  0  0
    0.3290   42.9620   52.7900 C   0  0  0  0  0  0  0  0  0  0  0  0
    1.7750   42.4570   52.6590 C   0  0  0  0  0  0  0  0  0  0  0  0
    2.6430   43.4320   51.9800 N   0  0  0  0  0  0  0  0  0  0  0  0
    4.0230   43.0820   51.7570 C   0  0  0  0  0  0  0  0  0  0  0  0
    4.3420   41.8710   51.6190 O   0  0  0  0  0  0  0  0  0  0  0  0
    5.0850   44.1050   51.6780 C   0  0  0  0  0  0  0  0  0  0  0  0
    5.7970   44.4400   50.5300 C   0  0  0  0  0  0  0  0  0  0  0  0
    6.7240   45.4150   50.8900 C   0  0  0  0  0  0  0  0  0  0  0  0
    6.5440   45.6160   52.2440 C   0  0  0  0  0  0  0  0  0  0  0  0
    7.2390   46.4570   53.1060 C   0  0  0  0  0  0  0  0  0  0  0  0
    6.8780   46.4320   54.4610 C   0  0  0  0  0  0  0  0  0  0  0  0
    5.8550   45.5680   54.8940 C   0  0  0  0  0  0  0  0  0  0  0  0
    5.2190   44.7680   53.9920 N   0  0  0  0  0  0  0  0  0  0  0  0
    5.5640   44.8260   52.7070 N   0  0  0  0  0  0  0  0  0  0  0  0
    2.0320   44.5380   51.2280 C   0  0  0  0  0  0  0  0  0  0  0  0
    1.0290   45.3300   52.0890 C   0  0  0  0  0  0  0  0  0  0  0  0
    0.8010   44.6860   54.5300 C   0  0  0  0  0  0  0  0  0  0  0  0
    2.0190   44.6240   54.8480 O   0  0  0  0  0  0  0  0  0  0  0  0
   -0.8850   44.6194   57.4362 H   0  0  0  0  0  0  0  0  0  0  0  0
    0.8905   44.4928   57.1947 H   0  0  0  0  0  0  0  0  0  0  0  0
    0.0967   46.1042   57.1947 H   0  0  0  0  0  0  0  0  0  0  0  0
   -2.0772   44.0329   55.1014 H   0  0  0  0  0  0  0  0  0  0  0  0
   -2.1253   45.7997   55.1056 H   0  0  0  0  0  0  0  0  0  0  0  0
   -1.8787   44.2227   52.7942 H   0  0  0  0  0  0  0  0  0  0  0  0
   -1.3591   45.9223   52.8747 H   0  0  0  0  0  0  0  0  0  0  0  0
   -0.1771   42.3903   53.5818 H   0  0  0  0  0  0  0  0  0  0  0  0
   -0.1702   42.8226   51.8198 H   0  0  0  0  0  0  0  0  0  0  0  0
    2.1762   42.2654   53.6651 H   0  0  0  0  0  0  0  0  0  0  0  0
    1.7593   41.5386   52.0537 H   0  0  0  0  0  0  0  0  0  0  0  0
    5.6542   44.0142   49.5259 H   0  0  0  0  0  0  0  0  0  0  0  0
    7.4480   45.9193   50.2331 H   0  0  0  0  0  0  0  0  0  0  0  0
    8.0402   47.1158   52.7397 H   0  0  0  0  0  0  0  0  0  0  0  0
    7.3921   47.0847   55.1819 H   0  0  0  0  0  0  0  0  0  0  0  0
    5.5698   45.5384   55.9560 H   0  0  0  0  0  0  0  0  0  0  0  0
    2.8261   45.2195   50.8889 H   0  0  0  0  0  0  0  0  0  0  0  0
    1.4865   44.1105   50.3738 H   0  0  0  0  0  0  0  0  0  0  0  0
    1.5788   46.1216   52.6192 H   0  0  0  0  0  0  0  0  0  0  0  0
    0.2671   45.7278   51.4025 H   0  0  0  0  0  0  0  0  0  0  0  0
  1  2  1  0
  2  3  1  0
  3  4  1  0
  4  5  1  0
  5  6  1  0
  6  7  1  0
  7  8  1  0
  8  9  1  0
  9 10  2  0
  9 11  1  0
 11 12  2  0
 12 13  1  0
 13 14  2  0
 14 15  1  0
 15 16  2  0
 16 17  1  0
 17 18  2  0
 18 19  1  0
  8 20  1  0
 20 21  1  0
  5 22  1  0
 22 23  2  0
 22  2  1  0
 21  5  1  0
 19 11  1  0
 19 14  1  0
  1 24  1  0
  1 25  1  0
  1 26  1  0
  3 27  1  0
  3 28  1  0
  4 29  1  0
  4 30  1  0
  6 31  1  0
  6 32  1  0
  7 33  1  0
  7 34  1  0
 12 35  1  0
 13 36  1  0
 15 37  1  0
 16 38  1  0
 17 39  1  0
 20 40  1  0
 20 41  1  0
 21 42  1  0
 21 43  1  0
M  END
>  <meeko>  (3) 
{"is_sidechain": [false], "free_energy": -8.352, "intermolecular_energy": -8.821, "internal_energy": -0.513}

$$$$
ligand_69_conformer_3_docked
     RDKit          3D

 43 46  0  0  0  0  0  0  0  0999 V2000
    7.9720   48.3320   52.3890 C   0  0  0  0  0  0  0  0  0  0  0  0
    7.4110   47.0420   52.0030 N   0  0  0  0  0  0  0  0  0  0  0  0
    8.0420   46.1040   51.0970 C   0  0  0  0  0  0  0  0  0  0  0  0
    7.1300   44.8650   51.0920 C   0  0  0  0  0  0  0  0  0  0  0  0
    5.7460   45.3130   51.6510 C   0  0  0  0  0  0  0  0  0  0  0  0
    4.7640   45.5820   50.4870 C   0  0  0  0  0  0  0  0  0  0  0  0
    3.3960   46.0680   50.9920 C   0  0  0  0  0  0  0  0  0  0  0  0
    2.9640   45.3470   52.2000 N   0  0  0  0  0  0  0  0  0  0  0  0
    1.6820   45.6740   52.7720 C   0  0  0  0  0  0  0  0  0  0  0  0
    0.7600   46.1000   52.0250 O   0  0  0  0  0  0  0  0  0  0  0  0
    1.4080   45.5190   54.2150 C   0  0  0  0  0  0  0  0  0  0  0  0
    2.3290   45.7250   55.2370 C   0  0  0  0  0  0  0  0  0  0  0  0
    1.6840   45.4380   56.4370 C   0  0  0  0  0  0  0  0  0  0  0  0
    0.4040   45.0560   56.0880 C   0  0  0  0  0  0  0  0  0  0  0  0
   -0.6380   44.6300   56.9040 C   0  0  0  0  0  0  0  0  0  0  0  0
   -1.8330   44.2520   56.2780 C   0  0  0  0  0  0  0  0  0  0  0  0
   -1.9330   44.3030   54.8750 C   0  0  0  0  0  0  0  0  0  0  0  0
   -0.8690   44.7280   54.1380 N   0  0  0  0  0  0  0  0  0  0  0  0
    0.2490   45.1040   54.7570 N   0  0  0  0  0  0  0  0  0  0  0  0
    3.6380   44.0940   52.5700 C   0  0  0  0  0  0  0  0  0  0  0  0
    5.1670   44.2690   52.6560 C   0  0  0  0  0  0  0  0  0  0  0  0
    6.1080   46.5990   52.3260 C   0  0  0  0  0  0  0  0  0  0  0  0
    5.3390   47.2490   53.0840 O   0  0  0  0  0  0  0  0  0  0  0  0
    8.0036   48.4046   53.4861 H   0  0  0  0  0  0  0  0  0  0  0  0
    8.9914   48.4239   51.9860 H   0  0  0  0  0  0  0  0  0  0  0  0
    7.3441   49.1403   51.9860 H   0  0  0  0  0  0  0  0  0  0  0  0
    8.1136   46.5334   50.0868 H   0  0  0  0  0  0  0  0  0  0  0  0
    9.0665   45.8568   51.4121 H   0  0  0  0  0  0  0  0  0  0  0  0
    7.0172   44.4835   50.0664 H   0  0  0  0  0  0  0  0  0  0  0  0
    7.5591   44.0604   51.7072 H   0  0  0  0  0  0  0  0  0  0  0  0
    5.1943   46.3517   49.8294 H   0  0  0  0  0  0  0  0  0  0  0  0
    4.6112   44.6373   49.9446 H   0  0  0  0  0  0  0  0  0  0  0  0
    3.4645   47.1409   51.2247 H   0  0  0  0  0  0  0  0  0  0  0  0
    2.6557   45.8778   50.2009 H   0  0  0  0  0  0  0  0  0  0  0  0
    3.3722   46.0534   55.1191 H   0  0  0  0  0  0  0  0  0  0  0  0
    2.1059   45.5022   57.4509 H   0  0  0  0  0  0  0  0  0  0  0  0
   -0.5285   44.5913   57.9978 H   0  0  0  0  0  0  0  0  0  0  0  0
   -2.6899   43.9166   56.8807 H   0  0  0  0  0  0  0  0  0  0  0  0
   -2.8657   44.0012   54.3760 H   0  0  0  0  0  0  0  0  0  0  0  0
    3.2620   43.7635   53.5495 H   0  0  0  0  0  0  0  0  0  0  0  0
    3.4230   43.3477   51.7910 H   0  0  0  0  0  0  0  0  0  0  0  0
    5.4208   44.5936   53.6759 H   0  0  0  0  0  0  0  0  0  0  0  0
    5.6127   43.2975   52.3963 H   0  0  0  0  0  0  0  0  0  0  0  0
  1  2  1  0
  2  3  1  0
  3  4  1  0
  4  5  1  0
  5  6  1  0
  6  7  1  0
  7  8  1  0
  8  9  1  0
  9 10  2  0
  9 11  1  0
 11 12  2  0
 12 13  1  0
 13 14  2  0
 14 15  1  0
 15 16  2  0
 16 17  1  0
 17 18  2  0
 18 19  1  0
  8 20  1  0
 20 21  1  0
  5 22  1  0
 22 23  2  0
 22  2  1  0
 21  5  1  0
 19 11  1  0
 19 14  1  0
  1 24  1  0
  1 25  1  0
  1 26  1  0
  3 27  1  0
  3 28  1  0
  4 29  1  0
  4 30  1  0
  6 31  1  0
  6 32  1  0
  7 33  1  0
  7 34  1  0
 12 35  1  0
 13 36  1  0
 15 37  1  0
 16 38  1  0
 17 39  1  0
 20 40  1  0
 20 41  1  0
 21 42  1  0
 21 43  1  0
M  END
>  <meeko>  (4) 
{"is_sidechain": [false], "free_energy": -7.541, "intermolecular_energy": -8.421, "internal_energy": -0.056}

$$$$
ligand_69_conformer_3_docked
     RDKit          3D

 43 46  0  0  0  0  0  0  0  0999 V2000
    6.3010   41.5050   49.9690 C   0  0  0  0  0  0  0  0  0  0  0  0
    6.1770   42.9410   50.1860 N   0  0  0  0  0  0  0  0  0  0  0  0
    6.9800   43.9510   49.5270 C   0  0  0  0  0  0  0  0  0  0  0  0
    6.4100   45.2990   49.9970 C   0  0  0  0  0  0  0  0  0  0  0  0
    5.5780   45.0200   51.2850 C   0  0  0  0  0  0  0  0  0  0  0  0
    6.4140   45.3560   52.5420 C   0  0  0  0  0  0  0  0  0  0  0  0
    5.6450   45.0560   53.8390 C   0  0  0  0  0  0  0  0  0  0  0  0
    4.2270   45.4390   53.7430 N   0  0  0  0  0  0  0  0  0  0  0  0
    3.3860   45.2440   54.8970 C   0  0  0  0  0  0  0  0  0  0  0  0
    3.8930   45.2910   56.0510 O   0  0  0  0  0  0  0  0  0  0  0  0
    1.9360   44.9950   54.7740 C   0  0  0  0  0  0  0  0  0  0  0  0
    0.9480   45.5840   55.5570 C   0  0  0  0  0  0  0  0  0  0  0  0
   -0.2730   45.0550   55.1460 C   0  0  0  0  0  0  0  0  0  0  0  0
    0.0310   44.1560   54.1430 C   0  0  0  0  0  0  0  0  0  0  0  0
   -0.8210   43.3290   53.4190 C   0  0  0  0  0  0  0  0  0  0  0  0
   -0.2370   42.4680   52.4790 C   0  0  0  0  0  0  0  0  0  0  0  0
    1.1600   42.4630   52.3110 C   0  0  0  0  0  0  0  0  0  0  0  0
    1.9340   43.3000   53.0590 N   0  0  0  0  0  0  0  0  0  0  0  0
    1.3540   44.1250   53.9300 N   0  0  0  0  0  0  0  0  0  0  0  0
    3.7930   46.3280   52.6570 C   0  0  0  0  0  0  0  0  0  0  0  0
    4.2250   45.7980   51.2760 C   0  0  0  0  0  0  0  0  0  0  0  0
    5.3750   43.5400   51.1840 C   0  0  0  0  0  0  0  0  0  0  0  0
    4.5960   42.8750   51.9180 O   0  0  0  0  0  0  0  0  0  0  0  0
    6.3455   40.9899   50.9399 H   0  0  0  0  0  0  0  0  0  0  0  0
    5.4307   41.1434   49.4016 H   0  0  0  0  0  0  0  0  0  0  0  0
    7.2204   41.2979   49.4016 H   0  0  0  0  0  0  0  0  0  0  0  0
    8.0355   43.8559   49.8219 H   0  0  0  0  0  0  0  0  0  0  0  0
    6.9433   43.8516   48.4321 H   0  0  0  0  0  0  0  0  0  0  0  0
    7.2295   45.9978   50.2210 H   0  0  0  0  0  0  0  0  0  0  0  0
    5.7824   45.7527   49.2158 H   0  0  0  0  0  0  0  0  0  0  0  0
    7.3351   44.7549   52.5276 H   0  0  0  0  0  0  0  0  0  0  0  0
    6.6422   46.4319   52.5221 H   0  0  0  0  0  0  0  0  0  0  0  0
    5.7079   43.9777   54.0473 H   0  0  0  0  0  0  0  0  0  0  0  0
    6.1013   45.6459   54.6476 H   0  0  0  0  0  0  0  0  0  0  0  0
    1.1025   46.3283   56.3520 H   0  0  0  0  0  0  0  0  0  0  0  0
   -1.2706   45.3017   55.5383 H   0  0  0  0  0  0  0  0  0  0  0  0
   -1.9093   43.3495   53.5774 H   0  0  0  0  0  0  0  0  0  0  0  0
   -0.8683   41.7993   51.8754 H   0  0  0  0  0  0  0  0  0  0  0  0
    1.6258   41.7866   51.5792 H   0  0  0  0  0  0  0  0  0  0  0  0
    2.6962   46.4090   52.6801 H   0  0  0  0  0  0  0  0  0  0  0  0
    4.2654   47.3096   52.8094 H   0  0  0  0  0  0  0  0  0  0  0  0
    3.4406   45.1220   50.9049 H   0  0  0  0  0  0  0  0  0  0  0  0
    4.3696   46.6770   50.6307 H   0  0  0  0  0  0  0  0  0  0  0  0
  1  2  1  0
  2  3  1  0
  3  4  1  0
  4  5  1  0
  5  6  1  0
  6  7  1  0
  7  8  1  0
  8  9  1  0
  9 10  2  0
  9 11  1  0
 11 12  2  0
 12 13  1  0
 13 14  2  0
 14 15  1  0
 15 16  2  0
 16 17  1  0
 17 18  2  0
 18 19  1  0
  8 20  1  0
 20 21  1  0
  5 22  1  0
 22 23  2  0
 22  2  1  0
 21  5  1  0
 19 11  1  0
 19 14  1  0
  1 24  1  0
  1 25  1  0
  1 26  1  0
  3 27  1  0
  3 28  1  0
  4 29  1  0
  4 30  1  0
  6 31  1  0
  6 32  1  0
  7 33  1  0
  7 34  1  0
 12 35  1  0
 13 36  1  0
 15 37  1  0
 16 38  1  0
 17 39  1  0
 20 40  1  0
 20 41  1  0
 21 42  1  0
 21 43  1  0
M  END
>  <meeko>  (5) 
{"is_sidechain": [false], "free_energy": -7.384, "intermolecular_energy": -8.163, "internal_energy": -0.148}

$$$$
