ligand_30_conformer_5_docked
     RDKit          3D

 40 42  0  0  0  0  0  0  0  0999 V2000
    9.8990   47.3920   54.6080 C   0  0  0  0  0  0  0  0  0  0  0  0
    9.6430   47.4140   53.2090 O   0  0  0  0  0  0  0  0  0  0  0  0
    8.3860   47.7150   52.6740 C   0  0  0  0  0  0  0  0  0  0  0  0
    8.0200   48.9180   52.5760 O   0  0  0  0  0  0  0  0  0  0  0  0
    7.4840   46.6070   52.2600 C   0  0  0  0  0  0  0  0  0  0  0  0
    7.5740   46.1430   50.9360 C   0  0  0  0  0  0  0  0  0  0  0  0
    6.7770   45.0900   50.4870 C   0  0  0  0  0  0  0  0  0  0  0  0
    5.8600   44.4810   51.3480 C   0  0  0  0  0  0  0  0  0  0  0  0
    5.0470   43.3070   50.8800 C   0  0  0  0  0  0  0  0  0  0  0  0
    3.6730   43.4400   51.3520 N   0  0  0  0  0  0  0  0  0  0  0  0
    3.0660   42.6760   52.2740 C   0  0  0  0  0  0  0  0  0  0  0  0
    1.8290   43.2430   52.4790 C   0  0  0  0  0  0  0  0  0  0  0  0
    0.8170   42.8260   53.4970 C   0  0  0  0  0  0  0  0  0  0  0  0
    0.6440   43.8870   54.4820 N   0  0  0  0  0  0  0  0  0  0  0  0
   -0.5290   44.3510   54.9470 C   0  0  0  0  0  0  0  0  0  0  0  0
   -0.2680   45.2920   55.9190 C   0  0  0  0  0  0  0  0  0  0  0  0
    1.1110   45.3410   55.9990 C   0  0  0  0  0  0  0  0  0  0  0  0
    1.6460   44.4700   55.1210 N   0  0  0  0  0  0  0  0  0  0  0  0
    1.7270   44.3430   51.7060 N   0  0  0  0  0  0  0  0  0  0  0  0
    2.8650   44.4390   51.0300 N   0  0  0  0  0  0  0  0  0  0  0  0
    5.7590   44.9270   52.6720 C   0  0  0  0  0  0  0  0  0  0  0  0
    6.5450   45.9970   53.1380 C   0  0  0  0  0  0  0  0  0  0  0  0
    6.3560   46.4550   54.5620 C   0  0  0  0  0  0  0  0  0  0  0  0
    8.9487   47.4737   55.1560 H   0  0  0  0  0  0  0  0  0  0  0  0
   10.3962   46.4478   54.8750 H   0  0  0  0  0  0  0  0  0  0  0  0
   10.5500   48.2375   54.8750 H   0  0  0  0  0  0  0  0  0  0  0  0
    8.2842   46.6179   50.2431 H   0  0  0  0  0  0  0  0  0  0  0  0
    6.8708   44.7370   49.4494 H   0  0  0  0  0  0  0  0  0  0  0  0
    5.0541   43.2725   49.7806 H   0  0  0  0  0  0  0  0  0  0  0  0
    5.4817   42.3799   51.2818 H   0  0  0  0  0  0  0  0  0  0  0  0
    3.4739   41.7802   52.7650 H   0  0  0  0  0  0  0  0  0  0  0  0
   -0.1437   42.6299   52.9984 H   0  0  0  0  0  0  0  0  0  0  0  0
    1.1642   41.9129   54.0027 H   0  0  0  0  0  0  0  0  0  0  0  0
   -1.5266   44.0336   54.6092 H   0  0  0  0  0  0  0  0  0  0  0  0
   -0.9959   45.8751   56.5022 H   0  0  0  0  0  0  0  0  0  0  0  0
    1.6841   45.9916   56.6759 H   0  0  0  0  0  0  0  0  0  0  0  0
    5.0547   44.4333   53.3577 H   0  0  0  0  0  0  0  0  0  0  0  0
    6.6837   45.6610   55.2491 H   0  0  0  0  0  0  0  0  0  0  0  0
    6.9534   47.3617   54.7379 H   0  0  0  0  0  0  0  0  0  0  0  0
    5.2930   46.6765   54.7379 H   0  0  0  0  0  0  0  0  0  0  0  0
  1  2  1  0
  2  3  1  0
  3  4  2  0
  3  5  1  0
  5  6  2  0
  6  7  1  0
  7  8  2  0
  8  9  1  0
  9 10  1  0
 10 11  1  0
 11 12  2  0
 12 13  1  0
 13 14  1  0
 14 15  1  0
 15 16  2  0
 16 17  1  0
 17 18  2  0
 12 19  1  0
 19 20  2  0
  8 21  1  0
 21 22  2  0
 22 23  1  0
 22  5  1  0
 20 10  1  0
 18 14  1  0
  1 24  1  0
  1 25  1  0
  1 26  1  0
  6 27  1  0
  7 28  1  0
  9 29  1  0
  9 30  1  0
 11 31  1  0
 13 32  1  0
 13 33  1  0
 15 34  1  0
 16 35  1  0
 17 36  1  0
 21 37  1  0
 23 38  1  0
 23 39  1  0
 23 40  1  0
M  END
>  <meeko>  (1) 
{"is_sidechain": [false], "free_energy": -7.935, "intermolecular_energy": -10.718, "internal_energy": -0.622}

$$$$
ligand_30_conformer_5_docked
     RDKit          3D

 40 42  0  0  0  0  0  0  0  0999 V2000
    5.7290   41.8700   47.0810 C   0  0  0  0  0  0  0  0  0  0  0  0
    5.3750   41.1850   48.2770 O   0  0  0  0  0  0  0  0  0  0  0  0
    5.9800   41.4520   49.5090 C   0  0  0  0  0  0  0  0  0  0  0  0
    7.0720   40.8920   49.8020 O   0  0  0  0  0  0  0  0  0  0  0  0
    5.3100   42.3680   50.4700 C   0  0  0  0  0  0  0  0  0  0  0  0
    4.2130   41.8720   51.1970 C   0  0  0  0  0  0  0  0  0  0  0  0
    3.5530   42.6670   52.1340 C   0  0  0  0  0  0  0  0  0  0  0  0
    3.9660   43.9830   52.3600 C   0  0  0  0  0  0  0  0  0  0  0  0
    3.2920   44.8170   53.4140 C   0  0  0  0  0  0  0  0  0  0  0  0
    4.2300   45.8050   53.9330 N   0  0  0  0  0  0  0  0  0  0  0  0
    5.5310   45.6080   54.2060 C   0  0  0  0  0  0  0  0  0  0  0  0
    6.0340   46.8410   54.5560 C   0  0  0  0  0  0  0  0  0  0  0  0
    7.4640   47.1700   54.8400 C   0  0  0  0  0  0  0  0  0  0  0  0
    8.2090   47.2430   53.5890 N   0  0  0  0  0  0  0  0  0  0  0  0
    9.3040   46.5260   53.2780 C   0  0  0  0  0  0  0  0  0  0  0  0
    9.6630   46.8230   51.9820 C   0  0  0  0  0  0  0  0  0  0  0  0
    8.7160   47.7370   51.5570 C   0  0  0  0  0  0  0  0  0  0  0  0
    7.8360   47.9710   52.5490 N   0  0  0  0  0  0  0  0  0  0  0  0
    5.0430   47.7520   54.4610 N   0  0  0  0  0  0  0  0  0  0  0  0
    3.9570   47.0920   54.0800 N   0  0  0  0  0  0  0  0  0  0  0  0
    5.0590   44.4920   51.6480 C   0  0  0  0  0  0  0  0  0  0  0  0
    5.7280   43.7090   50.6890 C   0  0  0  0  0  0  0  0  0  0  0  0
    6.8700   44.3330   49.9290 C   0  0  0  0  0  0  0  0  0  0  0  0
    6.2204   42.8209   47.3348 H   0  0  0  0  0  0  0  0  0  0  0  0
    6.4180   41.2470   46.4919 H   0  0  0  0  0  0  0  0  0  0  0  0
    4.8222   42.0717   46.4919 H   0  0  0  0  0  0  0  0  0  0  0  0
    3.8702   40.8412   51.0240 H   0  0  0  0  0  0  0  0  0  0  0  0
    2.7028   42.2560   52.6982 H   0  0  0  0  0  0  0  0  0  0  0  0
    2.4251   45.3316   52.9740 H   0  0  0  0  0  0  0  0  0  0  0  0
    2.9575   44.1658   54.2350 H   0  0  0  0  0  0  0  0  0  0  0  0
    6.0813   44.6567   54.1594 H   0  0  0  0  0  0  0  0  0  0  0  0
    7.5206   48.1396   55.3564 H   0  0  0  0  0  0  0  0  0  0  0  0
    7.8985   46.3861   55.4777 H   0  0  0  0  0  0  0  0  0  0  0  0
    9.8239   45.8226   53.9450 H   0  0  0  0  0  0  0  0  0  0  0  0
   10.5139   46.4223   51.4116 H   0  0  0  0  0  0  0  0  0  0  0  0
    8.6862   48.2019   50.5605 H   0  0  0  0  0  0  0  0  0  0  0  0
    5.4000   45.5198   51.8413 H   0  0  0  0  0  0  0  0  0  0  0  0
    7.6068   44.7356   50.6396 H   0  0  0  0  0  0  0  0  0  0  0  0
    7.3490   43.5713   49.2963 H   0  0  0  0  0  0  0  0  0  0  0  0
    6.4877   45.1476   49.2963 H   0  0  0  0  0  0  0  0  0  0  0  0
  1  2  1  0
  2  3  1  0
  3  4  2  0
  3  5  1  0
  5  6  2  0
  6  7  1  0
  7  8  2  0
  8  9  1  0
  9 10  1  0
 10 11  1  0
 11 12  2  0
 12 13  1  0
 13 14  1  0
 14 15  1  0
 15 16  2  0
 16 17  1  0
 17 18  2  0
 12 19  1  0
 19 20  2  0
  8 21  1  0
 21 22  2  0
 22 23  1  0
 22  5  1  0
 20 10  1  0
 18 14  1  0
  1 24  1  0
  1 25  1  0
  1 26  1  0
  6 27  1  0
  7 28  1  0
  9 29  1  0
  9 30  1  0
 11 31  1  0
 13 32  1  0
 13 33  1  0
 15 34  1  0
 16 35  1  0
 17 36  1  0
 21 37  1  0
 23 38  1  0
 23 39  1  0
 23 40  1  0
M  END
>  <meeko>  (2) 
{"is_sidechain": [false], "free_energy": -7.796, "intermolecular_energy": -11.008, "internal_energy": -0.145}

$$$$
ligand_30_conformer_5_docked
     RDKit          3D

 40 42  0  0  0  0  0  0  0  0999 V2000
    9.8960   47.1840   53.9630 C   0  0  0  0  0  0  0  0  0  0  0  0
    8.6470   46.6730   53.5130 O   0  0  0  0  0  0  0  0  0  0  0  0
    7.7370   47.4400   52.7770 C   0  0  0  0  0  0  0  0  0  0  0  0
    8.0080   48.6430   52.5080 O   0  0  0  0  0  0  0  0  0  0  0  0
    6.4460   46.8350   52.3520 C   0  0  0  0  0  0  0  0  0  0  0  0
    5.2890   47.1740   53.0760 C   0  0  0  0  0  0  0  0  0  0  0  0
    4.0420   46.6630   52.7170 C   0  0  0  0  0  0  0  0  0  0  0  0
    3.9210   45.7910   51.6310 C   0  0  0  0  0  0  0  0  0  0  0  0
    2.5680   45.2920   51.2090 C   0  0  0  0  0  0  0  0  0  0  0  0
    1.8920   44.6800   52.3460 N   0  0  0  0  0  0  0  0  0  0  0  0
    0.8680   45.1990   53.0440 C   0  0  0  0  0  0  0  0  0  0  0  0
    0.4890   44.2240   53.9380 C   0  0  0  0  0  0  0  0  0  0  0  0
   -0.6830   44.2740   54.8650 C   0  0  0  0  0  0  0  0  0  0  0  0
   -0.3710   45.1260   56.0070 N   0  0  0  0  0  0  0  0  0  0  0  0
    0.8120   45.1940   56.6420 C   0  0  0  0  0  0  0  0  0  0  0  0
    0.7270   46.1690   57.6120 C   0  0  0  0  0  0  0  0  0  0  0  0
   -0.5580   46.6650   57.4990 C   0  0  0  0  0  0  0  0  0  0  0  0
   -1.2060   46.0210   56.5090 N   0  0  0  0  0  0  0  0  0  0  0  0
    1.2640   43.1370   53.7440 N   0  0  0  0  0  0  0  0  0  0  0  0
    2.1090   43.4440   52.7690 N   0  0  0  0  0  0  0  0  0  0  0  0
    5.0620   45.4460   50.8960 C   0  0  0  0  0  0  0  0  0  0  0  0
    6.3310   45.9410   51.2520 C   0  0  0  0  0  0  0  0  0  0  0  0
    7.5230   45.4960   50.4440 C   0  0  0  0  0  0  0  0  0  0  0  0
    9.9143   47.1915   55.0628 H   0  0  0  0  0  0  0  0  0  0  0  0
   10.7098   46.5466   53.5871 H   0  0  0  0  0  0  0  0  0  0  0  0
   10.0297   48.2091   53.5871 H   0  0  0  0  0  0  0  0  0  0  0  0
    5.3688   47.8523   53.9383 H   0  0  0  0  0  0  0  0  0  0  0  0
    3.1484   46.9478   53.2917 H   0  0  0  0  0  0  0  0  0  0  0  0
    1.9672   46.1351   50.8373 H   0  0  0  0  0  0  0  0  0  0  0  0
    2.6887   44.5437   50.4118 H   0  0  0  0  0  0  0  0  0  0  0  0
    0.4238   46.1983   52.9252 H   0  0  0  0  0  0  0  0  0  0  0  0
   -1.5540   44.6823   54.3314 H   0  0  0  0  0  0  0  0  0  0  0  0
   -0.9100   43.2579   55.2200 H   0  0  0  0  0  0  0  0  0  0  0  0
    1.6963   44.5770   56.4245 H   0  0  0  0  0  0  0  0  0  0  0  0
    1.5086   46.4829   58.3194 H   0  0  0  0  0  0  0  0  0  0  0  0
   -0.9863   47.4638   58.1223 H   0  0  0  0  0  0  0  0  0  0  0  0
    4.9653   44.7781   50.0273 H   0  0  0  0  0  0  0  0  0  0  0  0
    8.3338   45.1933   51.1229 H   0  0  0  0  0  0  0  0  0  0  0  0
    7.2384   44.6435   49.8097 H   0  0  0  0  0  0  0  0  0  0  0  0
    7.8667   46.3264   49.8097 H   0  0  0  0  0  0  0  0  0  0  0  0
  1  2  1  0
  2  3  1  0
  3  4  2  0
  3  5  1  0
  5  6  2  0
  6  7  1  0
  7  8  2  0
  8  9  1  0
  9 10  1  0
 10 11  1  0
 11 12  2  0
 12 13  1  0
 13 14  1  0
 14 15  1  0
 15 16  2  0
 16 17  1  0
 17 18  2  0
 12 19  1  0
 19 20  2  0
  8 21  1  0
 21 22  2  0
 22 23  1  0
 22  5  1  0
 20 10  1  0
 18 14  1  0
  1 24  1  0
  1 25  1  0
  1 26  1  0
  6 27  1  0
  7 28  1  0
  9 29  1  0
  9 30  1  0
 11 31  1  0
 13 32  1  0
 13 33  1  0
 15 34  1  0
 16 35  1  0
 17 36  1  0
 21 37  1  0
 23 38  1  0
 23 39  1  0
 23 40  1  0
M  END
>  <meeko>  (3) 
{"is_sidechain": [false], "free_energy": -7.536, "intermolecular_energy": -10.25, "internal_energy": -0.552}

$$$$
ligand_30_conformer_5_docked
     RDKit          3D

 40 42  0  0  0  0  0  0  0  0999 V2000
    5.7230   41.8770   47.2050 C   0  0  0  0  0  0  0  0  0  0  0  0
    5.7030   41.1550   48.4310 O   0  0  0  0  0  0  0  0  0  0  0  0
    6.3710   41.5950   49.5790 C   0  0  0  0  0  0  0  0  0  0  0  0
    7.2470   40.8600   50.1120 O   0  0  0  0  0  0  0  0  0  0  0  0
    6.0130   42.9100   50.1740 C   0  0  0  0  0  0  0  0  0  0  0  0
    4.8070   43.0030   50.8910 C   0  0  0  0  0  0  0  0  0  0  0  0
    4.4220   44.1990   51.4970 C   0  0  0  0  0  0  0  0  0  0  0  0
    5.2280   45.3370   51.3920 C   0  0  0  0  0  0  0  0  0  0  0  0
    4.8400   46.6060   52.0970 C   0  0  0  0  0  0  0  0  0  0  0  0
    4.0870   46.2870   53.3040 N   0  0  0  0  0  0  0  0  0  0  0  0
    2.7520   46.1810   53.4100 C   0  0  0  0  0  0  0  0  0  0  0  0
    2.5090   45.7530   54.6950 C   0  0  0  0  0  0  0  0  0  0  0  0
    1.1820   45.3760   55.2710 C   0  0  0  0  0  0  0  0  0  0  0  0
    0.5330   44.3950   54.4100 N   0  0  0  0  0  0  0  0  0  0  0  0
    1.0750   43.2430   53.9750 C   0  0  0  0  0  0  0  0  0  0  0  0
    0.1210   42.5600   53.2540 C   0  0  0  0  0  0  0  0  0  0  0  0
   -1.0000   43.3680   53.3020 C   0  0  0  0  0  0  0  0  0  0  0  0
   -0.7290   44.4750   54.0190 N   0  0  0  0  0  0  0  0  0  0  0  0
    3.6910   45.5820   55.3230 N   0  0  0  0  0  0  0  0  0  0  0  0
    4.6340   45.9150   54.4520 N   0  0  0  0  0  0  0  0  0  0  0  0
    6.4340   45.2620   50.6840 C   0  0  0  0  0  0  0  0  0  0  0  0
    6.8320   44.0670   50.0550 C   0  0  0  0  0  0  0  0  0  0  0  0
    8.1220   44.0670   49.2740 C   0  0  0  0  0  0  0  0  0  0  0  0
    5.7529   42.9563   47.4155 H   0  0  0  0  0  0  0  0  0  0  0  0
    6.6136   41.5916   46.6259 H   0  0  0  0  0  0  0  0  0  0  0  0
    4.8180   41.6413   46.6259 H   0  0  0  0  0  0  0  0  0  0  0  0
    4.1574   42.1193   50.9753 H   0  0  0  0  0  0  0  0  0  0  0  0
    3.4787   44.2473   52.0609 H   0  0  0  0  0  0  0  0  0  0  0  0
    5.7473   47.1652   52.3692 H   0  0  0  0  0  0  0  0  0  0  0  0
    4.2156   47.2176   51.4291 H   0  0  0  0  0  0  0  0  0  0  0  0
    2.0062   46.3929   52.6297 H   0  0  0  0  0  0  0  0  0  0  0  0
    1.3274   44.9442   56.2722 H   0  0  0  0  0  0  0  0  0  0  0  0
    0.5486   46.2724   55.3435 H   0  0  0  0  0  0  0  0  0  0  0  0
    2.1045   42.9044   54.1632 H   0  0  0  0  0  0  0  0  0  0  0  0
    0.2272   41.5873   52.7514 H   0  0  0  0  0  0  0  0  0  0  0  0
   -1.9658   43.1411   52.8269 H   0  0  0  0  0  0  0  0  0  0  0  0
    7.0799   46.1500   50.6184 H   0  0  0  0  0  0  0  0  0  0  0  0
    8.4357   43.0299   49.0841 H   0  0  0  0  0  0  0  0  0  0  0  0
    7.9705   44.5855   48.3158 H   0  0  0  0  0  0  0  0  0  0  0  0
    8.9008   44.5855   49.8524 H   0  0  0  0  0  0  0  0  0  0  0  0
  1  2  1  0
  2  3  1  0
  3  4  2  0
  3  5  1  0
  5  6  2  0
  6  7  1  0
  7  8  2  0
  8  9  1  0
  9 10  1  0
 10 11  1  0
 11 12  2  0
 12 13  1  0
 13 14  1  0
 14 15  1  0
 15 16  2  0
 16 17  1  0
 17 18  2  0
 12 19  1  0
 19 20  2  0
  8 21  1  0
 21 22  2  0
 22 23  1  0
 22  5  1  0
 20 10  1  0
 18 14  1  0
  1 24  1  0
  1 25  1  0
  1 26  1  0
  6 27  1  0
  7 28  1  0
  9 29  1  0
  9 30  1  0
 11 31  1  0
 13 32  1  0
 13 33  1  0
 15 34  1  0
 16 35  1  0
 17 36  1  0
 21 37  1  0
 23 38  1  0
 23 39  1  0
 23 40  1  0
M  END
>  <meeko>  (4) 
{"is_sidechain": [false], "free_energy": -7.323, "intermolecular_energy": -10.125, "internal_energy": -0.389}

$$$$
ligand_30_conformer_5_docked
     RDKit          3D

 40 42  0  0  0  0  0  0  0  0999 V2000
    9.9270   47.1270   54.4480 C   0  0  0  0  0  0  0  0  0  0  0  0
    9.1410   46.2660   53.6320 O   0  0  0  0  0  0  0  0  0  0  0  0
    8.7030   46.6270   52.3530 C   0  0  0  0  0  0  0  0  0  0  0  0
    9.5100   47.1640   51.5460 O   0  0  0  0  0  0  0  0  0  0  0  0
    7.2820   46.4010   51.9760 C   0  0  0  0  0  0  0  0  0  0  0  0
    6.2870   47.0260   52.7490 C   0  0  0  0  0  0  0  0  0  0  0  0
    4.9360   46.8790   52.4370 C   0  0  0  0  0  0  0  0  0  0  0  0
    4.5440   46.0920   51.3490 C   0  0  0  0  0  0  0  0  0  0  0  0
    3.0910   45.9860   50.9790 C   0  0  0  0  0  0  0  0  0  0  0  0
    2.5410   44.7390   51.4980 N   0  0  0  0  0  0  0  0  0  0  0  0
    2.0480   44.5340   52.7310 C   0  0  0  0  0  0  0  0  0  0  0  0
    1.5400   43.2550   52.7260 C   0  0  0  0  0  0  0  0  0  0  0  0
    0.7810   42.5950   53.8320 C   0  0  0  0  0  0  0  0  0  0  0  0
   -0.5370   43.2070   53.9560 N   0  0  0  0  0  0  0  0  0  0  0  0
   -0.9220   44.0690   54.9150 C   0  0  0  0  0  0  0  0  0  0  0  0
   -2.2080   44.4770   54.6390 C   0  0  0  0  0  0  0  0  0  0  0  0
   -2.5430   43.8180   53.4710 C   0  0  0  0  0  0  0  0  0  0  0  0
   -1.5070   43.0560   53.0690 N   0  0  0  0  0  0  0  0  0  0  0  0
    1.7090   42.7300   51.4950 N   0  0  0  0  0  0  0  0  0  0  0  0
    2.3210   43.6560   50.7690 N   0  0  0  0  0  0  0  0  0  0  0  0
    5.5210   45.4660   50.5660 C   0  0  0  0  0  0  0  0  0  0  0  0
    6.8880   45.5920   50.8740 C   0  0  0  0  0  0  0  0  0  0  0  0
    7.8850   44.8570   50.0160 C   0  0  0  0  0  0  0  0  0  0  0  0
    9.7286   46.9096   55.5079 H   0  0  0  0  0  0  0  0  0  0  0  0
   10.9933   46.9629   54.2334 H   0  0  0  0  0  0  0  0  0  0  0  0
    9.6667   48.1740   54.2334 H   0  0  0  0  0  0  0  0  0  0  0  0
    6.5792   47.6405   53.6133 H   0  0  0  0  0  0  0  0  0  0  0  0
    4.1747   47.3844   53.0494 H   0  0  0  0  0  0  0  0  0  0  0  0
    2.5411   46.8355   51.4101 H   0  0  0  0  0  0  0  0  0  0  0  0
    2.9923   45.9995   49.8835 H   0  0  0  0  0  0  0  0  0  0  0  0
    2.0500   45.2431   53.5720 H   0  0  0  0  0  0  0  0  0  0  0  0
    0.6674   41.5238   53.6093 H   0  0  0  0  0  0  0  0  0  0  0  0
    1.3310   42.7192   54.7765 H   0  0  0  0  0  0  0  0  0  0  0  0
   -0.3136   44.3923   55.7725 H   0  0  0  0  0  0  0  0  0  0  0  0
   -2.8309   45.1733   55.2196 H   0  0  0  0  0  0  0  0  0  0  0  0
   -3.5078   43.9027   52.9495 H   0  0  0  0  0  0  0  0  0  0  0  0
    5.2151   44.8661   49.6962 H   0  0  0  0  0  0  0  0  0  0  0  0
    8.6029   44.3277   50.6597 H   0  0  0  0  0  0  0  0  0  0  0  0
    7.3570   44.1304   49.3809 H   0  0  0  0  0  0  0  0  0  0  0  0
    8.4229   45.5763   49.3809 H   0  0  0  0  0  0  0  0  0  0  0  0
  1  2  1  0
  2  3  1  0
  3  4  2  0
  3  5  1  0
  5  6  2  0
  6  7  1  0
  7  8  2  0
  8  9  1  0
  9 10  1  0
 10 11  1  0
 11 12  2  0
 12 13  1  0
 13 14  1  0
 14 15  1  0
 15 16  2  0
 16 17  1  0
 17 18  2  0
 12 19  1  0
 19 20  2  0
  8 21  1  0
 21 22  2  0
 22 23  1  0
 22  5  1  0
 20 10  1  0
 18 14  1  0
  1 24  1  0
  1 25  1  0
  1 26  1  0
  6 27  1  0
  7 28  1  0
  9 29  1  0
  9 30  1  0
 11 31  1  0
 13 32  1  0
 13 33  1  0
 15 34  1  0
 16 35  1  0
 17 36  1  0
 21 37  1  0
 23 38  1  0
 23 39  1  0
 23 40  1  0
M  END
>  <meeko>  (5) 
{"is_sidechain": [false], "free_energy": -7.259, "intermolecular_energy": -9.908, "internal_energy": -0.519}

$$$$
