ligand_75_conformer_5_docked
     RDKit          3D

 51 56  0  0  0  0  0  0  0  0999 V2000
    6.0010   41.1710   50.0150 O   0  0  0  0  0  0  0  0  0  0  0  0
    6.0020   42.4160   50.2080 C   0  0  0  0  0  0  0  0  0  0  0  0
    7.1310   43.1590   49.9930 N   0  0  0  0  0  0  0  0  0  0  0  0
    7.1430   44.5200   50.2080 C   0  0  0  0  0  0  0  0  0  0  0  0
    8.4100   45.3070   50.0600 C   0  0  0  0  0  0  0  0  0  0  0  0
    8.5550   46.2020   51.2230 N   0  0  0  0  0  0  0  0  0  0  0  0
    9.8410   45.9900   51.9190 C   0  0  0  0  0  0  0  0  0  0  0  0
    9.9040   46.7920   53.2400 C   0  0  0  0  0  0  0  0  0  0  0  0
    8.7310   47.7870   53.3920 C   0  0  0  0  0  0  0  0  0  0  0  0
    7.4460   47.1080   53.8230 C   0  0  0  0  0  0  0  0  0  0  0  0
    6.3380   47.7810   54.2430 N   0  0  0  0  0  0  0  0  0  0  0  0
    5.4740   46.7910   54.5270 C   0  0  0  0  0  0  0  0  0  0  0  0
    4.1690   46.9080   54.9970 C   0  0  0  0  0  0  0  0  0  0  0  0
    3.4470   45.7200   55.2210 C   0  0  0  0  0  0  0  0  0  0  0  0
    4.0440   44.4610   54.9760 C   0  0  0  0  0  0  0  0  0  0  0  0
    5.3660   44.3820   54.5000 C   0  0  0  0  0  0  0  0  0  0  0  0
    6.0470   45.5770   54.2870 C   0  0  0  0  0  0  0  0  0  0  0  0
    7.2940   45.7580   53.8360 N   0  0  0  0  0  0  0  0  0  0  0  0
    8.5380   48.5580   52.0690 C   0  0  0  0  0  0  0  0  0  0  0  0
    8.3950   47.6210   50.8470 C   0  0  0  0  0  0  0  0  0  0  0  0
    6.0170   45.1590   50.6490 N   0  0  0  0  0  0  0  0  0  0  0  0
    4.9010   44.4220   50.8510 C   0  0  0  0  0  0  0  0  0  0  0  0
    4.8630   43.0710   50.6510 C   0  0  0  0  0  0  0  0  0  0  0  0
    3.6750   42.5810   50.9450 O   0  0  0  0  0  0  0  0  0  0  0  0
    2.9400   43.6090   51.3360 C   0  0  0  0  0  0  0  0  0  0  0  0
    1.6110   43.5930   51.7580 C   0  0  0  0  0  0  0  0  0  0  0  0
    1.0260   44.8160   52.1420 C   0  0  0  0  0  0  0  0  0  0  0  0
    1.7720   46.0170   52.0960 C   0  0  0  0  0  0  0  0  0  0  0  0
    3.1110   46.0110   51.6660 C   0  0  0  0  0  0  0  0  0  0  0  0
    3.6600   44.7860   51.2940 C   0  0  0  0  0  0  0  0  0  0  0  0
    8.0020   42.6770   49.6730 H   0  0  0  0  0  0  0  0  0  0  0  0
    9.2680   44.6202   50.0134 H   0  0  0  0  0  0  0  0  0  0  0  0
    8.3739   45.9010   49.1349 H   0  0  0  0  0  0  0  0  0  0  0  0
    9.9543   44.9193   52.1441 H   0  0  0  0  0  0  0  0  0  0  0  0
   10.6524   46.3377   51.2627 H   0  0  0  0  0  0  0  0  0  0  0  0
    9.8768   46.0850   54.0822 H   0  0  0  0  0  0  0  0  0  0  0  0
   10.8356   47.3768   53.2288 H   0  0  0  0  0  0  0  0  0  0  0  0
    8.9866   48.4948   54.1943 H   0  0  0  0  0  0  0  0  0  0  0  0
    3.7179   47.8932   55.1866 H   0  0  0  0  0  0  0  0  0  0  0  0
    2.4117   45.7712   55.5890 H   0  0  0  0  0  0  0  0  0  0  0  0
    3.4720   43.5393   55.1585 H   0  0  0  0  0  0  0  0  0  0  0  0
    5.8438   43.4109   54.3034 H   0  0  0  0  0  0  0  0  0  0  0  0
    7.9880   45.0270   53.5600 H   0  0  0  0  0  0  0  0  0  0  0  0
    7.6293   49.1726   52.1493 H   0  0  0  0  0  0  0  0  0  0  0  0
    9.4344   49.1756   51.9108 H   0  0  0  0  0  0  0  0  0  0  0  0
    7.3977   47.7620   50.4048 H   0  0  0  0  0  0  0  0  0  0  0  0
    9.1862   47.8753   50.1264 H   0  0  0  0  0  0  0  0  0  0  0  0
    1.0373   42.6550   51.7901 H   0  0  0  0  0  0  0  0  0  0  0  0
   -0.0204   44.8370   52.4806 H   0  0  0  0  0  0  0  0  0  0  0  0
    1.3008   46.9636   52.3991 H   0  0  0  0  0  0  0  0  0  0  0  0
    3.7020   46.9379   51.6250 H   0  0  0  0  0  0  0  0  0  0  0  0
  1  2  2  0
  2  3  1  0
  3  4  1  0
  4  5  1  0
  5  6  1  0
  6  7  1  0
  7  8  1  0
  8  9  1  0
  9 10  1  0
 10 11  2  0
 11 12  1  0
 12 13  2  0
 13 14  1  0
 14 15  2  0
 15 16  1  0
 16 17  2  0
 17 18  1  0
  9 19  1  0
 19 20  1  0
  4 21  2  0
 21 22  1  0
 22 23  2  0
 23 24  1  0
 24 25  1  0
 25 26  2  0
 26 27  1  0
 27 28  2  0
 28 29  1  0
 29 30  2  0
 23  2  1  0
 30 25  1  0
 20  6  1  0
 30 22  1  0
 18 10  1  0
 17 12  1  0
  3 31  1  0
  5 32  1  0
  5 33  1  0
  7 34  1  0
  7 35  1  0
  8 36  1  0
  8 37  1  0
  9 38  1  0
 13 39  1  0
 14 40  1  0
 15 41  1  0
 16 42  1  0
 18 43  1  0
 19 44  1  0
 19 45  1  0
 20 46  1  0
 20 47  1  0
 26 48  1  0
 27 49  1  0
 28 50  1  0
 29 51  1  0
M  END
>  <meeko>  (1) 
{"is_sidechain": [false], "free_energy": -9.307, "intermolecular_energy": -10.94, "internal_energy": -2.407}

$$$$
ligand_75_conformer_5_docked
     RDKit          3D

 51 56  0  0  0  0  0  0  0  0999 V2000
    4.6180   48.2070   54.9450 O   0  0  0  0  0  0  0  0  0  0  0  0
    4.8040   47.6040   53.8550 C   0  0  0  0  0  0  0  0  0  0  0  0
    3.7460   47.2190   53.0770 N   0  0  0  0  0  0  0  0  0  0  0  0
    3.9400   46.5520   51.8860 C   0  0  0  0  0  0  0  0  0  0  0  0
    2.7730   46.0540   51.0900 C   0  0  0  0  0  0  0  0  0  0  0  0
    2.2610   44.8180   51.7140 N   0  0  0  0  0  0  0  0  0  0  0  0
    1.2300   44.1700   50.8770 C   0  0  0  0  0  0  0  0  0  0  0  0
    0.5660   42.9870   51.6200 C   0  0  0  0  0  0  0  0  0  0  0  0
    1.2900   42.6260   52.9360 C   0  0  0  0  0  0  0  0  0  0  0  0
    0.9480   43.5760   54.0670 C   0  0  0  0  0  0  0  0  0  0  0  0
   -0.3250   43.9440   54.3870 N   0  0  0  0  0  0  0  0  0  0  0  0
   -0.1440   44.7860   55.4190 C   0  0  0  0  0  0  0  0  0  0  0  0
   -1.1180   45.4650   56.1470 C   0  0  0  0  0  0  0  0  0  0  0  0
   -0.6870   46.2970   57.1970 C   0  0  0  0  0  0  0  0  0  0  0  0
    0.6910   46.4320   57.4850 C   0  0  0  0  0  0  0  0  0  0  0  0
    1.6480   45.7310   56.7280 C   0  0  0  0  0  0  0  0  0  0  0  0
    1.1840   44.9140   55.7010 C   0  0  0  0  0  0  0  0  0  0  0  0
    1.8900   44.1510   54.8580 N   0  0  0  0  0  0  0  0  0  0  0  0
    2.8130   42.5800   52.6880 C   0  0  0  0  0  0  0  0  0  0  0  0
    3.3490   43.8710   52.0260 C   0  0  0  0  0  0  0  0  0  0  0  0
    5.2050   46.2550   51.4590 N   0  0  0  0  0  0  0  0  0  0  0  0
    6.2470   46.6460   52.2280 C   0  0  0  0  0  0  0  0  0  0  0  0
    6.0830   47.3020   53.4150 C   0  0  0  0  0  0  0  0  0  0  0  0
    7.2460   47.5460   53.9870 O   0  0  0  0  0  0  0  0  0  0  0  0
    8.1660   47.0490   53.1770 C   0  0  0  0  0  0  0  0  0  0  0  0
    9.5480   47.0530   53.3550 C   0  0  0  0  0  0  0  0  0  0  0  0
   10.3440   46.4520   52.3590 C   0  0  0  0  0  0  0  0  0  0  0  0
    9.7480   45.8660   51.2180 C   0  0  0  0  0  0  0  0  0  0  0  0
    8.3510   45.8730   51.0570 C   0  0  0  0  0  0  0  0  0  0  0  0
    7.5930   46.4750   52.0590 C   0  0  0  0  0  0  0  0  0  0  0  0
    2.7750   47.4250   53.4030 H   0  0  0  0  0  0  0  0  0  0  0  0
    1.9811   46.8173   51.0787 H   0  0  0  0  0  0  0  0  0  0  0  0
    3.0879   45.8469   50.0566 H   0  0  0  0  0  0  0  0  0  0  0  0
    0.4584   44.9110   50.6210 H   0  0  0  0  0  0  0  0  0  0  0  0
    1.7134   43.7822   49.9682 H   0  0  0  0  0  0  0  0  0  0  0  0
   -0.4742   43.2579   51.8538 H   0  0  0  0  0  0  0  0  0  0  0  0
    0.6199   42.1086   50.9601 H   0  0  0  0  0  0  0  0  0  0  0  0
    0.9405   41.6329   53.2548 H   0  0  0  0  0  0  0  0  0  0  0  0
   -2.1864   45.3549   55.9096 H   0  0  0  0  0  0  0  0  0  0  0  0
   -1.4270   46.8461   57.7978 H   0  0  0  0  0  0  0  0  0  0  0  0
    1.0166   47.0886   58.3053 H   0  0  0  0  0  0  0  0  0  0  0  0
    2.7232   45.8252   56.9401 H   0  0  0  0  0  0  0  0  0  0  0  0
    2.9270   44.0280   54.8200 H   0  0  0  0  0  0  0  0  0  0  0  0
    3.3227   42.4415   53.6529 H   0  0  0  0  0  0  0  0  0  0  0  0
    3.0125   41.7458   51.9993 H   0  0  0  0  0  0  0  0  0  0  0  0
    4.0574   44.3562   52.7135 H   0  0  0  0  0  0  0  0  0  0  0  0
    3.8419   43.5929   51.0827 H   0  0  0  0  0  0  0  0  0  0  0  0
   10.0037   47.5110   54.2453 H   0  0  0  0  0  0  0  0  0  0  0  0
   11.4383   46.4386   52.4701 H   0  0  0  0  0  0  0  0  0  0  0  0
   10.3829   45.4006   50.4497 H   0  0  0  0  0  0  0  0  0  0  0  0
    7.8753   45.4208   50.1743 H   0  0  0  0  0  0  0  0  0  0  0  0
  1  2  2  0
  2  3  1  0
  3  4  1  0
  4  5  1  0
  5  6  1  0
  6  7  1  0
  7  8  1  0
  8  9  1  0
  9 10  1  0
 10 11  2  0
 11 12  1  0
 12 13  2  0
 13 14  1  0
 14 15  2  0
 15 16  1  0
 16 17  2  0
 17 18  1  0
  9 19  1  0
 19 20  1  0
  4 21  2  0
 21 22  1  0
 22 23  2  0
 23 24  1  0
 24 25  1  0
 25 26  2  0
 26 27  1  0
 27 28  2  0
 28 29  1  0
 29 30  2  0
 23  2  1  0
 30 25  1  0
 20  6  1  0
 30 22  1  0
 18 10  1  0
 17 12  1  0
  3 31  1  0
  5 32  1  0
  5 33  1  0
  7 34  1  0
  7 35  1  0
  8 36  1  0
  8 37  1  0
  9 38  1  0
 13 39  1  0
 14 40  1  0
 15 41  1  0
 16 42  1  0
 18 43  1  0
 19 44  1  0
 19 45  1  0
 20 46  1  0
 20 47  1  0
 26 48  1  0
 27 49  1  0
 28 50  1  0
 29 51  1  0
M  END
>  <meeko>  (2) 
{"is_sidechain": [false], "free_energy": -9.289, "intermolecular_energy": -12.667, "internal_energy": -0.658}

$$$$
ligand_75_conformer_5_docked
     RDKit          3D

 51 56  0  0  0  0  0  0  0  0999 V2000
    6.0050   45.1790   49.7120 O   0  0  0  0  0  0  0  0  0  0  0  0
    5.8080   45.6820   50.8500 C   0  0  0  0  0  0  0  0  0  0  0  0
    4.5390   45.8870   51.3170 N   0  0  0  0  0  0  0  0  0  0  0  0
    4.3140   46.4450   52.5570 C   0  0  0  0  0  0  0  0  0  0  0  0
    2.9220   46.7490   53.0180 C   0  0  0  0  0  0  0  0  0  0  0  0
    2.1280   45.5060   52.9950 N   0  0  0  0  0  0  0  0  0  0  0  0
    1.8650   44.9990   54.3580 C   0  0  0  0  0  0  0  0  0  0  0  0
    1.2000   43.6040   54.3200 C   0  0  0  0  0  0  0  0  0  0  0  0
    0.7630   43.1880   52.8970 C   0  0  0  0  0  0  0  0  0  0  0  0
    1.9230   42.6990   52.0520 C   0  0  0  0  0  0  0  0  0  0  0  0
    1.7740   42.0940   50.8400 N   0  0  0  0  0  0  0  0  0  0  0  0
    3.0420   41.8290   50.4790 C   0  0  0  0  0  0  0  0  0  0  0  0
    3.4840   41.2130   49.3110 C   0  0  0  0  0  0  0  0  0  0  0  0
    4.8720   41.0440   49.1480 C   0  0  0  0  0  0  0  0  0  0  0  0
    5.7700   41.4850   50.1470 C   0  0  0  0  0  0  0  0  0  0  0  0
    5.2870   42.1050   51.3150 C   0  0  0  0  0  0  0  0  0  0  0  0
    3.9090   42.2580   51.4390 C   0  0  0  0  0  0  0  0  0  0  0  0
    3.2190   42.8160   52.4410 N   0  0  0  0  0  0  0  0  0  0  0  0
    0.0380   44.3690   52.2180 C   0  0  0  0  0  0  0  0  0  0  0  0
    0.8640   45.6760   52.2500 C   0  0  0  0  0  0  0  0  0  0  0  0
    5.3670   46.8120   53.3500 N   0  0  0  0  0  0  0  0  0  0  0  0
    6.6200   46.5980   52.8870 C   0  0  0  0  0  0  0  0  0  0  0  0
    6.8710   46.0540   51.6600 C   0  0  0  0  0  0  0  0  0  0  0  0
    8.1670   45.9770   51.4300 O   0  0  0  0  0  0  0  0  0  0  0  0
    8.7600   46.4720   52.5030 C   0  0  0  0  0  0  0  0  0  0  0  0
   10.1280   46.6130   52.7300 C   0  0  0  0  0  0  0  0  0  0  0  0
   10.5400   47.1810   53.9520 C   0  0  0  0  0  0  0  0  0  0  0  0
    9.5860   47.5900   54.9130 C   0  0  0  0  0  0  0  0  0  0  0  0
    8.2100   47.4380   54.6650 C   0  0  0  0  0  0  0  0  0  0  0  0
    7.8370   46.8740   53.4470 C   0  0  0  0  0  0  0  0  0  0  0  0
    3.7270   45.6270   50.7110 H   0  0  0  0  0  0  0  0  0  0  0  0
    2.9515   47.1492   54.0422 H   0  0  0  0  0  0  0  0  0  0  0  0
    2.4641   47.4957   52.3525 H   0  0  0  0  0  0  0  0  0  0  0  0
    2.8175   44.9271   54.9035 H   0  0  0  0  0  0  0  0  0  0  0  0
    1.1797   45.6966   54.8616 H   0  0  0  0  0  0  0  0  0  0  0  0
    1.9183   42.8617   54.6983 H   0  0  0  0  0  0  0  0  0  0  0  0
    0.2954   43.6510   54.9441 H   0  0  0  0  0  0  0  0  0  0  0  0
    0.0721   42.3370   52.9886 H   0  0  0  0  0  0  0  0  0  0  0  0
    2.7742   40.8708   48.5435 H   0  0  0  0  0  0  0  0  0  0  0  0
    5.2606   40.5655   48.2370 H   0  0  0  0  0  0  0  0  0  0  0  0
    6.8522   41.3429   50.0109 H   0  0  0  0  0  0  0  0  0  0  0  0
    5.9729   42.4554   52.1003 H   0  0  0  0  0  0  0  0  0  0  0  0
    3.5940   43.2420   53.3190 H   0  0  0  0  0  0  0  0  0  0  0  0
   -0.1601   44.1038   51.1690 H   0  0  0  0  0  0  0  0  0  0  0  0
   -0.8929   44.5512   52.7750 H   0  0  0  0  0  0  0  0  0  0  0  0
    1.0964   45.9760   51.2176 H   0  0  0  0  0  0  0  0  0  0  0  0
    0.2668   46.4464   52.7597 H   0  0  0  0  0  0  0  0  0  0  0  0
   10.8635   46.2907   51.9782 H   0  0  0  0  0  0  0  0  0  0  0  0
   11.6127   47.3074   54.1604 H   0  0  0  0  0  0  0  0  0  0  0  0
    9.9233   48.0308   55.8627 H   0  0  0  0  0  0  0  0  0  0  0  0
    7.4579   47.7521   55.4037 H   0  0  0  0  0  0  0  0  0  0  0  0
  1  2  2  0
  2  3  1  0
  3  4  1  0
  4  5  1  0
  5  6  1  0
  6  7  1  0
  7  8  1  0
  8  9  1  0
  9 10  1  0
 10 11  2  0
 11 12  1  0
 12 13  2  0
 13 14  1  0
 14 15  2  0
 15 16  1  0
 16 17  2  0
 17 18  1  0
  9 19  1  0
 19 20  1  0
  4 21  2  0
 21 22  1  0
 22 23  2  0
 23 24  1  0
 24 25  1  0
 25 26  2  0
 26 27  1  0
 27 28  2  0
 28 29  1  0
 29 30  2  0
 23  2  1  0
 30 25  1  0
 20  6  1  0
 30 22  1  0
 18 10  1  0
 17 12  1  0
  3 31  1  0
  5 32  1  0
  5 33  1  0
  7 34  1  0
  7 35  1  0
  8 36  1  0
  8 37  1  0
  9 38  1  0
 13 39  1  0
 14 40  1  0
 15 41  1  0
 16 42  1  0
 18 43  1  0
 19 44  1  0
 19 45  1  0
 20 46  1  0
 20 47  1  0
 26 48  1  0
 27 49  1  0
 28 50  1  0
 29 51  1  0
M  END
>  <meeko>  (3) 
{"is_sidechain": [false], "free_energy": -8.615, "intermolecular_energy": -11.245, "internal_energy": -1.287}

$$$$
ligand_75_conformer_5_docked
     RDKit          3D

 51 56  0  0  0  0  0  0  0  0999 V2000
    6.7530   47.5390   55.0150 O   0  0  0  0  0  0  0  0  0  0  0  0
    6.2540   47.1490   53.9270 C   0  0  0  0  0  0  0  0  0  0  0  0
    4.9150   47.2840   53.6800 N   0  0  0  0  0  0  0  0  0  0  0  0
    4.3590   46.8530   52.4940 C   0  0  0  0  0  0  0  0  0  0  0  0
    2.8790   46.9220   52.2730 C   0  0  0  0  0  0  0  0  0  0  0  0
    2.2950   45.5930   52.5360 N   0  0  0  0  0  0  0  0  0  0  0  0
    2.3170   45.2600   53.9750 C   0  0  0  0  0  0  0  0  0  0  0  0
    1.8810   43.7970   54.2200 C   0  0  0  0  0  0  0  0  0  0  0  0
    1.3100   43.1220   52.9520 C   0  0  0  0  0  0  0  0  0  0  0  0
    2.3960   42.6760   51.9930 C   0  0  0  0  0  0  0  0  0  0  0  0
    2.1580   41.9420   50.8690 N   0  0  0  0  0  0  0  0  0  0  0  0
    3.3880   41.7770   50.3530 C   0  0  0  0  0  0  0  0  0  0  0  0
    3.7400   41.0970   49.1890 C   0  0  0  0  0  0  0  0  0  0  0  0
    5.1040   41.0600   48.8420 C   0  0  0  0  0  0  0  0  0  0  0  0
    6.0690   41.6900   49.6600 C   0  0  0  0  0  0  0  0  0  0  0  0
    5.6770   42.3690   50.8300 C   0  0  0  0  0  0  0  0  0  0  0  0
    4.3200   42.3880   51.1380 C   0  0  0  0  0  0  0  0  0  0  0  0
    3.7090   42.9670   52.1790 N   0  0  0  0  0  0  0  0  0  0  0  0
    0.3170   44.0830   52.2640 C   0  0  0  0  0  0  0  0  0  0  0  0
    0.9250   45.4800   51.9970 C   0  0  0  0  0  0  0  0  0  0  0  0
    5.1430   46.2720   51.5360 N   0  0  0  0  0  0  0  0  0  0  0  0
    6.4670   46.1490   51.7810 C   0  0  0  0  0  0  0  0  0  0  0  0
    7.0430   46.5620   52.9490 C   0  0  0  0  0  0  0  0  0  0  0  0
    8.3360   46.3050   52.9580 O   0  0  0  0  0  0  0  0  0  0  0  0
    8.6040   45.7260   51.8000 C   0  0  0  0  0  0  0  0  0  0  0  0
    9.8370   45.2610   51.3470 C   0  0  0  0  0  0  0  0  0  0  0  0
    9.8880   44.6620   50.0720 C   0  0  0  0  0  0  0  0  0  0  0  0
    8.7200   44.5430   49.2840 C   0  0  0  0  0  0  0  0  0  0  0  0
    7.4850   45.0190   49.7610 C   0  0  0  0  0  0  0  0  0  0  0  0
    7.4680   45.6050   51.0240 C   0  0  0  0  0  0  0  0  0  0  0  0
    4.3040   47.7110   54.4130 H   0  0  0  0  0  0  0  0  0  0  0  0
    2.4374   47.6615   52.9572 H   0  0  0  0  0  0  0  0  0  0  0  0
    2.6703   47.2226   51.2356 H   0  0  0  0  0  0  0  0  0  0  0  0
    3.3383   45.3986   54.3593 H   0  0  0  0  0  0  0  0  0  0  0  0
    1.6116   45.9243   54.4958 H   0  0  0  0  0  0  0  0  0  0  0  0
    2.7547   43.2223   54.5610 H   0  0  0  0  0  0  0  0  0  0  0  0
    1.0820   43.8116   54.9759 H   0  0  0  0  0  0  0  0  0  0  0  0
    0.7813   42.2080   53.2603 H   0  0  0  0  0  0  0  0  0  0  0  0
    2.9795   40.6066   48.5635 H   0  0  0  0  0  0  0  0  0  0  0  0
    5.4208   40.5370   47.9276 H   0  0  0  0  0  0  0  0  0  0  0  0
    7.1323   41.6498   49.3813 H   0  0  0  0  0  0  0  0  0  0  0  0
    6.4158   42.8657   51.4761 H   0  0  0  0  0  0  0  0  0  0  0  0
    4.1450   43.5160   52.9540 H   0  0  0  0  0  0  0  0  0  0  0  0
    0.0102   43.6434   51.3034 H   0  0  0  0  0  0  0  0  0  0  0  0
   -0.5387   44.2174   52.9420 H   0  0  0  0  0  0  0  0  0  0  0  0
    0.9539   45.6543   50.9113 H   0  0  0  0  0  0  0  0  0  0  0  0
    0.2962   46.2289   52.5007 H   0  0  0  0  0  0  0  0  0  0  0  0
   10.7419   45.3583   51.9648 H   0  0  0  0  0  0  0  0  0  0  0  0
   10.8460   44.2834   49.6862 H   0  0  0  0  0  0  0  0  0  0  0  0
    8.7774   44.0746   48.2904 H   0  0  0  0  0  0  0  0  0  0  0  0
    6.5682   44.9316   49.1594 H   0  0  0  0  0  0  0  0  0  0  0  0
  1  2  2  0
  2  3  1  0
  3  4  1  0
  4  5  1  0
  5  6  1  0
  6  7  1  0
  7  8  1  0
  8  9  1  0
  9 10  1  0
 10 11  2  0
 11 12  1  0
 12 13  2  0
 13 14  1  0
 14 15  2  0
 15 16  1  0
 16 17  2  0
 17 18  1  0
  9 19  1  0
 19 20  1  0
  4 21  2  0
 21 22  1  0
 22 23  2  0
 23 24  1  0
 24 25  1  0
 25 26  2  0
 26 27  1  0
 27 28  2  0
 28 29  1  0
 29 30  2  0
 23  2  1  0
 30 25  1  0
 20  6  1  0
 30 22  1  0
 18 10  1  0
 17 12  1  0
  3 31  1  0
  5 32  1  0
  5 33  1  0
  7 34  1  0
  7 35  1  0
  8 36  1  0
  8 37  1  0
  9 38  1  0
 13 39  1  0
 14 40  1  0
 15 41  1  0
 16 42  1  0
 18 43  1  0
 19 44  1  0
 19 45  1  0
 20 46  1  0
 20 47  1  0
 26 48  1  0
 27 49  1  0
 28 50  1  0
 29 51  1  0
M  END
>  <meeko>  (4) 
{"is_sidechain": [false], "free_energy": -8.513, "intermolecular_energy": -10.995, "internal_energy": -1.418}

$$$$
ligand_75_conformer_5_docked
     RDKit          3D

 51 56  0  0  0  0  0  0  0  0999 V2000
   -0.5790   42.8830   53.9480 O   0  0  0  0  0  0  0  0  0  0  0  0
    0.0760   43.7540   54.5790 C   0  0  0  0  0  0  0  0  0  0  0  0
    1.4200   43.9070   54.3750 N   0  0  0  0  0  0  0  0  0  0  0  0
    2.1450   44.8530   55.0660 C   0  0  0  0  0  0  0  0  0  0  0  0
    3.6320   44.9480   54.9030 C   0  0  0  0  0  0  0  0  0  0  0  0
    3.9410   45.2000   53.4820 N   0  0  0  0  0  0  0  0  0  0  0  0
    3.7320   43.9930   52.6550 C   0  0  0  0  0  0  0  0  0  0  0  0
    4.2350   44.2090   51.2090 C   0  0  0  0  0  0  0  0  0  0  0  0
    4.6090   45.6800   50.9190 C   0  0  0  0  0  0  0  0  0  0  0  0
    5.9630   46.0580   51.4860 C   0  0  0  0  0  0  0  0  0  0  0  0
    7.1480   45.6220   50.9720 N   0  0  0  0  0  0  0  0  0  0  0  0
    8.0550   46.1880   51.7860 C   0  0  0  0  0  0  0  0  0  0  0  0
    9.4420   46.0820   51.7210 C   0  0  0  0  0  0  0  0  0  0  0  0
   10.1960   46.7740   52.6890 C   0  0  0  0  0  0  0  0  0  0  0  0
    9.5500   47.5390   53.6870 C   0  0  0  0  0  0  0  0  0  0  0  0
    8.1460   47.6240   53.7220 C   0  0  0  0  0  0  0  0  0  0  0  0
    7.4350   46.9300   52.7470 C   0  0  0  0  0  0  0  0  0  0  0  0
    6.1090   46.8640   52.5700 N   0  0  0  0  0  0  0  0  0  0  0  0
    3.4990   46.6070   51.4600 C   0  0  0  0  0  0  0  0  0  0  0  0
    3.1680   46.3380   52.9460 C   0  0  0  0  0  0  0  0  0  0  0  0
    1.5300   45.6620   55.9830 N   0  0  0  0  0  0  0  0  0  0  0  0
    0.1990   45.5130   56.1730 C   0  0  0  0  0  0  0  0  0  0  0  0
   -0.5420   44.5790   55.5070 C   0  0  0  0  0  0  0  0  0  0  0  0
   -1.8040   44.6130   55.8890 O   0  0  0  0  0  0  0  0  0  0  0  0
   -1.8850   45.5640   56.8040 C   0  0  0  0  0  0  0  0  0  0  0  0
   -3.0150   45.9690   57.5130 C   0  0  0  0  0  0  0  0  0  0  0  0
   -2.8670   47.0060   58.4560 C   0  0  0  0  0  0  0  0  0  0  0  0
   -1.6060   47.6110   58.6680 C   0  0  0  0  0  0  0  0  0  0  0  0
   -0.4780   47.1880   57.9420 C   0  0  0  0  0  0  0  0  0  0  0  0
   -0.6580   46.1610   57.0190 C   0  0  0  0  0  0  0  0  0  0  0  0
    1.9030   43.2820   53.6910 H   0  0  0  0  0  0  0  0  0  0  0  0
    4.0190   45.7743   55.5174 H   0  0  0  0  0  0  0  0  0  0  0  0
    4.1036   44.0083   55.2265 H   0  0  0  0  0  0  0  0  0  0  0  0
    4.2809   43.1518   53.1035 H   0  0  0  0  0  0  0  0  0  0  0  0
    2.6536   43.7790   52.6192 H   0  0  0  0  0  0  0  0  0  0  0  0
    5.1245   43.5820   51.0489 H   0  0  0  0  0  0  0  0  0  0  0  0
    3.4152   43.9352   50.5286 H   0  0  0  0  0  0  0  0  0  0  0  0
    4.6899   45.8022   49.8288 H   0  0  0  0  0  0  0  0  0  0  0  0
    9.9314   45.4794   50.9416 H   0  0  0  0  0  0  0  0  0  0  0  0
   11.2944   46.7188   52.6682 H   0  0  0  0  0  0  0  0  0  0  0  0
   10.1487   48.0711   54.4409 H   0  0  0  0  0  0  0  0  0  0  0  0
    7.6294   48.2168   54.4912 H   0  0  0  0  0  0  0  0  0  0  0  0
    5.3630   47.3260   53.1370 H   0  0  0  0  0  0  0  0  0  0  0  0
    3.8309   47.6506   51.3568 H   0  0  0  0  0  0  0  0  0  0  0  0
    2.5879   46.4100   50.8759 H   0  0  0  0  0  0  0  0  0  0  0  0
    3.4058   47.2378   53.5324 H   0  0  0  0  0  0  0  0  0  0  0  0
    2.0988   46.0900   53.0189 H   0  0  0  0  0  0  0  0  0  0  0  0
   -3.9922   45.4938   57.3417 H   0  0  0  0  0  0  0  0  0  0  0  0
   -3.7395   47.3478   59.0321 H   0  0  0  0  0  0  0  0  0  0  0  0
   -1.5067   48.4195   59.4072 H   0  0  0  0  0  0  0  0  0  0  0  0
    0.5079   47.6504   58.0973 H   0  0  0  0  0  0  0  0  0  0  0  0
  1  2  2  0
  2  3  1  0
  3  4  1  0
  4  5  1  0
  5  6  1  0
  6  7  1  0
  7  8  1  0
  8  9  1  0
  9 10  1  0
 10 11  2  0
 11 12  1  0
 12 13  2  0
 13 14  1  0
 14 15  2  0
 15 16  1  0
 16 17  2  0
 17 18  1  0
  9 19  1  0
 19 20  1  0
  4 21  2  0
 21 22  1  0
 22 23  2  0
 23 24  1  0
 24 25  1  0
 25 26  2  0
 26 27  1  0
 27 28  2  0
 28 29  1  0
 29 30  2  0
 23  2  1  0
 30 25  1  0
 20  6  1  0
 30 22  1  0
 18 10  1  0
 17 12  1  0
  3 31  1  0
  5 32  1  0
  5 33  1  0
  7 34  1  0
  7 35  1  0
  8 36  1  0
  8 37  1  0
  9 38  1  0
 13 39  1  0
 14 40  1  0
 15 41  1  0
 16 42  1  0
 18 43  1  0
 19 44  1  0
 19 45  1  0
 20 46  1  0
 20 47  1  0
 26 48  1  0
 27 49  1  0
 28 50  1  0
 29 51  1  0
M  END
>  <meeko>  (5) 
{"is_sidechain": [false], "free_energy": -8.343, "intermolecular_energy": -12.376, "internal_energy": 0.164}

$$$$
