MODEL 1
REMARK VINA RESULT:   -10.233      0.000      0.000
REMARK INTER + INTRA:         -12.776
REMARK INTER:                 -12.626
REMARK INTRA:                  -0.150
REMARK UNBOUND:                -0.150
REMARK SMILES O=C(Nc1nc2ccccc2n1C1CCCC1)c1coc(C2CCOCC2)n1
REMARK SMILES IDX 1 1 2 2 3 3 18 5 19 6 28 7 20 8 21 9 22 10 23 11 27 12 24 13
REMARK SMILES IDX 26 14 25 15 4 16 5 17 12 18 6 19 11 20 7 21 10 22 8 23 9 24
REMARK SMILES IDX 13 25 14 26 17 27 15 28 16 29
REMARK H PARENT 3 4
ROOT
ATOM      1  O   UNL     1       4.571  44.939  55.563  1.00  0.00    -0.267 OA
ATOM      2  C   UNL     1       3.834  45.593  54.775  1.00  0.00     0.279 C 
ATOM      3  N   UNL     1       4.411  46.510  53.831  1.00  0.00    -0.290 N 
ATOM      4  H   UNL     1       3.763  47.055  53.224  1.00  0.00     0.173 HD
ENDROOT
BRANCH   2   5
ATOM      5  C   UNL     1       2.374  45.420  54.845  1.00  0.00     0.167 A 
ATOM      6  C   UNL     1       1.503  45.420  53.776  1.00  0.00     0.231 A 
ATOM      7  N   UNL     1       1.685  45.228  55.987  1.00  0.00    -0.208 NA
ATOM      8  O   UNL     1       0.298  45.229  54.253  1.00  0.00    -0.448 OA
ATOM      9  C   UNL     1       0.410  45.120  55.559  1.00  0.00     0.198 A 
BRANCH   9  10
ATOM     10  C   UNL     1      -0.749  44.873  56.480  1.00  0.00     0.080 C 
ATOM     11  C   UNL     1      -1.458  46.187  56.838  1.00  0.00     0.042 C 
ATOM     12  C   UNL     1      -1.746  43.896  55.840  1.00  0.00     0.042 C 
ATOM     13  C   UNL     1      -2.730  45.888  57.644  1.00  0.00     0.161 C 
ATOM     14  C   UNL     1      -2.995  43.775  56.722  1.00  0.00     0.161 C 
ATOM     15  O   UNL     1      -3.601  45.040  56.917  1.00  0.00    -0.381 OA
ENDBRANCH   9  10
ENDBRANCH   2   5
BRANCH   3  16
ATOM     16  C   UNL     1       5.830  46.657  53.647  1.00  0.00     0.211 A 
ATOM     17  N   UNL     1       6.626  47.246  54.577  1.00  0.00    -0.213 NA
ATOM     18  N   UNL     1       6.512  46.176  52.566  1.00  0.00    -0.307 N 
ATOM     19  C   UNL     1       7.854  47.119  54.052  1.00  0.00     0.091 A 
ATOM     20  C   UNL     1       7.801  46.472  52.850  1.00  0.00     0.070 A 
ATOM     21  C   UNL     1       9.056  47.550  54.608  1.00  0.00     0.031 A 
ATOM     22  C   UNL     1       8.962  46.202  52.116  1.00  0.00     0.028 A 
ATOM     23  C   UNL     1      10.239  47.299  53.893  1.00  0.00     0.002 A 
ATOM     24  C   UNL     1      10.192  46.627  52.651  1.00  0.00     0.002 A 
BRANCH  18  25
ATOM     25  C   UNL     1       5.956  45.518  51.366  1.00  0.00     0.091 C 
ATOM     26  C   UNL     1       5.422  44.122  51.671  1.00  0.00     0.025 C 
ATOM     27  C   UNL     1       6.985  45.369  50.238  1.00  0.00     0.025 C 
ATOM     28  C   UNL     1       5.663  43.319  50.404  1.00  0.00     0.002 C 
ATOM     29  C   UNL     1       6.906  43.920  49.764  1.00  0.00     0.002 C 
ENDBRANCH  18  25
ENDBRANCH   3  16
TORSDOF 4
ENDMDL
MODEL 2
REMARK VINA RESULT:   -10.114      1.643      2.189
REMARK INTER + INTRA:         -12.629
REMARK INTER:                 -12.372
REMARK INTRA:                  -0.257
REMARK UNBOUND:                -0.150
REMARK SMILES O=C(Nc1nc2ccccc2n1C1CCCC1)c1coc(C2CCOCC2)n1
REMARK SMILES IDX 1 1 2 2 3 3 18 5 19 6 28 7 20 8 21 9 22 10 23 11 27 12 24 13
REMARK SMILES IDX 26 14 25 15 4 16 5 17 12 18 6 19 11 20 7 21 10 22 8 23 9 24
REMARK SMILES IDX 13 25 14 26 17 27 15 28 16 29
REMARK H PARENT 3 4
ROOT
ATOM      1  O   UNL     1       4.561  44.709  55.369  1.00  0.00    -0.267 OA
ATOM      2  C   UNL     1       3.832  45.451  54.658  1.00  0.00     0.279 C 
ATOM      3  N   UNL     1       4.417  46.467  53.827  1.00  0.00    -0.290 N 
ATOM      4  H   UNL     1       3.776  47.082  53.283  1.00  0.00     0.173 HD
ENDROOT
BRANCH   2   5
ATOM      5  C   UNL     1       2.370  45.280  54.700  1.00  0.00     0.167 A 
ATOM      6  C   UNL     1       1.565  45.436  55.808  1.00  0.00     0.231 A 
ATOM      7  N   UNL     1       1.613  44.949  53.636  1.00  0.00    -0.208 NA
ATOM      8  O   UNL     1       0.332  45.206  55.431  1.00  0.00    -0.448 OA
ATOM      9  C   UNL     1       0.365  44.915  54.149  1.00  0.00     0.198 A 
BRANCH   9  10
ATOM     10  C   UNL     1      -0.854  44.605  53.329  1.00  0.00     0.080 C 
ATOM     11  C   UNL     1      -0.601  43.415  52.393  1.00  0.00     0.042 C 
ATOM     12  C   UNL     1      -2.054  44.311  54.240  1.00  0.00     0.042 C 
ATOM     13  C   UNL     1      -1.907  43.020  51.691  1.00  0.00     0.161 C 
ATOM     14  C   UNL     1      -3.247  43.847  53.395  1.00  0.00     0.161 C 
ATOM     15  O   UNL     1      -2.912  42.700  52.635  1.00  0.00    -0.381 OA
ENDBRANCH   9  10
ENDBRANCH   2   5
BRANCH   3  16
ATOM     16  C   UNL     1       5.838  46.628  53.669  1.00  0.00     0.211 A 
ATOM     17  N   UNL     1       6.614  47.214  54.617  1.00  0.00    -0.213 NA
ATOM     18  N   UNL     1       6.542  46.163  52.594  1.00  0.00    -0.307 N 
ATOM     19  C   UNL     1       7.851  47.101  54.112  1.00  0.00     0.091 A 
ATOM     20  C   UNL     1       7.823  46.467  52.903  1.00  0.00     0.070 A 
ATOM     21  C   UNL     1       9.041  47.537  54.692  1.00  0.00     0.031 A 
ATOM     22  C   UNL     1       8.999  46.213  52.185  1.00  0.00     0.028 A 
ATOM     23  C   UNL     1      10.237  47.302  53.994  1.00  0.00     0.002 A 
ATOM     24  C   UNL     1      10.216  46.642  52.745  1.00  0.00     0.002 A 
BRANCH  18  25
ATOM     25  C   UNL     1       6.011  45.513  51.378  1.00  0.00     0.091 C 
ATOM     26  C   UNL     1       5.507  44.100  51.655  1.00  0.00     0.025 C 
ATOM     27  C   UNL     1       7.052  45.407  50.256  1.00  0.00     0.025 C 
ATOM     28  C   UNL     1       5.777  43.325  50.377  1.00  0.00     0.002 C 
ATOM     29  C   UNL     1       7.011  43.965  49.758  1.00  0.00     0.002 C 
ENDBRANCH  18  25
ENDBRANCH   3  16
TORSDOF 4
ENDMDL
MODEL 3
REMARK VINA RESULT:    -9.867      2.302      4.444
REMARK INTER + INTRA:         -12.324
REMARK INTER:                 -11.670
REMARK INTRA:                  -0.654
REMARK UNBOUND:                -0.150
REMARK SMILES O=C(Nc1nc2ccccc2n1C1CCCC1)c1coc(C2CCOCC2)n1
REMARK SMILES IDX 1 1 2 2 3 3 18 5 19 6 28 7 20 8 21 9 22 10 23 11 27 12 24 13
REMARK SMILES IDX 26 14 25 15 4 16 5 17 12 18 6 19 11 20 7 21 10 22 8 23 9 24
REMARK SMILES IDX 13 25 14 26 17 27 15 28 16 29
REMARK H PARENT 3 4
ROOT
ATOM      1  O   UNL     1       1.165  44.623  51.966  1.00  0.00    -0.267 OA
ATOM      2  C   UNL     1       1.473  44.307  53.147  1.00  0.00     0.279 C 
ATOM      3  N   UNL     1       2.686  43.585  53.415  1.00  0.00    -0.290 N 
ATOM      4  H   UNL     1       2.884  43.313  54.402  1.00  0.00     0.173 HD
ENDROOT
BRANCH   2   5
ATOM      5  C   UNL     1       0.567  44.670  54.250  1.00  0.00     0.167 A 
ATOM      6  C   UNL     1      -0.793  44.450  54.290  1.00  0.00     0.231 A 
ATOM      7  N   UNL     1       0.960  45.270  55.390  1.00  0.00    -0.208 NA
ATOM      8  O   UNL     1      -1.229  44.906  55.438  1.00  0.00    -0.448 OA
ATOM      9  C   UNL     1      -0.191  45.392  56.083  1.00  0.00     0.198 A 
BRANCH   9  10
ATOM     10  C   UNL     1      -0.267  45.995  57.456  1.00  0.00     0.080 C 
ATOM     11  C   UNL     1       1.122  46.438  57.939  1.00  0.00     0.042 C 
ATOM     12  C   UNL     1      -1.232  47.189  57.467  1.00  0.00     0.042 C 
ATOM     13  C   UNL     1       0.991  47.195  59.268  1.00  0.00     0.161 C 
ATOM     14  C   UNL     1      -1.181  47.887  58.832  1.00  0.00     0.161 C 
ATOM     15  O   UNL     1       0.136  48.315  59.130  1.00  0.00    -0.381 OA
ENDBRANCH   9  10
ENDBRANCH   2   5
BRANCH   3  16
ATOM     16  C   UNL     1       3.658  43.280  52.400  1.00  0.00     0.211 A 
ATOM     17  N   UNL     1       3.572  42.171  51.620  1.00  0.00    -0.213 NA
ATOM     18  N   UNL     1       4.710  44.092  52.085  1.00  0.00    -0.307 N 
ATOM     19  C   UNL     1       4.612  42.304  50.784  1.00  0.00     0.091 A 
ATOM     20  C   UNL     1       5.299  43.456  51.047  1.00  0.00     0.070 A 
ATOM     21  C   UNL     1       4.988  41.436  49.762  1.00  0.00     0.031 A 
ATOM     22  C   UNL     1       6.417  43.826  50.290  1.00  0.00     0.028 A 
ATOM     23  C   UNL     1       6.109  41.777  48.988  1.00  0.00     0.002 A 
ATOM     24  C   UNL     1       6.822  42.968  49.251  1.00  0.00     0.002 A 
BRANCH  18  25
ATOM     25  C   UNL     1       5.114  45.347  52.751  1.00  0.00     0.091 C 
ATOM     26  C   UNL     1       5.651  46.377  51.762  1.00  0.00     0.025 C 
ATOM     27  C   UNL     1       6.203  45.135  53.811  1.00  0.00     0.025 C 
ATOM     28  C   UNL     1       6.705  47.154  52.529  1.00  0.00     0.002 C 
ATOM     29  C   UNL     1       7.286  46.177  53.541  1.00  0.00     0.002 C 
ENDBRANCH  18  25
ENDBRANCH   3  16
TORSDOF 4
ENDMDL
MODEL 4
REMARK VINA RESULT:    -9.480      2.343      4.017
REMARK INTER + INTRA:         -11.847
REMARK INTER:                 -11.036
REMARK INTRA:                  -0.811
REMARK UNBOUND:                -0.150
REMARK SMILES O=C(Nc1nc2ccccc2n1C1CCCC1)c1coc(C2CCOCC2)n1
REMARK SMILES IDX 1 1 2 2 3 3 18 5 19 6 28 7 20 8 21 9 22 10 23 11 27 12 24 13
REMARK SMILES IDX 26 14 25 15 4 16 5 17 12 18 6 19 11 20 7 21 10 22 8 23 9 24
REMARK SMILES IDX 13 25 14 26 17 27 15 28 16 29
REMARK H PARENT 3 4
ROOT
ATOM      1  O   UNL     1       1.676  44.385  51.270  1.00  0.00    -0.267 OA
ATOM      2  C   UNL     1       1.806  43.663  52.296  1.00  0.00     0.279 C 
ATOM      3  N   UNL     1       3.065  43.036  52.589  1.00  0.00    -0.290 N 
ATOM      4  H   UNL     1       3.119  42.419  53.428  1.00  0.00     0.173 HD
ENDROOT
BRANCH   2   5
ATOM      5  C   UNL     1       0.648  43.452  53.181  1.00  0.00     0.167 A 
ATOM      6  C   UNL     1       0.010  42.253  53.413  1.00  0.00     0.231 A 
ATOM      7  N   UNL     1       0.056  44.425  53.900  1.00  0.00    -0.208 NA
ATOM      8  O   UNL     1      -0.959  42.484  54.263  1.00  0.00    -0.448 OA
ATOM      9  C   UNL     1      -0.931  43.768  54.545  1.00  0.00     0.198 A 
BRANCH   9  10
ATOM     10  C   UNL     1      -1.874  44.435  55.504  1.00  0.00     0.080 C 
ATOM     11  C   UNL     1      -2.443  43.424  56.510  1.00  0.00     0.042 C 
ATOM     12  C   UNL     1      -1.167  45.576  56.249  1.00  0.00     0.042 C 
ATOM     13  C   UNL     1      -3.271  44.159  57.572  1.00  0.00     0.161 C 
ATOM     14  C   UNL     1      -2.094  46.144  57.331  1.00  0.00     0.161 C 
ATOM     15  O   UNL     1      -2.488  45.133  58.240  1.00  0.00    -0.381 OA
ENDBRANCH   9  10
ENDBRANCH   2   5
BRANCH   3  16
ATOM     16  C   UNL     1       4.258  43.273  51.820  1.00  0.00     0.211 A 
ATOM     17  N   UNL     1       4.622  42.478  50.781  1.00  0.00    -0.213 NA
ATOM     18  N   UNL     1       5.094  44.335  52.019  1.00  0.00    -0.307 N 
ATOM     19  C   UNL     1       5.727  43.076  50.312  1.00  0.00     0.091 A 
ATOM     20  C   UNL     1       6.017  44.194  51.041  1.00  0.00     0.070 A 
ATOM     21  C   UNL     1       6.508  42.674  49.231  1.00  0.00     0.031 A 
ATOM     22  C   UNL     1       7.118  45.002  50.729  1.00  0.00     0.028 A 
ATOM     23  C   UNL     1       7.623  43.461  48.897  1.00  0.00     0.002 A 
ATOM     24  C   UNL     1       7.927  44.621  49.643  1.00  0.00     0.002 A 
BRANCH  18  25
ATOM     25  C   UNL     1       5.012  45.364  53.076  1.00  0.00     0.091 C 
ATOM     26  C   UNL     1       4.992  46.777  52.501  1.00  0.00     0.025 C 
ATOM     27  C   UNL     1       6.186  45.298  54.063  1.00  0.00     0.025 C 
ATOM     28  C   UNL     1       5.705  47.635  53.531  1.00  0.00     0.002 C 
ATOM     29  C   UNL     1       6.722  46.721  54.199  1.00  0.00     0.002 C 
ENDBRANCH  18  25
ENDBRANCH   3  16
TORSDOF 4
ENDMDL
MODEL 5
REMARK VINA RESULT:    -9.156      4.710      7.914
REMARK INTER + INTRA:         -11.447
REMARK INTER:                 -10.927
REMARK INTRA:                  -0.521
REMARK UNBOUND:                -0.150
REMARK SMILES O=C(Nc1nc2ccccc2n1C1CCCC1)c1coc(C2CCOCC2)n1
REMARK SMILES IDX 1 1 2 2 3 3 18 5 19 6 28 7 20 8 21 9 22 10 23 11 27 12 24 13
REMARK SMILES IDX 26 14 25 15 4 16 5 17 12 18 6 19 11 20 7 21 10 22 8 23 9 24
REMARK SMILES IDX 13 25 14 26 17 27 15 28 16 29
REMARK H PARENT 3 4
ROOT
ATOM      1  O   UNL     1       6.921  41.926  50.117  1.00  0.00    -0.267 OA
ATOM      2  C   UNL     1       5.736  42.312  49.927  1.00  0.00     0.279 C 
ATOM      3  N   UNL     1       5.298  43.589  50.420  1.00  0.00    -0.290 N 
ATOM      4  H   UNL     1       4.301  43.853  50.272  1.00  0.00     0.173 HD
ENDROOT
BRANCH   2   5
ATOM      5  C   UNL     1       4.797  41.432  49.211  1.00  0.00     0.167 A 
ATOM      6  C   UNL     1       3.707  40.790  49.758  1.00  0.00     0.231 A 
ATOM      7  N   UNL     1       4.880  41.141  47.898  1.00  0.00    -0.208 NA
ATOM      8  O   UNL     1       3.127  40.116  48.796  1.00  0.00    -0.448 OA
ATOM      9  C   UNL     1       3.825  40.323  47.701  1.00  0.00     0.198 A 
BRANCH   9  10
ATOM     10  C   UNL     1       3.476  39.738  46.363  1.00  0.00     0.080 C 
ATOM     11  C   UNL     1       2.643  38.458  46.521  1.00  0.00     0.042 C 
ATOM     12  C   UNL     1       2.709  40.762  45.513  1.00  0.00     0.042 C 
ATOM     13  C   UNL     1       2.165  37.976  45.145  1.00  0.00     0.161 C 
ATOM     14  C   UNL     1       2.226  40.102  44.215  1.00  0.00     0.161 C 
ATOM     15  O   UNL     1       1.408  38.980  44.493  1.00  0.00    -0.381 OA
ENDBRANCH   9  10
ENDBRANCH   2   5
BRANCH   3  16
ATOM     16  C   UNL     1       6.184  44.534  51.045  1.00  0.00     0.211 A 
ATOM     17  N   UNL     1       7.282  45.028  50.415  1.00  0.00    -0.213 NA
ATOM     18  N   UNL     1       5.981  45.062  52.288  1.00  0.00    -0.307 N 
ATOM     19  C   UNL     1       7.775  45.904  51.303  1.00  0.00     0.091 A 
ATOM     20  C   UNL     1       7.001  45.939  52.427  1.00  0.00     0.070 A 
ATOM     21  C   UNL     1       8.905  46.705  51.157  1.00  0.00     0.031 A 
ATOM     22  C   UNL     1       7.303  46.796  53.493  1.00  0.00     0.028 A 
ATOM     23  C   UNL     1       9.238  47.571  52.211  1.00  0.00     0.002 A 
ATOM     24  C   UNL     1       8.440  47.617  53.376  1.00  0.00     0.002 A 
BRANCH  18  25
ATOM     25  C   UNL     1       4.914  44.721  53.251  1.00  0.00     0.091 C 
ATOM     26  C   UNL     1       3.810  45.775  53.283  1.00  0.00     0.025 C 
ATOM     27  C   UNL     1       5.433  44.572  54.688  1.00  0.00     0.025 C 
ATOM     28  C   UNL     1       3.309  45.782  54.717  1.00  0.00     0.002 C 
ATOM     29  C   UNL     1       4.505  45.397  55.575  1.00  0.00     0.002 C 
ENDBRANCH  18  25
ENDBRANCH   3  16
TORSDOF 4
ENDMDL
