ligand_55_conformer_2_docked
     RDKit          3D

 39 41  0  0  0  0  0  0  0  0999 V2000
    1.9490   43.9430   53.6240 O   0  0  0  0  0  0  0  0  0  0  0  0
    2.9110   44.1890   52.8490 C   0  0  0  0  0  0  0  0  0  0  0  0
    2.9160   45.4700   52.0710 C   0  0  0  0  0  0  0  0  0  0  0  0
    3.8630   45.4180   50.8660 C   0  0  0  0  0  0  0  0  0  0  0  0
    5.2280   44.7890   51.2050 C   0  0  1  0  0  0  0  0  0  0  0  0
    5.9700   45.6230   52.1630 N   0  0  0  0  0  0  0  0  0  0  0  0
    7.3360   46.0070   51.9420 C   0  0  0  0  0  0  0  0  0  0  0  0
    7.8600   45.8370   50.8070 O   0  0  0  0  0  0  0  0  0  0  0  0
    8.1350   46.6290   53.0230 C   0  0  0  0  0  0  0  0  0  0  0  0
    9.5370   46.5700   52.9800 C   0  0  0  0  0  0  0  0  0  0  0  0
   10.2960   47.1570   53.9940 C   0  0  0  0  0  0  0  0  0  0  0  0
    9.6480   47.7910   55.0530 C   0  0  0  0  0  0  0  0  0  0  0  0
    8.2910   47.8260   55.0960 N   0  0  0  0  0  0  0  0  0  0  0  0
    7.5240   47.2670   54.1210 C   0  0  0  0  0  0  0  0  0  0  0  0
    6.1750   47.2940   54.2540 F   0  0  0  0  0  0  0  0  0  0  0  0
    5.0600   43.3500   51.7560 C   0  0  2  0  0  0  0  0  0  0  0  0
    4.8040   42.3550   50.6360 C   0  0  0  0  0  0  0  0  0  0  0  0
    5.7250   42.2600   49.5780 C   0  0  0  0  0  0  0  0  0  0  0  0
    5.5000   41.3780   48.5160 C   0  0  0  0  0  0  0  0  0  0  0  0
    4.3470   40.5910   48.4940 C   0  0  0  0  0  0  0  0  0  0  0  0
    3.4160   40.6850   49.5300 C   0  0  0  0  0  0  0  0  0  0  0  0
    3.6370   41.5650   50.5940 C   0  0  0  0  0  0  0  0  0  0  0  0
    4.0130   43.2740   52.7810 N   0  0  0  0  0  0  0  0  0  0  0  0
    1.8959   45.6683   51.7104 H   0  0  0  0  0  0  0  0  0  0  0  0
    3.2688   46.2680   52.7408 H   0  0  0  0  0  0  0  0  0  0  0  0
    3.3890   44.8220   50.0722 H   0  0  0  0  0  0  0  0  0  0  0  0
    4.0467   46.4539   50.5447 H   0  0  0  0  0  0  0  0  0  0  0  0
    5.8088   44.7335   50.2725 H   0  0  0  0  0  0  0  0  0  0  0  0
    5.4690   46.0480   52.9740 H   0  0  0  0  0  0  0  0  0  0  0  0
   10.0390   46.0597   52.1448 H   0  0  0  0  0  0  0  0  0  0  0  0
   11.3948   47.1196   53.9577 H   0  0  0  0  0  0  0  0  0  0  0  0
   10.2359   48.2630   55.8540 H   0  0  0  0  0  0  0  0  0  0  0  0
    6.0098   43.0776   52.2394 H   0  0  0  0  0  0  0  0  0  0  0  0
    6.6304   42.8847   49.5855 H   0  0  0  0  0  0  0  0  0  0  0  0
    6.2317   41.3044   47.6979 H   0  0  0  0  0  0  0  0  0  0  0  0
    4.1720   39.8961   47.6594 H   0  0  0  0  0  0  0  0  0  0  0  0
    2.5071   40.0658   49.5093 H   0  0  0  0  0  0  0  0  0  0  0  0
    2.8958   41.6414   51.4032 H   0  0  0  0  0  0  0  0  0  0  0  0
    3.9900   42.4270   53.3930 H   0  0  0  0  0  0  0  0  0  0  0  0
  1  2  2  0
  2  3  1  0
  3  4  1  0
  4  5  1  0
  5  6  1  0
  6  7  1  0
  7  8  2  0
  7  9  1  0
  9 10  2  0
 10 11  1  0
 11 12  2  0
 12 13  1  0
 13 14  2  0
 14 15  1  0
  5 16  1  0
 16 17  1  0
 17 18  2  0
 18 19  1  0
 19 20  2  0
 20 21  1  0
 21 22  2  0
 16 23  1  0
 23  2  1  0
 14  9  1  0
 22 17  1  0
  3 24  1  0
  3 25  1  0
  4 26  1  0
  4 27  1  0
  5 28  1  6
  6 29  1  0
 10 30  1  0
 11 31  1  0
 12 32  1  0
 16 33  1  1
 18 34  1  0
 19 35  1  0
 20 36  1  0
 21 37  1  0
 22 38  1  0
 23 39  1  0
M  END
>  <meeko>  (1) 
{"is_sidechain": [false], "free_energy": -9.377, "intermolecular_energy": -11.022, "internal_energy": -0.475}

$$$$
ligand_55_conformer_2_docked
     RDKit          3D

 39 41  0  0  0  0  0  0  0  0999 V2000
    5.4570   48.2120   53.4070 O   0  0  0  0  0  0  0  0  0  0  0  0
    5.2750   46.9680   53.3370 C   0  0  0  0  0  0  0  0  0  0  0  0
    5.5930   46.1140   54.5270 C   0  0  0  0  0  0  0  0  0  0  0  0
    5.7690   44.6360   54.1550 C   0  0  0  0  0  0  0  0  0  0  0  0
    4.6800   44.1300   53.1890 C   0  0  1  0  0  0  0  0  0  0  0  0
    3.3570   44.1470   53.8310 N   0  0  0  0  0  0  0  0  0  0  0  0
    2.2250   43.4670   53.2650 C   0  0  0  0  0  0  0  0  0  0  0  0
    2.3950   42.6390   52.3270 O   0  0  0  0  0  0  0  0  0  0  0  0
    0.8590   43.7000   53.7870 C   0  0  0  0  0  0  0  0  0  0  0  0
    0.6340   44.7120   54.7350 C   0  0  0  0  0  0  0  0  0  0  0  0
   -0.6510   44.9390   55.2280 C   0  0  0  0  0  0  0  0  0  0  0  0
   -1.7050   44.1450   54.7800 C   0  0  0  0  0  0  0  0  0  0  0  0
   -1.4750   43.1550   53.8780 N   0  0  0  0  0  0  0  0  0  0  0  0
   -0.2340   42.9130   53.3750 C   0  0  0  0  0  0  0  0  0  0  0  0
   -0.0680   41.8760   52.5170 F   0  0  0  0  0  0  0  0  0  0  0  0
    4.6590   44.9640   51.8820 C   0  0  2  0  0  0  0  0  0  0  0  0
    5.7800   44.5490   50.9430 C   0  0  0  0  0  0  0  0  0  0  0  0
    5.7250   43.2890   50.3220 C   0  0  0  0  0  0  0  0  0  0  0  0
    6.7570   42.8650   49.4790 C   0  0  0  0  0  0  0  0  0  0  0  0
    7.8610   43.6900   49.2580 C   0  0  0  0  0  0  0  0  0  0  0  0
    7.9370   44.9380   49.8790 C   0  0  0  0  0  0  0  0  0  0  0  0
    6.9070   45.3660   50.7220 C   0  0  0  0  0  0  0  0  0  0  0  0
    4.7000   46.4050   52.1500 N   0  0  0  0  0  0  0  0  0  0  0  0
    6.5257   46.4770   54.9834 H   0  0  0  0  0  0  0  0  0  0  0  0
    4.7476   46.1856   55.2271 H   0  0  0  0  0  0  0  0  0  0  0  0
    6.7509   44.5087   53.6757 H   0  0  0  0  0  0  0  0  0  0  0  0
    5.6885   44.0491   55.0819 H   0  0  0  0  0  0  0  0  0  0  0  0
    4.9247   43.0899   52.9278 H   0  0  0  0  0  0  0  0  0  0  0  0
    3.2480   44.5650   54.7810 H   0  0  0  0  0  0  0  0  0  0  0  0
    1.4739   45.3274   55.0897 H   0  0  0  0  0  0  0  0  0  0  0  0
   -0.8306   45.7371   55.9634 H   0  0  0  0  0  0  0  0  0  0  0  0
   -2.7236   44.3197   55.1567 H   0  0  0  0  0  0  0  0  0  0  0  0
    3.7026   44.7530   51.3811 H   0  0  0  0  0  0  0  0  0  0  0  0
    4.8622   42.6305   50.5009 H   0  0  0  0  0  0  0  0  0  0  0  0
    6.6988   41.8814   48.9901 H   0  0  0  0  0  0  0  0  0  0  0  0
    8.6720   43.3565   48.5939 H   0  0  0  0  0  0  0  0  0  0  0  0
    8.8088   45.5858   49.7048 H   0  0  0  0  0  0  0  0  0  0  0  0
    6.9766   46.3465   51.2158 H   0  0  0  0  0  0  0  0  0  0  0  0
    4.4360   47.0540   51.3750 H   0  0  0  0  0  0  0  0  0  0  0  0
  1  2  2  0
  2  3  1  0
  3  4  1  0
  4  5  1  0
  5  6  1  0
  6  7  1  0
  7  8  2  0
  7  9  1  0
  9 10  2  0
 10 11  1  0
 11 12  2  0
 12 13  1  0
 13 14  2  0
 14 15  1  0
  5 16  1  0
 16 17  1  0
 17 18  2  0
 18 19  1  0
 19 20  2  0
 20 21  1  0
 21 22  2  0
 16 23  1  0
 23  2  1  0
 14  9  1  0
 22 17  1  0
  3 24  1  0
  3 25  1  0
  4 26  1  0
  4 27  1  0
  5 28  1  6
  6 29  1  0
 10 30  1  0
 11 31  1  0
 12 32  1  0
 16 33  1  6
 18 34  1  0
 19 35  1  0
 20 36  1  0
 21 37  1  0
 22 38  1  0
 23 39  1  0
M  END
>  <meeko>  (2) 
{"is_sidechain": [false], "free_energy": -9.009, "intermolecular_energy": -10.7, "internal_energy": -0.364}

$$$$
ligand_55_conformer_2_docked
     RDKit          3D

 39 41  0  0  0  0  0  0  0  0999 V2000
    4.4700   48.6070   54.4020 O   0  0  0  0  0  0  0  0  0  0  0  0
    4.7090   47.4010   54.1300 C   0  0  0  0  0  0  0  0  0  0  0  0
    4.8280   46.4090   55.2480 C   0  0  0  0  0  0  0  0  0  0  0  0
    5.5620   45.1320   54.8200 C   0  0  0  0  0  0  0  0  0  0  0  0
    5.0940   44.6040   53.4500 C   0  0  1  0  0  0  0  0  0  0  0  0
    3.6910   44.1670   53.5040 N   0  0  0  0  0  0  0  0  0  0  0  0
    3.1300   43.2790   52.5250 C   0  0  0  0  0  0  0  0  0  0  0  0
    3.8900   42.6620   51.7290 O   0  0  0  0  0  0  0  0  0  0  0  0
    1.6680   43.0520   52.4540 C   0  0  0  0  0  0  0  0  0  0  0  0
    0.9840   42.5380   53.5680 C   0  0  0  0  0  0  0  0  0  0  0  0
   -0.3940   42.3240   53.5080 C   0  0  0  0  0  0  0  0  0  0  0  0
   -1.0810   42.6150   52.3310 C   0  0  0  0  0  0  0  0  0  0  0  0
   -0.4080   43.0930   51.2520 N   0  0  0  0  0  0  0  0  0  0  0  0
    0.9350   43.3160   51.2810 C   0  0  0  0  0  0  0  0  0  0  0  0
    1.5500   43.7460   50.1510 F   0  0  0  0  0  0  0  0  0  0  0  0
    5.2870   45.6730   52.3430 C   0  0  2  0  0  0  0  0  0  0  0  0
    6.7370   45.7490   51.8940 C   0  0  0  0  0  0  0  0  0  0  0  0
    7.6440   46.5310   52.6320 C   0  0  0  0  0  0  0  0  0  0  0  0
    8.9770   46.6470   52.2250 C   0  0  0  0  0  0  0  0  0  0  0  0
    9.4150   45.9940   51.0720 C   0  0  0  0  0  0  0  0  0  0  0  0
    8.5220   45.2260   50.3210 C   0  0  0  0  0  0  0  0  0  0  0  0
    7.1890   45.1060   50.7240 C   0  0  0  0  0  0  0  0  0  0  0  0
    4.7920   46.9890   52.7590 N   0  0  0  0  0  0  0  0  0  0  0  0
    5.3825   46.8746   56.0761 H   0  0  0  0  0  0  0  0  0  0  0  0
    3.8105   46.1247   55.5543 H   0  0  0  0  0  0  0  0  0  0  0  0
    6.6391   45.3479   54.7640 H   0  0  0  0  0  0  0  0  0  0  0  0
    5.3393   44.3561   55.5673 H   0  0  0  0  0  0  0  0  0  0  0  0
    5.7174   43.7332   53.1987 H   0  0  0  0  0  0  0  0  0  0  0  0
    3.1050   44.4110   54.3330 H   0  0  0  0  0  0  0  0  0  0  0  0
    1.5358   42.3035   54.4902 H   0  0  0  0  0  0  0  0  0  0  0  0
   -0.9328   41.9292   54.3819 H   0  0  0  0  0  0  0  0  0  0  0  0
   -2.1683   42.4577   52.2756 H   0  0  0  0  0  0  0  0  0  0  0  0
    4.6825   45.3557   51.4805 H   0  0  0  0  0  0  0  0  0  0  0  0
    7.3021   47.0555   53.5365 H   0  0  0  0  0  0  0  0  0  0  0  0
    9.6807   47.2534   52.8141 H   0  0  0  0  0  0  0  0  0  0  0  0
   10.4643   46.0842   50.7543 H   0  0  0  0  0  0  0  0  0  0  0  0
    8.8685   44.7147   49.4108 H   0  0  0  0  0  0  0  0  0  0  0  0
    6.4885   44.5061   50.1244 H   0  0  0  0  0  0  0  0  0  0  0  0
    4.6370   47.7090   52.0180 H   0  0  0  0  0  0  0  0  0  0  0  0
  1  2  2  0
  2  3  1  0
  3  4  1  0
  4  5  1  0
  5  6  1  0
  6  7  1  0
  7  8  2  0
  7  9  1  0
  9 10  2  0
 10 11  1  0
 11 12  2  0
 12 13  1  0
 13 14  2  0
 14 15  1  0
  5 16  1  0
 16 17  1  0
 17 18  2  0
 18 19  1  0
 19 20  2  0
 20 21  1  0
 21 22  2  0
 16 23  1  0
 23  2  1  0
 14  9  1  0
 22 17  1  0
  3 24  1  0
  3 25  1  0
  4 26  1  0
  4 27  1  0
  5 28  1  6
  6 29  1  0
 10 30  1  0
 11 31  1  0
 12 32  1  0
 16 33  1  6
 18 34  1  0
 19 35  1  0
 20 36  1  0
 21 37  1  0
 22 38  1  0
 23 39  1  0
M  END
>  <meeko>  (3) 
{"is_sidechain": [false], "free_energy": -8.239, "intermolecular_energy": -9.718, "internal_energy": -0.441}

$$$$
ligand_55_conformer_2_docked
     RDKit          3D

 39 41  0  0  0  0  0  0  0  0999 V2000
    4.6270   42.8910   50.9490 O   0  0  0  0  0  0  0  0  0  0  0  0
    4.5040   44.0110   51.5130 C   0  0  0  0  0  0  0  0  0  0  0  0
    3.7190   45.0910   50.8320 C   0  0  0  0  0  0  0  0  0  0  0  0
    4.0430   46.4850   51.3850 C   0  0  0  0  0  0  0  0  0  0  0  0
    4.1070   46.5160   52.9240 C   0  0  1  0  0  0  0  0  0  0  0  0
    2.7890   46.2340   53.5130 N   0  0  0  0  0  0  0  0  0  0  0  0
    2.6330   45.8620   54.8910 C   0  0  0  0  0  0  0  0  0  0  0  0
    3.5980   46.0010   55.6920 O   0  0  0  0  0  0  0  0  0  0  0  0
    1.3410   45.3430   55.3960 C   0  0  0  0  0  0  0  0  0  0  0  0
    0.5180   44.5740   54.5570 C   0  0  0  0  0  0  0  0  0  0  0  0
   -0.6990   44.0800   55.0280 C   0  0  0  0  0  0  0  0  0  0  0  0
   -1.0940   44.3660   56.3340 C   0  0  0  0  0  0  0  0  0  0  0  0
   -0.3010   45.1270   57.1320 N   0  0  0  0  0  0  0  0  0  0  0  0
    0.8930   45.6190   56.7030 C   0  0  0  0  0  0  0  0  0  0  0  0
    1.6100   46.4130   57.5370 F   0  0  0  0  0  0  0  0  0  0  0  0
    5.1660   45.5200   53.4610 C   0  0  2  0  0  0  0  0  0  0  0  0
    6.5720   46.0800   53.3240 C   0  0  0  0  0  0  0  0  0  0  0  0
    7.1690   46.7180   54.4260 C   0  0  0  0  0  0  0  0  0  0  0  0
    8.4480   47.2730   54.3200 C   0  0  0  0  0  0  0  0  0  0  0  0
    9.1410   47.2070   53.1100 C   0  0  0  0  0  0  0  0  0  0  0  0
    8.5550   46.5890   52.0020 C   0  0  0  0  0  0  0  0  0  0  0  0
    7.2760   46.0330   52.1040 C   0  0  0  0  0  0  0  0  0  0  0  0
    5.0560   44.2050   52.8220 N   0  0  0  0  0  0  0  0  0  0  0  0
    3.9529   45.0739   49.7573 H   0  0  0  0  0  0  0  0  0  0  0  0
    2.6518   44.8968   51.0147 H   0  0  0  0  0  0  0  0  0  0  0  0
    5.0173   46.8037   50.9861 H   0  0  0  0  0  0  0  0  0  0  0  0
    3.2337   47.1616   51.0732 H   0  0  0  0  0  0  0  0  0  0  0  0
    4.4089   47.5306   53.2232 H   0  0  0  0  0  0  0  0  0  0  0  0
    1.9250   46.4130   52.9550 H   0  0  0  0  0  0  0  0  0  0  0  0
    0.8339   44.3605   53.5252 H   0  0  0  0  0  0  0  0  0  0  0  0
   -1.3408   43.4705   54.3748 H   0  0  0  0  0  0  0  0  0  0  0  0
   -2.0478   43.9754   56.7182 H   0  0  0  0  0  0  0  0  0  0  0  0
    4.9610   45.3796   54.5326 H   0  0  0  0  0  0  0  0  0  0  0  0
    6.6249   46.7810   55.3799 H   0  0  0  0  0  0  0  0  0  0  0  0
    8.9086   47.7621   55.1910 H   0  0  0  0  0  0  0  0  0  0  0  0
   10.1483   47.6414   53.0287 H   0  0  0  0  0  0  0  0  0  0  0  0
    9.1007   46.5399   51.0482 H   0  0  0  0  0  0  0  0  0  0  0  0
    6.8162   45.5557   51.2260 H   0  0  0  0  0  0  0  0  0  0  0  0
    5.5380   43.3980   53.2790 H   0  0  0  0  0  0  0  0  0  0  0  0
  1  2  2  0
  2  3  1  0
  3  4  1  0
  4  5  1  0
  5  6  1  0
  6  7  1  0
  7  8  2  0
  7  9  1  0
  9 10  2  0
 10 11  1  0
 11 12  2  0
 12 13  1  0
 13 14  2  0
 14 15  1  0
  5 16  1  0
 16 17  1  0
 17 18  2  0
 18 19  1  0
 19 20  2  0
 20 21  1  0
 21 22  2  0
 16 23  1  0
 23  2  1  0
 14  9  1  0
 22 17  1  0
  3 24  1  0
  3 25  1  0
  4 26  1  0
  4 27  1  0
  5 28  1  6
  6 29  1  0
 10 30  1  0
 11 31  1  0
 12 32  1  0
 16 33  1  1
 18 34  1  0
 19 35  1  0
 20 36  1  0
 21 37  1  0
 22 38  1  0
 23 39  1  0
M  END
>  <meeko>  (4) 
{"is_sidechain": [false], "free_energy": -8.001, "intermolecular_energy": -9.987, "internal_energy": 0.108}

$$$$
