ligand_62_conformer_5_docked
     RDKit          3D

 45 47  0  0  0  0  0  0  0  0999 V2000
   -3.2810   46.6820   51.4560 C   0  0  0  0  0  0  0  0  0  0  0  0
   -2.4910   45.4700   51.1960 N   0  0  0  0  0  0  0  0  0  0  0  0
   -3.3300   44.2620   51.1400 C   0  0  0  0  0  0  0  0  0  0  0  0
   -2.6580   43.1810   51.9830 C   0  0  0  0  0  0  0  0  0  0  0  0
   -1.2610   43.7240   52.2980 C   0  0  1  0  0  0  0  0  0  0  0  0
   -0.7830   43.2890   53.6990 C   0  0  0  0  0  0  0  0  0  0  0  0
   -0.2300   43.3140   51.2060 C   0  0  0  0  0  0  0  0  0  0  0  0
    0.6580   44.4210   50.8400 N   0  0  0  0  0  0  0  0  0  0  0  0
    2.0010   44.5450   51.3320 C   0  0  0  0  0  0  0  0  0  0  0  0
    2.4650   43.6820   52.1260 O   0  0  0  0  0  0  0  0  0  0  0  0
    2.8220   45.6320   50.8810 N   0  0  0  0  0  0  0  0  0  0  0  0
    4.1020   45.9650   51.4450 C   0  0  0  0  0  0  0  0  0  0  0  0
    5.2970   45.4630   50.9030 C   0  0  0  0  0  0  0  0  0  0  0  0
    6.5270   45.7820   51.4840 C   0  0  0  0  0  0  0  0  0  0  0  0
    6.5840   46.5990   52.6260 C   0  0  0  0  0  0  0  0  0  0  0  0
    7.8810   46.9410   53.2450 C   0  0  0  0  0  0  0  0  0  0  0  0
    8.0120   47.4160   54.5030 N   0  0  0  0  0  0  0  0  0  0  0  0
    9.3410   47.5820   54.6380 C   0  0  0  0  0  0  0  0  0  0  0  0
    9.9640   47.2060   53.4710 C   0  0  0  0  0  0  0  0  0  0  0  0
    9.0380   46.8160   52.6320 O   0  0  0  0  0  0  0  0  0  0  0  0
    5.3880   47.0820   53.1800 C   0  0  0  0  0  0  0  0  0  0  0  0
    4.1580   46.7600   52.5990 C   0  0  0  0  0  0  0  0  0  0  0  0
   -1.4900   45.2390   52.2440 C   0  0  0  0  0  0  0  0  0  0  0  0
   -3.3779   46.8306   52.5416 H   0  0  0  0  0  0  0  0  0  0  0  0
   -2.7757   47.5516   51.0105 H   0  0  0  0  0  0  0  0  0  0  0  0
   -4.2806   46.5707   51.0105 H   0  0  0  0  0  0  0  0  0  0  0  0
   -4.3293   44.4826   51.5435 H   0  0  0  0  0  0  0  0  0  0  0  0
   -3.4406   43.9216   50.0999 H   0  0  0  0  0  0  0  0  0  0  0  0
   -3.2230   43.0095   52.9111 H   0  0  0  0  0  0  0  0  0  0  0  0
   -2.6138   42.2173   51.4545 H   0  0  0  0  0  0  0  0  0  0  0  0
   -1.3659   43.8195   54.4664 H   0  0  0  0  0  0  0  0  0  0  0  0
   -0.9257   42.2044   53.8147 H   0  0  0  0  0  0  0  0  0  0  0  0
    0.2833   43.5330   53.8147 H   0  0  0  0  0  0  0  0  0  0  0  0
    0.3798   42.4824   51.5888 H   0  0  0  0  0  0  0  0  0  0  0  0
   -0.7901   43.0186   50.3065 H   0  0  0  0  0  0  0  0  0  0  0  0
    0.2910   45.1640   50.2050 H   0  0  0  0  0  0  0  0  0  0  0  0
    2.5090   46.1530   50.0310 H   0  0  0  0  0  0  0  0  0  0  0  0
    5.2641   44.8144   50.0152 H   0  0  0  0  0  0  0  0  0  0  0  0
    7.4567   45.3912   51.0447 H   0  0  0  0  0  0  0  0  0  0  0  0
    9.8481   47.9585   55.5386 H   0  0  0  0  0  0  0  0  0  0  0  0
   11.0466   47.2289   53.2773 H   0  0  0  0  0  0  0  0  0  0  0  0
    5.4189   47.7179   54.0770 H   0  0  0  0  0  0  0  0  0  0  0  0
    3.2269   47.1331   53.0504 H   0  0  0  0  0  0  0  0  0  0  0  0
   -1.8631   45.6021   53.2130 H   0  0  0  0  0  0  0  0  0  0  0  0
   -0.5548   45.7760   52.0273 H   0  0  0  0  0  0  0  0  0  0  0  0
  1  2  1  0
  2  3  1  0
  3  4  1  0
  4  5  1  0
  5  6  1  1
  5  7  1  0
  7  8  1  0
  8  9  1  0
  9 10  2  0
  9 11  1  0
 11 12  1  0
 12 13  2  0
 13 14  1  0
 14 15  2  0
 15 16  1  0
 16 17  2  0
 17 18  1  0
 18 19  2  0
 19 20  1  0
 15 21  1  0
 21 22  2  0
  5 23  1  0
 23  2  1  0
 22 12  1  0
 20 16  1  0
  1 24  1  0
  1 25  1  0
  1 26  1  0
  3 27  1  0
  3 28  1  0
  4 29  1  0
  4 30  1  0
  6 31  1  0
  6 32  1  0
  6 33  1  0
  7 34  1  0
  7 35  1  0
  8 36  1  0
 11 37  1  0
 13 38  1  0
 14 39  1  0
 18 40  1  0
 19 41  1  0
 21 42  1  0
 22 43  1  0
 23 44  1  0
 23 45  1  0
M  END
>  <meeko>  (1) 
{"is_sidechain": [false], "free_energy": -7.547, "intermolecular_energy": -9.312, "internal_energy": -0.769}

$$$$
ligand_62_conformer_5_docked
     RDKit          3D

 45 47  0  0  0  0  0  0  0  0999 V2000
   10.3380   47.3240   55.3170 C   0  0  0  0  0  0  0  0  0  0  0  0
    9.3130   46.9430   54.3350 N   0  0  0  0  0  0  0  0  0  0  0  0
    9.8790   46.1810   53.2090 C   0  0  0  0  0  0  0  0  0  0  0  0
    9.3200   46.7660   51.9150 C   0  0  0  0  0  0  0  0  0  0  0  0
    8.1950   47.7100   52.3510 C   0  0  1  0  0  0  0  0  0  0  0  0
    8.0940   48.9420   51.4270 C   0  0  0  0  0  0  0  0  0  0  0  0
    6.8290   46.9680   52.4400 C   0  0  0  0  0  0  0  0  0  0  0  0
    6.9700   45.5240   52.2280 N   0  0  0  0  0  0  0  0  0  0  0  0
    6.2720   44.8110   51.1960 C   0  0  0  0  0  0  0  0  0  0  0  0
    5.4870   45.4250   50.4240 O   0  0  0  0  0  0  0  0  0  0  0  0
    6.5090   43.4070   51.0230 N   0  0  0  0  0  0  0  0  0  0  0  0
    5.7340   42.5570   50.1600 C   0  0  0  0  0  0  0  0  0  0  0  0
    4.5750   41.9070   50.6160 C   0  0  0  0  0  0  0  0  0  0  0  0
    3.8510   41.0680   49.7640 C   0  0  0  0  0  0  0  0  0  0  0  0
    4.2810   40.8530   48.4440 C   0  0  0  0  0  0  0  0  0  0  0  0
    3.5210   39.9680   47.5380 C   0  0  0  0  0  0  0  0  0  0  0  0
    2.9260   38.8210   47.9320 N   0  0  0  0  0  0  0  0  0  0  0  0
    2.3640   38.3560   46.8000 C   0  0  0  0  0  0  0  0  0  0  0  0
    2.6320   39.2270   45.7710 C   0  0  0  0  0  0  0  0  0  0  0  0
    3.3470   40.2100   46.2570 O   0  0  0  0  0  0  0  0  0  0  0  0
    5.4520   41.4850   47.9960 C   0  0  0  0  0  0  0  0  0  0  0  0
    6.1750   42.3230   48.8500 C   0  0  0  0  0  0  0  0  0  0  0  0
    8.6490   48.1170   53.7570 C   0  0  0  0  0  0  0  0  0  0  0  0
    9.9442   47.1776   56.3336 H   0  0  0  0  0  0  0  0  0  0  0  0
   11.2314   46.6979   55.1762 H   0  0  0  0  0  0  0  0  0  0  0  0
   10.6055   48.3816   55.1762 H   0  0  0  0  0  0  0  0  0  0  0  0
   10.9757   46.2666   53.2142 H   0  0  0  0  0  0  0  0  0  0  0  0
    9.6113   45.1175   53.2944 H   0  0  0  0  0  0  0  0  0  0  0  0
   10.1007   47.3209   51.3742 H   0  0  0  0  0  0  0  0  0  0  0  0
    8.9568   45.9823   51.2339 H   0  0  0  0  0  0  0  0  0  0  0  0
    8.0193   49.8535   52.0381 H   0  0  0  0  0  0  0  0  0  0  0  0
    8.9905   48.9987   50.7921 H   0  0  0  0  0  0  0  0  0  0  0  0
    7.2002   48.8519   50.7921 H   0  0  0  0  0  0  0  0  0  0  0  0
    6.3967   47.1395   53.4368 H   0  0  0  0  0  0  0  0  0  0  0  0
    6.1765   47.3642   51.6480 H   0  0  0  0  0  0  0  0  0  0  0  0
    7.5940   44.9860   52.8690 H   0  0  0  0  0  0  0  0  0  0  0  0
    7.3540   42.9980   51.4830 H   0  0  0  0  0  0  0  0  0  0  0  0
    4.2348   42.0594   51.6509 H   0  0  0  0  0  0  0  0  0  0  0  0
    2.9391   40.5731   50.1293 H   0  0  0  0  0  0  0  0  0  0  0  0
    1.7825   37.4263   46.7127 H   0  0  0  0  0  0  0  0  0  0  0  0
    2.3045   39.1177   44.7266 H   0  0  0  0  0  0  0  0  0  0  0  0
    5.8027   41.3197   46.9666 H   0  0  0  0  0  0  0  0  0  0  0  0
    7.0975   42.8027   48.4911 H   0  0  0  0  0  0  0  0  0  0  0  0
    9.3514   48.9616   53.7002 H   0  0  0  0  0  0  0  0  0  0  0  0
    7.7963   48.4365   54.3741 H   0  0  0  0  0  0  0  0  0  0  0  0
  1  2  1  0
  2  3  1  0
  3  4  1  0
  4  5  1  0
  5  6  1  6
  5  7  1  0
  7  8  1  0
  8  9  1  0
  9 10  2  0
  9 11  1  0
 11 12  1  0
 12 13  2  0
 13 14  1  0
 14 15  2  0
 15 16  1  0
 16 17  2  0
 17 18  1  0
 18 19  2  0
 19 20  1  0
 15 21  1  0
 21 22  2  0
  5 23  1  0
 23  2  1  0
 22 12  1  0
 20 16  1  0
  1 24  1  0
  1 25  1  0
  1 26  1  0
  3 27  1  0
  3 28  1  0
  4 29  1  0
  4 30  1  0
  6 31  1  0
  6 32  1  0
  6 33  1  0
  7 34  1  0
  7 35  1  0
  8 36  1  0
 11 37  1  0
 13 38  1  0
 14 39  1  0
 18 40  1  0
 19 41  1  0
 21 42  1  0
 22 43  1  0
 23 44  1  0
 23 45  1  0
M  END
>  <meeko>  (2) 
{"is_sidechain": [false], "free_energy": -7.179, "intermolecular_energy": -9.274, "internal_energy": -0.352}

$$$$
ligand_62_conformer_5_docked
     RDKit          3D

 45 47  0  0  0  0  0  0  0  0999 V2000
   -1.4730   44.1480   55.6780 C   0  0  0  0  0  0  0  0  0  0  0  0
   -1.4160   44.5760   54.2720 N   0  0  0  0  0  0  0  0  0  0  0  0
   -2.6960   45.1380   53.8120 C   0  0  0  0  0  0  0  0  0  0  0  0
   -3.0240   44.5170   52.4560 C   0  0  0  0  0  0  0  0  0  0  0  0
   -1.7480   43.7880   52.0260 C   0  0  1  0  0  0  0  0  0  0  0  0
   -2.0650   42.5010   51.2370 C   0  0  0  0  0  0  0  0  0  0  0  0
   -0.8040   44.7220   51.2130 C   0  0  0  0  0  0  0  0  0  0  0  0
    0.5530   44.1800   51.1050 N   0  0  0  0  0  0  0  0  0  0  0  0
    1.6840   44.7580   51.7730 C   0  0  0  0  0  0  0  0  0  0  0  0
    1.5390   45.7880   52.4850 O   0  0  0  0  0  0  0  0  0  0  0  0
    2.9700   44.1310   51.6570 N   0  0  0  0  0  0  0  0  0  0  0  0
    4.1990   44.7200   52.1160 C   0  0  0  0  0  0  0  0  0  0  0  0
    4.6560   44.5360   53.4320 C   0  0  0  0  0  0  0  0  0  0  0  0
    5.8410   45.1380   53.8620 C   0  0  0  0  0  0  0  0  0  0  0  0
    6.5860   45.9460   52.9860 C   0  0  0  0  0  0  0  0  0  0  0  0
    7.8400   46.5850   53.4330 C   0  0  0  0  0  0  0  0  0  0  0  0
    7.9610   47.2810   54.5860 N   0  0  0  0  0  0  0  0  0  0  0  0
    9.2500   47.6720   54.5810 C   0  0  0  0  0  0  0  0  0  0  0  0
    9.8600   47.2050   53.4400 C   0  0  0  0  0  0  0  0  0  0  0  0
    8.9650   46.5400   52.7540 O   0  0  0  0  0  0  0  0  0  0  0  0
    6.1180   46.1480   51.6790 C   0  0  0  0  0  0  0  0  0  0  0  0
    4.9310   45.5470   51.2510 C   0  0  0  0  0  0  0  0  0  0  0  0
   -1.1010   43.4570   53.3760 C   0  0  0  0  0  0  0  0  0  0  0  0
   -1.3563   45.0240   56.3330 H   0  0  0  0  0  0  0  0  0  0  0  0
   -2.4429   43.6685   55.8763 H   0  0  0  0  0  0  0  0  0  0  0  0
   -0.6624   43.4314   55.8763 H   0  0  0  0  0  0  0  0  0  0  0  0
   -3.4901   44.8981   54.5344 H   0  0  0  0  0  0  0  0  0  0  0  0
   -2.6232   46.2320   53.7237 H   0  0  0  0  0  0  0  0  0  0  0  0
   -3.8600   43.8081   52.5490 H   0  0  0  0  0  0  0  0  0  0  0  0
   -3.3303   45.2758   51.7208 H   0  0  0  0  0  0  0  0  0  0  0  0
   -2.2672   41.6800   51.9406 H   0  0  0  0  0  0  0  0  0  0  0  0
   -2.9490   42.6674   50.6039 H   0  0  0  0  0  0  0  0  0  0  0  0
   -1.2048   42.2378   50.6039 H   0  0  0  0  0  0  0  0  0  0  0  0
   -1.2164   44.8484   50.2011 H   0  0  0  0  0  0  0  0  0  0  0  0
   -0.7421   45.6837   51.7434 H   0  0  0  0  0  0  0  0  0  0  0  0
    0.7080   43.3420   50.5010 H   0  0  0  0  0  0  0  0  0  0  0  0
    2.9990   43.1490   51.3010 H   0  0  0  0  0  0  0  0  0  0  0  0
    4.0762   43.9131   54.1290 H   0  0  0  0  0  0  0  0  0  0  0  0
    6.1930   44.9787   54.8919 H   0  0  0  0  0  0  0  0  0  0  0  0
    9.7375   48.2700   55.3651 H   0  0  0  0  0  0  0  0  0  0  0  0
   10.9108   47.3621   53.1552 H   0  0  0  0  0  0  0  0  0  0  0  0
    6.6891   46.7837   50.9864 H   0  0  0  0  0  0  0  0  0  0  0  0
    4.5679   45.7238   50.2278 H   0  0  0  0  0  0  0  0  0  0  0  0
   -1.5154   42.5203   53.7770 H   0  0  0  0  0  0  0  0  0  0  0  0
   -0.0141   43.3211   53.2747 H   0  0  0  0  0  0  0  0  0  0  0  0
  1  2  1  0
  2  3  1  0
  3  4  1  0
  4  5  1  0
  5  6  1  6
  5  7  1  0
  7  8  1  0
  8  9  1  0
  9 10  2  0
  9 11  1  0
 11 12  1  0
 12 13  2  0
 13 14  1  0
 14 15  2  0
 15 16  1  0
 16 17  2  0
 17 18  1  0
 18 19  2  0
 19 20  1  0
 15 21  1  0
 21 22  2  0
  5 23  1  0
 23  2  1  0
 22 12  1  0
 20 16  1  0
  1 24  1  0
  1 25  1  0
  1 26  1  0
  3 27  1  0
  3 28  1  0
  4 29  1  0
  4 30  1  0
  6 31  1  0
  6 32  1  0
  6 33  1  0
  7 34  1  0
  7 35  1  0
  8 36  1  0
 11 37  1  0
 13 38  1  0
 14 39  1  0
 18 40  1  0
 19 41  1  0
 21 42  1  0
 22 43  1  0
 23 44  1  0
 23 45  1  0
M  END
>  <meeko>  (3) 
{"is_sidechain": [false], "free_energy": -7.061, "intermolecular_energy": -8.967, "internal_energy": -0.513}

$$$$
ligand_62_conformer_5_docked
     RDKit          3D

 45 47  0  0  0  0  0  0  0  0999 V2000
    8.5580   45.3080   50.4930 C   0  0  0  0  0  0  0  0  0  0  0  0
    7.9630   46.0310   51.6260 N   0  0  0  0  0  0  0  0  0  0  0  0
    7.8590   47.4760   51.3680 C   0  0  0  0  0  0  0  0  0  0  0  0
    8.3760   48.2130   52.6020 C   0  0  0  0  0  0  0  0  0  0  0  0
    8.5190   47.1390   53.6840 C   0  0  1  0  0  0  0  0  0  0  0  0
    9.7190   47.4210   54.6120 C   0  0  0  0  0  0  0  0  0  0  0  0
    7.2060   46.9780   54.5050 C   0  0  0  0  0  0  0  0  0  0  0  0
    6.5800   45.6690   54.2950 N   0  0  0  0  0  0  0  0  0  0  0  0
    5.3050   45.5020   53.6580 C   0  0  0  0  0  0  0  0  0  0  0  0
    4.6620   46.5100   53.2560 O   0  0  0  0  0  0  0  0  0  0  0  0
    4.7890   44.1800   53.4450 N   0  0  0  0  0  0  0  0  0  0  0  0
    3.4520   43.8980   52.9970 C   0  0  0  0  0  0  0  0  0  0  0  0
    2.3330   44.1770   53.8010 C   0  0  0  0  0  0  0  0  0  0  0  0
    1.0450   43.8720   53.3530 C   0  0  0  0  0  0  0  0  0  0  0  0
    0.8530   43.2700   52.0990 C   0  0  0  0  0  0  0  0  0  0  0  0
   -0.5060   42.9450   51.6190 C   0  0  0  0  0  0  0  0  0  0  0  0
   -1.4140   42.2520   52.3420 N   0  0  0  0  0  0  0  0  0  0  0  0
   -2.4840   42.1950   51.5270 C   0  0  0  0  0  0  0  0  0  0  0  0
   -2.1940   42.8480   50.3520 C   0  0  0  0  0  0  0  0  0  0  0  0
   -0.9680   43.2980   50.4390 O   0  0  0  0  0  0  0  0  0  0  0  0
    1.9720   42.9700   51.3060 C   0  0  0  0  0  0  0  0  0  0  0  0
    3.2600   43.2750   51.7560 C   0  0  0  0  0  0  0  0  0  0  0  0
    8.7590   45.8760   52.8490 C   0  0  0  0  0  0  0  0  0  0  0  0
    9.2144   44.5104   50.8710 H   0  0  0  0  0  0  0  0  0  0  0  0
    7.7589   44.8656   49.8800 H   0  0  0  0  0  0  0  0  0  0  0  0
    9.1459   46.0070   49.8800 H   0  0  0  0  0  0  0  0  0  0  0  0
    8.4669   47.7436   50.4912 H   0  0  0  0  0  0  0  0  0  0  0  0
    6.8142   47.7544   51.1659 H   0  0  0  0  0  0  0  0  0  0  0  0
    9.3494   48.6803   52.3920 H   0  0  0  0  0  0  0  0  0  0  0  0
    7.6959   49.0199   52.9126 H   0  0  0  0  0  0  0  0  0  0  0  0
    9.3970   47.3453   55.6611 H   0  0  0  0  0  0  0  0  0  0  0  0
   10.5132   46.6850   54.4183 H   0  0  0  0  0  0  0  0  0  0  0  0
   10.1023   48.4337   54.4183 H   0  0  0  0  0  0  0  0  0  0  0  0
    7.4400   47.0916   55.5738 H   0  0  0  0  0  0  0  0  0  0  0  0
    6.4987   47.7494   54.1665 H   0  0  0  0  0  0  0  0  0  0  0  0
    7.0770   44.8190   54.6420 H   0  0  0  0  0  0  0  0  0  0  0  0
    5.4560   43.3810   53.5320 H   0  0  0  0  0  0  0  0  0  0  0  0
    2.4723   44.6386   54.7897 H   0  0  0  0  0  0  0  0  0  0  0  0
    0.1764   44.1049   53.9864 H   0  0  0  0  0  0  0  0  0  0  0  0
   -3.4393   41.7037   51.7636 H   0  0  0  0  0  0  0  0  0  0  0  0
   -2.8707   42.9702   49.4934 H   0  0  0  0  0  0  0  0  0  0  0  0
    1.8345   42.4921   50.3248 H   0  0  0  0  0  0  0  0  0  0  0  0
    4.1298   43.0241   51.1312 H   0  0  0  0  0  0  0  0  0  0  0  0
    9.8261   45.7821   52.5991 H   0  0  0  0  0  0  0  0  0  0  0  0
    8.4683   44.9708   53.4022 H   0  0  0  0  0  0  0  0  0  0  0  0
  1  2  1  0
  2  3  1  0
  3  4  1  0
  4  5  1  0
  5  6  1  1
  5  7  1  0
  7  8  1  0
  8  9  1  0
  9 10  2  0
  9 11  1  0
 11 12  1  0
 12 13  2  0
 13 14  1  0
 14 15  2  0
 15 16  1  0
 16 17  2  0
 17 18  1  0
 18 19  2  0
 19 20  1  0
 15 21  1  0
 21 22  2  0
  5 23  1  0
 23  2  1  0
 22 12  1  0
 20 16  1  0
  1 24  1  0
  1 25  1  0
  1 26  1  0
  3 27  1  0
  3 28  1  0
  4 29  1  0
  4 30  1  0
  6 31  1  0
  6 32  1  0
  6 33  1  0
  7 34  1  0
  7 35  1  0
  8 36  1  0
 11 37  1  0
 13 38  1  0
 14 39  1  0
 18 40  1  0
 19 41  1  0
 21 42  1  0
 22 43  1  0
 23 44  1  0
 23 45  1  0
M  END
>  <meeko>  (4) 
{"is_sidechain": [false], "free_energy": -6.906, "intermolecular_energy": -8.577, "internal_energy": -0.712}

$$$$
ligand_62_conformer_5_docked
     RDKit          3D

 45 47  0  0  0  0  0  0  0  0999 V2000
    7.8000   45.3140   50.4650 C   0  0  0  0  0  0  0  0  0  0  0  0
    7.5110   46.1220   51.6590 N   0  0  0  0  0  0  0  0  0  0  0  0
    7.6350   47.5650   51.3950 C   0  0  0  0  0  0  0  0  0  0  0  0
    8.4460   48.1840   52.5300 C   0  0  0  0  0  0  0  0  0  0  0  0
    8.5450   47.0920   53.6000 C   0  0  1  0  0  0  0  0  0  0  0  0
    9.8950   47.1440   54.3440 C   0  0  0  0  0  0  0  0  0  0  0  0
    7.3540   47.1630   54.6000 C   0  0  0  0  0  0  0  0  0  0  0  0
    6.5260   45.9540   54.5610 N   0  0  0  0  0  0  0  0  0  0  0  0
    5.1060   45.9830   54.3520 C   0  0  0  0  0  0  0  0  0  0  0  0
    4.5110   47.0840   54.2010 O   0  0  0  0  0  0  0  0  0  0  0  0
    4.3790   44.7480   54.2740 N   0  0  0  0  0  0  0  0  0  0  0  0
    2.9430   44.6570   54.2610 C   0  0  0  0  0  0  0  0  0  0  0  0
    2.2380   44.3330   53.0900 C   0  0  0  0  0  0  0  0  0  0  0  0
    0.8420   44.2730   53.0970 C   0  0  0  0  0  0  0  0  0  0  0  0
    0.1250   44.5490   54.2740 C   0  0  0  0  0  0  0  0  0  0  0  0
   -1.3510   44.4880   54.2890 C   0  0  0  0  0  0  0  0  0  0  0  0
   -2.0720   43.5460   53.6410 N   0  0  0  0  0  0  0  0  0  0  0  0
   -3.3450   43.8740   53.9290 C   0  0  0  0  0  0  0  0  0  0  0  0
   -3.3540   44.9900   54.7330 C   0  0  0  0  0  0  0  0  0  0  0  0
   -2.1110   45.3440   54.9360 O   0  0  0  0  0  0  0  0  0  0  0  0
    0.8290   44.8950   55.4380 C   0  0  0  0  0  0  0  0  0  0  0  0
    2.2260   44.9560   55.4280 C   0  0  0  0  0  0  0  0  0  0  0  0
    8.4330   45.8150   52.7590 C   0  0  0  0  0  0  0  0  0  0  0  0
    8.1557   44.3196   50.7725 H   0  0  0  0  0  0  0  0  0  0  0  0
    6.8846   45.2065   49.8646 H   0  0  0  0  0  0  0  0  0  0  0  0
    8.5759   45.8115   49.8646 H   0  0  0  0  0  0  0  0  0  0  0  0
    8.1505   47.7262   50.4367 H   0  0  0  0  0  0  0  0  0  0  0  0
    6.6398   48.0301   51.3386 H   0  0  0  0  0  0  0  0  0  0  0  0
    9.4480   48.4688   52.1765 H   0  0  0  0  0  0  0  0  0  0  0  0
    7.9738   49.0978   52.9198 H   0  0  0  0  0  0  0  0  0  0  0  0
    9.7160   47.1371   55.4293 H   0  0  0  0  0  0  0  0  0  0  0  0
   10.5005   46.2685   54.0667 H   0  0  0  0  0  0  0  0  0  0  0  0
   10.4313   48.0635   54.0667 H   0  0  0  0  0  0  0  0  0  0  0  0
    7.7527   47.2867   55.6177 H   0  0  0  0  0  0  0  0  0  0  0  0
    6.7212   48.0154   54.3118 H   0  0  0  0  0  0  0  0  0  0  0  0
    6.9880   45.0300   54.7090 H   0  0  0  0  0  0  0  0  0  0  0  0
    4.9280   43.8720   54.1240 H   0  0  0  0  0  0  0  0  0  0  0  0
    2.7889   44.1250   52.1609 H   0  0  0  0  0  0  0  0  0  0  0  0
    0.3012   44.0083   52.1764 H   0  0  0  0  0  0  0  0  0  0  0  0
   -4.2370   43.3350   53.5772 H   0  0  0  0  0  0  0  0  0  0  0  0
   -4.2459   45.4942   55.1333 H   0  0  0  0  0  0  0  0  0  0  0  0
    0.2785   45.1195   56.3635 H   0  0  0  0  0  0  0  0  0  0  0  0
    2.7665   45.2408   56.3428 H   0  0  0  0  0  0  0  0  0  0  0  0
    9.4193   45.5338   52.3613 H   0  0  0  0  0  0  0  0  0  0  0  0
    8.0666   44.9713   53.3623 H   0  0  0  0  0  0  0  0  0  0  0  0
  1  2  1  0
  2  3  1  0
  3  4  1  0
  4  5  1  0
  5  6  1  1
  5  7  1  0
  7  8  1  0
  8  9  1  0
  9 10  2  0
  9 11  1  0
 11 12  1  0
 12 13  2  0
 13 14  1  0
 14 15  2  0
 15 16  1  0
 16 17  2  0
 17 18  1  0
 18 19  2  0
 19 20  1  0
 15 21  1  0
 21 22  2  0
  5 23  1  0
 23  2  1  0
 22 12  1  0
 20 16  1  0
  1 24  1  0
  1 25  1  0
  1 26  1  0
  3 27  1  0
  3 28  1  0
  4 29  1  0
  4 30  1  0
  6 31  1  0
  6 32  1  0
  6 33  1  0
  7 34  1  0
  7 35  1  0
  8 36  1  0
 11 37  1  0
 13 38  1  0
 14 39  1  0
 18 40  1  0
 19 41  1  0
 21 42  1  0
 22 43  1  0
 23 44  1  0
 23 45  1  0
M  END
>  <meeko>  (5) 
{"is_sidechain": [false], "free_energy": -6.785, "intermolecular_energy": -8.384, "internal_energy": -0.757}

$$$$
