MODEL 1
REMARK VINA RESULT:    -9.356      0.000      0.000
REMARK INTER + INTRA:         -10.964
REMARK INTER:                 -10.997
REMARK INTRA:                   0.032
REMARK UNBOUND:                 0.032
REMARK SMILES Cn1c(=O)n(C)c2cc(S(=O)(=O)Nc3ccc4c(c3)NCC4)c(Br)cc21
REMARK SMILES IDX 10 1 11 2 12 3 9 4 2 5 3 6 26 7 4 8 5 9 25 10 7 11 23 12
REMARK SMILES IDX 8 13 1 14 6 15 24 16 13 17 14 19 15 20 19 21 16 22 18 23
REMARK SMILES IDX 17 24 20 25 22 26 21 27
REMARK H PARENT 13 18 20 28
ROOT
ATOM      1  S   UNL     1       5.238  47.127  53.976  1.00  0.00     0.263 S 
ATOM      2  O   UNL     1       6.341  47.393  54.961  1.00  0.00    -0.201 OA
ATOM      3  O   UNL     1       4.732  48.434  53.432  1.00  0.00    -0.201 OA
ENDROOT
BRANCH   1   4
ATOM      4  C   UNL     1       5.841  46.152  52.631  1.00  0.00     0.104 A 
ATOM      5  N   UNL     1       7.041  43.664  49.577  1.00  0.00    -0.295 N 
ATOM      6  C   UNL     1       6.092  42.713  49.762  1.00  0.00     0.328 A 
ATOM      7  C   UNL     1       6.764  44.592  50.516  1.00  0.00     0.070 A 
ATOM      8  O   UNL     1       6.045  41.640  49.104  1.00  0.00    -0.248 OA
ATOM      9  N   UNL     1       5.212  43.026  50.746  1.00  0.00    -0.295 N 
ATOM     10  C   UNL     1       7.467  45.754  50.828  1.00  0.00     0.045 A 
ATOM     11  C   UNL     1       5.657  44.207  51.221  1.00  0.00     0.070 A 
ATOM     12  C   UNL     1       6.999  46.545  51.896  1.00  0.00     0.040 A 
ATOM     13  C   UNL     1       5.166  44.959  52.288  1.00  0.00     0.052 A 
ATOM     14  C   UNL     1       8.190  43.619  48.677  1.00  0.00     0.155 C 
ATOM     15  C   UNL     1       4.123  42.208  51.269  1.00  0.00     0.155 C 
ATOM     16  Br  UNL     1       7.988  48.137  52.321  1.00  0.00    -0.049 Br
ENDBRANCH   1   4
BRANCH   1  17
ATOM     17  N   UNL     1       3.956  46.272  54.776  1.00  0.00    -0.280 N 
ATOM     18  H   UNL     1       4.068  46.093  55.797  1.00  0.00     0.180 HD
BRANCH  17  19
ATOM     19  C   UNL     1       2.871  45.645  54.075  1.00  0.00     0.051 A 
ATOM     20  C   UNL     1       2.081  46.358  53.137  1.00  0.00     0.027 A 
ATOM     21  C   UNL     1       2.579  44.289  54.332  1.00  0.00     0.052 A 
ATOM     22  C   UNL     1       1.039  45.714  52.447  1.00  0.00     0.008 A 
ATOM     23  C   UNL     1       1.538  43.683  53.630  1.00  0.00     0.039 A 
ATOM     24  C   UNL     1       0.795  44.367  52.713  1.00  0.00    -0.023 A 
ATOM     25  N   UNL     1       1.131  42.336  53.732  1.00  0.00    -0.384 N 
ATOM     26  C   UNL     1      -0.220  43.468  52.094  1.00  0.00     0.059 C 
ATOM     27  C   UNL     1       0.036  42.108  52.792  1.00  0.00     0.117 C 
ATOM     28  H   UNL     1       1.548  41.621  54.369  1.00  0.00     0.160 HD
ENDBRANCH  17  19
ENDBRANCH   1  17
TORSDOF 3
ENDMDL
MODEL 2
REMARK VINA RESULT:    -9.292      3.319      7.431
REMARK INTER + INTRA:         -10.889
REMARK INTER:                 -10.635
REMARK INTRA:                  -0.255
REMARK UNBOUND:                 0.032
REMARK SMILES Cn1c(=O)n(C)c2cc(S(=O)(=O)Nc3ccc4c(c3)NCC4)c(Br)cc21
REMARK SMILES IDX 10 1 11 2 12 3 9 4 2 5 3 6 26 7 4 8 5 9 25 10 7 11 23 12
REMARK SMILES IDX 8 13 1 14 6 15 24 16 13 17 14 19 15 20 19 21 16 22 18 23
REMARK SMILES IDX 17 24 20 25 22 26 21 27
REMARK H PARENT 13 18 20 28
ROOT
ATOM      1  S   UNL     1       3.127  46.032  52.023  1.00  0.00     0.263 S 
ATOM      2  O   UNL     1       2.801  46.096  50.558  1.00  0.00    -0.201 OA
ATOM      3  O   UNL     1       3.441  47.414  52.523  1.00  0.00    -0.201 OA
ENDROOT
BRANCH   1   4
ATOM      4  C   UNL     1       1.747  45.402  52.931  1.00  0.00     0.104 A 
ATOM      5  N   UNL     1      -1.629  43.949  54.784  1.00  0.00    -0.295 N 
ATOM      6  C   UNL     1      -2.392  43.841  53.669  1.00  0.00     0.328 A 
ATOM      7  C   UNL     1      -0.445  44.406  54.331  1.00  0.00     0.070 A 
ATOM      8  O   UNL     1      -3.603  43.493  53.684  1.00  0.00    -0.248 OA
ATOM      9  N   UNL     1      -1.723  44.171  52.535  1.00  0.00    -0.295 N 
ATOM     10  C   UNL     1       0.688  44.767  55.058  1.00  0.00     0.045 A 
ATOM     11  C   UNL     1      -0.501  44.539  52.970  1.00  0.00     0.070 A 
ATOM     12  C   UNL     1       1.799  45.268  54.351  1.00  0.00     0.040 A 
ATOM     13  C   UNL     1       0.574  45.036  52.235  1.00  0.00     0.052 A 
ATOM     14  C   UNL     1      -2.044  43.764  56.173  1.00  0.00     0.155 C 
ATOM     15  C   UNL     1      -2.247  44.253  51.175  1.00  0.00     0.155 C 
ATOM     16  Br  UNL     1       3.347  45.773  55.371  1.00  0.00    -0.049 Br
ENDBRANCH   1   4
BRANCH   1  17
ATOM     17  N   UNL     1       4.493  44.985  52.256  1.00  0.00    -0.280 N 
ATOM     18  H   UNL     1       4.301  44.024  52.613  1.00  0.00     0.180 HD
BRANCH  17  19
ATOM     19  C   UNL     1       5.854  45.435  52.170  1.00  0.00     0.051 A 
ATOM     20  C   UNL     1       6.568  45.412  50.944  1.00  0.00     0.027 A 
ATOM     21  C   UNL     1       6.497  45.906  53.333  1.00  0.00     0.052 A 
ATOM     22  C   UNL     1       7.893  45.880  50.882  1.00  0.00     0.008 A 
ATOM     23  C   UNL     1       7.811  46.362  53.235  1.00  0.00     0.039 A 
ATOM     24  C   UNL     1       8.487  46.357  52.050  1.00  0.00    -0.023 A 
ATOM     25  N   UNL     1       8.593  46.896  54.280  1.00  0.00    -0.384 N 
ATOM     26  C   UNL     1       9.851  46.929  52.229  1.00  0.00     0.059 C 
ATOM     27  C   UNL     1       9.891  47.291  53.736  1.00  0.00     0.117 C 
ATOM     28  H   UNL     1       8.292  46.997  55.276  1.00  0.00     0.160 HD
ENDBRANCH  17  19
ENDBRANCH   1  17
TORSDOF 3
ENDMDL
MODEL 3
REMARK VINA RESULT:    -9.022      2.711      5.678
REMARK INTER + INTRA:         -10.572
REMARK INTER:                 -10.752
REMARK INTRA:                   0.180
REMARK UNBOUND:                 0.032
REMARK SMILES Cn1c(=O)n(C)c2cc(S(=O)(=O)Nc3ccc4c(c3)NCC4)c(Br)cc21
REMARK SMILES IDX 10 1 11 2 12 3 9 4 2 5 3 6 26 7 4 8 5 9 25 10 7 11 23 12
REMARK SMILES IDX 8 13 1 14 6 15 24 16 13 17 14 19 15 20 19 21 16 22 18 23
REMARK SMILES IDX 17 24 20 25 22 26 21 27
REMARK H PARENT 13 18 20 28
ROOT
ATOM      1  S   UNL     1       3.439  45.743  53.709  1.00  0.00     0.263 S 
ATOM      2  O   UNL     1       2.016  46.226  53.732  1.00  0.00    -0.201 OA
ATOM      3  O   UNL     1       3.835  45.300  55.089  1.00  0.00    -0.201 OA
ENDROOT
BRANCH   1   4
ATOM      4  C   UNL     1       3.601  44.370  52.607  1.00  0.00     0.104 A 
ATOM      5  N   UNL     1       4.227  41.311  49.923  1.00  0.00    -0.295 N 
ATOM      6  C   UNL     1       5.403  41.769  49.429  1.00  0.00     0.328 A 
ATOM      7  C   UNL     1       3.888  42.219  50.861  1.00  0.00     0.070 A 
ATOM      8  O   UNL     1       6.022  41.215  48.481  1.00  0.00    -0.248 OA
ATOM      9  N   UNL     1       5.833  42.899  50.044  1.00  0.00    -0.295 N 
ATOM     10  C   UNL     1       2.732  42.285  51.635  1.00  0.00     0.045 A 
ATOM     11  C   UNL     1       4.861  43.178  50.935  1.00  0.00     0.070 A 
ATOM     12  C   UNL     1       2.586  43.370  52.521  1.00  0.00     0.040 A 
ATOM     13  C   UNL     1       4.752  44.271  51.794  1.00  0.00     0.052 A 
ATOM     14  C   UNL     1       3.432  40.183  49.443  1.00  0.00     0.155 C 
ATOM     15  C   UNL     1       7.003  43.708  49.719  1.00  0.00     0.155 C 
ATOM     16  Br  UNL     1       0.978  43.451  53.571  1.00  0.00    -0.049 Br
ENDBRANCH   1   4
BRANCH   1  17
ATOM     17  N   UNL     1       4.469  47.034  53.173  1.00  0.00    -0.280 N 
ATOM     18  H   UNL     1       4.022  47.804  52.629  1.00  0.00     0.180 HD
BRANCH  17  19
ATOM     19  C   UNL     1       5.900  46.991  53.272  1.00  0.00     0.051 A 
ATOM     20  C   UNL     1       6.567  47.210  54.504  1.00  0.00     0.027 A 
ATOM     21  C   UNL     1       6.662  46.732  52.113  1.00  0.00     0.052 A 
ATOM     22  C   UNL     1       7.970  47.141  54.578  1.00  0.00     0.008 A 
ATOM     23  C   UNL     1       8.050  46.670  52.223  1.00  0.00     0.039 A 
ATOM     24  C   UNL     1       8.686  46.861  53.415  1.00  0.00    -0.023 A 
ATOM     25  N   UNL     1       8.962  46.390  51.184  1.00  0.00    -0.384 N 
ATOM     26  C   UNL     1      10.159  46.705  53.247  1.00  0.00     0.059 C 
ATOM     27  C   UNL     1      10.313  46.379  51.740  1.00  0.00     0.117 C 
ATOM     28  H   UNL     1       8.711  46.212  50.185  1.00  0.00     0.160 HD
ENDBRANCH  17  19
ENDBRANCH   1  17
TORSDOF 3
ENDMDL
MODEL 4
REMARK VINA RESULT:    -8.963      1.843      2.093
REMARK INTER + INTRA:         -10.503
REMARK INTER:                 -10.492
REMARK INTRA:                  -0.011
REMARK UNBOUND:                 0.032
REMARK SMILES Cn1c(=O)n(C)c2cc(S(=O)(=O)Nc3ccc4c(c3)NCC4)c(Br)cc21
REMARK SMILES IDX 10 1 11 2 12 3 9 4 2 5 3 6 26 7 4 8 5 9 25 10 7 11 23 12
REMARK SMILES IDX 8 13 1 14 6 15 24 16 13 17 14 19 15 20 19 21 16 22 18 23
REMARK SMILES IDX 17 24 20 25 22 26 21 27
REMARK H PARENT 13 18 20 28
ROOT
ATOM      1  S   UNL     1       5.027  46.641  54.167  1.00  0.00     0.263 S 
ATOM      2  O   UNL     1       6.154  47.305  54.906  1.00  0.00    -0.201 OA
ATOM      3  O   UNL     1       4.055  47.688  53.698  1.00  0.00    -0.201 OA
ENDROOT
BRANCH   1   4
ATOM      4  C   UNL     1       5.647  45.774  52.756  1.00  0.00     0.104 A 
ATOM      5  N   UNL     1       6.905  43.522  49.548  1.00  0.00    -0.295 N 
ATOM      6  C   UNL     1       6.029  42.500  49.715  1.00  0.00     0.328 A 
ATOM      7  C   UNL     1       6.599  44.383  50.539  1.00  0.00     0.070 A 
ATOM      8  O   UNL     1       6.032  41.459  49.006  1.00  0.00    -0.248 OA
ATOM      9  N   UNL     1       5.164  42.705  50.740  1.00  0.00    -0.295 N 
ATOM     10  C   UNL     1       7.232  45.574  50.887  1.00  0.00     0.045 A 
ATOM     11  C   UNL     1       5.545  43.890  51.259  1.00  0.00     0.070 A 
ATOM     12  C   UNL     1       6.750  46.280  52.006  1.00  0.00     0.040 A 
ATOM     13  C   UNL     1       5.042  44.555  52.376  1.00  0.00     0.052 A 
ATOM     14  C   UNL     1       8.022  43.599  48.610  1.00  0.00     0.155 C 
ATOM     15  C   UNL     1       4.152  41.790  51.256  1.00  0.00     0.155 C 
ATOM     16  Br  UNL     1       7.644  47.915  52.479  1.00  0.00    -0.049 Br
ENDBRANCH   1   4
BRANCH   1  17
ATOM     17  N   UNL     1       4.234  45.518  55.228  1.00  0.00    -0.280 N 
ATOM     18  H   UNL     1       4.843  44.882  55.788  1.00  0.00     0.180 HD
BRANCH  17  19
ATOM     19  C   UNL     1       2.816  45.297  55.223  1.00  0.00     0.051 A 
ATOM     20  C   UNL     1       2.184  44.544  54.200  1.00  0.00     0.027 A 
ATOM     21  C   UNL     1       2.031  45.848  56.258  1.00  0.00     0.052 A 
ATOM     22  C   UNL     1       0.797  44.323  54.231  1.00  0.00     0.008 A 
ATOM     23  C   UNL     1       0.658  45.609  56.256  1.00  0.00     0.039 A 
ATOM     24  C   UNL     1       0.058  44.866  55.281  1.00  0.00    -0.023 A 
ATOM     25  N   UNL     1      -0.271  46.048  57.223  1.00  0.00    -0.384 N 
ATOM     26  C   UNL     1      -1.404  44.744  55.548  1.00  0.00     0.059 C 
ATOM     27  C   UNL     1      -1.594  45.541  56.864  1.00  0.00     0.117 C 
ATOM     28  H   UNL     1      -0.048  46.634  58.059  1.00  0.00     0.160 HD
ENDBRANCH  17  19
ENDBRANCH   1  17
TORSDOF 3
ENDMDL
MODEL 5
REMARK VINA RESULT:    -8.890      2.999      3.536
REMARK INTER + INTRA:         -10.417
REMARK INTER:                 -10.187
REMARK INTRA:                  -0.230
REMARK UNBOUND:                 0.032
REMARK SMILES Cn1c(=O)n(C)c2cc(S(=O)(=O)Nc3ccc4c(c3)NCC4)c(Br)cc21
REMARK SMILES IDX 10 1 11 2 12 3 9 4 2 5 3 6 26 7 4 8 5 9 25 10 7 11 23 12
REMARK SMILES IDX 8 13 1 14 6 15 24 16 13 17 14 19 15 20 19 21 16 22 18 23
REMARK SMILES IDX 17 24 20 25 22 26 21 27
REMARK H PARENT 13 18 20 28
ROOT
ATOM      1  S   UNL     1       2.512  45.083  52.310  1.00  0.00     0.263 S 
ATOM      2  O   UNL     1       1.815  46.412  52.399  1.00  0.00    -0.201 OA
ATOM      3  O   UNL     1       1.889  44.268  51.212  1.00  0.00    -0.201 OA
ENDROOT
BRANCH   1   4
ATOM      4  C   UNL     1       4.225  45.316  51.937  1.00  0.00     0.104 A 
ATOM      5  N   UNL     1       8.196  45.607  50.893  1.00  0.00    -0.295 N 
ATOM      6  C   UNL     1       8.199  44.599  49.987  1.00  0.00     0.328 A 
ATOM      7  C   UNL     1       6.921  45.657  51.326  1.00  0.00     0.070 A 
ATOM      8  O   UNL     1       9.236  44.201  49.391  1.00  0.00    -0.248 OA
ATOM      9  N   UNL     1       6.974  44.046  49.805  1.00  0.00    -0.295 N 
ATOM     10  C   UNL     1       6.367  46.463  52.318  1.00  0.00     0.045 A 
ATOM     11  C   UNL     1       6.181  44.714  50.666  1.00  0.00     0.070 A 
ATOM     12  C   UNL     1       5.002  46.294  52.627  1.00  0.00     0.040 A 
ATOM     13  C   UNL     1       4.830  44.512  50.946  1.00  0.00     0.052 A 
ATOM     14  C   UNL     1       9.342  46.359  51.399  1.00  0.00     0.155 C 
ATOM     15  C   UNL     1       6.622  42.896  48.978  1.00  0.00     0.155 C 
ATOM     16  Br  UNL     1       4.259  47.405  54.008  1.00  0.00    -0.049 Br
ENDBRANCH   1   4
BRANCH   1  17
ATOM     17  N   UNL     1       2.362  44.259  53.830  1.00  0.00    -0.280 N 
ATOM     18  H   UNL     1       3.027  43.476  54.015  1.00  0.00     0.180 HD
BRANCH  17  19
ATOM     19  C   UNL     1       1.268  44.470  54.735  1.00  0.00     0.051 A 
ATOM     20  C   UNL     1       1.463  45.047  56.016  1.00  0.00     0.027 A 
ATOM     21  C   UNL     1      -0.032  44.087  54.343  1.00  0.00     0.052 A 
ATOM     22  C   UNL     1       0.371  45.264  56.874  1.00  0.00     0.008 A 
ATOM     23  C   UNL     1      -1.091  44.316  55.220  1.00  0.00     0.039 A 
ATOM     24  C   UNL     1      -0.901  44.891  56.443  1.00  0.00    -0.023 A 
ATOM     25  N   UNL     1      -2.452  44.031  54.983  1.00  0.00    -0.384 N 
ATOM     26  C   UNL     1      -2.204  45.048  57.150  1.00  0.00     0.059 C 
ATOM     27  C   UNL     1      -3.229  44.469  56.141  1.00  0.00     0.117 C 
ATOM     28  H   UNL     1      -2.841  43.587  54.121  1.00  0.00     0.160 HD
ENDBRANCH  17  19
ENDBRANCH   1  17
TORSDOF 3
ENDMDL
