ligand_55_conformer_3_docked
     RDKit          3D

 39 41  0  0  0  0  0  0  0  0999 V2000
    9.1380   48.5120   55.3440 O   0  0  0  0  0  0  0  0  0  0  0  0
    8.6800   47.7440   54.4570 C   0  0  0  0  0  0  0  0  0  0  0  0
    9.4460   47.5520   53.1810 C   0  0  0  0  0  0  0  0  0  0  0  0
    9.0850   46.2260   52.5100 C   0  0  0  0  0  0  0  0  0  0  0  0
    7.5610   46.0680   52.3940 C   0  0  1  0  0  0  0  0  0  0  0  0
    7.2460   44.8380   51.6590 N   0  0  0  0  0  0  0  0  0  0  0  0
    6.1420   44.7470   50.7430 C   0  0  0  0  0  0  0  0  0  0  0  0
    5.5950   45.7990   50.3150 O   0  0  0  0  0  0  0  0  0  0  0  0
    5.6500   43.4330   50.2660 C   0  0  0  0  0  0  0  0  0  0  0  0
    4.5700   42.8150   50.9180 C   0  0  0  0  0  0  0  0  0  0  0  0
    4.0980   41.5770   50.4810 C   0  0  0  0  0  0  0  0  0  0  0  0
    4.7180   40.9540   49.3980 C   0  0  0  0  0  0  0  0  0  0  0  0
    5.7750   41.5480   48.7860 N   0  0  0  0  0  0  0  0  0  0  0  0
    6.2540   42.7570   49.1870 C   0  0  0  0  0  0  0  0  0  0  0  0
    7.3450   43.2640   48.5620 F   0  0  0  0  0  0  0  0  0  0  0  0
    6.9260   46.0210   53.8050 C   0  0  2  0  0  0  0  0  0  0  0  0
    5.4140   46.0490   53.7160 C   0  0  0  0  0  0  0  0  0  0  0  0
    4.6610   44.9250   54.0990 C   0  0  0  0  0  0  0  0  0  0  0  0
    3.2680   44.9330   53.9730 C   0  0  0  0  0  0  0  0  0  0  0  0
    2.6160   46.0580   53.4640 C   0  0  0  0  0  0  0  0  0  0  0  0
    3.3560   47.1800   53.0800 C   0  0  0  0  0  0  0  0  0  0  0  0
    4.7480   47.1770   53.2030 C   0  0  0  0  0  0  0  0  0  0  0  0
    7.3980   47.1300   54.6430 N   0  0  0  0  0  0  0  0  0  0  0  0
    9.2095   48.3775   52.4935 H   0  0  0  0  0  0  0  0  0  0  0  0
   10.5198   47.5393   53.4194 H   0  0  0  0  0  0  0  0  0  0  0  0
    9.5276   46.1994   51.5033 H   0  0  0  0  0  0  0  0  0  0  0  0
    9.4783   45.4025   53.1241 H   0  0  0  0  0  0  0  0  0  0  0  0
    7.1485   46.9290   51.8477 H   0  0  0  0  0  0  0  0  0  0  0  0
    7.8040   43.9810   51.8680 H   0  0  0  0  0  0  0  0  0  0  0  0
    4.0940   43.3097   51.7775 H   0  0  0  0  0  0  0  0  0  0  0  0
    3.2460   41.0974   50.9851 H   0  0  0  0  0  0  0  0  0  0  0  0
    4.3507   39.9811   49.0394 H   0  0  0  0  0  0  0  0  0  0  0  0
    7.2388   45.0764   54.2740 H   0  0  0  0  0  0  0  0  0  0  0  0
    5.1696   44.0356   54.4994 H   0  0  0  0  0  0  0  0  0  0  0  0
    2.6847   44.0509   54.2756 H   0  0  0  0  0  0  0  0  0  0  0  0
    1.5204   46.0613   53.3652 H   0  0  0  0  0  0  0  0  0  0  0  0
    2.8419   48.0666   52.6804 H   0  0  0  0  0  0  0  0  0  0  0  0
    5.3261   48.0614   52.8970 H   0  0  0  0  0  0  0  0  0  0  0  0
    6.8890   47.3260   55.5360 H   0  0  0  0  0  0  0  0  0  0  0  0
  1  2  2  0
  2  3  1  0
  3  4  1  0
  4  5  1  0
  5  6  1  0
  6  7  1  0
  7  8  2  0
  7  9  1  0
  9 10  2  0
 10 11  1  0
 11 12  2  0
 12 13  1  0
 13 14  2  0
 14 15  1  0
  5 16  1  0
 16 17  1  0
 17 18  2  0
 18 19  1  0
 19 20  2  0
 20 21  1  0
 21 22  2  0
 16 23  1  0
 23  2  1  0
 14  9  1  0
 22 17  1  0
  3 24  1  0
  3 25  1  0
  4 26  1  0
  4 27  1  0
  5 28  1  6
  6 29  1  0
 10 30  1  0
 11 31  1  0
 12 32  1  0
 16 33  1  1
 18 34  1  0
 19 35  1  0
 20 36  1  0
 21 37  1  0
 22 38  1  0
 23 39  1  0
M  END
>  <meeko>  (1) 
{"is_sidechain": [false], "free_energy": -8.985, "intermolecular_energy": -10.561, "internal_energy": -1.038}

$$$$
ligand_55_conformer_3_docked
     RDKit          3D

 39 41  0  0  0  0  0  0  0  0999 V2000
    0.2730   42.4280   53.0360 O   0  0  0  0  0  0  0  0  0  0  0  0
    1.3770   43.0320   52.9920 C   0  0  0  0  0  0  0  0  0  0  0  0
    1.4900   44.4070   53.5810 C   0  0  0  0  0  0  0  0  0  0  0  0
    2.9370   44.7350   53.9540 C   0  0  0  0  0  0  0  0  0  0  0  0
    3.8850   44.4400   52.7810 C   0  0  1  0  0  0  0  0  0  0  0  0
    5.2480   44.8570   53.1310 N   0  0  0  0  0  0  0  0  0  0  0  0
    5.7240   46.1960   52.9190 C   0  0  0  0  0  0  0  0  0  0  0  0
    4.9010   47.1290   52.7090 O   0  0  0  0  0  0  0  0  0  0  0  0
    7.1710   46.5120   52.9730 C   0  0  0  0  0  0  0  0  0  0  0  0
    7.7550   46.8920   54.1930 C   0  0  0  0  0  0  0  0  0  0  0  0
    9.1150   47.1940   54.2590 C   0  0  0  0  0  0  0  0  0  0  0  0
    9.8860   47.1260   53.0990 C   0  0  0  0  0  0  0  0  0  0  0  0
    9.3100   46.7780   51.9190 N   0  0  0  0  0  0  0  0  0  0  0  0
    7.9870   46.4730   51.8260 C   0  0  0  0  0  0  0  0  0  0  0  0
    7.4720   46.1850   50.6050 F   0  0  0  0  0  0  0  0  0  0  0  0
    3.8600   42.9290   52.4490 C   0  0  2  0  0  0  0  0  0  0  0  0
    4.6440   42.6440   51.1850 C   0  0  0  0  0  0  0  0  0  0  0  0
    4.3860   41.4800   50.4380 C   0  0  0  0  0  0  0  0  0  0  0  0
    5.1400   41.1920   49.2960 C   0  0  0  0  0  0  0  0  0  0  0  0
    6.1570   42.0600   48.8900 C   0  0  0  0  0  0  0  0  0  0  0  0
    6.4220   43.2180   49.6260 C   0  0  0  0  0  0  0  0  0  0  0  0
    5.6720   43.5100   50.7680 C   0  0  0  0  0  0  0  0  0  0  0  0
    2.4850   42.4330   52.3070 N   0  0  0  0  0  0  0  0  0  0  0  0
    1.1343   45.1426   52.8445 H   0  0  0  0  0  0  0  0  0  0  0  0
    0.8790   44.4444   54.4949 H   0  0  0  0  0  0  0  0  0  0  0  0
    3.0088   45.8009   54.2160 H   0  0  0  0  0  0  0  0  0  0  0  0
    3.2304   44.1089   54.8095 H   0  0  0  0  0  0  0  0  0  0  0  0
    3.5527   45.0026   51.8961 H   0  0  0  0  0  0  0  0  0  0  0  0
    5.9130   44.1310   53.4790 H   0  0  0  0  0  0  0  0  0  0  0  0
    7.1365   46.9516   55.1007 H   0  0  0  0  0  0  0  0  0  0  0  0
    9.5745   47.4827   55.2158 H   0  0  0  0  0  0  0  0  0  0  0  0
   10.9613   47.3543   53.1395 H   0  0  0  0  0  0  0  0  0  0  0  0
    4.3322   42.4002   53.2901 H   0  0  0  0  0  0  0  0  0  0  0  0
    3.5871   40.7930   50.7539 H   0  0  0  0  0  0  0  0  0  0  0  0
    4.9321   40.2806   48.7163 H   0  0  0  0  0  0  0  0  0  0  0  0
    6.7488   41.8319   47.9913 H   0  0  0  0  0  0  0  0  0  0  0  0
    7.2226   43.9009   49.3056 H   0  0  0  0  0  0  0  0  0  0  0  0
    5.8862   44.4220   51.3445 H   0  0  0  0  0  0  0  0  0  0  0  0
    2.3430   41.4880   51.8820 H   0  0  0  0  0  0  0  0  0  0  0  0
  1  2  2  0
  2  3  1  0
  3  4  1  0
  4  5  1  0
  5  6  1  0
  6  7  1  0
  7  8  2  0
  7  9  1  0
  9 10  2  0
 10 11  1  0
 11 12  2  0
 12 13  1  0
 13 14  2  0
 14 15  1  0
  5 16  1  0
 16 17  1  0
 17 18  2  0
 18 19  1  0
 19 20  2  0
 20 21  1  0
 21 22  2  0
 16 23  1  0
 23  2  1  0
 14  9  1  0
 22 17  1  0
  3 24  1  0
  3 25  1  0
  4 26  1  0
  4 27  1  0
  5 28  1  6
  6 29  1  0
 10 30  1  0
 11 31  1  0
 12 32  1  0
 16 33  1  1
 18 34  1  0
 19 35  1  0
 20 36  1  0
 21 37  1  0
 22 38  1  0
 23 39  1  0
M  END
>  <meeko>  (2) 
{"is_sidechain": [false], "free_energy": -8.873, "intermolecular_energy": -11.352, "internal_energy": -0.117}

$$$$
ligand_55_conformer_3_docked
     RDKit          3D

 39 41  0  0  0  0  0  0  0  0999 V2000
   -1.9970   44.9450   52.8440 O   0  0  0  0  0  0  0  0  0  0  0  0
   -0.8150   44.7110   52.4770 C   0  0  0  0  0  0  0  0  0  0  0  0
   -0.4900   43.3980   51.8290 C   0  0  0  0  0  0  0  0  0  0  0  0
    0.7670   43.5000   50.9640 C   0  0  0  0  0  0  0  0  0  0  0  0
    1.9180   44.1510   51.7470 C   0  0  1  0  0  0  0  0  0  0  0  0
    3.1370   44.1450   50.9290 N   0  0  0  0  0  0  0  0  0  0  0  0
    4.3540   43.5140   51.3620 C   0  0  0  0  0  0  0  0  0  0  0  0
    4.3270   42.6890   52.3160 O   0  0  0  0  0  0  0  0  0  0  0  0
    5.6420   43.7910   50.6840 C   0  0  0  0  0  0  0  0  0  0  0  0
    6.1680   42.8540   49.7790 C   0  0  0  0  0  0  0  0  0  0  0  0
    7.3820   43.1010   49.1370 C   0  0  0  0  0  0  0  0  0  0  0  0
    8.0720   44.2820   49.4100 C   0  0  0  0  0  0  0  0  0  0  0  0
    7.5660   45.1730   50.3020 N   0  0  0  0  0  0  0  0  0  0  0  0
    6.3840   44.9610   50.9410 C   0  0  0  0  0  0  0  0  0  0  0  0
    5.9680   45.8710   51.8560 F   0  0  0  0  0  0  0  0  0  0  0  0
    1.5420   45.6030   52.1300 C   0  0  2  0  0  0  0  0  0  0  0  0
    2.5810   46.2010   53.0550 C   0  0  0  0  0  0  0  0  0  0  0  0
    3.2390   47.3930   52.7050 C   0  0  0  0  0  0  0  0  0  0  0  0
    4.2320   47.9220   53.5350 C   0  0  0  0  0  0  0  0  0  0  0  0
    4.5780   47.2670   54.7200 C   0  0  0  0  0  0  0  0  0  0  0  0
    3.9310   46.0810   55.0760 C   0  0  0  0  0  0  0  0  0  0  0  0
    2.9380   45.5480   54.2490 C   0  0  0  0  0  0  0  0  0  0  0  0
    0.2170   45.6660   52.7600 N   0  0  0  0  0  0  0  0  0  0  0  0
   -0.3256   42.6432   52.6121 H   0  0  0  0  0  0  0  0  0  0  0  0
   -1.3332   43.1121   51.1830 H   0  0  0  0  0  0  0  0  0  0  0  0
    1.0708   42.4908   50.6491 H   0  0  0  0  0  0  0  0  0  0  0  0
    0.5410   44.1236   50.0865 H   0  0  0  0  0  0  0  0  0  0  0  0
    2.0995   43.5774   52.6679 H   0  0  0  0  0  0  0  0  0  0  0  0
    3.1340   44.6830   50.0340 H   0  0  0  0  0  0  0  0  0  0  0  0
    5.6206   41.9218   49.5757 H   0  0  0  0  0  0  0  0  0  0  0  0
    7.7909   42.3714   48.4225 H   0  0  0  0  0  0  0  0  0  0  0  0
    9.0255   44.4919   48.9033 H   0  0  0  0  0  0  0  0  0  0  0  0
    1.5106   46.1898   51.2001 H   0  0  0  0  0  0  0  0  0  0  0  0
    2.9711   47.9123   51.7730 H   0  0  0  0  0  0  0  0  0  0  0  0
    4.7419   48.8555   53.2547 H   0  0  0  0  0  0  0  0  0  0  0  0
    5.3592   47.6849   55.3720 H   0  0  0  0  0  0  0  0  0  0  0  0
    4.2035   45.5657   56.0088 H   0  0  0  0  0  0  0  0  0  0  0  0
    2.4330   44.6130   54.5333 H   0  0  0  0  0  0  0  0  0  0  0  0
   -0.0570   46.5500   53.2470 H   0  0  0  0  0  0  0  0  0  0  0  0
  1  2  2  0
  2  3  1  0
  3  4  1  0
  4  5  1  0
  5  6  1  0
  6  7  1  0
  7  8  2  0
  7  9  1  0
  9 10  2  0
 10 11  1  0
 11 12  2  0
 12 13  1  0
 13 14  2  0
 14 15  1  0
  5 16  1  0
 16 17  1  0
 17 18  2  0
 18 19  1  0
 19 20  2  0
 20 21  1  0
 21 22  2  0
 16 23  1  0
 23  2  1  0
 14  9  1  0
 22 17  1  0
  3 24  1  0
  3 25  1  0
  4 26  1  0
  4 27  1  0
  5 28  1  1
  6 29  1  0
 10 30  1  0
 11 31  1  0
 12 32  1  0
 16 33  1  6
 18 34  1  0
 19 35  1  0
 20 36  1  0
 21 37  1  0
 22 38  1  0
 23 39  1  0
M  END
>  <meeko>  (3) 
{"is_sidechain": [false], "free_energy": -8.345, "intermolecular_energy": -9.607, "internal_energy": -1.24}

$$$$
ligand_55_conformer_3_docked
     RDKit          3D

 39 41  0  0  0  0  0  0  0  0999 V2000
    9.8730   47.5570   53.4080 O   0  0  0  0  0  0  0  0  0  0  0  0
    8.7150   47.0810   53.2670 C   0  0  0  0  0  0  0  0  0  0  0  0
    7.7740   47.0710   54.4350 C   0  0  0  0  0  0  0  0  0  0  0  0
    6.3160   47.0140   53.9750 C   0  0  0  0  0  0  0  0  0  0  0  0
    6.1090   45.8860   52.9520 C   0  0  1  0  0  0  0  0  0  0  0  0
    4.6870   45.7910   52.6040 N   0  0  0  0  0  0  0  0  0  0  0  0
    3.7590   44.9940   53.3600 C   0  0  0  0  0  0  0  0  0  0  0  0
    4.0710   44.5970   54.5160 O   0  0  0  0  0  0  0  0  0  0  0  0
    2.4230   44.6550   52.8180 C   0  0  0  0  0  0  0  0  0  0  0  0
    1.4090   45.6280   52.8050 C   0  0  0  0  0  0  0  0  0  0  0  0
    0.1460   45.3210   52.3000 C   0  0  0  0  0  0  0  0  0  0  0  0
   -0.1040   44.0360   51.8190 C   0  0  0  0  0  0  0  0  0  0  0  0
    0.8750   43.0960   51.8540 N   0  0  0  0  0  0  0  0  0  0  0  0
    2.1180   43.3670   52.3360 C   0  0  0  0  0  0  0  0  0  0  0  0
    3.0280   42.3630   52.3870 F   0  0  0  0  0  0  0  0  0  0  0  0
    6.9490   46.1640   51.6820 C   0  0  2  0  0  0  0  0  0  0  0  0
    6.9030   44.9800   50.7380 C   0  0  0  0  0  0  0  0  0  0  0  0
    5.8480   44.0540   50.8140 C   0  0  0  0  0  0  0  0  0  0  0  0
    5.8280   42.9350   49.9750 C   0  0  0  0  0  0  0  0  0  0  0  0
    6.8590   42.7310   49.0550 C   0  0  0  0  0  0  0  0  0  0  0  0
    7.9130   43.6450   48.9720 C   0  0  0  0  0  0  0  0  0  0  0  0
    7.9380   44.7640   49.8090 C   0  0  0  0  0  0  0  0  0  0  0  0
    8.3430   46.4810   52.0190 N   0  0  0  0  0  0  0  0  0  0  0  0
    7.9873   46.1907   55.0592 H   0  0  0  0  0  0  0  0  0  0  0  0
    7.9212   47.9991   55.0068 H   0  0  0  0  0  0  0  0  0  0  0  0
    5.6699   46.8331   54.8467 H   0  0  0  0  0  0  0  0  0  0  0  0
    6.0591   47.9721   53.4995 H   0  0  0  0  0  0  0  0  0  0  0  0
    6.4368   44.9327   53.3923 H   0  0  0  0  0  0  0  0  0  0  0  0
    4.3580   46.2620   51.7330 H   0  0  0  0  0  0  0  0  0  0  0  0
    1.6126   46.6362   53.1949 H   0  0  0  0  0  0  0  0  0  0  0  0
   -0.6454   46.0848   52.2812 H   0  0  0  0  0  0  0  0  0  0  0  0
   -1.0942   43.7841   51.4114 H   0  0  0  0  0  0  0  0  0  0  0  0
    6.5078   47.0384   51.1812 H   0  0  0  0  0  0  0  0  0  0  0  0
    5.0339   44.2103   51.5371 H   0  0  0  0  0  0  0  0  0  0  0  0
    4.9992   42.2147   50.0398 H   0  0  0  0  0  0  0  0  0  0  0  0
    6.8414   41.8507   48.3956 H   0  0  0  0  0  0  0  0  0  0  0  0
    8.7242   43.4834   48.2468 H   0  0  0  0  0  0  0  0  0  0  0  0
    8.7708   45.4795   49.7414 H   0  0  0  0  0  0  0  0  0  0  0  0
    9.0490   46.4810   51.2470 H   0  0  0  0  0  0  0  0  0  0  0  0
  1  2  2  0
  2  3  1  0
  3  4  1  0
  4  5  1  0
  5  6  1  0
  6  7  1  0
  7  8  2  0
  7  9  1  0
  9 10  2  0
 10 11  1  0
 11 12  2  0
 12 13  1  0
 13 14  2  0
 14 15  1  0
  5 16  1  0
 16 17  1  0
 17 18  2  0
 18 19  1  0
 19 20  2  0
 20 21  1  0
 21 22  2  0
 16 23  1  0
 23  2  1  0
 14  9  1  0
 22 17  1  0
  3 24  1  0
  3 25  1  0
  4 26  1  0
  4 27  1  0
  5 28  1  1
  6 29  1  0
 10 30  1  0
 11 31  1  0
 12 32  1  0
 16 33  1  6
 18 34  1  0
 19 35  1  0
 20 36  1  0
 21 37  1  0
 22 38  1  0
 23 39  1  0
M  END
>  <meeko>  (4) 
{"is_sidechain": [false], "free_energy": -8.03, "intermolecular_energy": -10.374, "internal_energy": -0.103}

$$$$
ligand_55_conformer_3_docked
     RDKit          3D

 39 41  0  0  0  0  0  0  0  0999 V2000
    9.1030   47.4890   51.5060 O   0  0  0  0  0  0  0  0  0  0  0  0
    8.0130   46.9690   51.8650 C   0  0  0  0  0  0  0  0  0  0  0  0
    7.4470   47.2990   53.2140 C   0  0  0  0  0  0  0  0  0  0  0  0
    5.9350   47.0740   53.2540 C   0  0  0  0  0  0  0  0  0  0  0  0
    5.5740   45.6830   52.7100 C   0  0  1  0  0  0  0  0  0  0  0  0
    4.1320   45.4560   52.8520 N   0  0  0  0  0  0  0  0  0  0  0  0
    3.5470   44.9400   54.0600 C   0  0  0  0  0  0  0  0  0  0  0  0
    4.2100   44.9520   55.1320 O   0  0  0  0  0  0  0  0  0  0  0  0
    2.1590   44.4210   54.0760 C   0  0  0  0  0  0  0  0  0  0  0  0
    1.7830   43.4110   53.1750 C   0  0  0  0  0  0  0  0  0  0  0  0
    0.4800   42.9140   53.1770 C   0  0  0  0  0  0  0  0  0  0  0  0
   -0.4490   43.4380   54.0760 C   0  0  0  0  0  0  0  0  0  0  0  0
   -0.0830   44.4290   54.9300 N   0  0  0  0  0  0  0  0  0  0  0  0
    1.1810   44.9300   54.9540 C   0  0  0  0  0  0  0  0  0  0  0  0
    1.4590   45.9530   55.7980 F   0  0  0  0  0  0  0  0  0  0  0  0
    5.9850   45.5740   51.2220 C   0  0  2  0  0  0  0  0  0  0  0  0
    5.8070   44.1580   50.7170 C   0  0  0  0  0  0  0  0  0  0  0  0
    4.7410   43.3680   51.1830 C   0  0  0  0  0  0  0  0  0  0  0  0
    4.6010   42.0450   50.7530 C   0  0  0  0  0  0  0  0  0  0  0  0
    5.5230   41.4980   49.8570 C   0  0  0  0  0  0  0  0  0  0  0  0
    6.5860   42.2730   49.3890 C   0  0  0  0  0  0  0  0  0  0  0  0
    6.7310   43.5960   49.8160 C   0  0  0  0  0  0  0  0  0  0  0  0
    7.3730   46.0080   51.0150 N   0  0  0  0  0  0  0  0  0  0  0  0
    7.9245   46.6576   53.9693 H   0  0  0  0  0  0  0  0  0  0  0  0
    7.6450   48.3607   53.4226 H   0  0  0  0  0  0  0  0  0  0  0  0
    5.5859   47.1559   54.2939 H   0  0  0  0  0  0  0  0  0  0  0  0
    5.4493   47.8347   52.6251 H   0  0  0  0  0  0  0  0  0  0  0  0
    6.1170   44.9180   53.2844 H   0  0  0  0  0  0  0  0  0  0  0  0
    3.5230   45.6080   52.0180 H   0  0  0  0  0  0  0  0  0  0  0  0
    2.5203   43.0099   52.4640 H   0  0  0  0  0  0  0  0  0  0  0  0
    0.1879   42.1172   52.4771 H   0  0  0  0  0  0  0  0  0  0  0  0
   -1.4777   43.0488   54.0934 H   0  0  0  0  0  0  0  0  0  0  0  0
    5.3252   46.2429   50.6500 H   0  0  0  0  0  0  0  0  0  0  0  0
    4.0133   43.7933   51.8898 H   0  0  0  0  0  0  0  0  0  0  0  0
    3.7636   41.4338   51.1207 H   0  0  0  0  0  0  0  0  0  0  0  0
    5.4115   40.4568   49.5203 H   0  0  0  0  0  0  0  0  0  0  0  0
    7.3107   41.8415   48.6829 H   0  0  0  0  0  0  0  0  0  0  0  0
    7.5717   44.2012   49.4460 H   0  0  0  0  0  0  0  0  0  0  0  0
    7.8280   45.7860   50.1000 H   0  0  0  0  0  0  0  0  0  0  0  0
  1  2  2  0
  2  3  1  0
  3  4  1  0
  4  5  1  0
  5  6  1  0
  6  7  1  0
  7  8  2  0
  7  9  1  0
  9 10  2  0
 10 11  1  0
 11 12  2  0
 12 13  1  0
 13 14  2  0
 14 15  1  0
  5 16  1  0
 16 17  1  0
 17 18  2  0
 18 19  1  0
 19 20  2  0
 20 21  1  0
 21 22  2  0
 16 23  1  0
 23  2  1  0
 14  9  1  0
 22 17  1  0
  3 24  1  0
  3 25  1  0
  4 26  1  0
  4 27  1  0
  5 28  1  1
  6 29  1  0
 10 30  1  0
 11 31  1  0
 12 32  1  0
 16 33  1  6
 18 34  1  0
 19 35  1  0
 20 36  1  0
 21 37  1  0
 22 38  1  0
 23 39  1  0
M  END
>  <meeko>  (5) 
{"is_sidechain": [false], "free_energy": -7.938, "intermolecular_energy": -10.336, "internal_energy": -0.032}

$$$$
