ligand_5_conformer_5_docked
     RDKit          3D

 36 38  0  0  0  0  0  0  0  0999 V2000
    5.7170   44.5180   53.5730 O   0  0  0  0  0  0  0  0  0  0  0  0
    5.1800   45.4190   52.8760 C   0  0  0  0  0  0  0  0  0  0  0  0
    5.9770   46.5080   52.3760 N   0  0  0  0  0  0  0  0  0  0  0  0
    7.4160   46.5100   52.3740 C   0  0  0  0  0  0  0  0  0  0  0  0
    8.1020   46.0810   51.2280 C   0  0  0  0  0  0  0  0  0  0  0  0
    9.4970   46.0470   51.2100 C   0  0  0  0  0  0  0  0  0  0  0  0
   10.2230   46.4300   52.3390 C   0  0  0  0  0  0  0  0  0  0  0  0
    9.5550   46.8520   53.5000 C   0  0  0  0  0  0  0  0  0  0  0  0
   10.3380   47.2170   54.7350 C   0  0  0  0  0  0  0  0  0  0  0  0
    9.6010   48.2640   55.5700 C   0  0  0  0  0  0  0  0  0  0  0  0
   10.2300   48.4190   56.8120 O   0  0  0  0  0  0  0  0  0  0  0  0
    8.1510   46.8740   53.5170 C   0  0  0  0  0  0  0  0  0  0  0  0
    3.7230   45.3800   52.6310 C   0  0  0  0  0  0  0  0  0  0  0  0
    3.0900   45.5410   51.3950 C   0  0  0  0  0  0  0  0  0  0  0  0
    1.7460   45.4900   51.5350 N   0  0  0  0  0  0  0  0  0  0  0  0
    1.5250   45.2960   52.8420 C   0  0  0  0  0  0  0  0  0  0  0  0
    0.3100   45.1710   53.4290 N   0  0  0  0  0  0  0  0  0  0  0  0
    0.2570   44.9570   54.7760 C   0  0  0  0  0  0  0  0  0  0  0  0
    1.4090   44.8580   55.5080 N   0  0  0  0  0  0  0  0  0  0  0  0
    2.6380   44.9780   54.9260 C   0  0  0  0  0  0  0  0  0  0  0  0
    3.7890   44.8430   55.6930 O   0  0  0  0  0  0  0  0  0  0  0  0
    2.6910   45.2200   53.5510 C   0  0  0  0  0  0  0  0  0  0  0  0
    5.4960   47.3750   52.0520 H   0  0  0  0  0  0  0  0  0  0  0  0
    7.5365   45.7693   50.3375 H   0  0  0  0  0  0  0  0  0  0  0  0
   10.0259   45.7175   50.3036 H   0  0  0  0  0  0  0  0  0  0  0  0
   11.3224   46.4012   52.3193 H   0  0  0  0  0  0  0  0  0  0  0  0
   10.4881   46.3135   55.3442 H   0  0  0  0  0  0  0  0  0  0  0  0
   11.3040   47.6397   54.4216 H   0  0  0  0  0  0  0  0  0  0  0  0
    9.6079   49.2258   55.0362 H   0  0  0  0  0  0  0  0  0  0  0  0
    8.5645   47.9323   55.7302 H   0  0  0  0  0  0  0  0  0  0  0  0
    9.6380   47.9790   57.4760 H   0  0  0  0  0  0  0  0  0  0  0  0
    7.6214   47.1784   54.4318 H   0  0  0  0  0  0  0  0  0  0  0  0
    3.6137   45.6890   50.4391 H   0  0  0  0  0  0  0  0  0  0  0  0
    1.0320   45.5840   50.7790 H   0  0  0  0  0  0  0  0  0  0  0  0
   -0.7181   44.8635   55.2764 H   0  0  0  0  0  0  0  0  0  0  0  0
    4.4160   44.0600   55.5550 H   0  0  0  0  0  0  0  0  0  0  0  0
  1  2  2  0
  2  3  1  0
  3  4  1  0
  4  5  2  0
  5  6  1  0
  6  7  2  0
  7  8  1  0
  8  9  1  0
  9 10  1  0
 10 11  1  0
  8 12  2  0
  2 13  1  0
 13 14  2  0
 14 15  1  0
 15 16  1  0
 16 17  2  0
 17 18  1  0
 18 19  2  0
 19 20  1  0
 20 21  1  0
 20 22  2  0
 12  4  1  0
 22 13  1  0
 22 16  1  0
  3 23  1  0
  5 24  1  0
  6 25  1  0
  7 26  1  0
  9 27  1  0
  9 28  1  0
 10 29  1  0
 10 30  1  0
 11 31  1  0
 12 32  1  0
 14 33  1  0
 15 34  1  0
 18 35  1  0
 21 36  1  0
M  END
>  <meeko>  (1) 
{"is_sidechain": [false], "free_energy": -8.502, "intermolecular_energy": -10.987, "internal_energy": -0.641}

$$$$
ligand_5_conformer_5_docked
     RDKit          3D

 36 38  0  0  0  0  0  0  0  0999 V2000
    4.9440   44.4240   54.2710 O   0  0  0  0  0  0  0  0  0  0  0  0
    4.0550   44.8430   53.4820 C   0  0  0  0  0  0  0  0  0  0  0  0
    4.4090   45.7510   52.4230 N   0  0  0  0  0  0  0  0  0  0  0  0
    5.7620   46.0100   52.0110 C   0  0  0  0  0  0  0  0  0  0  0  0
    6.2730   45.3550   50.8800 C   0  0  0  0  0  0  0  0  0  0  0  0
    7.5920   45.5680   50.4750 C   0  0  0  0  0  0  0  0  0  0  0  0
    8.4190   46.4270   51.2010 C   0  0  0  0  0  0  0  0  0  0  0  0
    7.9300   47.0830   52.3420 C   0  0  0  0  0  0  0  0  0  0  0  0
    8.8380   47.9720   53.1530 C   0  0  0  0  0  0  0  0  0  0  0  0
    9.8530   47.1490   53.9480 C   0  0  0  0  0  0  0  0  0  0  0  0
    9.8540   47.5520   55.2900 O   0  0  0  0  0  0  0  0  0  0  0  0
    6.6060   46.8580   52.7520 C   0  0  0  0  0  0  0  0  0  0  0  0
    2.6470   44.4460   53.6940 C   0  0  0  0  0  0  0  0  0  0  0  0
    1.8750   43.6610   52.8340 C   0  0  0  0  0  0  0  0  0  0  0  0
    0.6170   43.5230   53.3100 N   0  0  0  0  0  0  0  0  0  0  0  0
    0.5890   44.2090   54.4610 C   0  0  0  0  0  0  0  0  0  0  0  0
   -0.4810   44.3310   55.2840 N   0  0  0  0  0  0  0  0  0  0  0  0
   -0.3390   45.0520   56.4340 C   0  0  0  0  0  0  0  0  0  0  0  0
    0.8630   45.6250   56.7480 N   0  0  0  0  0  0  0  0  0  0  0  0
    1.9480   45.5060   55.9280 C   0  0  0  0  0  0  0  0  0  0  0  0
    3.1630   46.0750   56.2910 O   0  0  0  0  0  0  0  0  0  0  0  0
    1.7960   44.7860   54.7400 C   0  0  0  0  0  0  0  0  0  0  0  0
    3.6540   46.3040   51.9640 H   0  0  0  0  0  0  0  0  0  0  0  0
    5.6301   44.6692   50.3088 H   0  0  0  0  0  0  0  0  0  0  0  0
    7.9806   45.0576   49.5814 H   0  0  0  0  0  0  0  0  0  0  0  0
    9.4577   46.5905   50.8779 H   0  0  0  0  0  0  0  0  0  0  0  0
    9.3778   48.6484   52.4739 H   0  0  0  0  0  0  0  0  0  0  0  0
    8.2220   48.5443   53.8622 H   0  0  0  0  0  0  0  0  0  0  0  0
    9.5846   46.0839   53.8881 H   0  0  0  0  0  0  0  0  0  0  0  0
   10.8556   47.3066   53.5239 H   0  0  0  0  0  0  0  0  0  0  0  0
   10.0320   48.5280   55.2830 H   0  0  0  0  0  0  0  0  0  0  0  0
    6.2253   47.3487   53.6599 H   0  0  0  0  0  0  0  0  0  0  0  0
    2.2408   43.2157   51.8970 H   0  0  0  0  0  0  0  0  0  0  0  0
   -0.1680   42.9940   52.8700 H   0  0  0  0  0  0  0  0  0  0  0  0
   -1.1962   45.1732   57.1126 H   0  0  0  0  0  0  0  0  0  0  0  0
    3.4610   46.0900   57.2590 H   0  0  0  0  0  0  0  0  0  0  0  0
  1  2  2  0
  2  3  1  0
  3  4  1  0
  4  5  2  0
  5  6  1  0
  6  7  2  0
  7  8  1  0
  8  9  1  0
  9 10  1  0
 10 11  1  0
  8 12  2  0
  2 13  1  0
 13 14  2  0
 14 15  1  0
 15 16  1  0
 16 17  2  0
 17 18  1  0
 18 19  2  0
 19 20  1  0
 20 21  1  0
 20 22  2  0
 12  4  1  0
 22 13  1  0
 22 16  1  0
  3 23  1  0
  5 24  1  0
  6 25  1  0
  7 26  1  0
  9 27  1  0
  9 28  1  0
 10 29  1  0
 10 30  1  0
 11 31  1  0
 12 32  1  0
 14 33  1  0
 15 34  1  0
 18 35  1  0
 21 36  1  0
M  END
>  <meeko>  (2) 
{"is_sidechain": [false], "free_energy": -8.156, "intermolecular_energy": -10.57, "internal_energy": -0.611}

$$$$
ligand_5_conformer_5_docked
     RDKit          3D

 36 38  0  0  0  0  0  0  0  0999 V2000
    5.8450   44.4890   54.9640 O   0  0  0  0  0  0  0  0  0  0  0  0
    5.2630   44.9760   53.9580 C   0  0  0  0  0  0  0  0  0  0  0  0
    5.8890   46.0360   53.2130 N   0  0  0  0  0  0  0  0  0  0  0  0
    7.2710   46.4070   53.3560 C   0  0  0  0  0  0  0  0  0  0  0  0
    7.6600   47.1980   54.4470 C   0  0  0  0  0  0  0  0  0  0  0  0
    8.9910   47.5960   54.5940 C   0  0  0  0  0  0  0  0  0  0  0  0
    9.9450   47.2180   53.6470 C   0  0  0  0  0  0  0  0  0  0  0  0
    9.5720   46.4360   52.5410 C   0  0  0  0  0  0  0  0  0  0  0  0
   10.5930   46.0700   51.4940 C   0  0  0  0  0  0  0  0  0  0  0  0
   10.6180   44.5620   51.2460 C   0  0  0  0  0  0  0  0  0  0  0  0
   10.1490   44.2770   49.9570 O   0  0  0  0  0  0  0  0  0  0  0  0
    8.2310   46.0470   52.3920 C   0  0  0  0  0  0  0  0  0  0  0  0
    3.9140   44.4950   53.5930 C   0  0  0  0  0  0  0  0  0  0  0  0
    3.5880   43.7270   52.4710 C   0  0  0  0  0  0  0  0  0  0  0  0
    2.2580   43.4950   52.4190 N   0  0  0  0  0  0  0  0  0  0  0  0
    1.7420   44.1040   53.4950 C   0  0  0  0  0  0  0  0  0  0  0  0
    0.4320   44.1180   53.8450 N   0  0  0  0  0  0  0  0  0  0  0  0
    0.0710   44.7700   54.9880 C   0  0  0  0  0  0  0  0  0  0  0  0
    1.0160   45.3830   55.7650 N   0  0  0  0  0  0  0  0  0  0  0  0
    2.3380   45.3720   55.4240 C   0  0  0  0  0  0  0  0  0  0  0  0
    3.2770   45.9790   56.2500 O   0  0  0  0  0  0  0  0  0  0  0  0
    2.7050   44.7230   54.2420 C   0  0  0  0  0  0  0  0  0  0  0  0
    5.3010   46.6160   52.5750 H   0  0  0  0  0  0  0  0  0  0  0  0
    6.9120   47.5071   55.1919 H   0  0  0  0  0  0  0  0  0  0  0  0
    9.2882   48.2087   55.4579 H   0  0  0  0  0  0  0  0  0  0  0  0
   10.9919   47.5335   53.7673 H   0  0  0  0  0  0  0  0  0  0  0  0
   10.3424   46.5836   50.5541 H   0  0  0  0  0  0  0  0  0  0  0  0
   11.5854   46.3792   51.8538 H   0  0  0  0  0  0  0  0  0  0  0  0
   11.6497   44.1940   51.3472 H   0  0  0  0  0  0  0  0  0  0  0  0
    9.9690   44.0658   51.9825 H   0  0  0  0  0  0  0  0  0  0  0  0
   10.5880   43.4300   49.6860 H   0  0  0  0  0  0  0  0  0  0  0  0
    7.9285   45.4562   51.5148 H   0  0  0  0  0  0  0  0  0  0  0  0
    4.3154   43.3614   51.7313 H   0  0  0  0  0  0  0  0  0  0  0  0
    1.7420   42.9560   51.6890 H   0  0  0  0  0  0  0  0  0  0  0  0
   -0.9871   44.8031   55.2869 H   0  0  0  0  0  0  0  0  0  0  0  0
    3.1700   46.9440   56.5360 H   0  0  0  0  0  0  0  0  0  0  0  0
  1  2  2  0
  2  3  1  0
  3  4  1  0
  4  5  2  0
  5  6  1  0
  6  7  2  0
  7  8  1  0
  8  9  1  0
  9 10  1  0
 10 11  1  0
  8 12  2  0
  2 13  1  0
 13 14  2  0
 14 15  1  0
 15 16  1  0
 16 17  2  0
 17 18  1  0
 18 19  2  0
 19 20  1  0
 20 21  1  0
 20 22  2  0
 12  4  1  0
 22 13  1  0
 22 16  1  0
  3 23  1  0
  5 24  1  0
  6 25  1  0
  7 26  1  0
  9 27  1  0
  9 28  1  0
 10 29  1  0
 10 30  1  0
 11 31  1  0
 12 32  1  0
 14 33  1  0
 15 34  1  0
 18 35  1  0
 21 36  1  0
M  END
>  <meeko>  (3) 
{"is_sidechain": [false], "free_energy": -8.102, "intermolecular_energy": -10.518, "internal_energy": -0.594}

$$$$
ligand_5_conformer_5_docked
     RDKit          3D

 36 38  0  0  0  0  0  0  0  0999 V2000
    5.4690   44.4230   54.5010 O   0  0  0  0  0  0  0  0  0  0  0  0
    4.4730   44.9890   53.9770 C   0  0  0  0  0  0  0  0  0  0  0  0
    4.5870   45.5710   52.6660 N   0  0  0  0  0  0  0  0  0  0  0  0
    5.6840   45.3170   51.7710 C   0  0  0  0  0  0  0  0  0  0  0  0
    6.7540   46.2230   51.7210 C   0  0  0  0  0  0  0  0  0  0  0  0
    7.8170   46.0150   50.8400 C   0  0  0  0  0  0  0  0  0  0  0  0
    7.8190   44.9050   49.9920 C   0  0  0  0  0  0  0  0  0  0  0  0
    6.7520   43.9930   50.0190 C   0  0  0  0  0  0  0  0  0  0  0  0
    6.7310   42.8240   49.0680 C   0  0  0  0  0  0  0  0  0  0  0  0
    6.2530   41.5500   49.7660 C   0  0  0  0  0  0  0  0  0  0  0  0
    7.3410   40.7090   50.0330 O   0  0  0  0  0  0  0  0  0  0  0  0
    5.6790   44.2130   50.8990 C   0  0  0  0  0  0  0  0  0  0  0  0
    3.2130   45.1030   54.7430 C   0  0  0  0  0  0  0  0  0  0  0  0
    3.0440   45.7810   55.9540 C   0  0  0  0  0  0  0  0  0  0  0  0
    1.7750   45.6520   56.4020 N   0  0  0  0  0  0  0  0  0  0  0  0
    1.1430   44.9050   55.4870 C   0  0  0  0  0  0  0  0  0  0  0  0
   -0.1610   44.5360   55.5310 N   0  0  0  0  0  0  0  0  0  0  0  0
   -0.6590   43.7860   54.5060 C   0  0  0  0  0  0  0  0  0  0  0  0
    0.1410   43.4290   53.4540 N   0  0  0  0  0  0  0  0  0  0  0  0
    1.4550   43.7980   53.3990 C   0  0  0  0  0  0  0  0  0  0  0  0
    2.2330   43.4450   52.3030 O   0  0  0  0  0  0  0  0  0  0  0  0
    1.9700   44.5470   54.4600 C   0  0  0  0  0  0  0  0  0  0  0  0
    3.8720   46.2670   52.3610 H   0  0  0  0  0  0  0  0  0  0  0  0
    6.7555   47.1034   52.3805 H   0  0  0  0  0  0  0  0  0  0  0  0
    8.6550   46.7270   50.8136 H   0  0  0  0  0  0  0  0  0  0  0  0
    8.6595   44.7449   49.3007 H   0  0  0  0  0  0  0  0  0  0  0  0
    6.0512   43.0525   48.2339 H   0  0  0  0  0  0  0  0  0  0  0  0
    7.7542   42.6562   48.7006 H   0  0  0  0  0  0  0  0  0  0  0  0
    5.7591   41.8171   50.7119 H   0  0  0  0  0  0  0  0  0  0  0  0
    5.5448   41.0241   49.1088 H   0  0  0  0  0  0  0  0  0  0  0  0
    8.1550   41.2430   49.8370 H   0  0  0  0  0  0  0  0  0  0  0  0
    4.8279   43.5162   50.9062 H   0  0  0  0  0  0  0  0  0  0  0  0
    3.8355   46.3427   56.4716 H   0  0  0  0  0  0  0  0  0  0  0  0
    1.3750   46.0510   57.2790 H   0  0  0  0  0  0  0  0  0  0  0  0
   -1.7112   43.4657   54.5250 H   0  0  0  0  0  0  0  0  0  0  0  0
    1.8920   43.5810   51.3590 H   0  0  0  0  0  0  0  0  0  0  0  0
  1  2  2  0
  2  3  1  0
  3  4  1  0
  4  5  2  0
  5  6  1  0
  6  7  2  0
  7  8  1  0
  8  9  1  0
  9 10  1  0
 10 11  1  0
  8 12  2  0
  2 13  1  0
 13 14  2  0
 14 15  1  0
 15 16  1  0
 16 17  2  0
 17 18  1  0
 18 19  2  0
 19 20  1  0
 20 21  1  0
 20 22  2  0
 12  4  1  0
 22 13  1  0
 22 16  1  0
  3 23  1  0
  5 24  1  0
  6 25  1  0
  7 26  1  0
  9 27  1  0
  9 28  1  0
 10 29  1  0
 10 30  1  0
 11 31  1  0
 12 32  1  0
 14 33  1  0
 15 34  1  0
 18 35  1  0
 21 36  1  0
M  END
>  <meeko>  (4) 
{"is_sidechain": [false], "free_energy": -8.034, "intermolecular_energy": -10.206, "internal_energy": -0.818}

$$$$
ligand_5_conformer_5_docked
     RDKit          3D

 36 38  0  0  0  0  0  0  0  0999 V2000
    5.5970   44.5130   54.6080 O   0  0  0  0  0  0  0  0  0  0  0  0
    4.7050   45.0110   53.8690 C   0  0  0  0  0  0  0  0  0  0  0  0
    5.0790   45.8520   52.7640 N   0  0  0  0  0  0  0  0  0  0  0  0
    6.4190   45.9540   52.2530 C   0  0  0  0  0  0  0  0  0  0  0  0
    6.7120   45.4360   50.9820 C   0  0  0  0  0  0  0  0  0  0  0  0
    8.0110   45.4960   50.4750 C   0  0  0  0  0  0  0  0  0  0  0  0
    9.0360   46.0630   51.2360 C   0  0  0  0  0  0  0  0  0  0  0  0
    8.7660   46.5770   52.5140 C   0  0  0  0  0  0  0  0  0  0  0  0
    9.8820   47.1430   53.3540 C   0  0  0  0  0  0  0  0  0  0  0  0
    9.3430   47.7860   54.6330 C   0  0  0  0  0  0  0  0  0  0  0  0
   10.2130   47.5360   55.7020 O   0  0  0  0  0  0  0  0  0  0  0  0
    7.4590   46.5040   53.0250 C   0  0  0  0  0  0  0  0  0  0  0  0
    3.2810   44.7740   54.1870 C   0  0  0  0  0  0  0  0  0  0  0  0
    2.6010   45.2380   55.3170 C   0  0  0  0  0  0  0  0  0  0  0  0
    1.3200   44.8070   55.3150 N   0  0  0  0  0  0  0  0  0  0  0  0
    1.1840   44.0800   54.1980 C   0  0  0  0  0  0  0  0  0  0  0  0
    0.0490   43.4620   53.7890 N   0  0  0  0  0  0  0  0  0  0  0  0
    0.0710   42.7730   52.6110 C   0  0  0  0  0  0  0  0  0  0  0  0
    1.2140   42.7230   51.8590 N   0  0  0  0  0  0  0  0  0  0  0  0
    2.3620   43.3440   52.2600 C   0  0  0  0  0  0  0  0  0  0  0  0
    3.4960   43.2980   51.4590 O   0  0  0  0  0  0  0  0  0  0  0  0
    2.3440   44.0300   53.4780 C   0  0  0  0  0  0  0  0  0  0  0  0
    4.3570   46.4760   52.3410 H   0  0  0  0  0  0  0  0  0  0  0  0
    5.9119   44.9793   50.3809 H   0  0  0  0  0  0  0  0  0  0  0  0
    8.2281   45.0958   49.4737 H   0  0  0  0  0  0  0  0  0  0  0  0
   10.0583   46.1069   50.8324 H   0  0  0  0  0  0  0  0  0  0  0  0
   10.5737   46.3317   53.6247 H   0  0  0  0  0  0  0  0  0  0  0  0
   10.4000   47.9164   52.7680 H   0  0  0  0  0  0  0  0  0  0  0  0
    9.2528   48.8721   54.4839 H   0  0  0  0  0  0  0  0  0  0  0  0
    8.3570   47.3563   54.8637 H   0  0  0  0  0  0  0  0  0  0  0  0
   10.9230   48.2260   55.6450 H   0  0  0  0  0  0  0  0  0  0  0  0
    7.2471   46.8799   54.0368 H   0  0  0  0  0  0  0  0  0  0  0  0
    3.0475   45.8678   56.1006 H   0  0  0  0  0  0  0  0  0  0  0  0
    0.5910   44.9990   56.0380 H   0  0  0  0  0  0  0  0  0  0  0  0
   -0.8350   42.2548   52.2637 H   0  0  0  0  0  0  0  0  0  0  0  0
    4.4030   43.5600   51.8270 H   0  0  0  0  0  0  0  0  0  0  0  0
  1  2  2  0
  2  3  1  0
  3  4  1  0
  4  5  2  0
  5  6  1  0
  6  7  2  0
  7  8  1  0
  8  9  1  0
  9 10  1  0
 10 11  1  0
  8 12  2  0
  2 13  1  0
 13 14  2  0
 14 15  1  0
 15 16  1  0
 16 17  2  0
 17 18  1  0
 18 19  2  0
 19 20  1  0
 20 21  1  0
 20 22  2  0
 12  4  1  0
 22 13  1  0
 22 16  1  0
  3 23  1  0
  5 24  1  0
  6 25  1  0
  7 26  1  0
  9 27  1  0
  9 28  1  0
 10 29  1  0
 10 30  1  0
 11 31  1  0
 12 32  1  0
 14 33  1  0
 15 34  1  0
 18 35  1  0
 21 36  1  0
M  END
>  <meeko>  (5) 
{"is_sidechain": [false], "free_energy": -7.965, "intermolecular_energy": -10.374, "internal_energy": -0.56}

$$$$
