ligand_33_conformer_2_docked
     RDKit          3D

 52 55  0  0  0  0  0  0  0  0999 V2000
    7.7460   45.6190   50.5550 C   0  0  0  0  0  0  0  0  0  0  0  0
    7.6820   46.7100   51.6370 C   0  0  2  0  0  0  0  0  0  0  0  0
    9.0380   47.4710   51.6790 C   0  0  0  0  0  0  0  0  0  0  0  0
    9.9910   46.8370   52.6930 C   0  0  0  0  0  0  0  0  0  0  0  0
    9.3860   46.8460   54.1050 C   0  0  0  0  0  0  0  0  0  0  0  0
    7.8500   46.8940   54.0850 C   0  0  0  0  0  0  0  0  0  0  0  0
    7.3180   46.1000   52.9540 N   0  0  0  0  0  0  0  0  0  0  0  0
    5.8470   45.9450   53.0800 C   0  0  0  0  0  0  0  0  0  0  0  0
    5.3830   44.4920   52.8440 C   0  0  0  0  0  0  0  0  0  0  0  0
    4.7530   44.2310   51.4470 C   0  0  0  0  0  0  0  0  0  0  0  0
    3.7410   45.3520   51.0820 C   0  0  0  0  0  0  0  0  0  0  0  0
    2.2640   44.9950   51.3630 C   0  0  0  0  0  0  0  0  0  0  0  0
    2.1360   43.9650   52.4040 N   0  0  0  0  0  0  0  0  0  0  0  0
    1.2120   44.1220   53.4950 C   0  0  0  0  0  0  0  0  0  0  0  0
   -0.0690   43.6540   53.3850 N   0  0  0  0  0  0  0  0  0  0  0  0
   -0.9770   43.7920   54.4030 C   0  0  0  0  0  0  0  0  0  0  0  0
   -0.6270   44.4190   55.5660 N   0  0  0  0  0  0  0  0  0  0  0  0
    0.6370   44.8880   55.6780 C   0  0  0  0  0  0  0  0  0  0  0  0
    1.1560   45.5680   56.7100 N   0  0  0  0  0  0  0  0  0  0  0  0
    2.4050   45.8970   56.3950 N   0  0  0  0  0  0  0  0  0  0  0  0
    2.6780   45.4180   55.1550 C   0  0  0  0  0  0  0  0  0  0  0  0
    1.5550   44.7640   54.6860 C   0  0  0  0  0  0  0  0  0  0  0  0
    2.9030   42.7150   52.3030 C   0  0  0  0  0  0  0  0  0  0  0  0
    4.0720   42.8520   51.3220 C   0  0  0  0  0  0  0  0  0  0  0  0
    7.8040   44.6305   51.0340 H   0  0  0  0  0  0  0  0  0  0  0  0
    6.8433   45.6705   49.9285 H   0  0  0  0  0  0  0  0  0  0  0  0
    8.6365   45.7757   49.9285 H   0  0  0  0  0  0  0  0  0  0  0  0
    6.8983   47.4443   51.3989 H   0  0  0  0  0  0  0  0  0  0  0  0
    9.5002   47.4378   50.6814 H   0  0  0  0  0  0  0  0  0  0  0  0
    8.8468   48.5114   51.9807 H   0  0  0  0  0  0  0  0  0  0  0  0
   10.1918   45.7973   52.3953 H   0  0  0  0  0  0  0  0  0  0  0  0
   10.9221   47.4225   52.7093 H   0  0  0  0  0  0  0  0  0  0  0  0
    9.7039   45.9338   54.6312 H   0  0  0  0  0  0  0  0  0  0  0  0
    9.7428   47.7521   54.6165 H   0  0  0  0  0  0  0  0  0  0  0  0
    7.4632   46.4825   55.0290 H   0  0  0  0  0  0  0  0  0  0  0  0
    7.5296   47.9395   53.9658 H   0  0  0  0  0  0  0  0  0  0  0  0
    5.5455   46.2515   54.0925 H   0  0  0  0  0  0  0  0  0  0  0  0
    5.3776   46.5748   52.3100 H   0  0  0  0  0  0  0  0  0  0  0  0
    6.2553   43.8312   52.9556 H   0  0  0  0  0  0  0  0  0  0  0  0
    4.5931   44.2937   53.5834 H   0  0  0  0  0  0  0  0  0  0  0  0
    5.5921   44.2362   50.7357 H   0  0  0  0  0  0  0  0  0  0  0  0
    3.9953   46.2487   51.6662 H   0  0  0  0  0  0  0  0  0  0  0  0
    3.8249   45.5093   49.9965 H   0  0  0  0  0  0  0  0  0  0  0  0
    1.7359   45.9016   51.6933 H   0  0  0  0  0  0  0  0  0  0  0  0
    1.8277   44.5969   50.4350 H   0  0  0  0  0  0  0  0  0  0  0  0
   -1.9957   43.3948   54.2828 H   0  0  0  0  0  0  0  0  0  0  0  0
    0.6780   45.8220   57.6020 H   0  0  0  0  0  0  0  0  0  0  0  0
    3.6301   45.5310   54.6158 H   0  0  0  0  0  0  0  0  0  0  0  0
    3.2983   42.4568   53.2965 H   0  0  0  0  0  0  0  0  0  0  0  0
    2.2314   41.9267   51.9322 H   0  0  0  0  0  0  0  0  0  0  0  0
    4.8121   42.0667   51.5352 H   0  0  0  0  0  0  0  0  0  0  0  0
    3.6795   42.7511   50.2994 H   0  0  0  0  0  0  0  0  0  0  0  0
  1  2  1  0
  2  3  1  0
  3  4  1  0
  4  5  1  0
  5  6  1  0
  6  7  1  0
  7  8  1  0
  8  9  1  0
  9 10  1  0
 10 11  1  0
 11 12  1  0
 12 13  1  0
 13 14  1  0
 14 15  2  0
 15 16  1  0
 16 17  2  0
 17 18  1  0
 18 19  1  0
 19 20  1  0
 20 21  2  0
 21 22  1  0
 13 23  1  0
 23 24  1  0
  7  2  1  0
 24 10  1  0
 22 14  1  0
 22 18  2  0
  1 25  1  0
  1 26  1  0
  1 27  1  0
  2 28  1  6
  3 29  1  0
  3 30  1  0
  4 31  1  0
  4 32  1  0
  5 33  1  0
  5 34  1  0
  6 35  1  0
  6 36  1  0
  8 37  1  0
  8 38  1  0
  9 39  1  0
  9 40  1  0
 10 41  1  0
 11 42  1  0
 11 43  1  0
 12 44  1  0
 12 45  1  0
 16 46  1  0
 19 47  1  0
 21 48  1  0
 23 49  1  0
 23 50  1  0
 24 51  1  0
 24 52  1  0
M  END
>  <meeko>  (1) 
{"is_sidechain": [false], "free_energy": -8.804, "intermolecular_energy": -10.863, "internal_energy": -0.89}

$$$$
ligand_33_conformer_2_docked
     RDKit          3D

 52 55  0  0  0  0  0  0  0  0999 V2000
    7.7190   45.6330   50.5390 C   0  0  0  0  0  0  0  0  0  0  0  0
    7.6800   46.7220   51.6240 C   0  0  2  0  0  0  0  0  0  0  0  0
    9.0510   47.4550   51.6650 C   0  0  0  0  0  0  0  0  0  0  0  0
    9.9930   46.7990   52.6750 C   0  0  0  0  0  0  0  0  0  0  0  0
    9.3910   46.8180   54.0880 C   0  0  0  0  0  0  0  0  0  0  0  0
    7.8570   46.8970   54.0720 C   0  0  0  0  0  0  0  0  0  0  0  0
    7.3060   46.1170   52.9400 N   0  0  0  0  0  0  0  0  0  0  0  0
    5.8330   45.9920   53.0690 C   0  0  0  0  0  0  0  0  0  0  0  0
    5.3460   44.5370   52.9040 C   0  0  0  0  0  0  0  0  0  0  0  0
    4.5920   44.2530   51.5730 C   0  0  0  0  0  0  0  0  0  0  0  0
    3.6070   45.4070   51.2410 C   0  0  0  0  0  0  0  0  0  0  0  0
    2.1430   45.1360   51.6530 C   0  0  0  0  0  0  0  0  0  0  0  0
    2.0520   44.1560   52.7450 N   0  0  0  0  0  0  0  0  0  0  0  0
    1.2280   44.4020   53.8980 C   0  0  0  0  0  0  0  0  0  0  0  0
    1.7720   44.9460   55.0290 N   0  0  0  0  0  0  0  0  0  0  0  0
    1.0170   45.1880   56.1490 C   0  0  0  0  0  0  0  0  0  0  0  0
   -0.3130   44.8780   56.1690 N   0  0  0  0  0  0  0  0  0  0  0  0
   -0.8560   44.3350   55.0550 C   0  0  0  0  0  0  0  0  0  0  0  0
   -2.1200   43.9210   54.8930 N   0  0  0  0  0  0  0  0  0  0  0  0
   -2.2250   43.3950   53.6770 N   0  0  0  0  0  0  0  0  0  0  0  0
   -1.0170   43.4790   53.0640 C   0  0  0  0  0  0  0  0  0  0  0  0
   -0.1310   44.0860   53.9340 C   0  0  0  0  0  0  0  0  0  0  0  0
    2.7490   42.8670   52.6400 C   0  0  0  0  0  0  0  0  0  0  0  0
    3.8400   42.9060   51.5630 C   0  0  0  0  0  0  0  0  0  0  0  0
    7.7545   44.6421   51.0152 H   0  0  0  0  0  0  0  0  0  0  0  0
    6.8176   45.7068   49.9128 H   0  0  0  0  0  0  0  0  0  0  0  0
    8.6128   45.7711   49.9128 H   0  0  0  0  0  0  0  0  0  0  0  0
    6.9110   47.4727   51.3893 H   0  0  0  0  0  0  0  0  0  0  0  0
    9.5102   47.4152   50.6662 H   0  0  0  0  0  0  0  0  0  0  0  0
    8.8817   48.4982   51.9699 H   0  0  0  0  0  0  0  0  0  0  0  0
   10.1713   45.7559   52.3747 H   0  0  0  0  0  0  0  0  0  0  0  0
   10.9365   47.3643   52.6902 H   0  0  0  0  0  0  0  0  0  0  0  0
    9.6916   45.8988   54.6121 H   0  0  0  0  0  0  0  0  0  0  0  0
    9.7669   47.7162   54.5998 H   0  0  0  0  0  0  0  0  0  0  0  0
    7.4644   46.4908   55.0158 H   0  0  0  0  0  0  0  0  0  0  0  0
    7.5576   47.9491   53.9564 H   0  0  0  0  0  0  0  0  0  0  0  0
    5.5343   46.3531   54.0642 H   0  0  0  0  0  0  0  0  0  0  0  0
    5.3756   46.5902   52.2672 H   0  0  0  0  0  0  0  0  0  0  0  0
    6.2229   43.8745   52.9496 H   0  0  0  0  0  0  0  0  0  0  0  0
    4.6254   44.3557   53.7151 H   0  0  0  0  0  0  0  0  0  0  0  0
    5.3696   44.1890   50.7976 H   0  0  0  0  0  0  0  0  0  0  0  0
    3.9493   46.3124   51.7636 H   0  0  0  0  0  0  0  0  0  0  0  0
    3.6096   45.5163   50.1464 H   0  0  0  0  0  0  0  0  0  0  0  0
    1.6863   46.0804   51.9840 H   0  0  0  0  0  0  0  0  0  0  0  0
    1.6147   44.7237   50.7807 H   0  0  0  0  0  0  0  0  0  0  0  0
    1.4866   45.6351   57.0376 H   0  0  0  0  0  0  0  0  0  0  0  0
   -2.8950   43.9740   55.5890 H   0  0  0  0  0  0  0  0  0  0  0  0
   -0.7832   43.1248   52.0491 H   0  0  0  0  0  0  0  0  0  0  0  0
    3.2117   42.6305   53.6095 H   0  0  0  0  0  0  0  0  0  0  0  0
    2.0139   42.0981   52.3599 H   0  0  0  0  0  0  0  0  0  0  0  0
    4.5577   42.0939   51.7509 H   0  0  0  0  0  0  0  0  0  0  0  0
    3.3612   42.7838   50.5802 H   0  0  0  0  0  0  0  0  0  0  0  0
  1  2  1  0
  2  3  1  0
  3  4  1  0
  4  5  1  0
  5  6  1  0
  6  7  1  0
  7  8  1  0
  8  9  1  0
  9 10  1  0
 10 11  1  0
 11 12  1  0
 12 13  1  0
 13 14  1  0
 14 15  2  0
 15 16  1  0
 16 17  2  0
 17 18  1  0
 18 19  1  0
 19 20  1  0
 20 21  2  0
 21 22  1  0
 13 23  1  0
 23 24  1  0
  7  2  1  0
 24 10  1  0
 22 14  1  0
 22 18  2  0
  1 25  1  0
  1 26  1  0
  1 27  1  0
  2 28  1  6
  3 29  1  0
  3 30  1  0
  4 31  1  0
  4 32  1  0
  5 33  1  0
  5 34  1  0
  6 35  1  0
  6 36  1  0
  8 37  1  0
  8 38  1  0
  9 39  1  0
  9 40  1  0
 10 41  1  0
 11 42  1  0
 11 43  1  0
 12 44  1  0
 12 45  1  0
 16 46  1  0
 19 47  1  0
 21 48  1  0
 23 49  1  0
 23 50  1  0
 24 51  1  0
 24 52  1  0
M  END
>  <meeko>  (2) 
{"is_sidechain": [false], "free_energy": -8.654, "intermolecular_energy": -10.795, "internal_energy": -0.773}

$$$$
ligand_33_conformer_2_docked
     RDKit          3D

 52 55  0  0  0  0  0  0  0  0999 V2000
    6.9230   43.5200   49.0130 C   0  0  0  0  0  0  0  0  0  0  0  0
    6.2920   42.6990   50.1500 C   0  0  2  0  0  0  0  0  0  0  0  0
    6.2010   41.2090   49.7170 C   0  0  0  0  0  0  0  0  0  0  0  0
    4.8530   40.9110   49.0590 C   0  0  0  0  0  0  0  0  0  0  0  0
    3.6900   41.2100   50.0160 C   0  0  0  0  0  0  0  0  0  0  0  0
    4.0620   42.2490   51.0850 C   0  0  0  0  0  0  0  0  0  0  0  0
    4.9640   43.2790   50.5200 N   0  0  0  0  0  0  0  0  0  0  0  0
    5.1220   44.4040   51.4750 C   0  0  0  0  0  0  0  0  0  0  0  0
    4.5220   44.0920   52.8620 C   0  0  0  0  0  0  0  0  0  0  0  0
    3.7560   45.2750   53.5180 C   0  0  0  0  0  0  0  0  0  0  0  0
    4.0130   46.5950   52.7420 C   0  0  0  0  0  0  0  0  0  0  0  0
    5.1070   47.4960   53.3580 C   0  0  0  0  0  0  0  0  0  0  0  0
    6.0570   46.7270   54.1730 N   0  0  0  0  0  0  0  0  0  0  0  0
    7.4770   46.9000   54.0210 C   0  0  0  0  0  0  0  0  0  0  0  0
    8.2040   47.5210   55.0000 N   0  0  0  0  0  0  0  0  0  0  0  0
    9.5570   47.7080   54.8850 C   0  0  0  0  0  0  0  0  0  0  0  0
   10.2250   47.2850   53.7700 N   0  0  0  0  0  0  0  0  0  0  0  0
    9.5100   46.6740   52.7960 C   0  0  0  0  0  0  0  0  0  0  0  0
    9.9680   46.2340   51.6170 N   0  0  0  0  0  0  0  0  0  0  0  0
    8.9350   45.7560   50.9310 N   0  0  0  0  0  0  0  0  0  0  0  0
    7.8150   45.8950   51.6840 C   0  0  0  0  0  0  0  0  0  0  0  0
    8.1700   46.4760   52.8860 C   0  0  0  0  0  0  0  0  0  0  0  0
    5.5660   45.8150   55.2160 C   0  0  0  0  0  0  0  0  0  0  0  0
    4.0860   45.4750   55.0120 C   0  0  0  0  0  0  0  0  0  0  0  0
    7.5407   44.3237   49.4402 H   0  0  0  0  0  0  0  0  0  0  0  0
    7.5519   42.8645   48.3928 H   0  0  0  0  0  0  0  0  0  0  0  0
    6.1277   43.9591   48.3928 H   0  0  0  0  0  0  0  0  0  0  0  0
    6.9198   42.7423   51.0522 H   0  0  0  0  0  0  0  0  0  0  0  0
    7.0068   40.9928   49.0001 H   0  0  0  0  0  0  0  0  0  0  0  0
    6.3016   40.5772   50.6118 H   0  0  0  0  0  0  0  0  0  0  0  0
    4.7470   41.5351   48.1594 H   0  0  0  0  0  0  0  0  0  0  0  0
    4.8221   39.8433   48.7960 H   0  0  0  0  0  0  0  0  0  0  0  0
    2.8411   41.5937   49.4310 H   0  0  0  0  0  0  0  0  0  0  0  0
    3.4332   40.2740   50.5337 H   0  0  0  0  0  0  0  0  0  0  0  0
    3.1454   42.7336   51.4525 H   0  0  0  0  0  0  0  0  0  0  0  0
    4.5799   41.7385   51.9103 H   0  0  0  0  0  0  0  0  0  0  0  0
    6.1946   44.6169   51.5946 H   0  0  0  0  0  0  0  0  0  0  0  0
    4.5807   45.2690   51.0642 H   0  0  0  0  0  0  0  0  0  0  0  0
    3.8229   43.2500   52.7516 H   0  0  0  0  0  0  0  0  0  0  0  0
    5.3705   43.8652   53.5243 H   0  0  0  0  0  0  0  0  0  0  0  0
    2.6905   45.0077   53.4613 H   0  0  0  0  0  0  0  0  0  0  0  0
    4.3167   46.3375   51.7166 H   0  0  0  0  0  0  0  0  0  0  0  0
    3.0755   47.1691   52.7807 H   0  0  0  0  0  0  0  0  0  0  0  0
    5.6570   47.9932   52.5454 H   0  0  0  0  0  0  0  0  0  0  0  0
    4.6145   48.2307   54.0119 H   0  0  0  0  0  0  0  0  0  0  0  0
   10.1100   48.2028   55.6970 H   0  0  0  0  0  0  0  0  0  0  0  0
   10.9520   46.2660   51.2700 H   0  0  0  0  0  0  0  0  0  0  0  0
    6.7985   45.5963   51.3881 H   0  0  0  0  0  0  0  0  0  0  0  0
    6.1540   44.8859   55.1844 H   0  0  0  0  0  0  0  0  0  0  0  0
    5.6748   46.3138   56.1904 H   0  0  0  0  0  0  0  0  0  0  0  0
    3.8530   44.5485   55.5573 H   0  0  0  0  0  0  0  0  0  0  0  0
    3.4824   46.3128   55.3911 H   0  0  0  0  0  0  0  0  0  0  0  0
  1  2  1  0
  2  3  1  0
  3  4  1  0
  4  5  1  0
  5  6  1  0
  6  7  1  0
  7  8  1  0
  8  9  1  0
  9 10  1  0
 10 11  1  0
 11 12  1  0
 12 13  1  0
 13 14  1  0
 14 15  2  0
 15 16  1  0
 16 17  2  0
 17 18  1  0
 18 19  1  0
 19 20  1  0
 20 21  2  0
 21 22  1  0
 13 23  1  0
 23 24  1  0
  7  2  1  0
 24 10  1  0
 22 14  1  0
 22 18  2  0
  1 25  1  0
  1 26  1  0
  1 27  1  0
  2 28  1  1
  3 29  1  0
  3 30  1  0
  4 31  1  0
  4 32  1  0
  5 33  1  0
  5 34  1  0
  6 35  1  0
  6 36  1  0
  8 37  1  0
  8 38  1  0
  9 39  1  0
  9 40  1  0
 10 41  1  0
 11 42  1  0
 11 43  1  0
 12 44  1  0
 12 45  1  0
 16 46  1  0
 19 47  1  0
 21 48  1  0
 23 49  1  0
 23 50  1  0
 24 51  1  0
 24 52  1  0
M  END
>  <meeko>  (3) 
{"is_sidechain": [false], "free_energy": -8.643, "intermolecular_energy": -10.791, "internal_energy": -0.763}

$$$$
ligand_33_conformer_2_docked
     RDKit          3D

 52 55  0  0  0  0  0  0  0  0999 V2000
    8.0320   45.3100   50.4610 C   0  0  0  0  0  0  0  0  0  0  0  0
    7.9980   46.5070   51.4250 C   0  0  2  0  0  0  0  0  0  0  0  0
    9.3920   47.1960   51.4360 C   0  0  0  0  0  0  0  0  0  0  0  0
   10.2800   46.6210   52.5400 C   0  0  0  0  0  0  0  0  0  0  0  0
    9.6360   46.8060   53.9220 C   0  0  0  0  0  0  0  0  0  0  0  0
    8.1070   46.9320   53.8450 C   0  0  0  0  0  0  0  0  0  0  0  0
    7.5640   46.0550   52.7830 N   0  0  0  0  0  0  0  0  0  0  0  0
    6.0830   45.9920   52.8740 C   0  0  0  0  0  0  0  0  0  0  0  0
    5.5950   45.5490   54.2690 C   0  0  0  0  0  0  0  0  0  0  0  0
    4.5940   46.5270   54.9470 C   0  0  0  0  0  0  0  0  0  0  0  0
    3.4570   45.7440   55.6590 C   0  0  0  0  0  0  0  0  0  0  0  0
    2.1530   45.6240   54.8390 C   0  0  0  0  0  0  0  0  0  0  0  0
    2.3990   45.7470   53.3950 N   0  0  0  0  0  0  0  0  0  0  0  0
    1.8330   44.8100   52.4620 C   0  0  0  0  0  0  0  0  0  0  0  0
    0.5450   44.9630   52.0280 N   0  0  0  0  0  0  0  0  0  0  0  0
   -0.0280   44.0840   51.1440 C   0  0  0  0  0  0  0  0  0  0  0  0
    0.6780   43.0120   50.6750 N   0  0  0  0  0  0  0  0  0  0  0  0
    1.9510   42.8530   51.1050 C   0  0  0  0  0  0  0  0  0  0  0  0
    2.7850   41.8490   50.8010 N   0  0  0  0  0  0  0  0  0  0  0  0
    3.9140   42.0370   51.4770 N   0  0  0  0  0  0  0  0  0  0  0  0
    3.7920   43.1710   52.2130 C   0  0  0  0  0  0  0  0  0  0  0  0
    2.5410   43.7080   51.9790 C   0  0  0  0  0  0  0  0  0  0  0  0
    3.1720   46.8830   52.8720 C   0  0  0  0  0  0  0  0  0  0  0  0
    3.9870   47.5630   53.9780 C   0  0  0  0  0  0  0  0  0  0  0  0
    8.0586   44.3744   51.0389 H   0  0  0  0  0  0  0  0  0  0  0  0
    7.1331   45.3240   49.8271 H   0  0  0  0  0  0  0  0  0  0  0  0
    8.9287   45.3750   49.8271 H   0  0  0  0  0  0  0  0  0  0  0  0
    7.2631   47.2529   51.0882 H   0  0  0  0  0  0  0  0  0  0  0  0
    9.8795   47.0366   50.4629 H   0  0  0  0  0  0  0  0  0  0  0  0
    9.2499   48.2703   51.6251 H   0  0  0  0  0  0  0  0  0  0  0  0
   10.4321   45.5473   52.3556 H   0  0  0  0  0  0  0  0  0  0  0  0
   11.2411   47.1559   52.5286 H   0  0  0  0  0  0  0  0  0  0  0  0
    9.8875   45.9370   54.5478 H   0  0  0  0  0  0  0  0  0  0  0  0
   10.0277   47.7399   54.3515 H   0  0  0  0  0  0  0  0  0  0  0  0
    7.6712   46.6407   54.8121 H   0  0  0  0  0  0  0  0  0  0  0  0
    7.8488   47.9750   53.6096 H   0  0  0  0  0  0  0  0  0  0  0  0
    5.6735   46.9897   52.6575 H   0  0  0  0  0  0  0  0  0  0  0  0
    5.7349   45.2450   52.1454 H   0  0  0  0  0  0  0  0  0  0  0  0
    5.1019   44.5712   54.1652 H   0  0  0  0  0  0  0  0  0  0  0  0
    6.4851   45.5178   54.9146 H   0  0  0  0  0  0  0  0  0  0  0  0
    5.1820   47.0905   55.6864 H   0  0  0  0  0  0  0  0  0  0  0  0
    3.8217   44.7290   55.8755 H   0  0  0  0  0  0  0  0  0  0  0  0
    3.2055   46.3124   56.5665 H   0  0  0  0  0  0  0  0  0  0  0  0
    1.6960   44.6437   55.0395 H   0  0  0  0  0  0  0  0  0  0  0  0
    1.4841   46.4432   55.1414 H   0  0  0  0  0  0  0  0  0  0  0  0
   -1.0639   44.2434   50.8101 H   0  0  0  0  0  0  0  0  0  0  0  0
    2.5970   41.0430   50.1650 H   0  0  0  0  0  0  0  0  0  0  0  0
    4.5583   43.5906   52.8814 H   0  0  0  0  0  0  0  0  0  0  0  0
    3.8589   46.5200   52.0933 H   0  0  0  0  0  0  0  0  0  0  0  0
    2.4673   47.6198   52.4591 H   0  0  0  0  0  0  0  0  0  0  0  0
    4.8008   48.1428   53.5181 H   0  0  0  0  0  0  0  0  0  0  0  0
    3.3149   48.2199   54.5496 H   0  0  0  0  0  0  0  0  0  0  0  0
  1  2  1  0
  2  3  1  0
  3  4  1  0
  4  5  1  0
  5  6  1  0
  6  7  1  0
  7  8  1  0
  8  9  1  0
  9 10  1  0
 10 11  1  0
 11 12  1  0
 12 13  1  0
 13 14  1  0
 14 15  2  0
 15 16  1  0
 16 17  2  0
 17 18  1  0
 18 19  1  0
 19 20  1  0
 20 21  2  0
 21 22  1  0
 13 23  1  0
 23 24  1  0
  7  2  1  0
 24 10  1  0
 22 14  1  0
 22 18  2  0
  1 25  1  0
  1 26  1  0
  1 27  1  0
  2 28  1  6
  3 29  1  0
  3 30  1  0
  4 31  1  0
  4 32  1  0
  5 33  1  0
  5 34  1  0
  6 35  1  0
  6 36  1  0
  8 37  1  0
  8 38  1  0
  9 39  1  0
  9 40  1  0
 10 41  1  0
 11 42  1  0
 11 43  1  0
 12 44  1  0
 12 45  1  0
 16 46  1  0
 19 47  1  0
 21 48  1  0
 23 49  1  0
 23 50  1  0
 24 51  1  0
 24 52  1  0
M  END
>  <meeko>  (4) 
{"is_sidechain": [false], "free_energy": -8.566, "intermolecular_energy": -10.925, "internal_energy": -0.534}

$$$$
ligand_33_conformer_2_docked
     RDKit          3D

 52 55  0  0  0  0  0  0  0  0999 V2000
   -0.5740   44.7540   56.2780 C   0  0  0  0  0  0  0  0  0  0  0  0
    0.0320   44.9220   54.8750 C   0  0  2  0  0  0  0  0  0  0  0  0
   -0.7960   44.0890   53.8550 C   0  0  0  0  0  0  0  0  0  0  0  0
   -0.2140   42.6850   53.6920 C   0  0  0  0  0  0  0  0  0  0  0  0
    1.2410   42.7400   53.2050 C   0  0  0  0  0  0  0  0  0  0  0  0
    1.9330   44.0630   53.5700 C   0  0  0  0  0  0  0  0  0  0  0  0
    1.4790   44.5400   54.8960 N   0  0  0  0  0  0  0  0  0  0  0  0
    2.3210   45.6740   55.3520 C   0  0  0  0  0  0  0  0  0  0  0  0
    3.8220   45.4420   55.0800 C   0  0  0  0  0  0  0  0  0  0  0  0
    4.5940   46.7000   54.5900 C   0  0  0  0  0  0  0  0  0  0  0  0
    4.0690   47.1610   53.2030 C   0  0  0  0  0  0  0  0  0  0  0  0
    4.9170   46.6770   52.0060 C   0  0  0  0  0  0  0  0  0  0  0  0
    5.6740   45.4590   52.3250 N   0  0  0  0  0  0  0  0  0  0  0  0
    5.6760   44.3290   51.4350 C   0  0  0  0  0  0  0  0  0  0  0  0
    4.7210   43.3570   51.5540 N   0  0  0  0  0  0  0  0  0  0  0  0
    4.6970   42.2640   50.7270 C   0  0  0  0  0  0  0  0  0  0  0  0
    5.6450   42.1070   49.7560 N   0  0  0  0  0  0  0  0  0  0  0  0
    6.5960   43.0630   49.6360 C   0  0  0  0  0  0  0  0  0  0  0  0
    7.6300   43.0680   48.7860 N   0  0  0  0  0  0  0  0  0  0  0  0
    8.3580   44.1520   49.0350 N   0  0  0  0  0  0  0  0  0  0  0  0
    7.7760   44.8380   50.0510 C   0  0  0  0  0  0  0  0  0  0  0  0
    6.6410   44.1540   50.4420 C   0  0  0  0  0  0  0  0  0  0  0  0
    6.5080   45.4050   53.5350 C   0  0  0  0  0  0  0  0  0  0  0  0
    6.1230   46.5050   54.5310 C   0  0  0  0  0  0  0  0  0  0  0  0
    0.1935   44.9668   57.0368 H   0  0  0  0  0  0  0  0  0  0  0  0
   -1.4145   45.4530   56.4005 H   0  0  0  0  0  0  0  0  0  0  0  0
   -0.9346   43.7220   56.4005 H   0  0  0  0  0  0  0  0  0  0  0  0
   -0.0152   45.9744   54.5583 H   0  0  0  0  0  0  0  0  0  0  0  0
   -1.8328   44.0090   54.2137 H   0  0  0  0  0  0  0  0  0  0  0  0
   -0.7631   44.5969   52.8798 H   0  0  0  0  0  0  0  0  0  0  0  0
   -0.2483   42.1676   54.6621 H   0  0  0  0  0  0  0  0  0  0  0  0
   -0.8118   42.1450   52.9429 H   0  0  0  0  0  0  0  0  0  0  0  0
    1.7988   41.9112   53.6653 H   0  0  0  0  0  0  0  0  0  0  0  0
    1.2301   42.6595   52.1080 H   0  0  0  0  0  0  0  0  0  0  0  0
    3.0215   43.9066   53.5953 H   0  0  0  0  0  0  0  0  0  0  0  0
    1.6746   44.8188   52.8137 H   0  0  0  0  0  0  0  0  0  0  0  0
    2.0032   46.5845   54.8229 H   0  0  0  0  0  0  0  0  0  0  0  0
    2.1896   45.7717   56.4397 H   0  0  0  0  0  0  0  0  0  0  0  0
    4.2898   45.0943   56.0129 H   0  0  0  0  0  0  0  0  0  0  0  0
    3.8806   44.7041   54.2663 H   0  0  0  0  0  0  0  0  0  0  0  0
    4.4026   47.4794   55.3423 H   0  0  0  0  0  0  0  0  0  0  0  0
    3.0460   46.7768   53.0774 H   0  0  0  0  0  0  0  0  0  0  0  0
    4.1183   48.2599   53.1984 H   0  0  0  0  0  0  0  0  0  0  0  0
    4.2480   46.4676   51.1583 H   0  0  0  0  0  0  0  0  0  0  0  0
    5.6378   47.4699   51.7574 H   0  0  0  0  0  0  0  0  0  0  0  0
    3.9078   41.5070   50.8462 H   0  0  0  0  0  0  0  0  0  0  0  0
    7.8560   42.3520   48.0610 H   0  0  0  0  0  0  0  0  0  0  0  0
    8.1447   45.7776   50.4883 H   0  0  0  0  0  0  0  0  0  0  0  0
    6.3767   44.4247   54.0164 H   0  0  0  0  0  0  0  0  0  0  0  0
    7.5564   45.5581   53.2392 H   0  0  0  0  0  0  0  0  0  0  0  0
    6.4872   46.2261   55.5308 H   0  0  0  0  0  0  0  0  0  0  0  0
    6.5800   47.4487   54.1986 H   0  0  0  0  0  0  0  0  0  0  0  0
  1  2  1  0
  2  3  1  0
  3  4  1  0
  4  5  1  0
  5  6  1  0
  6  7  1  0
  7  8  1  0
  8  9  1  0
  9 10  1  0
 10 11  1  0
 11 12  1  0
 12 13  1  0
 13 14  1  0
 14 15  2  0
 15 16  1  0
 16 17  2  0
 17 18  1  0
 18 19  1  0
 19 20  1  0
 20 21  2  0
 21 22  1  0
 13 23  1  0
 23 24  1  0
  7  2  1  0
 24 10  1  0
 22 14  1  0
 22 18  2  0
  1 25  1  0
  1 26  1  0
  1 27  1  0
  2 28  1  6
  3 29  1  0
  3 30  1  0
  4 31  1  0
  4 32  1  0
  5 33  1  0
  5 34  1  0
  6 35  1  0
  6 36  1  0
  8 37  1  0
  8 38  1  0
  9 39  1  0
  9 40  1  0
 10 41  1  0
 11 42  1  0
 11 43  1  0
 12 44  1  0
 12 45  1  0
 16 46  1  0
 19 47  1  0
 21 48  1  0
 23 49  1  0
 23 50  1  0
 24 51  1  0
 24 52  1  0
M  END
>  <meeko>  (5) 
{"is_sidechain": [false], "free_energy": -8.425, "intermolecular_energy": -10.337, "internal_energy": -0.947}

$$$$
