ligand_80_conformer_4_docked
     RDKit          3D

 43 45  0  0  0  0  0  0  0  0999 V2000
    9.4680   48.1750   54.9930 C   0  0  0  0  0  0  0  0  0  0  0  0
    8.9490   47.2710   53.9630 N   0  0  0  0  0  0  0  0  0  0  0  0
    9.8260   46.7480   52.9070 C   0  0  0  0  0  0  0  0  0  0  0  0
    9.1030   46.7540   51.5550 C   0  0  0  0  0  0  0  0  0  0  0  0
    7.7650   46.0600   51.6490 C   0  0  0  0  0  0  0  0  0  0  0  0
    7.2230   45.4290   50.5220 C   0  0  0  0  0  0  0  0  0  0  0  0
    5.9570   44.8420   50.5820 C   0  0  0  0  0  0  0  0  0  0  0  0
    5.2100   44.8770   51.7660 C   0  0  0  0  0  0  0  0  0  0  0  0
    3.8990   44.2870   51.7910 N   0  0  0  0  0  0  0  0  0  0  0  0
    2.7440   44.8760   51.1750 C   0  0  0  0  0  0  0  0  0  0  0  0
    2.7490   46.0890   50.8280 O   0  0  0  0  0  0  0  0  0  0  0  0
    1.5200   44.0490   50.9240 C   0  0  0  0  0  0  0  0  0  0  0  0
    0.5890   44.1880   52.0490 N   0  0  0  0  0  0  0  0  0  0  0  0
   -0.4450   45.2290   52.0190 C   0  0  0  0  0  0  0  0  0  0  0  0
   -1.7210   44.7470   52.7140 C   0  0  0  0  0  0  0  0  0  0  0  0
   -1.4150   44.3340   54.1570 C   0  0  0  0  0  0  0  0  0  0  0  0
   -0.3360   43.3500   54.1990 N   0  0  0  0  0  0  0  0  0  0  0  0
    0.6890   43.3270   53.2000 C   0  0  0  0  0  0  0  0  0  0  0  0
    1.6590   42.5300   53.3230 O   0  0  0  0  0  0  0  0  0  0  0  0
    5.7330   45.5470   52.8870 C   0  0  0  0  0  0  0  0  0  0  0  0
    7.0080   46.1360   52.8350 C   0  0  0  0  0  0  0  0  0  0  0  0
    7.5770   46.8400   54.0030 C   0  0  0  0  0  0  0  0  0  0  0  0
    6.8660   47.0750   55.0180 O   0  0  0  0  0  0  0  0  0  0  0  0
    9.2349   47.7690   55.9884 H   0  0  0  0  0  0  0  0  0  0  0  0
   10.5582   48.2701   54.8819 H   0  0  0  0  0  0  0  0  0  0  0  0
    9.0004   49.1645   54.8819 H   0  0  0  0  0  0  0  0  0  0  0  0
   10.7255   47.3775   52.8390 H   0  0  0  0  0  0  0  0  0  0  0  0
   10.1044   45.7134   53.1564 H   0  0  0  0  0  0  0  0  0  0  0  0
    8.9458   47.7951   51.2367 H   0  0  0  0  0  0  0  0  0  0  0  0
    9.7247   46.2152   50.8248 H   0  0  0  0  0  0  0  0  0  0  0  0
    7.7975   45.3956   49.5846 H   0  0  0  0  0  0  0  0  0  0  0  0
    5.5429   44.3476   49.6909 H   0  0  0  0  0  0  0  0  0  0  0  0
    3.7660   43.4100   52.3420 H   0  0  0  0  0  0  0  0  0  0  0  0
    1.0307   44.3914   50.0002 H   0  0  0  0  0  0  0  0  0  0  0  0
    1.8095   42.9929   50.8196 H   0  0  0  0  0  0  0  0  0  0  0  0
   -0.0698   46.1252   52.5348 H   0  0  0  0  0  0  0  0  0  0  0  0
   -0.6809   45.4619   50.9701 H   0  0  0  0  0  0  0  0  0  0  0  0
   -2.4616   45.5604   52.7183 H   0  0  0  0  0  0  0  0  0  0  0  0
   -2.1196   43.8784   52.1694 H   0  0  0  0  0  0  0  0  0  0  0  0
   -1.1141   45.2233   54.7302 H   0  0  0  0  0  0  0  0  0  0  0  0
   -2.3189   43.8839   54.5934 H   0  0  0  0  0  0  0  0  0  0  0  0
   -0.2460   42.7350   55.0380 H   0  0  0  0  0  0  0  0  0  0  0  0
    5.1396   45.6104   53.8111 H   0  0  0  0  0  0  0  0  0  0  0  0
  1  2  1  0
  2  3  1  0
  3  4  1  0
  4  5  1  0
  5  6  2  0
  6  7  1  0
  7  8  2  0
  8  9  1  0
  9 10  1  0
 10 11  2  0
 10 12  1  0
 12 13  1  0
 13 14  1  0
 14 15  1  0
 15 16  1  0
 16 17  1  0
 17 18  1  0
 18 19  2  0
  8 20  1  0
 20 21  2  0
 21 22  1  0
 22 23  2  0
 22  2  1  0
 21  5  1  0
 18 13  1  0
  1 24  1  0
  1 25  1  0
  1 26  1  0
  3 27  1  0
  3 28  1  0
  4 29  1  0
  4 30  1  0
  6 31  1  0
  7 32  1  0
  9 33  1  0
 12 34  1  0
 12 35  1  0
 14 36  1  0
 14 37  1  0
 15 38  1  0
 15 39  1  0
 16 40  1  0
 16 41  1  0
 17 42  1  0
 20 43  1  0
M  END
>  <meeko>  (1) 
{"is_sidechain": [false], "free_energy": -8.608, "intermolecular_energy": -10.118, "internal_energy": -0.591}

$$$$
ligand_80_conformer_4_docked
     RDKit          3D

 43 45  0  0  0  0  0  0  0  0999 V2000
    9.6930   48.0570   54.9930 C   0  0  0  0  0  0  0  0  0  0  0  0
    9.1240   47.1960   53.9540 N   0  0  0  0  0  0  0  0  0  0  0  0
    9.9620   46.6610   52.8740 C   0  0  0  0  0  0  0  0  0  0  0  0
    9.2200   46.7240   51.5340 C   0  0  0  0  0  0  0  0  0  0  0  0
    7.8580   46.0800   51.6350 C   0  0  0  0  0  0  0  0  0  0  0  0
    7.2750   45.4940   50.5040 C   0  0  0  0  0  0  0  0  0  0  0  0
    5.9870   44.9560   50.5720 C   0  0  0  0  0  0  0  0  0  0  0  0
    5.2610   44.9950   51.7690 C   0  0  0  0  0  0  0  0  0  0  0  0
    3.9280   44.4560   51.8030 N   0  0  0  0  0  0  0  0  0  0  0  0
    2.7500   45.2120   51.4840 C   0  0  0  0  0  0  0  0  0  0  0  0
    2.7870   46.4720   51.4410 O   0  0  0  0  0  0  0  0  0  0  0  0
    1.4620   44.5080   51.1860 C   0  0  0  0  0  0  0  0  0  0  0  0
    0.6570   44.4060   52.4090 N   0  0  0  0  0  0  0  0  0  0  0  0
    1.1350   43.5930   53.5340 C   0  0  0  0  0  0  0  0  0  0  0  0
    0.7200   44.2150   54.8690 C   0  0  0  0  0  0  0  0  0  0  0  0
   -0.8020   44.3750   54.9280 C   0  0  0  0  0  0  0  0  0  0  0  0
   -1.2930   45.1210   53.7730 N   0  0  0  0  0  0  0  0  0  0  0  0
   -0.6130   45.0770   52.5140 C   0  0  0  0  0  0  0  0  0  0  0  0
   -1.1190   45.6520   51.5130 O   0  0  0  0  0  0  0  0  0  0  0  0
    5.8260   45.6210   52.8940 C   0  0  0  0  0  0  0  0  0  0  0  0
    7.1220   46.1600   52.8340 C   0  0  0  0  0  0  0  0  0  0  0  0
    7.7370   46.8180   54.0070 C   0  0  0  0  0  0  0  0  0  0  0  0
    7.0510   47.0590   55.0380 O   0  0  0  0  0  0  0  0  0  0  0  0
    9.4298   47.6587   55.9840 H   0  0  0  0  0  0  0  0  0  0  0  0
   10.7876   48.0843   54.8877 H   0  0  0  0  0  0  0  0  0  0  0  0
    9.2890   49.0747   54.8877 H   0  0  0  0  0  0  0  0  0  0  0  0
   10.8851   47.2552   52.8044 H   0  0  0  0  0  0  0  0  0  0  0  0
   10.2015   45.6110   53.0978 H   0  0  0  0  0  0  0  0  0  0  0  0
    9.0984   47.7770   51.2400 H   0  0  0  0  0  0  0  0  0  0  0  0
    9.8094   46.1779   50.7827 H   0  0  0  0  0  0  0  0  0  0  0  0
    7.8340   45.4571   49.5573 H   0  0  0  0  0  0  0  0  0  0  0  0
    5.5395   44.4979   49.6776 H   0  0  0  0  0  0  0  0  0  0  0  0
    3.8040   43.4750   52.1390 H   0  0  0  0  0  0  0  0  0  0  0  0
    0.9030   45.0750   50.4270 H   0  0  0  0  0  0  0  0  0  0  0  0
    1.6790   43.4978   50.8085 H   0  0  0  0  0  0  0  0  0  0  0  0
    0.7052   42.5833   53.4575 H   0  0  0  0  0  0  0  0  0  0  0  0
    2.2332   43.5458   53.4933 H   0  0  0  0  0  0  0  0  0  0  0  0
    1.0489   43.5628   55.6915 H   0  0  0  0  0  0  0  0  0  0  0  0
    1.1888   45.2055   54.9644 H   0  0  0  0  0  0  0  0  0  0  0  0
   -1.2686   43.3789   54.9382 H   0  0  0  0  0  0  0  0  0  0  0  0
   -1.0617   44.9305   55.8412 H   0  0  0  0  0  0  0  0  0  0  0  0
   -2.2220   45.5950   53.8350 H   0  0  0  0  0  0  0  0  0  0  0  0
    5.2490   45.6892   53.8281 H   0  0  0  0  0  0  0  0  0  0  0  0
  1  2  1  0
  2  3  1  0
  3  4  1  0
  4  5  1  0
  5  6  2  0
  6  7  1  0
  7  8  2  0
  8  9  1  0
  9 10  1  0
 10 11  2  0
 10 12  1  0
 12 13  1  0
 13 14  1  0
 14 15  1  0
 15 16  1  0
 16 17  1  0
 17 18  1  0
 18 19  2  0
  8 20  1  0
 20 21  2  0
 21 22  1  0
 22 23  2  0
 22  2  1  0
 21  5  1  0
 18 13  1  0
  1 24  1  0
  1 25  1  0
  1 26  1  0
  3 27  1  0
  3 28  1  0
  4 29  1  0
  4 30  1  0
  6 31  1  0
  7 32  1  0
  9 33  1  0
 12 34  1  0
 12 35  1  0
 14 36  1  0
 14 37  1  0
 15 38  1  0
 15 39  1  0
 16 40  1  0
 16 41  1  0
 17 42  1  0
 20 43  1  0
M  END
>  <meeko>  (2) 
{"is_sidechain": [false], "free_energy": -8.491, "intermolecular_energy": -10.163, "internal_energy": -0.408}

$$$$
ligand_80_conformer_4_docked
     RDKit          3D

 43 45  0  0  0  0  0  0  0  0999 V2000
    9.6070   47.5620   53.7410 C   0  0  0  0  0  0  0  0  0  0  0  0
    8.6470   46.6710   53.0850 N   0  0  0  0  0  0  0  0  0  0  0  0
    8.9390   46.0840   51.7710 C   0  0  0  0  0  0  0  0  0  0  0  0
    7.6910   46.1070   50.8810 C   0  0  0  0  0  0  0  0  0  0  0  0
    6.5070   45.4880   51.5860 C   0  0  0  0  0  0  0  0  0  0  0  0
    5.4940   44.8690   50.8420 C   0  0  0  0  0  0  0  0  0  0  0  0
    4.3640   44.3530   51.4810 C   0  0  0  0  0  0  0  0  0  0  0  0
    4.2250   44.4490   52.8710 C   0  0  0  0  0  0  0  0  0  0  0  0
    3.0390   43.9320   53.4980 N   0  0  0  0  0  0  0  0  0  0  0  0
    1.8230   44.6800   53.6520 C   0  0  0  0  0  0  0  0  0  0  0  0
    1.8170   45.9330   53.5100 O   0  0  0  0  0  0  0  0  0  0  0  0
    0.5400   43.9740   53.9710 C   0  0  0  0  0  0  0  0  0  0  0  0
   -0.3740   44.0660   52.8270 N   0  0  0  0  0  0  0  0  0  0  0  0
   -1.6530   44.7740   52.9670 C   0  0  0  0  0  0  0  0  0  0  0  0
   -2.0290   45.4770   51.6610 C   0  0  0  0  0  0  0  0  0  0  0  0
   -2.0970   44.4640   50.5140 C   0  0  0  0  0  0  0  0  0  0  0  0
   -0.8530   43.7050   50.4150 N   0  0  0  0  0  0  0  0  0  0  0  0
   -0.0440   43.4490   51.5680 C   0  0  0  0  0  0  0  0  0  0  0  0
    0.9690   42.7060   51.4640 O   0  0  0  0  0  0  0  0  0  0  0  0
    5.2190   45.1080   53.6160 C   0  0  0  0  0  0  0  0  0  0  0  0
    6.3610   45.6250   52.9810 C   0  0  0  0  0  0  0  0  0  0  0  0
    7.4200   46.3160   53.7460 C   0  0  0  0  0  0  0  0  0  0  0  0
    7.2450   46.6070   54.9620 O   0  0  0  0  0  0  0  0  0  0  0  0
    9.5069   47.4691   54.8325 H   0  0  0  0  0  0  0  0  0  0  0  0
   10.6285   47.2847   53.4416 H   0  0  0  0  0  0  0  0  0  0  0  0
    9.4065   48.6013   53.4416 H   0  0  0  0  0  0  0  0  0  0  0  0
    9.7394   46.6623   51.2864 H   0  0  0  0  0  0  0  0  0  0  0  0
    9.2557   45.0399   51.9112 H   0  0  0  0  0  0  0  0  0  0  0  0
    7.4516   47.1497   50.6253 H   0  0  0  0  0  0  0  0  0  0  0  0
    7.8999   45.5235   49.9722 H   0  0  0  0  0  0  0  0  0  0  0  0
    5.5889   44.7889   49.7490 H   0  0  0  0  0  0  0  0  0  0  0  0
    3.5762   43.8668   50.8868 H   0  0  0  0  0  0  0  0  0  0  0  0
    3.0830   42.9780   53.9230 H   0  0  0  0  0  0  0  0  0  0  0  0
    0.7491   42.9160   54.1875 H   0  0  0  0  0  0  0  0  0  0  0  0
    0.0735   44.4459   54.8483 H   0  0  0  0  0  0  0  0  0  0  0  0
   -2.4396   44.0502   53.2267 H   0  0  0  0  0  0  0  0  0  0  0  0
   -1.5531   45.5305   53.7593 H   0  0  0  0  0  0  0  0  0  0  0  0
   -3.0106   45.9596   51.7779 H   0  0  0  0  0  0  0  0  0  0  0  0
   -1.2640   46.2321   51.4274 H   0  0  0  0  0  0  0  0  0  0  0  0
   -2.9296   43.7687   50.6964 H   0  0  0  0  0  0  0  0  0  0  0  0
   -2.2518   45.0098   49.5716 H   0  0  0  0  0  0  0  0  0  0  0  0
   -0.6160   43.2390   49.5100 H   0  0  0  0  0  0  0  0  0  0  0  0
    5.1017   45.2196   54.7040 H   0  0  0  0  0  0  0  0  0  0  0  0
  1  2  1  0
  2  3  1  0
  3  4  1  0
  4  5  1  0
  5  6  2  0
  6  7  1  0
  7  8  2  0
  8  9  1  0
  9 10  1  0
 10 11  2  0
 10 12  1  0
 12 13  1  0
 13 14  1  0
 14 15  1  0
 15 16  1  0
 16 17  1  0
 17 18  1  0
 18 19  2  0
  8 20  1  0
 20 21  2  0
 21 22  1  0
 22 23  2  0
 22  2  1  0
 21  5  1  0
 18 13  1  0
  1 24  1  0
  1 25  1  0
  1 26  1  0
  3 27  1  0
  3 28  1  0
  4 29  1  0
  4 30  1  0
  6 31  1  0
  7 32  1  0
  9 33  1  0
 12 34  1  0
 12 35  1  0
 14 36  1  0
 14 37  1  0
 15 38  1  0
 15 39  1  0
 16 40  1  0
 16 41  1  0
 17 42  1  0
 20 43  1  0
M  END
>  <meeko>  (3) 
{"is_sidechain": [false], "free_energy": -8.269, "intermolecular_energy": -9.781, "internal_energy": -0.528}

$$$$
ligand_80_conformer_4_docked
     RDKit          3D

 43 45  0  0  0  0  0  0  0  0999 V2000
    9.6100   47.6050   53.6170 C   0  0  0  0  0  0  0  0  0  0  0  0
    8.6590   46.6800   52.9960 N   0  0  0  0  0  0  0  0  0  0  0  0
    8.9400   46.0760   51.6870 C   0  0  0  0  0  0  0  0  0  0  0  0
    7.6750   46.0530   50.8220 C   0  0  0  0  0  0  0  0  0  0  0  0
    6.5190   45.4200   51.5600 C   0  0  0  0  0  0  0  0  0  0  0  0
    5.5080   44.7640   50.8480 C   0  0  0  0  0  0  0  0  0  0  0  0
    4.4020   44.2340   51.5180 C   0  0  0  0  0  0  0  0  0  0  0  0
    4.2880   44.3520   52.9090 C   0  0  0  0  0  0  0  0  0  0  0  0
    3.1270   43.8190   53.5680 N   0  0  0  0  0  0  0  0  0  0  0  0
    1.8800   44.5210   53.6880 C   0  0  0  0  0  0  0  0  0  0  0  0
    1.8200   45.7640   53.4790 O   0  0  0  0  0  0  0  0  0  0  0  0
    0.6300   43.7790   54.0500 C   0  0  0  0  0  0  0  0  0  0  0  0
   -0.1000   44.5150   55.0880 N   0  0  0  0  0  0  0  0  0  0  0  0
    0.5010   44.6980   56.4150 C   0  0  0  0  0  0  0  0  0  0  0  0
    0.1030   46.0520   57.0090 C   0  0  0  0  0  0  0  0  0  0  0  0
   -1.4220   46.1680   57.0880 C   0  0  0  0  0  0  0  0  0  0  0  0
   -2.0320   45.9150   55.7850 N   0  0  0  0  0  0  0  0  0  0  0  0
   -1.4150   45.0440   54.8310 C   0  0  0  0  0  0  0  0  0  0  0  0
   -2.0180   44.7700   53.7580 O   0  0  0  0  0  0  0  0  0  0  0  0
    5.2800   45.0470   53.6220 C   0  0  0  0  0  0  0  0  0  0  0  0
    6.3970   45.5790   52.9550 C   0  0  0  0  0  0  0  0  0  0  0  0
    7.4540   46.3090   53.6870 C   0  0  0  0  0  0  0  0  0  0  0  0
    7.2960   46.6180   54.9000 O   0  0  0  0  0  0  0  0  0  0  0  0
    9.5329   47.5300   54.7117 H   0  0  0  0  0  0  0  0  0  0  0  0
   10.6319   47.3460   53.3028 H   0  0  0  0  0  0  0  0  0  0  0  0
    9.3794   48.6336   53.3028 H   0  0  0  0  0  0  0  0  0  0  0  0
    9.7167   46.6643   51.1764 H   0  0  0  0  0  0  0  0  0  0  0  0
    9.2848   45.0426   51.8394 H   0  0  0  0  0  0  0  0  0  0  0  0
    7.4063   47.0850   50.5521 H   0  0  0  0  0  0  0  0  0  0  0  0
    7.8806   45.4569   49.9207 H   0  0  0  0  0  0  0  0  0  0  0  0
    5.5845   44.6651   49.7551 H   0  0  0  0  0  0  0  0  0  0  0  0
    3.6142   43.7197   50.9480 H   0  0  0  0  0  0  0  0  0  0  0  0
    3.2130   42.8920   54.0430 H   0  0  0  0  0  0  0  0  0  0  0  0
   -0.0060   43.6775   53.1582 H   0  0  0  0  0  0  0  0  0  0  0  0
    0.8961   42.7816   54.4301 H   0  0  0  0  0  0  0  0  0  0  0  0
    0.1538   43.8952   57.0821 H   0  0  0  0  0  0  0  0  0  0  0  0
    1.5959   44.6648   56.3143 H   0  0  0  0  0  0  0  0  0  0  0  0
    0.5271   46.1440   58.0198 H   0  0  0  0  0  0  0  0  0  0  0  0
    0.4908   46.8544   56.3642 H   0  0  0  0  0  0  0  0  0  0  0  0
   -1.8021   45.4327   57.8125 H   0  0  0  0  0  0  0  0  0  0  0  0
   -1.6809   47.1890   57.4051 H   0  0  0  0  0  0  0  0  0  0  0  0
   -2.9930   46.2800   55.5980 H   0  0  0  0  0  0  0  0  0  0  0  0
    5.1815   45.1755   54.7100 H   0  0  0  0  0  0  0  0  0  0  0  0
  1  2  1  0
  2  3  1  0
  3  4  1  0
  4  5  1  0
  5  6  2  0
  6  7  1  0
  7  8  2  0
  8  9  1  0
  9 10  1  0
 10 11  2  0
 10 12  1  0
 12 13  1  0
 13 14  1  0
 14 15  1  0
 15 16  1  0
 16 17  1  0
 17 18  1  0
 18 19  2  0
  8 20  1  0
 20 21  2  0
 21 22  1  0
 22 23  2  0
 22  2  1  0
 21  5  1  0
 18 13  1  0
  1 24  1  0
  1 25  1  0
  1 26  1  0
  3 27  1  0
  3 28  1  0
  4 29  1  0
  4 30  1  0
  6 31  1  0
  7 32  1  0
  9 33  1  0
 12 34  1  0
 12 35  1  0
 14 36  1  0
 14 37  1  0
 15 38  1  0
 15 39  1  0
 16 40  1  0
 16 41  1  0
 17 42  1  0
 20 43  1  0
M  END
>  <meeko>  (4) 
{"is_sidechain": [false], "free_energy": -8.129, "intermolecular_energy": -9.665, "internal_energy": -0.48}

$$$$
ligand_80_conformer_4_docked
     RDKit          3D

 43 45  0  0  0  0  0  0  0  0999 V2000
   -0.5630   47.9760   59.5670 C   0  0  0  0  0  0  0  0  0  0  0  0
   -0.6650   47.2820   58.2820 N   0  0  0  0  0  0  0  0  0  0  0  0
   -1.9150   47.3000   57.5110 C   0  0  0  0  0  0  0  0  0  0  0  0
   -2.1980   45.9190   56.9100 C   0  0  0  0  0  0  0  0  0  0  0  0
   -1.0050   45.4040   56.1410 C   0  0  0  0  0  0  0  0  0  0  0  0
   -1.1910   44.5270   55.0650 C   0  0  0  0  0  0  0  0  0  0  0  0
   -0.0900   43.9940   54.3900 C   0  0  0  0  0  0  0  0  0  0  0  0
    1.2140   44.3260   54.7790 C   0  0  0  0  0  0  0  0  0  0  0  0
    2.3270   43.7420   54.0820 N   0  0  0  0  0  0  0  0  0  0  0  0
    3.0340   44.3920   53.0140 C   0  0  0  0  0  0  0  0  0  0  0  0
    2.5350   45.3910   52.4280 O   0  0  0  0  0  0  0  0  0  0  0  0
    4.3840   43.8950   52.5930 C   0  0  0  0  0  0  0  0  0  0  0  0
    5.4090   44.8830   52.9500 N   0  0  0  0  0  0  0  0  0  0  0  0
    6.1440   45.5890   51.8940 C   0  0  0  0  0  0  0  0  0  0  0  0
    6.4720   47.0210   52.3250 C   0  0  0  0  0  0  0  0  0  0  0  0
    7.2770   47.0110   53.6280 C   0  0  0  0  0  0  0  0  0  0  0  0
    6.5850   46.2470   54.6630 N   0  0  0  0  0  0  0  0  0  0  0  0
    5.7220   45.1540   54.3300 C   0  0  0  0  0  0  0  0  0  0  0  0
    5.2200   44.4550   55.2510 O   0  0  0  0  0  0  0  0  0  0  0  0
    1.4050   45.1720   55.8860 C   0  0  0  0  0  0  0  0  0  0  0  0
    0.3020   45.7160   56.5660 C   0  0  0  0  0  0  0  0  0  0  0  0
    0.4810   46.6110   57.7290 C   0  0  0  0  0  0  0  0  0  0  0  0
    1.6220   46.7750   58.2410 O   0  0  0  0  0  0  0  0  0  0  0  0
   -0.6698   47.2492   60.3857 H   0  0  0  0  0  0  0  0  0  0  0  0
    0.4173   48.4695   59.6404 H   0  0  0  0  0  0  0  0  0  0  0  0
   -1.3599   48.7307   59.6404 H   0  0  0  0  0  0  0  0  0  0  0  0
   -2.7453   47.5823   58.1750 H   0  0  0  0  0  0  0  0  0  0  0  0
   -1.8168   48.0292   56.6933 H   0  0  0  0  0  0  0  0  0  0  0  0
   -2.4325   45.2153   57.7223 H   0  0  0  0  0  0  0  0  0  0  0  0
   -3.0476   46.0079   56.2169 H   0  0  0  0  0  0  0  0  0  0  0  0
   -2.2095   44.2564   54.7496 H   0  0  0  0  0  0  0  0  0  0  0  0
   -0.2486   43.3074   53.5454 H   0  0  0  0  0  0  0  0  0  0  0  0
    2.5990   42.7620   54.3230 H   0  0  0  0  0  0  0  0  0  0  0  0
    4.5990   42.9445   53.1032 H   0  0  0  0  0  0  0  0  0  0  0  0
    4.3915   43.7400   51.5040 H   0  0  0  0  0  0  0  0  0  0  0  0
    7.0808   45.0515   51.6854 H   0  0  0  0  0  0  0  0  0  0  0  0
    5.5158   45.6272   50.9919 H   0  0  0  0  0  0  0  0  0  0  0  0
    7.0626   47.5112   51.5370 H   0  0  0  0  0  0  0  0  0  0  0  0
    5.5330   47.5703   52.4879 H   0  0  0  0  0  0  0  0  0  0  0  0
    8.2601   46.5547   53.4403 H   0  0  0  0  0  0  0  0  0  0  0  0
    7.3945   48.0478   53.9762 H   0  0  0  0  0  0  0  0  0  0  0  0
    6.8200   46.4260   55.6650 H   0  0  0  0  0  0  0  0  0  0  0  0
    2.4251   45.4096   56.2221 H   0  0  0  0  0  0  0  0  0  0  0  0
  1  2  1  0
  2  3  1  0
  3  4  1  0
  4  5  1  0
  5  6  2  0
  6  7  1  0
  7  8  2  0
  8  9  1  0
  9 10  1  0
 10 11  2  0
 10 12  1  0
 12 13  1  0
 13 14  1  0
 14 15  1  0
 15 16  1  0
 16 17  1  0
 17 18  1  0
 18 19  2  0
  8 20  1  0
 20 21  2  0
 21 22  1  0
 22 23  2  0
 22  2  1  0
 21  5  1  0
 18 13  1  0
  1 24  1  0
  1 25  1  0
  1 26  1  0
  3 27  1  0
  3 28  1  0
  4 29  1  0
  4 30  1  0
  6 31  1  0
  7 32  1  0
  9 33  1  0
 12 34  1  0
 12 35  1  0
 14 36  1  0
 14 37  1  0
 15 38  1  0
 15 39  1  0
 16 40  1  0
 16 41  1  0
 17 42  1  0
 20 43  1  0
M  END
>  <meeko>  (5) 
{"is_sidechain": [false], "free_energy": -7.138, "intermolecular_energy": -8.365, "internal_energy": -0.616}

$$$$
