MODEL 1
REMARK VINA RESULT:    -8.255      0.000      0.000
REMARK INTER + INTRA:          -9.000
REMARK INTER:                  -8.979
REMARK INTRA:                  -0.021
REMARK UNBOUND:                -0.021
REMARK SMILES O=C(c1ccc2scnc2c1)N1CCC2(CCC(O)CC2)CC1
REMARK SMILES IDX 1 1 2 2 12 3 13 4 14 5 15 6 16 7 17 8 18 9 20 10 21 11 22 12
REMARK SMILES IDX 23 13 3 14 4 15 11 16 5 17 10 18 6 19 9 20 7 21 8 22 19 23
REMARK H PARENT 19 24
ROOT
ATOM      1  O   UNL     1       4.577  43.214  50.824  1.00  0.00    -0.269 OA
ATOM      2  C   UNL     1       4.544  44.143  51.676  1.00  0.00     0.253 C 
ATOM      3  N   UNL     1       3.323  44.400  52.396  1.00  0.00    -0.339 N 
ATOM      4  C   UNL     1       2.376  43.300  52.622  1.00  0.00     0.120 C 
ATOM      5  C   UNL     1       1.451  43.631  53.797  1.00  0.00     0.028 C 
ATOM      6  C   UNL     1       0.632  44.954  53.582  1.00  0.00    -0.026 C 
ATOM      7  C   UNL     1       0.452  45.669  54.952  1.00  0.00     0.010 C 
ATOM      8  C   UNL     1      -0.369  44.838  55.958  1.00  0.00     0.032 C 
ATOM      9  C   UNL     1      -1.610  44.152  55.339  1.00  0.00     0.114 C 
ATOM     10  C   UNL     1      -1.954  44.719  53.953  1.00  0.00     0.032 C 
ATOM     11  C   UNL     1      -0.777  44.629  52.962  1.00  0.00     0.010 C 
ATOM     12  C   UNL     1       1.399  45.921  52.616  1.00  0.00     0.028 C 
ATOM     13  C   UNL     1       2.922  45.778  52.719  1.00  0.00     0.120 C 
ENDROOT
BRANCH   2  14
ATOM     14  C   UNL     1       5.765  44.946  51.910  1.00  0.00     0.042 A 
ATOM     15  C   UNL     1       6.638  45.234  50.832  1.00  0.00     0.015 A 
ATOM     16  C   UNL     1       6.088  45.398  53.209  1.00  0.00     0.043 A 
ATOM     17  C   UNL     1       7.804  45.986  51.037  1.00  0.00     0.022 A 
ATOM     18  C   UNL     1       7.251  46.144  53.396  1.00  0.00     0.082 A 
ATOM     19  C   UNL     1       8.081  46.429  52.326  1.00  0.00     0.054 A 
ATOM     20  N   UNL     1       7.664  46.634  54.594  1.00  0.00    -0.245 NA
ATOM     21  S   UNL     1       9.386  47.329  52.872  1.00  0.00    -0.122 S 
ATOM     22  C   UNL     1       8.829  47.316  54.470  1.00  0.00     0.176 A 
ENDBRANCH   2  14
BRANCH   9  23
ATOM     23  O   UNL     1      -1.397  42.765  55.254  1.00  0.00    -0.393 OA
ATOM     24  H   UNL     1      -1.059  42.470  56.140  1.00  0.00     0.210 HD
ENDBRANCH   9  23
TORSDOF 2
ENDMDL
MODEL 2
REMARK VINA RESULT:    -8.228      1.985      2.571
REMARK INTER + INTRA:          -8.970
REMARK INTER:                  -8.700
REMARK INTRA:                  -0.271
REMARK UNBOUND:                -0.021
REMARK SMILES O=C(c1ccc2scnc2c1)N1CCC2(CCC(O)CC2)CC1
REMARK SMILES IDX 1 1 2 2 12 3 13 4 14 5 15 6 16 7 17 8 18 9 20 10 21 11 22 12
REMARK SMILES IDX 23 13 3 14 4 15 11 16 5 17 10 18 6 19 9 20 7 21 8 22 19 23
REMARK H PARENT 19 24
ROOT
ATOM      1  O   UNL     1       3.640  48.526  53.051  1.00  0.00    -0.269 OA
ATOM      2  C   UNL     1       4.059  47.338  53.112  1.00  0.00     0.253 C 
ATOM      3  N   UNL     1       3.114  46.261  53.253  1.00  0.00    -0.339 N 
ATOM      4  C   UNL     1       1.752  46.426  52.729  1.00  0.00     0.120 C 
ATOM      5  C   UNL     1       1.099  45.057  52.510  1.00  0.00     0.028 C 
ATOM      6  C   UNL     1       1.025  44.195  53.821  1.00  0.00    -0.026 C 
ATOM      7  C   UNL     1       1.210  42.694  53.453  1.00  0.00     0.010 C 
ATOM      8  C   UNL     1       0.086  42.157  52.545  1.00  0.00     0.032 C 
ATOM      9  C   UNL     1      -1.330  42.625  52.958  1.00  0.00     0.114 C 
ATOM     10  C   UNL     1      -1.353  43.230  54.369  1.00  0.00     0.032 C 
ATOM     11  C   UNL     1      -0.363  44.401  54.532  1.00  0.00     0.010 C 
ATOM     12  C   UNL     1       2.168  44.606  54.812  1.00  0.00     0.028 C 
ATOM     13  C   UNL     1       3.430  45.095  54.092  1.00  0.00     0.120 C 
ENDROOT
BRANCH   2  14
ATOM     14  C   UNL     1       5.516  47.086  53.038  1.00  0.00     0.042 A 
ATOM     15  C   UNL     1       6.060  46.411  51.917  1.00  0.00     0.015 A 
ATOM     16  C   UNL     1       6.366  47.482  54.094  1.00  0.00     0.043 A 
ATOM     17  C   UNL     1       7.437  46.156  51.835  1.00  0.00     0.022 A 
ATOM     18  C   UNL     1       7.733  47.221  53.997  1.00  0.00     0.082 A 
ATOM     19  C   UNL     1       8.246  46.575  52.886  1.00  0.00     0.054 A 
ATOM     20  N   UNL     1       8.647  47.555  54.943  1.00  0.00    -0.245 NA
ATOM     21  S   UNL     1       9.904  46.406  53.069  1.00  0.00    -0.122 S 
ATOM     22  C   UNL     1       9.895  47.174  54.578  1.00  0.00     0.176 A 
ENDBRANCH   2  14
BRANCH   9  23
ATOM     23  O   UNL     1      -1.816  43.557  52.024  1.00  0.00    -0.393 OA
ATOM     24  H   UNL     1      -1.866  43.091  51.149  1.00  0.00     0.210 HD
ENDBRANCH   9  23
TORSDOF 2
ENDMDL
MODEL 3
REMARK VINA RESULT:    -8.224      3.423      7.956
REMARK INTER + INTRA:          -8.966
REMARK INTER:                  -8.707
REMARK INTRA:                  -0.259
REMARK UNBOUND:                -0.021
REMARK SMILES O=C(c1ccc2scnc2c1)N1CCC2(CCC(O)CC2)CC1
REMARK SMILES IDX 1 1 2 2 12 3 13 4 14 5 15 6 16 7 17 8 18 9 20 10 21 11 22 12
REMARK SMILES IDX 23 13 3 14 4 15 11 16 5 17 10 18 6 19 9 20 7 21 8 22 19 23
REMARK H PARENT 19 24
ROOT
ATOM      1  O   UNL     1       2.782  44.956  55.432  1.00  0.00    -0.269 OA
ATOM      2  C   UNL     1       2.927  44.946  54.179  1.00  0.00     0.253 C 
ATOM      3  N   UNL     1       4.172  45.391  53.608  1.00  0.00    -0.339 N 
ATOM      4  C   UNL     1       5.408  45.263  54.390  1.00  0.00     0.120 C 
ATOM      5  C   UNL     1       6.627  45.293  53.461  1.00  0.00     0.028 C 
ATOM      6  C   UNL     1       6.715  46.606  52.604  1.00  0.00    -0.026 C 
ATOM      7  C   UNL     1       7.314  46.264  51.210  1.00  0.00     0.010 C 
ATOM      8  C   UNL     1       8.758  45.730  51.292  1.00  0.00     0.032 C 
ATOM      9  C   UNL     1       9.656  46.503  52.287  1.00  0.00     0.114 C 
ATOM     10  C   UNL     1       9.029  47.838  52.717  1.00  0.00     0.032 C 
ATOM     11  C   UNL     1       7.624  47.668  53.327  1.00  0.00     0.010 C 
ATOM     12  C   UNL     1       5.288  47.219  52.394  1.00  0.00     0.028 C 
ATOM     13  C   UNL     1       4.186  46.155  52.351  1.00  0.00     0.120 C 
ENDROOT
BRANCH   2  14
ATOM     14  C   UNL     1       1.808  44.477  53.331  1.00  0.00     0.042 A 
ATOM     15  C   UNL     1       1.840  43.173  52.777  1.00  0.00     0.015 A 
ATOM     16  C   UNL     1       0.724  45.333  53.037  1.00  0.00     0.043 A 
ATOM     17  C   UNL     1       0.793  42.715  51.964  1.00  0.00     0.022 A 
ATOM     18  C   UNL     1      -0.310  44.863  52.227  1.00  0.00     0.082 A 
ATOM     19  C   UNL     1      -0.267  43.580  51.710  1.00  0.00     0.054 A 
ATOM     20  N   UNL     1      -1.403  45.590  51.878  1.00  0.00    -0.245 NA
ATOM     21  S   UNL     1      -1.638  43.320  50.781  1.00  0.00    -0.122 S 
ATOM     22  C   UNL     1      -2.234  44.876  51.082  1.00  0.00     0.176 A 
ENDBRANCH   2  14
BRANCH   9  23
ATOM     23  O   UNL     1       9.915  45.705  53.415  1.00  0.00    -0.393 OA
ATOM     24  H   UNL     1       9.053  45.291  53.681  1.00  0.00     0.210 HD
ENDBRANCH   9  23
TORSDOF 2
ENDMDL
MODEL 4
REMARK VINA RESULT:    -8.027      4.836      7.045
REMARK INTER + INTRA:          -8.752
REMARK INTER:                  -8.708
REMARK INTRA:                  -0.043
REMARK UNBOUND:                -0.021
REMARK SMILES O=C(c1ccc2scnc2c1)N1CCC2(CCC(O)CC2)CC1
REMARK SMILES IDX 1 1 2 2 12 3 13 4 14 5 15 6 16 7 17 8 18 9 20 10 21 11 22 12
REMARK SMILES IDX 23 13 3 14 4 15 11 16 5 17 10 18 6 19 9 20 7 21 8 22 19 23
REMARK H PARENT 19 24
ROOT
ATOM      1  O   UNL     1       7.269  41.701  49.863  1.00  0.00    -0.269 OA
ATOM      2  C   UNL     1       6.099  42.102  49.610  1.00  0.00     0.253 C 
ATOM      3  N   UNL     1       5.481  43.070  50.479  1.00  0.00    -0.339 N 
ATOM      4  C   UNL     1       6.327  44.012  51.225  1.00  0.00     0.120 C 
ATOM      5  C   UNL     1       5.508  45.235  51.651  1.00  0.00     0.028 C 
ATOM      6  C   UNL     1       4.270  44.865  52.544  1.00  0.00    -0.026 C 
ATOM      7  C   UNL     1       3.102  45.843  52.224  1.00  0.00     0.010 C 
ATOM      8  C   UNL     1       3.435  47.308  52.570  1.00  0.00     0.032 C 
ATOM      9  C   UNL     1       4.164  47.482  53.923  1.00  0.00     0.114 C 
ATOM     10  C   UNL     1       4.092  46.214  54.788  1.00  0.00     0.032 C 
ATOM     11  C   UNL     1       4.647  44.969  54.068  1.00  0.00     0.010 C 
ATOM     12  C   UNL     1       3.791  43.404  52.239  1.00  0.00     0.028 C 
ATOM     13  C   UNL     1       4.044  42.989  50.785  1.00  0.00     0.120 C 
ENDROOT
BRANCH   2  14
ATOM     14  C   UNL     1       5.396  41.563  48.426  1.00  0.00     0.042 A 
ATOM     15  C   UNL     1       5.722  42.040  47.132  1.00  0.00     0.015 A 
ATOM     16  C   UNL     1       4.373  40.600  48.576  1.00  0.00     0.043 A 
ATOM     17  C   UNL     1       5.059  41.546  45.999  1.00  0.00     0.022 A 
ATOM     18  C   UNL     1       3.724  40.118  47.440  1.00  0.00     0.082 A 
ATOM     19  C   UNL     1       4.070  40.586  46.184  1.00  0.00     0.054 A 
ATOM     20  N   UNL     1       2.730  39.193  47.458  1.00  0.00    -0.245 NA
ATOM     21  S   UNL     1       3.114  39.826  45.036  1.00  0.00    -0.122 S 
ATOM     22  C   UNL     1       2.288  38.922  46.206  1.00  0.00     0.176 A 
ENDBRANCH   2  14
BRANCH   9  23
ATOM     23  O   UNL     1       5.505  47.840  53.701  1.00  0.00    -0.393 OA
ATOM     24  H   UNL     1       5.778  48.424  54.455  1.00  0.00     0.210 HD
ENDBRANCH   9  23
TORSDOF 2
ENDMDL
MODEL 5
REMARK VINA RESULT:    -7.914      3.205      7.764
REMARK INTER + INTRA:          -8.629
REMARK INTER:                  -8.367
REMARK INTRA:                  -0.262
REMARK UNBOUND:                -0.021
REMARK SMILES O=C(c1ccc2scnc2c1)N1CCC2(CCC(O)CC2)CC1
REMARK SMILES IDX 1 1 2 2 12 3 13 4 14 5 15 6 16 7 17 8 18 9 20 10 21 11 22 12
REMARK SMILES IDX 23 13 3 14 4 15 11 16 5 17 10 18 6 19 9 20 7 21 8 22 19 23
REMARK H PARENT 19 24
ROOT
ATOM      1  O   UNL     1       3.684  42.235  52.077  1.00  0.00    -0.269 OA
ATOM      2  C   UNL     1       3.394  43.427  52.372  1.00  0.00     0.253 C 
ATOM      3  N   UNL     1       4.453  44.380  52.585  1.00  0.00    -0.339 N 
ATOM      4  C   UNL     1       5.739  44.191  51.902  1.00  0.00     0.120 C 
ATOM      5  C   UNL     1       6.504  45.517  51.840  1.00  0.00     0.028 C 
ATOM      6  C   UNL     1       6.781  46.135  53.257  1.00  0.00    -0.026 C 
ATOM      7  C   UNL     1       6.717  47.686  53.156  1.00  0.00     0.010 C 
ATOM      8  C   UNL     1       7.805  48.273  52.234  1.00  0.00     0.032 C 
ATOM      9  C   UNL     1       9.198  47.623  52.416  1.00  0.00     0.114 C 
ATOM     10  C   UNL     1       9.284  46.787  53.702  1.00  0.00     0.032 C 
ATOM     11  C   UNL     1       8.199  45.694  53.777  1.00  0.00     0.010 C 
ATOM     12  C   UNL     1       5.695  45.660  54.283  1.00  0.00     0.028 C 
ATOM     13  C   UNL     1       4.331  45.410  53.629  1.00  0.00     0.120 C 
ENDROOT
BRANCH   2  14
ATOM     14  C   UNL     1       1.970  43.810  52.491  1.00  0.00     0.042 A 
ATOM     15  C   UNL     1       1.340  44.525  51.442  1.00  0.00     0.015 A 
ATOM     16  C   UNL     1       1.240  43.502  53.661  1.00  0.00     0.043 A 
ATOM     17  C   UNL     1      -0.007  44.904  51.542  1.00  0.00     0.022 A 
ATOM     18  C   UNL     1      -0.098  43.886  53.745  1.00  0.00     0.082 A 
ATOM     19  C   UNL     1      -0.698  44.568  52.702  1.00  0.00     0.054 A 
ATOM     20  N   UNL     1      -0.900  43.644  54.814  1.00  0.00    -0.245 NA
ATOM     21  S   UNL     1      -2.293  44.890  53.105  1.00  0.00    -0.122 S 
ATOM     22  C   UNL     1      -2.147  44.135  54.614  1.00  0.00     0.176 A 
ENDBRANCH   2  14
BRANCH   9  23
ATOM     23  O   UNL     1       9.502  46.825  51.300  1.00  0.00    -0.393 OA
ATOM     24  H   UNL     1       9.077  47.255  50.513  1.00  0.00     0.210 HD
ENDBRANCH   9  23
TORSDOF 2
ENDMDL
