ligand_60_conformer_3_docked
     RDKit          3D

 44 47  0  0  0  0  0  0  0  0999 V2000
    9.7610   46.8820   53.1560 C   0  0  0  0  0  0  0  0  0  0  0  0
    8.8390   47.0270   51.9380 C   0  0  2  0  0  0  0  0  0  0  0  0
    7.4410   47.5620   52.3500 C   0  0  0  0  0  0  0  0  0  0  0  0
    6.4380   46.4220   52.5620 C   0  0  0  0  0  0  0  0  0  0  0  0
    6.2050   45.5950   51.2490 C   0  0  2  0  0  0  0  0  0  0  0  0
    4.9870   46.1580   50.4840 C   0  0  0  0  0  0  0  0  0  0  0  0
    3.7780   45.4110   51.0320 C   0  0  0  0  0  0  0  0  0  0  0  0
    4.3070   44.1810   51.5970 N   0  0  0  0  0  0  0  0  0  0  0  0
    3.4570   43.1390   52.1120 C   0  0  0  0  0  0  0  0  0  0  0  0
    3.6880   41.9420   51.7930 O   0  0  0  0  0  0  0  0  0  0  0  0
    2.3210   43.4250   53.0120 C   0  0  0  0  0  0  0  0  0  0  0  0
    1.0320   42.9480   52.8550 C   0  0  0  0  0  0  0  0  0  0  0  0
    0.3080   43.4540   53.9140 C   0  0  0  0  0  0  0  0  0  0  0  0
    1.2030   44.2050   54.6510 C   0  0  0  0  0  0  0  0  0  0  0  0
    0.9000   44.9440   55.8790 C   0  0  0  0  0  0  0  0  0  0  0  0
   -0.2900   44.9230   56.5100 N   0  0  0  0  0  0  0  0  0  0  0  0
   -0.1300   45.7140   57.5580 N   0  0  0  0  0  0  0  0  0  0  0  0
    1.1030   46.1910   57.5570 N   0  0  0  0  0  0  0  0  0  0  0  0
    1.7830   45.7320   56.5210 N   0  0  0  0  0  0  0  0  0  0  0  0
    2.3890   44.1690   54.0930 O   0  0  0  0  0  0  0  0  0  0  0  0
    5.7620   44.1560   51.6040 C   0  0  0  0  0  0  0  0  0  0  0  0
    7.4720   45.6050   50.3350 C   0  0  0  0  0  0  0  0  0  0  0  0
    8.7610   45.6890   51.1600 C   0  0  0  0  0  0  0  0  0  0  0  0
    9.1681   46.9752   54.0778 H   0  0  0  0  0  0  0  0  0  0  0  0
   10.2484   45.8962   53.1316 H   0  0  0  0  0  0  0  0  0  0  0  0
   10.5274   47.6706   53.1316 H   0  0  0  0  0  0  0  0  0  0  0  0
    9.2670   47.7771   51.2567 H   0  0  0  0  0  0  0  0  0  0  0  0
    7.5385   48.1300   53.2870 H   0  0  0  0  0  0  0  0  0  0  0  0
    7.0659   48.2025   51.5382 H   0  0  0  0  0  0  0  0  0  0  0  0
    6.8240   45.7493   53.3420 H   0  0  0  0  0  0  0  0  0  0  0  0
    5.4765   46.8653   52.8604 H   0  0  0  0  0  0  0  0  0  0  0  0
    4.8855   47.2382   50.6653 H   0  0  0  0  0  0  0  0  0  0  0  0
    5.0908   46.0226   49.3973 H   0  0  0  0  0  0  0  0  0  0  0  0
    3.2772   46.0071   51.8091 H   0  0  0  0  0  0  0  0  0  0  0  0
    3.0306   45.2131   50.2495 H   0  0  0  0  0  0  0  0  0  0  0  0
    0.6603   42.2976   52.0495 H   0  0  0  0  0  0  0  0  0  0  0  0
   -0.7591   43.2932   54.1273 H   0  0  0  0  0  0  0  0  0  0  0  0
    1.4880   46.8380   58.2790 H   0  0  0  0  0  0  0  0  0  0  0  0
    6.1363   43.8736   52.5990 H   0  0  0  0  0  0  0  0  0  0  0  0
    6.1597   43.4200   50.8897 H   0  0  0  0  0  0  0  0  0  0  0  0
    7.4893   44.6810   49.7385 H   0  0  0  0  0  0  0  0  0  0  0  0
    7.4208   46.4908   49.6849 H   0  0  0  0  0  0  0  0  0  0  0  0
    8.7839   44.8548   51.8767 H   0  0  0  0  0  0  0  0  0  0  0  0
    9.6192   45.6330   50.4741 H   0  0  0  0  0  0  0  0  0  0  0  0
  1  2  1  0
  2  3  1  0
  3  4  1  0
  5  4  1  6
  5  6  1  0
  6  7  1  0
  7  8  1  0
  8  9  1  0
  9 10  2  0
  9 11  1  0
 11 12  2  0
 12 13  1  0
 13 14  2  0
 14 15  1  0
 15 16  1  0
 16 17  2  0
 17 18  1  0
 18 19  1  0
 14 20  1  0
  8 21  1  0
  5 22  1  0
 22 23  1  0
 23  2  1  0
 21  5  1  0
 20 11  1  0
 19 15  2  0
  1 24  1  0
  1 25  1  0
  1 26  1  0
  2 27  1  1
  3 28  1  0
  3 29  1  0
  4 30  1  0
  4 31  1  0
  6 32  1  0
  6 33  1  0
  7 34  1  0
  7 35  1  0
 12 36  1  0
 13 37  1  0
 18 38  1  0
 21 39  1  0
 21 40  1  0
 22 41  1  0
 22 42  1  0
 23 43  1  0
 23 44  1  0
M  END
>  <meeko>  (1) 
{"is_sidechain": [false], "free_energy": -8.849, "intermolecular_energy": -10.401, "internal_energy": -0.469}

$$$$
ligand_60_conformer_3_docked
     RDKit          3D

 44 47  0  0  0  0  0  0  0  0999 V2000
    8.6490   46.3130   52.6550 C   0  0  0  0  0  0  0  0  0  0  0  0
    7.4530   46.7030   51.7760 C   0  0  2  0  0  0  0  0  0  0  0  0
    6.4110   47.5280   52.5770 C   0  0  0  0  0  0  0  0  0  0  0  0
    5.2930   46.6400   53.1360 C   0  0  0  0  0  0  0  0  0  0  0  0
    4.4840   45.9290   51.9950 C   0  0  2  0  0  0  0  0  0  0  0  0
    3.2490   46.7780   51.6200 C   0  0  0  0  0  0  0  0  0  0  0  0
    2.1330   46.3090   52.5450 C   0  0  0  0  0  0  0  0  0  0  0  0
    2.5200   44.9740   52.9700 N   0  0  0  0  0  0  0  0  0  0  0  0
    1.6590   44.1370   53.7660 C   0  0  0  0  0  0  0  0  0  0  0  0
    1.5960   42.9040   53.5140 O   0  0  0  0  0  0  0  0  0  0  0  0
    0.8480   44.6760   54.8770 C   0  0  0  0  0  0  0  0  0  0  0  0
   -0.5200   44.5240   55.0190 C   0  0  0  0  0  0  0  0  0  0  0  0
   -0.8540   45.1750   56.1880 C   0  0  0  0  0  0  0  0  0  0  0  0
    0.3320   45.6800   56.6850 C   0  0  0  0  0  0  0  0  0  0  0  0
    0.4880   46.4540   57.9190 C   0  0  0  0  0  0  0  0  0  0  0  0
   -0.4820   47.2020   58.4800 N   0  0  0  0  0  0  0  0  0  0  0  0
    0.0750   47.7190   59.5630 N   0  0  0  0  0  0  0  0  0  0  0  0
    1.3260   47.3010   59.6480 N   0  0  0  0  0  0  0  0  0  0  0  0
    1.6260   46.5040   58.6380 N   0  0  0  0  0  0  0  0  0  0  0  0
    1.3250   45.3670   55.8870 O   0  0  0  0  0  0  0  0  0  0  0  0
    3.8600   44.6180   52.5280 C   0  0  0  0  0  0  0  0  0  0  0  0
    5.3730   45.6790   50.7340 C   0  0  0  0  0  0  0  0  0  0  0  0
    6.8380   45.4420   51.1170 C   0  0  0  0  0  0  0  0  0  0  0  0
    8.3700   46.4040   53.7151 H   0  0  0  0  0  0  0  0  0  0  0  0
    8.9387   45.2738   52.4400 H   0  0  0  0  0  0  0  0  0  0  0  0
    9.4956   46.9816   52.4400 H   0  0  0  0  0  0  0  0  0  0  0  0
    7.8058   47.3575   50.9654 H   0  0  0  0  0  0  0  0  0  0  0  0
    6.9200   48.0292   53.4135 H   0  0  0  0  0  0  0  0  0  0  0  0
    5.9572   48.2620   51.8949 H   0  0  0  0  0  0  0  0  0  0  0  0
    5.7395   45.8732   53.7861 H   0  0  0  0  0  0  0  0  0  0  0  0
    4.5978   47.2809   53.6980 H   0  0  0  0  0  0  0  0  0  0  0  0
    3.4553   47.8468   51.7785 H   0  0  0  0  0  0  0  0  0  0  0  0
    2.9779   46.6563   50.5609 H   0  0  0  0  0  0  0  0  0  0  0  0
    2.0454   46.9790   53.4130 H   0  0  0  0  0  0  0  0  0  0  0  0
    1.1555   46.3106   52.0405 H   0  0  0  0  0  0  0  0  0  0  0  0
   -1.2017   43.9926   54.3386 H   0  0  0  0  0  0  0  0  0  0  0  0
   -1.8557   45.2719   56.6320 H   0  0  0  0  0  0  0  0  0  0  0  0
    1.9870   47.5600   60.4130 H   0  0  0  0  0  0  0  0  0  0  0  0
    4.4504   44.2260   53.3693 H   0  0  0  0  0  0  0  0  0  0  0  0
    3.8394   43.8340   51.7567 H   0  0  0  0  0  0  0  0  0  0  0  0
    4.9955   44.7943   50.2004 H   0  0  0  0  0  0  0  0  0  0  0  0
    5.3239   46.5728   50.0946 H   0  0  0  0  0  0  0  0  0  0  0  0
    6.8928   44.6029   51.8262 H   0  0  0  0  0  0  0  0  0  0  0  0
    7.4056   45.2131   50.2030 H   0  0  0  0  0  0  0  0  0  0  0  0
  1  2  1  0
  2  3  1  0
  3  4  1  0
  5  4  1  6
  5  6  1  0
  6  7  1  0
  7  8  1  0
  8  9  1  0
  9 10  2  0
  9 11  1  0
 11 12  2  0
 12 13  1  0
 13 14  2  0
 14 15  1  0
 15 16  1  0
 16 17  2  0
 17 18  1  0
 18 19  1  0
 14 20  1  0
  8 21  1  0
  5 22  1  0
 22 23  1  0
 23  2  1  0
 21  5  1  0
 20 11  1  0
 19 15  2  0
  1 24  1  0
  1 25  1  0
  1 26  1  0
  2 27  1  1
  3 28  1  0
  3 29  1  0
  4 30  1  0
  4 31  1  0
  6 32  1  0
  6 33  1  0
  7 34  1  0
  7 35  1  0
 12 36  1  0
 13 37  1  0
 18 38  1  0
 21 39  1  0
 21 40  1  0
 22 41  1  0
 22 42  1  0
 23 43  1  0
 23 44  1  0
M  END
>  <meeko>  (2) 
{"is_sidechain": [false], "free_energy": -8.77, "intermolecular_energy": -10.317, "internal_energy": -0.46}

$$$$
ligand_60_conformer_3_docked
     RDKit          3D

 44 47  0  0  0  0  0  0  0  0999 V2000
   -0.7020   42.2990   52.3610 C   0  0  0  0  0  0  0  0  0  0  0  0
   -0.1870   43.6440   52.8900 C   0  0  2  0  0  0  0  0  0  0  0  0
    0.1760   44.6060   51.7280 C   0  0  0  0  0  0  0  0  0  0  0  0
    1.6700   44.5410   51.3850 C   0  0  0  0  0  0  0  0  0  0  0  0
    2.5680   44.9800   52.5940 C   0  0  2  0  0  0  0  0  0  0  0  0
    2.8890   46.4880   52.4890 C   0  0  0  0  0  0  0  0  0  0  0  0
    4.1620   46.5790   51.6590 C   0  0  0  0  0  0  0  0  0  0  0  0
    4.7980   45.2790   51.7840 N   0  0  0  0  0  0  0  0  0  0  0  0
    6.1010   45.0000   51.2350 C   0  0  0  0  0  0  0  0  0  0  0  0
    6.2120   44.1410   50.3190 O   0  0  0  0  0  0  0  0  0  0  0  0
    7.3170   45.6940   51.7050 C   0  0  0  0  0  0  0  0  0  0  0  0
    8.4290   45.9790   50.9330 C   0  0  0  0  0  0  0  0  0  0  0  0
    9.3120   46.6330   51.7650 C   0  0  0  0  0  0  0  0  0  0  0  0
    8.6810   46.7080   52.9920 C   0  0  0  0  0  0  0  0  0  0  0  0
    9.2280   47.3210   54.2050 C   0  0  0  0  0  0  0  0  0  0  0  0
   10.2470   46.8130   54.9250 N   0  0  0  0  0  0  0  0  0  0  0  0
   10.4160   47.6690   55.9200 N   0  0  0  0  0  0  0  0  0  0  0  0
    9.5360   48.6480   55.8030 N   0  0  0  0  0  0  0  0  0  0  0  0
    8.7710   48.4690   54.7410 N   0  0  0  0  0  0  0  0  0  0  0  0
    7.4990   46.1440   52.9260 O   0  0  0  0  0  0  0  0  0  0  0  0
    3.9610   44.3170   52.4850 C   0  0  0  0  0  0  0  0  0  0  0  0
    1.8800   44.6660   53.9610 C   0  0  0  0  0  0  0  0  0  0  0  0
    0.9920   43.4200   53.8710 C   0  0  0  0  0  0  0  0  0  0  0  0
   -0.9529   41.6436   53.2081 H   0  0  0  0  0  0  0  0  0  0  0  0
   -1.5999   42.4657   51.7478 H   0  0  0  0  0  0  0  0  0  0  0  0
    0.0776   41.8234   51.7478 H   0  0  0  0  0  0  0  0  0  0  0  0
   -0.9936   44.1351   53.4541 H   0  0  0  0  0  0  0  0  0  0  0  0
   -0.4068   44.3263   50.8380 H   0  0  0  0  0  0  0  0  0  0  0  0
   -0.0591   45.6325   52.0457 H   0  0  0  0  0  0  0  0  0  0  0  0
    1.9266   43.5078   51.1083 H   0  0  0  0  0  0  0  0  0  0  0  0
    1.8586   45.2336   50.5515 H   0  0  0  0  0  0  0  0  0  0  0  0
    2.0666   47.0218   51.9903 H   0  0  0  0  0  0  0  0  0  0  0  0
    3.0160   46.9470   53.4805 H   0  0  0  0  0  0  0  0  0  0  0  0
    3.9210   46.7899   50.6067 H   0  0  0  0  0  0  0  0  0  0  0  0
    4.8188   47.3906   52.0052 H   0  0  0  0  0  0  0  0  0  0  0  0
    8.5781   45.7336   49.8711 H   0  0  0  0  0  0  0  0  0  0  0  0
   10.3104   47.0154   51.5063 H   0  0  0  0  0  0  0  0  0  0  0  0
    9.4580   49.4560   56.4590 H   0  0  0  0  0  0  0  0  0  0  0  0
    3.8959   43.3780   51.9158 H   0  0  0  0  0  0  0  0  0  0  0  0
    4.3708   44.0655   53.4743 H   0  0  0  0  0  0  0  0  0  0  0  0
    2.6567   44.4970   54.7214 H   0  0  0  0  0  0  0  0  0  0  0  0
    1.2455   45.5226   54.2323 H   0  0  0  0  0  0  0  0  0  0  0  0
    1.5973   42.5723   53.5174 H   0  0  0  0  0  0  0  0  0  0  0  0
    0.5805   43.2117   54.8696 H   0  0  0  0  0  0  0  0  0  0  0  0
  1  2  1  0
  2  3  1  0
  3  4  1  0
  5  4  1  1
  5  6  1  0
  6  7  1  0
  7  8  1  0
  8  9  1  0
  9 10  2  0
  9 11  1  0
 11 12  2  0
 12 13  1  0
 13 14  2  0
 14 15  1  0
 15 16  1  0
 16 17  2  0
 17 18  1  0
 18 19  1  0
 14 20  1  0
  8 21  1  0
  5 22  1  0
 22 23  1  0
 23  2  1  0
 21  5  1  0
 20 11  1  0
 19 15  2  0
  1 24  1  0
  1 25  1  0
  1 26  1  0
  2 27  1  6
  3 28  1  0
  3 29  1  0
  4 30  1  0
  4 31  1  0
  6 32  1  0
  6 33  1  0
  7 34  1  0
  7 35  1  0
 12 36  1  0
 13 37  1  0
 18 38  1  0
 21 39  1  0
 21 40  1  0
 22 41  1  0
 22 42  1  0
 23 43  1  0
 23 44  1  0
M  END
>  <meeko>  (3) 
{"is_sidechain": [false], "free_energy": -8.616, "intermolecular_energy": -10.16, "internal_energy": -0.436}

$$$$
ligand_60_conformer_3_docked
     RDKit          3D

 44 47  0  0  0  0  0  0  0  0999 V2000
   10.2290   46.9620   54.1130 C   0  0  0  0  0  0  0  0  0  0  0  0
    8.9510   47.6150   53.5700 C   0  0  2  0  0  0  0  0  0  0  0  0
    7.7400   47.3410   54.5000 C   0  0  0  0  0  0  0  0  0  0  0  0
    6.9280   46.1280   54.0300 C   0  0  0  0  0  0  0  0  0  0  0  0
    6.3230   46.3460   52.5990 C   0  0  2  0  0  0  0  0  0  0  0  0
    4.8910   46.9140   52.7160 C   0  0  0  0  0  0  0  0  0  0  0  0
    3.9740   45.7010   52.7930 C   0  0  0  0  0  0  0  0  0  0  0  0
    4.7280   44.6080   52.2020 N   0  0  0  0  0  0  0  0  0  0  0  0
    4.1540   43.3060   51.9790 C   0  0  0  0  0  0  0  0  0  0  0  0
    3.2800   42.8730   52.7770 O   0  0  0  0  0  0  0  0  0  0  0  0
    4.5520   42.4580   50.8360 C   0  0  0  0  0  0  0  0  0  0  0  0
    5.8530   42.2200   50.4270 C   0  0  0  0  0  0  0  0  0  0  0  0
    5.7600   41.3790   49.3380 C   0  0  0  0  0  0  0  0  0  0  0  0
    4.4090   41.1560   49.1550 C   0  0  0  0  0  0  0  0  0  0  0  0
    3.8090   40.3190   48.1130 C   0  0  0  0  0  0  0  0  0  0  0  0
    3.0540   39.2290   48.3490 N   0  0  0  0  0  0  0  0  0  0  0  0
    2.7210   38.7830   47.1490 N   0  0  0  0  0  0  0  0  0  0  0  0
    3.2530   39.5710   46.2310 N   0  0  0  0  0  0  0  0  0  0  0  0
    3.9440   40.5470   46.7920 N   0  0  0  0  0  0  0  0  0  0  0  0
    3.7170   41.8080   50.0580 O   0  0  0  0  0  0  0  0  0  0  0  0
    6.1030   44.9800   51.9060 C   0  0  0  0  0  0  0  0  0  0  0  0
    7.2160   47.2970   51.7400 C   0  0  0  0  0  0  0  0  0  0  0  0
    8.6970   47.1640   52.1090 C   0  0  0  0  0  0  0  0  0  0  0  0
   10.2076   46.9729   55.2127 H   0  0  0  0  0  0  0  0  0  0  0  0
   10.2891   45.9227   53.7578 H   0  0  0  0  0  0  0  0  0  0  0  0
   11.1064   47.5223   53.7578 H   0  0  0  0  0  0  0  0  0  0  0  0
    9.0874   48.7064   53.5568 H   0  0  0  0  0  0  0  0  0  0  0  0
    8.1086   47.1504   55.5187 H   0  0  0  0  0  0  0  0  0  0  0  0
    7.0834   48.2232   54.4775 H   0  0  0  0  0  0  0  0  0  0  0  0
    7.5863   45.2470   54.0071 H   0  0  0  0  0  0  0  0  0  0  0  0
    6.0947   45.9831   54.7333 H   0  0  0  0  0  0  0  0  0  0  0  0
    4.7941   47.5268   53.6243 H   0  0  0  0  0  0  0  0  0  0  0  0
    4.6390   47.5611   51.8629 H   0  0  0  0  0  0  0  0  0  0  0  0
    3.7236   45.4738   53.8398 H   0  0  0  0  0  0  0  0  0  0  0  0
    3.0234   45.8732   52.2670 H   0  0  0  0  0  0  0  0  0  0  0  0
    6.7729   42.6200   50.8784 H   0  0  0  0  0  0  0  0  0  0  0  0
    6.5883   40.9711   48.7401 H   0  0  0  0  0  0  0  0  0  0  0  0
    3.1400   39.4420   45.2020 H   0  0  0  0  0  0  0  0  0  0  0  0
    6.7990   44.2290   52.3080 H   0  0  0  0  0  0  0  0  0  0  0  0
    6.2844   45.0393   50.8227 H   0  0  0  0  0  0  0  0  0  0  0  0
    7.0885   47.0434   50.6772 H   0  0  0  0  0  0  0  0  0  0  0  0
    6.9037   48.3333   51.9362 H   0  0  0  0  0  0  0  0  0  0  0  0
    9.0015   46.1127   51.9995 H   0  0  0  0  0  0  0  0  0  0  0  0
    9.2835   47.8084   51.4376 H   0  0  0  0  0  0  0  0  0  0  0  0
  1  2  1  0
  2  3  1  0
  3  4  1  0
  5  4  1  6
  5  6  1  0
  6  7  1  0
  7  8  1  0
  8  9  1  0
  9 10  2  0
  9 11  1  0
 11 12  2  0
 12 13  1  0
 13 14  2  0
 14 15  1  0
 15 16  1  0
 16 17  2  0
 17 18  1  0
 18 19  1  0
 14 20  1  0
  8 21  1  0
  5 22  1  0
 22 23  1  0
 23  2  1  0
 21  5  1  0
 20 11  1  0
 19 15  2  0
  1 24  1  0
  1 25  1  0
  1 26  1  0
  2 27  1  1
  3 28  1  0
  3 29  1  0
  4 30  1  0
  4 31  1  0
  6 32  1  0
  6 33  1  0
  7 34  1  0
  7 35  1  0
 12 36  1  0
 13 37  1  0
 18 38  1  0
 21 39  1  0
 21 40  1  0
 22 41  1  0
 22 42  1  0
 23 43  1  0
 23 44  1  0
M  END
>  <meeko>  (4) 
{"is_sidechain": [false], "free_energy": -8.506, "intermolecular_energy": -10.442, "internal_energy": -0.025}

$$$$
ligand_60_conformer_3_docked
     RDKit          3D

 44 47  0  0  0  0  0  0  0  0999 V2000
   10.7770   47.1770   55.7460 C   0  0  0  0  0  0  0  0  0  0  0  0
   10.0920   47.5200   54.4160 C   0  0  2  0  0  0  0  0  0  0  0  0
    8.7700   48.3000   54.6490 C   0  0  0  0  0  0  0  0  0  0  0  0
    7.5550   47.3640   54.6580 C   0  0  0  0  0  0  0  0  0  0  0  0
    7.3740   46.6240   53.2870 C   0  0  2  0  0  0  0  0  0  0  0  0
    6.4090   47.4220   52.3830 C   0  0  0  0  0  0  0  0  0  0  0  0
    5.0160   46.9050   52.7140 C   0  0  0  0  0  0  0  0  0  0  0  0
    5.2200   45.5860   53.2880 N   0  0  0  0  0  0  0  0  0  0  0  0
    4.1250   44.7120   53.6240 C   0  0  0  0  0  0  0  0  0  0  0  0
    3.5950   44.7990   54.7650 O   0  0  0  0  0  0  0  0  0  0  0  0
    3.5940   43.7160   52.6710 C   0  0  0  0  0  0  0  0  0  0  0  0
    2.3010   43.2220   52.6630 C   0  0  0  0  0  0  0  0  0  0  0  0
    2.2420   42.3310   51.6120 C   0  0  0  0  0  0  0  0  0  0  0  0
    3.5020   42.3400   51.0450 C   0  0  0  0  0  0  0  0  0  0  0  0
    3.9320   41.5490   49.8900 C   0  0  0  0  0  0  0  0  0  0  0  0
    3.1610   40.6470   49.2520 N   0  0  0  0  0  0  0  0  0  0  0  0
    3.9280   40.1730   48.2830 N   0  0  0  0  0  0  0  0  0  0  0  0
    5.1100   40.7640   48.3380 N   0  0  0  0  0  0  0  0  0  0  0  0
    5.1550   41.6350   49.3310 N   0  0  0  0  0  0  0  0  0  0  0  0
    4.2830   43.1720   51.6940 O   0  0  0  0  0  0  0  0  0  0  0  0
    6.6270   45.2870   53.5030 C   0  0  0  0  0  0  0  0  0  0  0  0
    8.7440   46.4150   52.5660 C   0  0  0  0  0  0  0  0  0  0  0  0
    9.8880   46.2370   53.5710 C   0  0  0  0  0  0  0  0  0  0  0  0
   10.1371   47.4974   56.5814 H   0  0  0  0  0  0  0  0  0  0  0  0
   10.9403   46.0908   55.8049 H   0  0  0  0  0  0  0  0  0  0  0  0
   11.7446   47.6970   55.8049 H   0  0  0  0  0  0  0  0  0  0  0  0
   10.7474   48.1902   53.8405 H   0  0  0  0  0  0  0  0  0  0  0  0
    8.8278   48.8189   55.6172 H   0  0  0  0  0  0  0  0  0  0  0  0
    8.6447   49.0177   53.8249 H   0  0  0  0  0  0  0  0  0  0  0  0
    7.6901   46.6141   55.4513 H   0  0  0  0  0  0  0  0  0  0  0  0
    6.6572   47.9740   54.8363 H   0  0  0  0  0  0  0  0  0  0  0  0
    6.4808   48.4980   52.6002 H   0  0  0  0  0  0  0  0  0  0  0  0
    6.6487   47.2922   51.3173 H   0  0  0  0  0  0  0  0  0  0  0  0
    4.5217   47.5681   53.4393 H   0  0  0  0  0  0  0  0  0  0  0  0
    4.3712   46.8682   51.8236 H   0  0  0  0  0  0  0  0  0  0  0  0
    1.4868   43.4862   53.3539 H   0  0  0  0  0  0  0  0  0  0  0  0
    1.3732   41.7371   51.2919 H   0  0  0  0  0  0  0  0  0  0  0  0
    5.8990   40.5720   47.6830 H   0  0  0  0  0  0  0  0  0  0  0  0
    6.7890   44.9176   54.5264 H   0  0  0  0  0  0  0  0  0  0  0  0
    6.9862   44.5048   52.8181 H   0  0  0  0  0  0  0  0  0  0  0  0
    8.6814   45.5173   51.9334 H   0  0  0  0  0  0  0  0  0  0  0  0
    8.9540   47.3084   51.9596 H   0  0  0  0  0  0  0  0  0  0  0  0
    9.6496   45.3987   54.2422 H   0  0  0  0  0  0  0  0  0  0  0  0
   10.8145   46.0342   53.0138 H   0  0  0  0  0  0  0  0  0  0  0  0
  1  2  1  0
  2  3  1  0
  3  4  1  0
  5  4  1  6
  5  6  1  0
  6  7  1  0
  7  8  1  0
  8  9  1  0
  9 10  2  0
  9 11  1  0
 11 12  2  0
 12 13  1  0
 13 14  2  0
 14 15  1  0
 15 16  1  0
 16 17  2  0
 17 18  1  0
 18 19  1  0
 14 20  1  0
  8 21  1  0
  5 22  1  0
 22 23  1  0
 23  2  1  0
 21  5  1  0
 20 11  1  0
 19 15  2  0
  1 24  1  0
  1 25  1  0
  1 26  1  0
  2 27  1  1
  3 28  1  0
  3 29  1  0
  4 30  1  0
  4 31  1  0
  6 32  1  0
  6 33  1  0
  7 34  1  0
  7 35  1  0
 12 36  1  0
 13 37  1  0
 18 38  1  0
 21 39  1  0
 21 40  1  0
 22 41  1  0
 22 42  1  0
 23 43  1  0
 23 44  1  0
M  END
>  <meeko>  (5) 
{"is_sidechain": [false], "free_energy": -8.269, "intermolecular_energy": -9.731, "internal_energy": -0.458}

$$$$
