MODEL 1
REMARK VINA RESULT:    -9.640      0.000      0.000
REMARK INTER + INTRA:         -13.751
REMARK INTER:                 -12.458
REMARK INTRA:                  -1.293
REMARK UNBOUND:                -1.293
REMARK SMILES O=C(NCCc1csc(-c2ccccc2)n1)c1ccc(F)c(F)c1
REMARK SMILES IDX 4 1 3 2 1 3 2 4 17 6 18 7 24 8 19 9 22 10 20 11 23 12 21 13
REMARK SMILES IDX 5 14 6 15 7 16 16 17 8 18 9 19 10 20 11 21 15 22 12 23 14 24
REMARK SMILES IDX 13 25
REMARK H PARENT 3 5
ROOT
ATOM      1  C   UNL     1       3.488  46.041  55.706  1.00  0.00     0.122 C 
ENDROOT
BRANCH   1   2
ATOM      2  N   UNL     1       4.793  45.977  55.049  1.00  0.00    -0.352 N 
ATOM      3  O   UNL     1       4.844  48.253  54.529  1.00  0.00    -0.269 OA
ATOM      4  C   UNL     1       5.400  47.124  54.428  1.00  0.00     0.251 C 
ATOM      5  H   UNL     1       5.293  45.060  55.057  1.00  0.00     0.163 HD
BRANCH   4   6
ATOM      6  C   UNL     1       6.676  47.009  53.683  1.00  0.00     0.042 A 
ATOM      7  C   UNL     1       6.694  46.791  52.293  1.00  0.00     0.017 A 
ATOM      8  C   UNL     1       7.901  47.144  54.365  1.00  0.00     0.056 A 
ATOM      9  C   UNL     1       7.907  46.691  51.606  1.00  0.00     0.043 A 
ATOM     10  C   UNL     1       9.113  47.042  53.675  1.00  0.00     0.159 A 
ATOM     11  C   UNL     1       9.116  46.813  52.296  1.00  0.00     0.158 A 
ATOM     12  F   UNL     1      10.284  47.165  54.346  1.00  0.00    -0.204 F 
ATOM     13  F   UNL     1      10.291  46.717  51.625  1.00  0.00    -0.204 F 
ENDBRANCH   4   6
ENDBRANCH   1   2
BRANCH   1  14
ATOM     14  C   UNL     1       2.445  45.267  54.896  1.00  0.00     0.078 C 
BRANCH  14  15
ATOM     15  C   UNL     1       2.836  45.216  53.451  1.00  0.00     0.054 A 
ATOM     16  C   UNL     1       2.451  46.180  52.525  1.00  0.00     0.091 A 
ATOM     17  N   UNL     1       3.655  44.242  52.966  1.00  0.00    -0.241 NA
ATOM     18  S   UNL     1       3.149  45.778  51.051  1.00  0.00    -0.122 S 
ATOM     19  C   UNL     1       3.920  44.403  51.649  1.00  0.00     0.123 A 
BRANCH  19  20
ATOM     20  C   UNL     1       4.783  43.484  50.871  1.00  0.00     0.010 A 
ATOM     21  C   UNL     1       4.462  42.116  50.786  1.00  0.00     0.011 A 
ATOM     22  C   UNL     1       5.931  43.955  50.206  1.00  0.00     0.011 A 
ATOM     23  C   UNL     1       5.271  41.242  50.054  1.00  0.00     0.001 A 
ATOM     24  C   UNL     1       6.736  43.077  49.475  1.00  0.00     0.001 A 
ATOM     25  C   UNL     1       6.407  41.722  49.398  1.00  0.00     0.000 A 
ENDBRANCH  19  20
ENDBRANCH  14  15
ENDBRANCH   1  14
TORSDOF 5
ENDMDL
MODEL 2
REMARK VINA RESULT:    -9.336      1.146      1.965
REMARK INTER + INTRA:         -13.357
REMARK INTER:                 -12.199
REMARK INTRA:                  -1.158
REMARK UNBOUND:                -1.293
REMARK SMILES O=C(NCCc1csc(-c2ccccc2)n1)c1ccc(F)c(F)c1
REMARK SMILES IDX 4 1 3 2 1 3 2 4 17 6 18 7 24 8 19 9 22 10 20 11 23 12 21 13
REMARK SMILES IDX 5 14 6 15 7 16 16 17 8 18 9 19 10 20 11 21 15 22 12 23 14 24
REMARK SMILES IDX 13 25
REMARK H PARENT 3 5
ROOT
ATOM      1  C   UNL     1       3.970  45.550  55.678  1.00  0.00     0.122 C 
ENDROOT
BRANCH   1   2
ATOM      2  N   UNL     1       5.262  45.546  54.994  1.00  0.00    -0.352 N 
ATOM      3  O   UNL     1       5.391  47.872  54.840  1.00  0.00    -0.269 OA
ATOM      4  C   UNL     1       5.903  46.755  54.552  1.00  0.00     0.251 C 
ATOM      5  H   UNL     1       5.728  44.623  54.847  1.00  0.00     0.163 HD
BRANCH   4   6
ATOM      6  C   UNL     1       7.164  46.716  53.773  1.00  0.00     0.042 A 
ATOM      7  C   UNL     1       8.387  47.117  54.344  1.00  0.00     0.017 A 
ATOM      8  C   UNL     1       7.155  46.248  52.446  1.00  0.00     0.056 A 
ATOM      9  C   UNL     1       9.567  47.068  53.596  1.00  0.00     0.043 A 
ATOM     10  C   UNL     1       8.337  46.202  51.700  1.00  0.00     0.159 A 
ATOM     11  C   UNL     1       9.543  46.614  52.274  1.00  0.00     0.158 A 
ATOM     12  F   UNL     1       8.311  45.757  50.420  1.00  0.00    -0.204 F 
ATOM     13  F   UNL     1      10.691  46.567  51.554  1.00  0.00    -0.204 F 
ENDBRANCH   4   6
ENDBRANCH   1   2
BRANCH   1  14
ATOM     14  C   UNL     1       2.837  45.787  54.676  1.00  0.00     0.078 C 
BRANCH  14  15
ATOM     15  C   UNL     1       2.780  44.673  53.676  1.00  0.00     0.054 A 
ATOM     16  C   UNL     1       1.650  43.883  53.484  1.00  0.00     0.091 A 
ATOM     17  N   UNL     1       3.823  44.406  52.842  1.00  0.00    -0.241 NA
ATOM     18  S   UNL     1       1.989  42.806  52.240  1.00  0.00    -0.122 S 
ATOM     19  C   UNL     1       3.550  43.393  51.989  1.00  0.00     0.123 A 
BRANCH  19  20
ATOM     20  C   UNL     1       4.511  42.896  50.977  1.00  0.00     0.010 A 
ATOM     21  C   UNL     1       5.560  43.723  50.533  1.00  0.00     0.011 A 
ATOM     22  C   UNL     1       4.396  41.598  50.443  1.00  0.00     0.011 A 
ATOM     23  C   UNL     1       6.471  43.262  49.578  1.00  0.00     0.001 A 
ATOM     24  C   UNL     1       5.310  41.142  49.489  1.00  0.00     0.001 A 
ATOM     25  C   UNL     1       6.347  41.972  49.056  1.00  0.00     0.000 A 
ENDBRANCH  19  20
ENDBRANCH  14  15
ENDBRANCH   1  14
TORSDOF 5
ENDMDL
MODEL 3
REMARK VINA RESULT:    -9.139      2.236      4.887
REMARK INTER + INTRA:         -13.104
REMARK INTER:                 -11.529
REMARK INTRA:                  -1.575
REMARK UNBOUND:                -1.293
REMARK SMILES O=C(NCCc1csc(-c2ccccc2)n1)c1ccc(F)c(F)c1
REMARK SMILES IDX 4 1 3 2 1 3 2 4 17 6 18 7 24 8 19 9 22 10 20 11 23 12 21 13
REMARK SMILES IDX 5 14 6 15 7 16 16 17 8 18 9 19 10 20 11 21 15 22 12 23 14 24
REMARK SMILES IDX 13 25
REMARK H PARENT 3 5
ROOT
ATOM      1  C   UNL     1       1.770  44.941  52.436  1.00  0.00     0.122 C 
ENDROOT
BRANCH   1   2
ATOM      2  N   UNL     1       2.942  44.773  51.578  1.00  0.00    -0.352 N 
ATOM      3  O   UNL     1       3.481  42.664  52.424  1.00  0.00    -0.269 OA
ATOM      4  C   UNL     1       3.795  43.618  51.659  1.00  0.00     0.251 C 
ATOM      5  H   UNL     1       3.139  45.521  50.877  1.00  0.00     0.163 HD
BRANCH   4   6
ATOM      6  C   UNL     1       5.032  43.518  50.848  1.00  0.00     0.042 A 
ATOM      7  C   UNL     1       5.322  42.363  50.096  1.00  0.00     0.017 A 
ATOM      8  C   UNL     1       5.929  44.601  50.801  1.00  0.00     0.056 A 
ATOM      9  C   UNL     1       6.491  42.290  49.333  1.00  0.00     0.043 A 
ATOM     10  C   UNL     1       7.098  44.524  50.037  1.00  0.00     0.159 A 
ATOM     11  C   UNL     1       7.380  43.368  49.305  1.00  0.00     0.158 A 
ATOM     12  F   UNL     1       7.957  45.572  50.008  1.00  0.00    -0.204 F 
ATOM     13  F   UNL     1       8.512  43.291  48.562  1.00  0.00    -0.204 F 
ENDBRANCH   4   6
ENDBRANCH   1   2
BRANCH   1  14
ATOM     14  C   UNL     1       2.010  46.058  53.454  1.00  0.00     0.078 C 
BRANCH  14  15
ATOM     15  C   UNL     1       3.395  45.963  54.018  1.00  0.00     0.054 A 
ATOM     16  C   UNL     1       3.687  45.300  55.206  1.00  0.00     0.091 A 
ATOM     17  N   UNL     1       4.472  46.475  53.361  1.00  0.00    -0.241 NA
ATOM     18  S   UNL     1       5.349  45.379  55.438  1.00  0.00    -0.122 S 
ATOM     19  C   UNL     1       5.632  46.244  54.018  1.00  0.00     0.123 A 
BRANCH  19  20
ATOM     20  C   UNL     1       6.953  46.694  53.524  1.00  0.00     0.010 A 
ATOM     21  C   UNL     1       8.133  46.156  54.071  1.00  0.00     0.011 A 
ATOM     22  C   UNL     1       7.056  47.662  52.506  1.00  0.00     0.011 A 
ATOM     23  C   UNL     1       9.384  46.576  53.611  1.00  0.00     0.001 A 
ATOM     24  C   UNL     1       8.310  48.078  52.049  1.00  0.00     0.001 A 
ATOM     25  C   UNL     1       9.473  47.536  52.601  1.00  0.00     0.000 A 
ENDBRANCH  19  20
ENDBRANCH  14  15
ENDBRANCH   1  14
TORSDOF 5
ENDMDL
MODEL 4
REMARK VINA RESULT:    -8.670      2.529      4.957
REMARK INTER + INTRA:         -12.498
REMARK INTER:                 -11.493
REMARK INTRA:                  -1.005
REMARK UNBOUND:                -1.293
REMARK SMILES O=C(NCCc1csc(-c2ccccc2)n1)c1ccc(F)c(F)c1
REMARK SMILES IDX 4 1 3 2 1 3 2 4 17 6 18 7 24 8 19 9 22 10 20 11 23 12 21 13
REMARK SMILES IDX 5 14 6 15 7 16 16 17 8 18 9 19 10 20 11 21 15 22 12 23 14 24
REMARK SMILES IDX 13 25
REMARK H PARENT 3 5
ROOT
ATOM      1  C   UNL     1       6.601  42.686  48.753  1.00  0.00     0.122 C 
ENDROOT
BRANCH   1   2
ATOM      2  N   UNL     1       6.865  43.775  49.692  1.00  0.00    -0.352 N 
ATOM      3  O   UNL     1       9.059  44.109  48.967  1.00  0.00    -0.269 OA
ATOM      4  C   UNL     1       8.148  44.419  49.784  1.00  0.00     0.251 C 
ATOM      5  H   UNL     1       6.075  44.094  50.296  1.00  0.00     0.163 HD
BRANCH   4   6
ATOM      6  C   UNL     1       8.417  45.452  50.812  1.00  0.00     0.042 A 
ATOM      7  C   UNL     1       9.726  45.712  51.261  1.00  0.00     0.017 A 
ATOM      8  C   UNL     1       7.356  46.212  51.339  1.00  0.00     0.056 A 
ATOM      9  C   UNL     1       9.961  46.695  52.228  1.00  0.00     0.043 A 
ATOM     10  C   UNL     1       7.594  47.193  52.306  1.00  0.00     0.159 A 
ATOM     11  C   UNL     1       8.897  47.433  52.752  1.00  0.00     0.158 A 
ATOM     12  F   UNL     1       6.561  47.910  52.810  1.00  0.00    -0.204 F 
ATOM     13  F   UNL     1       9.131  48.386  53.689  1.00  0.00    -0.204 F 
ENDBRANCH   4   6
ENDBRANCH   1   2
BRANCH   1  14
ATOM     14  C   UNL     1       5.912  41.521  49.468  1.00  0.00     0.078 C 
BRANCH  14  15
ATOM     15  C   UNL     1       4.804  42.024  50.343  1.00  0.00     0.054 A 
ATOM     16  C   UNL     1       3.489  41.583  50.232  1.00  0.00     0.091 A 
ATOM     17  N   UNL     1       5.036  42.909  51.352  1.00  0.00    -0.241 NA
ATOM     18  S   UNL     1       2.594  42.347  51.430  1.00  0.00    -0.122 S 
ATOM     19  C   UNL     1       3.912  43.199  52.048  1.00  0.00     0.123 A 
BRANCH  19  20
ATOM     20  C   UNL     1       3.881  44.134  53.195  1.00  0.00     0.010 A 
ATOM     21  C   UNL     1       2.650  44.558  53.728  1.00  0.00     0.011 A 
ATOM     22  C   UNL     1       5.073  44.613  53.773  1.00  0.00     0.011 A 
ATOM     23  C   UNL     1       2.612  45.441  54.812  1.00  0.00     0.001 A 
ATOM     24  C   UNL     1       5.030  45.495  54.857  1.00  0.00     0.001 A 
ATOM     25  C   UNL     1       3.801  45.909  55.376  1.00  0.00     0.000 A 
ENDBRANCH  19  20
ENDBRANCH  14  15
ENDBRANCH   1  14
TORSDOF 5
ENDMDL
MODEL 5
REMARK VINA RESULT:    -8.089      3.486      6.209
REMARK INTER + INTRA:         -11.746
REMARK INTER:                 -10.513
REMARK INTRA:                  -1.233
REMARK UNBOUND:                -1.293
REMARK SMILES O=C(NCCc1csc(-c2ccccc2)n1)c1ccc(F)c(F)c1
REMARK SMILES IDX 4 1 3 2 1 3 2 4 17 6 18 7 24 8 19 9 22 10 20 11 23 12 21 13
REMARK SMILES IDX 5 14 6 15 7 16 16 17 8 18 9 19 10 20 11 21 15 22 12 23 14 24
REMARK SMILES IDX 13 25
REMARK H PARENT 3 5
ROOT
ATOM      1  C   UNL     1       8.554  46.283  50.812  1.00  0.00     0.122 C 
ENDROOT
BRANCH   1   2
ATOM      2  N   UNL     1       7.539  45.230  50.824  1.00  0.00    -0.352 N 
ATOM      3  O   UNL     1       8.510  44.025  49.076  1.00  0.00    -0.269 OA
ATOM      4  C   UNL     1       7.547  44.142  49.884  1.00  0.00     0.251 C 
ATOM      5  H   UNL     1       6.800  45.280  51.561  1.00  0.00     0.163 HD
BRANCH   4   6
ATOM      6  C   UNL     1       6.452  43.143  49.855  1.00  0.00     0.042 A 
ATOM      7  C   UNL     1       6.402  42.142  48.866  1.00  0.00     0.017 A 
ATOM      8  C   UNL     1       5.450  43.172  50.843  1.00  0.00     0.056 A 
ATOM      9  C   UNL     1       5.364  41.206  48.858  1.00  0.00     0.043 A 
ATOM     10  C   UNL     1       4.413  42.234  50.832  1.00  0.00     0.159 A 
ATOM     11  C   UNL     1       4.368  41.253  49.838  1.00  0.00     0.158 A 
ATOM     12  F   UNL     1       3.451  42.279  51.785  1.00  0.00    -0.204 F 
ATOM     13  F   UNL     1       3.364  40.341  49.826  1.00  0.00    -0.204 F 
ENDBRANCH   4   6
ENDBRANCH   1   2
BRANCH   1  14
ATOM     14  C   UNL     1       8.153  47.421  51.753  1.00  0.00     0.078 C 
BRANCH  14  15
ATOM     15  C   UNL     1       7.062  46.977  52.678  1.00  0.00     0.054 A 
ATOM     16  C   UNL     1       7.223  46.896  54.057  1.00  0.00     0.091 A 
ATOM     17  N   UNL     1       5.813  46.683  52.222  1.00  0.00    -0.241 NA
ATOM     18  S   UNL     1       5.751  46.420  54.714  1.00  0.00    -0.122 S 
ATOM     19  C   UNL     1       4.967  46.347  53.222  1.00  0.00     0.123 A 
BRANCH  19  20
ATOM     20  C   UNL     1       3.549  45.979  53.005  1.00  0.00     0.010 A 
ATOM     21  C   UNL     1       3.061  45.791  51.699  1.00  0.00     0.011 A 
ATOM     22  C   UNL     1       2.668  45.811  54.091  1.00  0.00     0.011 A 
ATOM     23  C   UNL     1       1.723  45.443  51.485  1.00  0.00     0.001 A 
ATOM     24  C   UNL     1       1.332  45.463  53.871  1.00  0.00     0.001 A 
ATOM     25  C   UNL     1       0.860  45.280  52.570  1.00  0.00     0.000 A 
ENDBRANCH  19  20
ENDBRANCH  14  15
ENDBRANCH   1  14
TORSDOF 5
ENDMDL
