ligand_100_conformer_3_docked
     RDKit          3D

 46 48  0  0  0  0  0  0  0  0999 V2000
    2.6550   42.4250   50.3480 C   0  0  0  0  0  0  0  0  0  0  0  0
    3.9270   42.5860   51.2020 C   0  0  0  0  0  0  0  0  0  0  0  0
    3.5270   42.6690   52.6900 C   0  0  0  0  0  0  0  0  0  0  0  0
    4.7740   41.4230   50.9950 N   0  0  0  0  0  0  0  0  0  0  0  0
    5.8740   41.7650   50.1800 C   0  0  0  0  0  0  0  0  0  0  0  0
    6.7230   40.9200   49.7920 O   0  0  0  0  0  0  0  0  0  0  0  0
    5.8930   43.1890   49.7950 C   0  0  0  0  0  0  0  0  0  0  0  0
    4.7780   43.8050   50.6750 C   0  0  2  0  0  0  0  0  0  0  0  0
    5.3740   44.6540   51.7870 C   0  0  0  0  0  0  0  0  0  0  0  0
    6.4160   44.2480   52.3730 O   0  0  0  0  0  0  0  0  0  0  0  0
    4.7400   45.8760   52.2300 N   0  0  0  0  0  0  0  0  0  0  0  0
    3.5680   46.4550   51.5840 C   0  0  0  0  0  0  0  0  0  0  0  0
    3.0940   47.5710   52.5000 C   0  0  0  0  0  0  0  0  0  0  0  0
    4.2850   47.9070   53.3880 C   0  0  0  0  0  0  0  0  0  0  0  0
    5.1530   46.6320   53.4190 C   0  0  1  0  0  0  0  0  0  0  0  0
    4.8040   45.7890   54.6690 C   0  0  0  0  0  0  0  0  0  0  0  0
    6.6380   47.0180   53.3420 C   0  0  0  0  0  0  0  0  0  0  0  0
    7.2250   47.4980   52.1510 C   0  0  0  0  0  0  0  0  0  0  0  0
    8.5900   47.7970   52.0990 C   0  0  0  0  0  0  0  0  0  0  0  0
    9.3960   47.6020   53.2220 C   0  0  0  0  0  0  0  0  0  0  0  0
    8.8420   47.0940   54.3960 C   0  0  0  0  0  0  0  0  0  0  0  0
    7.4780   46.7920   54.4550 C   0  0  0  0  0  0  0  0  0  0  0  0
    1.7819   42.3145   51.0079 H   0  0  0  0  0  0  0  0  0  0  0  0
    2.5246   43.3138   49.7132 H   0  0  0  0  0  0  0  0  0  0  0  0
    2.7502   41.5317   49.7132 H   0  0  0  0  0  0  0  0  0  0  0  0
    4.4112   42.4855   53.3181 H   0  0  0  0  0  0  0  0  0  0  0  0
    3.1248   43.6697   52.9063 H   0  0  0  0  0  0  0  0  0  0  0  0
    2.7599   41.9109   52.9063 H   0  0  0  0  0  0  0  0  0  0  0  0
    4.5290   40.4450   51.2710 H   0  0  0  0  0  0  0  0  0  0  0  0
    6.8689   43.6453   50.0173 H   0  0  0  0  0  0  0  0  0  0  0  0
    5.7321   43.3483   48.7185 H   0  0  0  0  0  0  0  0  0  0  0  0
    4.1318   44.4962   50.1141 H   0  0  0  0  0  0  0  0  0  0  0  0
    3.8361   46.8588   50.5966 H   0  0  0  0  0  0  0  0  0  0  0  0
    2.7818   45.7021   51.4257 H   0  0  0  0  0  0  0  0  0  0  0  0
    2.7946   48.4502   51.9106 H   0  0  0  0  0  0  0  0  0  0  0  0
    2.2183   47.2668   53.0921 H   0  0  0  0  0  0  0  0  0  0  0  0
    4.8537   48.7484   52.9653 H   0  0  0  0  0  0  0  0  0  0  0  0
    3.9677   48.2077   54.3974 H   0  0  0  0  0  0  0  0  0  0  0  0
    5.0417   46.3632   55.5766 H   0  0  0  0  0  0  0  0  0  0  0  0
    3.7313   45.5458   54.6594 H   0  0  0  0  0  0  0  0  0  0  0  0
    5.3909   44.8587   54.6594 H   0  0  0  0  0  0  0  0  0  0  0  0
    6.6023   47.6382   51.2551 H   0  0  0  0  0  0  0  0  0  0  0  0
    9.0304   48.1874   51.1696 H   0  0  0  0  0  0  0  0  0  0  0  0
   10.4671   47.8489   53.1805 H   0  0  0  0  0  0  0  0  0  0  0  0
    9.4791   46.9304   55.2777 H   0  0  0  0  0  0  0  0  0  0  0  0
    7.0538   46.3733   55.3795 H   0  0  0  0  0  0  0  0  0  0  0  0
  1  2  1  0
  2  3  1  0
  2  4  1  0
  4  5  1  0
  5  6  2  0
  5  7  1  0
  7  8  1  0
  8  9  1  0
  9 10  2  0
  9 11  1  0
 11 12  1  0
 12 13  1  0
 13 14  1  0
 14 15  1  0
 15 16  1  1
 15 17  1  0
 17 18  2  0
 18 19  1  0
 19 20  2  0
 20 21  1  0
 21 22  2  0
  8  2  1  0
 15 11  1  0
 22 17  1  0
  1 23  1  0
  1 24  1  0
  1 25  1  0
  3 26  1  0
  3 27  1  0
  3 28  1  0
  4 29  1  0
  7 30  1  0
  7 31  1  0
  8 32  1  6
 12 33  1  0
 12 34  1  0
 13 35  1  0
 13 36  1  0
 14 37  1  0
 14 38  1  0
 16 39  1  0
 16 40  1  0
 16 41  1  0
 18 42  1  0
 19 43  1  0
 20 44  1  0
 21 45  1  0
 22 46  1  0
M  END
>  <meeko>  (1) 
{"is_sidechain": [false], "free_energy": -8.311, "intermolecular_energy": -9.769, "internal_energy": -0.379}

$$$$
ligand_100_conformer_3_docked
     RDKit          3D

 46 48  0  0  0  0  0  0  0  0999 V2000
    6.1280   42.5500   47.8200 C   0  0  0  0  0  0  0  0  0  0  0  0
    6.4890   42.7200   49.3080 C   0  0  0  0  0  0  0  0  0  0  0  0
    5.8520   41.5690   50.1150 C   0  0  0  0  0  0  0  0  0  0  0  0
    7.9350   42.6610   49.4450 N   0  0  0  0  0  0  0  0  0  0  0  0
    8.4510   43.9530   49.6820 C   0  0  0  0  0  0  0  0  0  0  0  0
    9.6850   44.1880   49.7680 O   0  0  0  0  0  0  0  0  0  0  0  0
    7.4060   44.9910   49.7660 C   0  0  0  0  0  0  0  0  0  0  0  0
    6.0950   44.1670   49.7960 C   0  0  2  0  0  0  0  0  0  0  0  0
    5.4740   44.1920   51.1830 C   0  0  0  0  0  0  0  0  0  0  0  0
    5.4220   43.1210   51.8490 O   0  0  0  0  0  0  0  0  0  0  0  0
    4.8840   45.3960   51.7270 N   0  0  0  0  0  0  0  0  0  0  0  0
    3.6790   46.0160   51.1900 C   0  0  0  0  0  0  0  0  0  0  0  0
    3.2790   47.0890   52.1900 C   0  0  0  0  0  0  0  0  0  0  0  0
    4.5300   47.3700   53.0110 C   0  0  0  0  0  0  0  0  0  0  0  0
    5.3830   46.0880   52.9220 C   0  0  1  0  0  0  0  0  0  0  0  0
    5.1090   45.1860   54.1500 C   0  0  0  0  0  0  0  0  0  0  0  0
    6.8650   46.4650   52.7660 C   0  0  0  0  0  0  0  0  0  0  0  0
    7.8890   45.7630   53.4380 C   0  0  0  0  0  0  0  0  0  0  0  0
    9.2250   46.1580   53.3130 C   0  0  0  0  0  0  0  0  0  0  0  0
    9.5590   47.2690   52.5370 C   0  0  0  0  0  0  0  0  0  0  0  0
    8.5580   47.9970   51.8960 C   0  0  0  0  0  0  0  0  0  0  0  0
    7.2210   47.6090   52.0170 C   0  0  0  0  0  0  0  0  0  0  0  0
    5.1358   42.0828   47.7345 H   0  0  0  0  0  0  0  0  0  0  0  0
    6.1126   43.5355   47.3315 H   0  0  0  0  0  0  0  0  0  0  0  0
    6.8778   41.9104   47.3315 H   0  0  0  0  0  0  0  0  0  0  0  0
    5.9633   41.7700   51.1907 H   0  0  0  0  0  0  0  0  0  0  0  0
    4.7835   41.4932   49.8647 H   0  0  0  0  0  0  0  0  0  0  0  0
    6.3552   40.6234   49.8647 H   0  0  0  0  0  0  0  0  0  0  0  0
    8.5240   41.8210   49.2400 H   0  0  0  0  0  0  0  0  0  0  0  0
    7.5170   45.5901   50.6818 H   0  0  0  0  0  0  0  0  0  0  0  0
    7.4448   45.7122   48.9363 H   0  0  0  0  0  0  0  0  0  0  0  0
    5.3188   44.5835   49.1372 H   0  0  0  0  0  0  0  0  0  0  0  0
    3.8860   46.4666   50.2081 H   0  0  0  0  0  0  0  0  0  0  0  0
    2.8755   45.2784   51.0473 H   0  0  0  0  0  0  0  0  0  0  0  0
    2.9510   47.9990   51.6662 H   0  0  0  0  0  0  0  0  0  0  0  0
    2.4410   46.7630   52.8236 H   0  0  0  0  0  0  0  0  0  0  0  0
    5.0793   48.2262   52.5925 H   0  0  0  0  0  0  0  0  0  0  0  0
    4.2840   47.6230   54.0529 H   0  0  0  0  0  0  0  0  0  0  0  0
    5.2832   45.7595   55.0724 H   0  0  0  0  0  0  0  0  0  0  0  0
    4.0652   44.8398   54.1251 H   0  0  0  0  0  0  0  0  0  0  0  0
    5.7839   44.3177   54.1251 H   0  0  0  0  0  0  0  0  0  0  0  0
    7.6337   44.8968   54.0661 H   0  0  0  0  0  0  0  0  0  0  0  0
   10.0148   45.5913   53.8278 H   0  0  0  0  0  0  0  0  0  0  0  0
   10.6117   47.5700   52.4313 H   0  0  0  0  0  0  0  0  0  0  0  0
    8.8211   48.8789   51.2935 H   0  0  0  0  0  0  0  0  0  0  0  0
    6.4364   48.2012   51.5233 H   0  0  0  0  0  0  0  0  0  0  0  0
  1  2  1  0
  2  3  1  0
  2  4  1  0
  4  5  1  0
  5  6  2  0
  5  7  1  0
  7  8  1  0
  8  9  1  0
  9 10  2  0
  9 11  1  0
 11 12  1  0
 12 13  1  0
 13 14  1  0
 14 15  1  0
 15 16  1  1
 15 17  1  0
 17 18  2  0
 18 19  1  0
 19 20  2  0
 20 21  1  0
 21 22  2  0
  8  2  1  0
 15 11  1  0
 22 17  1  0
  1 23  1  0
  1 24  1  0
  1 25  1  0
  3 26  1  0
  3 27  1  0
  3 28  1  0
  4 29  1  0
  7 30  1  0
  7 31  1  0
  8 32  1  6
 12 33  1  0
 12 34  1  0
 13 35  1  0
 13 36  1  0
 14 37  1  0
 14 38  1  0
 16 39  1  0
 16 40  1  0
 16 41  1  0
 18 42  1  0
 19 43  1  0
 20 44  1  0
 21 45  1  0
 22 46  1  0
M  END
>  <meeko>  (2) 
{"is_sidechain": [false], "free_energy": -8.309, "intermolecular_energy": -10.248, "internal_energy": 0.103}

$$$$
ligand_100_conformer_3_docked
     RDKit          3D

 46 48  0  0  0  0  0  0  0  0999 V2000
    8.0140   48.5250   51.5520 C   0  0  0  0  0  0  0  0  0  0  0  0
    8.0570   47.1520   52.2490 C   0  0  0  0  0  0  0  0  0  0  0  0
    8.0580   46.0420   51.1770 C   0  0  0  0  0  0  0  0  0  0  0  0
    9.2800   47.0670   53.0310 N   0  0  0  0  0  0  0  0  0  0  0  0
    8.9870   47.2030   54.4040 C   0  0  0  0  0  0  0  0  0  0  0  0
    9.8800   47.2350   55.2910 O   0  0  0  0  0  0  0  0  0  0  0  0
    7.5450   47.3520   54.6790 C   0  0  0  0  0  0  0  0  0  0  0  0
    6.8930   47.0490   53.3080 C   0  0  2  0  0  0  0  0  0  0  0  0
    6.2060   45.6930   53.3250 C   0  0  0  0  0  0  0  0  0  0  0  0
    6.9090   44.6540   53.4670 O   0  0  0  0  0  0  0  0  0  0  0  0
    4.7800   45.5640   53.1180 N   0  0  0  0  0  0  0  0  0  0  0  0
    3.7890   45.8140   54.1570 C   0  0  0  0  0  0  0  0  0  0  0  0
    2.4390   45.8060   53.4590 C   0  0  0  0  0  0  0  0  0  0  0  0
    2.6640   45.0750   52.1420 C   0  0  0  0  0  0  0  0  0  0  0  0
    4.1640   45.2400   51.8250 C   0  0  1  0  0  0  0  0  0  0  0  0
    4.3720   46.4460   50.8780 C   0  0  0  0  0  0  0  0  0  0  0  0
    4.7190   43.9230   51.2610 C   0  0  0  0  0  0  0  0  0  0  0  0
    5.7630   43.8990   50.3090 C   0  0  0  0  0  0  0  0  0  0  0  0
    6.2160   42.6870   49.7790 C   0  0  0  0  0  0  0  0  0  0  0  0
    5.6240   41.4850   50.1680 C   0  0  0  0  0  0  0  0  0  0  0  0
    4.5680   41.4910   51.0780 C   0  0  0  0  0  0  0  0  0  0  0  0
    4.1090   42.6980   51.6120 C   0  0  0  0  0  0  0  0  0  0  0  0
    7.9891   49.3209   52.3109 H   0  0  0  0  0  0  0  0  0  0  0  0
    8.9088   48.6454   50.9237 H   0  0  0  0  0  0  0  0  0  0  0  0
    7.1134   48.5892   50.9237 H   0  0  0  0  0  0  0  0  0  0  0  0
    8.0589   45.0578   51.6683 H   0  0  0  0  0  0  0  0  0  0  0  0
    7.1598   46.1377   50.5493 H   0  0  0  0  0  0  0  0  0  0  0  0
    8.9561   46.1393   50.5493 H   0  0  0  0  0  0  0  0  0  0  0  0
   10.2470   47.0660   52.6340 H   0  0  0  0  0  0  0  0  0  0  0  0
    7.2122   46.6330   55.4421 H   0  0  0  0  0  0  0  0  0  0  0  0
    7.2804   48.3440   55.0739 H   0  0  0  0  0  0  0  0  0  0  0  0
    6.0944   47.7614   53.0536 H   0  0  0  0  0  0  0  0  0  0  0  0
    3.8288   45.0238   54.9212 H   0  0  0  0  0  0  0  0  0  0  0  0
    3.9730   46.7709   54.6674 H   0  0  0  0  0  0  0  0  0  0  0  0
    1.6938   45.2758   54.0701 H   0  0  0  0  0  0  0  0  0  0  0  0
    2.0571   46.8251   53.2991 H   0  0  0  0  0  0  0  0  0  0  0  0
    2.4087   44.0101   52.2458 H   0  0  0  0  0  0  0  0  0  0  0  0
    2.0319   45.4813   51.3387 H   0  0  0  0  0  0  0  0  0  0  0  0
    4.5292   47.3572   51.4738 H   0  0  0  0  0  0  0  0  0  0  0  0
    5.2524   46.2664   50.2435 H   0  0  0  0  0  0  0  0  0  0  0  0
    3.4823   46.5717   50.2435 H   0  0  0  0  0  0  0  0  0  0  0  0
    6.2237   44.8428   49.9818 H   0  0  0  0  0  0  0  0  0  0  0  0
    7.0421   42.6812   49.0527 H   0  0  0  0  0  0  0  0  0  0  0  0
    5.9904   40.5329   49.7567 H   0  0  0  0  0  0  0  0  0  0  0  0
    4.0951   40.5437   51.3763 H   0  0  0  0  0  0  0  0  0  0  0  0
    3.2623   42.6943   52.3143 H   0  0  0  0  0  0  0  0  0  0  0  0
  1  2  1  0
  2  3  1  0
  2  4  1  0
  4  5  1  0
  5  6  2  0
  5  7  1  0
  7  8  1  0
  8  9  1  0
  9 10  2  0
  9 11  1  0
 11 12  1  0
 12 13  1  0
 13 14  1  0
 14 15  1  0
 15 16  1  6
 15 17  1  0
 17 18  2  0
 18 19  1  0
 19 20  2  0
 20 21  1  0
 21 22  2  0
  8  2  1  0
 15 11  1  0
 22 17  1  0
  1 23  1  0
  1 24  1  0
  1 25  1  0
  3 26  1  0
  3 27  1  0
  3 28  1  0
  4 29  1  0
  7 30  1  0
  7 31  1  0
  8 32  1  6
 12 33  1  0
 12 34  1  0
 13 35  1  0
 13 36  1  0
 14 37  1  0
 14 38  1  0
 16 39  1  0
 16 40  1  0
 16 41  1  0
 18 42  1  0
 19 43  1  0
 20 44  1  0
 21 45  1  0
 22 46  1  0
M  END
>  <meeko>  (3) 
{"is_sidechain": [false], "free_energy": -8.289, "intermolecular_energy": -9.509, "internal_energy": -0.612}

$$$$
ligand_100_conformer_3_docked
     RDKit          3D

 46 48  0  0  0  0  0  0  0  0999 V2000
    4.1660   48.0670   54.2000 C   0  0  0  0  0  0  0  0  0  0  0  0
    4.4910   46.6150   54.5990 C   0  0  0  0  0  0  0  0  0  0  0  0
    5.9710   46.5320   55.0290 C   0  0  0  0  0  0  0  0  0  0  0  0
    3.6430   46.2400   55.7190 N   0  0  0  0  0  0  0  0  0  0  0  0
    2.6230   45.3690   55.2810 C   0  0  0  0  0  0  0  0  0  0  0  0
    1.7110   44.9510   56.0430 O   0  0  0  0  0  0  0  0  0  0  0  0
    2.7100   45.0460   53.8440 C   0  0  0  0  0  0  0  0  0  0  0  0
    4.0830   45.6330   53.4350 C   0  0  2  0  0  0  0  0  0  0  0  0
    5.0940   44.5240   53.1940 C   0  0  0  0  0  0  0  0  0  0  0  0
    5.5950   43.9270   54.1880 O   0  0  0  0  0  0  0  0  0  0  0  0
    5.5420   44.1830   51.8610 N   0  0  0  0  0  0  0  0  0  0  0  0
    5.4650   42.8380   51.3050 C   0  0  0  0  0  0  0  0  0  0  0  0
    5.8010   42.9750   49.8290 C   0  0  0  0  0  0  0  0  0  0  0  0
    6.5260   44.3070   49.6970 C   0  0  0  0  0  0  0  0  0  0  0  0
    6.0520   45.1600   50.8920 C   0  0  1  0  0  0  0  0  0  0  0  0
    4.8760   46.0670   50.4570 C   0  0  0  0  0  0  0  0  0  0  0  0
    7.2410   45.9440   51.4690 C   0  0  0  0  0  0  0  0  0  0  0  0
    7.0950   47.2510   51.9840 C   0  0  0  0  0  0  0  0  0  0  0  0
    8.2030   47.9580   52.4610 C   0  0  0  0  0  0  0  0  0  0  0  0
    9.4760   47.3860   52.4100 C   0  0  0  0  0  0  0  0  0  0  0  0
    9.6460   46.1120   51.8700 C   0  0  0  0  0  0  0  0  0  0  0  0
    8.5430   45.4000   51.3920 C   0  0  0  0  0  0  0  0  0  0  0  0
    4.0300   48.6747   55.1067 H   0  0  0  0  0  0  0  0  0  0  0  0
    4.9944   48.4777   53.6042 H   0  0  0  0  0  0  0  0  0  0  0  0
    3.2415   48.0854   53.6042 H   0  0  0  0  0  0  0  0  0  0  0  0
    6.0341   46.5285   56.1272 H   0  0  0  0  0  0  0  0  0  0  0  0
    6.4165   45.6075   54.6331 H   0  0  0  0  0  0  0  0  0  0  0  0
    6.5171   47.4009   54.6331 H   0  0  0  0  0  0  0  0  0  0  0  0
    3.6800   46.6710   56.6710 H   0  0  0  0  0  0  0  0  0  0  0  0
    2.6811   43.9585   53.6812 H   0  0  0  0  0  0  0  0  0  0  0  0
    1.8733   45.4537   53.2576 H   0  0  0  0  0  0  0  0  0  0  0  0
    4.0411   46.1815   52.4824 H   0  0  0  0  0  0  0  0  0  0  0  0
    6.1899   42.1768   51.8022 H   0  0  0  0  0  0  0  0  0  0  0  0
    4.4677   42.3977   51.4520 H   0  0  0  0  0  0  0  0  0  0  0  0
    6.4520   42.1496   49.5050 H   0  0  0  0  0  0  0  0  0  0  0  0
    4.8988   42.9382   49.2007 H   0  0  0  0  0  0  0  0  0  0  0  0
    7.6149   44.1571   49.7406 H   0  0  0  0  0  0  0  0  0  0  0  0
    6.3060   44.7958   48.7364 H   0  0  0  0  0  0  0  0  0  0  0  0
    4.3665   46.4599   51.3492 H   0  0  0  0  0  0  0  0  0  0  0  0
    5.2613   46.9041   49.8563 H   0  0  0  0  0  0  0  0  0  0  0  0
    4.1643   45.4817   49.8563 H   0  0  0  0  0  0  0  0  0  0  0  0
    6.0992   47.7176   52.0101 H   0  0  0  0  0  0  0  0  0  0  0  0
    8.0716   48.9676   52.8776 H   0  0  0  0  0  0  0  0  0  0  0  0
   10.3442   47.9405   52.7957 H   0  0  0  0  0  0  0  0  0  0  0  0
   10.6505   45.6665   51.8202 H   0  0  0  0  0  0  0  0  0  0  0  0
    8.6899   44.4034   50.9501 H   0  0  0  0  0  0  0  0  0  0  0  0
  1  2  1  0
  2  3  1  0
  2  4  1  0
  4  5  1  0
  5  6  2  0
  5  7  1  0
  7  8  1  0
  8  9  1  0
  9 10  2  0
  9 11  1  0
 11 12  1  0
 12 13  1  0
 13 14  1  0
 14 15  1  0
 15 16  1  6
 15 17  1  0
 17 18  2  0
 18 19  1  0
 19 20  2  0
 20 21  1  0
 21 22  2  0
  8  2  1  0
 15 11  1  0
 22 17  1  0
  1 23  1  0
  1 24  1  0
  1 25  1  0
  3 26  1  0
  3 27  1  0
  3 28  1  0
  4 29  1  0
  7 30  1  0
  7 31  1  0
  8 32  1  6
 12 33  1  0
 12 34  1  0
 13 35  1  0
 13 36  1  0
 14 37  1  0
 14 38  1  0
 16 39  1  0
 16 40  1  0
 16 41  1  0
 18 42  1  0
 19 43  1  0
 20 44  1  0
 21 45  1  0
 22 46  1  0
M  END
>  <meeko>  (4) 
{"is_sidechain": [false], "free_energy": -8.055, "intermolecular_energy": -9.294, "internal_energy": -0.552}

$$$$
ligand_100_conformer_3_docked
     RDKit          3D

 46 48  0  0  0  0  0  0  0  0999 V2000
    1.1210   45.9870   52.7950 C   0  0  0  0  0  0  0  0  0  0  0  0
    1.6400   44.5460   52.9600 C   0  0  0  0  0  0  0  0  0  0  0  0
    2.5640   44.4830   54.1950 C   0  0  0  0  0  0  0  0  0  0  0  0
    0.5020   43.6640   53.1650 N   0  0  0  0  0  0  0  0  0  0  0  0
    0.2550   42.9140   51.9960 C   0  0  0  0  0  0  0  0  0  0  0  0
   -0.7190   42.1250   51.8860 O   0  0  0  0  0  0  0  0  0  0  0  0
    1.2200   43.1900   50.9130 C   0  0  0  0  0  0  0  0  0  0  0  0
    2.2970   44.0530   51.6150 C   0  0  2  0  0  0  0  0  0  0  0  0
    3.5760   43.2570   51.8200 C   0  0  0  0  0  0  0  0  0  0  0  0
    3.5610   42.2680   52.6050 O   0  0  0  0  0  0  0  0  0  0  0  0
    4.8190   43.6470   51.1910 N   0  0  0  0  0  0  0  0  0  0  0  0
    5.6820   42.7190   50.4690 C   0  0  0  0  0  0  0  0  0  0  0  0
    6.7270   43.5750   49.7730 C   0  0  0  0  0  0  0  0  0  0  0  0
    6.7190   44.9090   50.5070 C   0  0  0  0  0  0  0  0  0  0  0  0
    5.3180   45.0270   51.1410 C   0  0  1  0  0  0  0  0  0  0  0  0
    4.3860   45.8410   50.2110 C   0  0  0  0  0  0  0  0  0  0  0  0
    5.4390   45.6240   52.5520 C   0  0  0  0  0  0  0  0  0  0  0  0
    6.0760   44.9300   53.6050 C   0  0  0  0  0  0  0  0  0  0  0  0
    6.1300   45.4790   54.8900 C   0  0  0  0  0  0  0  0  0  0  0  0
    5.5330   46.7120   55.1530 C   0  0  0  0  0  0  0  0  0  0  0  0
    4.8670   47.3950   54.1350 C   0  0  0  0  0  0  0  0  0  0  0  0
    4.8080   46.8520   52.8490 C   0  0  0  0  0  0  0  0  0  0  0  0
    0.9598   46.4345   53.7868 H   0  0  0  0  0  0  0  0  0  0  0  0
    1.8613   46.5821   52.2402 H   0  0  0  0  0  0  0  0  0  0  0  0
    0.1713   45.9734   52.2402 H   0  0  0  0  0  0  0  0  0  0  0  0
    1.9557   44.5245   55.1106 H   0  0  0  0  0  0  0  0  0  0  0  0
    3.1363   43.5438   54.1772 H   0  0  0  0  0  0  0  0  0  0  0  0
    3.2585   45.3359   54.1772 H   0  0  0  0  0  0  0  0  0  0  0  0
   -0.1380   43.6910   53.9920 H   0  0  0  0  0  0  0  0  0  0  0  0
    1.6536   42.2573   50.5231 H   0  0  0  0  0  0  0  0  0  0  0  0
    0.7648   43.6883   50.0444 H   0  0  0  0  0  0  0  0  0  0  0  0
    2.6031   44.9200   51.0112 H   0  0  0  0  0  0  0  0  0  0  0  0
    6.1641   42.0214   51.1696 H   0  0  0  0  0  0  0  0  0  0  0  0
    5.1110   42.1147   49.7487 H   0  0  0  0  0  0  0  0  0  0  0  0
    7.7184   43.1038   49.8438 H   0  0  0  0  0  0  0  0  0  0  0  0
    6.5050   43.6981   48.7027 H   0  0  0  0  0  0  0  0  0  0  0  0
    7.4952   44.9228   51.2863 H   0  0  0  0  0  0  0  0  0  0  0  0
    6.9295   45.7480   49.8275 H   0  0  0  0  0  0  0  0  0  0  0  0
    3.6959   46.4437   50.8198 H   0  0  0  0  0  0  0  0  0  0  0  0
    4.9907   46.5053   49.5762 H   0  0  0  0  0  0  0  0  0  0  0  0
    3.8091   45.1524   49.5762 H   0  0  0  0  0  0  0  0  0  0  0  0
    6.5338   43.9485   53.4122 H   0  0  0  0  0  0  0  0  0  0  0  0
    6.6452   44.9365   55.6964 H   0  0  0  0  0  0  0  0  0  0  0  0
    5.5873   47.1455   56.1625 H   0  0  0  0  0  0  0  0  0  0  0  0
    4.3876   48.3625   54.3451 H   0  0  0  0  0  0  0  0  0  0  0  0
    4.2631   47.3878   52.0578 H   0  0  0  0  0  0  0  0  0  0  0  0
  1  2  1  0
  2  3  1  0
  2  4  1  0
  4  5  1  0
  5  6  2  0
  5  7  1  0
  7  8  1  0
  8  9  1  0
  9 10  2  0
  9 11  1  0
 11 12  1  0
 12 13  1  0
 13 14  1  0
 14 15  1  0
 15 16  1  6
 15 17  1  0
 17 18  2  0
 18 19  1  0
 19 20  2  0
 20 21  1  0
 21 22  2  0
  8  2  1  0
 15 11  1  0
 22 17  1  0
  1 23  1  0
  1 24  1  0
  1 25  1  0
  3 26  1  0
  3 27  1  0
  3 28  1  0
  4 29  1  0
  7 30  1  0
  7 31  1  0
  8 32  1  6
 12 33  1  0
 12 34  1  0
 13 35  1  0
 13 36  1  0
 14 37  1  0
 14 38  1  0
 16 39  1  0
 16 40  1  0
 16 41  1  0
 18 42  1  0
 19 43  1  0
 20 44  1  0
 21 45  1  0
 22 46  1  0
M  END
>  <meeko>  (5) 
{"is_sidechain": [false], "free_energy": -7.492, "intermolecular_energy": -8.283, "internal_energy": -0.901}

$$$$
