ligand_82_conformer_2_docked
     RDKit          3D

 48 50  0  0  0  0  0  0  0  0999 V2000
    6.5520   41.7070   50.0820 C   0  0  0  0  0  0  0  0  0  0  0  0
    5.2630   42.3530   50.4930 C   0  0  0  0  0  0  0  0  0  0  0  0
    5.1320   43.7500   50.4660 C   0  0  0  0  0  0  0  0  0  0  0  0
    3.9140   44.3510   50.7980 C   0  0  0  0  0  0  0  0  0  0  0  0
    2.8090   43.5590   51.1320 C   0  0  0  0  0  0  0  0  0  0  0  0
    1.2350   44.3260   51.5210 S   0  0  0  0  0  0  0  0  0  0  0  0
    1.7010   44.8380   53.2140 C   0  0  0  0  0  0  0  0  0  0  0  0
    2.5790   46.0630   53.1890 C   0  0  0  0  0  0  0  0  0  0  0  0
    2.0920   47.1180   52.6960 O   0  0  0  0  0  0  0  0  0  0  0  0
    3.9200   46.0880   53.7330 N   0  0  0  0  0  0  0  0  0  0  0  0
    4.6440   44.8500   54.0790 C   0  0  0  0  0  0  0  0  0  0  0  0
    6.1700   44.9470   53.8520 C   0  0  0  0  0  0  0  0  0  0  0  0
    6.7350   46.3930   53.7230 C   0  0  0  0  0  0  0  0  0  0  0  0
    5.8980   47.2980   54.6550 C   0  0  0  0  0  0  0  0  0  0  0  0
    4.4530   47.3930   54.1580 C   0  0  0  0  0  0  0  0  0  0  0  0
    8.2340   46.4340   54.1850 C   0  0  0  0  0  0  0  0  0  0  0  0
    9.0640   47.4550   53.3890 C   0  0  2  0  0  0  0  0  0  0  0  0
    8.7370   48.7710   53.7620 O   0  0  0  0  0  0  0  0  0  0  0  0
    8.9190   47.2310   51.8680 C   0  0  0  0  0  0  0  0  0  0  0  0
    7.6220   46.4880   51.5210 C   0  0  0  0  0  0  0  0  0  0  0  0
    6.5630   46.8670   52.3830 O   0  0  0  0  0  0  0  0  0  0  0  0
    2.9360   42.1650   51.1630 C   0  0  0  0  0  0  0  0  0  0  0  0
    4.1550   41.5630   50.8390 C   0  0  0  0  0  0  0  0  0  0  0  0
    7.1214   41.4216   50.9788 H   0  0  0  0  0  0  0  0  0  0  0  0
    6.3378   40.8097   49.4828 H   0  0  0  0  0  0  0  0  0  0  0  0
    7.1426   42.4157   49.4828 H   0  0  0  0  0  0  0  0  0  0  0  0
    5.9915   44.3751   50.1823 H   0  0  0  0  0  0  0  0  0  0  0  0
    3.8239   45.4473   50.7968 H   0  0  0  0  0  0  0  0  0  0  0  0
    0.7882   45.0620   53.7855 H   0  0  0  0  0  0  0  0  0  0  0  0
    2.2609   44.0168   53.6853 H   0  0  0  0  0  0  0  0  0  0  0  0
    4.4630   44.6254   55.1405 H   0  0  0  0  0  0  0  0  0  0  0  0
    4.2669   44.0574   53.4160 H   0  0  0  0  0  0  0  0  0  0  0  0
    6.6713   44.4612   54.7022 H   0  0  0  0  0  0  0  0  0  0  0  0
    6.3648   44.4578   52.8862 H   0  0  0  0  0  0  0  0  0  0  0  0
    5.9040   46.8752   55.6705 H   0  0  0  0  0  0  0  0  0  0  0  0
    6.3384   48.3060   54.6600 H   0  0  0  0  0  0  0  0  0  0  0  0
    3.8243   47.7836   54.9717 H   0  0  0  0  0  0  0  0  0  0  0  0
    4.4415   48.0613   53.2843 H   0  0  0  0  0  0  0  0  0  0  0  0
    8.2681   46.7047   55.2506 H   0  0  0  0  0  0  0  0  0  0  0  0
    8.6672   45.4384   54.0085 H   0  0  0  0  0  0  0  0  0  0  0  0
   10.1245   47.2998   53.6365 H   0  0  0  0  0  0  0  0  0  0  0  0
    7.9840   48.7360   54.4080 H   0  0  0  0  0  0  0  0  0  0  0  0
    8.9151   48.2083   51.3632 H   0  0  0  0  0  0  0  0  0  0  0  0
    9.7658   46.6148   51.5315 H   0  0  0  0  0  0  0  0  0  0  0  0
    7.3411   46.7234   50.4839 H   0  0  0  0  0  0  0  0  0  0  0  0
    7.7979   45.4089   51.6422 H   0  0  0  0  0  0  0  0  0  0  0  0
    2.0739   41.5418   51.4431 H   0  0  0  0  0  0  0  0  0  0  0  0
    4.2467   40.4669   50.8551 H   0  0  0  0  0  0  0  0  0  0  0  0
  1  2  1  0
  2  3  2  0
  3  4  1  0
  4  5  2  0
  5  6  1  0
  6  7  1  0
  7  8  1  0
  8  9  2  0
  8 10  1  0
 10 11  1  0
 11 12  1  0
 12 13  1  0
 13 14  1  0
 14 15  1  0
 13 16  1  0
 16 17  1  0
 17 18  1  0
 17 19  1  0
 19 20  1  0
 20 21  1  0
  5 22  1  0
 22 23  2  0
 23  2  1  0
 15 10  1  0
 21 13  1  0
  1 24  1  0
  1 25  1  0
  1 26  1  0
  3 27  1  0
  4 28  1  0
  7 29  1  0
  7 30  1  0
 11 31  1  0
 11 32  1  0
 12 33  1  0
 12 34  1  0
 14 35  1  0
 14 36  1  0
 15 37  1  0
 15 38  1  0
 16 39  1  0
 16 40  1  0
 17 41  1  1
 18 42  1  0
 19 43  1  0
 19 44  1  0
 20 45  1  0
 20 46  1  0
 22 47  1  0
 23 48  1  0
M  END
>  <meeko>  (1) 
{"is_sidechain": [false], "free_energy": -8.317, "intermolecular_energy": -10.019, "internal_energy": -0.451}

$$$$
ligand_82_conformer_2_docked
     RDKit          3D

 48 50  0  0  0  0  0  0  0  0999 V2000
   10.3830   47.4740   55.3100 C   0  0  0  0  0  0  0  0  0  0  0  0
    9.6090   47.0710   54.0890 C   0  0  0  0  0  0  0  0  0  0  0  0
   10.2840   46.7220   52.9090 C   0  0  0  0  0  0  0  0  0  0  0  0
    9.5660   46.2940   51.7880 C   0  0  0  0  0  0  0  0  0  0  0  0
    8.1710   46.1860   51.8470 C   0  0  0  0  0  0  0  0  0  0  0  0
    7.2520   45.6010   50.4210 S   0  0  0  0  0  0  0  0  0  0  0  0
    6.0690   44.5860   51.3780 C   0  0  0  0  0  0  0  0  0  0  0  0
    4.7070   45.2290   51.4170 C   0  0  0  0  0  0  0  0  0  0  0  0
    4.6460   46.4750   51.2250 O   0  0  0  0  0  0  0  0  0  0  0  0
    3.4830   44.4830   51.6230 N   0  0  0  0  0  0  0  0  0  0  0  0
    3.4930   43.0910   52.1090 C   0  0  0  0  0  0  0  0  0  0  0  0
    2.2790   42.7450   53.0030 C   0  0  0  0  0  0  0  0  0  0  0  0
    1.0720   43.7240   52.8990 C   0  0  0  0  0  0  0  0  0  0  0  0
    1.0090   44.2210   51.4370 C   0  0  0  0  0  0  0  0  0  0  0  0
    2.2380   45.0710   51.1020 C   0  0  0  0  0  0  0  0  0  0  0  0
   -0.2640   42.9780   53.2430 C   0  0  0  0  0  0  0  0  0  0  0  0
   -1.2800   43.8920   53.9480 C   0  0  2  0  0  0  0  0  0  0  0  0
   -1.8320   44.8210   53.0480 O   0  0  0  0  0  0  0  0  0  0  0  0
   -0.6530   44.5820   55.1800 C   0  0  0  0  0  0  0  0  0  0  0  0
    0.8770   44.6550   55.0760 C   0  0  0  0  0  0  0  0  0  0  0  0
    1.2940   44.8630   53.7390 O   0  0  0  0  0  0  0  0  0  0  0  0
    7.4950   46.5360   53.0210 C   0  0  0  0  0  0  0  0  0  0  0  0
    8.2100   46.9710   54.1400 C   0  0  0  0  0  0  0  0  0  0  0  0
    9.8237   47.1828   56.2113 H   0  0  0  0  0  0  0  0  0  0  0  0
   11.3611   46.9707   55.3068 H   0  0  0  0  0  0  0  0  0  0  0  0
   10.5315   48.5639   55.3068 H   0  0  0  0  0  0  0  0  0  0  0  0
   11.3813   46.7854   52.8659 H   0  0  0  0  0  0  0  0  0  0  0  0
   10.0976   46.0418   50.8586 H   0  0  0  0  0  0  0  0  0  0  0  0
    5.9846   43.5949   50.9084 H   0  0  0  0  0  0  0  0  0  0  0  0
    6.4415   44.4960   52.4091 H   0  0  0  0  0  0  0  0  0  0  0  0
    3.4889   42.4177   51.2391 H   0  0  0  0  0  0  0  0  0  0  0  0
    4.3961   42.9680   52.7249 H   0  0  0  0  0  0  0  0  0  0  0  0
    1.9268   41.7411   52.7233 H   0  0  0  0  0  0  0  0  0  0  0  0
    2.6372   42.8147   54.0407 H   0  0  0  0  0  0  0  0  0  0  0  0
    0.9748   43.3534   50.7616 H   0  0  0  0  0  0  0  0  0  0  0  0
    0.1069   44.8377   51.3112 H   0  0  0  0  0  0  0  0  0  0  0  0
    2.3193   45.1598   50.0086 H   0  0  0  0  0  0  0  0  0  0  0  0
    2.1062   46.0547   51.5764 H   0  0  0  0  0  0  0  0  0  0  0  0
   -0.7115   42.6060   52.3095 H   0  0  0  0  0  0  0  0  0  0  0  0
   -0.0210   42.1536   53.9296 H   0  0  0  0  0  0  0  0  0  0  0  0
   -2.1049   43.2644   54.3164 H   0  0  0  0  0  0  0  0  0  0  0  0
   -1.7860   44.4380   52.1340 H   0  0  0  0  0  0  0  0  0  0  0  0
   -1.0536   45.6035   55.2582 H   0  0  0  0  0  0  0  0  0  0  0  0
   -0.9070   43.9882   56.0704 H   0  0  0  0  0  0  0  0  0  0  0  0
    1.2388   45.4874   55.6975 H   0  0  0  0  0  0  0  0  0  0  0  0
    1.2940   43.6985   55.4241 H   0  0  0  0  0  0  0  0  0  0  0  0
    6.3979   46.4685   53.0632 H   0  0  0  0  0  0  0  0  0  0  0  0
    7.6747   47.2359   55.0637 H   0  0  0  0  0  0  0  0  0  0  0  0
  1  2  1  0
  2  3  2  0
  3  4  1  0
  4  5  2  0
  5  6  1  0
  6  7  1  0
  7  8  1  0
  8  9  2  0
  8 10  1  0
 10 11  1  0
 11 12  1  0
 12 13  1  0
 13 14  1  0
 14 15  1  0
 13 16  1  0
 16 17  1  0
 17 18  1  0
 17 19  1  0
 19 20  1  0
 20 21  1  0
  5 22  1  0
 22 23  2  0
 23  2  1  0
 15 10  1  0
 21 13  1  0
  1 24  1  0
  1 25  1  0
  1 26  1  0
  3 27  1  0
  4 28  1  0
  7 29  1  0
  7 30  1  0
 11 31  1  0
 11 32  1  0
 12 33  1  0
 12 34  1  0
 14 35  1  0
 14 36  1  0
 15 37  1  0
 15 38  1  0
 16 39  1  0
 16 40  1  0
 17 41  1  1
 18 42  1  0
 19 43  1  0
 19 44  1  0
 20 45  1  0
 20 46  1  0
 22 47  1  0
 23 48  1  0
M  END
>  <meeko>  (2) 
{"is_sidechain": [false], "free_energy": -8.312, "intermolecular_energy": -10.287, "internal_energy": -0.177}

$$$$
ligand_82_conformer_2_docked
     RDKit          3D

 48 50  0  0  0  0  0  0  0  0999 V2000
   10.3050   47.5860   55.4450 C   0  0  0  0  0  0  0  0  0  0  0  0
    9.5910   47.1520   54.1990 C   0  0  0  0  0  0  0  0  0  0  0  0
   10.3210   46.7670   53.0640 C   0  0  0  0  0  0  0  0  0  0  0  0
    9.6580   46.3120   51.9210 C   0  0  0  0  0  0  0  0  0  0  0  0
    8.2610   46.2100   51.9130 C   0  0  0  0  0  0  0  0  0  0  0  0
    7.4110   45.5890   50.4600 S   0  0  0  0  0  0  0  0  0  0  0  0
    5.7240   45.8450   51.1200 C   0  0  0  0  0  0  0  0  0  0  0  0
    4.9480   44.5530   51.1430 C   0  0  0  0  0  0  0  0  0  0  0  0
    5.3330   43.6280   50.3770 O   0  0  0  0  0  0  0  0  0  0  0  0
    3.8200   44.3220   52.0220 N   0  0  0  0  0  0  0  0  0  0  0  0
    3.1550   45.4240   52.7430 C   0  0  0  0  0  0  0  0  0  0  0  0
    1.6350   45.2070   52.9280 C   0  0  0  0  0  0  0  0  0  0  0  0
    1.1410   43.7430   52.7320 C   0  0  0  0  0  0  0  0  0  0  0  0
    2.2590   42.8080   53.2450 C   0  0  0  0  0  0  0  0  0  0  0  0
    3.5070   42.9240   52.3650 C   0  0  0  0  0  0  0  0  0  0  0  0
   -0.1600   43.4910   53.5720 C   0  0  0  0  0  0  0  0  0  0  0  0
   -1.1220   42.5100   52.8830 C   0  0  2  0  0  0  0  0  0  0  0  0
   -0.6270   41.1940   52.9400 O   0  0  0  0  0  0  0  0  0  0  0  0
   -1.4280   42.9510   51.4340 C   0  0  0  0  0  0  0  0  0  0  0  0
   -0.3290   43.8590   50.8690 C   0  0  0  0  0  0  0  0  0  0  0  0
    0.9520   43.4740   51.3380 O   0  0  0  0  0  0  0  0  0  0  0  0
    7.5300   46.5940   53.0430 C   0  0  0  0  0  0  0  0  0  0  0  0
    8.1910   47.0570   54.1830 C   0  0  0  0  0  0  0  0  0  0  0  0
    9.7435   47.2447   56.3271 H   0  0  0  0  0  0  0  0  0  0  0  0
   11.3140   47.1483   55.4607 H   0  0  0  0  0  0  0  0  0  0  0  0
   10.3810   48.6833   55.4607 H   0  0  0  0  0  0  0  0  0  0  0  0
   11.4195   46.8236   53.0740 H   0  0  0  0  0  0  0  0  0  0  0  0
   10.2341   46.0335   51.0262 H   0  0  0  0  0  0  0  0  0  0  0  0
    5.7951   46.2396   52.1443 H   0  0  0  0  0  0  0  0  0  0  0  0
    5.1978   46.5568   50.4669 H   0  0  0  0  0  0  0  0  0  0  0  0
    3.6172   45.5198   53.7366 H   0  0  0  0  0  0  0  0  0  0  0  0
    3.2821   46.3328   52.1364 H   0  0  0  0  0  0  0  0  0  0  0  0
    1.3689   45.5214   53.9480 H   0  0  0  0  0  0  0  0  0  0  0  0
    1.1460   45.8001   52.1412 H   0  0  0  0  0  0  0  0  0  0  0  0
    2.5177   43.0867   54.2772 H   0  0  0  0  0  0  0  0  0  0  0  0
    1.8963   41.7701   53.2098 H   0  0  0  0  0  0  0  0  0  0  0  0
    4.3624   42.4921   52.9052 H   0  0  0  0  0  0  0  0  0  0  0  0
    3.3099   42.3831   51.4277 H   0  0  0  0  0  0  0  0  0  0  0  0
    0.1259   43.0770   54.5502 H   0  0  0  0  0  0  0  0  0  0  0  0
   -0.6820   44.4534   53.6783 H   0  0  0  0  0  0  0  0  0  0  0  0
   -2.0752   42.5242   53.4319 H   0  0  0  0  0  0  0  0  0  0  0  0
   -0.2760   40.9520   52.0440 H   0  0  0  0  0  0  0  0  0  0  0  0
   -1.5110   42.0561   50.7998 H   0  0  0  0  0  0  0  0  0  0  0  0
   -2.3696   43.5196   51.4421 H   0  0  0  0  0  0  0  0  0  0  0  0
   -0.3420   43.7958   49.7709 H   0  0  0  0  0  0  0  0  0  0  0  0
   -0.5249   44.8886   51.2031 H   0  0  0  0  0  0  0  0  0  0  0  0
    6.4318   46.5310   53.0333 H   0  0  0  0  0  0  0  0  0  0  0  0
    7.6119   47.3483   55.0717 H   0  0  0  0  0  0  0  0  0  0  0  0
  1  2  1  0
  2  3  2  0
  3  4  1  0
  4  5  2  0
  5  6  1  0
  6  7  1  0
  7  8  1  0
  8  9  2  0
  8 10  1  0
 10 11  1  0
 11 12  1  0
 12 13  1  0
 13 14  1  0
 14 15  1  0
 13 16  1  0
 16 17  1  0
 17 18  1  0
 17 19  1  0
 19 20  1  0
 20 21  1  0
  5 22  1  0
 22 23  2  0
 23  2  1  0
 15 10  1  0
 21 13  1  0
  1 24  1  0
  1 25  1  0
  1 26  1  0
  3 27  1  0
  4 28  1  0
  7 29  1  0
  7 30  1  0
 11 31  1  0
 11 32  1  0
 12 33  1  0
 12 34  1  0
 14 35  1  0
 14 36  1  0
 15 37  1  0
 15 38  1  0
 16 39  1  0
 16 40  1  0
 17 41  1  1
 18 42  1  0
 19 43  1  0
 19 44  1  0
 20 45  1  0
 20 46  1  0
 22 47  1  0
 23 48  1  0
M  END
>  <meeko>  (3) 
{"is_sidechain": [false], "free_energy": -8.27, "intermolecular_energy": -10.13, "internal_energy": -0.283}

$$$$
ligand_82_conformer_2_docked
     RDKit          3D

 48 50  0  0  0  0  0  0  0  0999 V2000
    8.4860   44.0000   48.8960 C   0  0  0  0  0  0  0  0  0  0  0  0
    8.3180   44.9020   50.0830 C   0  0  0  0  0  0  0  0  0  0  0  0
    7.0350   45.2930   50.4970 C   0  0  0  0  0  0  0  0  0  0  0  0
    6.8740   46.0900   51.6340 C   0  0  0  0  0  0  0  0  0  0  0  0
    7.9920   46.4790   52.3830 C   0  0  0  0  0  0  0  0  0  0  0  0
    7.7840   47.4690   53.8650 S   0  0  0  0  0  0  0  0  0  0  0  0
    6.4490   46.4430   54.5770 C   0  0  0  0  0  0  0  0  0  0  0  0
    5.0920   47.0100   54.2470 C   0  0  0  0  0  0  0  0  0  0  0  0
    4.8620   48.2030   54.5840 O   0  0  0  0  0  0  0  0  0  0  0  0
    4.0740   46.2640   53.5360 N   0  0  0  0  0  0  0  0  0  0  0  0
    4.1660   44.8050   53.3460 C   0  0  0  0  0  0  0  0  0  0  0  0
    2.7910   44.0980   53.3470 C   0  0  0  0  0  0  0  0  0  0  0  0
    1.5620   45.0270   53.1150 C   0  0  0  0  0  0  0  0  0  0  0  0
    2.0070   46.1430   52.1440 C   0  0  0  0  0  0  0  0  0  0  0  0
    3.0620   47.0390   52.7980 C   0  0  0  0  0  0  0  0  0  0  0  0
    0.3860   44.2200   52.4620 C   0  0  0  0  0  0  0  0  0  0  0  0
   -0.9930   44.7150   52.9260 C   0  0  2  0  0  0  0  0  0  0  0  0
   -1.3020   45.9610   52.3500 O   0  0  0  0  0  0  0  0  0  0  0  0
   -1.0850   44.7520   54.4680 C   0  0  0  0  0  0  0  0  0  0  0  0
    0.3000   44.8490   55.1200 C   0  0  0  0  0  0  0  0  0  0  0  0
    1.1800   45.6470   54.3480 O   0  0  0  0  0  0  0  0  0  0  0  0
    9.2730   46.0920   51.9720 C   0  0  0  0  0  0  0  0  0  0  0  0
    9.4360   45.3020   50.8310 C   0  0  0  0  0  0  0  0  0  0  0  0
    8.6773   42.9729   49.2401 H   0  0  0  0  0  0  0  0  0  0  0  0
    7.5690   44.0184   48.2888 H   0  0  0  0  0  0  0  0  0  0  0  0
    9.3349   44.3473   48.2888 H   0  0  0  0  0  0  0  0  0  0  0  0
    6.1527   44.9709   49.9244 H   0  0  0  0  0  0  0  0  0  0  0  0
    5.8680   46.4122   51.9410 H   0  0  0  0  0  0  0  0  0  0  0  0
    6.5218   45.4246   54.1676 H   0  0  0  0  0  0  0  0  0  0  0  0
    6.5649   46.4300   55.6708 H   0  0  0  0  0  0  0  0  0  0  0  0
    4.6581   44.6092   52.3819 H   0  0  0  0  0  0  0  0  0  0  0  0
    4.7389   44.4024   54.1944 H   0  0  0  0  0  0  0  0  0  0  0  0
    2.7986   43.3398   52.5500 H   0  0  0  0  0  0  0  0  0  0  0  0
    2.6670   43.6775   54.3559 H   0  0  0  0  0  0  0  0  0  0  0  0
    2.4325   45.6856   51.2386 H   0  0  0  0  0  0  0  0  0  0  0  0
    1.1318   46.7572   51.8855 H   0  0  0  0  0  0  0  0  0  0  0  0
    3.5661   47.6224   52.0135 H   0  0  0  0  0  0  0  0  0  0  0  0
    2.5484   47.6932   53.5178 H   0  0  0  0  0  0  0  0  0  0  0  0
    0.4496   44.3252   51.3689 H   0  0  0  0  0  0  0  0  0  0  0  0
    0.4871   43.1696   52.7725 H   0  0  0  0  0  0  0  0  0  0  0  0
   -1.7488   43.9968   52.5755 H   0  0  0  0  0  0  0  0  0  0  0  0
   -0.8100   46.0400   51.4920 H   0  0  0  0  0  0  0  0  0  0  0  0
   -1.6816   45.6261   54.7681 H   0  0  0  0  0  0  0  0  0  0  0  0
   -1.5562   43.8167   54.8046 H   0  0  0  0  0  0  0  0  0  0  0  0
    0.1946   45.2966   56.1193 H   0  0  0  0  0  0  0  0  0  0  0  0
    0.7220   43.8355   55.1888 H   0  0  0  0  0  0  0  0  0  0  0  0
   10.1537   46.4107   52.5489 H   0  0  0  0  0  0  0  0  0  0  0  0
   10.4441   44.9926   50.5180 H   0  0  0  0  0  0  0  0  0  0  0  0
  1  2  1  0
  2  3  2  0
  3  4  1  0
  4  5  2  0
  5  6  1  0
  6  7  1  0
  7  8  1  0
  8  9  2  0
  8 10  1  0
 10 11  1  0
 11 12  1  0
 12 13  1  0
 13 14  1  0
 14 15  1  0
 13 16  1  0
 16 17  1  0
 17 18  1  0
 17 19  1  0
 19 20  1  0
 20 21  1  0
  5 22  1  0
 22 23  2  0
 23  2  1  0
 15 10  1  0
 21 13  1  0
  1 24  1  0
  1 25  1  0
  1 26  1  0
  3 27  1  0
  4 28  1  0
  7 29  1  0
  7 30  1  0
 11 31  1  0
 11 32  1  0
 12 33  1  0
 12 34  1  0
 14 35  1  0
 14 36  1  0
 15 37  1  0
 15 38  1  0
 16 39  1  0
 16 40  1  0
 17 41  1  6
 18 42  1  0
 19 43  1  0
 19 44  1  0
 20 45  1  0
 20 46  1  0
 22 47  1  0
 23 48  1  0
M  END
>  <meeko>  (4) 
{"is_sidechain": [false], "free_energy": -7.826, "intermolecular_energy": -9.799, "internal_energy": -0.079}

$$$$
ligand_82_conformer_2_docked
     RDKit          3D

 48 50  0  0  0  0  0  0  0  0999 V2000
   -0.9590   46.7570   57.6420 C   0  0  0  0  0  0  0  0  0  0  0  0
   -0.3900   45.7970   56.6390 C   0  0  0  0  0  0  0  0  0  0  0  0
   -1.2410   45.1000   55.7680 C   0  0  0  0  0  0  0  0  0  0  0  0
   -0.7090   44.2450   54.7970 C   0  0  0  0  0  0  0  0  0  0  0  0
    0.6790   44.1040   54.6720 C   0  0  0  0  0  0  0  0  0  0  0  0
    1.3650   43.0380   53.4020 S   0  0  0  0  0  0  0  0  0  0  0  0
    2.2230   44.3740   52.4940 C   0  0  0  0  0  0  0  0  0  0  0  0
    3.6680   44.0240   52.2490 C   0  0  0  0  0  0  0  0  0  0  0  0
    4.0000   42.8110   52.3590 O   0  0  0  0  0  0  0  0  0  0  0  0
    4.6650   44.9990   51.8610 N   0  0  0  0  0  0  0  0  0  0  0  0
    4.4190   46.4490   51.9670 C   0  0  0  0  0  0  0  0  0  0  0  0
    5.6880   47.2640   52.3110 C   0  0  0  0  0  0  0  0  0  0  0  0
    7.0390   46.5280   52.0670 C   0  0  0  0  0  0  0  0  0  0  0  0
    6.8520   45.6190   50.8310 C   0  0  0  0  0  0  0  0  0  0  0  0
    5.8430   44.5060   51.1280 C   0  0  0  0  0  0  0  0  0  0  0  0
    8.1780   47.5660   51.7700 C   0  0  0  0  0  0  0  0  0  0  0  0
    9.5420   47.1110   52.3110 C   0  0  2  0  0  0  0  0  0  0  0  0
   10.0660   46.0580   51.5380 O   0  0  0  0  0  0  0  0  0  0  0  0
    9.4550   46.7400   53.8080 C   0  0  0  0  0  0  0  0  0  0  0  0
    8.0240   46.3720   54.2240 C   0  0  0  0  0  0  0  0  0  0  0  0
    7.3450   45.6870   53.1860 O   0  0  0  0  0  0  0  0  0  0  0  0
    1.5300   44.7970   55.5400 C   0  0  0  0  0  0  0  0  0  0  0  0
    0.9990   45.6450   56.5160 C   0  0  0  0  0  0  0  0  0  0  0  0
   -0.7446   46.3952   58.6584 H   0  0  0  0  0  0  0  0  0  0  0  0
   -0.5022   47.7477   57.5014 H   0  0  0  0  0  0  0  0  0  0  0  0
   -2.0474   46.8318   57.5014 H   0  0  0  0  0  0  0  0  0  0  0  0
   -2.3307   45.2264   55.8490 H   0  0  0  0  0  0  0  0  0  0  0  0
   -1.3809   43.6832   54.1314 H   0  0  0  0  0  0  0  0  0  0  0  0
    1.7224   44.5298   51.5270 H   0  0  0  0  0  0  0  0  0  0  0  0
    2.1842   45.2898   53.1022 H   0  0  0  0  0  0  0  0  0  0  0  0
    4.0250   46.8071   51.0044 H   0  0  0  0  0  0  0  0  0  0  0  0
    3.7045   46.5978   52.7901 H   0  0  0  0  0  0  0  0  0  0  0  0
    5.6825   48.1766   51.6968 H   0  0  0  0  0  0  0  0  0  0  0  0
    5.6396   47.4598   53.3923 H   0  0  0  0  0  0  0  0  0  0  0  0
    6.4849   46.2245   49.9892 H   0  0  0  0  0  0  0  0  0  0  0  0
    7.8198   45.1618   50.5774 H   0  0  0  0  0  0  0  0  0  0  0  0
    5.5091   44.0682   50.1757 H   0  0  0  0  0  0  0  0  0  0  0  0
    6.3439   43.7585   51.7608 H   0  0  0  0  0  0  0  0  0  0  0  0
    8.2573   47.7013   50.6812 H   0  0  0  0  0  0  0  0  0  0  0  0
    7.9141   48.5067   52.2754 H   0  0  0  0  0  0  0  0  0  0  0  0
   10.2406   47.9566   52.2283 H   0  0  0  0  0  0  0  0  0  0  0  0
    9.6230   45.2150   51.8160 H   0  0  0  0  0  0  0  0  0  0  0  0
   10.1135   45.8801   54.0002 H   0  0  0  0  0  0  0  0  0  0  0  0
    9.7661   47.6166   54.3952 H   0  0  0  0  0  0  0  0  0  0  0  0
    8.0646   45.7254   55.1130 H   0  0  0  0  0  0  0  0  0  0  0  0
    7.4767   47.3009   54.4423 H   0  0  0  0  0  0  0  0  0  0  0  0
    2.6197   44.6741   55.4540 H   0  0  0  0  0  0  0  0  0  0  0  0
    1.6725   46.1949   57.1898 H   0  0  0  0  0  0  0  0  0  0  0  0
  1  2  1  0
  2  3  2  0
  3  4  1  0
  4  5  2  0
  5  6  1  0
  6  7  1  0
  7  8  1  0
  8  9  2  0
  8 10  1  0
 10 11  1  0
 11 12  1  0
 12 13  1  0
 13 14  1  0
 14 15  1  0
 13 16  1  0
 16 17  1  0
 17 18  1  0
 17 19  1  0
 19 20  1  0
 20 21  1  0
  5 22  1  0
 22 23  2  0
 23  2  1  0
 15 10  1  0
 21 13  1  0
  1 24  1  0
  1 25  1  0
  1 26  1  0
  3 27  1  0
  4 28  1  0
  7 29  1  0
  7 30  1  0
 11 31  1  0
 11 32  1  0
 12 33  1  0
 12 34  1  0
 14 35  1  0
 14 36  1  0
 15 37  1  0
 15 38  1  0
 16 39  1  0
 16 40  1  0
 17 41  1  1
 18 42  1  0
 19 43  1  0
 19 44  1  0
 20 45  1  0
 20 46  1  0
 22 47  1  0
 23 48  1  0
M  END
>  <meeko>  (5) 
{"is_sidechain": [false], "free_energy": -7.774, "intermolecular_energy": -9.538, "internal_energy": -0.277}

$$$$
