ligand_88_conformer_4_docked
     RDKit          3D

 47 49  0  0  0  0  0  0  0  0999 V2000
    5.8050   41.5070   49.2180 C   0  0  0  0  0  0  0  0  0  0  0  0
    6.4070   42.8220   49.6150 C   0  0  0  0  0  0  0  0  0  0  0  0
    7.7210   43.1390   49.2400 C   0  0  0  0  0  0  0  0  0  0  0  0
    8.2960   44.3470   49.6430 C   0  0  0  0  0  0  0  0  0  0  0  0
    7.5760   45.2470   50.4450 C   0  0  0  0  0  0  0  0  0  0  0  0
    8.2080   46.5420   50.9080 C   0  0  0  0  0  0  0  0  0  0  0  0
    7.6440   47.0620   52.2630 C   0  0  0  0  0  0  0  0  0  0  0  0
    8.1190   48.5130   52.5100 C   0  0  0  0  0  0  0  0  0  0  0  0
    8.1910   46.1940   53.4160 C   0  0  0  0  0  0  0  0  0  0  0  0
    6.1670   47.0330   52.2630 N   0  0  0  0  0  0  0  0  0  0  0  0
    5.3400   47.1230   53.4390 C   0  0  0  0  0  0  0  0  0  0  0  0
    5.8290   47.4970   54.5390 O   0  0  0  0  0  0  0  0  0  0  0  0
    3.9120   46.7670   53.3860 C   0  0  0  0  0  0  0  0  0  0  0  0
    3.2580   45.8410   54.1780 C   0  0  0  0  0  0  0  0  0  0  0  0
    1.9490   45.9280   53.7550 C   0  0  0  0  0  0  0  0  0  0  0  0
    0.8140   45.1550   54.2730 C   0  0  0  0  0  0  0  0  0  0  0  0
    0.1380   44.1590   53.5940 C   0  0  0  0  0  0  0  0  0  0  0  0
   -0.8410   43.7500   54.4740 C   0  0  0  0  0  0  0  0  0  0  0  0
   -0.7220   44.4680   55.6070 N   0  0  0  0  0  0  0  0  0  0  0  0
   -1.6060   44.3940   56.7610 C   0  0  0  0  0  0  0  0  0  0  0  0
    0.2700   45.3360   55.4930 N   0  0  0  0  0  0  0  0  0  0  0  0
    1.8640   46.8290   52.8050 O   0  0  0  0  0  0  0  0  0  0  0  0
    3.0270   47.3580   52.5590 N   0  0  0  0  0  0  0  0  0  0  0  0
    6.2620   44.9240   50.8230 C   0  0  0  0  0  0  0  0  0  0  0  0
    5.6850   43.7160   50.4190 C   0  0  0  0  0  0  0  0  0  0  0  0
    5.5435   40.9359   50.1210 H   0  0  0  0  0  0  0  0  0  0  0  0
    4.8983   41.6842   48.6209 H   0  0  0  0  0  0  0  0  0  0  0  0
    6.5316   40.9365   48.6209 H   0  0  0  0  0  0  0  0  0  0  0  0
    8.3009   42.4339   48.6264 H   0  0  0  0  0  0  0  0  0  0  0  0
    9.3208   44.5949   49.3295 H   0  0  0  0  0  0  0  0  0  0  0  0
    9.2901   46.3798   51.0212 H   0  0  0  0  0  0  0  0  0  0  0  0
    7.9759   47.3034   50.1488 H   0  0  0  0  0  0  0  0  0  0  0  0
    8.1801   48.6996   53.5923 H   0  0  0  0  0  0  0  0  0  0  0  0
    9.1109   48.6563   52.0567 H   0  0  0  0  0  0  0  0  0  0  0  0
    7.4038   49.2151   52.0567 H   0  0  0  0  0  0  0  0  0  0  0  0
    7.9079   46.6433   54.3793 H   0  0  0  0  0  0  0  0  0  0  0  0
    7.7676   45.1812   53.3452 H   0  0  0  0  0  0  0  0  0  0  0  0
    9.2873   46.1389   53.3452 H   0  0  0  0  0  0  0  0  0  0  0  0
    5.6800   46.9150   51.3460 H   0  0  0  0  0  0  0  0  0  0  0  0
    3.6809   45.1911   54.9582 H   0  0  0  0  0  0  0  0  0  0  0  0
    0.3362   43.7788   52.5810 H   0  0  0  0  0  0  0  0  0  0  0  0
   -1.5921   42.9694   54.2831 H   0  0  0  0  0  0  0  0  0  0  0  0
   -1.0093   44.4439   57.6838 H   0  0  0  0  0  0  0  0  0  0  0  0
   -2.3133   45.2361   56.7357 H   0  0  0  0  0  0  0  0  0  0  0  0
   -2.1635   43.4461   56.7357 H   0  0  0  0  0  0  0  0  0  0  0  0
    5.6831   45.6261   51.4410 H   0  0  0  0  0  0  0  0  0  0  0  0
    4.6609   43.4660   50.7330 H   0  0  0  0  0  0  0  0  0  0  0  0
  1  2  1  0
  2  3  2  0
  3  4  1  0
  4  5  2  0
  5  6  1  0
  6  7  1  0
  7  8  1  0
  7  9  1  0
  7 10  1  0
 10 11  1  0
 11 12  2  0
 11 13  1  0
 13 14  1  0
 14 15  2  0
 15 16  1  0
 16 17  1  0
 17 18  2  0
 18 19  1  0
 19 20  1  0
 19 21  1  0
 15 22  1  0
 22 23  1  0
  5 24  1  0
 24 25  2  0
 25  2  1  0
 23 13  2  0
 21 16  2  0
  1 26  1  0
  1 27  1  0
  1 28  1  0
  3 29  1  0
  4 30  1  0
  6 31  1  0
  6 32  1  0
  8 33  1  0
  8 34  1  0
  8 35  1  0
  9 36  1  0
  9 37  1  0
  9 38  1  0
 10 39  1  0
 14 40  1  0
 17 41  1  0
 18 42  1  0
 20 43  1  0
 20 44  1  0
 20 45  1  0
 24 46  1  0
 25 47  1  0
M  END
>  <meeko>  (1) 
{"is_sidechain": [false], "free_energy": -9.441, "intermolecular_energy": -12.2, "internal_energy": 0.812}

$$$$
ligand_88_conformer_4_docked
     RDKit          3D

 47 49  0  0  0  0  0  0  0  0999 V2000
    5.8350   41.4500   49.2160 C   0  0  0  0  0  0  0  0  0  0  0  0
    6.4160   42.7650   49.6440 C   0  0  0  0  0  0  0  0  0  0  0  0
    5.6320   43.6860   50.3540 C   0  0  0  0  0  0  0  0  0  0  0  0
    6.1590   44.9280   50.7180 C   0  0  0  0  0  0  0  0  0  0  0  0
    7.4710   45.2770   50.3590 C   0  0  0  0  0  0  0  0  0  0  0  0
    8.0350   46.6330   50.7260 C   0  0  0  0  0  0  0  0  0  0  0  0
    7.7950   47.0270   52.2130 C   0  0  0  0  0  0  0  0  0  0  0  0
    8.0750   48.5360   52.4110 C   0  0  0  0  0  0  0  0  0  0  0  0
    8.7760   46.2520   53.1170 C   0  0  0  0  0  0  0  0  0  0  0  0
    6.4020   46.7410   52.6130 N   0  0  0  0  0  0  0  0  0  0  0  0
    5.9220   46.7150   53.9720 C   0  0  0  0  0  0  0  0  0  0  0  0
    6.6180   47.1970   54.9060 O   0  0  0  0  0  0  0  0  0  0  0  0
    4.6190   46.1140   54.3010 C   0  0  0  0  0  0  0  0  0  0  0  0
    3.7970   45.3970   53.4500 C   0  0  0  0  0  0  0  0  0  0  0  0
    2.7430   45.0300   54.2590 C   0  0  0  0  0  0  0  0  0  0  0  0
    1.5740   44.2400   53.8580 C   0  0  0  0  0  0  0  0  0  0  0  0
    1.6060   42.9970   53.2530 C   0  0  0  0  0  0  0  0  0  0  0  0
    0.2800   42.6760   53.0610 C   0  0  0  0  0  0  0  0  0  0  0  0
   -0.4750   43.6800   53.5450 N   0  0  0  0  0  0  0  0  0  0  0  0
   -1.9270   43.7650   53.4760 C   0  0  0  0  0  0  0  0  0  0  0  0
    0.2980   44.6440   54.0190 N   0  0  0  0  0  0  0  0  0  0  0  0
    2.9480   45.4960   55.4680 O   0  0  0  0  0  0  0  0  0  0  0  0
    4.0700   46.1510   55.5320 N   0  0  0  0  0  0  0  0  0  0  0  0
    8.2530   44.3540   49.6440 C   0  0  0  0  0  0  0  0  0  0  0  0
    7.7260   43.1110   49.2800 C   0  0  0  0  0  0  0  0  0  0  0  0
    5.5734   40.8579   50.1054 H   0  0  0  0  0  0  0  0  0  0  0  0
    4.9312   41.6269   48.6144 H   0  0  0  0  0  0  0  0  0  0  0  0
    6.5743   40.9009   48.6144 H   0  0  0  0  0  0  0  0  0  0  0  0
    4.5974   43.4295   50.6256 H   0  0  0  0  0  0  0  0  0  0  0  0
    5.5420   45.6370   51.2895 H   0  0  0  0  0  0  0  0  0  0  0  0
    9.1191   46.6204   50.5404 H   0  0  0  0  0  0  0  0  0  0  0  0
    7.5128   47.3775   50.1071 H   0  0  0  0  0  0  0  0  0  0  0  0
    8.1171   48.7631   53.4865 H   0  0  0  0  0  0  0  0  0  0  0  0
    9.0365   48.7949   51.9436 H   0  0  0  0  0  0  0  0  0  0  0  0
    7.2704   49.1226   51.9436 H   0  0  0  0  0  0  0  0  0  0  0  0
    8.5323   46.4445   54.1723 H   0  0  0  0  0  0  0  0  0  0  0  0
    8.6908   45.1747   52.9116 H   0  0  0  0  0  0  0  0  0  0  0  0
    9.8043   46.5842   52.9116 H   0  0  0  0  0  0  0  0  0  0  0  0
    5.7130   46.5160   51.8610 H   0  0  0  0  0  0  0  0  0  0  0  0
    3.9482   45.1734   52.3836 H   0  0  0  0  0  0  0  0  0  0  0  0
    2.4901   42.3997   52.9855 H   0  0  0  0  0  0  0  0  0  0  0  0
   -0.0977   41.7555   52.5918 H   0  0  0  0  0  0  0  0  0  0  0  0
   -2.3417   43.7893   54.4946 H   0  0  0  0  0  0  0  0  0  0  0  0
   -2.2156   44.6816   52.9407 H   0  0  0  0  0  0  0  0  0  0  0  0
   -2.3206   42.8884   52.9407 H   0  0  0  0  0  0  0  0  0  0  0  0
    9.2866   44.6110   49.3688 H   0  0  0  0  0  0  0  0  0  0  0  0
    8.3408   42.4019   48.7062 H   0  0  0  0  0  0  0  0  0  0  0  0
  1  2  1  0
  2  3  2  0
  3  4  1  0
  4  5  2  0
  5  6  1  0
  6  7  1  0
  7  8  1  0
  7  9  1  0
  7 10  1  0
 10 11  1  0
 11 12  2  0
 11 13  1  0
 13 14  1  0
 14 15  2  0
 15 16  1  0
 16 17  1  0
 17 18  2  0
 18 19  1  0
 19 20  1  0
 19 21  1  0
 15 22  1  0
 22 23  1  0
  5 24  1  0
 24 25  2  0
 25  2  1  0
 23 13  2  0
 21 16  2  0
  1 26  1  0
  1 27  1  0
  1 28  1  0
  3 29  1  0
  4 30  1  0
  6 31  1  0
  6 32  1  0
  8 33  1  0
  8 34  1  0
  8 35  1  0
  9 36  1  0
  9 37  1  0
  9 38  1  0
 10 39  1  0
 14 40  1  0
 17 41  1  0
 18 42  1  0
 20 43  1  0
 20 44  1  0
 20 45  1  0
 24 46  1  0
 25 47  1  0
M  END
>  <meeko>  (2) 
{"is_sidechain": [false], "free_energy": -9.433, "intermolecular_energy": -11.713, "internal_energy": 0.335}

$$$$
ligand_88_conformer_4_docked
     RDKit          3D

 47 49  0  0  0  0  0  0  0  0999 V2000
    6.7390   41.3290   50.0300 C   0  0  0  0  0  0  0  0  0  0  0  0
    5.4580   42.0180   50.3990 C   0  0  0  0  0  0  0  0  0  0  0  0
    4.2610   41.2910   50.4730 C   0  0  0  0  0  0  0  0  0  0  0  0
    3.0610   41.9380   50.7770 C   0  0  0  0  0  0  0  0  0  0  0  0
    3.0350   43.3260   50.9900 C   0  0  0  0  0  0  0  0  0  0  0  0
    1.7310   44.0340   51.2890 C   0  0  0  0  0  0  0  0  0  0  0  0
    1.4240   44.1600   52.8110 C   0  0  0  0  0  0  0  0  0  0  0  0
    1.2670   42.7540   53.4360 C   0  0  0  0  0  0  0  0  0  0  0  0
    0.0870   44.9060   53.0070 C   0  0  0  0  0  0  0  0  0  0  0  0
    2.5120   44.8770   53.5080 N   0  0  0  0  0  0  0  0  0  0  0  0
    2.9580   46.2100   53.1910 C   0  0  0  0  0  0  0  0  0  0  0  0
    2.2640   46.9580   52.4530 O   0  0  0  0  0  0  0  0  0  0  0  0
    4.2390   46.7200   53.7090 C   0  0  0  0  0  0  0  0  0  0  0  0
    5.5060   46.2980   53.3490 C   0  0  0  0  0  0  0  0  0  0  0  0
    6.3350   47.1190   54.0840 C   0  0  0  0  0  0  0  0  0  0  0  0
    7.8020   47.1020   54.0780 C   0  0  0  0  0  0  0  0  0  0  0  0
    8.6020   46.6850   53.0300 C   0  0  0  0  0  0  0  0  0  0  0  0
    9.8880   46.8400   53.5000 C   0  0  0  0  0  0  0  0  0  0  0  0
    9.8270   47.3340   54.7510 N   0  0  0  0  0  0  0  0  0  0  0  0
   10.9640   47.5780   55.6280 C   0  0  0  0  0  0  0  0  0  0  0  0
    8.5660   47.4850   55.1200 N   0  0  0  0  0  0  0  0  0  0  0  0
    5.6020   47.9390   54.7990 O   0  0  0  0  0  0  0  0  0  0  0  0
    4.3340   47.7300   54.5960 N   0  0  0  0  0  0  0  0  0  0  0  0
    4.2350   44.0530   50.9110 C   0  0  0  0  0  0  0  0  0  0  0  0
    5.4360   43.4040   50.6080 C   0  0  0  0  0  0  0  0  0  0  0  0
    7.2766   41.0398   50.9451 H   0  0  0  0  0  0  0  0  0  0  0  0
    6.5143   40.4301   49.4372 H   0  0  0  0  0  0  0  0  0  0  0  0
    7.3652   42.0120   49.4372 H   0  0  0  0  0  0  0  0  0  0  0  0
    4.2672   40.2062   50.2908 H   0  0  0  0  0  0  0  0  0  0  0  0
    2.1301   41.3565   50.8501 H   0  0  0  0  0  0  0  0  0  0  0  0
    1.7779   45.0453   50.8589 H   0  0  0  0  0  0  0  0  0  0  0  0
    0.9264   43.4280   50.8469 H   0  0  0  0  0  0  0  0  0  0  0  0
    1.2763   42.8372   54.5328 H   0  0  0  0  0  0  0  0  0  0  0  0
    0.3139   42.3121   53.1099 H   0  0  0  0  0  0  0  0  0  0  0  0
    2.0991   42.1128   53.1099 H   0  0  0  0  0  0  0  0  0  0  0  0
   -0.1156   45.0190   54.0823 H   0  0  0  0  0  0  0  0  0  0  0  0
    0.1495   45.8996   52.5392 H   0  0  0  0  0  0  0  0  0  0  0  0
   -0.7257   44.3310   52.5392 H   0  0  0  0  0  0  0  0  0  0  0  0
    3.0140   44.3760   54.2750 H   0  0  0  0  0  0  0  0  0  0  0  0
    5.7852   45.4996   52.6457 H   0  0  0  0  0  0  0  0  0  0  0  0
    8.2839   46.3137   52.0446 H   0  0  0  0  0  0  0  0  0  0  0  0
   10.8083   46.6007   52.9470 H   0  0  0  0  0  0  0  0  0  0  0  0
   10.6397   47.5084   56.6768 H   0  0  0  0  0  0  0  0  0  0  0  0
   11.7440   46.8268   55.4348 H   0  0  0  0  0  0  0  0  0  0  0  0
   11.3671   48.5831   55.4348 H   0  0  0  0  0  0  0  0  0  0  0  0
    4.2295   45.1386   51.0885 H   0  0  0  0  0  0  0  0  0  0  0  0
    6.3678   43.9837   50.5333 H   0  0  0  0  0  0  0  0  0  0  0  0
  1  2  1  0
  2  3  2  0
  3  4  1  0
  4  5  2  0
  5  6  1  0
  6  7  1  0
  7  8  1  0
  7  9  1  0
  7 10  1  0
 10 11  1  0
 11 12  2  0
 11 13  1  0
 13 14  1  0
 14 15  2  0
 15 16  1  0
 16 17  1  0
 17 18  2  0
 18 19  1  0
 19 20  1  0
 19 21  1  0
 15 22  1  0
 22 23  1  0
  5 24  1  0
 24 25  2  0
 25  2  1  0
 23 13  2  0
 21 16  2  0
  1 26  1  0
  1 27  1  0
  1 28  1  0
  3 29  1  0
  4 30  1  0
  6 31  1  0
  6 32  1  0
  8 33  1  0
  8 34  1  0
  8 35  1  0
  9 36  1  0
  9 37  1  0
  9 38  1  0
 10 39  1  0
 14 40  1  0
 17 41  1  0
 18 42  1  0
 20 43  1  0
 20 44  1  0
 20 45  1  0
 24 46  1  0
 25 47  1  0
M  END
>  <meeko>  (3) 
{"is_sidechain": [false], "free_energy": -9.423, "intermolecular_energy": -11.204, "internal_energy": -0.161}

$$$$
ligand_88_conformer_4_docked
     RDKit          3D

 47 49  0  0  0  0  0  0  0  0999 V2000
    9.0170   47.2330   51.8850 C   0  0  0  0  0  0  0  0  0  0  0  0
    7.8250   46.3220   51.8630 C   0  0  0  0  0  0  0  0  0  0  0  0
    7.4560   45.6690   50.6780 C   0  0  0  0  0  0  0  0  0  0  0  0
    6.3230   44.8520   50.6470 C   0  0  0  0  0  0  0  0  0  0  0  0
    5.5290   44.6920   51.7940 C   0  0  0  0  0  0  0  0  0  0  0  0
    4.2840   43.8320   51.7550 C   0  0  0  0  0  0  0  0  0  0  0  0
    2.9640   44.6490   51.6330 C   0  0  0  0  0  0  0  0  0  0  0  0
    1.9080   43.8320   50.8520 C   0  0  0  0  0  0  0  0  0  0  0  0
    3.2300   45.9430   50.8350 C   0  0  0  0  0  0  0  0  0  0  0  0
    2.4260   44.9780   52.9680 N   0  0  0  0  0  0  0  0  0  0  0  0
    1.6260   44.0930   53.7770 C   0  0  0  0  0  0  0  0  0  0  0  0
    1.5480   42.8670   53.5000 O   0  0  0  0  0  0  0  0  0  0  0  0
    0.8710   44.6040   54.9340 C   0  0  0  0  0  0  0  0  0  0  0  0
    1.3040   45.5320   55.8630 C   0  0  0  0  0  0  0  0  0  0  0  0
    0.2130   45.6870   56.6910 C   0  0  0  0  0  0  0  0  0  0  0  0
    0.1260   46.5710   57.8590 C   0  0  0  0  0  0  0  0  0  0  0  0
    1.1650   46.8850   58.7150 C   0  0  0  0  0  0  0  0  0  0  0  0
    0.5970   47.7240   59.6490 C   0  0  0  0  0  0  0  0  0  0  0  0
   -0.7020   47.8920   59.3350 N   0  0  0  0  0  0  0  0  0  0  0  0
   -1.6750   48.6510   60.1090 C   0  0  0  0  0  0  0  0  0  0  0  0
   -1.0050   47.1860   58.2580 N   0  0  0  0  0  0  0  0  0  0  0  0
   -0.7600   44.9140   56.2680 O   0  0  0  0  0  0  0  0  0  0  0  0
   -0.4000   44.2500   55.2090 N   0  0  0  0  0  0  0  0  0  0  0  0
    5.8980   45.3510   52.9790 C   0  0  0  0  0  0  0  0  0  0  0  0
    7.0330   46.1670   53.0100 C   0  0  0  0  0  0  0  0  0  0  0  0
    9.2962   47.4464   52.9274 H   0  0  0  0  0  0  0  0  0  0  0  0
    9.8597   46.7466   51.3719 H   0  0  0  0  0  0  0  0  0  0  0  0
    8.7690   48.1738   51.3719 H   0  0  0  0  0  0  0  0  0  0  0  0
    8.0612   45.8006   49.7690 H   0  0  0  0  0  0  0  0  0  0  0  0
    6.0511   44.3304   49.7175 H   0  0  0  0  0  0  0  0  0  0  0  0
    4.3555   43.1560   50.8901 H   0  0  0  0  0  0  0  0  0  0  0  0
    4.2387   43.2876   52.7097 H   0  0  0  0  0  0  0  0  0  0  0  0
    1.2435   43.3179   51.5621 H   0  0  0  0  0  0  0  0  0  0  0  0
    1.3152   44.5089   50.2193 H   0  0  0  0  0  0  0  0  0  0  0  0
    2.4143   43.0882   50.2193 H   0  0  0  0  0  0  0  0  0  0  0  0
    3.4012   46.7757   51.5331 H   0  0  0  0  0  0  0  0  0  0  0  0
    4.1190   45.8070   50.2016 H   0  0  0  0  0  0  0  0  0  0  0  0
    2.3595   46.1686   50.2016 H   0  0  0  0  0  0  0  0  0  0  0  0
    2.6170   45.9310   53.3520 H   0  0  0  0  0  0  0  0  0  0  0  0
    2.2840   46.0277   55.9261 H   0  0  0  0  0  0  0  0  0  0  0  0
    2.2090   46.5426   58.6625 H   0  0  0  0  0  0  0  0  0  0  0  0
    1.1162   48.1791   60.5054 H   0  0  0  0  0  0  0  0  0  0  0  0
   -1.4854   48.5031   61.1824 H   0  0  0  0  0  0  0  0  0  0  0  0
   -1.5848   49.7197   59.8645 H   0  0  0  0  0  0  0  0  0  0  0  0
   -2.6896   48.3034   59.8645 H   0  0  0  0  0  0  0  0  0  0  0  0
    5.2906   45.2242   53.8873 H   0  0  0  0  0  0  0  0  0  0  0  0
    7.3060   46.6899   53.9385 H   0  0  0  0  0  0  0  0  0  0  0  0
  1  2  1  0
  2  3  2  0
  3  4  1  0
  4  5  2  0
  5  6  1  0
  6  7  1  0
  7  8  1  0
  7  9  1  0
  7 10  1  0
 10 11  1  0
 11 12  2  0
 11 13  1  0
 13 14  1  0
 14 15  2  0
 15 16  1  0
 16 17  1  0
 17 18  2  0
 18 19  1  0
 19 20  1  0
 19 21  1  0
 15 22  1  0
 22 23  1  0
  5 24  1  0
 24 25  2  0
 25  2  1  0
 23 13  2  0
 21 16  2  0
  1 26  1  0
  1 27  1  0
  1 28  1  0
  3 29  1  0
  4 30  1  0
  6 31  1  0
  6 32  1  0
  8 33  1  0
  8 34  1  0
  8 35  1  0
  9 36  1  0
  9 37  1  0
  9 38  1  0
 10 39  1  0
 14 40  1  0
 17 41  1  0
 18 42  1  0
 20 43  1  0
 20 44  1  0
 20 45  1  0
 24 46  1  0
 25 47  1  0
M  END
>  <meeko>  (4) 
{"is_sidechain": [false], "free_energy": -8.935, "intermolecular_energy": -10.793, "internal_energy": 0.059}

$$$$
