ligand_77_conformer_1_docked
     RDKit          3D

 42 45  0  0  0  0  0  0  0  0999 V2000
    1.9310   46.8120   52.4520 O   0  0  0  0  0  0  0  0  0  0  0  0
    2.5610   46.0600   53.2460 C   0  0  0  0  0  0  0  0  0  0  0  0
    1.9140   44.9020   53.7990 N   0  0  0  0  0  0  0  0  0  0  0  0
    0.5080   44.5910   53.5170 C   0  0  2  0  0  0  0  0  0  0  0  0
   -0.2810   44.5290   54.8040 C   0  0  0  0  0  0  0  0  0  0  0  0
   -1.5160   43.8630   54.8510 C   0  0  0  0  0  0  0  0  0  0  0  0
   -2.2280   43.7930   56.0490 C   0  0  0  0  0  0  0  0  0  0  0  0
   -1.6980   44.3840   57.1970 C   0  0  0  0  0  0  0  0  0  0  0  0
   -0.4960   45.0170   57.1430 N   0  0  0  0  0  0  0  0  0  0  0  0
    0.2170   45.0990   55.9890 C   0  0  0  0  0  0  0  0  0  0  0  0
    0.4020   43.2350   52.7930 C   0  0  0  0  0  0  0  0  0  0  0  0
    1.3830   43.0290   51.6490 C   0  0  0  0  0  0  0  0  0  0  0  0
   -0.0840   43.2960   51.3520 C   0  0  0  0  0  0  0  0  0  0  0  0
    3.9540   46.3960   53.5880 C   0  0  0  0  0  0  0  0  0  0  0  0
    5.0790   46.1890   52.8070 C   0  0  0  0  0  0  0  0  0  0  0  0
    6.1250   46.6710   53.5770 C   0  0  0  0  0  0  0  0  0  0  0  0
    7.5610   46.6850   53.2040 C   0  0  0  0  0  0  0  0  0  0  0  0
    7.9680   46.3300   51.9030 C   0  0  0  0  0  0  0  0  0  0  0  0
    9.3220   46.3440   51.5550 C   0  0  0  0  0  0  0  0  0  0  0  0
   10.2850   46.7120   52.4960 C   0  0  0  0  0  0  0  0  0  0  0  0
    9.8950   47.0700   53.7880 C   0  0  0  0  0  0  0  0  0  0  0  0
    8.5430   47.0570   54.1440 C   0  0  0  0  0  0  0  0  0  0  0  0
    5.6240   47.1290   54.7420 N   0  0  0  0  0  0  0  0  0  0  0  0
    4.3120   46.9640   54.7570 N   0  0  0  0  0  0  0  0  0  0  0  0
    2.4580   44.2580   54.4160 H   0  0  0  0  0  0  0  0  0  0  0  0
    0.0973   45.3841   52.8749 H   0  0  0  0  0  0  0  0  0  0  0  0
   -1.9229   43.3957   53.9421 H   0  0  0  0  0  0  0  0  0  0  0  0
   -3.1984   43.2766   56.0883 H   0  0  0  0  0  0  0  0  0  0  0  0
   -2.2529   44.3376   58.1456 H   0  0  0  0  0  0  0  0  0  0  0  0
    1.1889   45.6141   55.9819 H   0  0  0  0  0  0  0  0  0  0  0  0
    0.1148   42.6636   53.6880 H   0  0  0  0  0  0  0  0  0  0  0  0
    2.1378   43.7977   51.4267 H   0  0  0  0  0  0  0  0  0  0  0  0
    2.1017   42.2433   51.3730 H   0  0  0  0  0  0  0  0  0  0  0  0
   -0.3905   44.2579   50.9152 H   0  0  0  0  0  0  0  0  0  0  0  0
   -0.8661   42.7836   50.7725 H   0  0  0  0  0  0  0  0  0  0  0  0
    5.1303   45.7429   51.8028 H   0  0  0  0  0  0  0  0  0  0  0  0
    7.2151   46.0397   51.1555 H   0  0  0  0  0  0  0  0  0  0  0  0
    9.6293   46.0642   50.5366 H   0  0  0  0  0  0  0  0  0  0  0  0
   11.3498   46.7200   52.2201 H   0  0  0  0  0  0  0  0  0  0  0  0
   10.6540   47.3632   54.5282 H   0  0  0  0  0  0  0  0  0  0  0  0
    8.2438   47.3389   55.1643 H   0  0  0  0  0  0  0  0  0  0  0  0
    6.1600   47.5340   55.5400 H   0  0  0  0  0  0  0  0  0  0  0  0
  1  2  2  0
  2  3  1  0
  3  4  1  0
  4  5  1  0
  5  6  2  0
  6  7  1  0
  7  8  2  0
  8  9  1  0
  9 10  2  0
  4 11  1  0
 11 12  1  0
 12 13  1  0
  2 14  1  0
 14 15  1  0
 15 16  2  0
 16 17  1  0
 17 18  2  0
 18 19  1  0
 19 20  2  0
 20 21  1  0
 21 22  2  0
 16 23  1  0
 23 24  1  0
 10  5  1  0
 13 11  1  0
 24 14  2  0
 22 17  1  0
  3 25  1  0
  4 26  1  6
  6 27  1  0
  7 28  1  0
  8 29  1  0
 10 30  1  0
 11 31  1  0
 12 32  1  0
 12 33  1  0
 13 34  1  0
 13 35  1  0
 15 36  1  0
 18 37  1  0
 19 38  1  0
 20 39  1  0
 21 40  1  0
 22 41  1  0
 23 42  1  0
M  END
>  <meeko>  (1) 
{"is_sidechain": [false], "free_energy": -8.41, "intermolecular_energy": -10.868, "internal_energy": -0.872}

$$$$
ligand_77_conformer_1_docked
     RDKit          3D

 42 45  0  0  0  0  0  0  0  0999 V2000
    3.9310   46.8100   51.7290 O   0  0  0  0  0  0  0  0  0  0  0  0
    4.4280   46.1340   52.6710 C   0  0  0  0  0  0  0  0  0  0  0  0
    5.8330   45.8360   52.6740 N   0  0  0  0  0  0  0  0  0  0  0  0
    6.7140   46.2440   51.5730 C   0  0  2  0  0  0  0  0  0  0  0  0
    6.9660   45.0770   50.6460 C   0  0  0  0  0  0  0  0  0  0  0  0
    5.9810   44.0950   50.4530 C   0  0  0  0  0  0  0  0  0  0  0  0
    6.2140   43.0320   49.5800 C   0  0  0  0  0  0  0  0  0  0  0  0
    7.4290   42.9610   48.8970 C   0  0  0  0  0  0  0  0  0  0  0  0
    8.3720   43.9230   49.0820 N   0  0  0  0  0  0  0  0  0  0  0  0
    8.1690   44.9680   49.9270 C   0  0  0  0  0  0  0  0  0  0  0  0
    8.0590   46.7460   52.1310 C   0  0  0  0  0  0  0  0  0  0  0  0
    7.9710   47.5480   53.4200 C   0  0  0  0  0  0  0  0  0  0  0  0
    8.2610   48.2540   52.1050 C   0  0  0  0  0  0  0  0  0  0  0  0
    3.5430   45.6630   53.7510 C   0  0  0  0  0  0  0  0  0  0  0  0
    2.1600   45.5940   53.7270 C   0  0  0  0  0  0  0  0  0  0  0  0
    1.8200   45.0930   54.9730 C   0  0  0  0  0  0  0  0  0  0  0  0
    0.4480   44.8250   55.4720 C   0  0  0  0  0  0  0  0  0  0  0  0
    0.0220   45.3370   56.7130 C   0  0  0  0  0  0  0  0  0  0  0  0
   -1.2700   45.0820   57.1800 C   0  0  0  0  0  0  0  0  0  0  0  0
   -2.1540   44.3160   56.4170 C   0  0  0  0  0  0  0  0  0  0  0  0
   -1.7460   43.8050   55.1840 C   0  0  0  0  0  0  0  0  0  0  0  0
   -0.4540   44.0550   54.7110 C   0  0  0  0  0  0  0  0  0  0  0  0
    2.9520   44.8870   55.6770 N   0  0  0  0  0  0  0  0  0  0  0  0
    3.9980   45.2320   54.9440 N   0  0  0  0  0  0  0  0  0  0  0  0
    6.2450   45.3190   53.4830 H   0  0  0  0  0  0  0  0  0  0  0  0
    6.2220   47.0541   51.0147 H   0  0  0  0  0  0  0  0  0  0  0  0
    5.0241   44.1640   50.9910 H   0  0  0  0  0  0  0  0  0  0  0  0
    5.4474   42.2572   49.4314 H   0  0  0  0  0  0  0  0  0  0  0  0
    7.6240   42.1258   48.2082 H   0  0  0  0  0  0  0  0  0  0  0  0
    8.9503   45.7326   50.0489 H   0  0  0  0  0  0  0  0  0  0  0  0
    8.6408   45.8770   51.7898 H   0  0  0  0  0  0  0  0  0  0  0  0
    6.9990   47.6868   53.9160 H   0  0  0  0  0  0  0  0  0  0  0  0
    8.4651   47.4989   54.4016 H   0  0  0  0  0  0  0  0  0  0  0  0
    7.4988   48.9033   51.6495 H   0  0  0  0  0  0  0  0  0  0  0  0
    9.0515   48.9268   51.7411 H   0  0  0  0  0  0  0  0  0  0  0  0
    1.4847   45.8736   52.9050 H   0  0  0  0  0  0  0  0  0  0  0  0
    0.7118   45.9424   57.3193 H   0  0  0  0  0  0  0  0  0  0  0  0
   -1.5917   45.4857   58.1513 H   0  0  0  0  0  0  0  0  0  0  0  0
   -3.1703   44.1157   56.7872 H   0  0  0  0  0  0  0  0  0  0  0  0
   -2.4432   43.2035   54.5822 H   0  0  0  0  0  0  0  0  0  0  0  0
   -0.1398   43.6479   53.7386 H   0  0  0  0  0  0  0  0  0  0  0  0
    3.0280   44.5360   56.6560 H   0  0  0  0  0  0  0  0  0  0  0  0
  1  2  2  0
  2  3  1  0
  3  4  1  0
  4  5  1  0
  5  6  2  0
  6  7  1  0
  7  8  2  0
  8  9  1  0
  9 10  2  0
  4 11  1  0
 11 12  1  0
 12 13  1  0
  2 14  1  0
 14 15  1  0
 15 16  2  0
 16 17  1  0
 17 18  2  0
 18 19  1  0
 19 20  2  0
 20 21  1  0
 21 22  2  0
 16 23  1  0
 23 24  1  0
 10  5  1  0
 13 11  1  0
 24 14  2  0
 22 17  1  0
  3 25  1  0
  4 26  1  6
  6 27  1  0
  7 28  1  0
  8 29  1  0
 10 30  1  0
 11 31  1  0
 12 32  1  0
 12 33  1  0
 13 34  1  0
 13 35  1  0
 15 36  1  0
 18 37  1  0
 19 38  1  0
 20 39  1  0
 21 40  1  0
 22 41  1  0
 23 42  1  0
M  END
>  <meeko>  (2) 
{"is_sidechain": [false], "free_energy": -8.367, "intermolecular_energy": -11.041, "internal_energy": -0.644}

$$$$
ligand_77_conformer_1_docked
     RDKit          3D

 42 45  0  0  0  0  0  0  0  0999 V2000
    4.5600   43.4710   52.6800 O   0  0  0  0  0  0  0  0  0  0  0  0
    4.2720   44.6880   52.8480 C   0  0  0  0  0  0  0  0  0  0  0  0
    5.2710   45.6960   52.6250 N   0  0  0  0  0  0  0  0  0  0  0  0
    6.6520   45.3520   52.2650 C   0  0  2  0  0  0  0  0  0  0  0  0
    7.6230   46.1980   53.0560 C   0  0  0  0  0  0  0  0  0  0  0  0
    8.9350   46.3930   52.5970 C   0  0  0  0  0  0  0  0  0  0  0  0
    9.8200   47.1910   53.3220 C   0  0  0  0  0  0  0  0  0  0  0  0
    9.3840   47.7990   54.5000 C   0  0  0  0  0  0  0  0  0  0  0  0
    8.1080   47.6150   54.9300 N   0  0  0  0  0  0  0  0  0  0  0  0
    7.2280   46.8410   54.2420 C   0  0  0  0  0  0  0  0  0  0  0  0
    6.8810   45.5920   50.7610 C   0  0  0  0  0  0  0  0  0  0  0  0
    6.1780   44.6140   49.8310 C   0  0  0  0  0  0  0  0  0  0  0  0
    7.6810   44.5190   50.0380 C   0  0  0  0  0  0  0  0  0  0  0  0
    2.9060   45.0430   53.2710 C   0  0  0  0  0  0  0  0  0  0  0  0
    2.1990   44.5180   54.3400 C   0  0  0  0  0  0  0  0  0  0  0  0
    0.9820   45.1770   54.3030 C   0  0  0  0  0  0  0  0  0  0  0  0
   -0.1550   44.9820   55.2370 C   0  0  0  0  0  0  0  0  0  0  0  0
   -0.2780   45.7770   56.3930 C   0  0  0  0  0  0  0  0  0  0  0  0
   -1.3500   45.5920   57.2720 C   0  0  0  0  0  0  0  0  0  0  0  0
   -2.3110   44.6140   57.0090 C   0  0  0  0  0  0  0  0  0  0  0  0
   -2.2020   43.8200   55.8650 C   0  0  0  0  0  0  0  0  0  0  0  0
   -1.1330   44.0000   54.9830 C   0  0  0  0  0  0  0  0  0  0  0  0
    0.9890   46.0350   53.2630 N   0  0  0  0  0  0  0  0  0  0  0  0
    2.1490   45.9580   52.6330 N   0  0  0  0  0  0  0  0  0  0  0  0
    5.0110   46.7030   52.7170 H   0  0  0  0  0  0  0  0  0  0  0  0
    6.8192   44.2899   52.4975 H   0  0  0  0  0  0  0  0  0  0  0  0
    9.2662   45.9153   51.6631 H   0  0  0  0  0  0  0  0  0  0  0  0
   10.8511   47.3395   52.9688 H   0  0  0  0  0  0  0  0  0  0  0  0
   10.0741   48.4281   55.0813 H   0  0  0  0  0  0  0  0  0  0  0  0
    6.2007   46.7169   54.6153 H   0  0  0  0  0  0  0  0  0  0  0  0
    6.9427   46.6873   50.8411 H   0  0  0  0  0  0  0  0  0  0  0  0
    5.5157   43.8399   50.2458 H   0  0  0  0  0  0  0  0  0  0  0  0
    5.5179   44.7101   48.9563 H   0  0  0  0  0  0  0  0  0  0  0  0
    8.1061   43.6760   50.6025 H   0  0  0  0  0  0  0  0  0  0  0  0
    8.5587   44.5178   49.3749 H   0  0  0  0  0  0  0  0  0  0  0  0
    2.5295   43.7512   55.0561 H   0  0  0  0  0  0  0  0  0  0  0  0
    0.4752   46.5498   56.6063 H   0  0  0  0  0  0  0  0  0  0  0  0
   -1.4361   46.2182   58.1722 H   0  0  0  0  0  0  0  0  0  0  0  0
   -3.1530   44.4689   57.7018 H   0  0  0  0  0  0  0  0  0  0  0  0
   -2.9601   43.0504   55.6576 H   0  0  0  0  0  0  0  0  0  0  0  0
   -1.0546   43.3707   54.0842 H   0  0  0  0  0  0  0  0  0  0  0  0
    0.2110   46.6590   52.9580 H   0  0  0  0  0  0  0  0  0  0  0  0
  1  2  2  0
  2  3  1  0
  3  4  1  0
  4  5  1  0
  5  6  2  0
  6  7  1  0
  7  8  2  0
  8  9  1  0
  9 10  2  0
  4 11  1  0
 11 12  1  0
 12 13  1  0
  2 14  1  0
 14 15  1  0
 15 16  2  0
 16 17  1  0
 17 18  2  0
 18 19  1  0
 19 20  2  0
 20 21  1  0
 21 22  2  0
 16 23  1  0
 23 24  1  0
 10  5  1  0
 13 11  1  0
 24 14  2  0
 22 17  1  0
  3 25  1  0
  4 26  1  6
  6 27  1  0
  7 28  1  0
  8 29  1  0
 10 30  1  0
 11 31  1  0
 12 32  1  0
 12 33  1  0
 13 34  1  0
 13 35  1  0
 15 36  1  0
 18 37  1  0
 19 38  1  0
 20 39  1  0
 21 40  1  0
 22 41  1  0
 23 42  1  0
M  END
>  <meeko>  (3) 
{"is_sidechain": [false], "free_energy": -7.951, "intermolecular_energy": -10.534, "internal_energy": -0.613}

$$$$
ligand_77_conformer_1_docked
     RDKit          3D

 42 45  0  0  0  0  0  0  0  0999 V2000
    2.0230   45.4000   51.1640 O   0  0  0  0  0  0  0  0  0  0  0  0
    2.8340   45.1900   52.1070 C   0  0  0  0  0  0  0  0  0  0  0  0
    2.3570   44.6650   53.3560 N   0  0  0  0  0  0  0  0  0  0  0  0
    0.9310   44.4190   53.6000 C   0  0  2  0  0  0  0  0  0  0  0  0
    0.5320   44.9580   54.9540 C   0  0  0  0  0  0  0  0  0  0  0  0
   -0.8090   44.9290   55.3660 C   0  0  0  0  0  0  0  0  0  0  0  0
   -1.1660   45.4100   56.6260 C   0  0  0  0  0  0  0  0  0  0  0  0
   -0.1760   45.9100   57.4730 C   0  0  0  0  0  0  0  0  0  0  0  0
    1.1220   45.9230   57.0710 N   0  0  0  0  0  0  0  0  0  0  0  0
    1.4950   45.4610   55.8480 C   0  0  0  0  0  0  0  0  0  0  0  0
    0.6400   42.9070   53.5520 C   0  0  0  0  0  0  0  0  0  0  0  0
    0.9890   42.2190   52.2410 C   0  0  0  0  0  0  0  0  0  0  0  0
   -0.4660   42.4810   52.5980 C   0  0  0  0  0  0  0  0  0  0  0  0
    4.2610   45.4920   51.8970 C   0  0  0  0  0  0  0  0  0  0  0  0
    5.1850   45.8710   52.8570 C   0  0  0  0  0  0  0  0  0  0  0  0
    6.3650   46.0350   52.1520 C   0  0  0  0  0  0  0  0  0  0  0  0
    7.6780   46.4430   52.7120 C   0  0  0  0  0  0  0  0  0  0  0  0
    7.7600   47.0490   53.9800 C   0  0  0  0  0  0  0  0  0  0  0  0
    8.9980   47.4330   54.5050 C   0  0  0  0  0  0  0  0  0  0  0  0
   10.1670   47.2160   53.7730 C   0  0  0  0  0  0  0  0  0  0  0  0
   10.1000   46.6130   52.5160 C   0  0  0  0  0  0  0  0  0  0  0  0
    8.8660   46.2280   51.9850 C   0  0  0  0  0  0  0  0  0  0  0  0
    6.1290   45.7650   50.8520 N   0  0  0  0  0  0  0  0  0  0  0  0
    4.8580   45.4380   50.6900 N   0  0  0  0  0  0  0  0  0  0  0  0
    3.0420   44.4470   54.1140 H   0  0  0  0  0  0  0  0  0  0  0  0
    0.3505   44.9306   52.8181 H   0  0  0  0  0  0  0  0  0  0  0  0
   -1.5808   44.5260   54.6938 H   0  0  0  0  0  0  0  0  0  0  0  0
   -2.2175   45.3953   56.9487 H   0  0  0  0  0  0  0  0  0  0  0  0
   -0.4468   46.2942   58.4675 H   0  0  0  0  0  0  0  0  0  0  0  0
    2.5553   45.4805   55.5559 H   0  0  0  0  0  0  0  0  0  0  0  0
    0.8647   42.7255   54.6134 H   0  0  0  0  0  0  0  0  0  0  0  0
    1.4678   42.7891   51.4312 H   0  0  0  0  0  0  0  0  0  0  0  0
    1.5731   41.3300   51.9606 H   0  0  0  0  0  0  0  0  0  0  0  0
   -1.0395   43.2406   52.0465 H   0  0  0  0  0  0  0  0  0  0  0  0
   -1.3700   41.8601   52.6828 H   0  0  0  0  0  0  0  0  0  0  0  0
    5.0187   46.0101   53.9354 H   0  0  0  0  0  0  0  0  0  0  0  0
    6.8430   47.2218   54.5625 H   0  0  0  0  0  0  0  0  0  0  0  0
    9.0509   47.9068   55.4963 H   0  0  0  0  0  0  0  0  0  0  0  0
   11.1399   47.5200   54.1866 H   0  0  0  0  0  0  0  0  0  0  0  0
   11.0218   46.4402   51.9412 H   0  0  0  0  0  0  0  0  0  0  0  0
    8.8217   45.7541   50.9933 H   0  0  0  0  0  0  0  0  0  0  0  0
    6.8120   45.8190   50.0650 H   0  0  0  0  0  0  0  0  0  0  0  0
  1  2  2  0
  2  3  1  0
  3  4  1  0
  4  5  1  0
  5  6  2  0
  6  7  1  0
  7  8  2  0
  8  9  1  0
  9 10  2  0
  4 11  1  0
 11 12  1  0
 12 13  1  0
  2 14  1  0
 14 15  1  0
 15 16  2  0
 16 17  1  0
 17 18  2  0
 18 19  1  0
 19 20  2  0
 20 21  1  0
 21 22  2  0
 16 23  1  0
 23 24  1  0
 10  5  1  0
 13 11  1  0
 24 14  2  0
 22 17  1  0
  3 25  1  0
  4 26  1  6
  6 27  1  0
  7 28  1  0
  8 29  1  0
 10 30  1  0
 11 31  1  0
 12 32  1  0
 12 33  1  0
 13 34  1  0
 13 35  1  0
 15 36  1  0
 18 37  1  0
 19 38  1  0
 20 39  1  0
 21 40  1  0
 22 41  1  0
 23 42  1  0
M  END
>  <meeko>  (4) 
{"is_sidechain": [false], "free_energy": -7.92, "intermolecular_energy": -10.297, "internal_energy": -0.81}

$$$$
ligand_77_conformer_1_docked
     RDKit          3D

 42 45  0  0  0  0  0  0  0  0999 V2000
    1.7070   46.1370   53.3780 O   0  0  0  0  0  0  0  0  0  0  0  0
    2.4120   45.1050   53.5510 C   0  0  0  0  0  0  0  0  0  0  0  0
    1.8310   43.9330   54.1450 N   0  0  0  0  0  0  0  0  0  0  0  0
    0.4440   43.9130   54.6220 C   0  0  2  0  0  0  0  0  0  0  0  0
   -0.5100   43.8310   53.4520 C   0  0  0  0  0  0  0  0  0  0  0  0
   -1.4870   44.8190   53.2580 C   0  0  0  0  0  0  0  0  0  0  0  0
   -2.3490   44.7470   52.1640 C   0  0  0  0  0  0  0  0  0  0  0  0
   -2.2240   43.6880   51.2630 C   0  0  0  0  0  0  0  0  0  0  0  0
   -1.2670   42.7420   51.4530 N   0  0  0  0  0  0  0  0  0  0  0  0
   -0.4160   42.7900   52.5110 C   0  0  0  0  0  0  0  0  0  0  0  0
    0.1440   45.1900   55.4290 C   0  0  0  0  0  0  0  0  0  0  0  0
    0.8630   45.3000   56.7650 C   0  0  0  0  0  0  0  0  0  0  0  0
   -0.6240   44.9830   56.7260 C   0  0  0  0  0  0  0  0  0  0  0  0
    3.8260   45.1320   53.1350 C   0  0  0  0  0  0  0  0  0  0  0  0
    4.8250   45.9570   53.6240 C   0  0  0  0  0  0  0  0  0  0  0  0
    5.9530   45.5900   52.9100 C   0  0  0  0  0  0  0  0  0  0  0  0
    7.3110   46.1720   53.0460 C   0  0  0  0  0  0  0  0  0  0  0  0
    7.7370   46.7240   54.2700 C   0  0  0  0  0  0  0  0  0  0  0  0
    9.0160   47.2730   54.3950 C   0  0  0  0  0  0  0  0  0  0  0  0
    9.8870   47.2770   53.3030 C   0  0  0  0  0  0  0  0  0  0  0  0
    9.4800   46.7300   52.0850 C   0  0  0  0  0  0  0  0  0  0  0  0
    8.2010   46.1810   51.9530 C   0  0  0  0  0  0  0  0  0  0  0  0
    5.6170   44.6040   52.0530 N   0  0  0  0  0  0  0  0  0  0  0  0
    4.3310   44.3240   52.1820 N   0  0  0  0  0  0  0  0  0  0  0  0
    2.4080   43.0670   54.2390 H   0  0  0  0  0  0  0  0  0  0  0  0
    0.3100   43.0309   55.2653 H   0  0  0  0  0  0  0  0  0  0  0  0
   -1.5734   45.6525   53.9706 H   0  0  0  0  0  0  0  0  0  0  0  0
   -3.1198   45.5171   52.0126 H   0  0  0  0  0  0  0  0  0  0  0  0
   -2.9007   43.6192   50.3985 H   0  0  0  0  0  0  0  0  0  0  0  0
    0.3506   42.0105   52.6323 H   0  0  0  0  0  0  0  0  0  0  0  0
    0.0255   45.8405   54.5499 H   0  0  0  0  0  0  0  0  0  0  0  0
    1.5827   44.5251   57.0676 H   0  0  0  0  0  0  0  0  0  0  0  0
    1.4822   46.0663   57.2541 H   0  0  0  0  0  0  0  0  0  0  0  0
   -0.9797   43.9789   57.0003 H   0  0  0  0  0  0  0  0  0  0  0  0
   -1.5256   45.4251   57.1751 H   0  0  0  0  0  0  0  0  0  0  0  0
    4.7413   46.7290   54.4031 H   0  0  0  0  0  0  0  0  0  0  0  0
    7.0571   46.7229   55.1347 H   0  0  0  0  0  0  0  0  0  0  0  0
    9.3375   47.7028   55.3552 H   0  0  0  0  0  0  0  0  0  0  0  0
   10.8929   47.7109   53.4028 H   0  0  0  0  0  0  0  0  0  0  0  0
   10.1676   46.7309   51.2264 H   0  0  0  0  0  0  0  0  0  0  0  0
    7.8871   45.7531   50.9895 H   0  0  0  0  0  0  0  0  0  0  0  0
    6.2410   44.1310   51.3640 H   0  0  0  0  0  0  0  0  0  0  0  0
  1  2  2  0
  2  3  1  0
  3  4  1  0
  4  5  1  0
  5  6  2  0
  6  7  1  0
  7  8  2  0
  8  9  1  0
  9 10  2  0
  4 11  1  0
 11 12  1  0
 12 13  1  0
  2 14  1  0
 14 15  1  0
 15 16  2  0
 16 17  1  0
 17 18  2  0
 18 19  1  0
 19 20  2  0
 20 21  1  0
 21 22  2  0
 16 23  1  0
 23 24  1  0
 10  5  1  0
 13 11  1  0
 24 14  2  0
 22 17  1  0
  3 25  1  0
  4 26  1  1
  6 27  1  0
  7 28  1  0
  8 29  1  0
 10 30  1  0
 11 31  1  0
 12 32  1  0
 12 33  1  0
 13 34  1  0
 13 35  1  0
 15 36  1  0
 18 37  1  0
 19 38  1  0
 20 39  1  0
 21 40  1  0
 22 41  1  0
 23 42  1  0
M  END
>  <meeko>  (5) 
{"is_sidechain": [false], "free_energy": -7.211, "intermolecular_energy": -10.107, "internal_energy": -0.083}

$$$$
