MODEL 1
REMARK VINA RESULT:    -8.523      0.000      0.000
REMARK INTER + INTRA:         -11.622
REMARK INTER:                 -11.014
REMARK INTRA:                  -0.608
REMARK UNBOUND:                -0.608
REMARK SMILES O=C(Nc1cccc(CCO)c1)c1c[nH]c2ncnc(O)c12
REMARK SMILES IDX 4 1 5 2 6 3 7 4 8 5 12 6 3 7 1 8 2 9 13 11 14 12 22 13 15 14
REMARK SMILES IDX 20 15 16 16 19 17 17 18 18 19 21 21 9 23 10 24 11 25
REMARK H PARENT 3 10 15 20 21 22 11 26
ROOT
ATOM      1  C   UNL     1       7.211  46.450  52.331  1.00  0.00     0.041 A 
ATOM      2  C   UNL     1       8.200  46.060  51.411  1.00  0.00     0.026 A 
ATOM      3  C   UNL     1       9.544  46.350  51.656  1.00  0.00     0.002 A 
ATOM      4  C   UNL     1       9.913  47.046  52.809  1.00  0.00     0.004 A 
ATOM      5  C   UNL     1       8.935  47.475  53.720  1.00  0.00    -0.044 A 
ATOM      6  C   UNL     1       7.586  47.172  53.474  1.00  0.00     0.030 A 
ENDROOT
BRANCH   1   7
ATOM      7  N   UNL     1       5.820  46.179  52.096  1.00  0.00    -0.322 N 
ATOM      8  O   UNL     1       5.588  44.513  53.734  1.00  0.00    -0.269 OA
ATOM      9  C   UNL     1       5.052  45.213  52.833  1.00  0.00     0.258 C 
ATOM     10  H   UNL     1       5.317  46.788  51.412  1.00  0.00     0.170 HD
BRANCH   9  11
ATOM     11  C   UNL     1       3.633  44.997  52.516  1.00  0.00     0.072 A 
ATOM     12  C   UNL     1       3.104  44.975  51.227  1.00  0.00     0.099 A 
ATOM     13  C   UNL     1       2.542  44.934  53.373  1.00  0.00     0.093 A 
ATOM     14  N   UNL     1       1.754  44.930  51.270  1.00  0.00    -0.345 N 
ATOM     15  C   UNL     1       2.382  44.862  54.763  1.00  0.00     0.224 A 
ATOM     16  C   UNL     1       1.433  44.914  52.572  1.00  0.00     0.145 A 
ATOM     17  N   UNL     1       1.109  44.861  55.257  1.00  0.00    -0.201 NA
ATOM     18  N   UNL     1       0.176  44.899  53.076  1.00  0.00    -0.218 NA
ATOM     19  C   UNL     1       0.018  44.887  54.431  1.00  0.00     0.228 A 
ATOM     20  H   UNL     1       1.099  44.929  50.457  1.00  0.00     0.167 HD
BRANCH  15  21
ATOM     21  O   UNL     1       3.452  44.739  55.647  1.00  0.00    -0.493 OA
ATOM     22  H   UNL     1       4.135  45.472  55.781  1.00  0.00     0.295 HD
ENDBRANCH  15  21
ENDBRANCH   9  11
ENDBRANCH   1   7
BRANCH   5  23
ATOM     23  C   UNL     1       9.330  48.209  54.974  1.00  0.00     0.063 C 
BRANCH  23  24
ATOM     24  C   UNL     1      10.518  47.535  55.661  1.00  0.00     0.161 C 
BRANCH  24  25
ATOM     25  O   UNL     1      10.633  47.989  56.981  1.00  0.00    -0.396 OA
ATOM     26  H   UNL     1      10.330  48.934  56.974  1.00  0.00     0.210 HD
ENDBRANCH  24  25
ENDBRANCH  23  24
ENDBRANCH   5  23
TORSDOF 6
ENDMDL
MODEL 2
REMARK VINA RESULT:    -8.268      1.607      2.356
REMARK INTER + INTRA:         -11.293
REMARK INTER:                 -10.847
REMARK INTRA:                  -0.446
REMARK UNBOUND:                -0.608
REMARK SMILES O=C(Nc1cccc(CCO)c1)c1c[nH]c2ncnc(O)c12
REMARK SMILES IDX 4 1 5 2 6 3 7 4 8 5 12 6 3 7 1 8 2 9 13 11 14 12 22 13 15 14
REMARK SMILES IDX 20 15 16 16 19 17 17 18 18 19 21 21 9 23 10 24 11 25
REMARK H PARENT 3 10 15 20 21 22 11 26
ROOT
ATOM      1  C   UNL     1       6.971  46.043  53.000  1.00  0.00     0.041 A 
ATOM      2  C   UNL     1       7.260  46.132  51.628  1.00  0.00     0.026 A 
ATOM      3  C   UNL     1       8.531  46.521  51.200  1.00  0.00     0.002 A 
ATOM      4  C   UNL     1       9.519  46.842  52.133  1.00  0.00     0.004 A 
ATOM      5  C   UNL     1       9.236  46.793  53.507  1.00  0.00    -0.044 A 
ATOM      6  C   UNL     1       7.960  46.392  53.933  1.00  0.00     0.030 A 
ENDROOT
BRANCH   1   7
ATOM      7  N   UNL     1       5.668  45.660  53.469  1.00  0.00    -0.322 N 
ATOM      8  O   UNL     1       5.035  47.773  54.272  1.00  0.00    -0.269 OA
ATOM      9  C   UNL     1       4.734  46.564  54.083  1.00  0.00     0.258 C 
ATOM     10  H   UNL     1       5.346  44.687  53.265  1.00  0.00     0.170 HD
BRANCH   9  11
ATOM     11  C   UNL     1       3.424  46.078  54.540  1.00  0.00     0.072 A 
ATOM     12  C   UNL     1       3.158  45.605  55.823  1.00  0.00     0.099 A 
ATOM     13  C   UNL     1       2.271  45.841  53.803  1.00  0.00     0.093 A 
ATOM     14  N   UNL     1       1.917  45.073  55.885  1.00  0.00    -0.345 N 
ATOM     15  C   UNL     1       1.861  46.122  52.494  1.00  0.00     0.224 A 
ATOM     16  C   UNL     1       1.400  45.218  54.656  1.00  0.00     0.145 A 
ATOM     17  N   UNL     1       0.630  45.679  52.104  1.00  0.00    -0.201 NA
ATOM     18  N   UNL     1       0.176  44.794  54.258  1.00  0.00    -0.218 NA
ATOM     19  C   UNL     1      -0.201  45.016  52.966  1.00  0.00     0.228 A 
ATOM     20  H   UNL     1       1.466  44.624  56.712  1.00  0.00     0.167 HD
BRANCH  15  21
ATOM     21  O   UNL     1       2.624  46.873  51.602  1.00  0.00    -0.493 OA
ATOM     22  H   UNL     1       3.347  47.511  51.907  1.00  0.00     0.295 HD
ENDBRANCH  15  21
ENDBRANCH   9  11
ENDBRANCH   1   7
BRANCH   5  23
ATOM     23  C   UNL     1      10.304  47.119  54.518  1.00  0.00     0.063 C 
BRANCH  23  24
ATOM     24  C   UNL     1       9.817  48.162  55.523  1.00  0.00     0.161 C 
BRANCH  24  25
ATOM     25  O   UNL     1      10.593  48.110  56.688  1.00  0.00    -0.396 OA
ATOM     26  H   UNL     1       9.956  47.984  57.438  1.00  0.00     0.210 HD
ENDBRANCH  24  25
ENDBRANCH  23  24
ENDBRANCH   5  23
TORSDOF 6
ENDMDL
MODEL 3
REMARK VINA RESULT:    -8.071      2.392      7.042
REMARK INTER + INTRA:         -11.038
REMARK INTER:                 -10.336
REMARK INTRA:                  -0.702
REMARK UNBOUND:                -0.608
REMARK SMILES O=C(Nc1cccc(CCO)c1)c1c[nH]c2ncnc(O)c12
REMARK SMILES IDX 4 1 5 2 6 3 7 4 8 5 12 6 3 7 1 8 2 9 13 11 14 12 22 13 15 14
REMARK SMILES IDX 20 15 16 16 19 17 17 18 18 19 21 21 9 23 10 24 11 25
REMARK H PARENT 3 10 15 20 21 22 11 26
ROOT
ATOM      1  C   UNL     1       3.626  44.204  53.098  1.00  0.00     0.041 A 
ATOM      2  C   UNL     1       3.166  43.144  52.298  1.00  0.00     0.026 A 
ATOM      3  C   UNL     1       1.856  42.681  52.428  1.00  0.00     0.002 A 
ATOM      4  C   UNL     1       0.997  43.257  53.366  1.00  0.00     0.004 A 
ATOM      5  C   UNL     1       1.451  44.293  54.197  1.00  0.00    -0.044 A 
ATOM      6  C   UNL     1       2.767  44.762  54.057  1.00  0.00     0.030 A 
ENDROOT
BRANCH   1   7
ATOM      7  N   UNL     1       4.974  44.690  52.996  1.00  0.00    -0.322 N 
ATOM      8  O   UNL     1       4.690  45.864  50.983  1.00  0.00    -0.269 OA
ATOM      9  C   UNL     1       5.452  45.527  51.929  1.00  0.00     0.258 C 
ATOM     10  H   UNL     1       5.619  44.500  53.797  1.00  0.00     0.170 HD
BRANCH   9  11
ATOM     11  C   UNL     1       6.853  45.969  51.905  1.00  0.00     0.072 A 
ATOM     12  C   UNL     1       7.744  45.724  50.862  1.00  0.00     0.099 A 
ATOM     13  C   UNL     1       7.608  46.550  52.917  1.00  0.00     0.093 A 
ATOM     14  N   UNL     1       8.994  46.102  51.208  1.00  0.00    -0.345 N 
ATOM     15  C   UNL     1       7.321  47.078  54.182  1.00  0.00     0.224 A 
ATOM     16  C   UNL     1       8.894  46.590  52.453  1.00  0.00     0.145 A 
ATOM     17  N   UNL     1       8.367  47.535  54.931  1.00  0.00    -0.201 NA
ATOM     18  N   UNL     1       9.920  47.059  53.203  1.00  0.00    -0.218 NA
ATOM     19  C   UNL     1       9.651  47.520  54.458  1.00  0.00     0.228 A 
ATOM     20  H   UNL     1       9.860  46.011  50.632  1.00  0.00     0.167 HD
BRANCH  15  21
ATOM     21  O   UNL     1       6.026  47.205  54.678  1.00  0.00    -0.493 OA
ATOM     22  H   UNL     1       5.342  46.463  54.613  1.00  0.00     0.295 HD
ENDBRANCH  15  21
ENDBRANCH   9  11
ENDBRANCH   1   7
BRANCH   5  23
ATOM     23  C   UNL     1       0.522  44.931  55.197  1.00  0.00     0.063 C 
BRANCH  23  24
ATOM     24  C   UNL     1       1.298  45.538  56.366  1.00  0.00     0.161 C 
BRANCH  24  25
ATOM     25  O   UNL     1       0.889  44.954  57.572  1.00  0.00    -0.396 OA
ATOM     26  H   UNL     1       0.381  45.653  58.059  1.00  0.00     0.210 HD
ENDBRANCH  24  25
ENDBRANCH  23  24
ENDBRANCH   5  23
TORSDOF 6
ENDMDL
MODEL 4
REMARK VINA RESULT:    -8.038      3.160      4.659
REMARK INTER + INTRA:         -10.995
REMARK INTER:                 -10.271
REMARK INTRA:                  -0.724
REMARK UNBOUND:                -0.608
REMARK SMILES O=C(Nc1cccc(CCO)c1)c1c[nH]c2ncnc(O)c12
REMARK SMILES IDX 4 1 5 2 6 3 7 4 8 5 12 6 3 7 1 8 2 9 13 11 14 12 22 13 15 14
REMARK SMILES IDX 20 15 16 16 19 17 17 18 18 19 21 21 9 23 10 24 11 25
REMARK H PARENT 3 10 15 20 21 22 11 26
ROOT
ATOM      1  C   UNL     1       5.767  45.021  52.102  1.00  0.00     0.041 A 
ATOM      2  C   UNL     1       6.781  45.993  52.029  1.00  0.00     0.026 A 
ATOM      3  C   UNL     1       7.712  45.962  50.989  1.00  0.00     0.002 A 
ATOM      4  C   UNL     1       7.654  44.956  50.023  1.00  0.00     0.004 A 
ATOM      5  C   UNL     1       6.671  43.957  50.101  1.00  0.00    -0.044 A 
ATOM      6  C   UNL     1       5.730  43.997  51.143  1.00  0.00     0.030 A 
ENDROOT
BRANCH   1   7
ATOM      7  N   UNL     1       4.805  45.019  53.169  1.00  0.00    -0.322 N 
ATOM      8  O   UNL     1       3.164  46.279  52.059  1.00  0.00    -0.269 OA
ATOM      9  C   UNL     1       3.515  45.648  53.093  1.00  0.00     0.258 C 
ATOM     10  H   UNL     1       5.022  44.446  54.015  1.00  0.00     0.170 HD
BRANCH   9  11
ATOM     11  C   UNL     1       2.600  45.601  54.241  1.00  0.00     0.072 A 
ATOM     12  C   UNL     1       2.988  45.749  55.571  1.00  0.00     0.099 A 
ATOM     13  C   UNL     1       1.254  45.259  54.277  1.00  0.00     0.093 A 
ATOM     14  N   UNL     1       1.953  45.486  56.399  1.00  0.00    -0.345 N 
ATOM     15  C   UNL     1       0.267  45.032  53.309  1.00  0.00     0.224 A 
ATOM     16  C   UNL     1       0.918  45.186  55.602  1.00  0.00     0.145 A 
ATOM     17  N   UNL     1      -0.973  44.660  53.741  1.00  0.00    -0.201 NA
ATOM     18  N   UNL     1      -0.321  44.828  56.015  1.00  0.00    -0.218 NA
ATOM     19  C   UNL     1      -1.266  44.549  55.073  1.00  0.00     0.228 A 
ATOM     20  H   UNL     1       1.966  45.495  57.443  1.00  0.00     0.167 HD
BRANCH  15  21
ATOM     21  O   UNL     1       0.482  45.220  51.945  1.00  0.00    -0.493 OA
ATOM     22  H   UNL     1      -0.274  45.358  51.289  1.00  0.00     0.295 HD
ENDBRANCH  15  21
ENDBRANCH   9  11
ENDBRANCH   1   7
BRANCH   5  23
ATOM     23  C   UNL     1       6.591  42.880  49.051  1.00  0.00     0.063 C 
BRANCH  23  24
ATOM     24  C   UNL     1       6.175  41.542  49.659  1.00  0.00     0.161 C 
BRANCH  24  25
ATOM     25  O   UNL     1       7.307  40.813  50.045  1.00  0.00    -0.396 OA
ATOM     26  H   UNL     1       6.989  40.135  50.696  1.00  0.00     0.210 HD
ENDBRANCH  24  25
ENDBRANCH  23  24
ENDBRANCH   5  23
TORSDOF 6
ENDMDL
MODEL 5
REMARK VINA RESULT:    -8.021      2.125      3.270
REMARK INTER + INTRA:         -10.973
REMARK INTER:                 -10.279
REMARK INTRA:                  -0.693
REMARK UNBOUND:                -0.608
REMARK SMILES O=C(Nc1cccc(CCO)c1)c1c[nH]c2ncnc(O)c12
REMARK SMILES IDX 4 1 5 2 6 3 7 4 8 5 12 6 3 7 1 8 2 9 13 11 14 12 22 13 15 14
REMARK SMILES IDX 20 15 16 16 19 17 17 18 18 19 21 21 9 23 10 24 11 25
REMARK H PARENT 3 10 15 20 21 22 11 26
ROOT
ATOM      1  C   UNL     1       7.226  46.947  53.086  1.00  0.00     0.041 A 
ATOM      2  C   UNL     1       7.648  47.485  54.315  1.00  0.00     0.026 A 
ATOM      3  C   UNL     1       9.008  47.563  54.619  1.00  0.00     0.002 A 
ATOM      4  C   UNL     1       9.959  47.093  53.711  1.00  0.00     0.004 A 
ATOM      5  C   UNL     1       9.554  46.520  52.496  1.00  0.00    -0.044 A 
ATOM      6  C   UNL     1       8.185  46.452  52.190  1.00  0.00     0.030 A 
ENDROOT
BRANCH   1   7
ATOM      7  N   UNL     1       5.832  46.840  52.754  1.00  0.00    -0.322 N 
ATOM      8  O   UNL     1       5.542  44.635  53.505  1.00  0.00    -0.269 OA
ATOM      9  C   UNL     1       5.033  45.670  52.996  1.00  0.00     0.258 C 
ATOM     10  H   UNL     1       5.351  47.698  52.401  1.00  0.00     0.170 HD
BRANCH   9  11
ATOM     11  C   UNL     1       3.615  45.649  52.614  1.00  0.00     0.072 A 
ATOM     12  C   UNL     1       2.684  46.624  52.968  1.00  0.00     0.099 A 
ATOM     13  C   UNL     1       2.888  44.641  51.992  1.00  0.00     0.093 A 
ATOM     14  N   UNL     1       1.437  46.238  52.616  1.00  0.00    -0.345 N 
ATOM     15  C   UNL     1       3.215  43.433  51.363  1.00  0.00     0.224 A 
ATOM     16  C   UNL     1       1.579  45.038  52.036  1.00  0.00     0.145 A 
ATOM     17  N   UNL     1       2.190  42.662  50.896  1.00  0.00    -0.201 NA
ATOM     18  N   UNL     1       0.573  44.268  51.556  1.00  0.00    -0.218 NA
ATOM     19  C   UNL     1       0.886  43.064  50.996  1.00  0.00     0.228 A 
ATOM     20  H   UNL     1       0.548  46.760  52.783  1.00  0.00     0.167 HD
BRANCH  15  21
ATOM     21  O   UNL     1       4.527  43.017  51.150  1.00  0.00    -0.493 OA
ATOM     22  H   UNL     1       4.759  42.221  50.571  1.00  0.00     0.295 HD
ENDBRANCH  15  21
ENDBRANCH   9  11
ENDBRANCH   1   7
BRANCH   5  23
ATOM     23  C   UNL     1      10.576  46.029  51.505  1.00  0.00     0.063 C 
BRANCH  23  24
ATOM     24  C   UNL     1       9.954  45.062  50.498  1.00  0.00     0.161 C 
BRANCH  24  25
ATOM     25  O   UNL     1      10.696  43.875  50.447  1.00  0.00    -0.396 OA
ATOM     26  H   UNL     1      10.063  43.144  50.672  1.00  0.00     0.210 HD
ENDBRANCH  24  25
ENDBRANCH  23  24
ENDBRANCH   5  23
TORSDOF 6
ENDMDL
