ligand_79_conformer_3_docked
     RDKit          3D

 45 47  0  0  0  0  0  0  0  0999 V2000
    5.4160   45.0780   55.7030 C   0  0  0  0  0  0  0  0  0  0  0  0
    4.8140   46.1330   54.7670 C   0  0  1  0  0  0  0  0  0  0  0  0
    5.8740   46.7560   53.9000 C   0  0  0  0  0  0  0  0  0  0  0  0
    5.7000   47.9210   53.4490 O   0  0  0  0  0  0  0  0  0  0  0  0
    7.0920   46.0430   53.6260 N   0  0  0  0  0  0  0  0  0  0  0  0
    8.2030   46.5700   52.8120 C   0  0  0  0  0  0  0  0  0  0  0  0
    7.8300   46.7480   51.3180 C   0  0  0  0  0  0  0  0  0  0  0  0
    7.4390   45.4610   50.6370 C   0  0  0  0  0  0  0  0  0  0  0  0
    8.3650   44.7590   49.8460 C   0  0  0  0  0  0  0  0  0  0  0  0
    8.0000   43.5580   49.2280 C   0  0  0  0  0  0  0  0  0  0  0  0
    6.7050   43.0550   49.3850 C   0  0  0  0  0  0  0  0  0  0  0  0
    5.7740   43.7520   50.1580 C   0  0  0  0  0  0  0  0  0  0  0  0
    6.1390   44.9460   50.7900 C   0  0  0  0  0  0  0  0  0  0  0  0
    8.7650   47.8670   53.4160 C   0  0  0  0  0  0  0  0  0  0  0  0
   10.1000   47.1810   53.6670 C   0  0  0  0  0  0  0  0  0  0  0  0
    9.5540   45.8860   53.0840 C   0  0  0  0  0  0  0  0  0  0  0  0
    3.7710   45.5460   53.9220 N   0  0  0  0  0  0  0  0  0  0  0  0
    2.6860   46.1920   53.4490 C   0  0  0  0  0  0  0  0  0  0  0  0
    1.9820   45.3280   52.6370 C   0  0  0  0  0  0  0  0  0  0  0  0
    2.7290   44.1630   52.6450 C   0  0  0  0  0  0  0  0  0  0  0  0
    2.3890   42.8930   51.9330 C   0  0  0  0  0  0  0  0  0  0  0  0
    2.0490   43.1670   50.6200 F   0  0  0  0  0  0  0  0  0  0  0  0
    1.3200   42.2720   52.5520 F   0  0  0  0  0  0  0  0  0  0  0  0
    3.4850   42.0480   51.9530 F   0  0  0  0  0  0  0  0  0  0  0  0
    3.8100   44.3150   53.4340 N   0  0  0  0  0  0  0  0  0  0  0  0
    5.2462   45.3756   56.7483 H   0  0  0  0  0  0  0  0  0  0  0  0
    4.9367   44.1057   55.5161 H   0  0  0  0  0  0  0  0  0  0  0  0
    6.4969   44.9960   55.5161 H   0  0  0  0  0  0  0  0  0  0  0  0
    4.3668   46.9160   55.3970 H   0  0  0  0  0  0  0  0  0  0  0  0
    7.2360   45.1260   54.1050 H   0  0  0  0  0  0  0  0  0  0  0  0
    6.9839   47.4478   51.2516 H   0  0  0  0  0  0  0  0  0  0  0  0
    8.7262   47.1260   50.8042 H   0  0  0  0  0  0  0  0  0  0  0  0
    9.3821   45.1560   49.7122 H   0  0  0  0  0  0  0  0  0  0  0  0
    8.7326   43.0090   48.6181 H   0  0  0  0  0  0  0  0  0  0  0  0
    6.4194   42.1101   48.8996 H   0  0  0  0  0  0  0  0  0  0  0  0
    4.7517   43.3617   50.2703 H   0  0  0  0  0  0  0  0  0  0  0  0
    5.4061   45.4841   51.4091 H   0  0  0  0  0  0  0  0  0  0  0  0
    8.8187   48.7053   52.7058 H   0  0  0  0  0  0  0  0  0  0  0  0
    8.2365   48.3691   54.2398 H   0  0  0  0  0  0  0  0  0  0  0  0
   10.9379   47.6100   53.0979 H   0  0  0  0  0  0  0  0  0  0  0  0
   10.5474   47.1907   54.6719 H   0  0  0  0  0  0  0  0  0  0  0  0
   10.0759   45.5481   52.1766 H   0  0  0  0  0  0  0  0  0  0  0  0
    9.5963   44.9542   53.6671 H   0  0  0  0  0  0  0  0  0  0  0  0
    2.4092   47.2327   53.6731 H   0  0  0  0  0  0  0  0  0  0  0  0
    1.0396   45.5211   52.1035 H   0  0  0  0  0  0  0  0  0  0  0  0
  1  2  1  0
  2  3  1  0
  3  4  2  0
  3  5  1  0
  5  6  1  0
  6  7  1  0
  7  8  1  0
  8  9  2  0
  9 10  1  0
 10 11  2  0
 11 12  1  0
 12 13  2  0
  6 14  1  0
 14 15  1  0
 15 16  1  0
  2 17  1  0
 17 18  1  0
 18 19  2  0
 19 20  1  0
 20 21  1  0
 21 22  1  0
 21 23  1  0
 21 24  1  0
 20 25  2  0
 16  6  1  0
 25 17  1  0
 13  8  1  0
  1 26  1  0
  1 27  1  0
  1 28  1  0
  2 29  1  1
  5 30  1  0
  7 31  1  0
  7 32  1  0
  9 33  1  0
 10 34  1  0
 11 35  1  0
 12 36  1  0
 13 37  1  0
 14 38  1  0
 14 39  1  0
 15 40  1  0
 15 41  1  0
 16 42  1  0
 16 43  1  0
 18 44  1  0
 19 45  1  0
M  END
>  <meeko>  (1) 
{"is_sidechain": [false], "free_energy": -9.548, "intermolecular_energy": -12.898, "internal_energy": -1.057}

$$$$
ligand_79_conformer_3_docked
     RDKit          3D

 45 47  0  0  0  0  0  0  0  0999 V2000
    3.1940   47.5570   52.3480 C   0  0  0  0  0  0  0  0  0  0  0  0
    3.8010   46.7770   53.5210 C   0  0  1  0  0  0  0  0  0  0  0  0
    3.4070   45.3260   53.4680 C   0  0  0  0  0  0  0  0  0  0  0  0
    3.4160   44.6420   54.5280 O   0  0  0  0  0  0  0  0  0  0  0  0
    2.9810   44.7390   52.2260 N   0  0  0  0  0  0  0  0  0  0  0  0
    2.5510   43.3380   52.0700 C   0  0  0  0  0  0  0  0  0  0  0  0
    3.7240   42.3280   52.1610 C   0  0  0  0  0  0  0  0  0  0  0  0
    4.7200   42.4580   51.0360 C   0  0  0  0  0  0  0  0  0  0  0  0
    5.5420   43.5940   50.9350 C   0  0  0  0  0  0  0  0  0  0  0  0
    6.4730   43.7010   49.8960 C   0  0  0  0  0  0  0  0  0  0  0  0
    6.5830   42.6820   48.9450 C   0  0  0  0  0  0  0  0  0  0  0  0
    5.7620   41.5570   49.0300 C   0  0  0  0  0  0  0  0  0  0  0  0
    4.8380   41.4380   50.0750 C   0  0  0  0  0  0  0  0  0  0  0  0
    1.4250   42.9910   53.0570 C   0  0  0  0  0  0  0  0  0  0  0  0
    0.4680   42.7590   51.8960 C   0  0  0  0  0  0  0  0  0  0  0  0
    1.5690   43.1130   50.9080 C   0  0  0  0  0  0  0  0  0  0  0  0
    5.2610   46.8900   53.5220 N   0  0  0  0  0  0  0  0  0  0  0  0
    6.0590   46.7640   54.6010 C   0  0  0  0  0  0  0  0  0  0  0  0
    7.3720   46.8610   54.1890 C   0  0  0  0  0  0  0  0  0  0  0  0
    7.2900   47.0230   52.8180 C   0  0  0  0  0  0  0  0  0  0  0  0
    8.4420   47.2010   51.8810 C   0  0  0  0  0  0  0  0  0  0  0  0
    8.3580   46.2770   50.8540 F   0  0  0  0  0  0  0  0  0  0  0  0
    9.6360   47.0150   52.5540 F   0  0  0  0  0  0  0  0  0  0  0  0
    8.4080   48.4780   51.3500 F   0  0  0  0  0  0  0  0  0  0  0  0
    5.9990   47.0400   52.4320 N   0  0  0  0  0  0  0  0  0  0  0  0
    2.5618   48.3694   52.7359 H   0  0  0  0  0  0  0  0  0  0  0  0
    4.0012   47.9821   51.7335 H   0  0  0  0  0  0  0  0  0  0  0  0
    2.5836   46.8789   51.7335 H   0  0  0  0  0  0  0  0  0  0  0  0
    3.4069   47.2168   54.4490 H   0  0  0  0  0  0  0  0  0  0  0  0
    2.8900   45.3690   51.3980 H   0  0  0  0  0  0  0  0  0  0  0  0
    4.2508   42.4914   53.1127 H   0  0  0  0  0  0  0  0  0  0  0  0
    3.2886   41.3202   52.0921 H   0  0  0  0  0  0  0  0  0  0  0  0
    5.4529   44.4021   51.6759 H   0  0  0  0  0  0  0  0  0  0  0  0
    7.1195   44.5883   49.8272 H   0  0  0  0  0  0  0  0  0  0  0  0
    7.3167   42.7672   48.1299 H   0  0  0  0  0  0  0  0  0  0  0  0
    5.8410   40.7617   48.2741 H   0  0  0  0  0  0  0  0  0  0  0  0
    4.2019   40.5433   50.1447 H   0  0  0  0  0  0  0  0  0  0  0  0
    1.6207   42.0936   53.6623 H   0  0  0  0  0  0  0  0  0  0  0  0
    1.1592   43.6911   53.8627 H   0  0  0  0  0  0  0  0  0  0  0  0
    0.1075   41.7231   51.8128 H   0  0  0  0  0  0  0  0  0  0  0  0
   -0.4981   43.2838   51.8607 H   0  0  0  0  0  0  0  0  0  0  0  0
    1.8507   42.2882   50.2369 H   0  0  0  0  0  0  0  0  0  0  0  0
    1.4079   43.9016   50.1582 H   0  0  0  0  0  0  0  0  0  0  0  0
    5.7202   46.6098   55.6361 H   0  0  0  0  0  0  0  0  0  0  0  0
    8.2788   46.8190   54.8103 H   0  0  0  0  0  0  0  0  0  0  0  0
  1  2  1  0
  2  3  1  0
  3  4  2  0
  3  5  1  0
  5  6  1  0
  6  7  1  0
  7  8  1  0
  8  9  2  0
  9 10  1  0
 10 11  2  0
 11 12  1  0
 12 13  2  0
  6 14  1  0
 14 15  1  0
 15 16  1  0
  2 17  1  0
 17 18  1  0
 18 19  2  0
 19 20  1  0
 20 21  1  0
 21 22  1  0
 21 23  1  0
 21 24  1  0
 20 25  2  0
 16  6  1  0
 25 17  1  0
 13  8  1  0
  1 26  1  0
  1 27  1  0
  1 28  1  0
  2 29  1  1
  5 30  1  0
  7 31  1  0
  7 32  1  0
  9 33  1  0
 10 34  1  0
 11 35  1  0
 12 36  1  0
 13 37  1  0
 14 38  1  0
 14 39  1  0
 15 40  1  0
 15 41  1  0
 16 42  1  0
 16 43  1  0
 18 44  1  0
 19 45  1  0
M  END
>  <meeko>  (2) 
{"is_sidechain": [false], "free_energy": -8.781, "intermolecular_energy": -12.159, "internal_energy": -0.758}

$$$$
ligand_79_conformer_3_docked
     RDKit          3D

 45 47  0  0  0  0  0  0  0  0999 V2000
    1.2600   44.4210   51.6710 C   0  0  0  0  0  0  0  0  0  0  0  0
    2.6770   44.7760   51.2020 C   0  0  1  0  0  0  0  0  0  0  0  0
    3.3890   45.6220   52.2220 C   0  0  0  0  0  0  0  0  0  0  0  0
    2.8820   46.7200   52.5790 O   0  0  0  0  0  0  0  0  0  0  0  0
    4.6150   45.1580   52.8140 N   0  0  0  0  0  0  0  0  0  0  0  0
    5.3780   45.8950   53.8370 C   0  0  0  0  0  0  0  0  0  0  0  0
    6.0640   47.1700   53.2840 C   0  0  0  0  0  0  0  0  0  0  0  0
    7.5210   46.9740   52.9490 C   0  0  0  0  0  0  0  0  0  0  0  0
    8.5240   47.4390   53.8190 C   0  0  0  0  0  0  0  0  0  0  0  0
    9.8740   47.2410   53.5090 C   0  0  0  0  0  0  0  0  0  0  0  0
   10.2340   46.5880   52.3260 C   0  0  0  0  0  0  0  0  0  0  0  0
    9.2450   46.1350   51.4500 C   0  0  0  0  0  0  0  0  0  0  0  0
    7.8930   46.3180   51.7620 C   0  0  0  0  0  0  0  0  0  0  0  0
    4.5030   46.2070   55.0620 C   0  0  0  0  0  0  0  0  0  0  0  0
    5.3900   45.3270   55.9300 C   0  0  0  0  0  0  0  0  0  0  0  0
    6.2580   44.9980   54.7250 C   0  0  0  0  0  0  0  0  0  0  0  0
    3.4560   43.5650   50.9360 N   0  0  0  0  0  0  0  0  0  0  0  0
    3.0410   42.3000   51.1480 C   0  0  0  0  0  0  0  0  0  0  0  0
    4.0230   41.4370   50.7090 C   0  0  0  0  0  0  0  0  0  0  0  0
    5.0120   42.2670   50.2100 C   0  0  0  0  0  0  0  0  0  0  0  0
    6.3190   41.8310   49.6290 C   0  0  0  0  0  0  0  0  0  0  0  0
    7.1080   42.9380   49.3690 F   0  0  0  0  0  0  0  0  0  0  0  0
    6.1080   41.1440   48.4470 F   0  0  0  0  0  0  0  0  0  0  0  0
    6.9700   41.0070   50.5290 F   0  0  0  0  0  0  0  0  0  0  0  0
    4.6490   43.5560   50.3600 N   0  0  0  0  0  0  0  0  0  0  0  0
    1.2289   44.4132   52.7705 H   0  0  0  0  0  0  0  0  0  0  0  0
    0.5493   45.1689   51.2894 H   0  0  0  0  0  0  0  0  0  0  0  0
    0.9859   43.4264   51.2894 H   0  0  0  0  0  0  0  0  0  0  0  0
    2.5821   45.3524   50.2700 H   0  0  0  0  0  0  0  0  0  0  0  0
    4.9410   44.1980   52.5640 H   0  0  0  0  0  0  0  0  0  0  0  0
    5.5358   47.4808   52.3705 H   0  0  0  0  0  0  0  0  0  0  0  0
    6.0145   47.9323   54.0755 H   0  0  0  0  0  0  0  0  0  0  0  0
    8.2458   47.9604   54.7468 H   0  0  0  0  0  0  0  0  0  0  0  0
   10.6536   47.5997   54.1972 H   0  0  0  0  0  0  0  0  0  0  0  0
   11.2958   46.4312   52.0854 H   0  0  0  0  0  0  0  0  0  0  0  0
    9.5292   45.6335   50.5132 H   0  0  0  0  0  0  0  0  0  0  0  0
    7.1177   45.9470   51.0755 H   0  0  0  0  0  0  0  0  0  0  0  0
    4.5021   47.2677   55.3533 H   0  0  0  0  0  0  0  0  0  0  0  0
    3.4172   46.0345   55.0256 H   0  0  0  0  0  0  0  0  0  0  0  0
    5.9180   45.8712   56.7270 H   0  0  0  0  0  0  0  0  0  0  0  0
    4.9490   44.5188   56.5320 H   0  0  0  0  0  0  0  0  0  0  0  0
    7.2992   45.3409   54.8159 H   0  0  0  0  0  0  0  0  0  0  0  0
    6.4428   43.9506   54.4443 H   0  0  0  0  0  0  0  0  0  0  0  0
    2.0804   42.0056   51.5959 H   0  0  0  0  0  0  0  0  0  0  0  0
    4.0208   40.3377   50.7468 H   0  0  0  0  0  0  0  0  0  0  0  0
  1  2  1  0
  2  3  1  0
  3  4  2  0
  3  5  1  0
  5  6  1  0
  6  7  1  0
  7  8  1  0
  8  9  2  0
  9 10  1  0
 10 11  2  0
 11 12  1  0
 12 13  2  0
  6 14  1  0
 14 15  1  0
 15 16  1  0
  2 17  1  0
 17 18  1  0
 18 19  2  0
 19 20  1  0
 20 21  1  0
 21 22  1  0
 21 23  1  0
 21 24  1  0
 20 25  2  0
 16  6  1  0
 25 17  1  0
 13  8  1  0
  1 26  1  0
  1 27  1  0
  1 28  1  0
  2 29  1  6
  5 30  1  0
  7 31  1  0
  7 32  1  0
  9 33  1  0
 10 34  1  0
 11 35  1  0
 12 36  1  0
 13 37  1  0
 14 38  1  0
 14 39  1  0
 15 40  1  0
 15 41  1  0
 16 42  1  0
 16 43  1  0
 18 44  1  0
 19 45  1  0
M  END
>  <meeko>  (3) 
{"is_sidechain": [false], "free_energy": -8.565, "intermolecular_energy": -11.537, "internal_energy": -1.089}

$$$$
ligand_79_conformer_3_docked
     RDKit          3D

 45 47  0  0  0  0  0  0  0  0999 V2000
    5.1780   45.3070   55.7490 C   0  0  0  0  0  0  0  0  0  0  0  0
    4.1030   46.0730   54.9700 C   0  0  1  0  0  0  0  0  0  0  0  0
    4.5180   46.2840   53.5390 C   0  0  0  0  0  0  0  0  0  0  0  0
    4.0580   47.2700   52.8990 O   0  0  0  0  0  0  0  0  0  0  0  0
    5.4650   45.3930   52.9240 N   0  0  0  0  0  0  0  0  0  0  0  0
    5.9560   45.5240   51.5400 C   0  0  0  0  0  0  0  0  0  0  0  0
    6.7850   46.8140   51.3090 C   0  0  0  0  0  0  0  0  0  0  0  0
    7.9970   46.9200   52.2000 C   0  0  0  0  0  0  0  0  0  0  0  0
    7.9120   47.5580   53.4500 C   0  0  0  0  0  0  0  0  0  0  0  0
    9.0370   47.6400   54.2770 C   0  0  0  0  0  0  0  0  0  0  0  0
   10.2560   47.0980   53.8600 C   0  0  0  0  0  0  0  0  0  0  0  0
   10.3530   46.4740   52.6140 C   0  0  0  0  0  0  0  0  0  0  0  0
    9.2270   46.3770   51.7890 C   0  0  0  0  0  0  0  0  0  0  0  0
    6.7280   44.2670   51.1060 C   0  0  0  0  0  0  0  0  0  0  0  0
    5.6770   43.9800   50.0430 C   0  0  0  0  0  0  0  0  0  0  0  0
    4.8960   45.2130   50.4700 C   0  0  0  0  0  0  0  0  0  0  0  0
    2.8230   45.3620   55.0100 N   0  0  0  0  0  0  0  0  0  0  0  0
    1.8400   45.5630   55.9090 C   0  0  0  0  0  0  0  0  0  0  0  0
    0.7700   44.7590   55.5760 C   0  0  0  0  0  0  0  0  0  0  0  0
    1.1760   44.1060   54.4260 C   0  0  0  0  0  0  0  0  0  0  0  0
    0.3870   43.0910   53.6620 C   0  0  0  0  0  0  0  0  0  0  0  0
    0.4090   43.3990   52.3130 F   0  0  0  0  0  0  0  0  0  0  0  0
   -0.9260   43.0840   54.0970 F   0  0  0  0  0  0  0  0  0  0  0  0
    0.9420   41.8380   53.8530 F   0  0  0  0  0  0  0  0  0  0  0  0
    2.4280   44.4840   54.1000 N   0  0  0  0  0  0  0  0  0  0  0  0
    5.0059   45.4296   56.8285 H   0  0  0  0  0  0  0  0  0  0  0  0
    5.1286   44.2394   55.4888 H   0  0  0  0  0  0  0  0  0  0  0  0
    6.1710   45.7023   55.4888 H   0  0  0  0  0  0  0  0  0  0  0  0
    3.9831   47.0543   55.4524 H   0  0  0  0  0  0  0  0  0  0  0  0
    5.8960   44.6550   53.5240 H   0  0  0  0  0  0  0  0  0  0  0  0
    7.1209   46.8287   50.2616 H   0  0  0  0  0  0  0  0  0  0  0  0
    6.1314   47.6652   51.5505 H   0  0  0  0  0  0  0  0  0  0  0  0
    6.9572   47.9943   53.7788 H   0  0  0  0  0  0  0  0  0  0  0  0
    8.9622   48.1322   55.2579 H   0  0  0  0  0  0  0  0  0  0  0  0
   11.1389   47.1628   54.5129 H   0  0  0  0  0  0  0  0  0  0  0  0
   11.3155   46.0585   52.2810 H   0  0  0  0  0  0  0  0  0  0  0  0
    9.3045   45.8734   50.8141 H   0  0  0  0  0  0  0  0  0  0  0  0
    7.7297   44.4739   50.7013 H   0  0  0  0  0  0  0  0  0  0  0  0
    6.9937   43.4968   51.8451 H   0  0  0  0  0  0  0  0  0  0  0  0
    6.0583   44.0262   49.0123 H   0  0  0  0  0  0  0  0  0  0  0  0
    5.1832   42.9979   50.0033 H   0  0  0  0  0  0  0  0  0  0  0  0
    4.8101   45.9818   49.6880 H   0  0  0  0  0  0  0  0  0  0  0  0
    3.8354   45.1278   50.7491 H   0  0  0  0  0  0  0  0  0  0  0  0
    1.8835   46.2526   56.7649 H   0  0  0  0  0  0  0  0  0  0  0  0
   -0.1892   44.6595   56.1051 H   0  0  0  0  0  0  0  0  0  0  0  0
  1  2  1  0
  2  3  1  0
  3  4  2  0
  3  5  1  0
  5  6  1  0
  6  7  1  0
  7  8  1  0
  8  9  2  0
  9 10  1  0
 10 11  2  0
 11 12  1  0
 12 13  2  0
  6 14  1  0
 14 15  1  0
 15 16  1  0
  2 17  1  0
 17 18  1  0
 18 19  2  0
 19 20  1  0
 20 21  1  0
 21 22  1  0
 21 23  1  0
 21 24  1  0
 20 25  2  0
 16  6  1  0
 25 17  1  0
 13  8  1  0
  1 26  1  0
  1 27  1  0
  1 28  1  0
  2 29  1  1
  5 30  1  0
  7 31  1  0
  7 32  1  0
  9 33  1  0
 10 34  1  0
 11 35  1  0
 12 36  1  0
 13 37  1  0
 14 38  1  0
 14 39  1  0
 15 40  1  0
 15 41  1  0
 16 42  1  0
 16 43  1  0
 18 44  1  0
 19 45  1  0
M  END
>  <meeko>  (4) 
{"is_sidechain": [false], "free_energy": -8.037, "intermolecular_energy": -11.02, "internal_energy": -0.893}

$$$$
ligand_79_conformer_3_docked
     RDKit          3D

 45 47  0  0  0  0  0  0  0  0999 V2000
    1.4820   42.6950   51.4320 C   0  0  0  0  0  0  0  0  0  0  0  0
    2.0500   43.2690   52.7350 C   0  0  1  0  0  0  0  0  0  0  0  0
    2.9520   44.4420   52.4620 C   0  0  0  0  0  0  0  0  0  0  0  0
    2.5600   45.3580   51.6880 O   0  0  0  0  0  0  0  0  0  0  0  0
    4.2300   44.5360   53.1140 N   0  0  0  0  0  0  0  0  0  0  0  0
    5.1770   45.6520   52.9370 C   0  0  0  0  0  0  0  0  0  0  0  0
    5.3680   46.0570   51.4530 C   0  0  0  0  0  0  0  0  0  0  0  0
    6.2730   45.1270   50.6850 C   0  0  0  0  0  0  0  0  0  0  0  0
    5.8060   43.8780   50.2430 C   0  0  0  0  0  0  0  0  0  0  0  0
    6.6470   43.0250   49.5190 C   0  0  0  0  0  0  0  0  0  0  0  0
    7.9630   43.4080   49.2410 C   0  0  0  0  0  0  0  0  0  0  0  0
    8.4400   44.6420   49.6890 C   0  0  0  0  0  0  0  0  0  0  0  0
    7.5980   45.5040   50.4010 C   0  0  0  0  0  0  0  0  0  0  0  0
    4.7840   46.8550   53.8090 C   0  0  0  0  0  0  0  0  0  0  0  0
    6.0730   46.7100   54.6050 C   0  0  0  0  0  0  0  0  0  0  0  0
    6.4690   45.5090   53.7590 C   0  0  0  0  0  0  0  0  0  0  0  0
    0.9720   43.6780   53.6380 N   0  0  0  0  0  0  0  0  0  0  0  0
   -0.3390   43.4150   53.4670 C   0  0  0  0  0  0  0  0  0  0  0  0
   -1.0290   43.8970   54.5590 C   0  0  0  0  0  0  0  0  0  0  0  0
   -0.0480   44.4250   55.3790 C   0  0  0  0  0  0  0  0  0  0  0  0
   -0.2680   45.1010   56.6950 C   0  0  0  0  0  0  0  0  0  0  0  0
    0.8320   44.9060   57.5110 F   0  0  0  0  0  0  0  0  0  0  0  0
   -1.3860   44.5760   57.3180 F   0  0  0  0  0  0  0  0  0  0  0  0
   -0.4500   46.4570   56.4900 F   0  0  0  0  0  0  0  0  0  0  0  0
    1.1610   44.2850   54.8000 N   0  0  0  0  0  0  0  0  0  0  0  0
    0.7261   41.9311   51.6667 H   0  0  0  0  0  0  0  0  0  0  0  0
    1.0178   43.5027   50.8472 H   0  0  0  0  0  0  0  0  0  0  0  0
    2.2946   42.2393   50.8472 H   0  0  0  0  0  0  0  0  0  0  0  0
    2.6388   42.4744   53.2166 H   0  0  0  0  0  0  0  0  0  0  0  0
    4.4670   43.8090   53.8250 H   0  0  0  0  0  0  0  0  0  0  0  0
    4.3822   46.0645   50.9650 H   0  0  0  0  0  0  0  0  0  0  0  0
    5.8450   47.0482   51.4480 H   0  0  0  0  0  0  0  0  0  0  0  0
    4.7744   43.5689   50.4670 H   0  0  0  0  0  0  0  0  0  0  0  0
    6.2723   42.0521   49.1682 H   0  0  0  0  0  0  0  0  0  0  0  0
    8.6221   42.7377   48.6698 H   0  0  0  0  0  0  0  0  0  0  0  0
    9.4793   44.9369   49.4819 H   0  0  0  0  0  0  0  0  0  0  0  0
    7.9741   46.4806   50.7400 H   0  0  0  0  0  0  0  0  0  0  0  0
    4.7037   47.8021   53.2554 H   0  0  0  0  0  0  0  0  0  0  0  0
    3.8129   46.8710   54.3255 H   0  0  0  0  0  0  0  0  0  0  0  0
    6.7555   47.5677   54.5126 H   0  0  0  0  0  0  0  0  0  0  0  0
    6.0412   46.6293   55.7016 H   0  0  0  0  0  0  0  0  0  0  0  0
    7.3898   45.6562   53.1754 H   0  0  0  0  0  0  0  0  0  0  0  0
    6.7173   44.5508   54.2389 H   0  0  0  0  0  0  0  0  0  0  0  0
   -0.7836   42.9020   52.6015 H   0  0  0  0  0  0  0  0  0  0  0  0
   -2.1140   43.8682   54.7377 H   0  0  0  0  0  0  0  0  0  0  0  0
  1  2  1  0
  2  3  1  0
  3  4  2  0
  3  5  1  0
  5  6  1  0
  6  7  1  0
  7  8  1  0
  8  9  2  0
  9 10  1  0
 10 11  2  0
 11 12  1  0
 12 13  2  0
  6 14  1  0
 14 15  1  0
 15 16  1  0
  2 17  1  0
 17 18  1  0
 18 19  2  0
 19 20  1  0
 20 21  1  0
 21 22  1  0
 21 23  1  0
 21 24  1  0
 20 25  2  0
 16  6  1  0
 25 17  1  0
 13  8  1  0
  1 26  1  0
  1 27  1  0
  1 28  1  0
  2 29  1  1
  5 30  1  0
  7 31  1  0
  7 32  1  0
  9 33  1  0
 10 34  1  0
 11 35  1  0
 12 36  1  0
 13 37  1  0
 14 38  1  0
 14 39  1  0
 15 40  1  0
 15 41  1  0
 16 42  1  0
 16 43  1  0
 18 44  1  0
 19 45  1  0
M  END
>  <meeko>  (5) 
{"is_sidechain": [false], "free_energy": -8.035, "intermolecular_energy": -11.205, "internal_energy": -0.705}

$$$$
