MODEL 1
REMARK VINA RESULT:   -11.106      0.000      0.000
REMARK INTER + INTRA:         -13.160
REMARK INTER:                 -12.404
REMARK INTRA:                  -0.755
REMARK UNBOUND:                -0.755
REMARK SMILES CN1C(=O)c2cccc3c(S(=O)(=O)N4Cc5ccccc5-c5ccccc5C4)ccc1c23
REMARK SMILES IDX 1 1 2 2 3 3 4 4 5 5 6 6 7 7 8 8 9 9 10 10 29 11 30 12 31 13
REMARK SMILES IDX 32 14 11 15 12 16 13 17 14 18 15 19 28 20 16 21 27 22 17 23
REMARK SMILES IDX 21 24 26 25 22 26 18 27 20 28 25 29 23 30 19 31 24 32
REMARK H PARENT
ROOT
ATOM      1  C   UNL     1       0.935  47.190  59.091  1.00  0.00     0.153 C 
ATOM      2  N   UNL     1       0.122  46.800  57.945  1.00  0.00    -0.311 N 
ATOM      3  C   UNL     1      -1.296  46.572  57.958  1.00  0.00     0.258 C 
ATOM      4  O   UNL     1      -2.078  46.999  58.847  1.00  0.00    -0.269 OA
ATOM      5  C   UNL     1      -1.668  45.731  56.824  1.00  0.00     0.050 A 
ATOM      6  C   UNL     1      -2.870  45.182  56.383  1.00  0.00     0.014 A 
ATOM      7  C   UNL     1      -2.826  44.327  55.257  1.00  0.00     0.002 A 
ATOM      8  C   UNL     1      -1.596  44.033  54.613  1.00  0.00     0.010 A 
ATOM      9  C   UNL     1      -0.391  44.606  55.088  1.00  0.00     0.005 A 
ATOM     10  C   UNL     1       0.914  44.377  54.574  1.00  0.00     0.090 A 
ATOM     11  C   UNL     1       2.031  44.954  55.245  1.00  0.00     0.024 A 
ATOM     12  C   UNL     1       1.862  45.787  56.373  1.00  0.00     0.028 A 
ATOM     13  C   UNL     1       0.564  46.031  56.819  1.00  0.00     0.052 A 
ATOM     14  C   UNL     1      -0.497  45.445  56.188  1.00  0.00     0.020 A 
ENDROOT
BRANCH  10  15
ATOM     15  S   UNL     1       1.195  43.368  53.146  1.00  0.00     0.244 S 
ATOM     16  O   UNL     1       0.156  43.658  52.096  1.00  0.00    -0.207 OA
ATOM     17  O   UNL     1       1.098  41.925  53.559  1.00  0.00    -0.207 OA
BRANCH  15  18
ATOM     18  N   UNL     1       2.781  43.697  52.480  1.00  0.00    -0.189 NA
ATOM     19  C   UNL     1       2.755  44.911  51.651  1.00  0.00     0.139 C 
ATOM     20  C   UNL     1       3.249  42.526  51.728  1.00  0.00     0.139 C 
ATOM     21  C   UNL     1       3.994  45.665  51.990  1.00  0.00    -0.025 A 
ATOM     22  C   UNL     1       4.562  42.693  50.966  1.00  0.00    -0.025 A 
ATOM     23  C   UNL     1       3.887  46.909  52.640  1.00  0.00     0.006 A 
ATOM     24  C   UNL     1       5.258  45.051  51.840  1.00  0.00    -0.014 A 
ATOM     25  C   UNL     1       4.893  41.593  50.148  1.00  0.00     0.006 A 
ATOM     26  C   UNL     1       5.457  43.814  51.011  1.00  0.00    -0.014 A 
ATOM     27  C   UNL     1       5.017  47.534  53.162  1.00  0.00     0.000 A 
ATOM     28  C   UNL     1       6.381  45.684  52.420  1.00  0.00     0.009 A 
ATOM     29  C   UNL     1       6.045  41.587  49.367  1.00  0.00     0.000 A 
ATOM     30  C   UNL     1       6.601  43.785  50.179  1.00  0.00     0.009 A 
ATOM     31  C   UNL     1       6.260  46.914  53.069  1.00  0.00     0.001 A 
ATOM     32  C   UNL     1       6.892  42.686  49.374  1.00  0.00     0.001 A 
ENDBRANCH  15  18
ENDBRANCH  10  15
TORSDOF 2
ENDMDL
MODEL 2
REMARK VINA RESULT:   -11.077      2.496      3.913
REMARK INTER + INTRA:         -13.127
REMARK INTER:                 -13.350
REMARK INTRA:                   0.222
REMARK UNBOUND:                -0.755
REMARK SMILES CN1C(=O)c2cccc3c(S(=O)(=O)N4Cc5ccccc5-c5ccccc5C4)ccc1c23
REMARK SMILES IDX 1 1 2 2 3 3 4 4 5 5 6 6 7 7 8 8 9 9 10 10 29 11 30 12 31 13
REMARK SMILES IDX 32 14 11 15 12 16 13 17 14 18 15 19 28 20 16 21 27 22 17 23
REMARK SMILES IDX 21 24 26 25 22 26 18 27 20 28 25 29 23 30 19 31 24 32
REMARK H PARENT
ROOT
ATOM      1  C   UNL     1      -1.957  44.525  50.914  1.00  0.00     0.153 C 
ATOM      2  N   UNL     1      -1.280  44.307  52.188  1.00  0.00    -0.311 N 
ATOM      3  C   UNL     1      -1.908  44.286  53.480  1.00  0.00     0.258 C 
ATOM      4  O   UNL     1      -3.140  44.110  53.671  1.00  0.00    -0.269 OA
ATOM      5  C   UNL     1      -0.911  44.555  54.513  1.00  0.00     0.050 A 
ATOM      6  C   UNL     1      -0.969  44.688  55.898  1.00  0.00     0.014 A 
ATOM      7  C   UNL     1       0.222  45.040  56.574  1.00  0.00     0.002 A 
ATOM      8  C   UNL     1       1.427  45.263  55.857  1.00  0.00     0.010 A 
ATOM      9  C   UNL     1       1.451  45.122  54.448  1.00  0.00     0.005 A 
ATOM     10  C   UNL     1       2.566  45.348  53.595  1.00  0.00     0.090 A 
ATOM     11  C   UNL     1       2.384  45.263  52.184  1.00  0.00     0.024 A 
ATOM     12  C   UNL     1       1.136  44.911  51.623  1.00  0.00     0.028 A 
ATOM     13  C   UNL     1       0.078  44.647  52.492  1.00  0.00     0.052 A 
ATOM     14  C   UNL     1       0.257  44.763  53.842  1.00  0.00     0.020 A 
ENDROOT
BRANCH  10  15
ATOM     15  S   UNL     1       4.165  45.764  54.233  1.00  0.00     0.244 S 
ATOM     16  O   UNL     1       4.469  44.930  55.449  1.00  0.00    -0.207 OA
ATOM     17  O   UNL     1       4.159  47.218  54.614  1.00  0.00    -0.207 OA
BRANCH  15  18
ATOM     18  N   UNL     1       5.392  45.465  53.020  1.00  0.00    -0.189 NA
ATOM     19  C   UNL     1       5.582  46.650  52.169  1.00  0.00     0.139 C 
ATOM     20  C   UNL     1       5.029  44.278  52.236  1.00  0.00     0.139 C 
ATOM     21  C   UNL     1       7.054  46.791  51.986  1.00  0.00    -0.025 A 
ATOM     22  C   UNL     1       5.925  43.954  51.044  1.00  0.00    -0.025 A 
ATOM     23  C   UNL     1       7.714  47.904  52.539  1.00  0.00     0.006 A 
ATOM     24  C   UNL     1       7.802  45.725  51.437  1.00  0.00    -0.014 A 
ATOM     25  C   UNL     1       5.454  42.894  50.243  1.00  0.00     0.006 A 
ATOM     26  C   UNL     1       7.158  44.596  50.683  1.00  0.00    -0.014 A 
ATOM     27  C   UNL     1       9.106  47.956  52.575  1.00  0.00     0.000 A 
ATOM     28  C   UNL     1       9.211  45.781  51.528  1.00  0.00     0.009 A 
ATOM     29  C   UNL     1       6.138  42.482  49.104  1.00  0.00     0.000 A 
ATOM     30  C   UNL     1       7.808  44.170  49.500  1.00  0.00     0.009 A 
ATOM     31  C   UNL     1       9.854  46.888  52.087  1.00  0.00     0.001 A 
ATOM     32  C   UNL     1       7.307  43.126  48.727  1.00  0.00     0.001 A 
ENDBRANCH  15  18
ENDBRANCH  10  15
TORSDOF 2
ENDMDL
MODEL 3
REMARK VINA RESULT:   -10.939      2.786      8.632
REMARK INTER + INTRA:         -12.974
REMARK INTER:                 -12.308
REMARK INTRA:                  -0.666
REMARK UNBOUND:                -0.755
REMARK SMILES CN1C(=O)c2cccc3c(S(=O)(=O)N4Cc5ccccc5-c5ccccc5C4)ccc1c23
REMARK SMILES IDX 1 1 2 2 3 3 4 4 5 5 6 6 7 7 8 8 9 9 10 10 29 11 30 12 31 13
REMARK SMILES IDX 32 14 11 15 12 16 13 17 14 18 15 19 28 20 16 21 27 22 17 23
REMARK SMILES IDX 21 24 26 25 22 26 18 27 20 28 25 29 23 30 19 31 24 32
REMARK H PARENT
ROOT
ATOM      1  C   UNL     1       6.449  41.697  48.945  1.00  0.00     0.153 C 
ATOM      2  N   UNL     1       6.490  43.056  49.475  1.00  0.00    -0.311 N 
ATOM      3  C   UNL     1       7.617  43.945  49.424  1.00  0.00     0.258 C 
ATOM      4  O   UNL     1       8.589  43.818  48.634  1.00  0.00    -0.269 OA
ATOM      5  C   UNL     1       7.482  44.967  50.458  1.00  0.00     0.050 A 
ATOM      6  C   UNL     1       8.280  46.030  50.874  1.00  0.00     0.014 A 
ATOM      7  C   UNL     1       7.848  46.775  51.994  1.00  0.00     0.002 A 
ATOM      8  C   UNL     1       6.648  46.438  52.674  1.00  0.00     0.010 A 
ATOM      9  C   UNL     1       5.860  45.350  52.227  1.00  0.00     0.005 A 
ATOM     10  C   UNL     1       4.662  44.872  52.824  1.00  0.00     0.090 A 
ATOM     11  C   UNL     1       4.054  43.693  52.303  1.00  0.00     0.024 A 
ATOM     12  C   UNL     1       4.588  43.025  51.180  1.00  0.00     0.028 A 
ATOM     13  C   UNL     1       5.735  43.551  50.588  1.00  0.00     0.052 A 
ATOM     14  C   UNL     1       6.328  44.663  51.116  1.00  0.00     0.020 A 
ENDROOT
BRANCH  10  15
ATOM     15  S   UNL     1       3.922  45.678  54.217  1.00  0.00     0.244 S 
ATOM     16  O   UNL     1       4.054  47.171  54.079  1.00  0.00    -0.207 OA
ATOM     17  O   UNL     1       4.637  45.226  55.460  1.00  0.00    -0.207 OA
BRANCH  15  18
ATOM     18  N   UNL     1       2.223  45.266  54.317  1.00  0.00    -0.189 NA
ATOM     19  C   UNL     1       1.463  45.932  53.249  1.00  0.00     0.139 C 
ATOM     20  C   UNL     1       1.713  45.609  55.651  1.00  0.00     0.139 C 
ATOM     21  C   UNL     1       0.509  44.912  52.728  1.00  0.00    -0.025 A 
ATOM     22  C   UNL     1       0.212  45.440  55.865  1.00  0.00    -0.025 A 
ATOM     23  C   UNL     1       0.661  44.435  51.412  1.00  0.00     0.006 A 
ATOM     24  C   UNL     1      -0.408  44.290  53.605  1.00  0.00    -0.014 A 
ATOM     25  C   UNL     1      -0.247  45.916  57.110  1.00  0.00     0.006 A 
ATOM     26  C   UNL     1      -0.736  44.856  54.958  1.00  0.00    -0.014 A 
ATOM     27  C   UNL     1      -0.070  43.335  50.970  1.00  0.00     0.000 A 
ATOM     28  C   UNL     1      -1.101  43.147  53.146  1.00  0.00     0.009 A 
ATOM     29  C   UNL     1      -1.593  45.859  57.461  1.00  0.00     0.000 A 
ATOM     30  C   UNL     1      -2.099  44.845  55.337  1.00  0.00     0.009 A 
ATOM     31  C   UNL     1      -0.936  42.680  51.841  1.00  0.00     0.001 A 
ATOM     32  C   UNL     1      -2.518  45.335  56.571  1.00  0.00     0.001 A 
ENDBRANCH  15  18
ENDBRANCH  10  15
TORSDOF 2
ENDMDL
MODEL 4
REMARK VINA RESULT:   -10.654      3.318      8.653
REMARK INTER + INTRA:         -12.655
REMARK INTER:                 -12.445
REMARK INTRA:                  -0.210
REMARK UNBOUND:                -0.755
REMARK SMILES CN1C(=O)c2cccc3c(S(=O)(=O)N4Cc5ccccc5-c5ccccc5C4)ccc1c23
REMARK SMILES IDX 1 1 2 2 3 3 4 4 5 5 6 6 7 7 8 8 9 9 10 10 29 11 30 12 31 13
REMARK SMILES IDX 32 14 11 15 12 16 13 17 14 18 15 19 28 20 16 21 27 22 17 23
REMARK SMILES IDX 21 24 26 25 22 26 18 27 20 28 25 29 23 30 19 31 24 32
REMARK H PARENT
ROOT
ATOM      1  C   UNL     1       8.300  43.796  48.969  1.00  0.00     0.153 C 
ATOM      2  N   UNL     1       8.347  44.889  49.933  1.00  0.00    -0.311 N 
ATOM      3  C   UNL     1       9.488  45.270  50.719  1.00  0.00     0.258 C 
ATOM      4  O   UNL     1      10.676  44.954  50.448  1.00  0.00    -0.269 OA
ATOM      5  C   UNL     1       9.048  46.022  51.891  1.00  0.00     0.050 A 
ATOM      6  C   UNL     1       9.709  46.584  52.980  1.00  0.00     0.014 A 
ATOM      7  C   UNL     1       8.919  47.181  53.989  1.00  0.00     0.002 A 
ATOM      8  C   UNL     1       7.502  47.190  53.895  1.00  0.00     0.010 A 
ATOM      9  C   UNL     1       6.861  46.607  52.775  1.00  0.00     0.005 A 
ATOM     10  C   UNL     1       5.459  46.506  52.562  1.00  0.00     0.090 A 
ATOM     11  C   UNL     1       4.985  45.788  51.426  1.00  0.00     0.024 A 
ATOM     12  C   UNL     1       5.876  45.223  50.487  1.00  0.00     0.028 A 
ATOM     13  C   UNL     1       7.243  45.385  50.702  1.00  0.00     0.052 A 
ATOM     14  C   UNL     1       7.687  46.047  51.812  1.00  0.00     0.020 A 
ENDROOT
BRANCH  10  15
ATOM     15  S   UNL     1       4.287  47.216  53.683  1.00  0.00     0.244 S 
ATOM     16  O   UNL     1       3.787  48.529  53.143  1.00  0.00    -0.207 OA
ATOM     17  O   UNL     1       4.971  47.446  55.002  1.00  0.00    -0.207 OA
BRANCH  15  18
ATOM     18  N   UNL     1       2.926  46.135  53.893  1.00  0.00    -0.189 NA
ATOM     19  C   UNL     1       1.894  46.394  52.877  1.00  0.00     0.139 C 
ATOM     20  C   UNL     1       2.399  46.268  55.257  1.00  0.00     0.139 C 
ATOM     21  C   UNL     1       1.426  45.056  52.418  1.00  0.00    -0.025 A 
ATOM     22  C   UNL     1       1.122  45.492  55.568  1.00  0.00    -0.025 A 
ATOM     23  C   UNL     1       1.684  44.652  51.094  1.00  0.00     0.006 A 
ATOM     24  C   UNL     1       0.908  44.131  53.352  1.00  0.00    -0.014 A 
ATOM     25  C   UNL     1       0.581  45.765  56.841  1.00  0.00     0.006 A 
ATOM     26  C   UNL     1       0.454  44.543  54.724  1.00  0.00    -0.014 A 
ATOM     27  C   UNL     1       1.457  43.336  50.699  1.00  0.00     0.000 A 
ATOM     28  C   UNL     1       0.730  42.791  52.938  1.00  0.00     0.009 A 
ATOM     29  C   UNL     1      -0.593  45.161  57.278  1.00  0.00     0.000 A 
ATOM     30  C   UNL     1      -0.755  43.973  55.190  1.00  0.00     0.009 A 
ATOM     31  C   UNL     1       0.998  42.402  51.624  1.00  0.00     0.001 A 
ATOM     32  C   UNL     1      -1.266  44.275  56.450  1.00  0.00     0.001 A 
ENDBRANCH  15  18
ENDBRANCH  10  15
TORSDOF 2
ENDMDL
MODEL 5
REMARK VINA RESULT:   -10.327      2.800      8.263
REMARK INTER + INTRA:         -12.290
REMARK INTER:                 -12.500
REMARK INTRA:                   0.210
REMARK UNBOUND:                -0.755
REMARK SMILES CN1C(=O)c2cccc3c(S(=O)(=O)N4Cc5ccccc5-c5ccccc5C4)ccc1c23
REMARK SMILES IDX 1 1 2 2 3 3 4 4 5 5 6 6 7 7 8 8 9 9 10 10 29 11 30 12 31 13
REMARK SMILES IDX 32 14 11 15 12 16 13 17 14 18 15 19 28 20 16 21 27 22 17 23
REMARK SMILES IDX 21 24 26 25 22 26 18 27 20 28 25 29 23 30 19 31 24 32
REMARK H PARENT
ROOT
ATOM      1  C   UNL     1       6.451  41.563  49.386  1.00  0.00     0.153 C 
ATOM      2  N   UNL     1       6.478  42.993  49.677  1.00  0.00    -0.311 N 
ATOM      3  C   UNL     1       7.648  43.826  49.695  1.00  0.00     0.258 C 
ATOM      4  O   UNL     1       8.739  43.533  49.140  1.00  0.00    -0.269 OA
ATOM      5  C   UNL     1       7.388  45.020  50.495  1.00  0.00     0.050 A 
ATOM      6  C   UNL     1       8.160  46.116  50.871  1.00  0.00     0.014 A 
ATOM      7  C   UNL     1       7.575  47.061  51.745  1.00  0.00     0.002 A 
ATOM      8  C   UNL     1       6.252  46.884  52.228  1.00  0.00     0.010 A 
ATOM      9  C   UNL     1       5.494  45.756  51.828  1.00  0.00     0.005 A 
ATOM     10  C   UNL     1       4.179  45.427  52.256  1.00  0.00     0.090 A 
ATOM     11  C   UNL     1       3.606  44.192  51.834  1.00  0.00     0.024 A 
ATOM     12  C   UNL     1       4.296  43.320  50.964  1.00  0.00     0.028 A 
ATOM     13  C   UNL     1       5.563  43.699  50.524  1.00  0.00     0.052 A 
ATOM     14  C   UNL     1       6.115  44.870  50.961  1.00  0.00     0.020 A 
ENDROOT
BRANCH  10  15
ATOM     15  S   UNL     1       3.247  46.488  53.323  1.00  0.00     0.244 S 
ATOM     16  O   UNL     1       3.110  47.853  52.703  1.00  0.00    -0.207 OA
ATOM     17  O   UNL     1       3.978  46.606  54.632  1.00  0.00    -0.207 OA
BRANCH  15  18
ATOM     18  N   UNL     1       1.649  45.823  53.586  1.00  0.00    -0.189 NA
ATOM     19  C   UNL     1       1.694  44.734  54.573  1.00  0.00     0.139 C 
ATOM     20  C   UNL     1       1.085  45.380  52.305  1.00  0.00     0.139 C 
ATOM     21  C   UNL     1       0.513  44.935  55.459  1.00  0.00    -0.025 A 
ATOM     22  C   UNL     1      -0.254  44.649  52.371  1.00  0.00    -0.025 A 
ATOM     23  C   UNL     1       0.714  45.274  56.810  1.00  0.00     0.006 A 
ATOM     24  C   UNL     1      -0.787  44.978  54.905  1.00  0.00    -0.014 A 
ATOM     25  C   UNL     1      -0.681  44.121  51.135  1.00  0.00     0.006 A 
ATOM     26  C   UNL     1      -1.088  44.466  53.525  1.00  0.00    -0.014 A 
ATOM     27  C   UNL     1      -0.356  45.679  57.606  1.00  0.00     0.000 A 
ATOM     28  C   UNL     1      -1.846  45.436  55.720  1.00  0.00     0.009 A 
ATOM     29  C   UNL     1      -1.869  43.406  51.020  1.00  0.00     0.000 A 
ATOM     30  C   UNL     1      -2.273  43.706  53.375  1.00  0.00     0.009 A 
ATOM     31  C   UNL     1      -1.631  45.778  57.056  1.00  0.00     0.001 A 
ATOM     32  C   UNL     1      -2.658  43.189  52.140  1.00  0.00     0.001 A 
ENDBRANCH  15  18
ENDBRANCH  10  15
TORSDOF 2
ENDMDL
