ligand_65_conformer_1_docked
     RDKit          3D

 34 37  0  0  0  0  0  0  0  0999 V2000
    4.3420   45.2810   55.3470 C   0  0  0  0  0  0  0  0  0  0  0  0
    3.3760   46.3350   54.7960 C   0  0  1  0  0  0  0  0  0  0  0  0
    4.0650   47.2350   53.8640 N   0  0  0  0  0  0  0  0  0  0  0  0
    5.3980   46.9710   53.3990 C   0  0  0  0  0  0  0  0  0  0  0  0
    6.4910   47.3620   54.1270 N   0  0  0  0  0  0  0  0  0  0  0  0
    7.7690   47.1280   53.6960 C   0  0  0  0  0  0  0  0  0  0  0  0
    8.8660   47.5390   54.4570 C   0  0  0  0  0  0  0  0  0  0  0  0
   10.1660   47.2920   53.9970 C   0  0  0  0  0  0  0  0  0  0  0  0
   10.3720   46.6340   52.7780 C   0  0  0  0  0  0  0  0  0  0  0  0
    9.2810   46.2180   52.0050 C   0  0  0  0  0  0  0  0  0  0  0  0
    7.9790   46.4640   52.4620 C   0  0  0  0  0  0  0  0  0  0  0  0
    6.8750   46.0900   51.7670 N   0  0  0  0  0  0  0  0  0  0  0  0
    6.7830   45.4700   50.6070 N   0  0  0  0  0  0  0  0  0  0  0  0
    5.4900   45.3250   50.3310 N   0  0  0  0  0  0  0  0  0  0  0  0
    4.7410   45.8470   51.3010 N   0  0  0  0  0  0  0  0  0  0  0  0
    5.6330   46.3190   52.1890 C   0  0  0  0  0  0  0  0  0  0  0  0
    2.2040   45.6690   54.1190 C   0  0  0  0  0  0  0  0  0  0  0  0
    1.6900   46.1490   52.9040 C   0  0  0  0  0  0  0  0  0  0  0  0
    0.6330   45.5180   52.3280 N   0  0  0  0  0  0  0  0  0  0  0  0
    0.0660   44.4260   52.9040 C   0  0  0  0  0  0  0  0  0  0  0  0
    0.5780   43.9420   54.1090 C   0  0  0  0  0  0  0  0  0  0  0  0
    1.6340   44.5720   54.6860 N   0  0  0  0  0  0  0  0  0  0  0  0
    4.3212   45.3037   56.4466 H   0  0  0  0  0  0  0  0  0  0  0  0
    4.0370   44.2845   54.9950 H   0  0  0  0  0  0  0  0  0  0  0  0
    5.3613   45.4981   54.9950 H   0  0  0  0  0  0  0  0  0  0  0  0
    3.0005   46.9350   55.6380 H   0  0  0  0  0  0  0  0  0  0  0  0
    3.5780   48.0950   53.5250 H   0  0  0  0  0  0  0  0  0  0  0  0
    8.7094   48.0555   55.4155 H   0  0  0  0  0  0  0  0  0  0  0  0
   11.0294   47.6165   54.5964 H   0  0  0  0  0  0  0  0  0  0  0  0
   11.3964   46.4429   52.4258 H   0  0  0  0  0  0  0  0  0  0  0  0
    9.4444   45.7025   51.0471 H   0  0  0  0  0  0  0  0  0  0  0  0
    2.1395   47.0295   52.4216 H   0  0  0  0  0  0  0  0  0  0  0  0
   -0.7894   43.9274   52.4248 H   0  0  0  0  0  0  0  0  0  0  0  0
    0.1303   43.0583   54.5871 H   0  0  0  0  0  0  0  0  0  0  0  0
  1  2  1  0
  2  3  1  0
  3  4  1  0
  4  5  2  0
  5  6  1  0
  6  7  2  0
  7  8  1  0
  8  9  2  0
  9 10  1  0
 10 11  2  0
 11 12  1  0
 12 13  1  0
 13 14  2  0
 14 15  1  0
 15 16  2  0
  2 17  1  0
 17 18  2  0
 18 19  1  0
 19 20  2  0
 20 21  1  0
 21 22  2  0
 16  4  1  0
 22 17  1  0
 11  6  1  0
 16 12  1  0
  1 23  1  0
  1 24  1  0
  1 25  1  0
  2 26  1  1
  3 27  1  0
  7 28  1  0
  8 29  1  0
  9 30  1  0
 10 31  1  0
 18 32  1  0
 20 33  1  0
 21 34  1  0
M  END
>  <meeko>  (1) 
{"is_sidechain": [false], "free_energy": -8.842, "intermolecular_energy": -10.393, "internal_energy": -0.322}

$$$$
ligand_65_conformer_1_docked
     RDKit          3D

 34 37  0  0  0  0  0  0  0  0999 V2000
    5.0250   45.4760   55.0200 C   0  0  0  0  0  0  0  0  0  0  0  0
    3.9900   46.4750   54.4960 C   0  0  1  0  0  0  0  0  0  0  0  0
    4.4860   47.1540   53.2930 N   0  0  0  0  0  0  0  0  0  0  0  0
    5.4500   46.5450   52.4200 C   0  0  0  0  0  0  0  0  0  0  0  0
    5.1450   45.4140   51.7110 N   0  0  0  0  0  0  0  0  0  0  0  0
    6.0530   44.8140   50.8810 C   0  0  0  0  0  0  0  0  0  0  0  0
    5.7180   43.6580   50.1710 C   0  0  0  0  0  0  0  0  0  0  0  0
    6.6620   43.0570   49.3290 C   0  0  0  0  0  0  0  0  0  0  0  0
    7.9430   43.6110   49.1940 C   0  0  0  0  0  0  0  0  0  0  0  0
    8.2920   44.7670   49.9020 C   0  0  0  0  0  0  0  0  0  0  0  0
    7.3490   45.3700   50.7450 C   0  0  0  0  0  0  0  0  0  0  0  0
    7.6170   46.4920   51.4610 N   0  0  0  0  0  0  0  0  0  0  0  0
    8.7250   47.2030   51.5230 N   0  0  0  0  0  0  0  0  0  0  0  0
    8.5080   48.2110   52.3640 N   0  0  0  0  0  0  0  0  0  0  0  0
    7.2690   48.1590   52.8500 N   0  0  0  0  0  0  0  0  0  0  0  0
    6.7320   47.0740   52.2680 C   0  0  0  0  0  0  0  0  0  0  0  0
    2.6840   45.7770   54.2090 C   0  0  0  0  0  0  0  0  0  0  0  0
    2.1570   44.8190   55.0900 C   0  0  0  0  0  0  0  0  0  0  0  0
    0.9760   44.2150   54.7920 N   0  0  0  0  0  0  0  0  0  0  0  0
    0.2930   44.5240   53.6590 C   0  0  0  0  0  0  0  0  0  0  0  0
    0.8110   45.4800   52.7840 C   0  0  0  0  0  0  0  0  0  0  0  0
    1.9920   46.0840   53.0800 N   0  0  0  0  0  0  0  0  0  0  0  0
    5.0175   45.4833   56.1200 H   0  0  0  0  0  0  0  0  0  0  0  0
    4.7768   44.4673   54.6583 H   0  0  0  0  0  0  0  0  0  0  0  0
    6.0243   45.7597   54.6583 H   0  0  0  0  0  0  0  0  0  0  0  0
    3.8176   47.2345   55.2729 H   0  0  0  0  0  0  0  0  0  0  0  0
    4.1310   48.1100   53.0590 H   0  0  0  0  0  0  0  0  0  0  0  0
    4.7139   43.2205   50.2733 H   0  0  0  0  0  0  0  0  0  0  0  0
    6.3974   42.1466   48.7712 H   0  0  0  0  0  0  0  0  0  0  0  0
    8.6776   43.1346   48.5281 H   0  0  0  0  0  0  0  0  0  0  0  0
    9.2984   45.1986   49.7975 H   0  0  0  0  0  0  0  0  0  0  0  0
    2.6952   44.5594   56.0136 H   0  0  0  0  0  0  0  0  0  0  0  0
   -0.6607   44.0247   53.4330 H   0  0  0  0  0  0  0  0  0  0  0  0
    0.2686   45.7421   51.8636 H   0  0  0  0  0  0  0  0  0  0  0  0
  1  2  1  0
  2  3  1  0
  3  4  1  0
  4  5  2  0
  5  6  1  0
  6  7  2  0
  7  8  1  0
  8  9  2  0
  9 10  1  0
 10 11  2  0
 11 12  1  0
 12 13  1  0
 13 14  2  0
 14 15  1  0
 15 16  2  0
  2 17  1  0
 17 18  2  0
 18 19  1  0
 19 20  2  0
 20 21  1  0
 21 22  2  0
 16  4  1  0
 22 17  1  0
 11  6  1  0
 16 12  1  0
  1 23  1  0
  1 24  1  0
  1 25  1  0
  2 26  1  1
  3 27  1  0
  7 28  1  0
  8 29  1  0
  9 30  1  0
 10 31  1  0
 18 32  1  0
 20 33  1  0
 21 34  1  0
M  END
>  <meeko>  (2) 
{"is_sidechain": [false], "free_energy": -8.705, "intermolecular_energy": -10.191, "internal_energy": -0.364}

$$$$
ligand_65_conformer_1_docked
     RDKit          3D

 34 37  0  0  0  0  0  0  0  0999 V2000
    4.2250   42.5970   50.8770 C   0  0  0  0  0  0  0  0  0  0  0  0
    3.7100   43.8270   51.6310 C   0  0  1  0  0  0  0  0  0  0  0  0
    4.3600   45.0470   51.1420 N   0  0  0  0  0  0  0  0  0  0  0  0
    5.4540   45.6590   51.8440 C   0  0  0  0  0  0  0  0  0  0  0  0
    6.7400   45.5420   51.3890 N   0  0  0  0  0  0  0  0  0  0  0  0
    7.7960   46.1100   52.0490 C   0  0  0  0  0  0  0  0  0  0  0  0
    9.1000   45.9730   51.5650 C   0  0  0  0  0  0  0  0  0  0  0  0
   10.1670   46.5590   52.2560 C   0  0  0  0  0  0  0  0  0  0  0  0
    9.9340   47.2850   53.4330 C   0  0  0  0  0  0  0  0  0  0  0  0
    8.6330   47.4280   53.9290 C   0  0  0  0  0  0  0  0  0  0  0  0
    7.5630   46.8420   53.2400 C   0  0  0  0  0  0  0  0  0  0  0  0
    6.2770   46.9390   53.6620 N   0  0  0  0  0  0  0  0  0  0  0  0
    5.7850   47.5490   54.7220 N   0  0  0  0  0  0  0  0  0  0  0  0
    4.4680   47.3640   54.7170 N   0  0  0  0  0  0  0  0  0  0  0  0
    4.0990   46.6380   53.6630 N   0  0  0  0  0  0  0  0  0  0  0  0
    5.2510   46.3860   53.0180 C   0  0  0  0  0  0  0  0  0  0  0  0
    2.2110   43.9350   51.4970 C   0  0  0  0  0  0  0  0  0  0  0  0
    1.4710   42.9920   50.7650 C   0  0  0  0  0  0  0  0  0  0  0  0
    0.1220   43.1280   50.6700 N   0  0  0  0  0  0  0  0  0  0  0  0
   -0.5260   44.1570   51.2750 C   0  0  0  0  0  0  0  0  0  0  0  0
    0.2060   45.0930   52.0070 C   0  0  0  0  0  0  0  0  0  0  0  0
    1.5540   44.9600   52.1030 N   0  0  0  0  0  0  0  0  0  0  0  0
    4.5454   41.8317   51.5993 H   0  0  0  0  0  0  0  0  0  0  0  0
    3.4212   42.1911   50.2451 H   0  0  0  0  0  0  0  0  0  0  0  0
    5.0782   42.8849   50.2451 H   0  0  0  0  0  0  0  0  0  0  0  0
    3.9592   43.7098   52.6960 H   0  0  0  0  0  0  0  0  0  0  0  0
    4.0230   45.4900   50.2570 H   0  0  0  0  0  0  0  0  0  0  0  0
    9.2876   45.4051   50.6418 H   0  0  0  0  0  0  0  0  0  0  0  0
   11.1928   46.4496   51.8741 H   0  0  0  0  0  0  0  0  0  0  0  0
   10.7777   47.7443   53.9689 H   0  0  0  0  0  0  0  0  0  0  0  0
    8.4519   47.9964   54.8532 H   0  0  0  0  0  0  0  0  0  0  0  0
    1.9793   42.1500   50.2724 H   0  0  0  0  0  0  0  0  0  0  0  0
   -1.6185   44.2518   51.1888 H   0  0  0  0  0  0  0  0  0  0  0  0
   -0.3050   45.9318   52.5023 H   0  0  0  0  0  0  0  0  0  0  0  0
  1  2  1  0
  2  3  1  0
  3  4  1  0
  4  5  2  0
  5  6  1  0
  6  7  2  0
  7  8  1  0
  8  9  2  0
  9 10  1  0
 10 11  2  0
 11 12  1  0
 12 13  1  0
 13 14  2  0
 14 15  1  0
 15 16  2  0
  2 17  1  0
 17 18  2  0
 18 19  1  0
 19 20  2  0
 20 21  1  0
 21 22  2  0
 16  4  1  0
 22 17  1  0
 11  6  1  0
 16 12  1  0
  1 23  1  0
  1 24  1  0
  1 25  1  0
  2 26  1  1
  3 27  1  0
  7 28  1  0
  8 29  1  0
  9 30  1  0
 10 31  1  0
 18 32  1  0
 20 33  1  0
 21 34  1  0
M  END
>  <meeko>  (3) 
{"is_sidechain": [false], "free_energy": -8.682, "intermolecular_energy": -10.081, "internal_energy": -0.446}

$$$$
ligand_65_conformer_1_docked
     RDKit          3D

 34 37  0  0  0  0  0  0  0  0999 V2000
    3.8990   42.0220   51.0660 C   0  0  0  0  0  0  0  0  0  0  0  0
    4.1090   43.3700   51.7630 C   0  0  1  0  0  0  0  0  0  0  0  0
    4.7710   44.3220   50.8640 N   0  0  0  0  0  0  0  0  0  0  0  0
    6.0890   44.8260   51.1300 C   0  0  0  0  0  0  0  0  0  0  0  0
    6.3220   45.6770   52.1780 N   0  0  0  0  0  0  0  0  0  0  0  0
    7.5690   46.1750   52.4420 C   0  0  0  0  0  0  0  0  0  0  0  0
    7.7790   47.0440   53.5160 C   0  0  0  0  0  0  0  0  0  0  0  0
    9.0630   47.5450   53.7680 C   0  0  0  0  0  0  0  0  0  0  0  0
   10.1390   47.1790   52.9480 C   0  0  0  0  0  0  0  0  0  0  0  0
    9.9410   46.3100   51.8680 C   0  0  0  0  0  0  0  0  0  0  0  0
    8.6580   45.8070   51.6140 C   0  0  0  0  0  0  0  0  0  0  0  0
    8.3930   44.9620   50.5850 N   0  0  0  0  0  0  0  0  0  0  0  0
    9.2060   44.4690   49.6730 N   0  0  0  0  0  0  0  0  0  0  0  0
    8.4840   43.6900   48.8710 N   0  0  0  0  0  0  0  0  0  0  0  0
    7.2090   43.6750   49.2540 N   0  0  0  0  0  0  0  0  0  0  0  0
    7.1780   44.4790   50.3310 C   0  0  0  0  0  0  0  0  0  0  0  0
    2.7890   43.9240   52.2410 C   0  0  0  0  0  0  0  0  0  0  0  0
    1.9310   43.1700   53.0570 C   0  0  0  0  0  0  0  0  0  0  0  0
    0.7520   43.7090   53.4660 N   0  0  0  0  0  0  0  0  0  0  0  0
    0.3900   44.9670   53.1040 C   0  0  0  0  0  0  0  0  0  0  0  0
    1.2430   45.7210   52.2970 C   0  0  0  0  0  0  0  0  0  0  0  0
    2.4220   45.1840   51.8870 N   0  0  0  0  0  0  0  0  0  0  0  0
    3.7761   41.2332   51.8227 H   0  0  0  0  0  0  0  0  0  0  0  0
    2.9976   42.0707   50.4374 H   0  0  0  0  0  0  0  0  0  0  0  0
    4.7725   41.7942   50.4374 H   0  0  0  0  0  0  0  0  0  0  0  0
    4.7601   43.2120   52.6354 H   0  0  0  0  0  0  0  0  0  0  0  0
    4.2750   44.6470   50.0030 H   0  0  0  0  0  0  0  0  0  0  0  0
    6.9377   47.3342   54.1625 H   0  0  0  0  0  0  0  0  0  0  0  0
    9.2273   48.2290   54.6137 H   0  0  0  0  0  0  0  0  0  0  0  0
   11.1439   47.5763   53.1538 H   0  0  0  0  0  0  0  0  0  0  0  0
   10.7859   46.0245   51.2241 H   0  0  0  0  0  0  0  0  0  0  0  0
    2.2105   42.1511   53.3630 H   0  0  0  0  0  0  0  0  0  0  0  0
   -0.5676   45.3880   53.4441 H   0  0  0  0  0  0  0  0  0  0  0  0
    0.9634   46.7412   51.9954 H   0  0  0  0  0  0  0  0  0  0  0  0
  1  2  1  0
  2  3  1  0
  3  4  1  0
  4  5  2  0
  5  6  1  0
  6  7  2  0
  7  8  1  0
  8  9  2  0
  9 10  1  0
 10 11  2  0
 11 12  1  0
 12 13  1  0
 13 14  2  0
 14 15  1  0
 15 16  2  0
  2 17  1  0
 17 18  2  0
 18 19  1  0
 19 20  2  0
 20 21  1  0
 21 22  2  0
 16  4  1  0
 22 17  1  0
 11  6  1  0
 16 12  1  0
  1 23  1  0
  1 24  1  0
  1 25  1  0
  2 26  1  1
  3 27  1  0
  7 28  1  0
  8 29  1  0
  9 30  1  0
 10 31  1  0
 18 32  1  0
 20 33  1  0
 21 34  1  0
M  END
>  <meeko>  (4) 
{"is_sidechain": [false], "free_energy": -8.493, "intermolecular_energy": -9.829, "internal_energy": -0.476}

$$$$
ligand_65_conformer_1_docked
     RDKit          3D

 34 37  0  0  0  0  0  0  0  0999 V2000
    0.6310   45.2200   55.9240 C   0  0  0  0  0  0  0  0  0  0  0  0
    1.3020   45.0980   54.5520 C   0  0  1  0  0  0  0  0  0  0  0  0
    2.6250   44.4770   54.6750 N   0  0  0  0  0  0  0  0  0  0  0  0
    3.7040   44.8060   53.7860 C   0  0  0  0  0  0  0  0  0  0  0  0
    4.0480   43.9740   52.7530 N   0  0  0  0  0  0  0  0  0  0  0  0
    5.0790   44.2660   51.9010 C   0  0  0  0  0  0  0  0  0  0  0  0
    5.4110   43.3990   50.8570 C   0  0  0  0  0  0  0  0  0  0  0  0
    6.4710   43.7150   49.9980 C   0  0  0  0  0  0  0  0  0  0  0  0
    7.2000   44.8970   50.1790 C   0  0  0  0  0  0  0  0  0  0  0  0
    6.8790   45.7730   51.2230 C   0  0  0  0  0  0  0  0  0  0  0  0
    5.8190   45.4600   52.0840 C   0  0  0  0  0  0  0  0  0  0  0  0
    5.4520   46.2620   53.1160 N   0  0  0  0  0  0  0  0  0  0  0  0
    5.9630   47.4120   53.5090 N   0  0  0  0  0  0  0  0  0  0  0  0
    5.2700   47.8170   54.5700 N   0  0  0  0  0  0  0  0  0  0  0  0
    4.3130   46.9390   54.8700 N   0  0  0  0  0  0  0  0  0  0  0  0
    4.4480   45.9750   53.9430 C   0  0  0  0  0  0  0  0  0  0  0  0
    0.4300   44.3060   53.6100 C   0  0  0  0  0  0  0  0  0  0  0  0
    0.1310   42.9550   53.8500 C   0  0  0  0  0  0  0  0  0  0  0  0
   -0.6600   42.2790   52.9750 N   0  0  0  0  0  0  0  0  0  0  0  0
   -1.1710   42.8880   51.8730 C   0  0  0  0  0  0  0  0  0  0  0  0
   -0.8800   44.2320   51.6340 C   0  0  0  0  0  0  0  0  0  0  0  0
   -0.0890   44.9090   52.5070 N   0  0  0  0  0  0  0  0  0  0  0  0
    1.3841   45.0831   56.7140 H   0  0  0  0  0  0  0  0  0  0  0  0
    0.1742   46.2159   56.0215 H   0  0  0  0  0  0  0  0  0  0  0  0
   -0.1471   44.4486   56.0215 H   0  0  0  0  0  0  0  0  0  0  0  0
    1.4347   46.1089   54.1392 H   0  0  0  0  0  0  0  0  0  0  0  0
    2.7950   43.7730   55.4290 H   0  0  0  0  0  0  0  0  0  0  0  0
    4.8409   42.4698   50.7100 H   0  0  0  0  0  0  0  0  0  0  0  0
    6.7323   43.0313   49.1769 H   0  0  0  0  0  0  0  0  0  0  0  0
    8.0290   45.1384   49.4975 H   0  0  0  0  0  0  0  0  0  0  0  0
    7.4544   46.6995   51.3661 H   0  0  0  0  0  0  0  0  0  0  0  0
    0.5337   42.4477   54.7391 H   0  0  0  0  0  0  0  0  0  0  0  0
   -1.8089   42.3263   51.1748 H   0  0  0  0  0  0  0  0  0  0  0  0
   -1.2874   44.7387   50.7467 H   0  0  0  0  0  0  0  0  0  0  0  0
  1  2  1  0
  2  3  1  0
  3  4  1  0
  4  5  2  0
  5  6  1  0
  6  7  2  0
  7  8  1  0
  8  9  2  0
  9 10  1  0
 10 11  2  0
 11 12  1  0
 12 13  1  0
 13 14  2  0
 14 15  1  0
 15 16  2  0
  2 17  1  0
 17 18  2  0
 18 19  1  0
 19 20  2  0
 20 21  1  0
 21 22  2  0
 16  4  1  0
 22 17  1  0
 11  6  1  0
 16 12  1  0
  1 23  1  0
  1 24  1  0
  1 25  1  0
  2 26  1  6
  3 27  1  0
  7 28  1  0
  8 29  1  0
  9 30  1  0
 10 31  1  0
 18 32  1  0
 20 33  1  0
 21 34  1  0
M  END
>  <meeko>  (5) 
{"is_sidechain": [false], "free_energy": -8.421, "intermolecular_energy": -9.707, "internal_energy": -0.512}

$$$$
