ligand_91_conformer_3_docked
     RDKit          3D

 38 40  0  0  0  0  0  0  0  0999 V2000
    4.6590   48.1140   54.6050 O   0  0  0  0  0  0  0  0  0  0  0  0
    5.3310   47.0480   54.5390 C   0  0  0  0  0  0  0  0  0  0  0  0
    4.8340   45.8550   55.1670 N   0  0  0  0  0  0  0  0  0  0  0  0
    3.4390   45.7100   55.5850 C   0  0  0  0  0  0  0  0  0  0  0  0
    2.6170   44.9580   54.5280 C   0  0  0  0  0  0  0  0  0  0  0  0
    3.1310   45.1610   53.1280 C   0  0  0  0  0  0  0  0  0  0  0  0
    2.5590   46.0770   52.2500 C   0  0  0  0  0  0  0  0  0  0  0  0
    3.4750   46.0760   50.8400 S   0  0  0  0  0  0  0  0  0  0  0  0
    4.5650   44.9200   51.4020 C   0  0  0  0  0  0  0  0  0  0  0  0
    5.7290   44.3900   50.6570 C   0  0  0  0  0  0  0  0  0  0  0  0
    6.8520   45.2070   50.4280 C   0  0  0  0  0  0  0  0  0  0  0  0
    7.9500   44.7180   49.7150 C   0  0  0  0  0  0  0  0  0  0  0  0
    7.9430   43.4100   49.2260 C   0  0  0  0  0  0  0  0  0  0  0  0
    6.8370   42.5870   49.4520 C   0  0  0  0  0  0  0  0  0  0  0  0
    5.7350   43.0720   50.1640 C   0  0  0  0  0  0  0  0  0  0  0  0
    4.2460   44.5350   52.6570 N   0  0  0  0  0  0  0  0  0  0  0  0
    6.6290   47.0470   53.8260 C   0  0  0  0  0  0  0  0  0  0  0  0
    7.6190   46.1050   54.1590 C   0  0  0  0  0  0  0  0  0  0  0  0
    8.8490   46.1040   53.4940 C   0  0  0  0  0  0  0  0  0  0  0  0
    9.1070   47.0480   52.4950 C   0  0  0  0  0  0  0  0  0  0  0  0
   10.3020   47.0450   51.8540 F   0  0  0  0  0  0  0  0  0  0  0  0
    8.1350   47.9970   52.1640 C   0  0  0  0  0  0  0  0  0  0  0  0
    8.3880   48.9220   51.2070 F   0  0  0  0  0  0  0  0  0  0  0  0
    6.9040   48.0000   52.8280 C   0  0  0  0  0  0  0  0  0  0  0  0
    5.4960   45.0770   55.3870 H   0  0  0  0  0  0  0  0  0  0  0  0
    3.4045   45.1502   56.5312 H   0  0  0  0  0  0  0  0  0  0  0  0
    3.0076   46.7139   55.7119 H   0  0  0  0  0  0  0  0  0  0  0  0
    2.6475   43.8832   54.7600 H   0  0  0  0  0  0  0  0  0  0  0  0
    1.5926   45.3573   54.5631 H   0  0  0  0  0  0  0  0  0  0  0  0
    1.6675   46.6915   52.4438 H   0  0  0  0  0  0  0  0  0  0  0  0
    6.8655   46.2374   50.8128 H   0  0  0  0  0  0  0  0  0  0  0  0
    8.8219   45.3650   49.5386 H   0  0  0  0  0  0  0  0  0  0  0  0
    8.8076   43.0280   48.6633 H   0  0  0  0  0  0  0  0  0  0  0  0
    6.8327   41.5557   49.0693 H   0  0  0  0  0  0  0  0  0  0  0  0
    4.8675   42.4189   50.3397 H   0  0  0  0  0  0  0  0  0  0  0  0
    7.4242   45.3638   54.9482 H   0  0  0  0  0  0  0  0  0  0  0  0
    9.6149   45.3595   53.7570 H   0  0  0  0  0  0  0  0  0  0  0  0
    6.1453   48.7529   52.5681 H   0  0  0  0  0  0  0  0  0  0  0  0
  1  2  2  0
  2  3  1  0
  3  4  1  0
  4  5  1  0
  5  6  1  0
  6  7  2  0
  7  8  1  0
  8  9  1  0
  9 10  1  0
 10 11  2  0
 11 12  1  0
 12 13  2  0
 13 14  1  0
 14 15  2  0
  9 16  2  0
  2 17  1  0
 17 18  2  0
 18 19  1  0
 19 20  2  0
 20 21  1  0
 20 22  1  0
 22 23  1  0
 22 24  2  0
 16  6  1  0
 24 17  1  0
 15 10  1  0
  3 25  1  0
  4 26  1  0
  4 27  1  0
  5 28  1  0
  5 29  1  0
  7 30  1  0
 11 31  1  0
 12 32  1  0
 13 33  1  0
 14 34  1  0
 15 35  1  0
 18 36  1  0
 19 37  1  0
 24 38  1  0
M  END
>  <meeko>  (1) 
{"is_sidechain": [false], "free_energy": -9.265, "intermolecular_energy": -11.974, "internal_energy": -1.567}

$$$$
ligand_91_conformer_3_docked
     RDKit          3D

 38 40  0  0  0  0  0  0  0  0999 V2000
    4.6850   48.2740   54.5810 O   0  0  0  0  0  0  0  0  0  0  0  0
    5.2590   47.1600   54.4420 C   0  0  0  0  0  0  0  0  0  0  0  0
    4.6440   45.9730   54.9680 N   0  0  0  0  0  0  0  0  0  0  0  0
    3.2340   45.9240   55.3550 C   0  0  0  0  0  0  0  0  0  0  0  0
    2.3200   45.8760   54.1210 C   0  0  0  0  0  0  0  0  0  0  0  0
    2.6160   44.7120   53.2140 C   0  0  0  0  0  0  0  0  0  0  0  0
    1.6700   43.7330   52.9250 C   0  0  0  0  0  0  0  0  0  0  0  0
    2.3490   42.6770   51.8060 S   0  0  0  0  0  0  0  0  0  0  0  0
    3.8130   43.5090   51.7250 C   0  0  0  0  0  0  0  0  0  0  0  0
    4.9730   43.1440   50.8820 C   0  0  0  0  0  0  0  0  0  0  0  0
    5.8890   44.1330   50.4760 C   0  0  0  0  0  0  0  0  0  0  0  0
    6.9810   43.7990   49.6700 C   0  0  0  0  0  0  0  0  0  0  0  0
    7.1740   42.4770   49.2630 C   0  0  0  0  0  0  0  0  0  0  0  0
    6.2750   41.4850   49.6640 C   0  0  0  0  0  0  0  0  0  0  0  0
    5.1810   41.8140   50.4700 C   0  0  0  0  0  0  0  0  0  0  0  0
    3.7930   44.5890   52.5380 N   0  0  0  0  0  0  0  0  0  0  0  0
    6.5660   47.0940   53.7480 C   0  0  0  0  0  0  0  0  0  0  0  0
    6.6220   47.0840   52.3430 C   0  0  0  0  0  0  0  0  0  0  0  0
    7.8530   47.0140   51.6830 C   0  0  0  0  0  0  0  0  0  0  0  0
    9.0400   46.9450   52.4180 C   0  0  0  0  0  0  0  0  0  0  0  0
   10.2310   46.8750   51.7740 F   0  0  0  0  0  0  0  0  0  0  0  0
    8.9960   46.9410   53.8150 C   0  0  0  0  0  0  0  0  0  0  0  0
   10.1450   46.8590   54.5300 F   0  0  0  0  0  0  0  0  0  0  0  0
    7.7660   47.0110   54.4780 C   0  0  0  0  0  0  0  0  0  0  0  0
    5.2290   45.1230   55.1360 H   0  0  0  0  0  0  0  0  0  0  0  0
    3.0605   45.0253   55.9651 H   0  0  0  0  0  0  0  0  0  0  0  0
    2.9984   46.8332   55.9276 H   0  0  0  0  0  0  0  0  0  0  0  0
    1.2766   45.7991   54.4606 H   0  0  0  0  0  0  0  0  0  0  0  0
    2.4978   46.7957   53.5443 H   0  0  0  0  0  0  0  0  0  0  0  0
    0.6588   43.6625   53.3522 H   0  0  0  0  0  0  0  0  0  0  0  0
    5.7443   45.1757   50.7953 H   0  0  0  0  0  0  0  0  0  0  0  0
    7.6899   44.5791   49.3555 H   0  0  0  0  0  0  0  0  0  0  0  0
    8.0331   42.2168   48.6272 H   0  0  0  0  0  0  0  0  0  0  0  0
    6.4284   40.4435   49.3449 H   0  0  0  0  0  0  0  0  0  0  0  0
    4.4781   41.0284   50.7843 H   0  0  0  0  0  0  0  0  0  0  0  0
    5.6911   47.1316   51.7589 H   0  0  0  0  0  0  0  0  0  0  0  0
    7.8872   47.0132   50.5835 H   0  0  0  0  0  0  0  0  0  0  0  0
    7.7369   47.0011   55.5776 H   0  0  0  0  0  0  0  0  0  0  0  0
  1  2  2  0
  2  3  1  0
  3  4  1  0
  4  5  1  0
  5  6  1  0
  6  7  2  0
  7  8  1  0
  8  9  1  0
  9 10  1  0
 10 11  2  0
 11 12  1  0
 12 13  2  0
 13 14  1  0
 14 15  2  0
  9 16  2  0
  2 17  1  0
 17 18  2  0
 18 19  1  0
 19 20  2  0
 20 21  1  0
 20 22  1  0
 22 23  1  0
 22 24  2  0
 16  6  1  0
 24 17  1  0
 15 10  1  0
  3 25  1  0
  4 26  1  0
  4 27  1  0
  5 28  1  0
  5 29  1  0
  7 30  1  0
 11 31  1  0
 12 32  1  0
 13 33  1  0
 14 34  1  0
 15 35  1  0
 18 36  1  0
 19 37  1  0
 24 38  1  0
M  END
>  <meeko>  (2) 
{"is_sidechain": [false], "free_energy": -9.226, "intermolecular_energy": -12.203, "internal_energy": -1.286}

$$$$
ligand_91_conformer_3_docked
     RDKit          3D

 38 40  0  0  0  0  0  0  0  0999 V2000
    3.3050   42.5600   52.3410 O   0  0  0  0  0  0  0  0  0  0  0  0
    3.6170   43.5440   51.6160 C   0  0  0  0  0  0  0  0  0  0  0  0
    2.7320   44.6720   51.5310 N   0  0  0  0  0  0  0  0  0  0  0  0
    1.6560   44.9010   52.4970 C   0  0  0  0  0  0  0  0  0  0  0  0
    2.0000   46.0550   53.4500 C   0  0  0  0  0  0  0  0  0  0  0  0
    3.4000   45.9700   53.9980 C   0  0  0  0  0  0  0  0  0  0  0  0
    3.6990   45.2920   55.1760 C   0  0  0  0  0  0  0  0  0  0  0  0
    5.3660   45.3410   55.3870 S   0  0  0  0  0  0  0  0  0  0  0  0
    5.6430   46.2120   53.9720 C   0  0  0  0  0  0  0  0  0  0  0  0
    6.9650   46.6440   53.4630 C   0  0  0  0  0  0  0  0  0  0  0  0
    7.0510   47.6820   52.5160 C   0  0  0  0  0  0  0  0  0  0  0  0
    8.2940   48.0880   52.0220 C   0  0  0  0  0  0  0  0  0  0  0  0
    9.4630   47.4670   52.4680 C   0  0  0  0  0  0  0  0  0  0  0  0
    9.3900   46.4400   53.4110 C   0  0  0  0  0  0  0  0  0  0  0  0
    8.1500   46.0290   53.9090 C   0  0  0  0  0  0  0  0  0  0  0  0
    4.4800   46.4640   53.3320 N   0  0  0  0  0  0  0  0  0  0  0  0
    4.8860   43.5150   50.8520 C   0  0  0  0  0  0  0  0  0  0  0  0
    5.3280   42.3200   50.2580 C   0  0  0  0  0  0  0  0  0  0  0  0
    6.5290   42.2860   49.5430 C   0  0  0  0  0  0  0  0  0  0  0  0
    7.3060   43.4420   49.4200 C   0  0  0  0  0  0  0  0  0  0  0  0
    8.4700   43.4040   48.7280 F   0  0  0  0  0  0  0  0  0  0  0  0
    6.8830   44.6330   50.0180 C   0  0  0  0  0  0  0  0  0  0  0  0
    7.6410   45.7520   49.9140 F   0  0  0  0  0  0  0  0  0  0  0  0
    5.6810   44.6700   50.7340 C   0  0  0  0  0  0  0  0  0  0  0  0
    2.8160   45.3310   50.7250 H   0  0  0  0  0  0  0  0  0  0  0  0
    0.7324   45.1483   51.9531 H   0  0  0  0  0  0  0  0  0  0  0  0
    1.5228   43.9859   53.0927 H   0  0  0  0  0  0  0  0  0  0  0  0
    1.8948   47.0038   52.9035 H   0  0  0  0  0  0  0  0  0  0  0  0
    1.3089   45.9931   54.3036 H   0  0  0  0  0  0  0  0  0  0  0  0
    2.9742   44.8102   55.8487 H   0  0  0  0  0  0  0  0  0  0  0  0
    6.1343   48.1767   52.1625 H   0  0  0  0  0  0  0  0  0  0  0  0
    8.3517   48.8983   51.2804 H   0  0  0  0  0  0  0  0  0  0  0  0
   10.4401   47.7868   52.0767 H   0  0  0  0  0  0  0  0  0  0  0  0
   10.3111   45.9527   53.7633 H   0  0  0  0  0  0  0  0  0  0  0  0
    8.1001   45.2207   54.6534 H   0  0  0  0  0  0  0  0  0  0  0  0
    4.7248   41.4054   50.3564 H   0  0  0  0  0  0  0  0  0  0  0  0
    6.8634   41.3478   49.0762 H   0  0  0  0  0  0  0  0  0  0  0  0
    5.3557   45.6080   51.2075 H   0  0  0  0  0  0  0  0  0  0  0  0
  1  2  2  0
  2  3  1  0
  3  4  1  0
  4  5  1  0
  5  6  1  0
  6  7  2  0
  7  8  1  0
  8  9  1  0
  9 10  1  0
 10 11  2  0
 11 12  1  0
 12 13  2  0
 13 14  1  0
 14 15  2  0
  9 16  2  0
  2 17  1  0
 17 18  2  0
 18 19  1  0
 19 20  2  0
 20 21  1  0
 20 22  1  0
 22 23  1  0
 22 24  2  0
 16  6  1  0
 24 17  1  0
 15 10  1  0
  3 25  1  0
  4 26  1  0
  4 27  1  0
  5 28  1  0
  5 29  1  0
  7 30  1  0
 11 31  1  0
 12 32  1  0
 13 33  1  0
 14 34  1  0
 15 35  1  0
 18 36  1  0
 19 37  1  0
 24 38  1  0
M  END
>  <meeko>  (3) 
{"is_sidechain": [false], "free_energy": -9.158, "intermolecular_energy": -11.77, "internal_energy": -1.633}

$$$$
ligand_91_conformer_3_docked
     RDKit          3D

 38 40  0  0  0  0  0  0  0  0999 V2000
    9.1110   43.9140   48.9160 O   0  0  0  0  0  0  0  0  0  0  0  0
    8.1980   44.3490   49.6690 C   0  0  0  0  0  0  0  0  0  0  0  0
    6.8550   43.8620   49.5110 N   0  0  0  0  0  0  0  0  0  0  0  0
    6.5440   42.6440   48.7620 C   0  0  0  0  0  0  0  0  0  0  0  0
    5.7930   41.6290   49.6360 C   0  0  0  0  0  0  0  0  0  0  0  0
    4.8690   42.2770   50.6310 C   0  0  0  0  0  0  0  0  0  0  0  0
    3.6560   41.7060   51.0020 C   0  0  0  0  0  0  0  0  0  0  0  0
    2.9760   42.6750   52.1970 S   0  0  0  0  0  0  0  0  0  0  0  0
    4.2520   43.7760   52.2020 C   0  0  0  0  0  0  0  0  0  0  0  0
    4.3620   44.9740   53.0640 C   0  0  0  0  0  0  0  0  0  0  0  0
    5.1350   44.9300   54.2390 C   0  0  0  0  0  0  0  0  0  0  0  0
    5.2340   46.0530   55.0650 C   0  0  0  0  0  0  0  0  0  0  0  0
    4.5670   47.2320   54.7270 C   0  0  0  0  0  0  0  0  0  0  0  0
    3.8000   47.2910   53.5610 C   0  0  0  0  0  0  0  0  0  0  0  0
    3.6970   46.1690   52.7320 C   0  0  0  0  0  0  0  0  0  0  0  0
    5.1980   43.4130   51.3070 N   0  0  0  0  0  0  0  0  0  0  0  0
    8.5210   45.3650   50.6970 C   0  0  0  0  0  0  0  0  0  0  0  0
    9.8320   45.4770   51.1950 C   0  0  0  0  0  0  0  0  0  0  0  0
   10.1400   46.4290   52.1710 C   0  0  0  0  0  0  0  0  0  0  0  0
    9.1430   47.2740   52.6670 C   0  0  0  0  0  0  0  0  0  0  0  0
    9.4460   48.1940   53.6150 F   0  0  0  0  0  0  0  0  0  0  0  0
    7.8340   47.1630   52.1900 C   0  0  0  0  0  0  0  0  0  0  0  0
    6.8620   47.9700   52.6800 F   0  0  0  0  0  0  0  0  0  0  0  0
    7.5220   46.2120   51.2130 C   0  0  0  0  0  0  0  0  0  0  0  0
    6.0590   44.4180   49.8960 H   0  0  0  0  0  0  0  0  0  0  0  0
    5.9169   42.9054   47.8969 H   0  0  0  0  0  0  0  0  0  0  0  0
    7.4892   42.1873   48.4332 H   0  0  0  0  0  0  0  0  0  0  0  0
    5.1990   40.9748   48.9810 H   0  0  0  0  0  0  0  0  0  0  0  0
    6.5466   41.0660   50.2063 H   0  0  0  0  0  0  0  0  0  0  0  0
    3.2194   40.7852   50.5878 H   0  0  0  0  0  0  0  0  0  0  0  0
    5.6652   44.0049   54.5094 H   0  0  0  0  0  0  0  0  0  0  0  0
    5.8384   46.0079   55.9829 H   0  0  0  0  0  0  0  0  0  0  0  0
    4.6455   48.1145   55.3789 H   0  0  0  0  0  0  0  0  0  0  0  0
    3.2764   48.2209   53.2944 H   0  0  0  0  0  0  0  0  0  0  0  0
    3.0923   46.2211   51.8146 H   0  0  0  0  0  0  0  0  0  0  0  0
   10.6200   44.8109   50.8137 H   0  0  0  0  0  0  0  0  0  0  0  0
   11.1693   46.5135   52.5497 H   0  0  0  0  0  0  0  0  0  0  0  0
    6.4889   46.1253   50.8453 H   0  0  0  0  0  0  0  0  0  0  0  0
  1  2  2  0
  2  3  1  0
  3  4  1  0
  4  5  1  0
  5  6  1  0
  6  7  2  0
  7  8  1  0
  8  9  1  0
  9 10  1  0
 10 11  2  0
 11 12  1  0
 12 13  2  0
 13 14  1  0
 14 15  2  0
  9 16  2  0
  2 17  1  0
 17 18  2  0
 18 19  1  0
 19 20  2  0
 20 21  1  0
 20 22  1  0
 22 23  1  0
 22 24  2  0
 16  6  1  0
 24 17  1  0
 15 10  1  0
  3 25  1  0
  4 26  1  0
  4 27  1  0
  5 28  1  0
  5 29  1  0
  7 30  1  0
 11 31  1  0
 12 32  1  0
 13 33  1  0
 14 34  1  0
 15 35  1  0
 18 36  1  0
 19 37  1  0
 24 38  1  0
M  END
>  <meeko>  (4) 
{"is_sidechain": [false], "free_energy": -8.723, "intermolecular_energy": -11.742, "internal_energy": -1.097}

$$$$
ligand_91_conformer_3_docked
     RDKit          3D

 38 40  0  0  0  0  0  0  0  0999 V2000
    5.2100   47.2920   52.2460 O   0  0  0  0  0  0  0  0  0  0  0  0
    6.0630   47.0210   53.1340 C   0  0  0  0  0  0  0  0  0  0  0  0
    5.6640   46.9770   54.5140 N   0  0  0  0  0  0  0  0  0  0  0  0
    4.2620   46.8900   54.9230 C   0  0  0  0  0  0  0  0  0  0  0  0
    3.8690   45.4450   55.2620 C   0  0  0  0  0  0  0  0  0  0  0  0
    3.4930   44.6360   54.0500 C   0  0  0  0  0  0  0  0  0  0  0  0
    2.1680   44.3990   53.6940 C   0  0  0  0  0  0  0  0  0  0  0  0
    2.1710   43.5540   52.2410 S   0  0  0  0  0  0  0  0  0  0  0  0
    3.8510   43.5310   52.1140 C   0  0  0  0  0  0  0  0  0  0  0  0
    4.6300   42.9230   51.0130 C   0  0  0  0  0  0  0  0  0  0  0  0
    5.7510   43.5940   50.4880 C   0  0  0  0  0  0  0  0  0  0  0  0
    6.4850   43.0330   49.4390 C   0  0  0  0  0  0  0  0  0  0  0  0
    6.1140   41.7970   48.9060 C   0  0  0  0  0  0  0  0  0  0  0  0
    5.0070   41.1190   49.4220 C   0  0  0  0  0  0  0  0  0  0  0  0
    4.2690   41.6760   50.4700 C   0  0  0  0  0  0  0  0  0  0  0  0
    4.4160   44.1650   53.1650 N   0  0  0  0  0  0  0  0  0  0  0  0
    7.4690   46.7640   52.7420 C   0  0  0  0  0  0  0  0  0  0  0  0
    8.5240   47.3550   53.4590 C   0  0  0  0  0  0  0  0  0  0  0  0
    9.8510   47.1220   53.0890 C   0  0  0  0  0  0  0  0  0  0  0  0
   10.1400   46.3030   51.9930 C   0  0  0  0  0  0  0  0  0  0  0  0
   11.4290   46.0810   51.6360 F   0  0  0  0  0  0  0  0  0  0  0  0
    9.0990   45.7210   51.2640 C   0  0  0  0  0  0  0  0  0  0  0  0
    9.3760   44.9390   50.1920 F   0  0  0  0  0  0  0  0  0  0  0  0
    7.7700   45.9520   51.6330 C   0  0  0  0  0  0  0  0  0  0  0  0
    6.3890   47.0630   55.2610 H   0  0  0  0  0  0  0  0  0  0  0  0
    4.1078   47.5210   55.8107 H   0  0  0  0  0  0  0  0  0  0  0  0
    3.6344   47.2339   54.0876 H   0  0  0  0  0  0  0  0  0  0  0  0
    4.7213   44.9574   55.7578 H   0  0  0  0  0  0  0  0  0  0  0  0
    2.9842   45.4899   55.9140 H   0  0  0  0  0  0  0  0  0  0  0  0
    1.2785   44.7092   54.2619 H   0  0  0  0  0  0  0  0  0  0  0  0
    6.0511   44.5662   50.9061 H   0  0  0  0  0  0  0  0  0  0  0  0
    7.3569   43.5665   49.0325 H   0  0  0  0  0  0  0  0  0  0  0  0
    6.6930   41.3575   48.0804 H   0  0  0  0  0  0  0  0  0  0  0  0
    4.7156   40.1447   49.0026 H   0  0  0  0  0  0  0  0  0  0  0  0
    3.3998   41.1358   50.8733 H   0  0  0  0  0  0  0  0  0  0  0  0
    8.3031   48.0058   54.3178 H   0  0  0  0  0  0  0  0  0  0  0  0
   10.6696   47.5835   53.6607 H   0  0  0  0  0  0  0  0  0  0  0  0
    6.9546   45.4959   51.0524 H   0  0  0  0  0  0  0  0  0  0  0  0
  1  2  2  0
  2  3  1  0
  3  4  1  0
  4  5  1  0
  5  6  1  0
  6  7  2  0
  7  8  1  0
  8  9  1  0
  9 10  1  0
 10 11  2  0
 11 12  1  0
 12 13  2  0
 13 14  1  0
 14 15  2  0
  9 16  2  0
  2 17  1  0
 17 18  2  0
 18 19  1  0
 19 20  2  0
 20 21  1  0
 20 22  1  0
 22 23  1  0
 22 24  2  0
 16  6  1  0
 24 17  1  0
 15 10  1  0
  3 25  1  0
  4 26  1  0
  4 27  1  0
  5 28  1  0
  5 29  1  0
  7 30  1  0
 11 31  1  0
 12 32  1  0
 13 33  1  0
 14 34  1  0
 15 35  1  0
 18 36  1  0
 19 37  1  0
 24 38  1  0
M  END
>  <meeko>  (5) 
{"is_sidechain": [false], "free_energy": -8.668, "intermolecular_energy": -11.696, "internal_energy": -1.072}

$$$$
