ligand_13_conformer_3_docked
     RDKit          3D

 40 42  0  0  0  0  0  0  0  0999 V2000
    4.6910   47.7430   53.6910 O   0  0  0  0  0  0  0  0  0  0  0  0
    4.5200   46.4940   53.6420 C   0  0  0  0  0  0  0  0  0  0  0  0
    5.6590   45.6240   53.5270 N   0  0  0  0  0  0  0  0  0  0  0  0
    6.9350   46.0440   53.0120 C   0  0  0  0  0  0  0  0  0  0  0  0
    7.1150   46.1510   51.6250 C   0  0  0  0  0  0  0  0  0  0  0  0
    8.3390   46.5740   51.1030 C   0  0  0  0  0  0  0  0  0  0  0  0
    9.3900   46.9080   51.9610 C   0  0  0  0  0  0  0  0  0  0  0  0
    9.2250   46.8310   53.3490 C   0  0  0  0  0  0  0  0  0  0  0  0
   10.3090   47.1900   54.1660 O   0  0  0  0  0  0  0  0  0  0  0  0
   10.2150   47.4930   55.5550 C   0  0  0  0  0  0  0  0  0  0  0  0
    9.5390   48.6860   55.7330 F   0  0  0  0  0  0  0  0  0  0  0  0
   11.4880   47.6160   56.0780 F   0  0  0  0  0  0  0  0  0  0  0  0
    7.9890   46.4030   53.8730 C   0  0  0  0  0  0  0  0  0  0  0  0
    3.1480   45.9400   53.7530 C   0  0  0  0  0  0  0  0  0  0  0  0
    2.7750   45.1470   54.8520 C   0  0  0  0  0  0  0  0  0  0  0  0
    1.4800   44.6250   54.9420 C   0  0  0  0  0  0  0  0  0  0  0  0
    0.5430   44.8650   53.9300 C   0  0  0  0  0  0  0  0  0  0  0  0
   -0.7880   44.3360   54.0590 N   0  0  0  0  0  0  0  0  0  0  0  0
   -1.5650   44.3900   55.2640 C   0  0  0  0  0  0  0  0  0  0  0  0
   -2.0680   43.2530   55.8210 N   0  0  0  0  0  0  0  0  0  0  0  0
   -2.7790   43.2950   56.9780 C   0  0  0  0  0  0  0  0  0  0  0  0
   -2.9940   44.5140   57.6180 C   0  0  0  0  0  0  0  0  0  0  0  0
   -2.4620   45.6680   57.0430 C   0  0  0  0  0  0  0  0  0  0  0  0
   -1.7570   45.5850   55.8860 N   0  0  0  0  0  0  0  0  0  0  0  0
    0.9070   45.6700   52.8370 C   0  0  0  0  0  0  0  0  0  0  0  0
    2.2000   46.1940   52.7450 C   0  0  0  0  0  0  0  0  0  0  0  0
    5.5910   44.6690   53.9450 H   0  0  0  0  0  0  0  0  0  0  0  0
    6.2875   45.9003   50.9450 H   0  0  0  0  0  0  0  0  0  0  0  0
    8.4762   46.6445   50.0139 H   0  0  0  0  0  0  0  0  0  0  0  0
   10.3539   47.2338   51.5429 H   0  0  0  0  0  0  0  0  0  0  0  0
    9.6704   46.6853   56.0660 H   0  0  0  0  0  0  0  0  0  0  0  0
    7.8468   46.3491   54.9624 H   0  0  0  0  0  0  0  0  0  0  0  0
    3.5059   44.9355   55.6464 H   0  0  0  0  0  0  0  0  0  0  0  0
    1.1956   44.0205   55.8159 H   0  0  0  0  0  0  0  0  0  0  0  0
   -1.2530   43.9600   53.2020 H   0  0  0  0  0  0  0  0  0  0  0  0
   -3.1845   42.3678   57.4091 H   0  0  0  0  0  0  0  0  0  0  0  0
   -3.5694   44.5649   58.5541 H   0  0  0  0  0  0  0  0  0  0  0  0
   -2.6136   46.6443   57.5266 H   0  0  0  0  0  0  0  0  0  0  0  0
    0.1707   45.8890   52.0497 H   0  0  0  0  0  0  0  0  0  0  0  0
    2.4784   46.8100   51.8772 H   0  0  0  0  0  0  0  0  0  0  0  0
  1  2  2  0
  2  3  1  0
  3  4  1  0
  4  5  2  0
  5  6  1  0
  6  7  2  0
  7  8  1  0
  8  9  1  0
  9 10  1  0
 10 11  1  0
 10 12  1  0
  8 13  2  0
  2 14  1  0
 14 15  2  0
 15 16  1  0
 16 17  2  0
 17 18  1  0
 18 19  1  0
 19 20  2  0
 20 21  1  0
 21 22  2  0
 22 23  1  0
 23 24  2  0
 17 25  1  0
 25 26  2  0
 13  4  1  0
 26 14  1  0
 24 19  1  0
  3 27  1  0
  5 28  1  0
  6 29  1  0
  7 30  1  0
 10 31  1  0
 13 32  1  0
 15 33  1  0
 16 34  1  0
 18 35  1  0
 21 36  1  0
 22 37  1  0
 23 38  1  0
 25 39  1  0
 26 40  1  0
M  END
>  <meeko>  (1) 
{"is_sidechain": [false], "free_energy": -8.269, "intermolecular_energy": -11.169, "internal_energy": -0.743}

$$$$
ligand_13_conformer_3_docked
     RDKit          3D

 40 42  0  0  0  0  0  0  0  0999 V2000
    3.7510   43.4190   52.8490 O   0  0  0  0  0  0  0  0  0  0  0  0
    3.3550   44.5870   53.1140 C   0  0  0  0  0  0  0  0  0  0  0  0
    3.9540   45.7100   52.4450 N   0  0  0  0  0  0  0  0  0  0  0  0
    5.2590   45.6750   51.8410 C   0  0  0  0  0  0  0  0  0  0  0  0
    5.4600   44.9100   50.6830 C   0  0  0  0  0  0  0  0  0  0  0  0
    6.7120   44.8750   50.0680 C   0  0  0  0  0  0  0  0  0  0  0  0
    7.7740   45.6150   50.5950 C   0  0  0  0  0  0  0  0  0  0  0  0
    7.5910   46.4040   51.7370 C   0  0  0  0  0  0  0  0  0  0  0  0
    8.6870   47.1370   52.2180 O   0  0  0  0  0  0  0  0  0  0  0  0
    9.8710   46.5650   52.7650 C   0  0  0  0  0  0  0  0  0  0  0  0
   10.3810   47.3890   53.7530 F   0  0  0  0  0  0  0  0  0  0  0  0
   10.8130   46.4310   51.7630 F   0  0  0  0  0  0  0  0  0  0  0  0
    6.3250   46.4360   52.3550 C   0  0  0  0  0  0  0  0  0  0  0  0
    2.2420   44.7800   54.0760 C   0  0  0  0  0  0  0  0  0  0  0  0
    2.4830   45.2660   55.3730 C   0  0  0  0  0  0  0  0  0  0  0  0
    1.4270   45.4380   56.2730 C   0  0  0  0  0  0  0  0  0  0  0  0
    0.1160   45.1070   55.9060 C   0  0  0  0  0  0  0  0  0  0  0  0
   -0.9540   45.3160   56.8440 N   0  0  0  0  0  0  0  0  0  0  0  0
   -1.2770   46.5840   57.4320 C   0  0  0  0  0  0  0  0  0  0  0  0
   -2.2590   47.3670   56.9050 N   0  0  0  0  0  0  0  0  0  0  0  0
   -2.5900   48.5550   57.4750 C   0  0  0  0  0  0  0  0  0  0  0  0
   -1.9270   48.9820   58.6240 C   0  0  0  0  0  0  0  0  0  0  0  0
   -0.9340   48.1640   59.1600 C   0  0  0  0  0  0  0  0  0  0  0  0
   -0.6320   46.9830   58.5610 N   0  0  0  0  0  0  0  0  0  0  0  0
   -0.1310   44.6360   54.6060 C   0  0  0  0  0  0  0  0  0  0  0  0
    0.9230   44.4640   53.7040 C   0  0  0  0  0  0  0  0  0  0  0  0
    3.3660   46.5590   52.2890 H   0  0  0  0  0  0  0  0  0  0  0  0
    4.6254   44.3339   50.2568 H   0  0  0  0  0  0  0  0  0  0  0  0
    6.8635   44.2635   49.1663 H   0  0  0  0  0  0  0  0  0  0  0  0
    8.7602   45.5773   50.1093 H   0  0  0  0  0  0  0  0  0  0  0  0
    9.6319   45.5819   53.1968 H   0  0  0  0  0  0  0  0  0  0  0  0
    6.1689   47.0611   53.2466 H   0  0  0  0  0  0  0  0  0  0  0  0
    3.5095   45.5126   55.6819 H   0  0  0  0  0  0  0  0  0  0  0  0
    1.6273   45.8368   57.2784 H   0  0  0  0  0  0  0  0  0  0  0  0
   -1.5890   44.5120   57.0510 H   0  0  0  0  0  0  0  0  0  0  0  0
   -3.3797   49.1785   57.0305 H   0  0  0  0  0  0  0  0  0  0  0  0
   -2.1814   49.9421   59.0968 H   0  0  0  0  0  0  0  0  0  0  0  0
   -0.3953   48.4746   60.0674 H   0  0  0  0  0  0  0  0  0  0  0  0
   -1.1599   44.4011   54.2959 H   0  0  0  0  0  0  0  0  0  0  0  0
    0.7190   44.0781   52.6943 H   0  0  0  0  0  0  0  0  0  0  0  0
  1  2  2  0
  2  3  1  0
  3  4  1  0
  4  5  2  0
  5  6  1  0
  6  7  2  0
  7  8  1  0
  8  9  1  0
  9 10  1  0
 10 11  1  0
 10 12  1  0
  8 13  2  0
  2 14  1  0
 14 15  2  0
 15 16  1  0
 16 17  2  0
 17 18  1  0
 18 19  1  0
 19 20  2  0
 20 21  1  0
 21 22  2  0
 22 23  1  0
 23 24  2  0
 17 25  1  0
 25 26  2  0
 13  4  1  0
 26 14  1  0
 24 19  1  0
  3 27  1  0
  5 28  1  0
  6 29  1  0
  7 30  1  0
 10 31  1  0
 13 32  1  0
 15 33  1  0
 16 34  1  0
 18 35  1  0
 21 36  1  0
 22 37  1  0
 23 38  1  0
 25 39  1  0
 26 40  1  0
M  END
>  <meeko>  (2) 
{"is_sidechain": [false], "free_energy": -8.142, "intermolecular_energy": -11.285, "internal_energy": -0.456}

$$$$
ligand_13_conformer_3_docked
     RDKit          3D

 40 42  0  0  0  0  0  0  0  0999 V2000
    4.7920   47.7910   53.9720 O   0  0  0  0  0  0  0  0  0  0  0  0
    4.5980   46.5470   53.8980 C   0  0  0  0  0  0  0  0  0  0  0  0
    5.7140   45.6620   53.7090 N   0  0  0  0  0  0  0  0  0  0  0  0
    6.9730   46.0750   53.1480 C   0  0  0  0  0  0  0  0  0  0  0  0
    7.1370   46.0770   51.7550 C   0  0  0  0  0  0  0  0  0  0  0  0
    8.3440   46.4900   51.1870 C   0  0  0  0  0  0  0  0  0  0  0  0
    9.3930   46.9200   52.0030 C   0  0  0  0  0  0  0  0  0  0  0  0
    9.2430   46.9490   53.3940 C   0  0  0  0  0  0  0  0  0  0  0  0
   10.3250   47.4010   54.1680 O   0  0  0  0  0  0  0  0  0  0  0  0
   10.3130   47.5270   55.5870 C   0  0  0  0  0  0  0  0  0  0  0  0
    9.6070   48.6590   55.9550 F   0  0  0  0  0  0  0  0  0  0  0  0
   11.6120   47.6420   56.0410 F   0  0  0  0  0  0  0  0  0  0  0  0
    8.0250   46.5300   53.9650 C   0  0  0  0  0  0  0  0  0  0  0  0
    3.2220   46.0120   54.0570 C   0  0  0  0  0  0  0  0  0  0  0  0
    2.8090   45.4260   55.2660 C   0  0  0  0  0  0  0  0  0  0  0  0
    1.5130   44.9190   55.4020 C   0  0  0  0  0  0  0  0  0  0  0  0
    0.6130   44.9680   54.3300 C   0  0  0  0  0  0  0  0  0  0  0  0
   -0.7210   44.4610   54.5040 N   0  0  0  0  0  0  0  0  0  0  0  0
   -1.5560   43.9970   53.4340 C   0  0  0  0  0  0  0  0  0  0  0  0
   -1.3160   42.8000   52.8300 N   0  0  0  0  0  0  0  0  0  0  0  0
   -2.1200   42.3420   51.8360 C   0  0  0  0  0  0  0  0  0  0  0  0
   -3.2180   43.0970   51.4270 C   0  0  0  0  0  0  0  0  0  0  0  0
   -3.4600   44.3140   52.0630 C   0  0  0  0  0  0  0  0  0  0  0  0
   -2.6320   44.7380   53.0530 N   0  0  0  0  0  0  0  0  0  0  0  0
    1.0170   45.5670   53.1250 C   0  0  0  0  0  0  0  0  0  0  0  0
    2.3120   46.0740   52.9870 C   0  0  0  0  0  0  0  0  0  0  0  0
    5.6500   44.6970   54.1050 H   0  0  0  0  0  0  0  0  0  0  0  0
    6.3103   45.7515   51.1064 H   0  0  0  0  0  0  0  0  0  0  0  0
    8.4690   46.4767   50.0942 H   0  0  0  0  0  0  0  0  0  0  0  0
   10.3433   47.2379   51.5492 H   0  0  0  0  0  0  0  0  0  0  0  0
    9.8335   46.6393   56.0253 H   0  0  0  0  0  0  0  0  0  0  0  0
    7.8953   46.5587   55.0570 H   0  0  0  0  0  0  0  0  0  0  0  0
    3.5104   45.3658   56.1112 H   0  0  0  0  0  0  0  0  0  0  0  0
    1.1976   44.4779   56.3591 H   0  0  0  0  0  0  0  0  0  0  0  0
   -1.0800   44.3460   55.4800 H   0  0  0  0  0  0  0  0  0  0  0  0
   -1.9051   41.3767   51.3544 H   0  0  0  0  0  0  0  0  0  0  0  0
   -3.8777   42.7413   50.6219 H   0  0  0  0  0  0  0  0  0  0  0  0
   -4.3206   44.9302   51.7634 H   0  0  0  0  0  0  0  0  0  0  0  0
    0.3099   45.6373   52.2853 H   0  0  0  0  0  0  0  0  0  0  0  0
    2.6220   46.5255   52.0330 H   0  0  0  0  0  0  0  0  0  0  0  0
  1  2  2  0
  2  3  1  0
  3  4  1  0
  4  5  2  0
  5  6  1  0
  6  7  2  0
  7  8  1  0
  8  9  1  0
  9 10  1  0
 10 11  1  0
 10 12  1  0
  8 13  2  0
  2 14  1  0
 14 15  2  0
 15 16  1  0
 16 17  2  0
 17 18  1  0
 18 19  1  0
 19 20  2  0
 20 21  1  0
 21 22  2  0
 22 23  1  0
 23 24  2  0
 17 25  1  0
 25 26  2  0
 13  4  1  0
 26 14  1  0
 24 19  1  0
  3 27  1  0
  5 28  1  0
  6 29  1  0
  7 30  1  0
 10 31  1  0
 13 32  1  0
 15 33  1  0
 16 34  1  0
 18 35  1  0
 21 36  1  0
 22 37  1  0
 23 38  1  0
 25 39  1  0
 26 40  1  0
M  END
>  <meeko>  (3) 
{"is_sidechain": [false], "free_energy": -8.05, "intermolecular_energy": -10.881, "internal_energy": -0.736}

$$$$
ligand_13_conformer_3_docked
     RDKit          3D

 40 42  0  0  0  0  0  0  0  0999 V2000
    3.1260   47.1870   52.1190 O   0  0  0  0  0  0  0  0  0  0  0  0
    3.1110   46.0960   52.7520 C   0  0  0  0  0  0  0  0  0  0  0  0
    4.3520   45.4560   53.0960 N   0  0  0  0  0  0  0  0  0  0  0  0
    5.5910   45.6970   52.4070 C   0  0  0  0  0  0  0  0  0  0  0  0
    5.8130   45.0930   51.1600 C   0  0  0  0  0  0  0  0  0  0  0  0
    7.0010   45.3260   50.4640 C   0  0  0  0  0  0  0  0  0  0  0  0
    7.9720   46.1750   50.9990 C   0  0  0  0  0  0  0  0  0  0  0  0
    7.7630   46.8060   52.2310 C   0  0  0  0  0  0  0  0  0  0  0  0
    8.7660   47.6600   52.7180 O   0  0  0  0  0  0  0  0  0  0  0  0
    9.8760   47.2420   53.5070 C   0  0  0  0  0  0  0  0  0  0  0  0
    9.9040   45.8610   53.5900 F   0  0  0  0  0  0  0  0  0  0  0  0
    9.7480   47.7650   54.7790 F   0  0  0  0  0  0  0  0  0  0  0  0
    6.5630   46.5690   52.9310 C   0  0  0  0  0  0  0  0  0  0  0  0
    1.8130   45.5150   53.1760 C   0  0  0  0  0  0  0  0  0  0  0  0
    0.7220   45.4600   52.2900 C   0  0  0  0  0  0  0  0  0  0  0  0
   -0.4990   44.9170   52.7020 C   0  0  0  0  0  0  0  0  0  0  0  0
   -0.6610   44.4390   54.0080 C   0  0  0  0  0  0  0  0  0  0  0  0
   -1.9200   43.8640   54.3990 N   0  0  0  0  0  0  0  0  0  0  0  0
   -2.5050   44.0070   55.7010 C   0  0  0  0  0  0  0  0  0  0  0  0
   -2.7000   42.9230   56.5010 N   0  0  0  0  0  0  0  0  0  0  0  0
   -3.2260   43.0560   57.7470 C   0  0  0  0  0  0  0  0  0  0  0  0
   -3.5650   44.3200   58.2260 C   0  0  0  0  0  0  0  0  0  0  0  0
   -3.3480   45.4230   57.4000 C   0  0  0  0  0  0  0  0  0  0  0  0
   -2.8200   45.2480   56.1610 N   0  0  0  0  0  0  0  0  0  0  0  0
    0.4310   44.4780   54.8920 C   0  0  0  0  0  0  0  0  0  0  0  0
    1.6520   45.0210   54.4820 C   0  0  0  0  0  0  0  0  0  0  0  0
    4.3800   44.8740   53.9630 H   0  0  0  0  0  0  0  0  0  0  0  0
    5.0469   44.4322   50.7283 H   0  0  0  0  0  0  0  0  0  0  0  0
    7.1723   44.8397   49.4923 H   0  0  0  0  0  0  0  0  0  0  0  0
    8.9081   46.3493   50.4483 H   0  0  0  0  0  0  0  0  0  0  0  0
   10.8064   47.5981   53.0405 H   0  0  0  0  0  0  0  0  0  0  0  0
    6.3849   47.0695   53.8942 H   0  0  0  0  0  0  0  0  0  0  0  0
    0.8300   45.8468   51.2659 H   0  0  0  0  0  0  0  0  0  0  0  0
   -1.3393   44.8650   51.9941 H   0  0  0  0  0  0  0  0  0  0  0  0
   -2.4870   43.3780   53.6660 H   0  0  0  0  0  0  0  0  0  0  0  0
   -3.3839   42.1677   58.3762 H   0  0  0  0  0  0  0  0  0  0  0  0
   -3.9935   44.4450   59.2314 H   0  0  0  0  0  0  0  0  0  0  0  0
   -3.6042   46.4333   57.7517 H   0  0  0  0  0  0  0  0  0  0  0  0
    0.3242   44.0792   55.9116 H   0  0  0  0  0  0  0  0  0  0  0  0
    2.4946   45.0621   55.1879 H   0  0  0  0  0  0  0  0  0  0  0  0
  1  2  2  0
  2  3  1  0
  3  4  1  0
  4  5  2  0
  5  6  1  0
  6  7  2  0
  7  8  1  0
  8  9  1  0
  9 10  1  0
 10 11  1  0
 10 12  1  0
  8 13  2  0
  2 14  1  0
 14 15  2  0
 15 16  1  0
 16 17  2  0
 17 18  1  0
 18 19  1  0
 19 20  2  0
 20 21  1  0
 21 22  2  0
 22 23  1  0
 23 24  2  0
 17 25  1  0
 25 26  2  0
 13  4  1  0
 26 14  1  0
 24 19  1  0
  3 27  1  0
  5 28  1  0
  6 29  1  0
  7 30  1  0
 10 31  1  0
 13 32  1  0
 15 33  1  0
 16 34  1  0
 18 35  1  0
 21 36  1  0
 22 37  1  0
 23 38  1  0
 25 39  1  0
 26 40  1  0
M  END
>  <meeko>  (4) 
{"is_sidechain": [false], "free_energy": -7.964, "intermolecular_energy": -10.682, "internal_energy": -0.817}

$$$$
ligand_13_conformer_3_docked
     RDKit          3D

 40 42  0  0  0  0  0  0  0  0999 V2000
    0.3650   45.7410   52.3750 O   0  0  0  0  0  0  0  0  0  0  0  0
    1.3060   45.1400   52.9620 C   0  0  0  0  0  0  0  0  0  0  0  0
    1.0250   44.3350   54.1190 N   0  0  0  0  0  0  0  0  0  0  0  0
   -0.1440   44.5020   54.9420 C   0  0  0  0  0  0  0  0  0  0  0  0
   -1.3270   43.8300   54.5990 C   0  0  0  0  0  0  0  0  0  0  0  0
   -2.4680   43.9620   55.3910 C   0  0  0  0  0  0  0  0  0  0  0  0
   -2.4370   44.7540   56.5410 C   0  0  0  0  0  0  0  0  0  0  0  0
   -1.2610   45.4160   56.9150 C   0  0  0  0  0  0  0  0  0  0  0  0
   -1.2800   46.1890   58.0870 O   0  0  0  0  0  0  0  0  0  0  0  0
   -1.6050   47.5750   58.1410 C   0  0  0  0  0  0  0  0  0  0  0  0
   -1.7900   48.0670   56.8610 F   0  0  0  0  0  0  0  0  0  0  0  0
   -0.5640   48.2600   58.7380 F   0  0  0  0  0  0  0  0  0  0  0  0
   -0.1110   45.2810   56.1130 C   0  0  0  0  0  0  0  0  0  0  0  0
    2.6840   45.2350   52.4190 C   0  0  0  0  0  0  0  0  0  0  0  0
    3.7440   44.5230   53.0070 C   0  0  0  0  0  0  0  0  0  0  0  0
    5.0400   44.6250   52.4910 C   0  0  0  0  0  0  0  0  0  0  0  0
    5.3060   45.4550   51.3940 C   0  0  0  0  0  0  0  0  0  0  0  0
    6.6430   45.5240   50.8690 N   0  0  0  0  0  0  0  0  0  0  0  0
    7.7570   46.1000   51.5670 C   0  0  0  0  0  0  0  0  0  0  0  0
    7.5610   46.9680   52.5980 N   0  0  0  0  0  0  0  0  0  0  0  0
    8.6110   47.4930   53.2820 C   0  0  0  0  0  0  0  0  0  0  0  0
    9.9130   47.1350   52.9360 C   0  0  0  0  0  0  0  0  0  0  0  0
   10.0980   46.2350   51.8880 C   0  0  0  0  0  0  0  0  0  0  0  0
    9.0220   45.7320   51.2290 N   0  0  0  0  0  0  0  0  0  0  0  0
    4.2470   46.1570   50.7940 C   0  0  0  0  0  0  0  0  0  0  0  0
    2.9510   46.0560   51.3090 C   0  0  0  0  0  0  0  0  0  0  0  0
    1.6400   43.5120   54.3070 H   0  0  0  0  0  0  0  0  0  0  0  0
   -1.3550   43.1956   53.7008 H   0  0  0  0  0  0  0  0  0  0  0  0
   -3.3947   43.4408   55.1089 H   0  0  0  0  0  0  0  0  0  0  0  0
   -3.3423   44.8585   57.1570 H   0  0  0  0  0  0  0  0  0  0  0  0
   -2.5305   47.7077   58.7205 H   0  0  0  0  0  0  0  0  0  0  0  0
    0.8203   45.7887   56.4046 H   0  0  0  0  0  0  0  0  0  0  0  0
    3.5527   43.8809   53.8794 H   0  0  0  0  0  0  0  0  0  0  0  0
    5.8570   44.0490   52.9501 H   0  0  0  0  0  0  0  0  0  0  0  0
    6.8370   45.0540   49.9550 H   0  0  0  0  0  0  0  0  0  0  0  0
    8.4341   48.1989   54.1069 H   0  0  0  0  0  0  0  0  0  0  0  0
   10.7744   47.5531   53.4775 H   0  0  0  0  0  0  0  0  0  0  0  0
   11.1141   45.9324   51.5949 H   0  0  0  0  0  0  0  0  0  0  0  0
    4.4385   46.7893   49.9145 H   0  0  0  0  0  0  0  0  0  0  0  0
    2.1330   46.6238   50.8417 H   0  0  0  0  0  0  0  0  0  0  0  0
  1  2  2  0
  2  3  1  0
  3  4  1  0
  4  5  2  0
  5  6  1  0
  6  7  2  0
  7  8  1  0
  8  9  1  0
  9 10  1  0
 10 11  1  0
 10 12  1  0
  8 13  2  0
  2 14  1  0
 14 15  2  0
 15 16  1  0
 16 17  2  0
 17 18  1  0
 18 19  1  0
 19 20  2  0
 20 21  1  0
 21 22  2  0
 22 23  1  0
 23 24  2  0
 17 25  1  0
 25 26  2  0
 13  4  1  0
 26 14  1  0
 24 19  1  0
  3 27  1  0
  5 28  1  0
  6 29  1  0
  7 30  1  0
 10 31  1  0
 13 32  1  0
 15 33  1  0
 16 34  1  0
 18 35  1  0
 21 36  1  0
 22 37  1  0
 23 38  1  0
 25 39  1  0
 26 40  1  0
M  END
>  <meeko>  (5) 
{"is_sidechain": [false], "free_energy": -7.845, "intermolecular_energy": -10.582, "internal_energy": -0.758}

$$$$
