ligand_1_conformer_5_docked
     RDKit          3D

 54 58  0  0  0  0  0  0  0  0999 V2000
    7.5660   44.9130   49.7910 O   0  0  0  0  0  0  0  0  0  0  0  0
    7.0230   45.3190   50.8550 C   0  0  0  0  0  0  0  0  0  0  0  0
    5.6040   44.9990   51.0990 C   0  0  0  0  0  0  0  0  0  0  0  0
    4.5880   45.8120   50.5360 C   0  0  0  0  0  0  0  0  0  0  0  0
    3.2270   45.5280   50.7590 C   0  0  0  0  0  0  0  0  0  0  0  0
    2.9140   44.4020   51.5310 C   0  0  0  0  0  0  0  0  0  0  0  0
    3.8960   43.6030   52.0550 C   0  0  0  0  0  0  0  0  0  0  0  0
    5.2490   43.8630   51.8630 C   0  0  0  0  0  0  0  0  0  0  0  0
    3.3410   42.6150   52.7760 N   0  0  0  0  0  0  0  0  0  0  0  0
    2.0120   42.8420   52.6710 C   0  0  0  0  0  0  0  0  0  0  0  0
    1.1500   42.1270   53.2470 O   0  0  0  0  0  0  0  0  0  0  0  0
    1.7040   43.9250   51.9030 N   0  0  0  0  0  0  0  0  0  0  0  0
    0.3720   44.4920   51.6120 C   0  0  0  0  0  0  0  0  0  0  0  0
   -0.3130   45.0070   52.8870 C   0  0  0  0  0  0  0  0  0  0  0  0
   -1.5140   44.1010   53.1290 C   0  0  0  0  0  0  0  0  0  0  0  0
   -1.8760   43.5220   51.7690 C   0  0  0  0  0  0  0  0  0  0  0  0
   -0.5710   43.4480   50.9860 C   0  0  0  0  0  0  0  0  0  0  0  0
    7.7930   46.0920   51.7970 N   0  0  0  0  0  0  0  0  0  0  0  0
    8.1040   47.4940   51.5920 C   0  0  0  0  0  0  0  0  0  0  0  0
    8.8600   47.9290   52.8400 C   0  0  0  0  0  0  0  0  0  0  0  0
    8.5090   46.9000   53.9150 C   0  0  1  0  0  0  0  0  0  0  0  0
    7.4050   47.3880   54.6850 O   0  0  0  0  0  0  0  0  0  0  0  0
    6.0960   46.8680   54.6520 C   0  0  0  0  0  0  0  0  0  0  0  0
    5.8220   45.7130   55.3960 C   0  0  0  0  0  0  0  0  0  0  0  0
    4.5420   45.1550   55.3920 C   0  0  0  0  0  0  0  0  0  0  0  0
    3.5190   45.7530   54.6500 C   0  0  0  0  0  0  0  0  0  0  0  0
    3.7790   46.9030   53.9030 C   0  0  0  0  0  0  0  0  0  0  0  0
    2.7910   47.4790   53.1730 F   0  0  0  0  0  0  0  0  0  0  0  0
    5.0630   47.4600   53.8970 C   0  0  0  0  0  0  0  0  0  0  0  0
    8.1160   45.6390   53.1420 C   0  0  0  0  0  0  0  0  0  0  0  0
    4.8669   46.6769   49.9162 H   0  0  0  0  0  0  0  0  0  0  0  0
    2.4365   46.1687   50.3411 H   0  0  0  0  0  0  0  0  0  0  0  0
    6.0191   43.2052   52.2922 H   0  0  0  0  0  0  0  0  0  0  0  0
    3.8270   41.8710   53.3220 H   0  0  0  0  0  0  0  0  0  0  0  0
    0.5495   45.3176   50.9071 H   0  0  0  0  0  0  0  0  0  0  0  0
    0.3808   44.9540   53.7390 H   0  0  0  0  0  0  0  0  0  0  0  0
   -0.6225   46.0567   52.7760 H   0  0  0  0  0  0  0  0  0  0  0  0
   -1.2513   43.2957   53.8307 H   0  0  0  0  0  0  0  0  0  0  0  0
   -2.3560   44.6537   53.5713 H   0  0  0  0  0  0  0  0  0  0  0  0
   -2.3107   42.5181   51.8839 H   0  0  0  0  0  0  0  0  0  0  0  0
   -2.6228   44.1423   51.2517 H   0  0  0  0  0  0  0  0  0  0  0  0
   -0.1338   42.4421   51.0695 H   0  0  0  0  0  0  0  0  0  0  0  0
   -0.7355   43.6496   49.9172 H   0  0  0  0  0  0  0  0  0  0  0  0
    8.7319   47.6219   50.6979 H   0  0  0  0  0  0  0  0  0  0  0  0
    7.1962   48.0948   51.4343 H   0  0  0  0  0  0  0  0  0  0  0  0
    9.9436   47.9317   52.6507 H   0  0  0  0  0  0  0  0  0  0  0  0
    8.5839   48.9484   53.1477 H   0  0  0  0  0  0  0  0  0  0  0  0
    9.3377   46.7029   54.6109 H   0  0  0  0  0  0  0  0  0  0  0  0
    6.6210   45.2423   55.9876 H   0  0  0  0  0  0  0  0  0  0  0  0
    4.3383   44.2437   55.9734 H   0  0  0  0  0  0  0  0  0  0  0  0
    2.5091   45.3171   54.6549 H   0  0  0  0  0  0  0  0  0  0  0  0
    5.2667   48.3622   53.3015 H   0  0  0  0  0  0  0  0  0  0  0  0
    8.9539   44.9267   53.1169 H   0  0  0  0  0  0  0  0  0  0  0  0
    7.2679   45.1198   53.6123 H   0  0  0  0  0  0  0  0  0  0  0  0
  1  2  2  0
  2  3  1  0
  3  4  2  0
  4  5  1  0
  5  6  2  0
  6  7  1  0
  7  8  2  0
  7  9  1  0
  9 10  1  0
 10 11  2  0
 10 12  1  0
 12 13  1  0
 13 14  1  0
 14 15  1  0
 15 16  1  0
 16 17  1  0
  2 18  1  0
 18 19  1  0
 19 20  1  0
 20 21  1  0
 21 22  1  0
 22 23  1  0
 23 24  2  0
 24 25  1  0
 25 26  2  0
 26 27  1  0
 27 28  1  0
 27 29  2  0
 21 30  1  0
  8  3  1  0
 17 13  1  0
 30 18  1  0
 12  6  1  0
 29 23  1  0
  4 31  1  0
  5 32  1  0
  8 33  1  0
  9 34  1  0
 13 35  1  0
 14 36  1  0
 14 37  1  0
 15 38  1  0
 15 39  1  0
 16 40  1  0
 16 41  1  0
 17 42  1  0
 17 43  1  0
 19 44  1  0
 19 45  1  0
 20 46  1  0
 20 47  1  0
 21 48  1  1
 24 49  1  0
 25 50  1  0
 26 51  1  0
 29 52  1  0
 30 53  1  0
 30 54  1  0
M  END
>  <meeko>  (1) 
{"is_sidechain": [false], "free_energy": -9.234, "intermolecular_energy": -11.933, "internal_energy": -1.771}

$$$$
ligand_1_conformer_5_docked
     RDKit          3D

 54 58  0  0  0  0  0  0  0  0999 V2000
    2.9100   42.2880   52.4550 O   0  0  0  0  0  0  0  0  0  0  0  0
    2.8250   43.5300   52.6580 C   0  0  0  0  0  0  0  0  0  0  0  0
    1.9400   44.0200   53.7320 C   0  0  0  0  0  0  0  0  0  0  0  0
    0.5560   43.7130   53.7040 C   0  0  0  0  0  0  0  0  0  0  0  0
   -0.3070   44.1730   54.7160 C   0  0  0  0  0  0  0  0  0  0  0  0
    0.2520   44.9180   55.7620 C   0  0  0  0  0  0  0  0  0  0  0  0
    1.5940   45.1930   55.8010 C   0  0  0  0  0  0  0  0  0  0  0  0
    2.4720   44.7630   54.8110 C   0  0  0  0  0  0  0  0  0  0  0  0
    1.8730   45.9420   56.8800 N   0  0  0  0  0  0  0  0  0  0  0  0
    0.6730   46.1080   57.4810 C   0  0  0  0  0  0  0  0  0  0  0  0
    0.5220   46.7910   58.5280 O   0  0  0  0  0  0  0  0  0  0  0  0
   -0.3510   45.4830   56.8330 N   0  0  0  0  0  0  0  0  0  0  0  0
   -1.7880   45.4880   57.1720 C   0  0  0  0  0  0  0  0  0  0  0  0
   -2.3300   44.0620   57.3540 C   0  0  0  0  0  0  0  0  0  0  0  0
   -3.3070   43.8220   56.2090 C   0  0  0  0  0  0  0  0  0  0  0  0
   -3.7870   45.2000   55.7790 C   0  0  0  0  0  0  0  0  0  0  0  0
   -2.6340   46.1530   56.0710 C   0  0  0  0  0  0  0  0  0  0  0  0
    3.5800   44.4390   51.8320 N   0  0  0  0  0  0  0  0  0  0  0  0
    3.0160   45.6610   51.2900 C   0  0  0  0  0  0  0  0  0  0  0  0
    4.1590   46.3430   50.5500 C   0  0  0  0  0  0  0  0  0  0  0  0
    5.4410   45.7400   51.1260 C   0  0  1  0  0  0  0  0  0  0  0  0
    5.9180   46.5800   52.1820 O   0  0  0  0  0  0  0  0  0  0  0  0
    7.2640   46.7060   52.5770 C   0  0  0  0  0  0  0  0  0  0  0  0
    7.5350   47.1220   53.8880 C   0  0  0  0  0  0  0  0  0  0  0  0
    8.8530   47.2680   54.3260 C   0  0  0  0  0  0  0  0  0  0  0  0
    9.9140   46.9900   53.4600 C   0  0  0  0  0  0  0  0  0  0  0  0
    9.6590   46.5770   52.1510 C   0  0  0  0  0  0  0  0  0  0  0  0
   10.6870   46.3170   51.3060 F   0  0  0  0  0  0  0  0  0  0  0  0
    8.3400   46.4380   51.7050 C   0  0  0  0  0  0  0  0  0  0  0  0
    5.0250   44.3700   51.6680 C   0  0  0  0  0  0  0  0  0  0  0  0
    0.1513   43.1070   52.8800 H   0  0  0  0  0  0  0  0  0  0  0  0
   -1.3847   43.9547   54.6865 H   0  0  0  0  0  0  0  0  0  0  0  0
    3.5461   44.9938   54.8660 H   0  0  0  0  0  0  0  0  0  0  0  0
    2.7950   46.3380   57.1640 H   0  0  0  0  0  0  0  0  0  0  0  0
   -1.8686   46.0556   58.1108 H   0  0  0  0  0  0  0  0  0  0  0  0
   -1.5067   43.3339   57.3102 H   0  0  0  0  0  0  0  0  0  0  0  0
   -2.8239   43.9453   58.3299 H   0  0  0  0  0  0  0  0  0  0  0  0
   -2.8016   43.3145   55.3741 H   0  0  0  0  0  0  0  0  0  0  0  0
   -4.1445   43.1797   56.5189 H   0  0  0  0  0  0  0  0  0  0  0  0
   -4.0248   45.2046   54.7050 H   0  0  0  0  0  0  0  0  0  0  0  0
   -4.7010   45.4951   56.3152 H   0  0  0  0  0  0  0  0  0  0  0  0
   -2.0281   46.3056   55.1657 H   0  0  0  0  0  0  0  0  0  0  0  0
   -3.0028   47.1383   56.3922 H   0  0  0  0  0  0  0  0  0  0  0  0
    2.1929   45.4305   50.5976 H   0  0  0  0  0  0  0  0  0  0  0  0
    2.5998   46.3038   52.0796 H   0  0  0  0  0  0  0  0  0  0  0  0
    4.0915   46.1419   49.4706 H   0  0  0  0  0  0  0  0  0  0  0  0
    4.1309   47.4353   50.6765 H   0  0  0  0  0  0  0  0  0  0  0  0
    6.2475   45.6504   50.3833 H   0  0  0  0  0  0  0  0  0  0  0  0
    6.7038   47.3349   54.5764 H   0  0  0  0  0  0  0  0  0  0  0  0
    9.0563   47.6023   55.3541 H   0  0  0  0  0  0  0  0  0  0  0  0
   10.9513   47.0967   53.8101 H   0  0  0  0  0  0  0  0  0  0  0  0
    8.1415   46.1188   50.6712 H   0  0  0  0  0  0  0  0  0  0  0  0
    5.2935   43.5767   50.9548 H   0  0  0  0  0  0  0  0  0  0  0  0
    5.5324   44.1346   52.6152 H   0  0  0  0  0  0  0  0  0  0  0  0
  1  2  2  0
  2  3  1  0
  3  4  2  0
  4  5  1  0
  5  6  2  0
  6  7  1  0
  7  8  2  0
  7  9  1  0
  9 10  1  0
 10 11  2  0
 10 12  1  0
 12 13  1  0
 13 14  1  0
 14 15  1  0
 15 16  1  0
 16 17  1  0
  2 18  1  0
 18 19  1  0
 19 20  1  0
 20 21  1  0
 21 22  1  0
 22 23  1  0
 23 24  2  0
 24 25  1  0
 25 26  2  0
 26 27  1  0
 27 28  1  0
 27 29  2  0
 21 30  1  0
  8  3  1  0
 17 13  1  0
 30 18  1  0
 12  6  1  0
 29 23  1  0
  4 31  1  0
  5 32  1  0
  8 33  1  0
  9 34  1  0
 13 35  1  0
 14 36  1  0
 14 37  1  0
 15 38  1  0
 15 39  1  0
 16 40  1  0
 16 41  1  0
 17 42  1  0
 17 43  1  0
 19 44  1  0
 19 45  1  0
 20 46  1  0
 20 47  1  0
 21 48  1  6
 24 49  1  0
 25 50  1  0
 26 51  1  0
 29 52  1  0
 30 53  1  0
 30 54  1  0
M  END
>  <meeko>  (2) 
{"is_sidechain": [false], "free_energy": -8.971, "intermolecular_energy": -12.616, "internal_energy": -0.748}

$$$$
ligand_1_conformer_5_docked
     RDKit          3D

 54 58  0  0  0  0  0  0  0  0999 V2000
    2.5810   41.9370   50.4140 O   0  0  0  0  0  0  0  0  0  0  0  0
    2.9040   42.8690   51.1990 C   0  0  0  0  0  0  0  0  0  0  0  0
    4.2180   43.5190   51.0340 C   0  0  0  0  0  0  0  0  0  0  0  0
    4.5030   44.7260   51.7210 C   0  0  0  0  0  0  0  0  0  0  0  0
    5.7480   45.3660   51.5750 C   0  0  0  0  0  0  0  0  0  0  0  0
    6.7020   44.7540   50.7520 C   0  0  0  0  0  0  0  0  0  0  0  0
    6.4360   43.5750   50.1080 C   0  0  0  0  0  0  0  0  0  0  0  0
    5.2120   42.9240   50.2220 C   0  0  0  0  0  0  0  0  0  0  0  0
    7.4940   43.2150   49.3620 N   0  0  0  0  0  0  0  0  0  0  0  0
    8.3930   44.2020   49.5750 C   0  0  0  0  0  0  0  0  0  0  0  0
    9.5200   44.2310   49.0140 O   0  0  0  0  0  0  0  0  0  0  0  0
    7.9520   45.1640   50.4340 N   0  0  0  0  0  0  0  0  0  0  0  0
    8.6410   46.4010   50.8560 C   0  0  0  0  0  0  0  0  0  0  0  0
    9.9340   46.0930   51.6240 C   0  0  0  0  0  0  0  0  0  0  0  0
    9.7040   46.5530   53.0590 C   0  0  0  0  0  0  0  0  0  0  0  0
    8.6260   47.6240   52.9820 C   0  0  0  0  0  0  0  0  0  0  0  0
    7.7600   47.2590   51.7820 C   0  0  0  0  0  0  0  0  0  0  0  0
    1.9930   43.2680   52.2430 N   0  0  0  0  0  0  0  0  0  0  0  0
    1.3760   42.3200   53.1510 C   0  0  0  0  0  0  0  0  0  0  0  0
    0.5580   43.1610   54.1210 C   0  0  0  0  0  0  0  0  0  0  0  0
    1.1430   44.5710   54.0410 C   0  0  1  0  0  0  0  0  0  0  0  0
    2.1200   44.7310   55.0740 O   0  0  0  0  0  0  0  0  0  0  0  0
    3.3150   45.4680   54.9570 C   0  0  0  0  0  0  0  0  0  0  0  0
    4.5140   44.8520   55.3400 C   0  0  0  0  0  0  0  0  0  0  0  0
    5.7250   45.5420   55.2490 C   0  0  0  0  0  0  0  0  0  0  0  0
    5.7500   46.8530   54.7650 C   0  0  0  0  0  0  0  0  0  0  0  0
    4.5620   47.4790   54.3820 C   0  0  0  0  0  0  0  0  0  0  0  0
    4.5820   48.7560   53.9230 F   0  0  0  0  0  0  0  0  0  0  0  0
    3.3460   46.7950   54.4800 C   0  0  0  0  0  0  0  0  0  0  0  0
    1.7960   44.6490   52.6590 C   0  0  0  0  0  0  0  0  0  0  0  0
    3.7398   45.1688   52.3778 H   0  0  0  0  0  0  0  0  0  0  0  0
    5.9643   46.3140   52.0894 H   0  0  0  0  0  0  0  0  0  0  0  0
    5.0228   41.9760   49.6971 H   0  0  0  0  0  0  0  0  0  0  0  0
    7.5820   42.3870   48.7340 H   0  0  0  0  0  0  0  0  0  0  0  0
    8.8643   46.9475   49.9278 H   0  0  0  0  0  0  0  0  0  0  0  0
   10.1426   45.0132   51.5997 H   0  0  0  0  0  0  0  0  0  0  0  0
   10.7962   46.6072   51.1744 H   0  0  0  0  0  0  0  0  0  0  0  0
    9.3648   45.7118   53.6814 H   0  0  0  0  0  0  0  0  0  0  0  0
   10.6279   46.9398   53.5137 H   0  0  0  0  0  0  0  0  0  0  0  0
    8.0232   47.6271   53.9021 H   0  0  0  0  0  0  0  0  0  0  0  0
    9.0614   48.6285   52.8754 H   0  0  0  0  0  0  0  0  0  0  0  0
    6.8797   46.6857   52.1083 H   0  0  0  0  0  0  0  0  0  0  0  0
    7.3952   48.1587   51.2647 H   0  0  0  0  0  0  0  0  0  0  0  0
    0.7244   41.6268   52.5989 H   0  0  0  0  0  0  0  0  0  0  0  0
    2.1255   41.7072   53.6732 H   0  0  0  0  0  0  0  0  0  0  0  0
   -0.5011   43.1678   53.8239 H   0  0  0  0  0  0  0  0  0  0  0  0
    0.6036   42.7600   55.1443 H   0  0  0  0  0  0  0  0  0  0  0  0
    0.3882   45.3599   54.1746 H   0  0  0  0  0  0  0  0  0  0  0  0
    4.5014   43.8179   55.7149 H   0  0  0  0  0  0  0  0  0  0  0  0
    6.6604   45.0530   55.5587 H   0  0  0  0  0  0  0  0  0  0  0  0
    6.7058   47.3918   54.6858 H   0  0  0  0  0  0  0  0  0  0  0  0
    2.4111   47.2934   54.1842 H   0  0  0  0  0  0  0  0  0  0  0  0
    1.1368   45.1732   51.9515 H   0  0  0  0  0  0  0  0  0  0  0  0
    2.7442   45.2059   52.6867 H   0  0  0  0  0  0  0  0  0  0  0  0
  1  2  2  0
  2  3  1  0
  3  4  2  0
  4  5  1  0
  5  6  2  0
  6  7  1  0
  7  8  2  0
  7  9  1  0
  9 10  1  0
 10 11  2  0
 10 12  1  0
 12 13  1  0
 13 14  1  0
 14 15  1  0
 15 16  1  0
 16 17  1  0
  2 18  1  0
 18 19  1  0
 19 20  1  0
 20 21  1  0
 21 22  1  0
 22 23  1  0
 23 24  2  0
 24 25  1  0
 25 26  2  0
 26 27  1  0
 27 28  1  0
 27 29  2  0
 21 30  1  0
  8  3  1  0
 17 13  1  0
 30 18  1  0
 12  6  1  0
 29 23  1  0
  4 31  1  0
  5 32  1  0
  8 33  1  0
  9 34  1  0
 13 35  1  0
 14 36  1  0
 14 37  1  0
 15 38  1  0
 15 39  1  0
 16 40  1  0
 16 41  1  0
 17 42  1  0
 17 43  1  0
 19 44  1  0
 19 45  1  0
 20 46  1  0
 20 47  1  0
 21 48  1  6
 24 49  1  0
 25 50  1  0
 26 51  1  0
 29 52  1  0
 30 53  1  0
 30 54  1  0
M  END
>  <meeko>  (3) 
{"is_sidechain": [false], "free_energy": -8.862, "intermolecular_energy": -12.925, "internal_energy": -0.298}

$$$$
ligand_1_conformer_5_docked
     RDKit          3D

 54 58  0  0  0  0  0  0  0  0999 V2000
    1.4860   45.3220   56.3210 O   0  0  0  0  0  0  0  0  0  0  0  0
    1.8310   44.9590   55.1630 C   0  0  0  0  0  0  0  0  0  0  0  0
    3.1820   45.3010   54.6800 C   0  0  0  0  0  0  0  0  0  0  0  0
    4.2130   44.3280   54.7120 C   0  0  0  0  0  0  0  0  0  0  0  0
    5.5100   44.6340   54.2600 C   0  0  0  0  0  0  0  0  0  0  0  0
    5.7380   45.9200   53.7540 C   0  0  0  0  0  0  0  0  0  0  0  0
    4.7360   46.8520   53.7000 C   0  0  0  0  0  0  0  0  0  0  0  0
    3.4460   46.5850   54.1490 C   0  0  0  0  0  0  0  0  0  0  0  0
    5.2140   48.0060   53.2060 N   0  0  0  0  0  0  0  0  0  0  0  0
    6.5190   47.7420   52.9680 C   0  0  0  0  0  0  0  0  0  0  0  0
    7.3180   48.6060   52.5190 O   0  0  0  0  0  0  0  0  0  0  0  0
    6.8820   46.4660   53.2780 N   0  0  0  0  0  0  0  0  0  0  0  0
    8.2210   45.8480   53.1940 C   0  0  0  0  0  0  0  0  0  0  0  0
    9.2010   46.4890   54.1870 C   0  0  0  0  0  0  0  0  0  0  0  0
   10.2450   47.2210   53.3520 C   0  0  0  0  0  0  0  0  0  0  0  0
   10.2510   46.5290   51.9970 C   0  0  0  0  0  0  0  0  0  0  0  0
    8.8350   46.0030   51.7910 C   0  0  0  0  0  0  0  0  0  0  0  0
    0.8980   44.2340   54.3370 N   0  0  0  0  0  0  0  0  0  0  0  0
   -0.2790   44.8520   53.7540 C   0  0  0  0  0  0  0  0  0  0  0  0
   -0.9340   43.7640   52.9140 C   0  0  0  0  0  0  0  0  0  0  0  0
    0.1620   42.7310   52.6480 C   0  0  1  0  0  0  0  0  0  0  0  0
    0.7800   43.0190   51.3910 O   0  0  0  0  0  0  0  0  0  0  0  0
    2.1400   43.3390   51.2060 C   0  0  0  0  0  0  0  0  0  0  0  0
    3.0750   42.2950   51.2250 C   0  0  0  0  0  0  0  0  0  0  0  0
    4.4360   42.5620   51.0520 C   0  0  0  0  0  0  0  0  0  0  0  0
    4.8740   43.8730   50.8500 C   0  0  0  0  0  0  0  0  0  0  0  0
    3.9520   44.9220   50.8310 C   0  0  0  0  0  0  0  0  0  0  0  0
    4.3760   46.1970   50.6460 F   0  0  0  0  0  0  0  0  0  0  0  0
    2.5900   44.6620   51.0130 C   0  0  0  0  0  0  0  0  0  0  0  0
    1.1580   42.9080   53.7970 C   0  0  0  0  0  0  0  0  0  0  0  0
    3.9959   43.3201   55.0954 H   0  0  0  0  0  0  0  0  0  0  0  0
    6.3176   43.8884   54.3026 H   0  0  0  0  0  0  0  0  0  0  0  0
    2.6564   47.3488   54.0926 H   0  0  0  0  0  0  0  0  0  0  0  0
    4.7040   48.9060   53.0760 H   0  0  0  0  0  0  0  0  0  0  0  0
    8.0725   44.7839   53.4301 H   0  0  0  0  0  0  0  0  0  0  0  0
    8.6711   47.1981   54.8400 H   0  0  0  0  0  0  0  0  0  0  0  0
    9.6678   45.7299   54.8319 H   0  0  0  0  0  0  0  0  0  0  0  0
    9.9717   48.2806   53.2399 H   0  0  0  0  0  0  0  0  0  0  0  0
   11.2369   47.1909   53.8265 H   0  0  0  0  0  0  0  0  0  0  0  0
   10.5129   47.2440   51.2032 H   0  0  0  0  0  0  0  0  0  0  0  0
   10.9928   45.7176   51.9609 H   0  0  0  0  0  0  0  0  0  0  0  0
    8.2470   46.7165   51.1950 H   0  0  0  0  0  0  0  0  0  0  0  0
    8.8400   45.0454   51.2497 H   0  0  0  0  0  0  0  0  0  0  0  0
   -0.9648   45.1940   54.5432 H   0  0  0  0  0  0  0  0  0  0  0  0
   -0.0207   45.7345   53.1503 H   0  0  0  0  0  0  0  0  0  0  0  0
   -1.7686   43.3048   53.4642 H   0  0  0  0  0  0  0  0  0  0  0  0
   -1.3478   44.1673   51.9780 H   0  0  0  0  0  0  0  0  0  0  0  0
   -0.2184   41.6999   52.6008 H   0  0  0  0  0  0  0  0  0  0  0  0
    2.7358   41.2597   51.3769 H   0  0  0  0  0  0  0  0  0  0  0  0
    5.1640   41.7377   51.0750 H   0  0  0  0  0  0  0  0  0  0  0  0
    5.9449   44.0792   50.7059 H   0  0  0  0  0  0  0  0  0  0  0  0
    1.8675   45.4915   51.0056 H   0  0  0  0  0  0  0  0  0  0  0  0
    0.9956   42.1404   54.5680 H   0  0  0  0  0  0  0  0  0  0  0  0
    2.1982   42.8038   53.4547 H   0  0  0  0  0  0  0  0  0  0  0  0
  1  2  2  0
  2  3  1  0
  3  4  2  0
  4  5  1  0
  5  6  2  0
  6  7  1  0
  7  8  2  0
  7  9  1  0
  9 10  1  0
 10 11  2  0
 10 12  1  0
 12 13  1  0
 13 14  1  0
 14 15  1  0
 15 16  1  0
 16 17  1  0
  2 18  1  0
 18 19  1  0
 19 20  1  0
 20 21  1  0
 21 22  1  0
 22 23  1  0
 23 24  2  0
 24 25  1  0
 25 26  2  0
 26 27  1  0
 27 28  1  0
 27 29  2  0
 21 30  1  0
  8  3  1  0
 17 13  1  0
 30 18  1  0
 12  6  1  0
 29 23  1  0
  4 31  1  0
  5 32  1  0
  8 33  1  0
  9 34  1  0
 13 35  1  0
 14 36  1  0
 14 37  1  0
 15 38  1  0
 15 39  1  0
 16 40  1  0
 16 41  1  0
 17 42  1  0
 17 43  1  0
 19 44  1  0
 19 45  1  0
 20 46  1  0
 20 47  1  0
 21 48  1  6
 24 49  1  0
 25 50  1  0
 26 51  1  0
 29 52  1  0
 30 53  1  0
 30 54  1  0
M  END
>  <meeko>  (4) 
{"is_sidechain": [false], "free_energy": -8.692, "intermolecular_energy": -11.125, "internal_energy": -1.878}

$$$$
ligand_1_conformer_5_docked
     RDKit          3D

 54 58  0  0  0  0  0  0  0  0999 V2000
    7.8020   47.7500   55.2410 O   0  0  0  0  0  0  0  0  0  0  0  0
    7.4300   47.1570   54.1910 C   0  0  0  0  0  0  0  0  0  0  0  0
    6.0710   46.5870   54.1370 C   0  0  0  0  0  0  0  0  0  0  0  0
    5.7320   45.4840   54.9600 C   0  0  0  0  0  0  0  0  0  0  0  0
    4.4430   44.9210   54.9220 C   0  0  0  0  0  0  0  0  0  0  0  0
    3.5010   45.5060   54.0660 C   0  0  0  0  0  0  0  0  0  0  0  0
    3.8210   46.5880   53.2880 C   0  0  0  0  0  0  0  0  0  0  0  0
    5.0900   47.1600   53.2940 C   0  0  0  0  0  0  0  0  0  0  0  0
    2.7630   46.9390   52.5390 N   0  0  0  0  0  0  0  0  0  0  0  0
    1.8080   46.0450   52.8860 C   0  0  0  0  0  0  0  0  0  0  0  0
    0.6620   46.0350   52.3640 O   0  0  0  0  0  0  0  0  0  0  0  0
    2.2160   45.1530   53.8320 N   0  0  0  0  0  0  0  0  0  0  0  0
    1.4630   44.0190   54.4060 C   0  0  0  0  0  0  0  0  0  0  0  0
    1.3250   42.8660   53.4010 C   0  0  0  0  0  0  0  0  0  0  0  0
   -0.1550   42.7750   53.0500 C   0  0  0  0  0  0  0  0  0  0  0  0
   -0.8990   43.3830   54.2290 C   0  0  0  0  0  0  0  0  0  0  0  0
    0.0380   44.4300   54.8190 C   0  0  0  0  0  0  0  0  0  0  0  0
    8.3400   47.0400   53.0800 N   0  0  0  0  0  0  0  0  0  0  0  0
    9.7500   46.7370   53.2480 C   0  0  0  0  0  0  0  0  0  0  0  0
   10.3140   46.6370   51.8380 C   0  0  0  0  0  0  0  0  0  0  0  0
    9.1120   46.3860   50.9280 C   0  0  1  0  0  0  0  0  0  0  0  0
    8.9630   44.9770   50.7280 O   0  0  0  0  0  0  0  0  0  0  0  0
    7.7690   44.3290   50.3580 C   0  0  0  0  0  0  0  0  0  0  0  0
    7.7950   43.4740   49.2480 C   0  0  0  0  0  0  0  0  0  0  0  0
    6.6350   42.8120   48.8370 C   0  0  0  0  0  0  0  0  0  0  0  0
    5.4400   42.9910   49.5380 C   0  0  0  0  0  0  0  0  0  0  0  0
    5.4000   43.8410   50.6450 C   0  0  0  0  0  0  0  0  0  0  0  0
    4.2380   44.0240   51.3210 F   0  0  0  0  0  0  0  0  0  0  0  0
    6.5570   44.5130   51.0550 C   0  0  0  0  0  0  0  0  0  0  0  0
    7.9130   46.9560   51.6910 C   0  0  0  0  0  0  0  0  0  0  0  0
    6.4878   45.0618   55.6386 H   0  0  0  0  0  0  0  0  0  0  0  0
    4.1838   44.0511   55.5433 H   0  0  0  0  0  0  0  0  0  0  0  0
    5.3228   48.0304   52.6630 H   0  0  0  0  0  0  0  0  0  0  0  0
    2.7070   47.6990   51.8270 H   0  0  0  0  0  0  0  0  0  0  0  0
    2.0379   43.6964   55.2866 H   0  0  0  0  0  0  0  0  0  0  0  0
    1.9178   43.0753   52.4983 H   0  0  0  0  0  0  0  0  0  0  0  0
    1.6925   41.9205   53.8264 H   0  0  0  0  0  0  0  0  0  0  0  0
   -0.3661   43.3411   52.1308 H   0  0  0  0  0  0  0  0  0  0  0  0
   -0.4647   41.7352   52.8687 H   0  0  0  0  0  0  0  0  0  0  0  0
   -1.8337   43.8536   53.8901 H   0  0  0  0  0  0  0  0  0  0  0  0
   -1.1706   42.6192   54.9725 H   0  0  0  0  0  0  0  0  0  0  0  0
   -0.2025   45.4254   54.4174 H   0  0  0  0  0  0  0  0  0  0  0  0
   -0.0608   44.4826   55.9133 H   0  0  0  0  0  0  0  0  0  0  0  0
   10.2521   47.5404   53.8070 H   0  0  0  0  0  0  0  0  0  0  0  0
    9.9033   45.8077   53.8162 H   0  0  0  0  0  0  0  0  0  0  0  0
   10.8171   47.5745   51.5589 H   0  0  0  0  0  0  0  0  0  0  0  0
   11.0602   45.8331   51.7555 H   0  0  0  0  0  0  0  0  0  0  0  0
    9.2166   46.8517   49.9369 H   0  0  0  0  0  0  0  0  0  0  0  0
    8.7347   43.3230   48.6966 H   0  0  0  0  0  0  0  0  0  0  0  0
    6.6629   42.1487   47.9599 H   0  0  0  0  0  0  0  0  0  0  0  0
    4.5302   42.4621   49.2178 H   0  0  0  0  0  0  0  0  0  0  0  0
    6.5209   45.1869   51.9237 H   0  0  0  0  0  0  0  0  0  0  0  0
    7.6526   47.9537   51.3079 H   0  0  0  0  0  0  0  0  0  0  0  0
    7.0191   46.3253   51.5764 H   0  0  0  0  0  0  0  0  0  0  0  0
  1  2  2  0
  2  3  1  0
  3  4  2  0
  4  5  1  0
  5  6  2  0
  6  7  1  0
  7  8  2  0
  7  9  1  0
  9 10  1  0
 10 11  2  0
 10 12  1  0
 12 13  1  0
 13 14  1  0
 14 15  1  0
 15 16  1  0
 16 17  1  0
  2 18  1  0
 18 19  1  0
 19 20  1  0
 20 21  1  0
 21 22  1  0
 22 23  1  0
 23 24  2  0
 24 25  1  0
 25 26  2  0
 26 27  1  0
 27 28  1  0
 27 29  2  0
 21 30  1  0
  8  3  1  0
 17 13  1  0
 30 18  1  0
 12  6  1  0
 29 23  1  0
  4 31  1  0
  5 32  1  0
  8 33  1  0
  9 34  1  0
 13 35  1  0
 14 36  1  0
 14 37  1  0
 15 38  1  0
 15 39  1  0
 16 40  1  0
 16 41  1  0
 17 42  1  0
 17 43  1  0
 19 44  1  0
 19 45  1  0
 20 46  1  0
 20 47  1  0
 21 48  1  6
 24 49  1  0
 25 50  1  0
 26 51  1  0
 29 52  1  0
 30 53  1  0
 30 54  1  0
M  END
>  <meeko>  (5) 
{"is_sidechain": [false], "free_energy": -8.558, "intermolecular_energy": -12.141, "internal_energy": -0.689}

$$$$
