ligand_85_conformer_3_docked
     RDKit          3D

 44 47  0  0  0  0  0  0  0  0999 V2000
   11.2680   47.5640   56.4550 C   0  0  0  0  0  0  0  0  0  0  0  0
   10.0240   47.9370   55.6510 C   0  0  0  0  0  0  0  0  0  0  0  0
    9.9470   47.1780   54.3200 C   0  0  0  0  0  0  0  0  0  0  0  0
    8.5590   46.9020   53.9510 N   0  0  0  0  0  0  0  0  0  0  0  0
    7.5250   47.1310   54.7540 N   0  0  0  0  0  0  0  0  0  0  0  0
    6.3980   46.8060   54.0750 C   0  0  0  0  0  0  0  0  0  0  0  0
    5.0740   46.9220   54.6060 N   0  0  0  0  0  0  0  0  0  0  0  0
    4.4270   45.7920   55.2680 C   0  0  0  0  0  0  0  0  0  0  0  0
    3.5100   45.0840   54.3230 C   0  0  0  0  0  0  0  0  0  0  0  0
    3.9160   44.1600   53.4310 N   0  0  0  0  0  0  0  0  0  0  0  0
    2.7510   43.8570   52.8220 C   0  0  0  0  0  0  0  0  0  0  0  0
    2.6390   42.9010   51.6800 C   0  0  0  0  0  0  0  0  0  0  0  0
    3.9050   42.0410   51.5990 C   0  0  0  0  0  0  0  0  0  0  0  0
    4.8760   42.4020   50.4860 C   0  0  0  0  0  0  0  0  0  0  0  0
    4.0050   41.1610   50.3640 C   0  0  0  0  0  0  0  0  0  0  0  0
    1.7130   44.5700   53.3020 N   0  0  0  0  0  0  0  0  0  0  0  0
    2.2250   45.3150   54.2320 O   0  0  0  0  0  0  0  0  0  0  0  0
    6.7340   46.3670   52.8120 C   0  0  0  0  0  0  0  0  0  0  0  0
    5.9790   45.9280   51.7270 C   0  0  0  0  0  0  0  0  0  0  0  0
    6.6730   45.5580   50.5590 C   0  0  0  0  0  0  0  0  0  0  0  0
    8.0840   45.6360   50.5080 C   0  0  0  0  0  0  0  0  0  0  0  0
    8.8170   46.0840   51.6240 C   0  0  0  0  0  0  0  0  0  0  0  0
    8.1000   46.4430   52.7670 C   0  0  0  0  0  0  0  0  0  0  0  0
   11.0437   47.6312   57.5298 H   0  0  0  0  0  0  0  0  0  0  0  0
   11.5701   46.5358   56.2071 H   0  0  0  0  0  0  0  0  0  0  0  0
   12.0860   48.2564   56.2071 H   0  0  0  0  0  0  0  0  0  0  0  0
    9.1314   47.6978   56.2477 H   0  0  0  0  0  0  0  0  0  0  0  0
   10.0771   49.0122   55.4248 H   0  0  0  0  0  0  0  0  0  0  0  0
   10.4141   47.7867   53.5318 H   0  0  0  0  0  0  0  0  0  0  0  0
   10.4757   46.2200   54.4329 H   0  0  0  0  0  0  0  0  0  0  0  0
    4.5720   47.8350   54.5150 H   0  0  0  0  0  0  0  0  0  0  0  0
    5.1971   45.0894   55.6193 H   0  0  0  0  0  0  0  0  0  0  0  0
    3.8391   46.1680   56.1183 H   0  0  0  0  0  0  0  0  0  0  0  0
    1.7647   42.2510   51.8319 H   0  0  0  0  0  0  0  0  0  0  0  0
    2.5219   43.4654   50.7431 H   0  0  0  0  0  0  0  0  0  0  0  0
    3.9934   41.8814   52.6838 H   0  0  0  0  0  0  0  0  0  0  0  0
    4.6806   43.2762   49.8475 H   0  0  0  0  0  0  0  0  0  0  0  0
    5.9560   42.6031   50.4305 H   0  0  0  0  0  0  0  0  0  0  0  0
    3.1797   41.1376   49.6371 H   0  0  0  0  0  0  0  0  0  0  0  0
    4.1943   40.0925   50.1835 H   0  0  0  0  0  0  0  0  0  0  0  0
    4.8817   45.8724   51.7805 H   0  0  0  0  0  0  0  0  0  0  0  0
    6.1135   45.2057   49.6799 H   0  0  0  0  0  0  0  0  0  0  0  0
    8.6135   45.3443   49.5890 H   0  0  0  0  0  0  0  0  0  0  0  0
    9.9147   46.1487   51.5962 H   0  0  0  0  0  0  0  0  0  0  0  0
  1  2  1  0
  2  3  1  0
  3  4  1  0
  4  5  1  0
  5  6  2  0
  6  7  1  0
  7  8  1  0
  8  9  1  0
  9 10  2  0
 10 11  1  0
 11 12  1  0
 12 13  1  0
 13 14  1  0
 14 15  1  0
 11 16  2  0
 16 17  1  0
  6 18  1  0
 18 19  2  0
 19 20  1  0
 20 21  2  0
 21 22  1  0
 22 23  2  0
 23  4  1  0
 17  9  1  0
 23 18  1  0
 15 13  1  0
  1 24  1  0
  1 25  1  0
  1 26  1  0
  2 27  1  0
  2 28  1  0
  3 29  1  0
  3 30  1  0
  7 31  1  0
  8 32  1  0
  8 33  1  0
 12 34  1  0
 12 35  1  0
 13 36  1  0
 14 37  1  0
 14 38  1  0
 15 39  1  0
 15 40  1  0
 19 41  1  0
 20 42  1  0
 21 43  1  0
 22 44  1  0
M  END
>  <meeko>  (1) 
{"is_sidechain": [false], "free_energy": -8.387, "intermolecular_energy": -11.819, "internal_energy": -0.891}

$$$$
ligand_85_conformer_3_docked
     RDKit          3D

 44 47  0  0  0  0  0  0  0  0999 V2000
    7.2470   43.0230   49.0000 C   0  0  0  0  0  0  0  0  0  0  0  0
    6.7200   44.0650   49.9840 C   0  0  0  0  0  0  0  0  0  0  0  0
    7.6720   45.2590   50.1260 C   0  0  0  0  0  0  0  0  0  0  0  0
    7.3560   46.0450   51.3190 N   0  0  0  0  0  0  0  0  0  0  0  0
    6.1230   46.4120   51.6530 N   0  0  0  0  0  0  0  0  0  0  0  0
    6.1990   47.0810   52.8290 C   0  0  0  0  0  0  0  0  0  0  0  0
    5.0710   47.6310   53.5190 N   0  0  0  0  0  0  0  0  0  0  0  0
    4.3910   46.8790   54.5700 C   0  0  0  0  0  0  0  0  0  0  0  0
    3.4840   45.8500   53.9770 C   0  0  0  0  0  0  0  0  0  0  0  0
    3.8850   44.6240   53.5910 N   0  0  0  0  0  0  0  0  0  0  0  0
    2.7330   44.1110   53.1140 C   0  0  0  0  0  0  0  0  0  0  0  0
    2.6260   42.7580   52.4900 C   0  0  0  0  0  0  0  0  0  0  0  0
    3.4900   42.7010   51.2260 C   0  0  0  0  0  0  0  0  0  0  0  0
    3.2120   41.5360   50.2890 C   0  0  0  0  0  0  0  0  0  0  0  0
    4.4580   41.5300   51.1620 C   0  0  0  0  0  0  0  0  0  0  0  0
    1.7060   44.9810   53.1870 N   0  0  0  0  0  0  0  0  0  0  0  0
    2.2120   46.0450   53.7300 O   0  0  0  0  0  0  0  0  0  0  0  0
    7.5120   47.1290   53.2450 C   0  0  0  0  0  0  0  0  0  0  0  0
    8.1330   47.6750   54.3670 C   0  0  0  0  0  0  0  0  0  0  0  0
    9.5290   47.5240   54.4750 C   0  0  0  0  0  0  0  0  0  0  0  0
   10.2560   46.8390   53.4740 C   0  0  0  0  0  0  0  0  0  0  0  0
    9.5960   46.2980   52.3540 C   0  0  0  0  0  0  0  0  0  0  0  0
    8.2120   46.4670   52.2750 C   0  0  0  0  0  0  0  0  0  0  0  0
    7.6752   42.1764   49.5568 H   0  0  0  0  0  0  0  0  0  0  0  0
    6.4213   42.6656   48.3672 H   0  0  0  0  0  0  0  0  0  0  0  0
    8.0242   43.4763   48.3672 H   0  0  0  0  0  0  0  0  0  0  0  0
    5.7455   44.4291   49.6267 H   0  0  0  0  0  0  0  0  0  0  0  0
    6.6302   43.5848   50.9696 H   0  0  0  0  0  0  0  0  0  0  0  0
    8.7047   44.8880   50.2032 H   0  0  0  0  0  0  0  0  0  0  0  0
    7.5582   45.9039   49.2422 H   0  0  0  0  0  0  0  0  0  0  0  0
    4.7390   48.5880   53.2590 H   0  0  0  0  0  0  0  0  0  0  0  0
    5.1413   46.3795   55.2005 H   0  0  0  0  0  0  0  0  0  0  0  0
    3.7906   47.5759   55.1732 H   0  0  0  0  0  0  0  0  0  0  0  0
    2.9735   41.9975   53.2047 H   0  0  0  0  0  0  0  0  0  0  0  0
    1.5770   42.5627   52.2227 H   0  0  0  0  0  0  0  0  0  0  0  0
    3.5701   43.7914   51.1047 H   0  0  0  0  0  0  0  0  0  0  0  0
    2.3862   40.8419   50.5043 H   0  0  0  0  0  0  0  0  0  0  0  0
    3.0167   41.4340   49.2113 H   0  0  0  0  0  0  0  0  0  0  0  0
    4.5332   40.8316   52.0085 H   0  0  0  0  0  0  0  0  0  0  0  0
    5.5369   41.4218   50.9770 H   0  0  0  0  0  0  0  0  0  0  0  0
    7.5546   48.2038   55.1389 H   0  0  0  0  0  0  0  0  0  0  0  0
   10.0577   47.9419   55.3443 H   0  0  0  0  0  0  0  0  0  0  0  0
   11.3461   46.7279   53.5711 H   0  0  0  0  0  0  0  0  0  0  0  0
   10.1504   45.7617   51.5698 H   0  0  0  0  0  0  0  0  0  0  0  0
  1  2  1  0
  2  3  1  0
  3  4  1  0
  4  5  1  0
  5  6  2  0
  6  7  1  0
  7  8  1  0
  8  9  1  0
  9 10  2  0
 10 11  1  0
 11 12  1  0
 12 13  1  0
 13 14  1  0
 14 15  1  0
 11 16  2  0
 16 17  1  0
  6 18  1  0
 18 19  2  0
 19 20  1  0
 20 21  2  0
 21 22  1  0
 22 23  2  0
 23  4  1  0
 17  9  1  0
 23 18  1  0
 15 13  1  0
  1 24  1  0
  1 25  1  0
  1 26  1  0
  2 27  1  0
  2 28  1  0
  3 29  1  0
  3 30  1  0
  7 31  1  0
  8 32  1  0
  8 33  1  0
 12 34  1  0
 12 35  1  0
 13 36  1  0
 14 37  1  0
 14 38  1  0
 15 39  1  0
 15 40  1  0
 19 41  1  0
 20 42  1  0
 21 43  1  0
 22 44  1  0
M  END
>  <meeko>  (2) 
{"is_sidechain": [false], "free_energy": -8.336, "intermolecular_energy": -11.611, "internal_energy": -1.027}

$$$$
ligand_85_conformer_3_docked
     RDKit          3D

 44 47  0  0  0  0  0  0  0  0999 V2000
   -0.5880   43.1170   53.6130 C   0  0  0  0  0  0  0  0  0  0  0  0
    0.9240   42.9860   53.7800 C   0  0  0  0  0  0  0  0  0  0  0  0
    1.6260   42.6560   52.4570 C   0  0  0  0  0  0  0  0  0  0  0  0
    2.5620   43.7150   52.0790 N   0  0  0  0  0  0  0  0  0  0  0  0
    2.3840   44.9970   52.3810 N   0  0  0  0  0  0  0  0  0  0  0  0
    3.4590   45.6800   51.9200 C   0  0  0  0  0  0  0  0  0  0  0  0
    3.6380   47.0940   52.0610 N   0  0  0  0  0  0  0  0  0  0  0  0
    3.9470   47.6880   53.3590 C   0  0  0  0  0  0  0  0  0  0  0  0
    5.2730   47.2060   53.8540 C   0  0  0  0  0  0  0  0  0  0  0  0
    6.4560   47.6430   53.3840 N   0  0  0  0  0  0  0  0  0  0  0  0
    7.3160   46.9050   54.1150 C   0  0  0  0  0  0  0  0  0  0  0  0
    8.8000   46.9530   53.9460 C   0  0  0  0  0  0  0  0  0  0  0  0
    9.1440   47.2300   52.4790 C   0  0  0  0  0  0  0  0  0  0  0  0
    8.9170   46.0720   51.5200 C   0  0  0  0  0  0  0  0  0  0  0  0
   10.3310   46.4470   51.9390 C   0  0  0  0  0  0  0  0  0  0  0  0
    6.6890   46.0590   54.9570 N   0  0  0  0  0  0  0  0  0  0  0  0
    5.4250   46.2800   54.7670 O   0  0  0  0  0  0  0  0  0  0  0  0
    4.3360   44.8040   51.3180 C   0  0  0  0  0  0  0  0  0  0  0  0
    5.5740   44.9720   50.7010 C   0  0  0  0  0  0  0  0  0  0  0  0
    6.2090   43.8230   50.1940 C   0  0  0  0  0  0  0  0  0  0  0  0
    5.6000   42.5530   50.3170 C   0  0  0  0  0  0  0  0  0  0  0  0
    4.3480   42.4180   50.9480 C   0  0  0  0  0  0  0  0  0  0  0  0
    3.7430   43.5770   51.4380 C   0  0  0  0  0  0  0  0  0  0  0  0
   -1.0641   43.1583   54.6038 H   0  0  0  0  0  0  0  0  0  0  0  0
   -0.8171   44.0384   53.0575 H   0  0  0  0  0  0  0  0  0  0  0  0
   -0.9721   42.2488   53.0575 H   0  0  0  0  0  0  0  0  0  0  0  0
    1.3217   43.9367   54.1646 H   0  0  0  0  0  0  0  0  0  0  0  0
    1.1163   42.1595   54.4799 H   0  0  0  0  0  0  0  0  0  0  0  0
    2.1785   41.7114   52.5693 H   0  0  0  0  0  0  0  0  0  0  0  0
    0.8632   42.5664   51.6695 H   0  0  0  0  0  0  0  0  0  0  0  0
    3.5460   47.7010   51.2140 H   0  0  0  0  0  0  0  0  0  0  0  0
    3.9746   48.7830   53.2585 H   0  0  0  0  0  0  0  0  0  0  0  0
    3.1699   47.3924   54.0792 H   0  0  0  0  0  0  0  0  0  0  0  0
    9.2140   47.7539   54.5762 H   0  0  0  0  0  0  0  0  0  0  0  0
    9.2321   45.9867   54.2453 H   0  0  0  0  0  0  0  0  0  0  0  0
    8.8484   48.2893   52.4995 H   0  0  0  0  0  0  0  0  0  0  0  0
    8.4653   45.1372   51.8836 H   0  0  0  0  0  0  0  0  0  0  0  0
    8.3975   45.9489   50.5582 H   0  0  0  0  0  0  0  0  0  0  0  0
   10.9015   45.7835   52.6056 H   0  0  0  0  0  0  0  0  0  0  0  0
   11.2572   46.7074   51.4058 H   0  0  0  0  0  0  0  0  0  0  0  0
    6.0377   45.9657   50.6135 H   0  0  0  0  0  0  0  0  0  0  0  0
    7.1867   43.9137   49.6982 H   0  0  0  0  0  0  0  0  0  0  0  0
    6.1080   41.6632   49.9167 H   0  0  0  0  0  0  0  0  0  0  0  0
    3.8645   41.4353   51.0510 H   0  0  0  0  0  0  0  0  0  0  0  0
  1  2  1  0
  2  3  1  0
  3  4  1  0
  4  5  1  0
  5  6  2  0
  6  7  1  0
  7  8  1  0
  8  9  1  0
  9 10  2  0
 10 11  1  0
 11 12  1  0
 12 13  1  0
 13 14  1  0
 14 15  1  0
 11 16  2  0
 16 17  1  0
  6 18  1  0
 18 19  2  0
 19 20  1  0
 20 21  2  0
 21 22  1  0
 22 23  2  0
 23  4  1  0
 17  9  1  0
 23 18  1  0
 15 13  1  0
  1 24  1  0
  1 25  1  0
  1 26  1  0
  2 27  1  0
  2 28  1  0
  3 29  1  0
  3 30  1  0
  7 31  1  0
  8 32  1  0
  8 33  1  0
 12 34  1  0
 12 35  1  0
 13 36  1  0
 14 37  1  0
 14 38  1  0
 15 39  1  0
 15 40  1  0
 19 41  1  0
 20 42  1  0
 21 43  1  0
 22 44  1  0
M  END
>  <meeko>  (3) 
{"is_sidechain": [false], "free_energy": -8.254, "intermolecular_energy": -11.436, "internal_energy": -1.085}

$$$$
ligand_85_conformer_3_docked
     RDKit          3D

 44 47  0  0  0  0  0  0  0  0999 V2000
    9.9460   47.2450   54.4720 C   0  0  0  0  0  0  0  0  0  0  0  0
    9.9900   46.7630   53.0240 C   0  0  0  0  0  0  0  0  0  0  0  0
    9.0720   47.5850   52.1120 C   0  0  0  0  0  0  0  0  0  0  0  0
    7.6790   47.1590   52.2440 N   0  0  0  0  0  0  0  0  0  0  0  0
    6.7960   47.7640   53.0320 N   0  0  0  0  0  0  0  0  0  0  0  0
    5.6050   47.1380   52.8710 C   0  0  0  0  0  0  0  0  0  0  0  0
    4.4010   47.5070   53.5510 N   0  0  0  0  0  0  0  0  0  0  0  0
    4.0200   46.8700   54.8090 C   0  0  0  0  0  0  0  0  0  0  0  0
    2.9290   45.8740   54.5840 C   0  0  0  0  0  0  0  0  0  0  0  0
    2.1830   45.8150   53.4650 N   0  0  0  0  0  0  0  0  0  0  0  0
    1.3500   44.7960   53.7600 C   0  0  0  0  0  0  0  0  0  0  0  0
    0.2490   44.3400   52.8590 C   0  0  0  0  0  0  0  0  0  0  0  0
    0.6360   43.0110   52.2010 C   0  0  0  0  0  0  0  0  0  0  0  0
    2.1280   42.7310   52.1120 C   0  0  0  0  0  0  0  0  0  0  0  0
    1.3540   43.1410   50.8670 C   0  0  0  0  0  0  0  0  0  0  0  0
    1.5660   44.2870   54.9890 N   0  0  0  0  0  0  0  0  0  0  0  0
    2.5540   44.9800   55.4650 O   0  0  0  0  0  0  0  0  0  0  0  0
    5.7440   46.1180   51.9550 C   0  0  0  0  0  0  0  0  0  0  0  0
    4.8510   45.1870   51.4270 C   0  0  0  0  0  0  0  0  0  0  0  0
    5.3490   44.2750   50.4780 C   0  0  0  0  0  0  0  0  0  0  0  0
    6.7070   44.3170   50.0860 C   0  0  0  0  0  0  0  0  0  0  0  0
    7.5820   45.2710   50.6390 C   0  0  0  0  0  0  0  0  0  0  0  0
    7.0590   46.1610   51.5790 C   0  0  0  0  0  0  0  0  0  0  0  0
   10.0249   46.3812   55.1485 H   0  0  0  0  0  0  0  0  0  0  0  0
   10.7852   47.9322   54.6554 H   0  0  0  0  0  0  0  0  0  0  0  0
    8.9963   47.7689   54.6554 H   0  0  0  0  0  0  0  0  0  0  0  0
   11.0227   46.8456   52.6544 H   0  0  0  0  0  0  0  0  0  0  0  0
    9.6399   45.7204   53.0043 H   0  0  0  0  0  0  0  0  0  0  0  0
    9.1503   48.6472   52.3869 H   0  0  0  0  0  0  0  0  0  0  0  0
    9.3869   47.4309   51.0694 H   0  0  0  0  0  0  0  0  0  0  0  0
    3.7920   48.2480   53.1330 H   0  0  0  0  0  0  0  0  0  0  0  0
    4.8954   46.3576   55.2346 H   0  0  0  0  0  0  0  0  0  0  0  0
    3.6575   47.6429   55.5027 H   0  0  0  0  0  0  0  0  0  0  0  0
   -0.6709   44.2028   53.4464 H   0  0  0  0  0  0  0  0  0  0  0  0
    0.0801   45.0968   52.0788 H   0  0  0  0  0  0  0  0  0  0  0  0
   -0.2371   42.4523   52.5693 H   0  0  0  0  0  0  0  0  0  0  0  0
    2.8467   43.4282   52.5674 H   0  0  0  0  0  0  0  0  0  0  0  0
    2.7783   41.8855   52.3806 H   0  0  0  0  0  0  0  0  0  0  0  0
    1.5133   44.1345   50.4226 H   0  0  0  0  0  0  0  0  0  0  0  0
    1.2132   42.7145   49.8629 H   0  0  0  0  0  0  0  0  0  0  0  0
    3.7968   45.1660   51.7403 H   0  0  0  0  0  0  0  0  0  0  0  0
    4.6768   43.5238   50.0378 H   0  0  0  0  0  0  0  0  0  0  0  0
    7.0827   43.5983   49.3428 H   0  0  0  0  0  0  0  0  0  0  0  0
    8.6400   45.3137   50.3412 H   0  0  0  0  0  0  0  0  0  0  0  0
  1  2  1  0
  2  3  1  0
  3  4  1  0
  4  5  1  0
  5  6  2  0
  6  7  1  0
  7  8  1  0
  8  9  1  0
  9 10  2  0
 10 11  1  0
 11 12  1  0
 12 13  1  0
 13 14  1  0
 14 15  1  0
 11 16  2  0
 16 17  1  0
  6 18  1  0
 18 19  2  0
 19 20  1  0
 20 21  2  0
 21 22  1  0
 22 23  2  0
 23  4  1  0
 17  9  1  0
 23 18  1  0
 15 13  1  0
  1 24  1  0
  1 25  1  0
  1 26  1  0
  2 27  1  0
  2 28  1  0
  3 29  1  0
  3 30  1  0
  7 31  1  0
  8 32  1  0
  8 33  1  0
 12 34  1  0
 12 35  1  0
 13 36  1  0
 14 37  1  0
 14 38  1  0
 15 39  1  0
 15 40  1  0
 19 41  1  0
 20 42  1  0
 21 43  1  0
 22 44  1  0
M  END
>  <meeko>  (4) 
{"is_sidechain": [false], "free_energy": -8.141, "intermolecular_energy": -11.37, "internal_energy": -0.993}

$$$$
ligand_85_conformer_3_docked
     RDKit          3D

 44 47  0  0  0  0  0  0  0  0999 V2000
    5.4170   44.8580   55.4010 C   0  0  0  0  0  0  0  0  0  0  0  0
    4.5860   46.1020   55.0950 C   0  0  0  0  0  0  0  0  0  0  0  0
    5.4190   47.2060   54.4320 C   0  0  0  0  0  0  0  0  0  0  0  0
    6.2130   46.6740   53.3250 N   0  0  0  0  0  0  0  0  0  0  0  0
    5.6850   46.0780   52.2600 N   0  0  0  0  0  0  0  0  0  0  0  0
    6.7010   45.7570   51.4230 C   0  0  0  0  0  0  0  0  0  0  0  0
    6.5310   45.1040   50.1610 N   0  0  0  0  0  0  0  0  0  0  0  0
    6.7840   43.6720   50.0130 C   0  0  0  0  0  0  0  0  0  0  0  0
    5.5770   42.8830   50.4060 C   0  0  0  0  0  0  0  0  0  0  0  0
    4.4220   43.4320   50.8260 N   0  0  0  0  0  0  0  0  0  0  0  0
    3.6840   42.3300   51.0730 C   0  0  0  0  0  0  0  0  0  0  0  0
    2.2990   42.3710   51.6320 C   0  0  0  0  0  0  0  0  0  0  0  0
    2.3130   43.0650   52.9980 C   0  0  0  0  0  0  0  0  0  0  0  0
    0.9550   43.4950   53.5320 C   0  0  0  0  0  0  0  0  0  0  0  0
    1.9180   44.5340   52.9750 C   0  0  0  0  0  0  0  0  0  0  0  0
    4.3600   41.1890   50.8390 N   0  0  0  0  0  0  0  0  0  0  0  0
    5.5270   41.5740   50.4230 O   0  0  0  0  0  0  0  0  0  0  0  0
    7.8960   46.1670   51.9750 C   0  0  0  0  0  0  0  0  0  0  0  0
    9.2170   46.0950   51.5380 C   0  0  0  0  0  0  0  0  0  0  0  0
   10.2080   46.6410   52.3760 C   0  0  0  0  0  0  0  0  0  0  0  0
    9.8580   47.2370   53.6090 C   0  0  0  0  0  0  0  0  0  0  0  0
    8.5110   47.2930   54.0190 C   0  0  0  0  0  0  0  0  0  0  0  0
    7.5520   46.7410   53.1680 C   0  0  0  0  0  0  0  0  0  0  0  0
    5.5011   44.7321   56.4905 H   0  0  0  0  0  0  0  0  0  0  0  0
    4.9274   43.9740   54.9665 H   0  0  0  0  0  0  0  0  0  0  0  0
    6.4211   44.9718   54.9665 H   0  0  0  0  0  0  0  0  0  0  0  0
    3.7655   45.8223   54.4179 H   0  0  0  0  0  0  0  0  0  0  0  0
    4.2020   46.4947   56.0481 H   0  0  0  0  0  0  0  0  0  0  0  0
    4.7432   47.9842   54.0478 H   0  0  0  0  0  0  0  0  0  0  0  0
    6.1043   47.6253   55.1834 H   0  0  0  0  0  0  0  0  0  0  0  0
    6.2180   45.6690   49.3380 H   0  0  0  0  0  0  0  0  0  0  0  0
    7.0322   43.4550   48.9636 H   0  0  0  0  0  0  0  0  0  0  0  0
    7.6218   43.3896   50.6675 H   0  0  0  0  0  0  0  0  0  0  0  0
    1.6442   42.9280   50.9457 H   0  0  0  0  0  0  0  0  0  0  0  0
    1.9233   41.3438   51.7494 H   0  0  0  0  0  0  0  0  0  0  0  0
    3.1572   42.4869   53.4018 H   0  0  0  0  0  0  0  0  0  0  0  0
    0.0400   43.2399   52.9774 H   0  0  0  0  0  0  0  0  0  0  0  0
    0.4157   43.3643   54.4818 H   0  0  0  0  0  0  0  0  0  0  0  0
    1.6989   45.0298   52.0178 H   0  0  0  0  0  0  0  0  0  0  0  0
    2.3630   45.4653   53.3554 H   0  0  0  0  0  0  0  0  0  0  0  0
    9.4757   45.6296   50.5755 H   0  0  0  0  0  0  0  0  0  0  0  0
   11.2635   46.6034   52.0686 H   0  0  0  0  0  0  0  0  0  0  0  0
   10.6428   47.6602   54.2532 H   0  0  0  0  0  0  0  0  0  0  0  0
    8.2254   47.7552   54.9755 H   0  0  0  0  0  0  0  0  0  0  0  0
  1  2  1  0
  2  3  1  0
  3  4  1  0
  4  5  1  0
  5  6  2  0
  6  7  1  0
  7  8  1  0
  8  9  1  0
  9 10  2  0
 10 11  1  0
 11 12  1  0
 12 13  1  0
 13 14  1  0
 14 15  1  0
 11 16  2  0
 16 17  1  0
  6 18  1  0
 18 19  2  0
 19 20  1  0
 20 21  2  0
 21 22  1  0
 22 23  2  0
 23  4  1  0
 17  9  1  0
 23 18  1  0
 15 13  1  0
  1 24  1  0
  1 25  1  0
  1 26  1  0
  2 27  1  0
  2 28  1  0
  3 29  1  0
  3 30  1  0
  7 31  1  0
  8 32  1  0
  8 33  1  0
 12 34  1  0
 12 35  1  0
 13 36  1  0
 14 37  1  0
 14 38  1  0
 15 39  1  0
 15 40  1  0
 19 41  1  0
 20 42  1  0
 21 43  1  0
 22 44  1  0
M  END
>  <meeko>  (5) 
{"is_sidechain": [false], "free_energy": -7.971, "intermolecular_energy": -11.312, "internal_energy": -0.812}

$$$$
