ligand_5_conformer_2_docked
     RDKit          3D

 36 38  0  0  0  0  0  0  0  0999 V2000
    5.5880   44.5130   53.7340 O   0  0  0  0  0  0  0  0  0  0  0  0
    5.0520   45.2130   52.8330 C   0  0  0  0  0  0  0  0  0  0  0  0
    5.8200   46.1790   52.0960 N   0  0  0  0  0  0  0  0  0  0  0  0
    7.2110   46.4500   52.3310 C   0  0  0  0  0  0  0  0  0  0  0  0
    8.2000   46.0600   51.4110 C   0  0  0  0  0  0  0  0  0  0  0  0
    9.5440   46.3500   51.6560 C   0  0  0  0  0  0  0  0  0  0  0  0
    9.9130   47.0460   52.8090 C   0  0  0  0  0  0  0  0  0  0  0  0
    8.9350   47.4750   53.7200 C   0  0  0  0  0  0  0  0  0  0  0  0
    9.3300   48.2090   54.9740 C   0  0  0  0  0  0  0  0  0  0  0  0
   10.5180   47.5350   55.6610 C   0  0  0  0  0  0  0  0  0  0  0  0
   10.6330   47.9890   56.9810 O   0  0  0  0  0  0  0  0  0  0  0  0
    7.5860   47.1720   53.4740 C   0  0  0  0  0  0  0  0  0  0  0  0
    3.6330   44.9970   52.5160 C   0  0  0  0  0  0  0  0  0  0  0  0
    3.1040   44.9750   51.2270 C   0  0  0  0  0  0  0  0  0  0  0  0
    1.7540   44.9300   51.2700 N   0  0  0  0  0  0  0  0  0  0  0  0
    1.4330   44.9140   52.5720 C   0  0  0  0  0  0  0  0  0  0  0  0
    0.1760   44.8990   53.0760 N   0  0  0  0  0  0  0  0  0  0  0  0
    0.0180   44.8870   54.4310 C   0  0  0  0  0  0  0  0  0  0  0  0
    1.1090   44.8610   55.2570 N   0  0  0  0  0  0  0  0  0  0  0  0
    2.3820   44.8620   54.7630 C   0  0  0  0  0  0  0  0  0  0  0  0
    3.4520   44.7390   55.6470 O   0  0  0  0  0  0  0  0  0  0  0  0
    2.5420   44.9340   53.3730 C   0  0  0  0  0  0  0  0  0  0  0  0
    5.3170   46.7880   51.4120 H   0  0  0  0  0  0  0  0  0  0  0  0
    7.9139   45.5240   50.4940 H   0  0  0  0  0  0  0  0  0  0  0  0
   10.3139   46.0293   50.9388 H   0  0  0  0  0  0  0  0  0  0  0  0
   10.9744   47.2590   53.0042 H   0  0  0  0  0  0  0  0  0  0  0  0
    9.6054   49.2415   54.7132 H   0  0  0  0  0  0  0  0  0  0  0  0
    8.4757   48.1974   55.6669 H   0  0  0  0  0  0  0  0  0  0  0  0
   10.3666   46.4455   55.6631 H   0  0  0  0  0  0  0  0  0  0  0  0
   11.4389   47.7844   55.1135 H   0  0  0  0  0  0  0  0  0  0  0  0
   10.3300   48.9340   56.9740 H   0  0  0  0  0  0  0  0  0  0  0  0
    6.8152   47.5043   54.1850 H   0  0  0  0  0  0  0  0  0  0  0  0
    3.7016   44.9919   50.3037 H   0  0  0  0  0  0  0  0  0  0  0  0
    1.0990   44.9290   50.4570 H   0  0  0  0  0  0  0  0  0  0  0  0
   -0.9936   44.8983   54.8628 H   0  0  0  0  0  0  0  0  0  0  0  0
    4.1350   45.4720   55.7810 H   0  0  0  0  0  0  0  0  0  0  0  0
  1  2  2  0
  2  3  1  0
  3  4  1  0
  4  5  2  0
  5  6  1  0
  6  7  2  0
  7  8  1  0
  8  9  1  0
  9 10  1  0
 10 11  1  0
  8 12  2  0
  2 13  1  0
 13 14  2  0
 14 15  1  0
 15 16  1  0
 16 17  2  0
 17 18  1  0
 18 19  2  0
 19 20  1  0
 20 21  1  0
 20 22  2  0
 12  4  1  0
 22 13  1  0
 22 16  1  0
  3 23  1  0
  5 24  1  0
  6 25  1  0
  7 26  1  0
  9 27  1  0
  9 28  1  0
 10 29  1  0
 10 30  1  0
 11 31  1  0
 12 32  1  0
 14 33  1  0
 15 34  1  0
 18 35  1  0
 21 36  1  0
M  END
>  <meeko>  (1) 
{"is_sidechain": [false], "free_energy": -8.523, "intermolecular_energy": -11.014, "internal_energy": -0.608}

$$$$
ligand_5_conformer_2_docked
     RDKit          3D

 36 38  0  0  0  0  0  0  0  0999 V2000
    5.0350   47.7730   54.2720 O   0  0  0  0  0  0  0  0  0  0  0  0
    4.7340   46.5640   54.0830 C   0  0  0  0  0  0  0  0  0  0  0  0
    5.6680   45.6600   53.4690 N   0  0  0  0  0  0  0  0  0  0  0  0
    6.9710   46.0430   53.0000 C   0  0  0  0  0  0  0  0  0  0  0  0
    7.2600   46.1320   51.6280 C   0  0  0  0  0  0  0  0  0  0  0  0
    8.5310   46.5210   51.2000 C   0  0  0  0  0  0  0  0  0  0  0  0
    9.5190   46.8420   52.1330 C   0  0  0  0  0  0  0  0  0  0  0  0
    9.2360   46.7930   53.5070 C   0  0  0  0  0  0  0  0  0  0  0  0
   10.3040   47.1190   54.5180 C   0  0  0  0  0  0  0  0  0  0  0  0
    9.8170   48.1620   55.5230 C   0  0  0  0  0  0  0  0  0  0  0  0
   10.5930   48.1100   56.6880 O   0  0  0  0  0  0  0  0  0  0  0  0
    7.9600   46.3920   53.9330 C   0  0  0  0  0  0  0  0  0  0  0  0
    3.4240   46.0780   54.5400 C   0  0  0  0  0  0  0  0  0  0  0  0
    3.1580   45.6050   55.8230 C   0  0  0  0  0  0  0  0  0  0  0  0
    1.9170   45.0730   55.8850 N   0  0  0  0  0  0  0  0  0  0  0  0
    1.4000   45.2180   54.6560 C   0  0  0  0  0  0  0  0  0  0  0  0
    0.1760   44.7940   54.2580 N   0  0  0  0  0  0  0  0  0  0  0  0
   -0.2010   45.0160   52.9660 C   0  0  0  0  0  0  0  0  0  0  0  0
    0.6300   45.6790   52.1040 N   0  0  0  0  0  0  0  0  0  0  0  0
    1.8610   46.1220   52.4940 C   0  0  0  0  0  0  0  0  0  0  0  0
    2.6240   46.8730   51.6020 O   0  0  0  0  0  0  0  0  0  0  0  0
    2.2710   45.8410   53.8030 C   0  0  0  0  0  0  0  0  0  0  0  0
    5.3460   44.6870   53.2650 H   0  0  0  0  0  0  0  0  0  0  0  0
    6.4818   45.8943   50.8878 H   0  0  0  0  0  0  0  0  0  0  0  0
    8.7546   46.5747   50.1243 H   0  0  0  0  0  0  0  0  0  0  0  0
   10.5225   47.1343   51.7901 H   0  0  0  0  0  0  0  0  0  0  0  0
   10.5779   46.2010   55.0586 H   0  0  0  0  0  0  0  0  0  0  0  0
   11.1735   47.5304   53.9843 H   0  0  0  0  0  0  0  0  0  0  0  0
    9.8993   49.1637   55.0759 H   0  0  0  0  0  0  0  0  0  0  0  0
    8.7686   47.9507   55.7802 H   0  0  0  0  0  0  0  0  0  0  0  0
    9.9560   47.9840   57.4380 H   0  0  0  0  0  0  0  0  0  0  0  0
    7.7329   46.3508   55.0085 H   0  0  0  0  0  0  0  0  0  0  0  0
    3.8602   45.6572   56.6681 H   0  0  0  0  0  0  0  0  0  0  0  0
    1.4660   44.6240   56.7120 H   0  0  0  0  0  0  0  0  0  0  0  0
   -1.1804   44.6594   52.6142 H   0  0  0  0  0  0  0  0  0  0  0  0
    3.3470   47.5110   51.9070 H   0  0  0  0  0  0  0  0  0  0  0  0
  1  2  2  0
  2  3  1  0
  3  4  1  0
  4  5  2  0
  5  6  1  0
  6  7  2  0
  7  8  1  0
  8  9  1  0
  9 10  1  0
 10 11  1  0
  8 12  2  0
  2 13  1  0
 13 14  2  0
 14 15  1  0
 15 16  1  0
 16 17  2  0
 17 18  1  0
 18 19  2  0
 19 20  1  0
 20 21  1  0
 20 22  2  0
 12  4  1  0
 22 13  1  0
 22 16  1  0
  3 23  1  0
  5 24  1  0
  6 25  1  0
  7 26  1  0
  9 27  1  0
  9 28  1  0
 10 29  1  0
 10 30  1  0
 11 31  1  0
 12 32  1  0
 14 33  1  0
 15 34  1  0
 18 35  1  0
 21 36  1  0
M  END
>  <meeko>  (2) 
{"is_sidechain": [false], "free_energy": -8.268, "intermolecular_energy": -10.847, "internal_energy": -0.446}

$$$$
ligand_5_conformer_2_docked
     RDKit          3D

 36 38  0  0  0  0  0  0  0  0999 V2000
    4.6900   45.8640   50.9830 O   0  0  0  0  0  0  0  0  0  0  0  0
    5.4520   45.5270   51.9290 C   0  0  0  0  0  0  0  0  0  0  0  0
    4.9740   44.6900   52.9960 N   0  0  0  0  0  0  0  0  0  0  0  0
    3.6260   44.2040   53.0980 C   0  0  0  0  0  0  0  0  0  0  0  0
    3.1660   43.1440   52.2980 C   0  0  0  0  0  0  0  0  0  0  0  0
    1.8560   42.6810   52.4280 C   0  0  0  0  0  0  0  0  0  0  0  0
    0.9970   43.2570   53.3660 C   0  0  0  0  0  0  0  0  0  0  0  0
    1.4510   44.2930   54.1970 C   0  0  0  0  0  0  0  0  0  0  0  0
    0.5220   44.9310   55.1970 C   0  0  0  0  0  0  0  0  0  0  0  0
    1.2980   45.5380   56.3660 C   0  0  0  0  0  0  0  0  0  0  0  0
    0.8890   44.9540   57.5720 O   0  0  0  0  0  0  0  0  0  0  0  0
    2.7670   44.7620   54.0570 C   0  0  0  0  0  0  0  0  0  0  0  0
    6.8530   45.9690   51.9050 C   0  0  0  0  0  0  0  0  0  0  0  0
    7.7440   45.7240   50.8620 C   0  0  0  0  0  0  0  0  0  0  0  0
    8.9940   46.1020   51.2080 N   0  0  0  0  0  0  0  0  0  0  0  0
    8.8940   46.5900   52.4530 C   0  0  0  0  0  0  0  0  0  0  0  0
    9.9200   47.0590   53.2030 N   0  0  0  0  0  0  0  0  0  0  0  0
    9.6510   47.5200   54.4580 C   0  0  0  0  0  0  0  0  0  0  0  0
    8.3670   47.5350   54.9310 N   0  0  0  0  0  0  0  0  0  0  0  0
    7.3210   47.0780   54.1820 C   0  0  0  0  0  0  0  0  0  0  0  0
    6.0260   47.2050   54.6780 O   0  0  0  0  0  0  0  0  0  0  0  0
    7.6080   46.5500   52.9170 C   0  0  0  0  0  0  0  0  0  0  0  0
    5.6190   44.5000   53.7970 H   0  0  0  0  0  0  0  0  0  0  0  0
    3.8416   42.6772   51.5661 H   0  0  0  0  0  0  0  0  0  0  0  0
    1.4990   41.8596   51.7894 H   0  0  0  0  0  0  0  0  0  0  0  0
   -0.0389   42.8977   53.4540 H   0  0  0  0  0  0  0  0  0  0  0  0
   -0.0523   45.7249   54.6971 H   0  0  0  0  0  0  0  0  0  0  0  0
   -0.1501   44.1548   55.5916 H   0  0  0  0  0  0  0  0  0  0  0  0
    2.3734   45.3578   56.2211 H   0  0  0  0  0  0  0  0  0  0  0  0
    1.1009   46.6195   56.4053 H   0  0  0  0  0  0  0  0  0  0  0  0
    0.3810   45.6530   58.0590 H   0  0  0  0  0  0  0  0  0  0  0  0
    3.1279   45.5743   54.7050 H   0  0  0  0  0  0  0  0  0  0  0  0
    7.4681   45.2842   49.8922 H   0  0  0  0  0  0  0  0  0  0  0  0
    9.8600   46.0110   50.6320 H   0  0  0  0  0  0  0  0  0  0  0  0
   10.4718   47.8823   55.0944 H   0  0  0  0  0  0  0  0  0  0  0  0
    5.3420   46.4630   54.6130 H   0  0  0  0  0  0  0  0  0  0  0  0
  1  2  2  0
  2  3  1  0
  3  4  1  0
  4  5  2  0
  5  6  1  0
  6  7  2  0
  7  8  1  0
  8  9  1  0
  9 10  1  0
 10 11  1  0
  8 12  2  0
  2 13  1  0
 13 14  2  0
 14 15  1  0
 15 16  1  0
 16 17  2  0
 17 18  1  0
 18 19  2  0
 19 20  1  0
 20 21  1  0
 20 22  2  0
 12  4  1  0
 22 13  1  0
 22 16  1  0
  3 23  1  0
  5 24  1  0
  6 25  1  0
  7 26  1  0
  9 27  1  0
  9 28  1  0
 10 29  1  0
 10 30  1  0
 11 31  1  0
 12 32  1  0
 14 33  1  0
 15 34  1  0
 18 35  1  0
 21 36  1  0
M  END
>  <meeko>  (3) 
{"is_sidechain": [false], "free_energy": -8.071, "intermolecular_energy": -10.336, "internal_energy": -0.702}

$$$$
ligand_5_conformer_2_docked
     RDKit          3D

 36 38  0  0  0  0  0  0  0  0999 V2000
    3.1640   46.2790   52.0590 O   0  0  0  0  0  0  0  0  0  0  0  0
    3.5150   45.6480   53.0930 C   0  0  0  0  0  0  0  0  0  0  0  0
    4.8050   45.0190   53.1690 N   0  0  0  0  0  0  0  0  0  0  0  0
    5.7670   45.0210   52.1020 C   0  0  0  0  0  0  0  0  0  0  0  0
    6.7810   45.9930   52.0290 C   0  0  0  0  0  0  0  0  0  0  0  0
    7.7120   45.9620   50.9890 C   0  0  0  0  0  0  0  0  0  0  0  0
    7.6540   44.9560   50.0230 C   0  0  0  0  0  0  0  0  0  0  0  0
    6.6710   43.9570   50.1010 C   0  0  0  0  0  0  0  0  0  0  0  0
    6.5910   42.8800   49.0510 C   0  0  0  0  0  0  0  0  0  0  0  0
    6.1750   41.5420   49.6590 C   0  0  0  0  0  0  0  0  0  0  0  0
    7.3070   40.8130   50.0450 O   0  0  0  0  0  0  0  0  0  0  0  0
    5.7300   43.9970   51.1430 C   0  0  0  0  0  0  0  0  0  0  0  0
    2.6000   45.6010   54.2410 C   0  0  0  0  0  0  0  0  0  0  0  0
    2.9880   45.7490   55.5710 C   0  0  0  0  0  0  0  0  0  0  0  0
    1.9530   45.4860   56.3990 N   0  0  0  0  0  0  0  0  0  0  0  0
    0.9180   45.1860   55.6020 C   0  0  0  0  0  0  0  0  0  0  0  0
   -0.3210   44.8280   56.0150 N   0  0  0  0  0  0  0  0  0  0  0  0
   -1.2660   44.5490   55.0730 C   0  0  0  0  0  0  0  0  0  0  0  0
   -0.9730   44.6600   53.7410 N   0  0  0  0  0  0  0  0  0  0  0  0
    0.2670   45.0320   53.3090 C   0  0  0  0  0  0  0  0  0  0  0  0
    0.4820   45.2200   51.9450 O   0  0  0  0  0  0  0  0  0  0  0  0
    1.2540   45.2590   54.2770 C   0  0  0  0  0  0  0  0  0  0  0  0
    5.0220   44.4460   54.0150 H   0  0  0  0  0  0  0  0  0  0  0  0
    6.8408   46.7808   52.7944 H   0  0  0  0  0  0  0  0  0  0  0  0
    8.4942   46.7332   50.9306 H   0  0  0  0  0  0  0  0  0  0  0  0
    8.3812   44.9461   49.1977 H   0  0  0  0  0  0  0  0  0  0  0  0
    5.8513   43.1740   48.2918 H   0  0  0  0  0  0  0  0  0  0  0  0
    7.5867   42.7613   48.5988 H   0  0  0  0  0  0  0  0  0  0  0  0
    5.5424   41.7244   50.5402 H   0  0  0  0  0  0  0  0  0  0  0  0
    5.6156   40.9650   48.9079 H   0  0  0  0  0  0  0  0  0  0  0  0
    6.9890   40.1350   50.6960 H   0  0  0  0  0  0  0  0  0  0  0  0
    4.9562   43.2179   51.2080 H   0  0  0  0  0  0  0  0  0  0  0  0
    3.9963   46.0395   55.9010 H   0  0  0  0  0  0  0  0  0  0  0  0
    1.9660   45.4950   57.4430 H   0  0  0  0  0  0  0  0  0  0  0  0
   -2.2718   44.2322   55.3860 H   0  0  0  0  0  0  0  0  0  0  0  0
   -0.2740   45.3580   51.2890 H   0  0  0  0  0  0  0  0  0  0  0  0
  1  2  2  0
  2  3  1  0
  3  4  1  0
  4  5  2  0
  5  6  1  0
  6  7  2  0
  7  8  1  0
  8  9  1  0
  9 10  1  0
 10 11  1  0
  8 12  2  0
  2 13  1  0
 13 14  2  0
 14 15  1  0
 15 16  1  0
 16 17  2  0
 17 18  1  0
 18 19  2  0
 19 20  1  0
 20 21  1  0
 20 22  2  0
 12  4  1  0
 22 13  1  0
 22 16  1  0
  3 23  1  0
  5 24  1  0
  6 25  1  0
  7 26  1  0
  9 27  1  0
  9 28  1  0
 10 29  1  0
 10 30  1  0
 11 31  1  0
 12 32  1  0
 14 33  1  0
 15 34  1  0
 18 35  1  0
 21 36  1  0
M  END
>  <meeko>  (4) 
{"is_sidechain": [false], "free_energy": -8.038, "intermolecular_energy": -10.271, "internal_energy": -0.724}

$$$$
ligand_5_conformer_2_docked
     RDKit          3D

 36 38  0  0  0  0  0  0  0  0999 V2000
    5.5420   44.6350   53.5050 O   0  0  0  0  0  0  0  0  0  0  0  0
    5.0330   45.6700   52.9960 C   0  0  0  0  0  0  0  0  0  0  0  0
    5.8320   46.8400   52.7540 N   0  0  0  0  0  0  0  0  0  0  0  0
    7.2260   46.9470   53.0860 C   0  0  0  0  0  0  0  0  0  0  0  0
    7.6480   47.4850   54.3150 C   0  0  0  0  0  0  0  0  0  0  0  0
    9.0080   47.5630   54.6190 C   0  0  0  0  0  0  0  0  0  0  0  0
    9.9590   47.0930   53.7110 C   0  0  0  0  0  0  0  0  0  0  0  0
    9.5540   46.5200   52.4960 C   0  0  0  0  0  0  0  0  0  0  0  0
   10.5760   46.0290   51.5050 C   0  0  0  0  0  0  0  0  0  0  0  0
    9.9540   45.0620   50.4980 C   0  0  0  0  0  0  0  0  0  0  0  0
   10.6960   43.8750   50.4470 O   0  0  0  0  0  0  0  0  0  0  0  0
    8.1850   46.4520   52.1900 C   0  0  0  0  0  0  0  0  0  0  0  0
    3.6150   45.6490   52.6140 C   0  0  0  0  0  0  0  0  0  0  0  0
    2.6840   46.6240   52.9680 C   0  0  0  0  0  0  0  0  0  0  0  0
    1.4370   46.2380   52.6160 N   0  0  0  0  0  0  0  0  0  0  0  0
    1.5790   45.0380   52.0360 C   0  0  0  0  0  0  0  0  0  0  0  0
    0.5730   44.2680   51.5560 N   0  0  0  0  0  0  0  0  0  0  0  0
    0.8860   43.0640   50.9960 C   0  0  0  0  0  0  0  0  0  0  0  0
    2.1900   42.6620   50.8960 N   0  0  0  0  0  0  0  0  0  0  0  0
    3.2150   43.4330   51.3630 C   0  0  0  0  0  0  0  0  0  0  0  0
    4.5270   43.0170   51.1500 O   0  0  0  0  0  0  0  0  0  0  0  0
    2.8880   44.6410   51.9920 C   0  0  0  0  0  0  0  0  0  0  0  0
    5.3510   47.6980   52.4010 H   0  0  0  0  0  0  0  0  0  0  0  0
    6.9032   47.8458   55.0396 H   0  0  0  0  0  0  0  0  0  0  0  0
    9.3317   47.9961   55.5769 H   0  0  0  0  0  0  0  0  0  0  0  0
   11.0300   47.1723   53.9492 H   0  0  0  0  0  0  0  0  0  0  0  0
   10.9929   46.8910   50.9635 H   0  0  0  0  0  0  0  0  0  0  0  0
   11.3653   45.4963   52.0557 H   0  0  0  0  0  0  0  0  0  0  0  0
    8.9223   44.8330   50.8033 H   0  0  0  0  0  0  0  0  0  0  0  0
    9.9553   45.5298   49.5024 H   0  0  0  0  0  0  0  0  0  0  0  0
   10.0630   43.1440   50.6720 H   0  0  0  0  0  0  0  0  0  0  0  0
    7.8615   46.0060   51.2379 H   0  0  0  0  0  0  0  0  0  0  0  0
    2.9295   47.5745   53.4643 H   0  0  0  0  0  0  0  0  0  0  0  0
    0.5480   46.7600   52.7830 H   0  0  0  0  0  0  0  0  0  0  0  0
    0.0836   42.4112   50.6219 H   0  0  0  0  0  0  0  0  0  0  0  0
    4.7590   42.2210   50.5710 H   0  0  0  0  0  0  0  0  0  0  0  0
  1  2  2  0
  2  3  1  0
  3  4  1  0
  4  5  2  0
  5  6  1  0
  6  7  2  0
  7  8  1  0
  8  9  1  0
  9 10  1  0
 10 11  1  0
  8 12  2  0
  2 13  1  0
 13 14  2  0
 14 15  1  0
 15 16  1  0
 16 17  2  0
 17 18  1  0
 18 19  2  0
 19 20  1  0
 20 21  1  0
 20 22  2  0
 12  4  1  0
 22 13  1  0
 22 16  1  0
  3 23  1  0
  5 24  1  0
  6 25  1  0
  7 26  1  0
  9 27  1  0
  9 28  1  0
 10 29  1  0
 10 30  1  0
 11 31  1  0
 12 32  1  0
 14 33  1  0
 15 34  1  0
 18 35  1  0
 21 36  1  0
M  END
>  <meeko>  (5) 
{"is_sidechain": [false], "free_energy": -8.021, "intermolecular_energy": -10.279, "internal_energy": -0.693}

$$$$
