ligand_2_conformer_3_docked
     RDKit          3D

 59 62  0  0  0  0  0  0  0  0999 V2000
   -3.7560   45.5580   57.6700 C   0  0  0  0  0  0  0  0  0  0  0  0
   -2.3050   45.6410   57.3070 C   0  0  0  0  0  0  0  0  0  0  0  0
   -1.5550   44.5990   56.8030 C   0  0  0  0  0  0  0  0  0  0  0  0
   -0.3090   45.1640   56.5780 C   0  0  0  0  0  0  0  0  0  0  0  0
    0.8330   44.5210   55.9970 N   0  0  0  0  0  0  0  0  0  0  0  0
    1.2650   44.7010   54.6400 C   0  0  0  0  0  0  0  0  0  0  0  0
    0.5340   45.3120   53.8120 O   0  0  0  0  0  0  0  0  0  0  0  0
    2.5180   44.1450   54.2170 N   0  0  0  0  0  0  0  0  0  0  0  0
    2.9910   44.2430   52.8310 C   0  0  0  0  0  0  0  0  0  0  0  0
    4.3780   43.5800   52.6770 C   0  0  0  0  0  0  0  0  0  0  0  0
    5.4990   44.6170   52.8120 C   0  0  0  0  0  0  0  0  0  0  0  0
    5.4480   45.6330   51.7270 N   0  0  0  0  0  0  0  0  0  0  0  0
    6.2440   46.8550   52.0430 C   0  0  1  0  0  0  0  0  0  0  0  0
    5.9390   47.4160   53.4470 C   0  0  0  0  0  0  0  0  0  0  0  0
    7.7320   46.5550   51.9850 C   0  0  0  0  0  0  0  0  0  0  0  0
    8.6100   47.0950   52.9430 C   0  0  0  0  0  0  0  0  0  0  0  0
    9.9800   46.8290   52.8740 C   0  0  0  0  0  0  0  0  0  0  0  0
   10.4890   46.0340   51.8430 C   0  0  0  0  0  0  0  0  0  0  0  0
    9.6280   45.5070   50.8780 C   0  0  0  0  0  0  0  0  0  0  0  0
    8.2550   45.7680   50.9450 C   0  0  0  0  0  0  0  0  0  0  0  0
    4.0570   45.9620   51.2920 C   0  0  0  0  0  0  0  0  0  0  0  0
    3.0110   45.7230   52.3900 C   0  0  0  0  0  0  0  0  0  0  0  0
   -0.3180   46.4650   56.9220 N   0  0  0  0  0  0  0  0  0  0  0  0
   -1.5280   46.7480   57.3810 N   0  0  0  0  0  0  0  0  0  0  0  0
   -1.8980   48.0540   57.8560 C   0  0  0  0  0  0  0  0  0  0  0  0
   -2.8100   48.8460   57.1330 C   0  0  0  0  0  0  0  0  0  0  0  0
   -3.1850   50.1040   57.6110 C   0  0  0  0  0  0  0  0  0  0  0  0
   -2.6610   50.5820   58.8150 C   0  0  0  0  0  0  0  0  0  0  0  0
   -3.0270   51.8030   59.2770 F   0  0  0  0  0  0  0  0  0  0  0  0
   -1.7660   49.7970   59.5470 C   0  0  0  0  0  0  0  0  0  0  0  0
   -1.3890   48.5350   59.0760 C   0  0  0  0  0  0  0  0  0  0  0  0
   -0.5120   47.7920   59.7960 F   0  0  0  0  0  0  0  0  0  0  0  0
   -3.8603   45.5520   58.7650 H   0  0  0  0  0  0  0  0  0  0  0  0
   -4.2879   46.4272   57.2558 H   0  0  0  0  0  0  0  0  0  0  0  0
   -4.1853   44.6338   57.2558 H   0  0  0  0  0  0  0  0  0  0  0  0
   -1.8717   43.5613   56.6217 H   0  0  0  0  0  0  0  0  0  0  0  0
    1.3570   43.8400   56.5920 H   0  0  0  0  0  0  0  0  0  0  0  0
    3.1100   43.6620   54.9310 H   0  0  0  0  0  0  0  0  0  0  0  0
    2.2981   43.6985   52.1727 H   0  0  0  0  0  0  0  0  0  0  0  0
    4.4998   42.8146   53.4575 H   0  0  0  0  0  0  0  0  0  0  0  0
    4.4401   43.1239   51.6780 H   0  0  0  0  0  0  0  0  0  0  0  0
    5.3972   45.1266   53.7815 H   0  0  0  0  0  0  0  0  0  0  0  0
    6.4617   44.0897   52.7404 H   0  0  0  0  0  0  0  0  0  0  0  0
    5.9597   47.6020   51.2872 H   0  0  0  0  0  0  0  0  0  0  0  0
    6.3174   46.7200   54.2101 H   0  0  0  0  0  0  0  0  0  0  0  0
    6.4301   48.3931   53.5661 H   0  0  0  0  0  0  0  0  0  0  0  0
    4.8520   47.5351   53.5661 H   0  0  0  0  0  0  0  0  0  0  0  0
    8.2158   47.7297   53.7503 H   0  0  0  0  0  0  0  0  0  0  0  0
   10.6591   47.2459   53.6323 H   0  0  0  0  0  0  0  0  0  0  0  0
   11.5675   45.8236   51.7918 H   0  0  0  0  0  0  0  0  0  0  0  0
   10.0298   44.8858   50.0640 H   0  0  0  0  0  0  0  0  0  0  0  0
    7.5815   45.3550   50.1796 H   0  0  0  0  0  0  0  0  0  0  0  0
    4.0227   47.0221   51.0004 H   0  0  0  0  0  0  0  0  0  0  0  0
    3.8095   45.2961   50.4522 H   0  0  0  0  0  0  0  0  0  0  0  0
    3.2527   46.3529   53.2588 H   0  0  0  0  0  0  0  0  0  0  0  0
    2.0198   45.9797   51.9880 H   0  0  0  0  0  0  0  0  0  0  0  0
   -3.2294   48.4725   56.1871 H   0  0  0  0  0  0  0  0  0  0  0  0
   -3.8943   50.7196   57.0384 H   0  0  0  0  0  0  0  0  0  0  0  0
   -1.3568   50.1727   60.4964 H   0  0  0  0  0  0  0  0  0  0  0  0
  1  2  1  0
  2  3  2  0
  3  4  1  0
  4  5  1  0
  5  6  1  0
  6  7  2  0
  6  8  1  0
  8  9  1  0
  9 10  1  0
 10 11  1  0
 11 12  1  0
 12 13  1  0
 13 14  1  0
 13 15  1  0
 15 16  2  0
 16 17  1  0
 17 18  2  0
 18 19  1  0
 19 20  2  0
 12 21  1  0
 21 22  1  0
  4 23  2  0
 23 24  1  0
 24 25  1  0
 25 26  2  0
 26 27  1  0
 27 28  2  0
 28 29  1  0
 28 30  1  0
 30 31  2  0
 31 32  1  0
 24  2  1  0
 31 25  1  0
 22  9  1  0
 20 15  1  0
  1 33  1  0
  1 34  1  0
  1 35  1  0
  3 36  1  0
  5 37  1  0
  8 38  1  0
  9 39  1  0
 10 40  1  0
 10 41  1  0
 11 42  1  0
 11 43  1  0
 13 44  1  6
 14 45  1  0
 14 46  1  0
 14 47  1  0
 16 48  1  0
 17 49  1  0
 18 50  1  0
 19 51  1  0
 20 52  1  0
 21 53  1  0
 21 54  1  0
 22 55  1  0
 22 56  1  0
 26 57  1  0
 27 58  1  0
 30 59  1  0
M  END
>  <meeko>  (1) 
{"is_sidechain": [false], "free_energy": -9.095, "intermolecular_energy": -11.754, "internal_energy": -0.607}

$$$$
ligand_2_conformer_3_docked
     RDKit          3D

 59 62  0  0  0  0  0  0  0  0999 V2000
   -2.4910   44.0000   57.5790 C   0  0  0  0  0  0  0  0  0  0  0  0
   -1.6520   44.5160   56.4490 C   0  0  0  0  0  0  0  0  0  0  0  0
   -1.4590   43.8660   55.2470 C   0  0  0  0  0  0  0  0  0  0  0  0
   -0.6680   44.7410   54.5200 C   0  0  0  0  0  0  0  0  0  0  0  0
   -0.2240   44.5750   53.1660 N   0  0  0  0  0  0  0  0  0  0  0  0
    1.1090   44.8460   52.7080 C   0  0  0  0  0  0  0  0  0  0  0  0
    1.9350   45.4350   53.4580 O   0  0  0  0  0  0  0  0  0  0  0  0
    1.4860   44.4790   51.3730 N   0  0  0  0  0  0  0  0  0  0  0  0
    2.8140   44.7800   50.8240 C   0  0  0  0  0  0  0  0  0  0  0  0
    3.8340   43.6920   51.2320 C   0  0  0  0  0  0  0  0  0  0  0  0
    4.5980   44.1030   52.4940 C   0  0  0  0  0  0  0  0  0  0  0  0
    5.4200   45.3230   52.2720 N   0  0  0  0  0  0  0  0  0  0  0  0
    5.8440   45.9730   53.5470 C   0  0  1  0  0  0  0  0  0  0  0  0
    5.7100   45.0370   54.7650 C   0  0  0  0  0  0  0  0  0  0  0  0
    7.2970   46.4120   53.4670 C   0  0  0  0  0  0  0  0  0  0  0  0
    8.0940   46.0560   52.3630 C   0  0  0  0  0  0  0  0  0  0  0  0
    9.4330   46.4490   52.3040 C   0  0  0  0  0  0  0  0  0  0  0  0
    9.9940   47.1890   53.3480 C   0  0  0  0  0  0  0  0  0  0  0  0
    9.2160   47.5330   54.4560 C   0  0  0  0  0  0  0  0  0  0  0  0
    7.8730   47.1450   54.5190 C   0  0  0  0  0  0  0  0  0  0  0  0
    4.7920   46.2930   51.3270 C   0  0  0  0  0  0  0  0  0  0  0  0
    3.2620   46.1850   51.2810 C   0  0  0  0  0  0  0  0  0  0  0  0
   -0.4110   45.8490   55.2410 N   0  0  0  0  0  0  0  0  0  0  0  0
   -0.9960   45.7000   56.4210 N   0  0  0  0  0  0  0  0  0  0  0  0
   -0.9200   46.6900   57.4610 C   0  0  0  0  0  0  0  0  0  0  0  0
   -2.0030   47.5540   57.7060 C   0  0  0  0  0  0  0  0  0  0  0  0
   -1.9340   48.4980   58.7340 C   0  0  0  0  0  0  0  0  0  0  0  0
   -0.7890   48.5850   59.5300 C   0  0  0  0  0  0  0  0  0  0  0  0
   -0.7240   49.5030   60.5280 F   0  0  0  0  0  0  0  0  0  0  0  0
    0.2870   47.7220   59.3030 C   0  0  0  0  0  0  0  0  0  0  0  0
    0.2220   46.7720   58.2780 C   0  0  0  0  0  0  0  0  0  0  0  0
    1.2790   45.9500   58.0670 F   0  0  0  0  0  0  0  0  0  0  0  0
   -2.0303   44.2833   58.5368 H   0  0  0  0  0  0  0  0  0  0  0  0
   -3.4997   44.4340   57.5147 H   0  0  0  0  0  0  0  0  0  0  0  0
   -2.5587   42.9040   57.5147 H   0  0  0  0  0  0  0  0  0  0  0  0
   -1.8434   42.8827   54.9382 H   0  0  0  0  0  0  0  0  0  0  0  0
   -0.9350   44.2800   52.4590 H   0  0  0  0  0  0  0  0  0  0  0  0
    0.7860   43.9740   50.7840 H   0  0  0  0  0  0  0  0  0  0  0  0
    2.7606   44.7784   49.7253 H   0  0  0  0  0  0  0  0  0  0  0  0
    3.2983   42.7511   51.4260 H   0  0  0  0  0  0  0  0  0  0  0  0
    4.5554   43.5621   50.4118 H   0  0  0  0  0  0  0  0  0  0  0  0
    3.8748   44.3029   53.2983 H   0  0  0  0  0  0  0  0  0  0  0  0
    5.2755   43.2801   52.7656 H   0  0  0  0  0  0  0  0  0  0  0  0
    5.1746   46.8355   53.6808 H   0  0  0  0  0  0  0  0  0  0  0  0
    5.7942   45.6254   55.6906 H   0  0  0  0  0  0  0  0  0  0  0  0
    4.7310   44.5362   54.7367 H   0  0  0  0  0  0  0  0  0  0  0  0
    6.5092   44.2817   54.7367 H   0  0  0  0  0  0  0  0  0  0  0  0
    7.6603   45.4654   51.5426 H   0  0  0  0  0  0  0  0  0  0  0  0
   10.0473   46.1753   51.4336 H   0  0  0  0  0  0  0  0  0  0  0  0
   11.0478   47.5005   53.2974 H   0  0  0  0  0  0  0  0  0  0  0  0
    9.6599   48.1100   55.2806 H   0  0  0  0  0  0  0  0  0  0  0  0
    7.2655   47.4148   55.3955 H   0  0  0  0  0  0  0  0  0  0  0  0
    5.0616   47.3121   51.6411 H   0  0  0  0  0  0  0  0  0  0  0  0
    5.1675   46.0592   50.3198 H   0  0  0  0  0  0  0  0  0  0  0  0
    2.8583   46.3812   52.2853 H   0  0  0  0  0  0  0  0  0  0  0  0
    2.8827   46.9231   50.5590 H   0  0  0  0  0  0  0  0  0  0  0  0
   -2.9086   47.4861   57.0852 H   0  0  0  0  0  0  0  0  0  0  0  0
   -2.7825   49.1737   58.9169 H   0  0  0  0  0  0  0  0  0  0  0  0
    1.1870   47.7900   59.9318 H   0  0  0  0  0  0  0  0  0  0  0  0
  1  2  1  0
  2  3  2  0
  3  4  1  0
  4  5  1  0
  5  6  1  0
  6  7  2  0
  6  8  1  0
  8  9  1  0
  9 10  1  0
 10 11  1  0
 11 12  1  0
 12 13  1  0
 13 14  1  0
 13 15  1  0
 15 16  2  0
 16 17  1  0
 17 18  2  0
 18 19  1  0
 19 20  2  0
 12 21  1  0
 21 22  1  0
  4 23  2  0
 23 24  1  0
 24 25  1  0
 25 26  2  0
 26 27  1  0
 27 28  2  0
 28 29  1  0
 28 30  1  0
 30 31  2  0
 31 32  1  0
 24  2  1  0
 31 25  1  0
 22  9  1  0
 20 15  1  0
  1 33  1  0
  1 34  1  0
  1 35  1  0
  3 36  1  0
  5 37  1  0
  8 38  1  0
  9 39  1  0
 10 40  1  0
 10 41  1  0
 11 42  1  0
 11 43  1  0
 13 44  1  1
 14 45  1  0
 14 46  1  0
 14 47  1  0
 16 48  1  0
 17 49  1  0
 18 50  1  0
 19 51  1  0
 20 52  1  0
 21 53  1  0
 21 54  1  0
 22 55  1  0
 22 56  1  0
 26 57  1  0
 27 58  1  0
 30 59  1  0
M  END
>  <meeko>  (2) 
{"is_sidechain": [false], "free_energy": -8.933, "intermolecular_energy": -11.982, "internal_energy": -0.169}

$$$$
ligand_2_conformer_3_docked
     RDKit          3D

 59 62  0  0  0  0  0  0  0  0999 V2000
   -3.8250   43.6370   55.5040 C   0  0  0  0  0  0  0  0  0  0  0  0
   -2.4430   44.1800   55.3050 C   0  0  0  0  0  0  0  0  0  0  0  0
   -1.5920   44.5660   56.3200 C   0  0  0  0  0  0  0  0  0  0  0  0
   -0.4340   44.9420   55.6580 C   0  0  0  0  0  0  0  0  0  0  0  0
    0.7960   45.3710   56.2570 N   0  0  0  0  0  0  0  0  0  0  0  0
    2.0630   45.4010   55.5810 C   0  0  0  0  0  0  0  0  0  0  0  0
    2.1950   44.8620   54.4480 O   0  0  0  0  0  0  0  0  0  0  0  0
    3.1920   46.0110   56.2220 N   0  0  0  0  0  0  0  0  0  0  0  0
    4.5270   46.0240   55.6120 C   0  0  0  0  0  0  0  0  0  0  0  0
    4.6870   47.2400   54.6710 C   0  0  0  0  0  0  0  0  0  0  0  0
    4.3620   46.8590   53.2230 C   0  0  0  0  0  0  0  0  0  0  0  0
    5.3110   45.8450   52.6890 N   0  0  0  0  0  0  0  0  0  0  0  0
    4.8000   45.1650   51.4630 C   0  0  1  0  0  0  0  0  0  0  0  0
    4.0100   46.1160   50.5420 C   0  0  0  0  0  0  0  0  0  0  0  0
    5.9490   44.5930   50.6500 C   0  0  0  0  0  0  0  0  0  0  0  0
    7.1260   45.3380   50.4480 C   0  0  0  0  0  0  0  0  0  0  0  0
    8.1720   44.8120   49.6850 C   0  0  0  0  0  0  0  0  0  0  0  0
    8.0510   43.5460   49.1070 C   0  0  0  0  0  0  0  0  0  0  0  0
    6.8810   42.8050   49.2880 C   0  0  0  0  0  0  0  0  0  0  0  0
    5.8320   43.3250   50.0530 C   0  0  0  0  0  0  0  0  0  0  0  0
    5.7750   44.8710   53.7220 C   0  0  0  0  0  0  0  0  0  0  0  0
    4.7750   44.6910   54.8720 C   0  0  0  0  0  0  0  0  0  0  0  0
   -0.5830   44.7840   54.3290 N   0  0  0  0  0  0  0  0  0  0  0  0
   -1.8120   44.3380   54.1170 N   0  0  0  0  0  0  0  0  0  0  0  0
   -2.3290   44.0670   52.8030 C   0  0  0  0  0  0  0  0  0  0  0  0
   -3.2430   44.9480   52.1980 C   0  0  0  0  0  0  0  0  0  0  0  0
   -3.7240   44.6920   50.9100 C   0  0  0  0  0  0  0  0  0  0  0  0
   -3.2930   43.5610   50.2130 C   0  0  0  0  0  0  0  0  0  0  0  0
   -3.7610   43.3150   48.9640 F   0  0  0  0  0  0  0  0  0  0  0  0
   -2.3740   42.6860   50.8000 C   0  0  0  0  0  0  0  0  0  0  0  0
   -1.8870   42.9390   52.0870 C   0  0  0  0  0  0  0  0  0  0  0  0
   -1.0030   42.0740   52.6440 F   0  0  0  0  0  0  0  0  0  0  0  0
   -4.0350   43.5545   56.5806 H   0  0  0  0  0  0  0  0  0  0  0  0
   -4.5558   44.3148   55.0388 H   0  0  0  0  0  0  0  0  0  0  0  0
   -3.8989   42.6430   55.0388 H   0  0  0  0  0  0  0  0  0  0  0  0
   -1.7872   44.5736   57.4025 H   0  0  0  0  0  0  0  0  0  0  0  0
    0.7730   45.6370   57.2670 H   0  0  0  0  0  0  0  0  0  0  0  0
    3.0450   46.4670   57.1510 H   0  0  0  0  0  0  0  0  0  0  0  0
    5.2857   46.1242   56.4021 H   0  0  0  0  0  0  0  0  0  0  0  0
    4.0033   48.0384   54.9952 H   0  0  0  0  0  0  0  0  0  0  0  0
    5.7306   47.5846   54.7174 H   0  0  0  0  0  0  0  0  0  0  0  0
    3.3427   46.4473   53.1840 H   0  0  0  0  0  0  0  0  0  0  0  0
    4.4481   47.7649   52.6049 H   0  0  0  0  0  0  0  0  0  0  0  0
    4.1294   44.3688   51.8186 H   0  0  0  0  0  0  0  0  0  0  0  0
    3.4262   46.8188   51.1546 H   0  0  0  0  0  0  0  0  0  0  0  0
    4.7109   46.6778   49.9071 H   0  0  0  0  0  0  0  0  0  0  0  0
    3.3292   45.5300   49.9071 H   0  0  0  0  0  0  0  0  0  0  0  0
    7.2230   46.3393   50.8930 H   0  0  0  0  0  0  0  0  0  0  0  0
    9.0926   45.3961   49.5392 H   0  0  0  0  0  0  0  0  0  0  0  0
    8.8770   43.1328   48.5095 H   0  0  0  0  0  0  0  0  0  0  0  0
    6.7844   41.8105   48.8280 H   0  0  0  0  0  0  0  0  0  0  0  0
    4.9108   42.7393   50.1884 H   0  0  0  0  0  0  0  0  0  0  0  0
    5.9314   43.8956   53.2382 H   0  0  0  0  0  0  0  0  0  0  0  0
    6.7043   45.2698   54.1549 H   0  0  0  0  0  0  0  0  0  0  0  0
    3.8215   44.3246   54.4640 H   0  0  0  0  0  0  0  0  0  0  0  0
    5.1944   43.9687   55.5878 H   0  0  0  0  0  0  0  0  0  0  0  0
   -3.5813   45.8430   52.7406 H   0  0  0  0  0  0  0  0  0  0  0  0
   -4.4430   45.3826   50.4451 H   0  0  0  0  0  0  0  0  0  0  0  0
   -2.0332   41.7970   50.2490 H   0  0  0  0  0  0  0  0  0  0  0  0
  1  2  1  0
  2  3  2  0
  3  4  1  0
  4  5  1  0
  5  6  1  0
  6  7  2  0
  6  8  1  0
  8  9  1  0
  9 10  1  0
 10 11  1  0
 11 12  1  0
 12 13  1  0
 13 14  1  0
 13 15  1  0
 15 16  2  0
 16 17  1  0
 17 18  2  0
 18 19  1  0
 19 20  2  0
 12 21  1  0
 21 22  1  0
  4 23  2  0
 23 24  1  0
 24 25  1  0
 25 26  2  0
 26 27  1  0
 27 28  2  0
 28 29  1  0
 28 30  1  0
 30 31  2  0
 31 32  1  0
 24  2  1  0
 31 25  1  0
 22  9  1  0
 20 15  1  0
  1 33  1  0
  1 34  1  0
  1 35  1  0
  3 36  1  0
  5 37  1  0
  8 38  1  0
  9 39  1  0
 10 40  1  0
 10 41  1  0
 11 42  1  0
 11 43  1  0
 13 44  1  1
 14 45  1  0
 14 46  1  0
 14 47  1  0
 16 48  1  0
 17 49  1  0
 18 50  1  0
 19 51  1  0
 20 52  1  0
 21 53  1  0
 21 54  1  0
 22 55  1  0
 22 56  1  0
 26 57  1  0
 27 58  1  0
 30 59  1  0
M  END
>  <meeko>  (3) 
{"is_sidechain": [false], "free_energy": -8.576, "intermolecular_energy": -11.65, "internal_energy": -0.039}

$$$$
ligand_2_conformer_3_docked
     RDKit          3D

 59 62  0  0  0  0  0  0  0  0999 V2000
    6.6200   44.5970   50.2350 C   0  0  0  0  0  0  0  0  0  0  0  0
    5.6040   45.3620   51.0270 C   0  0  0  0  0  0  0  0  0  0  0  0
    4.2410   45.3170   50.8180 C   0  0  0  0  0  0  0  0  0  0  0  0
    3.7250   46.1340   51.8120 C   0  0  0  0  0  0  0  0  0  0  0  0
    2.3400   46.3870   52.0820 N   0  0  0  0  0  0  0  0  0  0  0  0
    1.3340   45.3690   52.1980 C   0  0  0  0  0  0  0  0  0  0  0  0
    1.5930   44.1760   51.8780 O   0  0  0  0  0  0  0  0  0  0  0  0
    0.0170   45.7230   52.6420 N   0  0  0  0  0  0  0  0  0  0  0  0
   -1.0720   44.7420   52.7270 C   0  0  0  0  0  0  0  0  0  0  0  0
   -2.4420   45.4510   52.8170 C   0  0  0  0  0  0  0  0  0  0  0  0
   -2.8810   45.6110   54.2760 C   0  0  0  0  0  0  0  0  0  0  0  0
   -3.0960   44.2960   54.9380 N   0  0  0  0  0  0  0  0  0  0  0  0
   -3.1240   44.3980   56.4270 C   0  0  1  0  0  0  0  0  0  0  0  0
   -2.9540   43.0310   57.1200 C   0  0  0  0  0  0  0  0  0  0  0  0
   -2.0090   45.3030   56.9240 C   0  0  0  0  0  0  0  0  0  0  0  0
   -0.6740   44.8580   56.9310 C   0  0  0  0  0  0  0  0  0  0  0  0
    0.3440   45.6890   57.4040 C   0  0  0  0  0  0  0  0  0  0  0  0
    0.0410   46.9650   57.8860 C   0  0  0  0  0  0  0  0  0  0  0  0
   -1.2830   47.4100   57.8990 C   0  0  0  0  0  0  0  0  0  0  0  0
   -2.3060   46.5830   57.4230 C   0  0  0  0  0  0  0  0  0  0  0  0
   -2.1570   43.2370   54.4630 C   0  0  0  0  0  0  0  0  0  0  0  0
   -0.8340   43.8010   53.9280 C   0  0  0  0  0  0  0  0  0  0  0  0
    4.7190   46.6300   52.5720 N   0  0  0  0  0  0  0  0  0  0  0  0
    5.8620   46.1730   52.0810 N   0  0  0  0  0  0  0  0  0  0  0  0
    7.1430   46.5120   52.6390 C   0  0  0  0  0  0  0  0  0  0  0  0
    8.2260   46.8350   51.8010 C   0  0  0  0  0  0  0  0  0  0  0  0
    9.4620   47.1870   52.3490 C   0  0  0  0  0  0  0  0  0  0  0  0
    9.6290   47.2260   53.7350 C   0  0  0  0  0  0  0  0  0  0  0  0
   10.8300   47.5680   54.2650 F   0  0  0  0  0  0  0  0  0  0  0  0
    8.5550   46.9200   54.5770 C   0  0  0  0  0  0  0  0  0  0  0  0
    7.3140   46.5710   54.0340 C   0  0  0  0  0  0  0  0  0  0  0  0
    6.2870   46.2680   54.8670 F   0  0  0  0  0  0  0  0  0  0  0  0
    7.3066   44.0800   50.9215 H   0  0  0  0  0  0  0  0  0  0  0  0
    6.1094   43.8572   49.6010 H   0  0  0  0  0  0  0  0  0  0  0  0
    7.1899   45.2922   49.6010 H   0  0  0  0  0  0  0  0  0  0  0  0
    3.6917   44.7621   50.0432 H   0  0  0  0  0  0  0  0  0  0  0  0
    2.0370   47.3850   52.1540 H   0  0  0  0  0  0  0  0  0  0  0  0
   -0.1610   46.7150   52.9200 H   0  0  0  0  0  0  0  0  0  0  0  0
   -1.0829   44.1328   51.8112 H   0  0  0  0  0  0  0  0  0  0  0  0
   -2.3638   46.4455   52.3535 H   0  0  0  0  0  0  0  0  0  0  0  0
   -3.1893   44.8390   52.2907 H   0  0  0  0  0  0  0  0  0  0  0  0
   -2.1018   46.1616   54.8235 H   0  0  0  0  0  0  0  0  0  0  0  0
   -3.8352   46.1582   54.2869 H   0  0  0  0  0  0  0  0  0  0  0  0
   -4.1122   44.8095   56.6802 H   0  0  0  0  0  0  0  0  0  0  0  0
   -2.9711   43.1685   58.2112 H   0  0  0  0  0  0  0  0  0  0  0  0
   -3.7761   42.3639   56.8216 H   0  0  0  0  0  0  0  0  0  0  0  0
   -1.9935   42.5855   56.8216 H   0  0  0  0  0  0  0  0  0  0  0  0
   -0.4310   43.8506   56.5621 H   0  0  0  0  0  0  0  0  0  0  0  0
    1.3865   45.3382   57.3971 H   0  0  0  0  0  0  0  0  0  0  0  0
    0.8448   47.6189   58.2551 H   0  0  0  0  0  0  0  0  0  0  0  0
   -1.5216   48.4124   58.2841 H   0  0  0  0  0  0  0  0  0  0  0  0
   -3.3477   46.9361   57.4393 H   0  0  0  0  0  0  0  0  0  0  0  0
   -1.9357   42.5628   55.3035 H   0  0  0  0  0  0  0  0  0  0  0  0
   -2.6493   42.7112   53.6316 H   0  0  0  0  0  0  0  0  0  0  0  0
   -0.3332   44.3629   54.7302 H   0  0  0  0  0  0  0  0  0  0  0  0
   -0.2078   42.9609   53.5930 H   0  0  0  0  0  0  0  0  0  0  0  0
    8.0989   46.8103   50.7086 H   0  0  0  0  0  0  0  0  0  0  0  0
   10.3054   47.4339   51.6874 H   0  0  0  0  0  0  0  0  0  0  0  0
    8.6865   46.9538   55.6686 H   0  0  0  0  0  0  0  0  0  0  0  0
  1  2  1  0
  2  3  2  0
  3  4  1  0
  4  5  1  0
  5  6  1  0
  6  7  2  0
  6  8  1  0
  8  9  1  0
  9 10  1  0
 10 11  1  0
 11 12  1  0
 12 13  1  0
 13 14  1  0
 13 15  1  0
 15 16  2  0
 16 17  1  0
 17 18  2  0
 18 19  1  0
 19 20  2  0
 12 21  1  0
 21 22  1  0
  4 23  2  0
 23 24  1  0
 24 25  1  0
 25 26  2  0
 26 27  1  0
 27 28  2  0
 28 29  1  0
 28 30  1  0
 30 31  2  0
 31 32  1  0
 24  2  1  0
 31 25  1  0
 22  9  1  0
 20 15  1  0
  1 33  1  0
  1 34  1  0
  1 35  1  0
  3 36  1  0
  5 37  1  0
  8 38  1  0
  9 39  1  0
 10 40  1  0
 10 41  1  0
 11 42  1  0
 11 43  1  0
 13 44  1  6
 14 45  1  0
 14 46  1  0
 14 47  1  0
 16 48  1  0
 17 49  1  0
 18 50  1  0
 19 51  1  0
 20 52  1  0
 21 53  1  0
 21 54  1  0
 22 55  1  0
 22 56  1  0
 26 57  1  0
 27 58  1  0
 30 59  1  0
M  END
>  <meeko>  (4) 
{"is_sidechain": [false], "free_energy": -8.152, "intermolecular_energy": -11.399, "internal_energy": 0.258}

$$$$
ligand_2_conformer_3_docked
     RDKit          3D

 59 62  0  0  0  0  0  0  0  0999 V2000
    2.3650   35.5820   44.4890 C   0  0  0  0  0  0  0  0  0  0  0  0
    2.3090   36.7370   45.4420 C   0  0  0  0  0  0  0  0  0  0  0  0
    3.3190   37.6590   45.6270 C   0  0  0  0  0  0  0  0  0  0  0  0
    2.7920   38.5480   46.5500 C   0  0  0  0  0  0  0  0  0  0  0  0
    3.4150   39.7400   47.0460 N   0  0  0  0  0  0  0  0  0  0  0  0
    3.6540   40.0170   48.4350 C   0  0  0  0  0  0  0  0  0  0  0  0
    3.1470   39.2840   49.3280 O   0  0  0  0  0  0  0  0  0  0  0  0
    4.4390   41.1590   48.8040 N   0  0  0  0  0  0  0  0  0  0  0  0
    4.6710   41.5300   50.2050 C   0  0  0  0  0  0  0  0  0  0  0  0
    3.3910   42.1270   50.8330 C   0  0  0  0  0  0  0  0  0  0  0  0
    3.3980   43.6570   50.7430 C   0  0  0  0  0  0  0  0  0  0  0  0
    4.5130   44.2530   51.5280 N   0  0  0  0  0  0  0  0  0  0  0  0
    4.7940   45.6680   51.1470 C   0  0  1  0  0  0  0  0  0  0  0  0
    3.6370   46.6220   51.5070 C   0  0  0  0  0  0  0  0  0  0  0  0
    6.0400   46.1760   51.8540 C   0  0  0  0  0  0  0  0  0  0  0  0
    6.0040   46.5040   53.2220 C   0  0  0  0  0  0  0  0  0  0  0  0
    7.1490   46.9850   53.8630 C   0  0  0  0  0  0  0  0  0  0  0  0
    8.3350   47.1570   53.1440 C   0  0  0  0  0  0  0  0  0  0  0  0
    8.3760   46.8500   51.7820 C   0  0  0  0  0  0  0  0  0  0  0  0
    7.2340   46.3640   51.1370 C   0  0  0  0  0  0  0  0  0  0  0  0
    5.7480   43.4130   51.5300 C   0  0  0  0  0  0  0  0  0  0  0  0
    5.8630   42.5090   50.2950 C   0  0  0  0  0  0  0  0  0  0  0  0
    1.5420   38.1820   46.8910 N   0  0  0  0  0  0  0  0  0  0  0  0
    1.2580   37.0700   46.2280 N   0  0  0  0  0  0  0  0  0  0  0  0
    0.0020   36.3820   46.3580 C   0  0  0  0  0  0  0  0  0  0  0  0
   -1.0750   36.6930   45.5080 C   0  0  0  0  0  0  0  0  0  0  0  0
   -2.2860   36.0050   45.6220 C   0  0  0  0  0  0  0  0  0  0  0  0
   -2.4320   34.9970   46.5790 C   0  0  0  0  0  0  0  0  0  0  0  0
   -3.6080   34.3300   46.6870 F   0  0  0  0  0  0  0  0  0  0  0  0
   -1.3630   34.6710   47.4190 C   0  0  0  0  0  0  0  0  0  0  0  0
   -0.1470   35.3540   47.3070 C   0  0  0  0  0  0  0  0  0  0  0  0
    0.8750   35.0310   48.1370 F   0  0  0  0  0  0  0  0  0  0  0  0
    2.4106   34.6406   45.0561 H   0  0  0  0  0  0  0  0  0  0  0  0
    1.4656   35.5853   43.8556 H   0  0  0  0  0  0  0  0  0  0  0  0
    3.2598   35.6723   43.8556 H   0  0  0  0  0  0  0  0  0  0  0  0
    4.3111   37.6827   45.1524 H   0  0  0  0  0  0  0  0  0  0  0  0
    3.6700   40.4760   46.3490 H   0  0  0  0  0  0  0  0  0  0  0  0
    4.8620   41.7350   48.0410 H   0  0  0  0  0  0  0  0  0  0  0  0
    4.9235   40.6278   50.7813 H   0  0  0  0  0  0  0  0  0  0  0  0
    2.5124   41.7390   50.2968 H   0  0  0  0  0  0  0  0  0  0  0  0
    3.3532   41.8382   51.8937 H   0  0  0  0  0  0  0  0  0  0  0  0
    3.5082   43.9509   49.6887 H   0  0  0  0  0  0  0  0  0  0  0  0
    2.4503   44.0278   51.1605 H   0  0  0  0  0  0  0  0  0  0  0  0
    4.9300   45.6629   50.0554 H   0  0  0  0  0  0  0  0  0  0  0  0
    3.5487   46.6948   52.6010 H   0  0  0  0  0  0  0  0  0  0  0  0
    3.8399   47.6188   51.0884 H   0  0  0  0  0  0  0  0  0  0  0  0
    2.6971   46.2329   51.0884 H   0  0  0  0  0  0  0  0  0  0  0  0
    5.0699   46.3812   53.7897 H   0  0  0  0  0  0  0  0  0  0  0  0
    7.1166   47.2286   54.9352 H   0  0  0  0  0  0  0  0  0  0  0  0
    9.2358   47.5340   53.6505 H   0  0  0  0  0  0  0  0  0  0  0  0
    9.3083   46.9907   51.2155 H   0  0  0  0  0  0  0  0  0  0  0  0
    7.2706   46.1278   50.0633 H   0  0  0  0  0  0  0  0  0  0  0  0
    6.6237   44.0780   51.5599 H   0  0  0  0  0  0  0  0  0  0  0  0
    5.6980   42.7582   52.4124 H   0  0  0  0  0  0  0  0  0  0  0  0
    5.8807   43.1365   49.3917 H   0  0  0  0  0  0  0  0  0  0  0  0
    6.7896   41.9222   50.3785 H   0  0  0  0  0  0  0  0  0  0  0  0
   -0.9633   37.4819   44.7496 H   0  0  0  0  0  0  0  0  0  0  0  0
   -3.1256   36.2572   44.9575 H   0  0  0  0  0  0  0  0  0  0  0  0
   -1.4782   33.8755   48.1699 H   0  0  0  0  0  0  0  0  0  0  0  0
  1  2  1  0
  2  3  2  0
  3  4  1  0
  4  5  1  0
  5  6  1  0
  6  7  2  0
  6  8  1  0
  8  9  1  0
  9 10  1  0
 10 11  1  0
 11 12  1  0
 12 13  1  0
 13 14  1  0
 13 15  1  0
 15 16  2  0
 16 17  1  0
 17 18  2  0
 18 19  1  0
 19 20  2  0
 12 21  1  0
 21 22  1  0
  4 23  2  0
 23 24  1  0
 24 25  1  0
 25 26  2  0
 26 27  1  0
 27 28  2  0
 28 29  1  0
 28 30  1  0
 30 31  2  0
 31 32  1  0
 24  2  1  0
 31 25  1  0
 22  9  1  0
 20 15  1  0
  1 33  1  0
  1 34  1  0
  1 35  1  0
  3 36  1  0
  5 37  1  0
  8 38  1  0
  9 39  1  0
 10 40  1  0
 10 41  1  0
 11 42  1  0
 11 43  1  0
 13 44  1  6
 14 45  1  0
 14 46  1  0
 14 47  1  0
 16 48  1  0
 17 49  1  0
 18 50  1  0
 19 51  1  0
 20 52  1  0
 21 53  1  0
 21 54  1  0
 22 55  1  0
 22 56  1  0
 26 57  1  0
 27 58  1  0
 30 59  1  0
M  END
>  <meeko>  (5) 
{"is_sidechain": [false], "free_energy": -8.054, "intermolecular_energy": -10.235, "internal_energy": -0.78}

$$$$
