MODEL 1
REMARK VINA RESULT:    -8.502      0.000      0.000
REMARK INTER + INTRA:         -10.820
REMARK INTER:                 -10.490
REMARK INTRA:                  -0.331
REMARK UNBOUND:                -0.331
REMARK SMILES Cn1ncc(C(=O)N2CCC(Oc3ccc(Cl)cc3)CC2)c1C(F)F
REMARK SMILES IDX 6 1 7 2 8 3 9 4 10 5 11 6 20 7 21 8 5 9 2 10 3 11 22 12 4 13
REMARK SMILES IDX 1 14 23 15 24 16 25 17 12 18 13 19 14 20 19 21 15 22 18 23
REMARK SMILES IDX 16 24 17 25
REMARK H PARENT
ROOT
ATOM      1  C   UNL     1       2.679  43.061  52.556  1.00  0.00     0.257 C 
ATOM      2  O   UNL     1       3.174  41.970  52.167  1.00  0.00    -0.269 OA
ATOM      3  N   UNL     1       3.476  44.258  52.507  1.00  0.00    -0.338 N 
ATOM      4  C   UNL     1       2.937  45.503  51.946  1.00  0.00     0.123 C 
ATOM      5  C   UNL     1       3.696  45.860  50.663  1.00  0.00     0.067 C 
ATOM      6  C   UNL     1       5.221  45.883  50.898  1.00  0.00     0.176 C 
ATOM      7  C   UNL     1       5.691  44.545  51.495  1.00  0.00     0.067 C 
ATOM      8  C   UNL     1       4.918  44.204  52.772  1.00  0.00     0.123 C 
ENDROOT
BRANCH   1   9
ATOM      9  C   UNL     1       1.300  43.088  53.089  1.00  0.00     0.087 A 
ATOM     10  N   UNL     1      -0.525  43.548  54.261  1.00  0.00    -0.266 N 
ATOM     11  N   UNL     1      -0.899  42.756  53.269  1.00  0.00    -0.180 NA
ATOM     12  C   UNL     1       0.807  43.774  54.191  1.00  0.00     0.117 A 
ATOM     13  C   UNL     1       0.195  42.462  52.539  1.00  0.00     0.149 A 
ATOM     14  C   UNL     1      -1.453  44.074  55.255  1.00  0.00     0.174 C 
BRANCH  12  15
ATOM     15  C   UNL     1       1.588  44.642  55.139  1.00  0.00     0.391 C 
ATOM     16  F   UNL     1       1.239  44.339  56.441  1.00  0.00    -0.203 F 
ATOM     17  F   UNL     1       1.323  45.976  54.886  1.00  0.00    -0.203 F 
ENDBRANCH  12  15
ENDBRANCH   1   9
BRANCH   6  18
ATOM     18  O   UNL     1       5.581  46.944  51.789  1.00  0.00    -0.490 OA
BRANCH  18  19
ATOM     19  C   UNL     1       6.791  47.053  52.491  1.00  0.00     0.119 A 
ATOM     20  C   UNL     1       6.747  47.016  53.890  1.00  0.00     0.048 A 
ATOM     21  C   UNL     1       8.039  47.190  51.849  1.00  0.00     0.048 A 
ATOM     22  C   UNL     1       7.921  47.121  54.643  1.00  0.00     0.024 A 
ATOM     23  C   UNL     1       9.212  47.294  52.604  1.00  0.00     0.024 A 
ATOM     24  C   UNL     1       9.154  47.261  54.001  1.00  0.00     0.041 A 
ATOM     25  Cl  UNL     1      10.626  47.393  54.945  1.00  0.00    -0.084 Cl
ENDBRANCH  18  19
ENDBRANCH   6  18
TORSDOF 4
ENDMDL
MODEL 2
REMARK VINA RESULT:    -8.249      1.738      2.391
REMARK INTER + INTRA:         -10.509
REMARK INTER:                  -9.737
REMARK INTRA:                  -0.772
REMARK UNBOUND:                -0.331
REMARK SMILES Cn1ncc(C(=O)N2CCC(Oc3ccc(Cl)cc3)CC2)c1C(F)F
REMARK SMILES IDX 6 1 7 2 8 3 9 4 10 5 11 6 20 7 21 8 5 9 2 10 3 11 22 12 4 13
REMARK SMILES IDX 1 14 23 15 24 16 25 17 12 18 13 19 14 20 19 21 15 22 18 23
REMARK SMILES IDX 16 24 17 25
REMARK H PARENT
ROOT
ATOM      1  C   UNL     1       1.020  43.921  53.929  1.00  0.00     0.257 C 
ATOM      2  O   UNL     1       1.113  42.668  53.836  1.00  0.00    -0.269 OA
ATOM      3  N   UNL     1       2.095  44.748  53.448  1.00  0.00    -0.338 N 
ATOM      4  C   UNL     1       1.828  45.914  52.597  1.00  0.00     0.123 C 
ATOM      5  C   UNL     1       2.408  45.673  51.199  1.00  0.00     0.067 C 
ATOM      6  C   UNL     1       3.896  45.270  51.267  1.00  0.00     0.176 C 
ATOM      7  C   UNL     1       4.078  44.049  52.186  1.00  0.00     0.067 C 
ATOM      8  C   UNL     1       3.488  44.308  53.576  1.00  0.00     0.123 C 
ENDROOT
BRANCH   1   9
ATOM      9  C   UNL     1      -0.175  44.519  54.561  1.00  0.00     0.087 A 
ATOM     10  N   UNL     1      -1.552  45.611  55.913  1.00  0.00    -0.266 N 
ATOM     11  N   UNL     1      -2.264  45.244  54.859  1.00  0.00    -0.180 NA
ATOM     12  C   UNL     1      -0.275  45.188  55.774  1.00  0.00     0.117 A 
ATOM     13  C   UNL     1      -1.447  44.577  54.020  1.00  0.00     0.149 A 
ATOM     14  C   UNL     1      -2.111  46.362  57.031  1.00  0.00     0.174 C 
BRANCH  12  15
ATOM     15  C   UNL     1       0.831  45.434  56.764  1.00  0.00     0.391 C 
ATOM     16  F   UNL     1       1.890  46.057  56.132  1.00  0.00    -0.203 F 
ATOM     17  F   UNL     1       1.254  44.234  57.307  1.00  0.00    -0.203 F 
ENDBRANCH  12  15
ENDBRANCH   1   9
BRANCH   6  18
ATOM     18  O   UNL     1       4.692  46.351  51.762  1.00  0.00    -0.490 OA
BRANCH  18  19
ATOM     19  C   UNL     1       6.094  46.380  51.819  1.00  0.00     0.119 A 
ATOM     20  C   UNL     1       6.808  45.647  50.862  1.00  0.00     0.048 A 
ATOM     21  C   UNL     1       6.806  47.116  52.788  1.00  0.00     0.048 A 
ATOM     22  C   UNL     1       8.206  45.638  50.870  1.00  0.00     0.024 A 
ATOM     23  C   UNL     1       8.205  47.105  52.794  1.00  0.00     0.024 A 
ATOM     24  C   UNL     1       8.906  46.366  51.836  1.00  0.00     0.041 A 
ATOM     25  Cl  UNL     1      10.660  46.354  51.846  1.00  0.00    -0.084 Cl
ENDBRANCH  18  19
ENDBRANCH   6  18
TORSDOF 4
ENDMDL
MODEL 3
REMARK VINA RESULT:    -8.239      1.964      2.343
REMARK INTER + INTRA:         -10.496
REMARK INTER:                  -9.599
REMARK INTRA:                  -0.897
REMARK UNBOUND:                -0.331
REMARK SMILES Cn1ncc(C(=O)N2CCC(Oc3ccc(Cl)cc3)CC2)c1C(F)F
REMARK SMILES IDX 6 1 7 2 8 3 9 4 10 5 11 6 20 7 21 8 5 9 2 10 3 11 22 12 4 13
REMARK SMILES IDX 1 14 23 15 24 16 25 17 12 18 13 19 14 20 19 21 15 22 18 23
REMARK SMILES IDX 16 24 17 25
REMARK H PARENT
ROOT
ATOM      1  C   UNL     1       1.332  43.584  53.460  1.00  0.00     0.257 C 
ATOM      2  O   UNL     1       1.617  42.358  53.403  1.00  0.00    -0.269 OA
ATOM      3  N   UNL     1       2.330  44.560  53.111  1.00  0.00    -0.338 N 
ATOM      4  C   UNL     1       2.015  45.675  52.210  1.00  0.00     0.123 C 
ATOM      5  C   UNL     1       2.807  45.522  50.907  1.00  0.00     0.067 C 
ATOM      6  C   UNL     1       4.315  45.340  51.181  1.00  0.00     0.176 C 
ATOM      7  C   UNL     1       4.545  44.159  52.140  1.00  0.00     0.067 C 
ATOM      8  C   UNL     1       3.742  44.328  53.433  1.00  0.00     0.123 C 
ENDROOT
BRANCH   1   9
ATOM      9  C   UNL     1      -0.012  44.001  53.914  1.00  0.00     0.087 A 
ATOM     10  N   UNL     1      -2.200  44.305  54.104  1.00  0.00    -0.266 N 
ATOM     11  N   UNL     1      -1.650  44.804  55.199  1.00  0.00    -0.180 NA
ATOM     12  C   UNL     1      -1.239  43.808  53.293  1.00  0.00     0.117 A 
ATOM     13  C   UNL     1      -0.316  44.631  55.109  1.00  0.00     0.149 A 
ATOM     14  C   UNL     1      -3.638  44.314  53.859  1.00  0.00     0.174 C 
BRANCH  12  15
ATOM     15  C   UNL     1      -1.485  43.144  51.965  1.00  0.00     0.391 C 
ATOM     16  F   UNL     1      -1.257  41.786  52.076  1.00  0.00    -0.203 F 
ATOM     17  F   UNL     1      -0.644  43.680  51.007  1.00  0.00    -0.203 F 
ENDBRANCH  12  15
ENDBRANCH   1   9
BRANCH   6  18
ATOM     18  O   UNL     1       4.872  46.526  51.758  1.00  0.00    -0.490 OA
BRANCH  18  19
ATOM     19  C   UNL     1       6.166  46.653  52.286  1.00  0.00     0.119 A 
ATOM     20  C   UNL     1       6.295  46.950  53.648  1.00  0.00     0.048 A 
ATOM     21  C   UNL     1       7.330  46.487  51.508  1.00  0.00     0.048 A 
ATOM     22  C   UNL     1       7.559  47.089  54.230  1.00  0.00     0.024 A 
ATOM     23  C   UNL     1       8.593  46.627  52.093  1.00  0.00     0.024 A 
ATOM     24  C   UNL     1       8.709  46.929  53.453  1.00  0.00     0.041 A 
ATOM     25  Cl  UNL     1      10.294  47.104  54.183  1.00  0.00    -0.084 Cl
ENDBRANCH  18  19
ENDBRANCH   6  18
TORSDOF 4
ENDMDL
MODEL 4
REMARK VINA RESULT:    -8.017      3.652      7.480
REMARK INTER + INTRA:         -10.222
REMARK INTER:                  -9.375
REMARK INTRA:                  -0.847
REMARK UNBOUND:                -0.331
REMARK SMILES Cn1ncc(C(=O)N2CCC(Oc3ccc(Cl)cc3)CC2)c1C(F)F
REMARK SMILES IDX 6 1 7 2 8 3 9 4 10 5 11 6 20 7 21 8 5 9 2 10 3 11 22 12 4 13
REMARK SMILES IDX 1 14 23 15 24 16 25 17 12 18 13 19 14 20 19 21 15 22 18 23
REMARK SMILES IDX 16 24 17 25
REMARK H PARENT
ROOT
ATOM      1  C   UNL     1       4.010  45.968  51.386  1.00  0.00     0.257 C 
ATOM      2  O   UNL     1       3.404  46.524  50.432  1.00  0.00    -0.269 OA
ATOM      3  N   UNL     1       3.254  45.410  52.476  1.00  0.00    -0.338 N 
ATOM      4  C   UNL     1       3.539  44.062  52.982  1.00  0.00     0.123 C 
ATOM      5  C   UNL     1       2.349  43.141  52.691  1.00  0.00     0.067 C 
ATOM      6  C   UNL     1       1.028  43.744  53.214  1.00  0.00     0.176 C 
ATOM      7  C   UNL     1       0.820  45.157  52.639  1.00  0.00     0.067 C 
ATOM      8  C   UNL     1       2.021  46.059  52.936  1.00  0.00     0.123 C 
ENDROOT
BRANCH   1   9
ATOM      9  C   UNL     1       5.488  45.925  51.387  1.00  0.00     0.087 A 
ATOM     10  N   UNL     1       7.626  46.105  51.944  1.00  0.00    -0.266 N 
ATOM     11  N   UNL     1       7.584  45.431  50.806  1.00  0.00    -0.180 NA
ATOM     12  C   UNL     1       6.372  46.428  52.333  1.00  0.00     0.117 A 
ATOM     13  C   UNL     1       6.292  45.307  50.445  1.00  0.00     0.149 A 
ATOM     14  C   UNL     1       8.869  46.424  52.637  1.00  0.00     0.174 C 
BRANCH  12  15
ATOM     15  C   UNL     1       6.021  47.180  53.588  1.00  0.00     0.391 C 
ATOM     16  F   UNL     1       5.678  46.286  54.584  1.00  0.00    -0.203 F 
ATOM     17  F   UNL     1       4.961  48.035  53.345  1.00  0.00    -0.203 F 
ENDBRANCH  12  15
ENDBRANCH   1   9
BRANCH   6  18
ATOM     18  O   UNL     1       1.034  43.818  54.643  1.00  0.00    -0.490 OA
BRANCH  18  19
ATOM     19  C   UNL     1       0.078  44.470  55.437  1.00  0.00     0.119 A 
ATOM     20  C   UNL     1       0.527  45.427  56.356  1.00  0.00     0.048 A 
ATOM     21  C   UNL     1      -1.304  44.208  55.342  1.00  0.00     0.048 A 
ATOM     22  C   UNL     1      -0.380  46.108  57.174  1.00  0.00     0.024 A 
ATOM     23  C   UNL     1      -2.209  44.891  56.161  1.00  0.00     0.024 A 
ATOM     24  C   UNL     1      -1.748  45.841  57.078  1.00  0.00     0.041 A 
ATOM     25  Cl  UNL     1      -2.884  46.695  58.104  1.00  0.00    -0.084 Cl
ENDBRANCH  18  19
ENDBRANCH   6  18
TORSDOF 4
ENDMDL
MODEL 5
REMARK VINA RESULT:    -7.935      4.469      7.980
REMARK INTER + INTRA:         -10.121
REMARK INTER:                 -10.272
REMARK INTRA:                   0.151
REMARK UNBOUND:                -0.331
REMARK SMILES Cn1ncc(C(=O)N2CCC(Oc3ccc(Cl)cc3)CC2)c1C(F)F
REMARK SMILES IDX 6 1 7 2 8 3 9 4 10 5 11 6 20 7 21 8 5 9 2 10 3 11 22 12 4 13
REMARK SMILES IDX 1 14 23 15 24 16 25 17 12 18 13 19 14 20 19 21 15 22 18 23
REMARK SMILES IDX 16 24 17 25
REMARK H PARENT
ROOT
ATOM      1  C   UNL     1       5.823  46.053  52.044  1.00  0.00     0.257 C 
ATOM      2  O   UNL     1       6.193  45.796  50.867  1.00  0.00    -0.269 OA
ATOM      3  N   UNL     1       4.423  46.003  52.371  1.00  0.00    -0.338 N 
ATOM      4  C   UNL     1       3.951  45.301  53.571  1.00  0.00     0.123 C 
ATOM      5  C   UNL     1       3.115  44.084  53.160  1.00  0.00     0.067 C 
ATOM      6  C   UNL     1       1.992  44.478  52.178  1.00  0.00     0.176 C 
ATOM      7  C   UNL     1       2.579  45.214  50.960  1.00  0.00     0.067 C 
ATOM      8  C   UNL     1       3.414  46.423  51.393  1.00  0.00     0.123 C 
ENDROOT
BRANCH   1   9
ATOM      9  C   UNL     1       6.827  46.433  53.060  1.00  0.00     0.087 A 
ATOM     10  N   UNL     1       8.704  46.999  54.096  1.00  0.00    -0.266 N 
ATOM     11  N   UNL     1       7.729  47.116  54.983  1.00  0.00    -0.180 NA
ATOM     12  C   UNL     1       8.200  46.583  52.912  1.00  0.00     0.117 A 
ATOM     13  C   UNL     1       6.574  46.778  54.376  1.00  0.00     0.149 A 
ATOM     14  C   UNL     1      10.100  47.290  54.402  1.00  0.00     0.174 C 
BRANCH  12  15
ATOM     15  C   UNL     1       9.005  46.354  51.661  1.00  0.00     0.391 C 
ATOM     16  F   UNL     1      10.077  45.530  51.943  1.00  0.00    -0.203 F 
ATOM     17  F   UNL     1       9.464  47.563  51.169  1.00  0.00    -0.203 F 
ENDBRANCH  12  15
ENDBRANCH   1   9
BRANCH   6  18
ATOM     18  O   UNL     1       1.032  45.324  52.818  1.00  0.00    -0.490 OA
BRANCH  18  19
ATOM     19  C   UNL     1       0.187  44.955  53.876  1.00  0.00     0.119 A 
ATOM     20  C   UNL     1       0.554  45.331  55.174  1.00  0.00     0.048 A 
ATOM     21  C   UNL     1      -1.010  44.234  53.685  1.00  0.00     0.048 A 
ATOM     22  C   UNL     1      -0.248  44.991  56.268  1.00  0.00     0.024 A 
ATOM     23  C   UNL     1      -1.810  43.896  54.781  1.00  0.00     0.024 A 
ATOM     24  C   UNL     1      -1.430  44.272  56.073  1.00  0.00     0.041 A 
ATOM     25  Cl  UNL     1      -2.436  43.846  57.444  1.00  0.00    -0.084 Cl
ENDBRANCH  18  19
ENDBRANCH   6  18
TORSDOF 4
ENDMDL
