MODEL 1
REMARK VINA RESULT:    -8.244      0.000      0.000
REMARK INTER + INTRA:         -11.892
REMARK INTER:                 -11.618
REMARK INTRA:                  -0.274
REMARK UNBOUND:                -0.274
REMARK SMILES CC(=O)OCC(=O)N1CCn2ncc([S@@](C)(=O)=NC(=O)[C@@H]3CC3(C)C)c2C1
REMARK SMILES IDX 8 1 9 2 10 3 11 4 12 5 13 6 14 7 26 8 27 9 6 10 7 11 5 12
REMARK SMILES IDX 4 13 2 14 3 15 1 16 15 17 17 18 18 19 16 20 19 21 20 22
REMARK SMILES IDX 21 23 22 24 23 25 24 26 25 27
REMARK H PARENT
ROOT
ATOM      1  N   UNL     1       7.798  45.641  51.237  1.00  0.00    -0.332 N 
ATOM      2  C   UNL     1       7.583  44.999  49.925  1.00  0.00     0.143 C 
ATOM      3  C   UNL     1       6.809  43.686  50.090  1.00  0.00     0.166 C 
ATOM      4  N   UNL     1       5.660  43.894  50.960  1.00  0.00    -0.265 N 
ATOM      5  N   UNL     1       4.601  43.102  51.018  1.00  0.00    -0.180 NA
ATOM      6  C   UNL     1       3.801  43.571  52.000  1.00  0.00     0.154 A 
ATOM      7  C   UNL     1       4.390  44.680  52.579  1.00  0.00     0.091 A 
ATOM      8  C   UNL     1       5.578  44.847  51.901  1.00  0.00     0.075 A 
ATOM      9  C   UNL     1       6.636  45.885  52.113  1.00  0.00     0.176 C 
ENDROOT
BRANCH   1  10
ATOM     10  C   UNL     1       9.080  46.235  51.548  1.00  0.00     0.261 C 
ATOM     11  O   UNL     1      10.144  45.644  51.214  1.00  0.00    -0.271 OA
BRANCH  10  12
ATOM     12  C   UNL     1       9.180  47.525  52.316  1.00  0.00     0.332 C 
BRANCH  12  13
ATOM     13  O   UNL     1      10.080  47.384  53.413  1.00  0.00    -0.456 OA
BRANCH  13  14
ATOM     14  C   UNL     1       9.689  47.591  54.740  1.00  0.00     0.303 C 
ATOM     15  O   UNL     1       8.493  47.876  55.021  1.00  0.00    -0.253 OA
ATOM     16  C   UNL     1      10.706  47.524  55.826  1.00  0.00     0.139 C 
ENDBRANCH  13  14
ENDBRANCH  12  13
ENDBRANCH  10  12
ENDBRANCH   1  10
BRANCH   7  17
ATOM     17  S   UNL     1       3.748  45.636  53.908  1.00  0.00     0.083 S 
ATOM     18  O   UNL     1       3.809  47.101  53.582  1.00  0.00    -0.244 OA
ATOM     19  N   UNL     1       2.257  45.224  54.211  1.00  0.00    -0.157 NA
ATOM     20  C   UNL     1       4.742  45.336  55.351  1.00  0.00     0.140 C 
BRANCH  19  21
ATOM     21  C   UNL     1       1.187  45.203  53.255  1.00  0.00     0.257 C 
ATOM     22  O   UNL     1       1.168  46.091  52.362  1.00  0.00    -0.272 OA
BRANCH  21  23
ATOM     23  C   UNL     1       0.029  44.239  53.356  1.00  0.00     0.088 C 
ATOM     24  C   UNL     1       0.415  42.765  53.505  1.00  0.00     0.021 C 
ATOM     25  C   UNL     1      -0.198  43.254  52.198  1.00  0.00    -0.023 C 
ATOM     26  C   UNL     1       0.755  43.213  50.995  1.00  0.00     0.012 C 
ATOM     27  C   UNL     1      -1.645  42.818  51.960  1.00  0.00     0.012 C 
ENDBRANCH  21  23
ENDBRANCH  19  21
ENDBRANCH   7  17
TORSDOF 7
ENDMDL
MODEL 2
REMARK VINA RESULT:    -7.647      2.519      7.770
REMARK INTER + INTRA:         -11.050
REMARK INTER:                 -10.630
REMARK INTRA:                  -0.420
REMARK UNBOUND:                -0.274
REMARK SMILES CC(=O)OCC(=O)N1CCn2ncc([S@@](C)(=O)=NC(=O)[C@@H]3CC3(C)C)c2C1
REMARK SMILES IDX 8 1 9 2 10 3 11 4 12 5 13 6 14 7 26 8 27 9 6 10 7 11 5 12
REMARK SMILES IDX 4 13 2 14 3 15 1 16 15 17 17 18 18 19 16 20 19 21 20 22
REMARK SMILES IDX 21 23 22 24 23 25 24 26 25 27
REMARK H PARENT
ROOT
ATOM      1  N   UNL     1       0.767  44.058  53.695  1.00  0.00    -0.332 N 
ATOM      2  C   UNL     1       1.191  42.660  53.479  1.00  0.00     0.143 C 
ATOM      3  C   UNL     1       2.157  42.569  52.293  1.00  0.00     0.166 C 
ATOM      4  N   UNL     1       3.182  43.597  52.407  1.00  0.00    -0.265 N 
ATOM      5  N   UNL     1       4.350  43.576  51.784  1.00  0.00    -0.180 NA
ATOM      6  C   UNL     1       4.978  44.737  52.068  1.00  0.00     0.154 A 
ATOM      7  C   UNL     1       4.168  45.510  52.879  1.00  0.00     0.091 A 
ATOM      8  C   UNL     1       3.028  44.758  53.063  1.00  0.00     0.075 A 
ATOM      9  C   UNL     1       1.797  45.103  53.844  1.00  0.00     0.176 C 
ENDROOT
BRANCH   1  10
ATOM     10  C   UNL     1      -0.617  44.354  53.996  1.00  0.00     0.261 C 
ATOM     11  O   UNL     1      -1.418  44.633  53.061  1.00  0.00    -0.271 OA
BRANCH  10  12
ATOM     12  C   UNL     1      -1.120  44.391  55.413  1.00  0.00     0.332 C 
BRANCH  12  13
ATOM     13  O   UNL     1      -1.132  45.730  55.903  1.00  0.00    -0.456 OA
BRANCH  13  14
ATOM     14  C   UNL     1      -0.479  46.108  57.080  1.00  0.00     0.303 C 
ATOM     15  O   UNL     1       0.499  45.442  57.515  1.00  0.00    -0.253 OA
ATOM     16  C   UNL     1      -0.975  47.280  57.854  1.00  0.00     0.139 C 
ENDBRANCH  13  14
ENDBRANCH  12  13
ENDBRANCH  10  12
ENDBRANCH   1  10
BRANCH   7  17
ATOM     17  S   UNL     1       4.533  47.111  53.507  1.00  0.00     0.083 S 
ATOM     18  O   UNL     1       4.252  47.177  54.982  1.00  0.00    -0.244 OA
ATOM     19  N   UNL     1       6.042  47.475  53.241  1.00  0.00    -0.157 NA
ATOM     20  C   UNL     1       3.491  48.292  52.682  1.00  0.00     0.140 C 
BRANCH  19  21
ATOM     21  C   UNL     1       7.173  46.685  53.636  1.00  0.00     0.257 C 
ATOM     22  O   UNL     1       7.000  45.789  54.503  1.00  0.00    -0.272 OA
BRANCH  21  23
ATOM     23  C   UNL     1       8.573  46.972  53.148  1.00  0.00     0.088 C 
ATOM     24  C   UNL     1       8.667  47.923  51.951  1.00  0.00     0.021 C 
ATOM     25  C   UNL     1       8.980  46.444  51.763  1.00  0.00    -0.023 C 
ATOM     26  C   UNL     1       7.978  45.690  50.877  1.00  0.00     0.012 C 
ATOM     27  C   UNL     1      10.463  46.116  51.578  1.00  0.00     0.012 C 
ENDBRANCH  21  23
ENDBRANCH  19  21
ENDBRANCH   7  17
TORSDOF 7
ENDMDL
MODEL 3
REMARK VINA RESULT:    -7.566      2.102      4.636
REMARK INTER + INTRA:         -10.936
REMARK INTER:                 -10.639
REMARK INTRA:                  -0.298
REMARK UNBOUND:                -0.274
REMARK SMILES CC(=O)OCC(=O)N1CCn2ncc([S@@](C)(=O)=NC(=O)[C@@H]3CC3(C)C)c2C1
REMARK SMILES IDX 8 1 9 2 10 3 11 4 12 5 13 6 14 7 26 8 27 9 6 10 7 11 5 12
REMARK SMILES IDX 4 13 2 14 3 15 1 16 15 17 17 18 18 19 16 20 19 21 20 22
REMARK SMILES IDX 21 23 22 24 23 25 24 26 25 27
REMARK H PARENT
ROOT
ATOM      1  N   UNL     1       5.656  46.080  53.600  1.00  0.00    -0.332 N 
ATOM      2  C   UNL     1       5.749  45.678  55.018  1.00  0.00     0.143 C 
ATOM      3  C   UNL     1       4.372  45.751  55.688  1.00  0.00     0.166 C 
ATOM      4  N   UNL     1       3.376  45.104  54.845  1.00  0.00    -0.265 N 
ATOM      5  N   UNL     1       2.198  44.667  55.263  1.00  0.00    -0.180 NA
ATOM      6  C   UNL     1       1.528  44.218  54.180  1.00  0.00     0.154 A 
ATOM      7  C   UNL     1       2.308  44.398  53.052  1.00  0.00     0.091 A 
ATOM      8  C   UNL     1       3.471  44.977  53.512  1.00  0.00     0.075 A 
ATOM      9  C   UNL     1       4.672  45.409  52.729  1.00  0.00     0.176 C 
ENDROOT
BRANCH   1  10
ATOM     10  C   UNL     1       6.671  46.936  53.025  1.00  0.00     0.261 C 
ATOM     11  O   UNL     1       6.853  48.095  53.489  1.00  0.00    -0.271 OA
BRANCH  10  12
ATOM     12  C   UNL     1       7.487  46.496  51.839  1.00  0.00     0.332 C 
BRANCH  12  13
ATOM     13  O   UNL     1       8.741  47.174  51.818  1.00  0.00    -0.456 OA
BRANCH  13  14
ATOM     14  C   UNL     1       9.883  46.665  52.443  1.00  0.00     0.303 C 
ATOM     15  O   UNL     1      10.641  45.857  51.840  1.00  0.00    -0.253 OA
ATOM     16  C   UNL     1      10.181  47.042  53.854  1.00  0.00     0.139 C 
ENDBRANCH  13  14
ENDBRANCH  12  13
ENDBRANCH  10  12
ENDBRANCH   1  10
BRANCH   7  17
ATOM     17  S   UNL     1       1.873  43.987  51.399  1.00  0.00     0.083 S 
ATOM     18  O   UNL     1       2.498  44.952  50.433  1.00  0.00    -0.244 OA
ATOM     19  N   UNL     1       2.338  42.521  51.056  1.00  0.00    -0.157 NA
ATOM     20  C   UNL     1       0.105  44.093  51.237  1.00  0.00     0.140 C 
BRANCH  19  21
ATOM     21  C   UNL     1       3.674  42.016  51.196  1.00  0.00     0.257 C 
ATOM     22  O   UNL     1       4.232  42.110  52.321  1.00  0.00    -0.272 OA
BRANCH  21  23
ATOM     23  C   UNL     1       4.471  41.497  50.023  1.00  0.00     0.088 C 
ATOM     24  C   UNL     1       5.941  41.187  50.317  1.00  0.00     0.021 C 
ATOM     25  C   UNL     1       5.584  42.390  49.451  1.00  0.00    -0.023 C 
ATOM     26  C   UNL     1       5.913  43.748  50.086  1.00  0.00     0.012 C 
ATOM     27  C   UNL     1       5.880  42.224  47.959  1.00  0.00     0.012 C 
ENDBRANCH  21  23
ENDBRANCH  19  21
ENDBRANCH   7  17
TORSDOF 7
ENDMDL
MODEL 4
REMARK VINA RESULT:    -7.282      2.340      8.742
REMARK INTER + INTRA:         -10.536
REMARK INTER:                 -10.498
REMARK INTRA:                  -0.038
REMARK UNBOUND:                -0.274
REMARK SMILES CC(=O)OCC(=O)N1CCn2ncc([S@@](C)(=O)=NC(=O)[C@@H]3CC3(C)C)c2C1
REMARK SMILES IDX 8 1 9 2 10 3 11 4 12 5 13 6 14 7 26 8 27 9 6 10 7 11 5 12
REMARK SMILES IDX 4 13 2 14 3 15 1 16 15 17 17 18 18 19 16 20 19 21 20 22
REMARK SMILES IDX 21 23 22 24 23 25 24 26 25 27
REMARK H PARENT
ROOT
ATOM      1  N   UNL     1       0.060  44.224  54.093  1.00  0.00    -0.332 N 
ATOM      2  C   UNL     1      -0.207  44.979  55.334  1.00  0.00     0.143 C 
ATOM      3  C   UNL     1       1.026  44.967  56.245  1.00  0.00     0.166 C 
ATOM      4  N   UNL     1       2.216  45.296  55.472  1.00  0.00    -0.265 N 
ATOM      5  N   UNL     1       3.357  45.729  55.986  1.00  0.00    -0.180 NA
ATOM      6  C   UNL     1       4.242  45.832  54.971  1.00  0.00     0.154 A 
ATOM      7  C   UNL     1       3.636  45.436  53.793  1.00  0.00     0.091 A 
ATOM      8  C   UNL     1       2.351  45.089  54.154  1.00  0.00     0.075 A 
ATOM      9  C   UNL     1       1.246  44.571  53.286  1.00  0.00     0.176 C 
ENDROOT
BRANCH   1  10
ATOM     10  C   UNL     1      -0.948  43.336  53.558  1.00  0.00     0.261 C 
ATOM     11  O   UNL     1      -0.636  42.159  53.225  1.00  0.00    -0.271 OA
BRANCH  10  12
ATOM     12  C   UNL     1      -2.362  43.799  53.333  1.00  0.00     0.332 C 
BRANCH  12  13
ATOM     13  O   UNL     1      -2.638  43.903  51.938  1.00  0.00    -0.456 OA
BRANCH  13  14
ATOM     14  C   UNL     1      -2.393  45.069  51.207  1.00  0.00     0.303 C 
ATOM     15  O   UNL     1      -1.882  46.080  51.759  1.00  0.00    -0.253 OA
ATOM     16  C   UNL     1      -2.785  45.133  49.770  1.00  0.00     0.139 C 
ENDBRANCH  13  14
ENDBRANCH  12  13
ENDBRANCH  10  12
ENDBRANCH   1  10
BRANCH   7  17
ATOM     17  S   UNL     1       4.376  45.378  52.199  1.00  0.00     0.083 S 
ATOM     18  O   UNL     1       3.828  46.468  51.323  1.00  0.00    -0.244 OA
ATOM     19  N   UNL     1       5.940  45.529  52.314  1.00  0.00    -0.157 NA
ATOM     20  C   UNL     1       3.992  43.810  51.456  1.00  0.00     0.140 C 
BRANCH  19  21
ATOM     21  C   UNL     1       6.628  46.602  52.973  1.00  0.00     0.257 C 
ATOM     22  O   UNL     1       6.021  47.695  53.126  1.00  0.00    -0.272 OA
BRANCH  21  23
ATOM     23  C   UNL     1       8.081  46.508  53.373  1.00  0.00     0.088 C 
ATOM     24  C   UNL     1       8.725  47.826  53.814  1.00  0.00     0.021 C 
ATOM     25  C   UNL     1       9.124  47.201  52.482  1.00  0.00    -0.023 C 
ATOM     26  C   UNL     1       8.699  48.011  51.249  1.00  0.00     0.012 C 
ATOM     27  C   UNL     1      10.516  46.566  52.457  1.00  0.00     0.012 C 
ENDBRANCH  21  23
ENDBRANCH  19  21
ENDBRANCH   7  17
TORSDOF 7
ENDMDL
MODEL 5
REMARK VINA RESULT:    -7.279      3.341      5.954
REMARK INTER + INTRA:         -10.532
REMARK INTER:                  -9.768
REMARK INTRA:                  -0.764
REMARK UNBOUND:                -0.274
REMARK SMILES CC(=O)OCC(=O)N1CCn2ncc([S@@](C)(=O)=NC(=O)[C@@H]3CC3(C)C)c2C1
REMARK SMILES IDX 8 1 9 2 10 3 11 4 12 5 13 6 14 7 26 8 27 9 6 10 7 11 5 12
REMARK SMILES IDX 4 13 2 14 3 15 1 16 15 17 17 18 18 19 16 20 19 21 20 22
REMARK SMILES IDX 21 23 22 24 23 25 24 26 25 27
REMARK H PARENT
ROOT
ATOM      1  N   UNL     1       5.698  42.616  50.375  1.00  0.00    -0.332 N 
ATOM      2  C   UNL     1       7.041  42.701  49.768  1.00  0.00     0.143 C 
ATOM      3  C   UNL     1       7.389  44.157  49.434  1.00  0.00     0.166 C 
ATOM      4  N   UNL     1       7.083  45.013  50.572  1.00  0.00    -0.265 N 
ATOM      5  N   UNL     1       7.585  46.222  50.766  1.00  0.00    -0.180 NA
ATOM      6  C   UNL     1       6.997  46.730  51.871  1.00  0.00     0.154 A 
ATOM      7  C   UNL     1       6.090  45.812  52.368  1.00  0.00     0.091 A 
ATOM      8  C   UNL     1       6.162  44.738  51.508  1.00  0.00     0.075 A 
ATOM      9  C   UNL     1       5.388  43.456  51.547  1.00  0.00     0.176 C 
ENDROOT
BRANCH   1  10
ATOM     10  C   UNL     1       4.793  41.559  49.979  1.00  0.00     0.261 C 
ATOM     11  O   UNL     1       4.087  40.978  50.849  1.00  0.00    -0.271 OA
BRANCH  10  12
ATOM     12  C   UNL     1       4.710  41.092  48.551  1.00  0.00     0.332 C 
BRANCH  12  13
ATOM     13  O   UNL     1       3.591  40.226  48.374  1.00  0.00    -0.456 OA
BRANCH  13  14
ATOM     14  C   UNL     1       3.206  39.740  47.121  1.00  0.00     0.303 C 
ATOM     15  O   UNL     1       3.208  40.492  46.110  1.00  0.00    -0.253 OA
ATOM     16  C   UNL     1       2.743  38.329  46.990  1.00  0.00     0.139 C 
ENDBRANCH  13  14
ENDBRANCH  12  13
ENDBRANCH  10  12
ENDBRANCH   1  10
BRANCH   7  17
ATOM     17  S   UNL     1       5.064  46.011  53.783  1.00  0.00     0.083 S 
ATOM     18  O   UNL     1       5.067  47.443  54.240  1.00  0.00    -0.244 OA
ATOM     19  N   UNL     1       3.589  45.564  53.459  1.00  0.00    -0.157 NA
ATOM     20  C   UNL     1       5.708  44.999  55.094  1.00  0.00     0.140 C 
BRANCH  19  21
ATOM     21  C   UNL     1       2.784  46.060  52.379  1.00  0.00     0.257 C 
ATOM     22  O   UNL     1       3.344  46.755  51.490  1.00  0.00    -0.272 OA
BRANCH  21  23
ATOM     23  C   UNL     1       1.285  45.886  52.339  1.00  0.00     0.088 C 
ATOM     24  C   UNL     1       0.724  44.815  53.279  1.00  0.00     0.021 C 
ATOM     25  C   UNL     1       0.722  44.572  51.775  1.00  0.00    -0.023 C 
ATOM     26  C   UNL     1       1.656  43.444  51.313  1.00  0.00     0.012 C 
ATOM     27  C   UNL     1      -0.652  44.660  51.107  1.00  0.00     0.012 C 
ENDBRANCH  21  23
ENDBRANCH  19  21
ENDBRANCH   7  17
TORSDOF 7
ENDMDL
