MODEL 1
REMARK VINA RESULT:    -8.804      0.000      0.000
REMARK INTER + INTRA:         -11.752
REMARK INTER:                 -10.863
REMARK INTRA:                  -0.890
REMARK UNBOUND:                -0.890
REMARK SMILES C[C@@H]1CCCCN1CCC1CCN(c2ncnc3[nH]ncc23)CC1
REMARK SMILES IDX 9 1 8 2 7 3 2 4 3 5 4 6 6 7 5 8 1 9 10 10 11 11 24 12 12 13
REMARK SMILES IDX 23 14 13 15 14 16 15 17 22 18 16 19 21 20 18 21 17 22 20 23
REMARK SMILES IDX 19 24
REMARK H PARENT 19 25
ROOT
ATOM      1  C   UNL     1       5.383  44.492  52.844  1.00  0.00     0.019 C 
ENDROOT
BRANCH   1   2
ATOM      2  C   UNL     1       5.847  45.945  53.080  1.00  0.00     0.085 C 
BRANCH   2   3
ATOM      3  N   UNL     1       7.318  46.100  52.954  1.00  0.00    -0.301 NA
ATOM      4  C   UNL     1       7.682  46.710  51.637  1.00  0.00     0.053 C 
ATOM      5  C   UNL     1       9.038  47.471  51.679  1.00  0.00     0.019 C 
ATOM      6  C   UNL     1       9.991  46.837  52.693  1.00  0.00     0.003 C 
ATOM      7  C   UNL     1       7.850  46.894  54.085  1.00  0.00     0.085 C 
ATOM      8  C   UNL     1       9.386  46.846  54.105  1.00  0.00     0.016 C 
ATOM      9  C   UNL     1       7.746  45.619  50.555  1.00  0.00     0.024 C 
ENDBRANCH   2   3
ENDBRANCH   1   2
BRANCH   1  10
ATOM     10  C   UNL     1       4.753  44.231  51.447  1.00  0.00    -0.006 C 
ATOM     11  C   UNL     1       3.741  45.352  51.082  1.00  0.00     0.025 C 
ATOM     12  C   UNL     1       4.072  42.852  51.322  1.00  0.00     0.025 C 
ATOM     13  C   UNL     1       2.264  44.995  51.363  1.00  0.00     0.118 C 
ATOM     14  C   UNL     1       2.903  42.715  52.303  1.00  0.00     0.118 C 
ATOM     15  N   UNL     1       2.136  43.965  52.404  1.00  0.00    -0.356 N 
BRANCH  15  16
ATOM     16  C   UNL     1       1.212  44.122  53.495  1.00  0.00     0.143 A 
ATOM     17  N   UNL     1      -0.069  43.654  53.385  1.00  0.00    -0.219 NA
ATOM     18  C   UNL     1       1.555  44.764  54.686  1.00  0.00     0.081 A 
ATOM     19  C   UNL     1      -0.977  43.792  54.403  1.00  0.00     0.226 A 
ATOM     20  C   UNL     1       2.678  45.418  55.155  1.00  0.00     0.149 A 
ATOM     21  C   UNL     1       0.637  44.888  55.678  1.00  0.00     0.160 A 
ATOM     22  N   UNL     1      -0.627  44.419  55.566  1.00  0.00    -0.217 NA
ATOM     23  N   UNL     1       2.405  45.897  56.395  1.00  0.00    -0.181 NA
ATOM     24  N   UNL     1       1.156  45.568  56.710  1.00  0.00    -0.261 N 
ATOM     25  H   UNL     1       0.678  45.822  57.602  1.00  0.00     0.192 HD
ENDBRANCH  15  16
ENDBRANCH   1  10
TORSDOF 4
ENDMDL
MODEL 2
REMARK VINA RESULT:    -8.654      0.874      2.028
REMARK INTER + INTRA:         -11.568
REMARK INTER:                 -10.795
REMARK INTRA:                  -0.773
REMARK UNBOUND:                -0.890
REMARK SMILES C[C@@H]1CCCCN1CCC1CCN(c2ncnc3[nH]ncc23)CC1
REMARK SMILES IDX 9 1 8 2 7 3 2 4 3 5 4 6 6 7 5 8 1 9 10 10 11 11 24 12 12 13
REMARK SMILES IDX 23 14 13 15 14 16 15 17 22 18 16 19 21 20 18 21 17 22 20 23
REMARK SMILES IDX 19 24
REMARK H PARENT 19 25
ROOT
ATOM      1  C   UNL     1       5.346  44.537  52.904  1.00  0.00     0.019 C 
ENDROOT
BRANCH   1   2
ATOM      2  C   UNL     1       5.833  45.992  53.069  1.00  0.00     0.085 C 
BRANCH   2   3
ATOM      3  N   UNL     1       7.306  46.117  52.940  1.00  0.00    -0.301 NA
ATOM      4  C   UNL     1       7.680  46.722  51.624  1.00  0.00     0.053 C 
ATOM      5  C   UNL     1       9.051  47.455  51.665  1.00  0.00     0.019 C 
ATOM      6  C   UNL     1       9.993  46.799  52.675  1.00  0.00     0.003 C 
ATOM      7  C   UNL     1       7.857  46.897  54.072  1.00  0.00     0.085 C 
ATOM      8  C   UNL     1       9.391  46.818  54.088  1.00  0.00     0.016 C 
ATOM      9  C   UNL     1       7.719  45.633  50.539  1.00  0.00     0.024 C 
ENDBRANCH   2   3
ENDBRANCH   1   2
BRANCH   1  10
ATOM     10  C   UNL     1       4.592  44.253  51.573  1.00  0.00    -0.006 C 
ATOM     11  C   UNL     1       3.607  45.407  51.241  1.00  0.00     0.025 C 
ATOM     12  C   UNL     1       3.840  42.906  51.563  1.00  0.00     0.025 C 
ATOM     13  C   UNL     1       2.143  45.136  51.653  1.00  0.00     0.118 C 
ATOM     14  C   UNL     1       2.749  42.867  52.640  1.00  0.00     0.118 C 
ATOM     15  N   UNL     1       2.052  44.156  52.745  1.00  0.00    -0.356 N 
BRANCH  15  16
ATOM     16  C   UNL     1       1.228  44.402  53.898  1.00  0.00     0.143 A 
ATOM     17  N   UNL     1       1.772  44.946  55.029  1.00  0.00    -0.219 NA
ATOM     18  C   UNL     1      -0.131  44.086  53.934  1.00  0.00     0.081 A 
ATOM     19  C   UNL     1       1.017  45.188  56.149  1.00  0.00     0.226 A 
ATOM     20  C   UNL     1      -1.017  43.479  53.064  1.00  0.00     0.149 A 
ATOM     21  C   UNL     1      -0.856  44.335  55.055  1.00  0.00     0.160 A 
ATOM     22  N   UNL     1      -0.313  44.878  56.169  1.00  0.00    -0.217 NA
ATOM     23  N   UNL     1      -2.225  43.395  53.677  1.00  0.00    -0.181 NA
ATOM     24  N   UNL     1      -2.120  43.921  54.893  1.00  0.00    -0.261 N 
ATOM     25  H   UNL     1      -2.895  43.974  55.589  1.00  0.00     0.192 HD
ENDBRANCH  15  16
ENDBRANCH   1  10
TORSDOF 4
ENDMDL
MODEL 3
REMARK VINA RESULT:    -8.643      3.093      6.924
REMARK INTER + INTRA:         -11.554
REMARK INTER:                 -10.791
REMARK INTRA:                  -0.763
REMARK UNBOUND:                -0.890
REMARK SMILES C[C@@H]1CCCCN1CCC1CCN(c2ncnc3[nH]ncc23)CC1
REMARK SMILES IDX 9 1 8 2 7 3 2 4 3 5 4 6 6 7 5 8 1 9 10 10 11 11 24 12 12 13
REMARK SMILES IDX 23 14 13 15 14 16 15 17 22 18 16 19 21 20 18 21 17 22 20 23
REMARK SMILES IDX 19 24
REMARK H PARENT 19 25
ROOT
ATOM      1  C   UNL     1       4.522  44.092  52.862  1.00  0.00     0.019 C 
ENDROOT
BRANCH   1   2
ATOM      2  C   UNL     1       5.122  44.404  51.475  1.00  0.00     0.085 C 
BRANCH   2   3
ATOM      3  N   UNL     1       4.964  43.279  50.520  1.00  0.00    -0.301 NA
ATOM      4  C   UNL     1       6.292  42.699  50.150  1.00  0.00     0.053 C 
ATOM      5  C   UNL     1       6.201  41.209  49.717  1.00  0.00     0.019 C 
ATOM      6  C   UNL     1       4.853  40.911  49.059  1.00  0.00     0.003 C 
ATOM      7  C   UNL     1       4.062  42.249  51.085  1.00  0.00     0.085 C 
ATOM      8  C   UNL     1       3.690  41.210  50.016  1.00  0.00     0.016 C 
ATOM      9  C   UNL     1       6.923  43.520  49.013  1.00  0.00     0.024 C 
ENDBRANCH   2   3
ENDBRANCH   1   2
BRANCH   1  10
ATOM     10  C   UNL     1       3.756  45.275  53.518  1.00  0.00    -0.006 C 
ATOM     11  C   UNL     1       4.013  46.595  52.742  1.00  0.00     0.025 C 
ATOM     12  C   UNL     1       4.086  45.475  55.012  1.00  0.00     0.025 C 
ATOM     13  C   UNL     1       5.107  47.496  53.358  1.00  0.00     0.118 C 
ATOM     14  C   UNL     1       5.566  45.815  55.216  1.00  0.00     0.118 C 
ATOM     15  N   UNL     1       6.057  46.727  54.173  1.00  0.00    -0.356 N 
BRANCH  15  16
ATOM     16  C   UNL     1       7.477  46.900  54.021  1.00  0.00     0.143 A 
ATOM     17  N   UNL     1       8.204  47.521  55.000  1.00  0.00    -0.219 NA
ATOM     18  C   UNL     1       8.170  46.476  52.886  1.00  0.00     0.081 A 
ATOM     19  C   UNL     1       9.557  47.708  54.885  1.00  0.00     0.226 A 
ATOM     20  C   UNL     1       7.815  45.895  51.684  1.00  0.00     0.149 A 
ATOM     21  C   UNL     1       9.510  46.674  52.796  1.00  0.00     0.160 A 
ATOM     22  N   UNL     1      10.225  47.285  53.770  1.00  0.00    -0.217 NA
ATOM     23  N   UNL     1       8.935  45.756  50.931  1.00  0.00    -0.181 NA
ATOM     24  N   UNL     1       9.968  46.234  51.617  1.00  0.00    -0.261 N 
ATOM     25  H   UNL     1      10.952  46.266  51.270  1.00  0.00     0.192 HD
ENDBRANCH  15  16
ENDBRANCH   1  10
TORSDOF 4
ENDMDL
MODEL 4
REMARK VINA RESULT:    -8.566      1.790      3.511
REMARK INTER + INTRA:         -11.459
REMARK INTER:                 -10.925
REMARK INTRA:                  -0.534
REMARK UNBOUND:                -0.890
REMARK SMILES C[C@@H]1CCCCN1CCC1CCN(c2ncnc3[nH]ncc23)CC1
REMARK SMILES IDX 9 1 8 2 7 3 2 4 3 5 4 6 6 7 5 8 1 9 10 10 11 11 24 12 12 13
REMARK SMILES IDX 23 14 13 15 14 16 15 17 22 18 16 19 21 20 18 21 17 22 20 23
REMARK SMILES IDX 19 24
REMARK H PARENT 19 25
ROOT
ATOM      1  C   UNL     1       5.595  45.549  54.269  1.00  0.00     0.019 C 
ENDROOT
BRANCH   1   2
ATOM      2  C   UNL     1       6.083  45.992  52.874  1.00  0.00     0.085 C 
BRANCH   2   3
ATOM      3  N   UNL     1       7.564  46.055  52.783  1.00  0.00    -0.301 NA
ATOM      4  C   UNL     1       7.998  46.507  51.425  1.00  0.00     0.053 C 
ATOM      5  C   UNL     1       9.392  47.196  51.436  1.00  0.00     0.019 C 
ATOM      6  C   UNL     1      10.280  46.621  52.540  1.00  0.00     0.003 C 
ATOM      7  C   UNL     1       8.107  46.932  53.845  1.00  0.00     0.085 C 
ATOM      8  C   UNL     1       9.636  46.806  53.922  1.00  0.00     0.016 C 
ATOM      9  C   UNL     1       8.032  45.310  50.461  1.00  0.00     0.024 C 
ENDBRANCH   2   3
ENDBRANCH   1   2
BRANCH   1  10
ATOM     10  C   UNL     1       4.594  46.527  54.947  1.00  0.00    -0.006 C 
ATOM     11  C   UNL     1       3.457  45.744  55.659  1.00  0.00     0.025 C 
ATOM     12  C   UNL     1       3.987  47.563  53.978  1.00  0.00     0.025 C 
ATOM     13  C   UNL     1       2.153  45.624  54.839  1.00  0.00     0.118 C 
ATOM     14  C   UNL     1       3.172  46.883  52.872  1.00  0.00     0.118 C 
ATOM     15  N   UNL     1       2.399  45.747  53.395  1.00  0.00    -0.356 N 
BRANCH  15  16
ATOM     16  C   UNL     1       1.833  44.810  52.462  1.00  0.00     0.143 A 
ATOM     17  N   UNL     1       0.545  44.963  52.028  1.00  0.00    -0.219 NA
ATOM     18  C   UNL     1       2.541  43.708  51.979  1.00  0.00     0.081 A 
ATOM     19  C   UNL     1      -0.028  44.084  51.144  1.00  0.00     0.226 A 
ATOM     20  C   UNL     1       3.792  43.171  52.213  1.00  0.00     0.149 A 
ATOM     21  C   UNL     1       1.951  42.853  51.105  1.00  0.00     0.160 A 
ATOM     22  N   UNL     1       0.678  43.012  50.675  1.00  0.00    -0.217 NA
ATOM     23  N   UNL     1       3.914  42.037  51.477  1.00  0.00    -0.181 NA
ATOM     24  N   UNL     1       2.785  41.849  50.801  1.00  0.00    -0.261 N 
ATOM     25  H   UNL     1       2.597  41.043  50.165  1.00  0.00     0.192 HD
ENDBRANCH  15  16
ENDBRANCH   1  10
TORSDOF 4
ENDMDL
MODEL 5
REMARK VINA RESULT:    -8.425      2.276      7.231
REMARK INTER + INTRA:         -11.284
REMARK INTER:                 -10.337
REMARK INTRA:                  -0.947
REMARK UNBOUND:                -0.890
REMARK SMILES C[C@@H]1CCCCN1CCC1CCN(c2ncnc3[nH]ncc23)CC1
REMARK SMILES IDX 9 1 8 2 7 3 2 4 3 5 4 6 6 7 5 8 1 9 10 10 11 11 24 12 12 13
REMARK SMILES IDX 23 14 13 15 14 16 15 17 22 18 16 19 21 20 18 21 17 22 20 23
REMARK SMILES IDX 19 24
REMARK H PARENT 19 25
ROOT
ATOM      1  C   UNL     1       3.822  45.442  55.080  1.00  0.00     0.019 C 
ENDROOT
BRANCH   1   2
ATOM      2  C   UNL     1       2.321  45.674  55.352  1.00  0.00     0.085 C 
BRANCH   2   3
ATOM      3  N   UNL     1       1.479  44.540  54.896  1.00  0.00    -0.301 NA
ATOM      4  C   UNL     1       0.032  44.922  54.875  1.00  0.00     0.053 C 
ATOM      5  C   UNL     1      -0.796  44.089  53.855  1.00  0.00     0.019 C 
ATOM      6  C   UNL     1      -0.214  42.685  53.692  1.00  0.00     0.003 C 
ATOM      7  C   UNL     1       1.933  44.063  53.570  1.00  0.00     0.085 C 
ATOM      8  C   UNL     1       1.241  42.740  53.205  1.00  0.00     0.016 C 
ATOM      9  C   UNL     1      -0.574  44.754  56.278  1.00  0.00     0.024 C 
ENDBRANCH   2   3
ENDBRANCH   1   2
BRANCH   1  10
ATOM     10  C   UNL     1       4.594  46.700  54.590  1.00  0.00    -0.006 C 
ATOM     11  C   UNL     1       4.069  47.161  53.203  1.00  0.00     0.025 C 
ATOM     12  C   UNL     1       6.123  46.505  54.531  1.00  0.00     0.025 C 
ATOM     13  C   UNL     1       4.917  46.677  52.006  1.00  0.00     0.118 C 
ATOM     14  C   UNL     1       6.508  45.405  53.535  1.00  0.00     0.118 C 
ATOM     15  N   UNL     1       5.674  45.459  52.325  1.00  0.00    -0.356 N 
BRANCH  15  16
ATOM     16  C   UNL     1       5.676  44.329  51.435  1.00  0.00     0.143 A 
ATOM     17  N   UNL     1       4.721  43.357  51.554  1.00  0.00    -0.219 NA
ATOM     18  C   UNL     1       6.641  44.154  50.442  1.00  0.00     0.081 A 
ATOM     19  C   UNL     1       4.697  42.264  50.727  1.00  0.00     0.226 A 
ATOM     20  C   UNL     1       7.776  44.838  50.051  1.00  0.00     0.149 A 
ATOM     21  C   UNL     1       6.596  43.063  49.636  1.00  0.00     0.160 A 
ATOM     22  N   UNL     1       5.645  42.107  49.756  1.00  0.00    -0.217 NA
ATOM     23  N   UNL     1       8.358  44.152  49.035  1.00  0.00    -0.181 NA
ATOM     24  N   UNL     1       7.630  43.068  48.786  1.00  0.00    -0.261 N 
ATOM     25  H   UNL     1       7.856  42.352  48.061  1.00  0.00     0.192 HD
ENDBRANCH  15  16
ENDBRANCH   1  10
TORSDOF 4
ENDMDL
