ligand_73_conformer_5_docked
     RDKit          3D

 41 43  0  0  0  0  0  0  0  0999 V2000
    3.4660   46.5700   50.6260 C   0  0  0  0  0  0  0  0  0  0  0  0
    3.2910   45.9510   51.9350 N   0  0  0  0  0  0  0  0  0  0  0  0
    2.1570   45.9970   52.6150 N   0  0  0  0  0  0  0  0  0  0  0  0
    2.3330   45.3090   53.7620 C   0  0  0  0  0  0  0  0  0  0  0  0
    1.2720   45.1290   54.7830 C   0  0  0  0  0  0  0  0  0  0  0  0
    1.5110   45.4050   56.1430 C   0  0  0  0  0  0  0  0  0  0  0  0
    0.4970   45.2300   57.0900 C   0  0  0  0  0  0  0  0  0  0  0  0
   -0.7650   44.7820   56.6930 C   0  0  0  0  0  0  0  0  0  0  0  0
   -1.7460   44.6130   57.6130 F   0  0  0  0  0  0  0  0  0  0  0  0
   -1.0150   44.5070   55.3470 C   0  0  0  0  0  0  0  0  0  0  0  0
   -0.0050   44.6800   54.3960 C   0  0  0  0  0  0  0  0  0  0  0  0
    3.6250   44.8020   53.8040 C   0  0  0  0  0  0  0  0  0  0  0  0
    4.2050   45.2370   52.6270 C   0  0  0  0  0  0  0  0  0  0  0  0
    5.5650   44.9020   52.1610 C   0  0  0  0  0  0  0  0  0  0  0  0
    5.7620   43.7890   51.6020 O   0  0  0  0  0  0  0  0  0  0  0  0
    6.6680   45.8060   52.3480 N   0  0  0  0  0  0  0  0  0  0  0  0
    6.7890   47.0580   51.6180 C   0  0  0  0  0  0  0  0  0  0  0  0
    7.8060   47.8870   52.3930 C   0  0  0  0  0  0  0  0  0  0  0  0
    8.6010   46.8750   53.2430 C   0  0  1  0  0  0  0  0  0  0  0  0
    9.7690   46.3990   52.4720 C   0  0  0  0  0  0  0  0  0  0  0  0
   10.6830   46.0260   51.8690 N   0  0  0  0  0  0  0  0  0  0  0  0
    9.0960   47.4550   54.5520 C   0  0  0  0  0  0  0  0  0  0  0  0
   10.4210   47.1800   55.0130 N   0  0  0  0  0  0  0  0  0  0  0  0
    8.3690   48.2440   55.2150 O   0  0  0  0  0  0  0  0  0  0  0  0
    7.6100   45.7190   53.4560 C   0  0  0  0  0  0  0  0  0  0  0  0
    3.7632   47.6213   50.7543 H   0  0  0  0  0  0  0  0  0  0  0  0
    4.2477   46.0334   50.0682 H   0  0  0  0  0  0  0  0  0  0  0  0
    2.5191   46.5221   50.0682 H   0  0  0  0  0  0  0  0  0  0  0  0
    2.5017   45.7605   56.4625 H   0  0  0  0  0  0  0  0  0  0  0  0
    0.6938   45.4458   58.1505 H   0  0  0  0  0  0  0  0  0  0  0  0
   -2.0086   44.1535   55.0343 H   0  0  0  0  0  0  0  0  0  0  0  0
   -0.2096   44.4636   53.3371 H   0  0  0  0  0  0  0  0  0  0  0  0
    4.0838   44.1915   54.5957 H   0  0  0  0  0  0  0  0  0  0  0  0
    7.1451   46.8726   50.5939 H   0  0  0  0  0  0  0  0  0  0  0  0
    5.8218   47.5751   51.5333 H   0  0  0  0  0  0  0  0  0  0  0  0
    8.4762   48.4182   51.7011 H   0  0  0  0  0  0  0  0  0  0  0  0
    7.3191   48.6506   53.0173 H   0  0  0  0  0  0  0  0  0  0  0  0
   11.0750   46.5890   54.4540 H   0  0  0  0  0  0  0  0  0  0  0  0
   10.7600   47.5920   55.9110 H   0  0  0  0  0  0  0  0  0  0  0  0
    8.1362   44.7532   53.4385 H   0  0  0  0  0  0  0  0  0  0  0  0
    7.1031   45.7897   54.4297 H   0  0  0  0  0  0  0  0  0  0  0  0
  1  2  1  0
  2  3  1  0
  3  4  2  0
  4  5  1  0
  5  6  2  0
  6  7  1  0
  7  8  2  0
  8  9  1  0
  8 10  1  0
 10 11  2  0
  4 12  1  0
 12 13  2  0
 13 14  1  0
 14 15  2  0
 14 16  1  0
 16 17  1  0
 17 18  1  0
 18 19  1  0
 19 20  1  6
 20 21  3  0
 19 22  1  0
 22 23  1  0
 22 24  2  0
 19 25  1  0
 13  2  1  0
 25 16  1  0
 11  5  1  0
  1 26  1  0
  1 27  1  0
  1 28  1  0
  6 29  1  0
  7 30  1  0
 10 31  1  0
 11 32  1  0
 12 33  1  0
 17 34  1  0
 17 35  1  0
 18 36  1  0
 18 37  1  0
 23 38  1  0
 23 39  1  0
 25 40  1  0
 25 41  1  0
M  END
>  <meeko>  (1) 
{"is_sidechain": [false], "free_energy": -8.112, "intermolecular_energy": -10.008, "internal_energy": -0.8}

$$$$
ligand_73_conformer_5_docked
     RDKit          3D

 41 43  0  0  0  0  0  0  0  0999 V2000
    3.3940   46.2430   50.5540 C   0  0  0  0  0  0  0  0  0  0  0  0
    4.4590   45.7740   51.4330 N   0  0  0  0  0  0  0  0  0  0  0  0
    5.5050   46.5150   51.7640 N   0  0  0  0  0  0  0  0  0  0  0  0
    6.2760   45.7910   52.6030 C   0  0  0  0  0  0  0  0  0  0  0  0
    7.5370   46.2950   53.2000 C   0  0  0  0  0  0  0  0  0  0  0  0
    7.5380   47.0060   54.4160 C   0  0  0  0  0  0  0  0  0  0  0  0
    8.7380   47.4720   54.9630 C   0  0  0  0  0  0  0  0  0  0  0  0
    9.9470   47.2330   54.3080 C   0  0  0  0  0  0  0  0  0  0  0  0
   11.1090   47.6850   54.8410 F   0  0  0  0  0  0  0  0  0  0  0  0
    9.9600   46.5270   53.1030 C   0  0  0  0  0  0  0  0  0  0  0  0
    8.7640   46.0590   52.5520 C   0  0  0  0  0  0  0  0  0  0  0  0
    5.6900   44.5500   52.8150 C   0  0  0  0  0  0  0  0  0  0  0  0
    4.5400   44.5760   52.0490 C   0  0  0  0  0  0  0  0  0  0  0  0
    3.5230   43.5080   51.9860 C   0  0  0  0  0  0  0  0  0  0  0  0
    3.7880   42.4490   51.3540 O   0  0  0  0  0  0  0  0  0  0  0  0
    2.2360   43.6560   52.6120 N   0  0  0  0  0  0  0  0  0  0  0  0
    1.2920   42.5570   52.7360 C   0  0  0  0  0  0  0  0  0  0  0  0
    0.2940   42.9930   53.8020 C   0  0  0  0  0  0  0  0  0  0  0  0
    0.4130   44.5290   53.8730 C   0  0  1  0  0  0  0  0  0  0  0  0
   -0.5360   45.1380   52.9190 C   0  0  0  0  0  0  0  0  0  0  0  0
   -1.2800   45.6170   52.1710 N   0  0  0  0  0  0  0  0  0  0  0  0
    0.1270   45.0850   55.2540 C   0  0  0  0  0  0  0  0  0  0  0  0
   -1.1220   45.7230   55.5350 N   0  0  0  0  0  0  0  0  0  0  0  0
    0.9590   44.9290   56.1890 O   0  0  0  0  0  0  0  0  0  0  0  0
    1.8560   44.8050   53.4220 C   0  0  0  0  0  0  0  0  0  0  0  0
    2.5542   46.6128   51.1605 H   0  0  0  0  0  0  0  0  0  0  0  0
    3.7742   47.0569   49.9192 H   0  0  0  0  0  0  0  0  0  0  0  0
    3.0503   45.4130   49.9192 H   0  0  0  0  0  0  0  0  0  0  0  0
    6.5890   47.1960   54.9387 H   0  0  0  0  0  0  0  0  0  0  0  0
    8.7288   48.0283   55.9119 H   0  0  0  0  0  0  0  0  0  0  0  0
   10.9130   46.3390   52.5869 H   0  0  0  0  0  0  0  0  0  0  0  0
    8.7817   45.5015   51.6039 H   0  0  0  0  0  0  0  0  0  0  0  0
    6.0583   43.7306   53.4498 H   0  0  0  0  0  0  0  0  0  0  0  0
    0.7793   42.3813   51.7788 H   0  0  0  0  0  0  0  0  0  0  0  0
    1.7946   41.6173   53.0087 H   0  0  0  0  0  0  0  0  0  0  0  0
   -0.7268   42.6992   53.5163 H   0  0  0  0  0  0  0  0  0  0  0  0
    0.5026   42.5218   54.7739 H   0  0  0  0  0  0  0  0  0  0  0  0
   -1.8620   45.8040   54.8040 H   0  0  0  0  0  0  0  0  0  0  0  0
   -1.3170   46.0940   56.4910 H   0  0  0  0  0  0  0  0  0  0  0  0
    1.9027   45.7282   52.8258 H   0  0  0  0  0  0  0  0  0  0  0  0
    2.5324   44.9426   54.2785 H   0  0  0  0  0  0  0  0  0  0  0  0
  1  2  1  0
  2  3  1  0
  3  4  2  0
  4  5  1  0
  5  6  2  0
  6  7  1  0
  7  8  2  0
  8  9  1  0
  8 10  1  0
 10 11  2  0
  4 12  1  0
 12 13  2  0
 13 14  1  0
 14 15  2  0
 14 16  1  0
 16 17  1  0
 17 18  1  0
 18 19  1  0
 19 20  1  6
 20 21  3  0
 19 22  1  0
 22 23  1  0
 22 24  2  0
 19 25  1  0
 13  2  1  0
 25 16  1  0
 11  5  1  0
  1 26  1  0
  1 27  1  0
  1 28  1  0
  6 29  1  0
  7 30  1  0
 10 31  1  0
 11 32  1  0
 12 33  1  0
 17 34  1  0
 17 35  1  0
 18 36  1  0
 18 37  1  0
 23 38  1  0
 23 39  1  0
 25 40  1  0
 25 41  1  0
M  END
>  <meeko>  (2) 
{"is_sidechain": [false], "free_energy": -7.985, "intermolecular_energy": -9.921, "internal_energy": -0.731}

$$$$
ligand_73_conformer_5_docked
     RDKit          3D

 41 43  0  0  0  0  0  0  0  0999 V2000
    2.5260   42.7130   52.3190 C   0  0  0  0  0  0  0  0  0  0  0  0
    3.2000   43.9550   52.6850 N   0  0  0  0  0  0  0  0  0  0  0  0
    4.5080   44.1290   52.5770 N   0  0  0  0  0  0  0  0  0  0  0  0
    4.7910   45.3870   52.9740 C   0  0  0  0  0  0  0  0  0  0  0  0
    6.1610   45.9570   52.9810 C   0  0  0  0  0  0  0  0  0  0  0  0
    6.9050   46.0860   51.7920 C   0  0  0  0  0  0  0  0  0  0  0  0
    8.1950   46.6270   51.8190 C   0  0  0  0  0  0  0  0  0  0  0  0
    8.7550   47.0460   53.0270 C   0  0  0  0  0  0  0  0  0  0  0  0
   10.0050   47.5700   53.0500 F   0  0  0  0  0  0  0  0  0  0  0  0
    8.0260   46.9260   54.2120 C   0  0  0  0  0  0  0  0  0  0  0  0
    6.7370   46.3860   54.1910 C   0  0  0  0  0  0  0  0  0  0  0  0
    3.6170   46.0330   53.3390 C   0  0  0  0  0  0  0  0  0  0  0  0
    2.6290   45.0870   53.1480 C   0  0  0  0  0  0  0  0  0  0  0  0
    1.1800   45.3050   53.3300 C   0  0  0  0  0  0  0  0  0  0  0  0
    0.4870   45.6660   52.3400 O   0  0  0  0  0  0  0  0  0  0  0  0
    0.5490   45.1330   54.6110 N   0  0  0  0  0  0  0  0  0  0  0  0
    1.2560   44.6160   55.7710 C   0  0  0  0  0  0  0  0  0  0  0  0
    0.4000   44.9950   56.9740 C   0  0  0  0  0  0  0  0  0  0  0  0
   -1.0100   45.2610   56.4090 C   0  0  1  0  0  0  0  0  0  0  0  0
   -1.7850   44.0030   56.4160 C   0  0  0  0  0  0  0  0  0  0  0  0
   -2.3940   43.0180   56.4200 N   0  0  0  0  0  0  0  0  0  0  0  0
   -1.7800   46.3020   57.1960 C   0  0  0  0  0  0  0  0  0  0  0  0
   -1.7940   47.6670   56.7730 N   0  0  0  0  0  0  0  0  0  0  0  0
   -2.4730   45.9630   58.1940 O   0  0  0  0  0  0  0  0  0  0  0  0
   -0.7450   45.7040   54.9610 C   0  0  0  0  0  0  0  0  0  0  0  0
    2.2327   42.1725   53.2310 H   0  0  0  0  0  0  0  0  0  0  0  0
    1.6293   42.9437   51.7251 H   0  0  0  0  0  0  0  0  0  0  0  0
    3.2081   42.0869   51.7251 H   0  0  0  0  0  0  0  0  0  0  0  0
    6.4691   45.7594   50.8363 H   0  0  0  0  0  0  0  0  0  0  0  0
    8.7694   46.7224   50.8858 H   0  0  0  0  0  0  0  0  0  0  0  0
    8.4670   47.2571   55.1638 H   0  0  0  0  0  0  0  0  0  0  0  0
    6.1681   46.2956   55.1281 H   0  0  0  0  0  0  0  0  0  0  0  0
    3.5003   47.0658   53.6992 H   0  0  0  0  0  0  0  0  0  0  0  0
    1.3595   43.5230   55.7022 H   0  0  0  0  0  0  0  0  0  0  0  0
    2.2720   45.0306   55.8471 H   0  0  0  0  0  0  0  0  0  0  0  0
    0.3733   44.1706   57.7018 H   0  0  0  0  0  0  0  0  0  0  0  0
    0.8014   45.8739   57.4998 H   0  0  0  0  0  0  0  0  0  0  0  0
   -1.2900   47.9700   55.9110 H   0  0  0  0  0  0  0  0  0  0  0  0
   -2.3360   48.3780   57.3140 H   0  0  0  0  0  0  0  0  0  0  0  0
   -1.5287   45.3197   54.2916 H   0  0  0  0  0  0  0  0  0  0  0  0
   -0.7484   46.7995   54.8618 H   0  0  0  0  0  0  0  0  0  0  0  0
  1  2  1  0
  2  3  1  0
  3  4  2  0
  4  5  1  0
  5  6  2  0
  6  7  1  0
  7  8  2  0
  8  9  1  0
  8 10  1  0
 10 11  2  0
  4 12  1  0
 12 13  2  0
 13 14  1  0
 14 15  2  0
 14 16  1  0
 16 17  1  0
 17 18  1  0
 18 19  1  0
 19 20  1  6
 20 21  3  0
 19 22  1  0
 22 23  1  0
 22 24  2  0
 19 25  1  0
 13  2  1  0
 25 16  1  0
 11  5  1  0
  1 26  1  0
  1 27  1  0
  1 28  1  0
  6 29  1  0
  7 30  1  0
 10 31  1  0
 11 32  1  0
 12 33  1  0
 17 34  1  0
 17 35  1  0
 18 36  1  0
 18 37  1  0
 23 38  1  0
 23 39  1  0
 25 40  1  0
 25 41  1  0
M  END
>  <meeko>  (3) 
{"is_sidechain": [false], "free_energy": -7.934, "intermolecular_energy": -9.886, "internal_energy": -0.704}

$$$$
ligand_73_conformer_5_docked
     RDKit          3D

 41 43  0  0  0  0  0  0  0  0999 V2000
    3.9370   41.3040   50.3970 C   0  0  0  0  0  0  0  0  0  0  0  0
    4.1490   42.6320   50.9650 N   0  0  0  0  0  0  0  0  0  0  0  0
    5.3500   43.1550   51.1570 N   0  0  0  0  0  0  0  0  0  0  0  0
    5.1840   44.3930   51.6690 C   0  0  0  0  0  0  0  0  0  0  0  0
    6.3090   45.2990   52.0060 C   0  0  0  0  0  0  0  0  0  0  0  0
    7.2020   45.7560   51.0170 C   0  0  0  0  0  0  0  0  0  0  0  0
    8.2560   46.6110   51.3560 C   0  0  0  0  0  0  0  0  0  0  0  0
    8.4300   47.0210   52.6790 C   0  0  0  0  0  0  0  0  0  0  0  0
    9.4530   47.8500   53.0040 F   0  0  0  0  0  0  0  0  0  0  0  0
    7.5500   46.5760   53.6680 C   0  0  0  0  0  0  0  0  0  0  0  0
    6.4950   45.7210   53.3350 C   0  0  0  0  0  0  0  0  0  0  0  0
    3.8280   44.6630   51.7970 C   0  0  0  0  0  0  0  0  0  0  0  0
    3.2030   43.5160   51.3450 C   0  0  0  0  0  0  0  0  0  0  0  0
    1.7450   43.3240   51.2130 C   0  0  0  0  0  0  0  0  0  0  0  0
    1.2680   43.0270   50.0840 O   0  0  0  0  0  0  0  0  0  0  0  0
    0.8610   43.4840   52.3360 N   0  0  0  0  0  0  0  0  0  0  0  0
    0.2070   42.3610   52.9870 C   0  0  0  0  0  0  0  0  0  0  0  0
   -0.2600   42.8870   54.3400 C   0  0  0  0  0  0  0  0  0  0  0  0
   -0.3050   44.4210   54.1910 C   0  0  1  0  0  0  0  0  0  0  0  0
   -1.6440   44.8280   53.7150 C   0  0  0  0  0  0  0  0  0  0  0  0
   -2.6920   45.1470   53.3420 N   0  0  0  0  0  0  0  0  0  0  0  0
   -0.0150   45.1530   55.4860 C   0  0  0  0  0  0  0  0  0  0  0  0
   -0.9900   46.0270   56.0600 N   0  0  0  0  0  0  0  0  0  0  0  0
    1.0620   44.9450   56.1080 O   0  0  0  0  0  0  0  0  0  0  0  0
    0.7450   44.7150   53.1080 C   0  0  0  0  0  0  0  0  0  0  0  0
    3.8201   40.5720   51.2097 H   0  0  0  0  0  0  0  0  0  0  0  0
    3.0286   41.3113   49.7766 H   0  0  0  0  0  0  0  0  0  0  0  0
    4.8025   41.0281   49.7766 H   0  0  0  0  0  0  0  0  0  0  0  0
    7.0697   45.4387   49.9721 H   0  0  0  0  0  0  0  0  0  0  0  0
    8.9499   46.9613   50.5776 H   0  0  0  0  0  0  0  0  0  0  0  0
    7.6871   46.8987   54.7106 H   0  0  0  0  0  0  0  0  0  0  0  0
    5.8047   45.3755   54.1187 H   0  0  0  0  0  0  0  0  0  0  0  0
    3.3570   45.5830   52.1735 H   0  0  0  0  0  0  0  0  0  0  0  0
   -0.6517   42.0185   52.3909 H   0  0  0  0  0  0  0  0  0  0  0  0
    0.8856   41.5021   53.0962 H   0  0  0  0  0  0  0  0  0  0  0  0
   -1.2589   42.4945   54.5813 H   0  0  0  0  0  0  0  0  0  0  0  0
    0.4115   42.5750   55.1535 H   0  0  0  0  0  0  0  0  0  0  0  0
   -1.9210   46.1670   55.6090 H   0  0  0  0  0  0  0  0  0  0  0  0
   -0.7880   46.5210   56.9580 H   0  0  0  0  0  0  0  0  0  0  0  0
    0.4125   45.5428   52.4645 H   0  0  0  0  0  0  0  0  0  0  0  0
    1.7088   45.0163   53.5442 H   0  0  0  0  0  0  0  0  0  0  0  0
  1  2  1  0
  2  3  1  0
  3  4  2  0
  4  5  1  0
  5  6  2  0
  6  7  1  0
  7  8  2  0
  8  9  1  0
  8 10  1  0
 10 11  2  0
  4 12  1  0
 12 13  2  0
 13 14  1  0
 14 15  2  0
 14 16  1  0
 16 17  1  0
 17 18  1  0
 18 19  1  0
 19 20  1  6
 20 21  3  0
 19 22  1  0
 22 23  1  0
 22 24  2  0
 19 25  1  0
 13  2  1  0
 25 16  1  0
 11  5  1  0
  1 26  1  0
  1 27  1  0
  1 28  1  0
  6 29  1  0
  7 30  1  0
 10 31  1  0
 11 32  1  0
 12 33  1  0
 17 34  1  0
 17 35  1  0
 18 36  1  0
 18 37  1  0
 23 38  1  0
 23 39  1  0
 25 40  1  0
 25 41  1  0
M  END
>  <meeko>  (4) 
{"is_sidechain": [false], "free_energy": -7.765, "intermolecular_energy": -9.852, "internal_energy": -0.53}

$$$$
ligand_73_conformer_5_docked
     RDKit          3D

 41 43  0  0  0  0  0  0  0  0999 V2000
    2.4560   46.8790   52.1330 C   0  0  0  0  0  0  0  0  0  0  0  0
    3.7110   46.4610   52.7470 N   0  0  0  0  0  0  0  0  0  0  0  0
    4.8960   46.6790   52.1990 N   0  0  0  0  0  0  0  0  0  0  0  0
    5.8350   46.1900   53.0350 C   0  0  0  0  0  0  0  0  0  0  0  0
    7.2920   46.2610   52.7640 C   0  0  0  0  0  0  0  0  0  0  0  0
    8.2110   46.5700   53.7860 C   0  0  0  0  0  0  0  0  0  0  0  0
    9.5810   46.6310   53.5110 C   0  0  0  0  0  0  0  0  0  0  0  0
   10.0500   46.3840   52.2190 C   0  0  0  0  0  0  0  0  0  0  0  0
   11.3780   46.4440   51.9560 F   0  0  0  0  0  0  0  0  0  0  0  0
    9.1480   46.0750   51.1980 C   0  0  0  0  0  0  0  0  0  0  0  0
    7.7780   46.0120   51.4670 C   0  0  0  0  0  0  0  0  0  0  0  0
    5.2200   45.6500   54.1560 C   0  0  0  0  0  0  0  0  0  0  0  0
    3.8700   45.8350   53.9330 C   0  0  0  0  0  0  0  0  0  0  0  0
    2.7850   45.4910   54.8740 C   0  0  0  0  0  0  0  0  0  0  0  0
    2.9460   45.7230   56.1030 O   0  0  0  0  0  0  0  0  0  0  0  0
    1.5620   44.8840   54.4220 N   0  0  0  0  0  0  0  0  0  0  0  0
    1.5320   43.6210   53.7020 C   0  0  0  0  0  0  0  0  0  0  0  0
    0.0920   43.1290   53.7980 C   0  0  0  0  0  0  0  0  0  0  0  0
   -0.7480   44.3790   54.1280 C   0  0  1  0  0  0  0  0  0  0  0  0
   -1.1870   45.0200   52.8710 C   0  0  0  0  0  0  0  0  0  0  0  0
   -1.5300   45.5230   51.8870 N   0  0  0  0  0  0  0  0  0  0  0  0
   -1.9760   44.0680   54.9600 C   0  0  0  0  0  0  0  0  0  0  0  0
   -3.1700   44.8400   54.8100 N   0  0  0  0  0  0  0  0  0  0  0  0
   -1.9810   43.0800   55.7440 O   0  0  0  0  0  0  0  0  0  0  0  0
    0.2380   45.2980   54.8670 C   0  0  0  0  0  0  0  0  0  0  0  0
    1.7262   47.1221   52.9193 H   0  0  0  0  0  0  0  0  0  0  0  0
    2.6314   47.7672   51.5083 H   0  0  0  0  0  0  0  0  0  0  0  0
    2.0638   46.0630   51.5083 H   0  0  0  0  0  0  0  0  0  0  0  0
    7.8490   46.7645   54.8064 H   0  0  0  0  0  0  0  0  0  0  0  0
   10.2913   46.8743   54.3149 H   0  0  0  0  0  0  0  0  0  0  0  0
    9.5169   45.8808   50.1800 H   0  0  0  0  0  0  0  0  0  0  0  0
    7.0740   45.7658   50.6585 H   0  0  0  0  0  0  0  0  0  0  0  0
    5.7004   45.1800   55.0268 H   0  0  0  0  0  0  0  0  0  0  0  0
    1.8171   43.7716   52.6503 H   0  0  0  0  0  0  0  0  0  0  0  0
    2.2400   42.8936   54.1259 H   0  0  0  0  0  0  0  0  0  0  0  0
   -0.2294   42.6911   52.8415 H   0  0  0  0  0  0  0  0  0  0  0  0
   -0.0223   42.3465   54.5626 H   0  0  0  0  0  0  0  0  0  0  0  0
   -3.2240   45.6190   54.1180 H   0  0  0  0  0  0  0  0  0  0  0  0
   -4.0160   44.6130   55.3790 H   0  0  0  0  0  0  0  0  0  0  0  0
    0.0550   46.3501   54.6031 H   0  0  0  0  0  0  0  0  0  0  0  0
    0.1305   45.2188   55.9589 H   0  0  0  0  0  0  0  0  0  0  0  0
  1  2  1  0
  2  3  1  0
  3  4  2  0
  4  5  1  0
  5  6  2  0
  6  7  1  0
  7  8  2  0
  8  9  1  0
  8 10  1  0
 10 11  2  0
  4 12  1  0
 12 13  2  0
 13 14  1  0
 14 15  2  0
 14 16  1  0
 16 17  1  0
 17 18  1  0
 18 19  1  0
 19 20  1  6
 20 21  3  0
 19 22  1  0
 22 23  1  0
 22 24  2  0
 19 25  1  0
 13  2  1  0
 25 16  1  0
 11  5  1  0
  1 26  1  0
  1 27  1  0
  1 28  1  0
  6 29  1  0
  7 30  1  0
 10 31  1  0
 11 32  1  0
 12 33  1  0
 17 34  1  0
 17 35  1  0
 18 36  1  0
 18 37  1  0
 23 38  1  0
 23 39  1  0
 25 40  1  0
 25 41  1  0
M  END
>  <meeko>  (5) 
{"is_sidechain": [false], "free_energy": -7.764, "intermolecular_energy": -9.792, "internal_energy": -0.587}

$$$$
