ligand_71_conformer_3_docked
     RDKit          3D

 39 41  0  0  0  0  0  0  0  0999 V2000
    6.3510   46.6670   54.6380 C   0  0  0  0  0  0  0  0  0  0  0  0
    7.5260   46.6620   53.6950 C   0  0  0  0  0  0  0  0  0  0  0  0
    8.7670   47.1250   54.1670 C   0  0  0  0  0  0  0  0  0  0  0  0
    9.8740   47.1820   53.3180 C   0  0  0  0  0  0  0  0  0  0  0  0
    9.7590   46.7750   51.9900 C   0  0  0  0  0  0  0  0  0  0  0  0
    8.5400   46.2940   51.5100 C   0  0  0  0  0  0  0  0  0  0  0  0
    7.4190   46.2080   52.3540 C   0  0  0  0  0  0  0  0  0  0  0  0
    6.1610   45.6560   51.8030 C   0  0  0  0  0  0  0  0  0  0  0  0
    5.3530   46.4310   51.2230 O   0  0  0  0  0  0  0  0  0  0  0  0
    5.9020   44.2450   51.8540 N   0  0  0  0  0  0  0  0  0  0  0  0
    4.6070   43.6540   51.6810 C   0  0  0  0  0  0  0  0  0  0  0  0
    3.4750   44.2510   52.1080 N   0  0  0  0  0  0  0  0  0  0  0  0
    2.3610   43.5290   51.8000 C   0  0  0  0  0  0  0  0  0  0  0  0
    0.9990   43.9920   52.1710 C   0  0  0  0  0  0  0  0  0  0  0  0
    0.0410   44.2290   51.1660 C   0  0  0  0  0  0  0  0  0  0  0  0
   -1.2390   44.6780   51.4930 C   0  0  0  0  0  0  0  0  0  0  0  0
   -1.5830   44.8970   52.8240 C   0  0  0  0  0  0  0  0  0  0  0  0
   -0.6510   44.6690   53.8360 C   0  0  0  0  0  0  0  0  0  0  0  0
    0.6480   44.2130   53.5250 C   0  0  0  0  0  0  0  0  0  0  0  0
    1.5950   43.9560   54.5300 O   0  0  0  0  0  0  0  0  0  0  0  0
    2.2040   44.9440   55.3570 C   0  0  0  0  0  0  0  0  0  0  0  0
    2.4570   46.0710   54.5980 F   0  0  0  0  0  0  0  0  0  0  0  0
    1.3520   45.2830   56.3930 F   0  0  0  0  0  0  0  0  0  0  0  0
    2.6150   42.3420   51.1070 C   0  0  0  0  0  0  0  0  0  0  0  0
    4.2760   42.2090   50.8830 S   0  0  0  0  0  0  0  0  0  0  0  0
    6.7142   46.6655   55.6763 H   0  0  0  0  0  0  0  0  0  0  0  0
    5.7443   47.5677   54.4631 H   0  0  0  0  0  0  0  0  0  0  0  0
    5.7367   45.7715   54.4631 H   0  0  0  0  0  0  0  0  0  0  0  0
    8.8666   47.4452   55.2146 H   0  0  0  0  0  0  0  0  0  0  0  0
   10.8389   47.5489   53.6980 H   0  0  0  0  0  0  0  0  0  0  0  0
   10.6294   46.8329   51.3199 H   0  0  0  0  0  0  0  0  0  0  0  0
    8.4554   45.9787   50.4596 H   0  0  0  0  0  0  0  0  0  0  0  0
    6.7090   43.6000   52.0110 H   0  0  0  0  0  0  0  0  0  0  0  0
    0.3048   44.0583   50.1118 H   0  0  0  0  0  0  0  0  0  0  0  0
   -1.9773   44.8592   50.6979 H   0  0  0  0  0  0  0  0  0  0  0  0
   -2.5930   45.2509   53.0783 H   0  0  0  0  0  0  0  0  0  0  0  0
   -0.9305   44.8460   54.8851 H   0  0  0  0  0  0  0  0  0  0  0  0
    3.1410   44.5440   55.7717 H   0  0  0  0  0  0  0  0  0  0  0  0
    1.8586   41.6194   50.7668 H   0  0  0  0  0  0  0  0  0  0  0  0
  1  2  1  0
  2  3  2  0
  3  4  1  0
  4  5  2  0
  5  6  1  0
  6  7  2  0
  7  8  1  0
  8  9  2  0
  8 10  1  0
 10 11  1  0
 11 12  2  0
 12 13  1  0
 13 14  1  0
 14 15  2  0
 15 16  1  0
 16 17  2  0
 17 18  1  0
 18 19  2  0
 19 20  1  0
 20 21  1  0
 21 22  1  0
 21 23  1  0
 13 24  2  0
 24 25  1  0
  7  2  1  0
 25 11  1  0
 19 14  1  0
  1 26  1  0
  1 27  1  0
  1 28  1  0
  3 29  1  0
  4 30  1  0
  5 31  1  0
  6 32  1  0
 10 33  1  0
 15 34  1  0
 16 35  1  0
 17 36  1  0
 18 37  1  0
 21 38  1  0
 24 39  1  0
M  END
>  <meeko>  (1) 
{"is_sidechain": [false], "free_energy": -8.299, "intermolecular_energy": -10.724, "internal_energy": -0.762}

$$$$
ligand_71_conformer_3_docked
     RDKit          3D

 39 41  0  0  0  0  0  0  0  0999 V2000
    0.5450   45.3810   57.1970 C   0  0  0  0  0  0  0  0  0  0  0  0
   -0.5740   45.2660   56.1940 C   0  0  0  0  0  0  0  0  0  0  0  0
   -1.8790   45.5920   56.6040 C   0  0  0  0  0  0  0  0  0  0  0  0
   -2.9560   45.4580   55.7260 C   0  0  0  0  0  0  0  0  0  0  0  0
   -2.7440   45.0010   54.4260 C   0  0  0  0  0  0  0  0  0  0  0  0
   -1.4530   44.6920   53.9950 C   0  0  0  0  0  0  0  0  0  0  0  0
   -0.3530   44.8400   54.8570 C   0  0  0  0  0  0  0  0  0  0  0  0
    0.9970   44.5330   54.3380 C   0  0  0  0  0  0  0  0  0  0  0  0
    1.2920   43.3370   54.0620 O   0  0  0  0  0  0  0  0  0  0  0  0
    1.9330   45.5890   54.0740 N   0  0  0  0  0  0  0  0  0  0  0  0
    3.3450   45.3970   53.9120 C   0  0  0  0  0  0  0  0  0  0  0  0
    3.9080   45.1380   52.7130 N   0  0  0  0  0  0  0  0  0  0  0  0
    5.2650   45.0340   52.7900 C   0  0  0  0  0  0  0  0  0  0  0  0
    6.0990   44.7530   51.5940 C   0  0  0  0  0  0  0  0  0  0  0  0
    5.8550   43.5970   50.8240 C   0  0  0  0  0  0  0  0  0  0  0  0
    6.6360   43.3080   49.7060 C   0  0  0  0  0  0  0  0  0  0  0  0
    7.6710   44.1640   49.3360 C   0  0  0  0  0  0  0  0  0  0  0  0
    7.9300   45.3130   50.0820 C   0  0  0  0  0  0  0  0  0  0  0  0
    7.1490   45.6230   51.2160 C   0  0  0  0  0  0  0  0  0  0  0  0
    7.3790   46.7880   51.9680 O   0  0  0  0  0  0  0  0  0  0  0  0
    8.4650   47.6900   51.7720 C   0  0  0  0  0  0  0  0  0  0  0  0
    8.0240   48.9800   51.9970 F   0  0  0  0  0  0  0  0  0  0  0  0
    9.4840   47.4030   52.6620 F   0  0  0  0  0  0  0  0  0  0  0  0
    5.7870   45.2230   54.0730 C   0  0  0  0  0  0  0  0  0  0  0  0
    4.5090   45.5260   55.1220 S   0  0  0  0  0  0  0  0  0  0  0  0
    0.1307   45.3384   58.2151 H   0  0  0  0  0  0  0  0  0  0  0  0
    1.2524   44.5508   57.0540 H   0  0  0  0  0  0  0  0  0  0  0  0
    1.0687   46.3377   57.0540 H   0  0  0  0  0  0  0  0  0  0  0  0
   -2.0530   45.9564   57.6272 H   0  0  0  0  0  0  0  0  0  0  0  0
   -3.9725   45.7131   56.0600 H   0  0  0  0  0  0  0  0  0  0  0  0
   -3.5952   44.8838   53.7392 H   0  0  0  0  0  0  0  0  0  0  0  0
   -1.2947   44.3285   52.9689 H   0  0  0  0  0  0  0  0  0  0  0  0
    1.5650   46.5610   53.9740 H   0  0  0  0  0  0  0  0  0  0  0  0
    5.0395   42.9159   51.1087 H   0  0  0  0  0  0  0  0  0  0  0  0
    6.4347   42.4024   49.1149 H   0  0  0  0  0  0  0  0  0  0  0  0
    8.2853   43.9328   48.4533 H   0  0  0  0  0  0  0  0  0  0  0  0
    8.7497   45.9834   49.7843 H   0  0  0  0  0  0  0  0  0  0  0  0
    8.8404   47.5884   50.7430 H   0  0  0  0  0  0  0  0  0  0  0  0
    6.8511   45.1807   54.3487 H   0  0  0  0  0  0  0  0  0  0  0  0
  1  2  1  0
  2  3  2  0
  3  4  1  0
  4  5  2  0
  5  6  1  0
  6  7  2  0
  7  8  1  0
  8  9  2  0
  8 10  1  0
 10 11  1  0
 11 12  2  0
 12 13  1  0
 13 14  1  0
 14 15  2  0
 15 16  1  0
 16 17  2  0
 17 18  1  0
 18 19  2  0
 19 20  1  0
 20 21  1  0
 21 22  1  0
 21 23  1  0
 13 24  2  0
 24 25  1  0
  7  2  1  0
 25 11  1  0
 19 14  1  0
  1 26  1  0
  1 27  1  0
  1 28  1  0
  3 29  1  0
  4 30  1  0
  5 31  1  0
  6 32  1  0
 10 33  1  0
 15 34  1  0
 16 35  1  0
 17 36  1  0
 18 37  1  0
 21 38  1  0
 24 39  1  0
M  END
>  <meeko>  (2) 
{"is_sidechain": [false], "free_energy": -8.142, "intermolecular_energy": -10.838, "internal_energy": -0.446}

$$$$
ligand_71_conformer_3_docked
     RDKit          3D

 39 41  0  0  0  0  0  0  0  0999 V2000
    0.1810   43.5710   52.3760 C   0  0  0  0  0  0  0  0  0  0  0  0
   -0.1550   44.0140   53.7770 C   0  0  0  0  0  0  0  0  0  0  0  0
   -1.2000   43.3630   54.4550 C   0  0  0  0  0  0  0  0  0  0  0  0
   -1.5790   43.7680   55.7370 C   0  0  0  0  0  0  0  0  0  0  0  0
   -0.9170   44.8250   56.3590 C   0  0  0  0  0  0  0  0  0  0  0  0
    0.1360   45.4710   55.7100 C   0  0  0  0  0  0  0  0  0  0  0  0
    0.5460   45.0640   54.4280 C   0  0  0  0  0  0  0  0  0  0  0  0
    1.6920   45.7590   53.8000 C   0  0  0  0  0  0  0  0  0  0  0  0
    1.4770   46.5680   52.8560 O   0  0  0  0  0  0  0  0  0  0  0  0
    3.0220   45.5780   54.3110 N   0  0  0  0  0  0  0  0  0  0  0  0
    4.2170   45.9070   53.5900 C   0  0  0  0  0  0  0  0  0  0  0  0
    4.7340   45.1010   52.6400 N   0  0  0  0  0  0  0  0  0  0  0  0
    5.8470   45.6330   52.0600 C   0  0  0  0  0  0  0  0  0  0  0  0
    6.5880   44.9220   50.9860 C   0  0  0  0  0  0  0  0  0  0  0  0
    5.9800   43.8450   50.3100 C   0  0  0  0  0  0  0  0  0  0  0  0
    6.6640   43.1560   49.3090 C   0  0  0  0  0  0  0  0  0  0  0  0
    7.9620   43.5280   48.9660 C   0  0  0  0  0  0  0  0  0  0  0  0
    8.5830   44.5910   49.6220 C   0  0  0  0  0  0  0  0  0  0  0  0
    7.9060   45.3010   50.6360 C   0  0  0  0  0  0  0  0  0  0  0  0
    8.5050   46.3890   51.2930 O   0  0  0  0  0  0  0  0  0  0  0  0
    9.6970   46.3230   52.0710 C   0  0  0  0  0  0  0  0  0  0  0  0
   10.7860   46.2690   51.2220 F   0  0  0  0  0  0  0  0  0  0  0  0
    9.8040   47.4480   52.8680 F   0  0  0  0  0  0  0  0  0  0  0  0
    6.2110   46.8890   52.5540 C   0  0  0  0  0  0  0  0  0  0  0  0
    5.1060   47.3290   53.7420 S   0  0  0  0  0  0  0  0  0  0  0  0
    0.8453   42.6952   52.4178 H   0  0  0  0  0  0  0  0  0  0  0  0
   -0.7441   43.3045   51.8439 H   0  0  0  0  0  0  0  0  0  0  0  0
    0.6871   44.3900   51.8439 H   0  0  0  0  0  0  0  0  0  0  0  0
   -1.7247   42.5260   53.9711 H   0  0  0  0  0  0  0  0  0  0  0  0
   -2.4005   43.2524   56.2559 H   0  0  0  0  0  0  0  0  0  0  0  0
   -1.2252   45.1507   57.3635 H   0  0  0  0  0  0  0  0  0  0  0  0
    0.6505   46.3070   56.2063 H   0  0  0  0  0  0  0  0  0  0  0  0
    3.1310   45.1990   55.2780 H   0  0  0  0  0  0  0  0  0  0  0  0
    4.9554   43.5449   50.5748 H   0  0  0  0  0  0  0  0  0  0  0  0
    6.1778   42.3173   48.7893 H   0  0  0  0  0  0  0  0  0  0  0  0
    8.4985   42.9822   48.1759 H   0  0  0  0  0  0  0  0  0  0  0  0
    9.6086   44.8779   49.3466 H   0  0  0  0  0  0  0  0  0  0  0  0
    9.6654   45.4271   52.7085 H   0  0  0  0  0  0  0  0  0  0  0  0
    7.0727   47.4869   52.2223 H   0  0  0  0  0  0  0  0  0  0  0  0
  1  2  1  0
  2  3  2  0
  3  4  1  0
  4  5  2  0
  5  6  1  0
  6  7  2  0
  7  8  1  0
  8  9  2  0
  8 10  1  0
 10 11  1  0
 11 12  2  0
 12 13  1  0
 13 14  1  0
 14 15  2  0
 15 16  1  0
 16 17  2  0
 17 18  1  0
 18 19  2  0
 19 20  1  0
 20 21  1  0
 21 22  1  0
 21 23  1  0
 13 24  2  0
 24 25  1  0
  7  2  1  0
 25 11  1  0
 19 14  1  0
  1 26  1  0
  1 27  1  0
  1 28  1  0
  3 29  1  0
  4 30  1  0
  5 31  1  0
  6 32  1  0
 10 33  1  0
 15 34  1  0
 16 35  1  0
 17 36  1  0
 18 37  1  0
 21 38  1  0
 24 39  1  0
M  END
>  <meeko>  (3) 
{"is_sidechain": [false], "free_energy": -8.051, "intermolecular_energy": -11.254, "internal_energy": 0.089}

$$$$
ligand_71_conformer_3_docked
     RDKit          3D

 39 41  0  0  0  0  0  0  0  0999 V2000
    7.8810   45.6520   50.4220 C   0  0  0  0  0  0  0  0  0  0  0  0
    8.2070   46.2320   51.7740 C   0  0  0  0  0  0  0  0  0  0  0  0
    9.5150   46.6900   52.0100 C   0  0  0  0  0  0  0  0  0  0  0  0
    9.8780   47.1930   53.2600 C   0  0  0  0  0  0  0  0  0  0  0  0
    8.9400   47.2500   54.2900 C   0  0  0  0  0  0  0  0  0  0  0  0
    7.6310   46.8180   54.0680 C   0  0  0  0  0  0  0  0  0  0  0  0
    7.2400   46.3280   52.8100 C   0  0  0  0  0  0  0  0  0  0  0  0
    5.8310   45.9180   52.6190 C   0  0  0  0  0  0  0  0  0  0  0  0
    4.9780   46.7870   52.2920 O   0  0  0  0  0  0  0  0  0  0  0  0
    5.4550   44.5360   52.7260 N   0  0  0  0  0  0  0  0  0  0  0  0
    4.1090   44.0770   52.9080 C   0  0  0  0  0  0  0  0  0  0  0  0
    3.2850   44.5990   53.8400 N   0  0  0  0  0  0  0  0  0  0  0  0
    2.0430   44.0390   53.8060 C   0  0  0  0  0  0  0  0  0  0  0  0
    0.9680   44.4570   54.7410 C   0  0  0  0  0  0  0  0  0  0  0  0
    1.3030   45.0380   55.9800 C   0  0  0  0  0  0  0  0  0  0  0  0
    0.3080   45.4250   56.8780 C   0  0  0  0  0  0  0  0  0  0  0  0
   -1.0340   45.2390   56.5560 C   0  0  0  0  0  0  0  0  0  0  0  0
   -1.3890   44.6650   55.3360 C   0  0  0  0  0  0  0  0  0  0  0  0
   -0.3970   44.2700   54.4140 C   0  0  0  0  0  0  0  0  0  0  0  0
   -0.7340   43.7120   53.1690 O   0  0  0  0  0  0  0  0  0  0  0  0
   -1.3120   44.4250   52.0790 C   0  0  0  0  0  0  0  0  0  0  0  0
   -2.6700   44.5590   52.2980 F   0  0  0  0  0  0  0  0  0  0  0  0
   -0.7460   45.6840   51.9860 F   0  0  0  0  0  0  0  0  0  0  0  0
    1.8780   43.0610   52.8200 C   0  0  0  0  0  0  0  0  0  0  0  0
    3.3270   42.9070   51.9830 S   0  0  0  0  0  0  0  0  0  0  0  0
    7.3457   44.6997   50.5509 H   0  0  0  0  0  0  0  0  0  0  0  0
    7.2467   46.3565   49.8641 H   0  0  0  0  0  0  0  0  0  0  0  0
    8.8126   45.4764   49.8641 H   0  0  0  0  0  0  0  0  0  0  0  0
   10.2597   46.6515   51.2013 H   0  0  0  0  0  0  0  0  0  0  0  0
   10.9057   47.5451   53.4330 H   0  0  0  0  0  0  0  0  0  0  0  0
    9.2314   47.6356   55.2781 H   0  0  0  0  0  0  0  0  0  0  0  0
    6.8976   46.8616   54.8867 H   0  0  0  0  0  0  0  0  0  0  0  0
    6.2050   43.8130   52.6490 H   0  0  0  0  0  0  0  0  0  0  0  0
    2.3607   45.1881   56.2422 H   0  0  0  0  0  0  0  0  0  0  0  0
    0.5839   45.8777   57.8418 H   0  0  0  0  0  0  0  0  0  0  0  0
   -1.8161   45.5458   57.2661 H   0  0  0  0  0  0  0  0  0  0  0  0
   -2.4512   44.5189   55.0904 H   0  0  0  0  0  0  0  0  0  0  0  0
   -1.1290   43.8726   51.1455 H   0  0  0  0  0  0  0  0  0  0  0  0
    0.9578   42.4905   52.6257 H   0  0  0  0  0  0  0  0  0  0  0  0
  1  2  1  0
  2  3  2  0
  3  4  1  0
  4  5  2  0
  5  6  1  0
  6  7  2  0
  7  8  1  0
  8  9  2  0
  8 10  1  0
 10 11  1  0
 11 12  2  0
 12 13  1  0
 13 14  1  0
 14 15  2  0
 15 16  1  0
 16 17  2  0
 17 18  1  0
 18 19  2  0
 19 20  1  0
 20 21  1  0
 21 22  1  0
 21 23  1  0
 13 24  2  0
 24 25  1  0
  7  2  1  0
 25 11  1  0
 19 14  1  0
  1 26  1  0
  1 27  1  0
  1 28  1  0
  3 29  1  0
  4 30  1  0
  5 31  1  0
  6 32  1  0
 10 33  1  0
 15 34  1  0
 16 35  1  0
 17 36  1  0
 18 37  1  0
 21 38  1  0
 24 39  1  0
M  END
>  <meeko>  (4) 
{"is_sidechain": [false], "free_energy": -8.04, "intermolecular_energy": -11.038, "internal_energy": -0.114}

$$$$
ligand_71_conformer_3_docked
     RDKit          3D

 39 41  0  0  0  0  0  0  0  0999 V2000
   -1.0590   44.0200   53.5390 C   0  0  0  0  0  0  0  0  0  0  0  0
   -0.4770   44.5000   54.8430 C   0  0  0  0  0  0  0  0  0  0  0  0
   -1.3150   44.5610   55.9710 C   0  0  0  0  0  0  0  0  0  0  0  0
   -0.8340   45.0420   57.1900 C   0  0  0  0  0  0  0  0  0  0  0  0
    0.4890   45.4640   57.3010 C   0  0  0  0  0  0  0  0  0  0  0  0
    1.3410   45.3930   56.1990 C   0  0  0  0  0  0  0  0  0  0  0  0
    0.8830   44.8920   54.9680 C   0  0  0  0  0  0  0  0  0  0  0  0
    1.8380   44.8050   53.8410 C   0  0  0  0  0  0  0  0  0  0  0  0
    2.0880   43.6770   53.3340 O   0  0  0  0  0  0  0  0  0  0  0  0
    2.4120   45.9950   53.2800 N   0  0  0  0  0  0  0  0  0  0  0  0
    3.5810   46.0150   52.4490 C   0  0  0  0  0  0  0  0  0  0  0  0
    4.8160   46.2400   52.9440 N   0  0  0  0  0  0  0  0  0  0  0  0
    5.7790   46.1730   51.9820 C   0  0  0  0  0  0  0  0  0  0  0  0
    7.2150   46.3860   52.2930 C   0  0  0  0  0  0  0  0  0  0  0  0
    7.5890   46.9480   53.5300 C   0  0  0  0  0  0  0  0  0  0  0  0
    8.9320   47.1690   53.8360 C   0  0  0  0  0  0  0  0  0  0  0  0
    9.9220   46.8340   52.9160 C   0  0  0  0  0  0  0  0  0  0  0  0
    9.5760   46.2760   51.6860 C   0  0  0  0  0  0  0  0  0  0  0  0
    8.2230   46.0430   51.3600 C   0  0  0  0  0  0  0  0  0  0  0  0
    7.8540   45.4610   50.1350 O   0  0  0  0  0  0  0  0  0  0  0  0
    8.2790   44.1810   49.6740 C   0  0  0  0  0  0  0  0  0  0  0  0
    7.1770   43.4690   49.2410 F   0  0  0  0  0  0  0  0  0  0  0  0
    9.1610   44.3290   48.6180 F   0  0  0  0  0  0  0  0  0  0  0  0
    5.2970   45.8800   50.7020 C   0  0  0  0  0  0  0  0  0  0  0  0
    3.6280   45.7040   50.7960 S   0  0  0  0  0  0  0  0  0  0  0  0
   -1.8932   43.3320   53.7410 H   0  0  0  0  0  0  0  0  0  0  0  0
   -1.4258   44.8816   52.9619 H   0  0  0  0  0  0  0  0  0  0  0  0
   -0.2829   43.4959   52.9619 H   0  0  0  0  0  0  0  0  0  0  0  0
   -2.3599   44.2263   55.8918 H   0  0  0  0  0  0  0  0  0  0  0  0
   -1.5004   45.0879   58.0640 H   0  0  0  0  0  0  0  0  0  0  0  0
    0.8624   45.8539   58.2594 H   0  0  0  0  0  0  0  0  0  0  0  0
    2.3829   45.7328   56.2942 H   0  0  0  0  0  0  0  0  0  0  0  0
    1.9400   46.9080   53.4700 H   0  0  0  0  0  0  0  0  0  0  0  0
    6.8132   47.2154   54.2626 H   0  0  0  0  0  0  0  0  0  0  0  0
    9.2093   47.6085   54.8055 H   0  0  0  0  0  0  0  0  0  0  0  0
   10.9800   47.0101   53.1603 H   0  0  0  0  0  0  0  0  0  0  0  0
   10.3639   46.0154   50.9640 H   0  0  0  0  0  0  0  0  0  0  0  0
    8.7790   43.6469   50.4954 H   0  0  0  0  0  0  0  0  0  0  0  0
    5.9054   45.7817   49.7908 H   0  0  0  0  0  0  0  0  0  0  0  0
  1  2  1  0
  2  3  2  0
  3  4  1  0
  4  5  2  0
  5  6  1  0
  6  7  2  0
  7  8  1  0
  8  9  2  0
  8 10  1  0
 10 11  1  0
 11 12  2  0
 12 13  1  0
 13 14  1  0
 14 15  2  0
 15 16  1  0
 16 17  2  0
 17 18  1  0
 18 19  2  0
 19 20  1  0
 20 21  1  0
 21 22  1  0
 21 23  1  0
 13 24  2  0
 24 25  1  0
  7  2  1  0
 25 11  1  0
 19 14  1  0
  1 26  1  0
  1 27  1  0
  1 28  1  0
  3 29  1  0
  4 30  1  0
  5 31  1  0
  6 32  1  0
 10 33  1  0
 15 34  1  0
 16 35  1  0
 17 36  1  0
 18 37  1  0
 21 38  1  0
 24 39  1  0
M  END
>  <meeko>  (5) 
{"is_sidechain": [false], "free_energy": -7.947, "intermolecular_energy": -11.191, "internal_energy": 0.159}

$$$$
