ligand_38_conformer_4_docked
     RDKit          3D

 52 57  0  0  0  0  0  0  0  0999 V2000
   -1.7050   42.6980   51.7670 C   0  0  0  0  0  0  0  0  0  0  0  0
   -1.2110   43.6150   52.7860 N   0  0  0  0  0  0  0  0  0  0  0  0
   -1.7970   43.8240   54.0820 C   0  0  0  0  0  0  0  0  0  0  0  0
   -2.9840   43.5320   54.3830 O   0  0  0  0  0  0  0  0  0  0  0  0
   -0.7970   44.3800   54.9890 C   0  0  0  0  0  0  0  0  0  0  0  0
   -0.8130   44.7720   56.3260 C   0  0  0  0  0  0  0  0  0  0  0  0
    0.3950   45.2460   56.8840 C   0  0  0  0  0  0  0  0  0  0  0  0
    1.5810   45.3090   56.1080 C   0  0  0  0  0  0  0  0  0  0  0  0
    1.5620   44.9100   54.7490 C   0  0  0  0  0  0  0  0  0  0  0  0
    2.6580   44.9340   53.8460 C   0  0  0  0  0  0  0  0  0  0  0  0
    4.2170   45.6260   54.3120 S   0  0  0  0  0  0  0  0  0  0  0  0
    4.0360   47.0920   54.5910 O   0  0  0  0  0  0  0  0  0  0  0  0
    4.7420   44.9500   55.5500 O   0  0  0  0  0  0  0  0  0  0  0  0
    5.3470   45.3980   53.0020 N   0  0  0  0  0  0  0  0  0  0  0  0
    5.4400   46.5920   52.1520 C   0  0  0  0  0  0  0  0  0  0  0  0
    6.8980   46.8240   51.9780 C   0  0  0  0  0  0  0  0  0  0  0  0
    7.4960   47.9410   52.5860 C   0  0  0  0  0  0  0  0  0  0  0  0
    8.8840   48.0490   52.6570 C   0  0  0  0  0  0  0  0  0  0  0  0
    9.6860   47.0350   52.1420 C   0  0  0  0  0  0  0  0  0  0  0  0
    9.1050   45.9210   51.5340 C   0  0  0  0  0  0  0  0  0  0  0  0
    7.7020   45.8000   51.4240 C   0  0  0  0  0  0  0  0  0  0  0  0
    7.1190   44.6360   50.6680 C   0  0  0  0  0  0  0  0  0  0  0  0
    7.7870   44.2530   49.4820 C   0  0  0  0  0  0  0  0  0  0  0  0
    7.3450   43.1810   48.7110 C   0  0  0  0  0  0  0  0  0  0  0  0
    6.2190   42.4660   49.0920 C   0  0  0  0  0  0  0  0  0  0  0  0
    5.5180   42.8320   50.2380 C   0  0  0  0  0  0  0  0  0  0  0  0
    5.9290   43.9190   51.0370 C   0  0  0  0  0  0  0  0  0  0  0  0
    5.0230   44.1910   52.2360 C   0  0  0  0  0  0  0  0  0  0  0  0
    2.4720   44.4600   52.5160 C   0  0  0  0  0  0  0  0  0  0  0  0
    1.2150   43.9870   52.0760 C   0  0  0  0  0  0  0  0  0  0  0  0
    0.1530   44.0100   52.9800 C   0  0  0  0  0  0  0  0  0  0  0  0
    0.3490   44.4550   54.2550 C   0  0  0  0  0  0  0  0  0  0  0  0
   -2.1733   41.8288   52.2519 H   0  0  0  0  0  0  0  0  0  0  0  0
   -2.4480   43.2125   51.1399 H   0  0  0  0  0  0  0  0  0  0  0  0
   -0.8666   42.3605   51.1399 H   0  0  0  0  0  0  0  0  0  0  0  0
   -1.7335   44.7144   56.9255 H   0  0  0  0  0  0  0  0  0  0  0  0
    0.4164   45.5708   57.9347 H   0  0  0  0  0  0  0  0  0  0  0  0
    2.5163   45.6681   56.5622 H   0  0  0  0  0  0  0  0  0  0  0  0
    4.9576   46.4136   51.1797 H   0  0  0  0  0  0  0  0  0  0  0  0
    4.9328   47.4596   52.5992 H   0  0  0  0  0  0  0  0  0  0  0  0
    6.8642   48.7359   53.0090 H   0  0  0  0  0  0  0  0  0  0  0  0
    9.3446   48.9344   53.1194 H   0  0  0  0  0  0  0  0  0  0  0  0
   10.7809   47.1116   52.2143 H   0  0  0  0  0  0  0  0  0  0  0  0
    9.7500   45.1247   51.1342 H   0  0  0  0  0  0  0  0  0  0  0  0
    8.6765   44.8149   49.1610 H   0  0  0  0  0  0  0  0  0  0  0  0
    7.8900   42.9005   47.7976 H   0  0  0  0  0  0  0  0  0  0  0  0
    5.8802   41.6105   48.4892 H   0  0  0  0  0  0  0  0  0  0  0  0
    4.6235   42.2605   50.5266 H   0  0  0  0  0  0  0  0  0  0  0  0
    3.9911   44.2885   51.8676 H   0  0  0  0  0  0  0  0  0  0  0  0
    5.1657   43.3451   52.9245 H   0  0  0  0  0  0  0  0  0  0  0  0
    3.3224   44.4621   51.8183 H   0  0  0  0  0  0  0  0  0  0  0  0
    1.0782   43.6118   51.0510 H   0  0  0  0  0  0  0  0  0  0  0  0
  1  2  1  0
  2  3  1  0
  3  4  2  0
  3  5  1  0
  5  6  2  0
  6  7  1  0
  7  8  2  0
  8  9  1  0
  9 10  2  0
 10 11  1  0
 11 12  2  0
 11 13  2  0
 11 14  1  0
 14 15  1  0
 15 16  1  0
 16 17  2  0
 17 18  1  0
 18 19  2  0
 19 20  1  0
 20 21  2  0
 21 22  1  0
 22 23  2  0
 23 24  1  0
 24 25  2  0
 25 26  1  0
 26 27  2  0
 27 28  1  0
 10 29  1  0
 29 30  2  0
 30 31  1  0
 31 32  2  0
 31  2  1  0
 32  5  1  0
 32  9  1  0
 28 14  1  0
 21 16  1  0
 27 22  1  0
  1 33  1  0
  1 34  1  0
  1 35  1  0
  6 36  1  0
  7 37  1  0
  8 38  1  0
 15 39  1  0
 15 40  1  0
 17 41  1  0
 18 42  1  0
 19 43  1  0
 20 44  1  0
 23 45  1  0
 24 46  1  0
 25 47  1  0
 26 48  1  0
 28 49  1  0
 28 50  1  0
 29 51  1  0
 30 52  1  0
M  END
>  <meeko>  (1) 
{"is_sidechain": [false], "free_energy": -12.37, "intermolecular_energy": -13.817, "internal_energy": 0.504}

$$$$
ligand_38_conformer_4_docked
     RDKit          3D

 52 57  0  0  0  0  0  0  0  0999 V2000
    0.8730   46.7980   58.3260 C   0  0  0  0  0  0  0  0  0  0  0  0
    0.3160   45.8440   57.3770 N   0  0  0  0  0  0  0  0  0  0  0  0
   -1.0820   45.6000   57.1530 C   0  0  0  0  0  0  0  0  0  0  0  0
   -1.9960   45.8950   57.9680 O   0  0  0  0  0  0  0  0  0  0  0  0
   -1.2730   45.0050   55.8340 C   0  0  0  0  0  0  0  0  0  0  0  0
   -2.3870   44.5700   55.1190 C   0  0  0  0  0  0  0  0  0  0  0  0
   -2.1740   44.0670   53.8170 C   0  0  0  0  0  0  0  0  0  0  0  0
   -0.8700   44.0160   53.2590 C   0  0  0  0  0  0  0  0  0  0  0  0
    0.2420   44.4580   54.0160 C   0  0  0  0  0  0  0  0  0  0  0  0
    1.6020   44.4510   53.6020 C   0  0  0  0  0  0  0  0  0  0  0  0
    2.0900   43.7280   52.0640 S   0  0  0  0  0  0  0  0  0  0  0  0
    2.0600   42.2320   52.1970 O   0  0  0  0  0  0  0  0  0  0  0  0
    1.1480   44.1450   50.9670 O   0  0  0  0  0  0  0  0  0  0  0  0
    3.7050   44.2660   51.6790 N   0  0  0  0  0  0  0  0  0  0  0  0
    3.7100   45.6440   51.1700 C   0  0  0  0  0  0  0  0  0  0  0  0
    4.7910   46.3270   51.9280 C   0  0  0  0  0  0  0  0  0  0  0  0
    4.4540   47.3120   52.8740 C   0  0  0  0  0  0  0  0  0  0  0  0
    5.4090   47.7850   53.7720 C   0  0  0  0  0  0  0  0  0  0  0  0
    6.7000   47.2650   53.7510 C   0  0  0  0  0  0  0  0  0  0  0  0
    7.0470   46.2880   52.8170 C   0  0  0  0  0  0  0  0  0  0  0  0
    6.1080   45.8120   51.8760 C   0  0  0  0  0  0  0  0  0  0  0  0
    6.5510   44.8370   50.8190 C   0  0  0  0  0  0  0  0  0  0  0  0
    7.8220   45.0630   50.2420 C   0  0  0  0  0  0  0  0  0  0  0  0
    8.3410   44.2170   49.2660 C   0  0  0  0  0  0  0  0  0  0  0  0
    7.6040   43.1260   48.8270 C   0  0  0  0  0  0  0  0  0  0  0  0
    6.3360   42.8880   49.3500 C   0  0  0  0  0  0  0  0  0  0  0  0
    5.7740   43.7290   50.3310 C   0  0  0  0  0  0  0  0  0  0  0  0
    4.3650   43.3310   50.7660 C   0  0  0  0  0  0  0  0  0  0  0  0
    2.5960   44.9690   54.4800 C   0  0  0  0  0  0  0  0  0  0  0  0
    2.2580   45.4690   55.7580 C   0  0  0  0  0  0  0  0  0  0  0  0
    0.9180   45.4290   56.1430 C   0  0  0  0  0  0  0  0  0  0  0  0
   -0.0260   44.9410   55.2870 C   0  0  0  0  0  0  0  0  0  0  0  0
    0.6725   46.4546   59.3516 H   0  0  0  0  0  0  0  0  0  0  0  0
    1.9592   46.8771   58.1716 H   0  0  0  0  0  0  0  0  0  0  0  0
    0.4080   47.7828   58.1716 H   0  0  0  0  0  0  0  0  0  0  0  0
   -3.3965   44.6168   55.5534 H   0  0  0  0  0  0  0  0  0  0  0  0
   -3.0307   43.7096   53.2268 H   0  0  0  0  0  0  0  0  0  0  0  0
   -0.7232   43.6330   52.2383 H   0  0  0  0  0  0  0  0  0  0  0  0
    3.9254   45.6575   50.0914 H   0  0  0  0  0  0  0  0  0  0  0  0
    2.7359   46.1379   51.3015 H   0  0  0  0  0  0  0  0  0  0  0  0
    3.4296   47.7117   52.9052 H   0  0  0  0  0  0  0  0  0  0  0  0
    5.1428   48.5685   54.4967 H   0  0  0  0  0  0  0  0  0  0  0  0
    7.4484   47.6250   54.4723 H   0  0  0  0  0  0  0  0  0  0  0  0
    8.0693   45.8818   52.8138 H   0  0  0  0  0  0  0  0  0  0  0  0
    8.4151   45.9285   50.5725 H   0  0  0  0  0  0  0  0  0  0  0  0
    9.3368   44.4135   48.8420 H   0  0  0  0  0  0  0  0  0  0  0  0
    8.0215   42.4499   48.0664 H   0  0  0  0  0  0  0  0  0  0  0  0
    5.7595   42.0235   48.9891 H   0  0  0  0  0  0  0  0  0  0  0  0
    3.7431   43.2414   49.8631 H   0  0  0  0  0  0  0  0  0  0  0  0
    4.4730   42.3879   51.3218 H   0  0  0  0  0  0  0  0  0  0  0  0
    3.6476   44.9803   54.1573 H   0  0  0  0  0  0  0  0  0  0  0  0
    3.0284   45.8773   56.4287 H   0  0  0  0  0  0  0  0  0  0  0  0
  1  2  1  0
  2  3  1  0
  3  4  2  0
  3  5  1  0
  5  6  2  0
  6  7  1  0
  7  8  2  0
  8  9  1  0
  9 10  2  0
 10 11  1  0
 11 12  2  0
 11 13  2  0
 11 14  1  0
 14 15  1  0
 15 16  1  0
 16 17  2  0
 17 18  1  0
 18 19  2  0
 19 20  1  0
 20 21  2  0
 21 22  1  0
 22 23  2  0
 23 24  1  0
 24 25  2  0
 25 26  1  0
 26 27  2  0
 27 28  1  0
 10 29  1  0
 29 30  2  0
 30 31  1  0
 31 32  2  0
 31  2  1  0
 32  5  1  0
 32  9  1  0
 28 14  1  0
 21 16  1  0
 27 22  1  0
  1 33  1  0
  1 34  1  0
  1 35  1  0
  6 36  1  0
  7 37  1  0
  8 38  1  0
 15 39  1  0
 15 40  1  0
 17 41  1  0
 18 42  1  0
 19 43  1  0
 20 44  1  0
 23 45  1  0
 24 46  1  0
 25 47  1  0
 26 48  1  0
 28 49  1  0
 28 50  1  0
 29 51  1  0
 30 52  1  0
M  END
>  <meeko>  (2) 
{"is_sidechain": [false], "free_energy": -12.231, "intermolecular_energy": -12.487, "internal_energy": -0.67}

$$$$
ligand_38_conformer_4_docked
     RDKit          3D

 52 57  0  0  0  0  0  0  0  0999 V2000
    8.3310   44.1360   48.6510 C   0  0  0  0  0  0  0  0  0  0  0  0
    7.0610   43.9550   49.3410 N   0  0  0  0  0  0  0  0  0  0  0  0
    6.2570   42.7640   49.3220 C   0  0  0  0  0  0  0  0  0  0  0  0
    6.3410   41.8610   48.4480 O   0  0  0  0  0  0  0  0  0  0  0  0
    5.3730   42.7490   50.4840 C   0  0  0  0  0  0  0  0  0  0  0  0
    4.4040   41.8640   50.9530 C   0  0  0  0  0  0  0  0  0  0  0  0
    3.7620   42.1810   52.1700 C   0  0  0  0  0  0  0  0  0  0  0  0
    4.1010   43.3570   52.8890 C   0  0  0  0  0  0  0  0  0  0  0  0
    5.0850   44.2400   52.3800 C   0  0  0  0  0  0  0  0  0  0  0  0
    5.5150   45.4570   52.9730 C   0  0  0  0  0  0  0  0  0  0  0  0
    4.7320   46.1000   54.4230 S   0  0  0  0  0  0  0  0  0  0  0  0
    5.4120   45.5320   55.6370 O   0  0  0  0  0  0  0  0  0  0  0  0
    4.8390   47.6000   54.4540 O   0  0  0  0  0  0  0  0  0  0  0  0
    3.0490   45.6370   54.4030 N   0  0  0  0  0  0  0  0  0  0  0  0
    2.2800   46.4330   53.4370 C   0  0  0  0  0  0  0  0  0  0  0  0
    1.4800   45.4380   52.6760 C   0  0  0  0  0  0  0  0  0  0  0  0
    1.7870   45.1950   51.3250 C   0  0  0  0  0  0  0  0  0  0  0  0
    1.2340   44.1020   50.6600 C   0  0  0  0  0  0  0  0  0  0  0  0
    0.3880   43.2310   51.3410 C   0  0  0  0  0  0  0  0  0  0  0  0
    0.0740   43.4620   52.6810 C   0  0  0  0  0  0  0  0  0  0  0  0
    0.5970   44.5780   53.3700 C   0  0  0  0  0  0  0  0  0  0  0  0
    0.1510   44.8500   54.7820 C   0  0  0  0  0  0  0  0  0  0  0  0
   -1.2180   44.6380   55.0640 C   0  0  0  0  0  0  0  0  0  0  0  0
   -1.7400   44.8430   56.3390 C   0  0  0  0  0  0  0  0  0  0  0  0
   -0.9160   45.2760   57.3670 C   0  0  0  0  0  0  0  0  0  0  0  0
    0.4320   45.5240   57.1210 C   0  0  0  0  0  0  0  0  0  0  0  0
    0.9930   45.3380   55.8400 C   0  0  0  0  0  0  0  0  0  0  0  0
    2.4760   45.6870   55.7510 C   0  0  0  0  0  0  0  0  0  0  0  0
    6.5460   46.2090   52.3430 C   0  0  0  0  0  0  0  0  0  0  0  0
    7.1330   45.7770   51.1310 C   0  0  0  0  0  0  0  0  0  0  0  0
    6.6620   44.5950   50.5600 C   0  0  0  0  0  0  0  0  0  0  0  0
    5.6810   43.8780   51.1820 C   0  0  0  0  0  0  0  0  0  0  0  0
    9.1370   44.2509   49.3907 H   0  0  0  0  0  0  0  0  0  0  0  0
    8.5342   43.2577   48.0206 H   0  0  0  0  0  0  0  0  0  0  0  0
    8.2808   45.0361   48.0206 H   0  0  0  0  0  0  0  0  0  0  0  0
    4.1484   40.9511   50.3950 H   0  0  0  0  0  0  0  0  0  0  0  0
    2.9882   41.5071   52.5665 H   0  0  0  0  0  0  0  0  0  0  0  0
    3.5995   43.5828   53.8417 H   0  0  0  0  0  0  0  0  0  0  0  0
    1.6210   47.1433   53.9577 H   0  0  0  0  0  0  0  0  0  0  0  0
    2.9298   47.0317   52.7818 H   0  0  0  0  0  0  0  0  0  0  0  0
    2.4684   45.8724   50.7895 H   0  0  0  0  0  0  0  0  0  0  0  0
    1.4656   43.9279   49.5989 H   0  0  0  0  0  0  0  0  0  0  0  0
   -0.0342   42.3582   50.8214 H   0  0  0  0  0  0  0  0  0  0  0  0
   -0.5917   42.7634   53.2090 H   0  0  0  0  0  0  0  0  0  0  0  0
   -1.8868   44.3032   54.2574 H   0  0  0  0  0  0  0  0  0  0  0  0
   -2.8078   44.6611   56.5309 H   0  0  0  0  0  0  0  0  0  0  0  0
   -1.3272   45.4235   58.3765 H   0  0  0  0  0  0  0  0  0  0  0  0
    1.0736   45.8726   57.9437 H   0  0  0  0  0  0  0  0  0  0  0  0
    2.6094   46.7073   56.1399 H   0  0  0  0  0  0  0  0  0  0  0  0
    3.0055   44.9209   56.3364 H   0  0  0  0  0  0  0  0  0  0  0  0
    6.8929   47.1439   52.8075 H   0  0  0  0  0  0  0  0  0  0  0  0
    7.9370   46.3559   50.6530 H   0  0  0  0  0  0  0  0  0  0  0  0
  1  2  1  0
  2  3  1  0
  3  4  2  0
  3  5  1  0
  5  6  2  0
  6  7  1  0
  7  8  2  0
  8  9  1  0
  9 10  2  0
 10 11  1  0
 11 12  2  0
 11 13  2  0
 11 14  1  0
 14 15  1  0
 15 16  1  0
 16 17  2  0
 17 18  1  0
 18 19  2  0
 19 20  1  0
 20 21  2  0
 21 22  1  0
 22 23  2  0
 23 24  1  0
 24 25  2  0
 25 26  1  0
 26 27  2  0
 27 28  1  0
 10 29  1  0
 29 30  2  0
 30 31  1  0
 31 32  2  0
 31  2  1  0
 32  5  1  0
 32  9  1  0
 28 14  1  0
 21 16  1  0
 27 22  1  0
  1 33  1  0
  1 34  1  0
  1 35  1  0
  6 36  1  0
  7 37  1  0
  8 38  1  0
 15 39  1  0
 15 40  1  0
 17 41  1  0
 18 42  1  0
 19 43  1  0
 20 44  1  0
 23 45  1  0
 24 46  1  0
 25 47  1  0
 26 48  1  0
 28 49  1  0
 28 50  1  0
 29 51  1  0
 30 52  1  0
M  END
>  <meeko>  (3) 
{"is_sidechain": [false], "free_energy": -12.2, "intermolecular_energy": -11.791, "internal_energy": -1.332}

$$$$
ligand_38_conformer_4_docked
     RDKit          3D

 52 57  0  0  0  0  0  0  0  0999 V2000
    6.3760   42.2950   48.5040 C   0  0  0  0  0  0  0  0  0  0  0  0
    6.7940   43.1870   49.5780 N   0  0  0  0  0  0  0  0  0  0  0  0
    7.8250   44.1840   49.4880 C   0  0  0  0  0  0  0  0  0  0  0  0
    8.7370   44.1910   48.6190 O   0  0  0  0  0  0  0  0  0  0  0  0
    7.6240   45.1930   50.5230 C   0  0  0  0  0  0  0  0  0  0  0  0
    8.3060   46.3510   50.8920 C   0  0  0  0  0  0  0  0  0  0  0  0
    7.7740   47.1140   51.9560 C   0  0  0  0  0  0  0  0  0  0  0  0
    6.5820   46.7130   52.6150 C   0  0  0  0  0  0  0  0  0  0  0  0
    5.9180   45.5260   52.2200 C   0  0  0  0  0  0  0  0  0  0  0  0
    4.7330   44.9900   52.7930 C   0  0  0  0  0  0  0  0  0  0  0  0
    3.9950   45.7190   54.2260 S   0  0  0  0  0  0  0  0  0  0  0  0
    4.7110   45.2200   55.4500 O   0  0  0  0  0  0  0  0  0  0  0  0
    4.1050   47.2180   54.1670 O   0  0  0  0  0  0  0  0  0  0  0  0
    2.3120   45.2610   54.2830 N   0  0  0  0  0  0  0  0  0  0  0  0
    1.5270   45.9570   53.2560 C   0  0  0  0  0  0  0  0  0  0  0  0
    0.7120   44.8920   52.6140 C   0  0  0  0  0  0  0  0  0  0  0  0
    0.9940   44.5120   51.2900 C   0  0  0  0  0  0  0  0  0  0  0  0
    0.4270   43.3590   50.7490 C   0  0  0  0  0  0  0  0  0  0  0  0
   -0.4070   42.5640   51.5300 C   0  0  0  0  0  0  0  0  0  0  0  0
   -0.6960   42.9310   52.8450 C   0  0  0  0  0  0  0  0  0  0  0  0
   -0.1590   44.1090   53.4080 C   0  0  0  0  0  0  0  0  0  0  0  0
   -0.5790   44.5250   54.7920 C   0  0  0  0  0  0  0  0  0  0  0  0
   -1.9430   44.3460   55.1190 C   0  0  0  0  0  0  0  0  0  0  0  0
   -2.4420   44.6810   56.3760 C   0  0  0  0  0  0  0  0  0  0  0  0
   -1.5980   45.2140   57.3400 C   0  0  0  0  0  0  0  0  0  0  0  0
   -0.2550   45.4320   57.0450 C   0  0  0  0  0  0  0  0  0  0  0  0
    0.2820   45.1160   55.7800 C   0  0  0  0  0  0  0  0  0  0  0  0
    1.7640   45.4490   55.6290 C   0  0  0  0  0  0  0  0  0  0  0  0
    4.1760   43.8000   52.2470 C   0  0  0  0  0  0  0  0  0  0  0  0
    4.7890   43.1340   51.1610 C   0  0  0  0  0  0  0  0  0  0  0  0
    5.9690   43.6700   50.6460 C   0  0  0  0  0  0  0  0  0  0  0  0
    6.4850   44.8190   51.1720 C   0  0  0  0  0  0  0  0  0  0  0  0
    5.9465   41.3785   48.9348 H   0  0  0  0  0  0  0  0  0  0  0  0
    5.6197   42.7977   47.8833 H   0  0  0  0  0  0  0  0  0  0  0  0
    7.2463   42.0355   47.8833 H   0  0  0  0  0  0  0  0  0  0  0  0
    9.2256   46.6601   50.3736 H   0  0  0  0  0  0  0  0  0  0  0  0
    8.2902   48.0305   52.2778 H   0  0  0  0  0  0  0  0  0  0  0  0
    6.1739   47.3248   53.4330 H   0  0  0  0  0  0  0  0  0  0  0  0
    0.8783   46.7183   53.7139 H   0  0  0  0  0  0  0  0  0  0  0  0
    2.1654   46.4844   52.5320 H   0  0  0  0  0  0  0  0  0  0  0  0
    1.6670   45.1290   50.6765 H   0  0  0  0  0  0  0  0  0  0  0  0
    0.6383   43.0780   49.7067 H   0  0  0  0  0  0  0  0  0  0  0  0
   -0.8394   41.6441   51.1096 H   0  0  0  0  0  0  0  0  0  0  0  0
   -1.3531   42.2918   53.4530 H   0  0  0  0  0  0  0  0  0  0  0  0
   -2.6265   43.9324   54.3629 H   0  0  0  0  0  0  0  0  0  0  0  0
   -3.5063   44.5228   56.6045 H   0  0  0  0  0  0  0  0  0  0  0  0
   -1.9900   45.4642   58.3369 H   0  0  0  0  0  0  0  0  0  0  0  0
    0.4021   45.8604   57.8161 H   0  0  0  0  0  0  0  0  0  0  0  0
    1.9063   46.5029   55.9102 H   0  0  0  0  0  0  0  0  0  0  0  0
    2.3029   44.7440   56.2791 H   0  0  0  0  0  0  0  0  0  0  0  0
    3.2506   43.3903   52.6782 H   0  0  0  0  0  0  0  0  0  0  0  0
    4.3485   42.2205   50.7350 H   0  0  0  0  0  0  0  0  0  0  0  0
  1  2  1  0
  2  3  1  0
  3  4  2  0
  3  5  1  0
  5  6  2  0
  6  7  1  0
  7  8  2  0
  8  9  1  0
  9 10  2  0
 10 11  1  0
 11 12  2  0
 11 13  2  0
 11 14  1  0
 14 15  1  0
 15 16  1  0
 16 17  2  0
 17 18  1  0
 18 19  2  0
 19 20  1  0
 20 21  2  0
 21 22  1  0
 22 23  2  0
 23 24  1  0
 24 25  2  0
 25 26  1  0
 26 27  2  0
 27 28  1  0
 10 29  1  0
 29 30  2  0
 30 31  1  0
 31 32  2  0
 31  2  1  0
 32  5  1  0
 32  9  1  0
 28 14  1  0
 21 16  1  0
 27 22  1  0
  1 33  1  0
  1 34  1  0
  1 35  1  0
  6 36  1  0
  7 37  1  0
  8 38  1  0
 15 39  1  0
 15 40  1  0
 17 41  1  0
 18 42  1  0
 19 43  1  0
 20 44  1  0
 23 45  1  0
 24 46  1  0
 25 47  1  0
 26 48  1  0
 28 49  1  0
 28 50  1  0
 29 51  1  0
 30 52  1  0
M  END
>  <meeko>  (4) 
{"is_sidechain": [false], "free_energy": -12.027, "intermolecular_energy": -12.334, "internal_energy": -0.594}

$$$$
ligand_38_conformer_4_docked
     RDKit          3D

 52 57  0  0  0  0  0  0  0  0999 V2000
   -1.6180   42.8390   51.0350 C   0  0  0  0  0  0  0  0  0  0  0  0
   -1.2680   43.7410   52.1240 N   0  0  0  0  0  0  0  0  0  0  0  0
   -1.7690   43.6680   53.4690 C   0  0  0  0  0  0  0  0  0  0  0  0
   -2.8230   43.0650   53.8050 O   0  0  0  0  0  0  0  0  0  0  0  0
   -0.8530   44.3570   54.3730 C   0  0  0  0  0  0  0  0  0  0  0  0
   -0.8440   44.5950   55.7460 C   0  0  0  0  0  0  0  0  0  0  0  0
    0.2620   45.2910   56.2820 C   0  0  0  0  0  0  0  0  0  0  0  0
    1.3270   45.7210   55.4480 C   0  0  0  0  0  0  0  0  0  0  0  0
    1.2830   45.4690   54.0550 C   0  0  0  0  0  0  0  0  0  0  0  0
    2.2580   45.8530   53.0960 C   0  0  0  0  0  0  0  0  0  0  0  0
    3.6440   46.8550   53.5450 S   0  0  0  0  0  0  0  0  0  0  0  0
    3.3920   48.2670   53.0960 O   0  0  0  0  0  0  0  0  0  0  0  0
    3.8400   46.8400   55.0370 O   0  0  0  0  0  0  0  0  0  0  0  0
    5.0710   46.2200   52.7660 N   0  0  0  0  0  0  0  0  0  0  0  0
    5.3860   44.8640   53.2330 C   0  0  0  0  0  0  0  0  0  0  0  0
    5.6380   44.0820   51.9950 C   0  0  0  0  0  0  0  0  0  0  0  0
    4.7200   43.0910   51.6060 C   0  0  0  0  0  0  0  0  0  0  0  0
    4.7900   42.5220   50.3360 C   0  0  0  0  0  0  0  0  0  0  0  0
    5.7600   42.9530   49.4340 C   0  0  0  0  0  0  0  0  0  0  0  0
    6.6780   43.9350   49.8080 C   0  0  0  0  0  0  0  0  0  0  0  0
    6.6480   44.5070   51.0990 C   0  0  0  0  0  0  0  0  0  0  0  0
    7.7200   45.4860   51.4980 C   0  0  0  0  0  0  0  0  0  0  0  0
    9.0350   45.1920   51.0700 C   0  0  0  0  0  0  0  0  0  0  0  0
   10.1030   46.0340   51.3670 C   0  0  0  0  0  0  0  0  0  0  0  0
    9.8950   47.1870   52.1100 C   0  0  0  0  0  0  0  0  0  0  0  0
    8.6190   47.4950   52.5740 C   0  0  0  0  0  0  0  0  0  0  0  0
    7.5160   46.6600   52.3020 C   0  0  0  0  0  0  0  0  0  0  0  0
    6.2020   47.1400   52.9150 C   0  0  0  0  0  0  0  0  0  0  0  0
    2.0730   45.4850   51.7330 C   0  0  0  0  0  0  0  0  0  0  0  0
    0.9290   44.7660   51.3160 C   0  0  0  0  0  0  0  0  0  0  0  0
   -0.0240   44.4360   52.2800 C   0  0  0  0  0  0  0  0  0  0  0  0
    0.1730   44.7840   53.5850 C   0  0  0  0  0  0  0  0  0  0  0  0
   -1.9866   41.8892   51.4497 H   0  0  0  0  0  0  0  0  0  0  0  0
   -2.4032   43.2983   50.4165 H   0  0  0  0  0  0  0  0  0  0  0  0
   -0.7285   42.6485   50.4165 H   0  0  0  0  0  0  0  0  0  0  0  0
   -1.6684   44.2532   56.3891 H   0  0  0  0  0  0  0  0  0  0  0  0
    0.2985   45.5028   57.3608 H   0  0  0  0  0  0  0  0  0  0  0  0
    2.1871   46.2503   55.8839 H   0  0  0  0  0  0  0  0  0  0  0  0
    6.2802   44.8733   53.8736 H   0  0  0  0  0  0  0  0  0  0  0  0
    4.5724   44.4342   53.8357 H   0  0  0  0  0  0  0  0  0  0  0  0
    3.9407   42.7623   52.3093 H   0  0  0  0  0  0  0  0  0  0  0  0
    4.0801   41.7334   50.0461 H   0  0  0  0  0  0  0  0  0  0  0  0
    5.8024   42.5182   48.4245 H   0  0  0  0  0  0  0  0  0  0  0  0
    7.4374   44.2691   49.0857 H   0  0  0  0  0  0  0  0  0  0  0  0
    9.2185   44.2764   50.4886 H   0  0  0  0  0  0  0  0  0  0  0  0
   11.1138   45.7847   51.0119 H   0  0  0  0  0  0  0  0  0  0  0  0
   10.7380   47.8577   52.3325 H   0  0  0  0  0  0  0  0  0  0  0  0
    8.4681   48.4099   53.1658 H   0  0  0  0  0  0  0  0  0  0  0  0
    6.3679   47.3040   53.9900 H   0  0  0  0  0  0  0  0  0  0  0  0
    5.9261   48.0539   52.3684 H   0  0  0  0  0  0  0  0  0  0  0  0
    2.8345   45.7653   50.9903 H   0  0  0  0  0  0  0  0  0  0  0  0
    0.7946   44.4757   50.2635 H   0  0  0  0  0  0  0  0  0  0  0  0
  1  2  1  0
  2  3  1  0
  3  4  2  0
  3  5  1  0
  5  6  2  0
  6  7  1  0
  7  8  2  0
  8  9  1  0
  9 10  2  0
 10 11  1  0
 11 12  2  0
 11 13  2  0
 11 14  1  0
 14 15  1  0
 15 16  1  0
 16 17  2  0
 17 18  1  0
 18 19  2  0
 19 20  1  0
 20 21  2  0
 21 22  1  0
 22 23  2  0
 23 24  1  0
 24 25  2  0
 25 26  1  0
 26 27  2  0
 27 28  1  0
 10 29  1  0
 29 30  2  0
 30 31  1  0
 31 32  2  0
 31  2  1  0
 32  5  1  0
 32  9  1  0
 28 14  1  0
 21 16  1  0
 27 22  1  0
  1 33  1  0
  1 34  1  0
  1 35  1  0
  6 36  1  0
  7 37  1  0
  8 38  1  0
 15 39  1  0
 15 40  1  0
 17 41  1  0
 18 42  1  0
 19 43  1  0
 20 44  1  0
 23 45  1  0
 24 46  1  0
 25 47  1  0
 26 48  1  0
 28 49  1  0
 28 50  1  0
 29 51  1  0
 30 52  1  0
M  END
>  <meeko>  (5) 
{"is_sidechain": [false], "free_energy": -11.569, "intermolecular_energy": -11.927, "internal_energy": -0.491}

$$$$
