ligand_38_conformer_5_docked
     RDKit          3D

 52 57  0  0  0  0  0  0  0  0999 V2000
   -2.0490   44.2520   56.2630 C   0  0  0  0  0  0  0  0  0  0  0  0
   -1.0610   44.0470   55.2110 N   0  0  0  0  0  0  0  0  0  0  0  0
   -1.3520   43.7860   53.8280 C   0  0  0  0  0  0  0  0  0  0  0  0
   -2.4520   43.3480   53.4010 O   0  0  0  0  0  0  0  0  0  0  0  0
   -0.1990   44.1500   53.0090 C   0  0  0  0  0  0  0  0  0  0  0  0
    0.0650   44.1160   51.6410 C   0  0  0  0  0  0  0  0  0  0  0  0
    1.3170   44.6040   51.2020 C   0  0  0  0  0  0  0  0  0  0  0  0
    2.2610   45.1220   52.1270 C   0  0  0  0  0  0  0  0  0  0  0  0
    1.9560   45.1520   53.5090 C   0  0  0  0  0  0  0  0  0  0  0  0
    2.7860   45.6580   54.5430 C   0  0  0  0  0  0  0  0  0  0  0  0
    4.3990   46.2950   54.1990 S   0  0  0  0  0  0  0  0  0  0  0  0
    5.3910   45.7460   55.1860 O   0  0  0  0  0  0  0  0  0  0  0  0
    4.3600   47.7920   54.3340 O   0  0  0  0  0  0  0  0  0  0  0  0
    4.8780   45.8520   52.5760 N   0  0  0  0  0  0  0  0  0  0  0  0
    5.5540   44.5360   52.5990 C   0  0  0  0  0  0  0  0  0  0  0  0
    6.1920   44.1910   51.2710 C   0  0  0  0  0  0  0  0  0  0  0  0
    5.6160   43.2120   50.4450 C   0  0  0  0  0  0  0  0  0  0  0  0
    6.2280   42.8540   49.2420 C   0  0  0  0  0  0  0  0  0  0  0  0
    7.4160   43.4720   48.8500 C   0  0  0  0  0  0  0  0  0  0  0  0
    7.9930   44.4580   49.6530 C   0  0  0  0  0  0  0  0  0  0  0  0
    7.3860   44.8330   50.8650 C   0  0  0  0  0  0  0  0  0  0  0  0
    7.9660   45.9300   51.6850 C   0  0  0  0  0  0  0  0  0  0  0  0
    9.3470   45.9670   51.9410 C   0  0  0  0  0  0  0  0  0  0  0  0
    9.8890   46.9650   52.7530 C   0  0  0  0  0  0  0  0  0  0  0  0
    9.0610   47.9350   53.3180 C   0  0  0  0  0  0  0  0  0  0  0  0
    7.6870   47.9170   53.0690 C   0  0  0  0  0  0  0  0  0  0  0  0
    7.1280   46.9230   52.2490 C   0  0  0  0  0  0  0  0  0  0  0  0
    5.6440   46.9470   51.9370 C   0  0  0  0  0  0  0  0  0  0  0  0
    2.3120   45.6360   55.8860 C   0  0  0  0  0  0  0  0  0  0  0  0
    1.0350   45.1190   56.2050 C   0  0  0  0  0  0  0  0  0  0  0  0
    0.2540   44.6170   55.1650 C   0  0  0  0  0  0  0  0  0  0  0  0
    0.7200   44.6450   53.8830 C   0  0  0  0  0  0  0  0  0  0  0  0
   -1.5647   44.1515   57.2455 H   0  0  0  0  0  0  0  0  0  0  0  0
   -2.4815   45.2590   56.1687 H   0  0  0  0  0  0  0  0  0  0  0  0
   -2.8464   43.5002   56.1687 H   0  0  0  0  0  0  0  0  0  0  0  0
   -0.6748   43.7233   50.9280 H   0  0  0  0  0  0  0  0  0  0  0  0
    1.5628   44.5821   50.1300 H   0  0  0  0  0  0  0  0  0  0  0  0
    3.2301   45.5003   51.7697 H   0  0  0  0  0  0  0  0  0  0  0  0
    6.3361   44.5542   53.3723 H   0  0  0  0  0  0  0  0  0  0  0  0
    4.7924   43.7718   52.8133 H   0  0  0  0  0  0  0  0  0  0  0  0
    4.6775   42.7245   50.7474 H   0  0  0  0  0  0  0  0  0  0  0  0
    5.7728   42.0835   48.6023 H   0  0  0  0  0  0  0  0  0  0  0  0
    7.8995   43.1816   47.9056 H   0  0  0  0  0  0  0  0  0  0  0  0
    8.9274   44.9441   49.3359 H   0  0  0  0  0  0  0  0  0  0  0  0
   10.0054   45.2048   51.4988 H   0  0  0  0  0  0  0  0  0  0  0  0
   10.9714   46.9864   52.9477 H   0  0  0  0  0  0  0  0  0  0  0  0
    9.4916   48.7163   53.9615 H   0  0  0  0  0  0  0  0  0  0  0  0
    7.0394   48.6849   53.5172 H   0  0  0  0  0  0  0  0  0  0  0  0
    5.2326   47.9061   52.2847 H   0  0  0  0  0  0  0  0  0  0  0  0
    5.5444   46.8137   50.8497 H   0  0  0  0  0  0  0  0  0  0  0  0
    2.9514   46.0286   56.6903 H   0  0  0  0  0  0  0  0  0  0  0  0
    0.6690   45.1131   57.2423 H   0  0  0  0  0  0  0  0  0  0  0  0
  1  2  1  0
  2  3  1  0
  3  4  2  0
  3  5  1  0
  5  6  2  0
  6  7  1  0
  7  8  2  0
  8  9  1  0
  9 10  2  0
 10 11  1  0
 11 12  2  0
 11 13  2  0
 11 14  1  0
 14 15  1  0
 15 16  1  0
 16 17  2  0
 17 18  1  0
 18 19  2  0
 19 20  1  0
 20 21  2  0
 21 22  1  0
 22 23  2  0
 23 24  1  0
 24 25  2  0
 25 26  1  0
 26 27  2  0
 27 28  1  0
 10 29  1  0
 29 30  2  0
 30 31  1  0
 31 32  2  0
 31  2  1  0
 32  5  1  0
 32  9  1  0
 28 14  1  0
 21 16  1  0
 27 22  1  0
  1 33  1  0
  1 34  1  0
  1 35  1  0
  6 36  1  0
  7 37  1  0
  8 38  1  0
 15 39  1  0
 15 40  1  0
 17 41  1  0
 18 42  1  0
 19 43  1  0
 20 44  1  0
 23 45  1  0
 24 46  1  0
 25 47  1  0
 26 48  1  0
 28 49  1  0
 28 50  1  0
 29 51  1  0
 30 52  1  0
M  END
>  <meeko>  (1) 
{"is_sidechain": [false], "free_energy": -11.848, "intermolecular_energy": -13.233, "internal_energy": -0.144}

$$$$
ligand_38_conformer_5_docked
     RDKit          3D

 52 57  0  0  0  0  0  0  0  0999 V2000
   -2.8810   43.4340   52.6660 C   0  0  0  0  0  0  0  0  0  0  0  0
   -2.0400   44.2190   53.5620 N   0  0  0  0  0  0  0  0  0  0  0  0
   -2.1790   44.2910   54.9910 C   0  0  0  0  0  0  0  0  0  0  0  0
   -3.2260   43.9940   55.6230 O   0  0  0  0  0  0  0  0  0  0  0  0
   -0.9130   44.7130   55.5840 C   0  0  0  0  0  0  0  0  0  0  0  0
   -0.4830   44.9350   56.8910 C   0  0  0  0  0  0  0  0  0  0  0  0
    0.8670   45.3070   57.0840 C   0  0  0  0  0  0  0  0  0  0  0  0
    1.7520   45.4330   55.9800 C   0  0  0  0  0  0  0  0  0  0  0  0
    1.2860   45.1890   54.6660 C   0  0  0  0  0  0  0  0  0  0  0  0
    2.0530   45.2530   53.4750 C   0  0  0  0  0  0  0  0  0  0  0  0
    3.7590   45.7190   53.5040 S   0  0  0  0  0  0  0  0  0  0  0  0
    4.4810   44.9630   54.5860 O   0  0  0  0  0  0  0  0  0  0  0  0
    3.8480   47.1890   53.8010 O   0  0  0  0  0  0  0  0  0  0  0  0
    4.4950   45.3730   51.9560 N   0  0  0  0  0  0  0  0  0  0  0  0
    5.3060   44.1390   52.0540 C   0  0  0  0  0  0  0  0  0  0  0  0
    6.1480   43.9020   50.8190 C   0  0  0  0  0  0  0  0  0  0  0  0
    5.7990   42.8870   49.9130 C   0  0  0  0  0  0  0  0  0  0  0  0
    6.6010   42.6310   48.7990 C   0  0  0  0  0  0  0  0  0  0  0  0
    7.7530   43.3860   48.5760 C   0  0  0  0  0  0  0  0  0  0  0  0
    8.1050   44.4070   49.4610 C   0  0  0  0  0  0  0  0  0  0  0  0
    7.3050   44.6820   50.5840 C   0  0  0  0  0  0  0  0  0  0  0  0
    7.6440   45.8130   51.4860 C   0  0  0  0  0  0  0  0  0  0  0  0
    8.9670   45.9950   51.9260 C   0  0  0  0  0  0  0  0  0  0  0  0
    9.2820   47.0250   52.8150 C   0  0  0  0  0  0  0  0  0  0  0  0
    8.2830   47.8830   53.2750 C   0  0  0  0  0  0  0  0  0  0  0  0
    6.9650   47.7210   52.8430 C   0  0  0  0  0  0  0  0  0  0  0  0
    6.6330   46.6930   51.9450 C   0  0  0  0  0  0  0  0  0  0  0  0
    5.2100   46.5620   51.4370 C   0  0  0  0  0  0  0  0  0  0  0  0
    1.4310   44.9500   52.2310 C   0  0  0  0  0  0  0  0  0  0  0  0
    0.0650   44.5900   52.1620 C   0  0  0  0  0  0  0  0  0  0  0  0
   -0.6630   44.5520   53.3520 C   0  0  0  0  0  0  0  0  0  0  0  0
   -0.0520   44.8440   54.5370 C   0  0  0  0  0  0  0  0  0  0  0  0
   -3.5583   42.8018   53.2589 H   0  0  0  0  0  0  0  0  0  0  0  0
   -3.4724   44.1106   52.0316 H   0  0  0  0  0  0  0  0  0  0  0  0
   -2.2467   42.7975   52.0316 H   0  0  0  0  0  0  0  0  0  0  0  0
   -1.1703   44.8246   57.7427 H   0  0  0  0  0  0  0  0  0  0  0  0
    1.2368   45.5013   58.1016 H   0  0  0  0  0  0  0  0  0  0  0  0
    2.8006   45.7205   56.1465 H   0  0  0  0  0  0  0  0  0  0  0  0
    5.9724   44.2226   52.9251 H   0  0  0  0  0  0  0  0  0  0  0  0
    4.6138   43.2901   52.1558 H   0  0  0  0  0  0  0  0  0  0  0  0
    4.8899   42.2912   50.0818 H   0  0  0  0  0  0  0  0  0  0  0  0
    6.3239   41.8321   48.0954 H   0  0  0  0  0  0  0  0  0  0  0  0
    8.3855   43.1763   47.7008 H   0  0  0  0  0  0  0  0  0  0  0  0
    9.0135   44.9997   49.2785 H   0  0  0  0  0  0  0  0  0  0  0  0
    9.7594   45.3215   51.5675 H   0  0  0  0  0  0  0  0  0  0  0  0
   10.3200   47.1599   53.1531 H   0  0  0  0  0  0  0  0  0  0  0  0
    8.5341   48.6893   53.9799 H   0  0  0  0  0  0  0  0  0  0  0  0
    6.1823   48.4023   53.2080 H   0  0  0  0  0  0  0  0  0  0  0  0
    4.6510   47.4607   51.7369 H   0  0  0  0  0  0  0  0  0  0  0  0
    5.2700   46.4472   50.3447 H   0  0  0  0  0  0  0  0  0  0  0  0
    2.0240   44.9967   51.3057 H   0  0  0  0  0  0  0  0  0  0  0  0
   -0.4092   44.3473   51.1996 H   0  0  0  0  0  0  0  0  0  0  0  0
  1  2  1  0
  2  3  1  0
  3  4  2  0
  3  5  1  0
  5  6  2  0
  6  7  1  0
  7  8  2  0
  8  9  1  0
  9 10  2  0
 10 11  1  0
 11 12  2  0
 11 13  2  0
 11 14  1  0
 14 15  1  0
 15 16  1  0
 16 17  2  0
 17 18  1  0
 18 19  2  0
 19 20  1  0
 20 21  2  0
 21 22  1  0
 22 23  2  0
 23 24  1  0
 24 25  2  0
 25 26  1  0
 26 27  2  0
 27 28  1  0
 10 29  1  0
 29 30  2  0
 30 31  1  0
 31 32  2  0
 31  2  1  0
 32  5  1  0
 32  9  1  0
 28 14  1  0
 21 16  1  0
 27 22  1  0
  1 33  1  0
  1 34  1  0
  1 35  1  0
  6 36  1  0
  7 37  1  0
  8 38  1  0
 15 39  1  0
 15 40  1  0
 17 41  1  0
 18 42  1  0
 19 43  1  0
 20 44  1  0
 23 45  1  0
 24 46  1  0
 25 47  1  0
 26 48  1  0
 28 49  1  0
 28 50  1  0
 29 51  1  0
 30 52  1  0
M  END
>  <meeko>  (2) 
{"is_sidechain": [false], "free_energy": -11.436, "intermolecular_energy": -12.539, "internal_energy": -0.379}

$$$$
ligand_38_conformer_5_docked
     RDKit          3D

 52 57  0  0  0  0  0  0  0  0999 V2000
    9.8960   47.3910   54.3100 C   0  0  0  0  0  0  0  0  0  0  0  0
    9.1550   46.9910   53.1190 N   0  0  0  0  0  0  0  0  0  0  0  0
    9.7180   46.3680   51.9530 C   0  0  0  0  0  0  0  0  0  0  0  0
   10.9380   46.4060   51.6410 O   0  0  0  0  0  0  0  0  0  0  0  0
    8.6710   45.6580   51.2250 C   0  0  0  0  0  0  0  0  0  0  0  0
    8.6510   44.8920   50.0610 C   0  0  0  0  0  0  0  0  0  0  0  0
    7.4200   44.3120   49.6770 C   0  0  0  0  0  0  0  0  0  0  0  0
    6.2530   44.4950   50.4650 C   0  0  0  0  0  0  0  0  0  0  0  0
    6.3110   45.2690   51.6490 C   0  0  0  0  0  0  0  0  0  0  0  0
    5.2390   45.5200   52.5440 C   0  0  0  0  0  0  0  0  0  0  0  0
    3.6140   44.8960   52.2310 S   0  0  0  0  0  0  0  0  0  0  0  0
    3.6030   43.3980   52.3680 O   0  0  0  0  0  0  0  0  0  0  0  0
    3.2270   45.2550   50.8240 O   0  0  0  0  0  0  0  0  0  0  0  0
    2.4810   45.5980   53.3630 N   0  0  0  0  0  0  0  0  0  0  0  0
    2.3170   44.6970   54.5260 C   0  0  0  0  0  0  0  0  0  0  0  0
    1.1880   45.1300   55.4360 C   0  0  0  0  0  0  0  0  0  0  0  0
    1.4720   45.7120   56.6830 C   0  0  0  0  0  0  0  0  0  0  0  0
    0.4350   46.0660   57.5480 C   0  0  0  0  0  0  0  0  0  0  0  0
   -0.8920   45.8500   57.1770 C   0  0  0  0  0  0  0  0  0  0  0  0
   -1.1910   45.2860   55.9350 C   0  0  0  0  0  0  0  0  0  0  0  0
   -0.1580   44.9280   55.0500 C   0  0  0  0  0  0  0  0  0  0  0  0
   -0.4800   44.3920   53.7010 C   0  0  0  0  0  0  0  0  0  0  0  0
   -1.4520   43.3880   53.5530 C   0  0  0  0  0  0  0  0  0  0  0  0
   -1.7210   42.8440   52.2950 C   0  0  0  0  0  0  0  0  0  0  0  0
   -1.0250   43.2940   51.1740 C   0  0  0  0  0  0  0  0  0  0  0  0
   -0.0600   44.2950   51.3020 C   0  0  0  0  0  0  0  0  0  0  0  0
    0.2180   44.8560   52.5590 C   0  0  0  0  0  0  0  0  0  0  0  0
    1.2250   45.9840   52.6780 C   0  0  0  0  0  0  0  0  0  0  0  0
    5.4770   46.3030   53.7090 C   0  0  0  0  0  0  0  0  0  0  0  0
    6.7570   46.8350   53.9870 C   0  0  0  0  0  0  0  0  0  0  0  0
    7.7830   46.5810   53.0770 C   0  0  0  0  0  0  0  0  0  0  0  0
    7.5410   45.8270   51.9660 C   0  0  0  0  0  0  0  0  0  0  0  0
    9.3371   47.0893   55.2081 H   0  0  0  0  0  0  0  0  0  0  0  0
   10.8815   46.9023   54.3100 H   0  0  0  0  0  0  0  0  0  0  0  0
   10.0282   48.4830   54.3100 H   0  0  0  0  0  0  0  0  0  0  0  0
    9.5614   44.7437   49.4617 H   0  0  0  0  0  0  0  0  0  0  0  0
    7.3657   43.7118   48.7568 H   0  0  0  0  0  0  0  0  0  0  0  0
    5.3031   44.0350   50.1552 H   0  0  0  0  0  0  0  0  0  0  0  0
    2.1057   43.6817   54.1593 H   0  0  0  0  0  0  0  0  0  0  0  0
    3.2491   44.7288   55.1092 H   0  0  0  0  0  0  0  0  0  0  0  0
    2.5164   45.8895   56.9791 H   0  0  0  0  0  0  0  0  0  0  0  0
    0.6651   46.5165   58.5248 H   0  0  0  0  0  0  0  0  0  0  0  0
   -1.7054   46.1247   57.8647 H   0  0  0  0  0  0  0  0  0  0  0  0
   -2.2398   45.1208   55.6473 H   0  0  0  0  0  0  0  0  0  0  0  0
   -2.0045   43.0282   54.4335 H   0  0  0  0  0  0  0  0  0  0  0  0
   -2.4838   42.0587   52.1885 H   0  0  0  0  0  0  0  0  0  0  0  0
   -1.2366   42.8593   50.1860 H   0  0  0  0  0  0  0  0  0  0  0  0
    0.4854   44.6460   50.4135 H   0  0  0  0  0  0  0  0  0  0  0  0
    1.4759   46.3326   51.6653 H   0  0  0  0  0  0  0  0  0  0  0  0
    0.7554   46.7679   53.2903 H   0  0  0  0  0  0  0  0  0  0  0  0
    4.6489   46.4978   54.4063 H   0  0  0  0  0  0  0  0  0  0  0  0
    6.9382   47.4312   54.8935 H   0  0  0  0  0  0  0  0  0  0  0  0
  1  2  1  0
  2  3  1  0
  3  4  2  0
  3  5  1  0
  5  6  2  0
  6  7  1  0
  7  8  2  0
  8  9  1  0
  9 10  2  0
 10 11  1  0
 11 12  2  0
 11 13  2  0
 11 14  1  0
 14 15  1  0
 15 16  1  0
 16 17  2  0
 17 18  1  0
 18 19  2  0
 19 20  1  0
 20 21  2  0
 21 22  1  0
 22 23  2  0
 23 24  1  0
 24 25  2  0
 25 26  1  0
 26 27  2  0
 27 28  1  0
 10 29  1  0
 29 30  2  0
 30 31  1  0
 31 32  2  0
 31  2  1  0
 32  5  1  0
 32  9  1  0
 28 14  1  0
 21 16  1  0
 27 22  1  0
  1 33  1  0
  1 34  1  0
  1 35  1  0
  6 36  1  0
  7 37  1  0
  8 38  1  0
 15 39  1  0
 15 40  1  0
 17 41  1  0
 18 42  1  0
 19 43  1  0
 20 44  1  0
 23 45  1  0
 24 46  1  0
 25 47  1  0
 26 48  1  0
 28 49  1  0
 28 50  1  0
 29 51  1  0
 30 52  1  0
M  END
>  <meeko>  (3) 
{"is_sidechain": [false], "free_energy": -10.975, "intermolecular_energy": -11.903, "internal_energy": -0.499}

$$$$
ligand_38_conformer_5_docked
     RDKit          3D

 52 57  0  0  0  0  0  0  0  0999 V2000
   10.5660   46.1860   51.8700 C   0  0  0  0  0  0  0  0  0  0  0  0
    9.2430   45.9730   51.2960 N   0  0  0  0  0  0  0  0  0  0  0  0
    8.8810   44.9080   50.4010 C   0  0  0  0  0  0  0  0  0  0  0  0
    9.7010   44.2430   49.7140 O   0  0  0  0  0  0  0  0  0  0  0  0
    7.4370   44.6970   50.4510 C   0  0  0  0  0  0  0  0  0  0  0  0
    6.5660   43.8150   49.8150 C   0  0  0  0  0  0  0  0  0  0  0  0
    5.1970   43.8830   50.1600 C   0  0  0  0  0  0  0  0  0  0  0  0
    4.7360   44.8100   51.1320 C   0  0  0  0  0  0  0  0  0  0  0  0
    5.6490   45.6830   51.7680 C   0  0  0  0  0  0  0  0  0  0  0  0
    5.3420   46.6400   52.7690 C   0  0  0  0  0  0  0  0  0  0  0  0
    3.6810   46.8900   53.3230 S   0  0  0  0  0  0  0  0  0  0  0  0
    3.0750   48.0720   52.6190 O   0  0  0  0  0  0  0  0  0  0  0  0
    3.7070   47.1680   54.8000 O   0  0  0  0  0  0  0  0  0  0  0  0
    2.7270   45.4600   52.9980 N   0  0  0  0  0  0  0  0  0  0  0  0
    1.4350   45.8510   52.3920 C   0  0  0  0  0  0  0  0  0  0  0  0
    0.4700   44.6900   52.2900 C   0  0  0  0  0  0  0  0  0  0  0  0
    0.2000   44.1070   51.0410 C   0  0  0  0  0  0  0  0  0  0  0  0
   -0.7290   43.0690   50.9340 C   0  0  0  0  0  0  0  0  0  0  0  0
   -1.3890   42.6000   52.0700 C   0  0  0  0  0  0  0  0  0  0  0  0
   -1.1200   43.1600   53.3210 C   0  0  0  0  0  0  0  0  0  0  0  0
   -0.1840   44.2030   53.4460 C   0  0  0  0  0  0  0  0  0  0  0  0
    0.1510   44.7510   54.7860 C   0  0  0  0  0  0  0  0  0  0  0  0
   -0.8720   45.0660   55.6970 C   0  0  0  0  0  0  0  0  0  0  0  0
   -0.5650   45.6300   56.9380 C   0  0  0  0  0  0  0  0  0  0  0  0
    0.7620   45.8850   57.2820 C   0  0  0  0  0  0  0  0  0  0  0  0
    1.7910   45.5720   56.3910 C   0  0  0  0  0  0  0  0  0  0  0  0
    1.4990   45.0000   55.1420 C   0  0  0  0  0  0  0  0  0  0  0  0
    2.6280   44.6090   54.2070 C   0  0  0  0  0  0  0  0  0  0  0  0
    6.3920   47.4250   53.3250 C   0  0  0  0  0  0  0  0  0  0  0  0
    7.7310   47.2690   52.8970 C   0  0  0  0  0  0  0  0  0  0  0  0
    7.9940   46.3290   51.9000 C   0  0  0  0  0  0  0  0  0  0  0  0
    6.9770   45.5830   51.3780 C   0  0  0  0  0  0  0  0  0  0  0  0
   10.4956   46.1747   52.9677 H   0  0  0  0  0  0  0  0  0  0  0  0
   11.2431   45.3853   51.5377 H   0  0  0  0  0  0  0  0  0  0  0  0
   10.9576   47.1588   51.5377 H   0  0  0  0  0  0  0  0  0  0  0  0
    6.9307   43.0916   49.0709 H   0  0  0  0  0  0  0  0  0  0  0  0
    4.4794   43.2091   49.6692 H   0  0  0  0  0  0  0  0  0  0  0  0
    3.6675   44.8491   51.3905 H   0  0  0  0  0  0  0  0  0  0  0  0
    0.9779   46.6367   53.0114 H   0  0  0  0  0  0  0  0  0  0  0  0
    1.6380   46.2085   51.3717 H   0  0  0  0  0  0  0  0  0  0  0  0
    0.7222   44.4692   50.1432 H   0  0  0  0  0  0  0  0  0  0  0  0
   -0.9404   42.6207   49.9520 H   0  0  0  0  0  0  0  0  0  0  0  0
   -2.1238   41.7864   51.9803 H   0  0  0  0  0  0  0  0  0  0  0  0
   -1.6425   42.7837   54.2129 H   0  0  0  0  0  0  0  0  0  0  0  0
   -1.9208   44.8673   55.4313 H   0  0  0  0  0  0  0  0  0  0  0  0
   -1.3718   45.8733   57.6450 H   0  0  0  0  0  0  0  0  0  0  0  0
    0.9991   46.3339   58.2578 H   0  0  0  0  0  0  0  0  0  0  0  0
    2.8358   45.7746   56.6690 H   0  0  0  0  0  0  0  0  0  0  0  0
    3.5763   44.6807   54.7598 H   0  0  0  0  0  0  0  0  0  0  0  0
    2.4174   43.5861   53.8616 H   0  0  0  0  0  0  0  0  0  0  0  0
    6.1572   48.1670   54.1023 H   0  0  0  0  0  0  0  0  0  0  0  0
    8.5403   47.8704   53.3367 H   0  0  0  0  0  0  0  0  0  0  0  0
  1  2  1  0
  2  3  1  0
  3  4  2  0
  3  5  1  0
  5  6  2  0
  6  7  1  0
  7  8  2  0
  8  9  1  0
  9 10  2  0
 10 11  1  0
 11 12  2  0
 11 13  2  0
 11 14  1  0
 14 15  1  0
 15 16  1  0
 16 17  2  0
 17 18  1  0
 18 19  2  0
 19 20  1  0
 20 21  2  0
 21 22  1  0
 22 23  2  0
 23 24  1  0
 24 25  2  0
 25 26  1  0
 26 27  2  0
 27 28  1  0
 10 29  1  0
 29 30  2  0
 30 31  1  0
 31 32  2  0
 31  2  1  0
 32  5  1  0
 32  9  1  0
 28 14  1  0
 21 16  1  0
 27 22  1  0
  1 33  1  0
  1 34  1  0
  1 35  1  0
  6 36  1  0
  7 37  1  0
  8 38  1  0
 15 39  1  0
 15 40  1  0
 17 41  1  0
 18 42  1  0
 19 43  1  0
 20 44  1  0
 23 45  1  0
 24 46  1  0
 25 47  1  0
 26 48  1  0
 28 49  1  0
 28 50  1  0
 29 51  1  0
 30 52  1  0
M  END
>  <meeko>  (4) 
{"is_sidechain": [false], "free_energy": -10.647, "intermolecular_energy": -12.378, "internal_energy": 0.343}

$$$$
ligand_38_conformer_5_docked
     RDKit          3D

 52 57  0  0  0  0  0  0  0  0999 V2000
    6.2330   41.7790   48.5180 C   0  0  0  0  0  0  0  0  0  0  0  0
    6.4290   42.7270   49.6080 N   0  0  0  0  0  0  0  0  0  0  0  0
    7.4070   43.7810   49.6350 C   0  0  0  0  0  0  0  0  0  0  0  0
    8.4400   43.8150   48.9170 O   0  0  0  0  0  0  0  0  0  0  0  0
    6.9880   44.8110   50.5810 C   0  0  0  0  0  0  0  0  0  0  0  0
    7.5330   46.0260   50.9920 C   0  0  0  0  0  0  0  0  0  0  0  0
    6.7980   46.7930   51.9240 C   0  0  0  0  0  0  0  0  0  0  0  0
    5.5420   46.3410   52.4100 C   0  0  0  0  0  0  0  0  0  0  0  0
    5.0120   45.1080   51.9630 C   0  0  0  0  0  0  0  0  0  0  0  0
    3.7680   44.5400   52.3400 C   0  0  0  0  0  0  0  0  0  0  0  0
    2.7100   45.3390   53.5110 S   0  0  0  0  0  0  0  0  0  0  0  0
    2.4570   46.7600   53.0910 O   0  0  0  0  0  0  0  0  0  0  0  0
    3.3960   45.3450   54.8480 O   0  0  0  0  0  0  0  0  0  0  0  0
    1.1910   44.4790   53.6190 N   0  0  0  0  0  0  0  0  0  0  0  0
    0.1110   45.3000   53.0280 C   0  0  0  0  0  0  0  0  0  0  0  0
   -1.2630   44.7200   53.2860 C   0  0  0  0  0  0  0  0  0  0  0  0
   -1.9750   44.1040   52.2440 C   0  0  0  0  0  0  0  0  0  0  0  0
   -3.2640   43.6130   52.4640 C   0  0  0  0  0  0  0  0  0  0  0  0
   -3.8500   43.7260   53.7250 C   0  0  0  0  0  0  0  0  0  0  0  0
   -3.1490   44.3230   54.7750 C   0  0  0  0  0  0  0  0  0  0  0  0
   -1.8490   44.8180   54.5710 C   0  0  0  0  0  0  0  0  0  0  0  0
   -1.0790   45.3910   55.7060 C   0  0  0  0  0  0  0  0  0  0  0  0
   -1.6860   46.3080   56.5810 C   0  0  0  0  0  0  0  0  0  0  0  0
   -0.9520   46.8890   57.6180 C   0  0  0  0  0  0  0  0  0  0  0  0
    0.3930   46.5620   57.7930 C   0  0  0  0  0  0  0  0  0  0  0  0
    1.0100   45.6480   56.9360 C   0  0  0  0  0  0  0  0  0  0  0  0
    0.2840   45.0510   55.8920 C   0  0  0  0  0  0  0  0  0  0  0  0
    0.9470   44.0150   55.0050 C   0  0  0  0  0  0  0  0  0  0  0  0
    3.3720   43.2950   51.7730 C   0  0  0  0  0  0  0  0  0  0  0  0
    4.1970   42.6160   50.8460 C   0  0  0  0  0  0  0  0  0  0  0  0
    5.4200   43.1960   50.5110 C   0  0  0  0  0  0  0  0  0  0  0  0
    5.7850   44.3900   51.0610 C   0  0  0  0  0  0  0  0  0  0  0  0
    6.0267   40.7812   48.9325 H   0  0  0  0  0  0  0  0  0  0  0  0
    5.3827   42.1021   47.8995 H   0  0  0  0  0  0  0  0  0  0  0  0
    7.1417   41.7384   47.8995 H   0  0  0  0  0  0  0  0  0  0  0  0
    8.5013   46.3757   50.6046 H   0  0  0  0  0  0  0  0  0  0  0  0
    7.2037   47.7523   52.2777 H   0  0  0  0  0  0  0  0  0  0  0  0
    4.9813   46.9501   53.1343 H   0  0  0  0  0  0  0  0  0  0  0  0
    0.1558   46.3090   53.4638 H   0  0  0  0  0  0  0  0  0  0  0  0
    0.2657   45.3234   51.9392 H   0  0  0  0  0  0  0  0  0  0  0  0
   -1.5152   44.0077   51.2494 H   0  0  0  0  0  0  0  0  0  0  0  0
   -3.8179   43.1365   51.6417 H   0  0  0  0  0  0  0  0  0  0  0  0
   -4.8676   43.3436   53.8928 H   0  0  0  0  0  0  0  0  0  0  0  0
   -3.6166   44.4064   55.7672 H   0  0  0  0  0  0  0  0  0  0  0  0
   -2.7461   46.5700   56.4485 H   0  0  0  0  0  0  0  0  0  0  0  0
   -1.4355   47.6058   58.2980 H   0  0  0  0  0  0  0  0  0  0  0  0
    0.9688   47.0251   58.6078 H   0  0  0  0  0  0  0  0  0  0  0  0
    2.0707   45.3941   57.0793 H   0  0  0  0  0  0  0  0  0  0  0  0
    1.9134   43.7420   55.4540 H   0  0  0  0  0  0  0  0  0  0  0  0
    0.2559   43.1618   54.9391 H   0  0  0  0  0  0  0  0  0  0  0  0
    2.4067   42.8532   52.0613 H   0  0  0  0  0  0  0  0  0  0  0  0
    3.8832   41.6594   50.4028 H   0  0  0  0  0  0  0  0  0  0  0  0
  1  2  1  0
  2  3  1  0
  3  4  2  0
  3  5  1  0
  5  6  2  0
  6  7  1  0
  7  8  2  0
  8  9  1  0
  9 10  2  0
 10 11  1  0
 11 12  2  0
 11 13  2  0
 11 14  1  0
 14 15  1  0
 15 16  1  0
 16 17  2  0
 17 18  1  0
 18 19  2  0
 19 20  1  0
 20 21  2  0
 21 22  1  0
 22 23  2  0
 23 24  1  0
 24 25  2  0
 25 26  1  0
 26 27  2  0
 27 28  1  0
 10 29  1  0
 29 30  2  0
 30 31  1  0
 31 32  2  0
 31  2  1  0
 32  5  1  0
 32  9  1  0
 28 14  1  0
 21 16  1  0
 27 22  1  0
  1 33  1  0
  1 34  1  0
  1 35  1  0
  6 36  1  0
  7 37  1  0
  8 38  1  0
 15 39  1  0
 15 40  1  0
 17 41  1  0
 18 42  1  0
 19 43  1  0
 20 44  1  0
 23 45  1  0
 24 46  1  0
 25 47  1  0
 26 48  1  0
 28 49  1  0
 28 50  1  0
 29 51  1  0
 30 52  1  0
M  END
>  <meeko>  (5) 
{"is_sidechain": [false], "free_energy": -10.438, "intermolecular_energy": -11.511, "internal_energy": -0.291}

$$$$
