ligand_80_conformer_2_docked
     RDKit          3D

 43 45  0  0  0  0  0  0  0  0999 V2000
    9.5350   48.0980   55.3210 C   0  0  0  0  0  0  0  0  0  0  0  0
    9.0750   47.2620   54.2100 N   0  0  0  0  0  0  0  0  0  0  0  0
   10.0310   46.5190   53.3790 C   0  0  0  0  0  0  0  0  0  0  0  0
    9.6310   46.5930   51.9000 C   0  0  0  0  0  0  0  0  0  0  0  0
    8.1900   46.1840   51.7030 C   0  0  0  0  0  0  0  0  0  0  0  0
    7.7840   45.6080   50.4920 C   0  0  0  0  0  0  0  0  0  0  0  0
    6.4430   45.2890   50.2760 C   0  0  0  0  0  0  0  0  0  0  0  0
    5.4830   45.5390   51.2660 C   0  0  0  0  0  0  0  0  0  0  0  0
    4.1060   45.2190   51.0070 N   0  0  0  0  0  0  0  0  0  0  0  0
    3.4690   44.0010   51.4250 C   0  0  0  0  0  0  0  0  0  0  0  0
    4.1510   43.0450   51.8840 O   0  0  0  0  0  0  0  0  0  0  0  0
    1.9940   43.8240   51.2320 C   0  0  0  0  0  0  0  0  0  0  0  0
    1.2830   44.0860   52.4890 N   0  0  0  0  0  0  0  0  0  0  0  0
    0.8860   42.9570   53.3410 C   0  0  0  0  0  0  0  0  0  0  0  0
   -0.2860   43.3370   54.2500 C   0  0  0  0  0  0  0  0  0  0  0  0
    0.0710   44.5620   55.0940 C   0  0  0  0  0  0  0  0  0  0  0  0
    0.5010   45.6680   54.2410 N   0  0  0  0  0  0  0  0  0  0  0  0
    1.1700   45.4300   52.9990 C   0  0  0  0  0  0  0  0  0  0  0  0
    1.6370   46.4040   52.3500 O   0  0  0  0  0  0  0  0  0  0  0  0
    5.8790   46.1540   52.4670 C   0  0  0  0  0  0  0  0  0  0  0  0
    7.2280   46.4740   52.6910 C   0  0  0  0  0  0  0  0  0  0  0  0
    7.6670   47.1160   53.9500 C   0  0  0  0  0  0  0  0  0  0  0  0
    6.8190   47.5420   54.7800 O   0  0  0  0  0  0  0  0  0  0  0  0
    9.2709   47.6180   56.2749 H   0  0  0  0  0  0  0  0  0  0  0  0
   10.6267   48.2190   55.2613 H   0  0  0  0  0  0  0  0  0  0  0  0
    9.0529   49.0849   55.2613 H   0  0  0  0  0  0  0  0  0  0  0  0
   11.0336   46.9537   53.5047 H   0  0  0  0  0  0  0  0  0  0  0  0
   10.0313   45.4652   53.6943 H   0  0  0  0  0  0  0  0  0  0  0  0
    9.7630   47.6253   51.5438 H   0  0  0  0  0  0  0  0  0  0  0  0
   10.2703   45.9019   51.3311 H   0  0  0  0  0  0  0  0  0  0  0  0
    8.5272   45.4060   49.7066 H   0  0  0  0  0  0  0  0  0  0  0  0
    6.1367   44.8376   49.3208 H   0  0  0  0  0  0  0  0  0  0  0  0
    3.5580   45.8700   50.4000 H   0  0  0  0  0  0  0  0  0  0  0  0
    1.6415   44.5261   50.4621 H   0  0  0  0  0  0  0  0  0  0  0  0
    1.7951   42.7893   50.9162 H   0  0  0  0  0  0  0  0  0  0  0  0
    0.5862   42.1131   52.7023 H   0  0  0  0  0  0  0  0  0  0  0  0
    1.7421   42.6788   53.9731 H   0  0  0  0  0  0  0  0  0  0  0  0
   -1.1656   43.5670   53.6307 H   0  0  0  0  0  0  0  0  0  0  0  0
   -0.5067   42.4932   54.9202 H   0  0  0  0  0  0  0  0  0  0  0  0
   -0.8123   44.8731   55.6711 H   0  0  0  0  0  0  0  0  0  0  0  0
    0.8953   44.2967   55.7724 H   0  0  0  0  0  0  0  0  0  0  0  0
    0.4330   46.6430   54.6080 H   0  0  0  0  0  0  0  0  0  0  0  0
    5.1274   46.3859   53.2359 H   0  0  0  0  0  0  0  0  0  0  0  0
  1  2  1  0
  2  3  1  0
  3  4  1  0
  4  5  1  0
  5  6  2  0
  6  7  1  0
  7  8  2  0
  8  9  1  0
  9 10  1  0
 10 11  2  0
 10 12  1  0
 12 13  1  0
 13 14  1  0
 14 15  1  0
 15 16  1  0
 16 17  1  0
 17 18  1  0
 18 19  2  0
  8 20  1  0
 20 21  2  0
 21 22  1  0
 22 23  2  0
 22  2  1  0
 21  5  1  0
 18 13  1  0
  1 24  1  0
  1 25  1  0
  1 26  1  0
  3 27  1  0
  3 28  1  0
  4 29  1  0
  4 30  1  0
  6 31  1  0
  7 32  1  0
  9 33  1  0
 12 34  1  0
 12 35  1  0
 14 36  1  0
 14 37  1  0
 15 38  1  0
 15 39  1  0
 16 40  1  0
 16 41  1  0
 17 42  1  0
 20 43  1  0
M  END
>  <meeko>  (1) 
{"is_sidechain": [false], "free_energy": -8.924, "intermolecular_energy": -10.489, "internal_energy": -0.565}

$$$$
ligand_80_conformer_2_docked
     RDKit          3D

 43 45  0  0  0  0  0  0  0  0999 V2000
    9.5490   47.5530   53.6420 C   0  0  0  0  0  0  0  0  0  0  0  0
    8.6080   46.6350   52.9950 N   0  0  0  0  0  0  0  0  0  0  0  0
    8.9290   46.0130   51.7050 C   0  0  0  0  0  0  0  0  0  0  0  0
    7.6960   45.9960   50.7930 C   0  0  0  0  0  0  0  0  0  0  0  0
    6.5070   45.3870   51.4950 C   0  0  0  0  0  0  0  0  0  0  0  0
    5.5140   44.7320   50.7530 C   0  0  0  0  0  0  0  0  0  0  0  0
    4.3790   44.2230   51.3870 C   0  0  0  0  0  0  0  0  0  0  0  0
    4.2130   44.3610   52.7720 C   0  0  0  0  0  0  0  0  0  0  0  0
    3.0230   43.8470   53.3920 N   0  0  0  0  0  0  0  0  0  0  0  0
    1.7160   44.4170   53.2240 C   0  0  0  0  0  0  0  0  0  0  0  0
    1.5720   45.5390   52.6660 O   0  0  0  0  0  0  0  0  0  0  0  0
    0.5190   43.7240   53.7970 C   0  0  0  0  0  0  0  0  0  0  0  0
   -0.0680   44.5300   54.8740 N   0  0  0  0  0  0  0  0  0  0  0  0
    0.8030   45.0690   55.9280 C   0  0  0  0  0  0  0  0  0  0  0  0
    0.0090   45.3620   57.2040 C   0  0  0  0  0  0  0  0  0  0  0  0
   -1.1460   46.3190   56.9040 C   0  0  0  0  0  0  0  0  0  0  0  0
   -1.9850   45.7940   55.8300 N   0  0  0  0  0  0  0  0  0  0  0  0
   -1.4350   44.9830   54.7880 C   0  0  0  0  0  0  0  0  0  0  0  0
   -2.1600   44.6510   53.8120 O   0  0  0  0  0  0  0  0  0  0  0  0
    5.1870   45.0530   53.5140 C   0  0  0  0  0  0  0  0  0  0  0  0
    6.3340   45.5620   52.8830 C   0  0  0  0  0  0  0  0  0  0  0  0
    7.3730   46.2880   53.6460 C   0  0  0  0  0  0  0  0  0  0  0  0
    7.1750   46.6120   54.8480 O   0  0  0  0  0  0  0  0  0  0  0  0
    9.4567   47.4629   54.7344 H   0  0  0  0  0  0  0  0  0  0  0  0
   10.5756   47.2997   53.3387 H   0  0  0  0  0  0  0  0  0  0  0  0
    9.3212   48.5855   53.3387 H   0  0  0  0  0  0  0  0  0  0  0  0
    9.7317   46.5855   51.2173 H   0  0  0  0  0  0  0  0  0  0  0  0
    9.2541   44.9771   51.8816 H   0  0  0  0  0  0  0  0  0  0  0  0
    7.4509   47.0280   50.5016 H   0  0  0  0  0  0  0  0  0  0  0  0
    7.9267   45.3873   49.9063 H   0  0  0  0  0  0  0  0  0  0  0  0
    5.6298   44.6185   49.6650 H   0  0  0  0  0  0  0  0  0  0  0  0
    3.6080   43.7090   50.7942 H   0  0  0  0  0  0  0  0  0  0  0  0
    3.1280   43.0650   54.0780 H   0  0  0  0  0  0  0  0  0  0  0  0
   -0.2294   43.5770   53.0044 H   0  0  0  0  0  0  0  0  0  0  0  0
    0.8299   42.7514   54.2061 H   0  0  0  0  0  0  0  0  0  0  0  0
    1.5891   44.3339   56.1551 H   0  0  0  0  0  0  0  0  0  0  0  0
    1.2452   46.0098   55.5682 H   0  0  0  0  0  0  0  0  0  0  0  0
   -0.3949   44.4203   57.6041 H   0  0  0  0  0  0  0  0  0  0  0  0
    0.6779   45.8294   57.9417 H   0  0  0  0  0  0  0  0  0  0  0  0
   -1.7562   46.4441   57.8107 H   0  0  0  0  0  0  0  0  0  0  0  0
   -0.7304   47.2870   56.5874 H   0  0  0  0  0  0  0  0  0  0  0  0
   -2.9730   46.1250   55.7540 H   0  0  0  0  0  0  0  0  0  0  0  0
    5.0496   45.1966   54.5959 H   0  0  0  0  0  0  0  0  0  0  0  0
  1  2  1  0
  2  3  1  0
  3  4  1  0
  4  5  1  0
  5  6  2  0
  6  7  1  0
  7  8  2  0
  8  9  1  0
  9 10  1  0
 10 11  2  0
 10 12  1  0
 12 13  1  0
 13 14  1  0
 14 15  1  0
 15 16  1  0
 16 17  1  0
 17 18  1  0
 18 19  2  0
  8 20  1  0
 20 21  2  0
 21 22  1  0
 22 23  2  0
 22  2  1  0
 21  5  1  0
 18 13  1  0
  1 24  1  0
  1 25  1  0
  1 26  1  0
  3 27  1  0
  3 28  1  0
  4 29  1  0
  4 30  1  0
  6 31  1  0
  7 32  1  0
  9 33  1  0
 12 34  1  0
 12 35  1  0
 14 36  1  0
 14 37  1  0
 15 38  1  0
 15 39  1  0
 16 40  1  0
 16 41  1  0
 17 42  1  0
 20 43  1  0
M  END
>  <meeko>  (2) 
{"is_sidechain": [false], "free_energy": -8.165, "intermolecular_energy": -9.792, "internal_energy": -0.37}

$$$$
ligand_80_conformer_2_docked
     RDKit          3D

 43 45  0  0  0  0  0  0  0  0999 V2000
    0.2820   45.6220   56.7060 C   0  0  0  0  0  0  0  0  0  0  0  0
    0.7530   45.0780   55.4290 N   0  0  0  0  0  0  0  0  0  0  0  0
   -0.1790   44.4370   54.4930 C   0  0  0  0  0  0  0  0  0  0  0  0
    0.4540   43.1830   53.8780 C   0  0  0  0  0  0  0  0  0  0  0  0
    1.8110   43.4880   53.2900 C   0  0  0  0  0  0  0  0  0  0  0  0
    2.2910   42.7370   52.2080 C   0  0  0  0  0  0  0  0  0  0  0  0
    3.5710   42.9680   51.7010 C   0  0  0  0  0  0  0  0  0  0  0  0
    4.3940   43.9520   52.2650 C   0  0  0  0  0  0  0  0  0  0  0  0
    5.7150   44.1530   51.7360 N   0  0  0  0  0  0  0  0  0  0  0  0
    6.0670   45.2080   50.8270 C   0  0  0  0  0  0  0  0  0  0  0  0
    5.1740   45.9140   50.2850 O   0  0  0  0  0  0  0  0  0  0  0  0
    7.5000   45.4180   50.4450 C   0  0  0  0  0  0  0  0  0  0  0  0
    8.1890   46.2100   51.4710 N   0  0  0  0  0  0  0  0  0  0  0  0
    7.4000   47.0420   52.3900 C   0  0  0  0  0  0  0  0  0  0  0  0
    8.2450   48.1800   52.9670 C   0  0  0  0  0  0  0  0  0  0  0  0
    9.4860   47.6210   53.6640 C   0  0  0  0  0  0  0  0  0  0  0  0
   10.2450   46.7650   52.7560 N   0  0  0  0  0  0  0  0  0  0  0  0
    9.5930   46.0080   51.7310 C   0  0  0  0  0  0  0  0  0  0  0  0
   10.2600   45.1860   51.0470 O   0  0  0  0  0  0  0  0  0  0  0  0
    3.9320   44.6800   53.3770 C   0  0  0  0  0  0  0  0  0  0  0  0
    2.6430   44.4550   53.8880 C   0  0  0  0  0  0  0  0  0  0  0  0
    2.1350   45.2140   55.0520 C   0  0  0  0  0  0  0  0  0  0  0  0
    2.9050   45.9600   55.7150 O   0  0  0  0  0  0  0  0  0  0  0  0
    0.7556   45.0750   57.5346 H   0  0  0  0  0  0  0  0  0  0  0  0
    0.5475   46.6875   56.7709 H   0  0  0  0  0  0  0  0  0  0  0  0
   -0.8105   45.5117   56.7709 H   0  0  0  0  0  0  0  0  0  0  0  0
   -1.0949   44.1529   55.0319 H   0  0  0  0  0  0  0  0  0  0  0  0
   -0.4175   45.1466   53.6870 H   0  0  0  0  0  0  0  0  0  0  0  0
    0.5657   42.4173   54.6598 H   0  0  0  0  0  0  0  0  0  0  0  0
   -0.2015   42.8218   53.0718 H   0  0  0  0  0  0  0  0  0  0  0  0
    1.6555   41.9613   51.7559 H   0  0  0  0  0  0  0  0  0  0  0  0
    3.9367   42.3725   50.8515 H   0  0  0  0  0  0  0  0  0  0  0  0
    6.4430   43.4350   51.9530 H   0  0  0  0  0  0  0  0  0  0  0  0
    7.9963   44.4413   50.3463 H   0  0  0  0  0  0  0  0  0  0  0  0
    7.5400   45.9590   49.4880 H   0  0  0  0  0  0  0  0  0  0  0  0
    6.5462   47.4698   51.8440 H   0  0  0  0  0  0  0  0  0  0  0  0
    7.0511   46.4106   53.2204 H   0  0  0  0  0  0  0  0  0  0  0  0
    8.5575   48.8490   52.1516 H   0  0  0  0  0  0  0  0  0  0  0  0
    7.6427   48.7352   53.7011 H   0  0  0  0  0  0  0  0  0  0  0  0
   10.1234   48.4556   53.9912 H   0  0  0  0  0  0  0  0  0  0  0  0
    9.1666   47.0232   54.5304 H   0  0  0  0  0  0  0  0  0  0  0  0
   11.2600   46.6040   52.9440 H   0  0  0  0  0  0  0  0  0  0  0  0
    4.5841   45.4297   53.8489 H   0  0  0  0  0  0  0  0  0  0  0  0
  1  2  1  0
  2  3  1  0
  3  4  1  0
  4  5  1  0
  5  6  2  0
  6  7  1  0
  7  8  2  0
  8  9  1  0
  9 10  1  0
 10 11  2  0
 10 12  1  0
 12 13  1  0
 13 14  1  0
 14 15  1  0
 15 16  1  0
 16 17  1  0
 17 18  1  0
 18 19  2  0
  8 20  1  0
 20 21  2  0
 21 22  1  0
 22 23  2  0
 22  2  1  0
 21  5  1  0
 18 13  1  0
  1 24  1  0
  1 25  1  0
  1 26  1  0
  3 27  1  0
  3 28  1  0
  4 29  1  0
  4 30  1  0
  6 31  1  0
  7 32  1  0
  9 33  1  0
 12 34  1  0
 12 35  1  0
 14 36  1  0
 14 37  1  0
 15 38  1  0
 15 39  1  0
 16 40  1  0
 16 41  1  0
 17 42  1  0
 20 43  1  0
M  END
>  <meeko>  (3) 
{"is_sidechain": [false], "free_energy": -8.135, "intermolecular_energy": -9.807, "internal_energy": -0.32}

$$$$
ligand_80_conformer_2_docked
     RDKit          3D

 43 45  0  0  0  0  0  0  0  0999 V2000
    9.5960   47.4670   53.6800 C   0  0  0  0  0  0  0  0  0  0  0  0
    8.6320   46.5800   53.0240 N   0  0  0  0  0  0  0  0  0  0  0  0
    8.9410   45.9560   51.7320 C   0  0  0  0  0  0  0  0  0  0  0  0
    7.7120   45.9800   50.8150 C   0  0  0  0  0  0  0  0  0  0  0  0
    6.5020   45.4020   51.5090 C   0  0  0  0  0  0  0  0  0  0  0  0
    5.4940   44.7800   50.7600 C   0  0  0  0  0  0  0  0  0  0  0  0
    4.3410   44.3020   51.3860 C   0  0  0  0  0  0  0  0  0  0  0  0
    4.1740   44.4370   52.7710 C   0  0  0  0  0  0  0  0  0  0  0  0
    2.9670   43.9540   53.3830 N   0  0  0  0  0  0  0  0  0  0  0  0
    1.8980   44.8010   53.8350 C   0  0  0  0  0  0  0  0  0  0  0  0
    2.0500   46.0520   53.8930 O   0  0  0  0  0  0  0  0  0  0  0  0
    0.6210   44.1940   54.3290 C   0  0  0  0  0  0  0  0  0  0  0  0
   -0.2860   43.9340   53.2050 N   0  0  0  0  0  0  0  0  0  0  0  0
   -0.6300   45.0300   52.2880 C   0  0  0  0  0  0  0  0  0  0  0  0
   -1.9580   44.7570   51.5760 C   0  0  0  0  0  0  0  0  0  0  0  0
   -1.8980   43.4200   50.8350 C   0  0  0  0  0  0  0  0  0  0  0  0
   -1.5190   42.3420   51.7450 N   0  0  0  0  0  0  0  0  0  0  0  0
   -0.6590   42.5840   52.8630 C   0  0  0  0  0  0  0  0  0  0  0  0
   -0.2520   41.6120   53.5540 O   0  0  0  0  0  0  0  0  0  0  0  0
    5.1640   45.0960   53.5210 C   0  0  0  0  0  0  0  0  0  0  0  0
    6.3280   45.5750   52.8970 C   0  0  0  0  0  0  0  0  0  0  0  0
    7.3840   46.2670   53.6680 C   0  0  0  0  0  0  0  0  0  0  0  0
    7.1900   46.5900   54.8720 O   0  0  0  0  0  0  0  0  0  0  0  0
    9.4955   47.3746   54.7715 H   0  0  0  0  0  0  0  0  0  0  0  0
   10.6163   47.1853   53.3805 H   0  0  0  0  0  0  0  0  0  0  0  0
    9.4000   48.5071   53.3805 H   0  0  0  0  0  0  0  0  0  0  0  0
    9.7621   46.5077   51.2510 H   0  0  0  0  0  0  0  0  0  0  0  0
    9.2356   44.9102   51.9040 H   0  0  0  0  0  0  0  0  0  0  0  0
    7.4984   47.0203   50.5283 H   0  0  0  0  0  0  0  0  0  0  0  0
    7.9286   45.3695   49.9260 H   0  0  0  0  0  0  0  0  0  0  0  0
    5.6118   44.6676   49.6721 H   0  0  0  0  0  0  0  0  0  0  0  0
    3.5571   43.8154   50.7871 H   0  0  0  0  0  0  0  0  0  0  0  0
    2.9000   42.9330   53.5960 H   0  0  0  0  0  0  0  0  0  0  0  0
    0.8438   43.2470   54.8424 H   0  0  0  0  0  0  0  0  0  0  0  0
    0.1370   44.8946   55.0254 H   0  0  0  0  0  0  0  0  0  0  0  0
   -0.7154   45.9648   52.8615 H   0  0  0  0  0  0  0  0  0  0  0  0
    0.1624   45.1126   51.5296 H   0  0  0  0  0  0  0  0  0  0  0  0
   -2.7682   44.7239   52.3193 H   0  0  0  0  0  0  0  0  0  0  0  0
   -2.1462   45.5609   50.8491 H   0  0  0  0  0  0  0  0  0  0  0  0
   -2.8869   43.1999   50.4065 H   0  0  0  0  0  0  0  0  0  0  0  0
   -1.1438   43.4912   50.0374 H   0  0  0  0  0  0  0  0  0  0  0  0
   -1.7750   41.3600   51.4990 H   0  0  0  0  0  0  0  0  0  0  0  0
    5.0263   45.2374   54.6031 H   0  0  0  0  0  0  0  0  0  0  0  0
  1  2  1  0
  2  3  1  0
  3  4  1  0
  4  5  1  0
  5  6  2  0
  6  7  1  0
  7  8  2  0
  8  9  1  0
  9 10  1  0
 10 11  2  0
 10 12  1  0
 12 13  1  0
 13 14  1  0
 14 15  1  0
 15 16  1  0
 16 17  1  0
 17 18  1  0
 18 19  2  0
  8 20  1  0
 20 21  2  0
 21 22  1  0
 22 23  2  0
 22  2  1  0
 21  5  1  0
 18 13  1  0
  1 24  1  0
  1 25  1  0
  1 26  1  0
  3 27  1  0
  3 28  1  0
  4 29  1  0
  4 30  1  0
  6 31  1  0
  7 32  1  0
  9 33  1  0
 12 34  1  0
 12 35  1  0
 14 36  1  0
 14 37  1  0
 15 38  1  0
 15 39  1  0
 16 40  1  0
 16 41  1  0
 17 42  1  0
 20 43  1  0
M  END
>  <meeko>  (4) 
{"is_sidechain": [false], "free_energy": -8.119, "intermolecular_energy": -9.808, "internal_energy": -0.299}

$$$$
ligand_80_conformer_2_docked
     RDKit          3D

 43 45  0  0  0  0  0  0  0  0999 V2000
   -1.8580   44.5410   56.9470 C   0  0  0  0  0  0  0  0  0  0  0  0
   -0.8420   44.5890   55.8920 N   0  0  0  0  0  0  0  0  0  0  0  0
   -1.1930   44.3080   54.4950 C   0  0  0  0  0  0  0  0  0  0  0  0
   -0.1070   43.4540   53.8280 C   0  0  0  0  0  0  0  0  0  0  0  0
    1.2600   44.0690   54.0130 C   0  0  0  0  0  0  0  0  0  0  0  0
    2.2620   43.8500   53.0570 C   0  0  0  0  0  0  0  0  0  0  0  0
    3.5470   44.3580   53.2520 C   0  0  0  0  0  0  0  0  0  0  0  0
    3.8560   45.0930   54.4050 C   0  0  0  0  0  0  0  0  0  0  0  0
    5.1940   45.5850   54.5890 N   0  0  0  0  0  0  0  0  0  0  0  0
    5.5800   46.9550   54.4020 C   0  0  0  0  0  0  0  0  0  0  0  0
    4.7890   47.7800   53.8690 O   0  0  0  0  0  0  0  0  0  0  0  0
    6.9680   47.3960   54.7560 C   0  0  0  0  0  0  0  0  0  0  0  0
    7.8940   47.0860   53.6610 N   0  0  0  0  0  0  0  0  0  0  0  0
    7.3900   47.0410   52.2810 C   0  0  0  0  0  0  0  0  0  0  0  0
    8.2920   46.1810   51.3910 C   0  0  0  0  0  0  0  0  0  0  0  0
    9.7300   46.6990   51.4330 C   0  0  0  0  0  0  0  0  0  0  0  0
   10.2110   46.7760   52.8110 N   0  0  0  0  0  0  0  0  0  0  0  0
    9.3160   47.0480   53.8940 C   0  0  0  0  0  0  0  0  0  0  0  0
    9.7820   47.2310   55.0510 O   0  0  0  0  0  0  0  0  0  0  0  0
    2.8650   45.2800   55.3860 C   0  0  0  0  0  0  0  0  0  0  0  0
    1.5680   44.7750   55.1920 C   0  0  0  0  0  0  0  0  0  0  0  0
    0.5100   44.9650   56.2080 C   0  0  0  0  0  0  0  0  0  0  0  0
    0.7900   45.4400   57.3430 O   0  0  0  0  0  0  0  0  0  0  0  0
   -1.3664   44.5642   57.9308 H   0  0  0  0  0  0  0  0  0  0  0  0
   -2.5275   45.4085   56.8511 H   0  0  0  0  0  0  0  0  0  0  0  0
   -2.4427   43.6142   56.8511 H   0  0  0  0  0  0  0  0  0  0  0  0
   -2.1494   43.7655   54.4644 H   0  0  0  0  0  0  0  0  0  0  0  0
   -1.2791   45.2607   53.9519 H   0  0  0  0  0  0  0  0  0  0  0  0
   -0.1129   42.4502   54.2778 H   0  0  0  0  0  0  0  0  0  0  0  0
   -0.3209   43.3968   52.7505 H   0  0  0  0  0  0  0  0  0  0  0  0
    2.0338   43.2743   52.1479 H   0  0  0  0  0  0  0  0  0  0  0  0
    4.3243   44.1801   52.4943 H   0  0  0  0  0  0  0  0  0  0  0  0
    5.9490   44.8890   54.7820 H   0  0  0  0  0  0  0  0  0  0  0  0
    6.9693   48.4811   54.9365 H   0  0  0  0  0  0  0  0  0  0  0  0
    7.2932   46.8636   55.6620 H   0  0  0  0  0  0  0  0  0  0  0  0
    6.3759   46.6148   52.2829 H   0  0  0  0  0  0  0  0  0  0  0  0
    7.3788   48.0653   51.8801 H   0  0  0  0  0  0  0  0  0  0  0  0
    8.2704   45.1413   51.7496 H   0  0  0  0  0  0  0  0  0  0  0  0
    7.9243   46.2307   50.3554 H   0  0  0  0  0  0  0  0  0  0  0  0
   10.3766   46.0162   50.8624 H   0  0  0  0  0  0  0  0  0  0  0  0
    9.7561   47.7065   50.9923 H   0  0  0  0  0  0  0  0  0  0  0  0
   11.2400   46.7600   52.9880 H   0  0  0  0  0  0  0  0  0  0  0  0
    3.1069   45.8248   56.3105 H   0  0  0  0  0  0  0  0  0  0  0  0
  1  2  1  0
  2  3  1  0
  3  4  1  0
  4  5  1  0
  5  6  2  0
  6  7  1  0
  7  8  2  0
  8  9  1  0
  9 10  1  0
 10 11  2  0
 10 12  1  0
 12 13  1  0
 13 14  1  0
 14 15  1  0
 15 16  1  0
 16 17  1  0
 17 18  1  0
 18 19  2  0
  8 20  1  0
 20 21  2  0
 21 22  1  0
 22 23  2  0
 22  2  1  0
 21  5  1  0
 18 13  1  0
  1 24  1  0
  1 25  1  0
  1 26  1  0
  3 27  1  0
  3 28  1  0
  4 29  1  0
  4 30  1  0
  6 31  1  0
  7 32  1  0
  9 33  1  0
 12 34  1  0
 12 35  1  0
 14 36  1  0
 14 37  1  0
 15 38  1  0
 15 39  1  0
 16 40  1  0
 16 41  1  0
 17 42  1  0
 20 43  1  0
M  END
>  <meeko>  (5) 
{"is_sidechain": [false], "free_energy": -7.421, "intermolecular_energy": -9.094, "internal_energy": -0.194}

$$$$
