MODEL 1
REMARK VINA RESULT:   -10.183      0.000      0.000
REMARK INTER + INTRA:         -13.233
REMARK INTER:                 -12.564
REMARK INTRA:                  -0.669
REMARK UNBOUND:                -0.669
REMARK SMILES O=C(Nc1nnc2ccccn12)c1cccc(Nc2ccccc2)c1
REMARK SMILES IDX 13 1 14 2 15 3 16 4 17 5 25 6 2 7 1 8 3 9 4 11 5 12 12 13
REMARK SMILES IDX 6 14 11 15 7 16 10 17 8 18 9 19 18 20 19 22 20 23 24 24
REMARK SMILES IDX 21 25 23 26 22 27
REMARK H PARENT 3 10 18 21
ROOT
ATOM      1  C   UNL     1       4.453  43.548  51.207  1.00  0.00     0.042 A 
ATOM      2  C   UNL     1       4.714  42.264  50.696  1.00  0.00     0.014 A 
ATOM      3  C   UNL     1       5.905  42.003  50.013  1.00  0.00     0.003 A 
ATOM      4  C   UNL     1       6.848  43.017  49.836  1.00  0.00     0.026 A 
ATOM      5  C   UNL     1       6.616  44.299  50.346  1.00  0.00     0.039 A 
ATOM      6  C   UNL     1       5.404  44.566  51.010  1.00  0.00     0.039 A 
ENDROOT
BRANCH   1   7
ATOM      7  C   UNL     1       3.183  43.844  51.914  1.00  0.00     0.258 C 
ATOM      8  O   UNL     1       2.608  44.949  51.710  1.00  0.00    -0.269 OA
ATOM      9  N   UNL     1       2.620  42.906  52.847  1.00  0.00    -0.290 N 
ATOM     10  H   UNL     1       3.222  42.134  53.204  1.00  0.00     0.173 HD
BRANCH   9  11
ATOM     11  C   UNL     1       1.279  43.007  53.353  1.00  0.00     0.235 A 
ATOM     12  N   UNL     1       0.225  42.305  52.877  1.00  0.00    -0.111 NA
ATOM     13  N   UNL     1       0.908  43.792  54.379  1.00  0.00    -0.269 N 
ATOM     14  N   UNL     1      -0.837  42.646  53.602  1.00  0.00    -0.128 NA
ATOM     15  C   UNL     1       1.590  44.660  55.171  1.00  0.00     0.096 A 
ATOM     16  C   UNL     1      -0.403  43.546  54.504  1.00  0.00     0.162 A 
ATOM     17  C   UNL     1       0.875  45.333  56.174  1.00  0.00     0.019 A 
ATOM     18  C   UNL     1      -1.166  44.182  55.481  1.00  0.00     0.050 A 
ATOM     19  C   UNL     1      -0.506  45.091  56.326  1.00  0.00     0.005 A 
ENDBRANCH   9  11
ENDBRANCH   1   7
BRANCH   5  20
ATOM     20  N   UNL     1       7.589  45.334  50.127  1.00  0.00    -0.356 N 
ATOM     21  H   UNL     1       7.834  45.571  49.138  1.00  0.00     0.167 HD
BRANCH  20  22
ATOM     22  C   UNL     1       8.252  46.064  51.175  1.00  0.00     0.038 A 
ATOM     23  C   UNL     1       9.582  45.753  51.498  1.00  0.00     0.026 A 
ATOM     24  C   UNL     1       7.572  47.039  51.929  1.00  0.00     0.026 A 
ATOM     25  C   UNL     1      10.236  46.432  52.531  1.00  0.00     0.002 A 
ATOM     26  C   UNL     1       8.230  47.716  52.961  1.00  0.00     0.002 A 
ATOM     27  C   UNL     1       9.561  47.415  53.259  1.00  0.00     0.000 A 
ENDBRANCH  20  22
ENDBRANCH   5  20
TORSDOF 4
ENDMDL
MODEL 2
REMARK VINA RESULT:    -9.859      1.254      1.878
REMARK INTER + INTRA:         -12.834
REMARK INTER:                 -12.101
REMARK INTRA:                  -0.733
REMARK UNBOUND:                -0.669
REMARK SMILES O=C(Nc1nnc2ccccn12)c1cccc(Nc2ccccc2)c1
REMARK SMILES IDX 13 1 14 2 15 3 16 4 17 5 25 6 2 7 1 8 3 9 4 11 5 12 12 13
REMARK SMILES IDX 6 14 11 15 7 16 10 17 8 18 9 19 18 20 19 22 20 23 24 24
REMARK SMILES IDX 21 25 23 26 22 27
REMARK H PARENT 3 10 18 21
ROOT
ATOM      1  C   UNL     1       4.964  43.376  51.203  1.00  0.00     0.042 A 
ATOM      2  C   UNL     1       5.181  42.277  50.352  1.00  0.00     0.014 A 
ATOM      3  C   UNL     1       6.250  42.280  49.453  1.00  0.00     0.003 A 
ATOM      4  C   UNL     1       7.115  43.374  49.394  1.00  0.00     0.026 A 
ATOM      5  C   UNL     1       6.927  44.473  50.240  1.00  0.00     0.039 A 
ATOM      6  C   UNL     1       5.834  44.479  51.126  1.00  0.00     0.039 A 
ENDROOT
BRANCH   1   7
ATOM      7  C   UNL     1       3.819  43.397  52.147  1.00  0.00     0.258 C 
ATOM      8  O   UNL     1       3.249  42.312  52.446  1.00  0.00    -0.269 OA
ATOM      9  N   UNL     1       3.335  44.635  52.695  1.00  0.00    -0.290 N 
ATOM     10  H   UNL     1       3.630  45.528  52.247  1.00  0.00     0.173 HD
BRANCH   9  11
ATOM     11  C   UNL     1       2.424  44.702  53.803  1.00  0.00     0.235 A 
ATOM     12  N   UNL     1       2.790  44.937  55.084  1.00  0.00    -0.111 NA
ATOM     13  N   UNL     1       1.091  44.566  53.703  1.00  0.00    -0.269 N 
ATOM     14  N   UNL     1       1.680  44.946  55.818  1.00  0.00    -0.128 NA
ATOM     15  C   UNL     1       0.263  44.330  52.653  1.00  0.00     0.096 A 
ATOM     16  C   UNL     1       0.664  44.720  54.964  1.00  0.00     0.162 A 
ATOM     17  C   UNL     1      -1.115  44.244  52.908  1.00  0.00     0.019 A 
ATOM     18  C   UNL     1      -0.691  44.647  55.281  1.00  0.00     0.050 A 
ATOM     19  C   UNL     1      -1.589  44.403  54.227  1.00  0.00     0.005 A 
ENDBRANCH   9  11
ENDBRANCH   1   7
BRANCH   5  20
ATOM     20  N   UNL     1       7.814  45.600  50.142  1.00  0.00    -0.356 N 
ATOM     21  H   UNL     1       8.057  45.947  49.186  1.00  0.00     0.167 HD
BRANCH  20  22
ATOM     22  C   UNL     1       8.392  46.281  51.269  1.00  0.00     0.038 A 
ATOM     23  C   UNL     1       9.691  45.950  51.685  1.00  0.00     0.026 A 
ATOM     24  C   UNL     1       7.657  47.227  52.008  1.00  0.00     0.026 A 
ATOM     25  C   UNL     1      10.262  46.580  52.794  1.00  0.00     0.002 A 
ATOM     26  C   UNL     1       8.231  47.857  53.117  1.00  0.00     0.002 A 
ATOM     27  C   UNL     1       9.534  47.536  53.507  1.00  0.00     0.000 A 
ENDBRANCH  20  22
ENDBRANCH   5  20
TORSDOF 4
ENDMDL
MODEL 3
REMARK VINA RESULT:    -9.229      2.451      7.499
REMARK INTER + INTRA:         -12.056
REMARK INTER:                 -12.195
REMARK INTRA:                   0.139
REMARK UNBOUND:                -0.669
REMARK SMILES O=C(Nc1nnc2ccccn12)c1cccc(Nc2ccccc2)c1
REMARK SMILES IDX 13 1 14 2 15 3 16 4 17 5 25 6 2 7 1 8 3 9 4 11 5 12 12 13
REMARK SMILES IDX 6 14 11 15 7 16 10 17 8 18 9 19 18 20 19 22 20 23 24 24
REMARK SMILES IDX 21 25 23 26 22 27
REMARK H PARENT 3 10 18 21
ROOT
ATOM      1  C   UNL     1       3.560  44.688  54.158  1.00  0.00     0.042 A 
ATOM      2  C   UNL     1       2.345  44.950  54.818  1.00  0.00     0.014 A 
ATOM      3  C   UNL     1       1.169  44.316  54.413  1.00  0.00     0.003 A 
ATOM      4  C   UNL     1       1.189  43.411  53.349  1.00  0.00     0.026 A 
ATOM      5  C   UNL     1       2.388  43.124  52.686  1.00  0.00     0.039 A 
ATOM      6  C   UNL     1       3.567  43.785  53.079  1.00  0.00     0.039 A 
ENDROOT
BRANCH   1   7
ATOM      7  C   UNL     1       4.812  45.371  54.563  1.00  0.00     0.258 C 
ATOM      8  O   UNL     1       5.279  45.167  55.717  1.00  0.00    -0.269 OA
ATOM      9  N   UNL     1       5.478  46.283  53.673  1.00  0.00    -0.290 N 
ATOM     10  H   UNL     1       4.956  46.644  52.846  1.00  0.00     0.173 HD
BRANCH   9  11
ATOM     11  C   UNL     1       6.814  46.762  53.892  1.00  0.00     0.235 A 
ATOM     12  N   UNL     1       7.203  47.486  54.967  1.00  0.00    -0.111 NA
ATOM     13  N   UNL     1       7.852  46.530  53.071  1.00  0.00    -0.269 N 
ATOM     14  N   UNL     1       8.504  47.726  54.833  1.00  0.00    -0.128 NA
ATOM     15  C   UNL     1       7.967  45.862  51.893  1.00  0.00     0.096 A 
ATOM     16  C   UNL     1       8.878  47.140  53.680  1.00  0.00     0.162 A 
ATOM     17  C   UNL     1       9.232  45.813  51.287  1.00  0.00     0.019 A 
ATOM     18  C   UNL     1      10.157  47.125  53.129  1.00  0.00     0.050 A 
ATOM     19  C   UNL     1      10.327  46.447  51.909  1.00  0.00     0.005 A 
ENDBRANCH   9  11
ENDBRANCH   1   7
BRANCH   5  20
ATOM     20  N   UNL     1       2.379  42.211  51.575  1.00  0.00    -0.356 N 
ATOM     21  H   UNL     1       1.498  41.680  51.388  1.00  0.00     0.167 HD
BRANCH  20  22
ATOM     22  C   UNL     1       3.501  41.977  50.706  1.00  0.00     0.038 A 
ATOM     23  C   UNL     1       3.419  40.974  49.728  1.00  0.00     0.026 A 
ATOM     24  C   UNL     1       4.706  42.688  50.860  1.00  0.00     0.026 A 
ATOM     25  C   UNL     1       4.507  40.711  48.890  1.00  0.00     0.002 A 
ATOM     26  C   UNL     1       5.792  42.423  50.019  1.00  0.00     0.002 A 
ATOM     27  C   UNL     1       5.692  41.438  49.034  1.00  0.00     0.000 A 
ENDBRANCH  20  22
ENDBRANCH   5  20
TORSDOF 4
ENDMDL
MODEL 4
REMARK VINA RESULT:    -9.154      1.558      2.510
REMARK INTER + INTRA:         -11.964
REMARK INTER:                 -11.256
REMARK INTRA:                  -0.707
REMARK UNBOUND:                -0.669
REMARK SMILES O=C(Nc1nnc2ccccn12)c1cccc(Nc2ccccc2)c1
REMARK SMILES IDX 13 1 14 2 15 3 16 4 17 5 25 6 2 7 1 8 3 9 4 11 5 12 12 13
REMARK SMILES IDX 6 14 11 15 7 16 10 17 8 18 9 19 18 20 19 22 20 23 24 24
REMARK SMILES IDX 21 25 23 26 22 27
REMARK H PARENT 3 10 18 21
ROOT
ATOM      1  C   UNL     1       3.551  43.925  52.516  1.00  0.00     0.042 A 
ATOM      2  C   UNL     1       3.910  42.852  51.679  1.00  0.00     0.014 A 
ATOM      3  C   UNL     1       5.017  42.954  50.834  1.00  0.00     0.003 A 
ATOM      4  C   UNL     1       5.782  44.122  50.816  1.00  0.00     0.026 A 
ATOM      5  C   UNL     1       5.452  45.198  51.649  1.00  0.00     0.039 A 
ATOM      6  C   UNL     1       4.320  45.103  52.479  1.00  0.00     0.039 A 
ENDROOT
BRANCH   1   7
ATOM      7  C   UNL     1       2.365  43.839  53.401  1.00  0.00     0.258 C 
ATOM      8  O   UNL     1       1.728  42.752  53.474  1.00  0.00    -0.269 OA
ATOM      9  N   UNL     1       1.915  44.983  54.148  1.00  0.00    -0.290 N 
ATOM     10  H   UNL     1       2.274  45.925  53.883  1.00  0.00     0.173 HD
BRANCH   9  11
ATOM     11  C   UNL     1       0.954  44.899  55.213  1.00  0.00     0.235 A 
ATOM     12  N   UNL     1       1.257  44.995  56.528  1.00  0.00    -0.111 NA
ATOM     13  N   UNL     1      -0.368  44.743  55.036  1.00  0.00    -0.269 N 
ATOM     14  N   UNL     1       0.117  44.893  57.205  1.00  0.00    -0.128 NA
ATOM     15  C   UNL     1      -1.142  44.609  53.928  1.00  0.00     0.096 A 
ATOM     16  C   UNL     1      -0.854  44.741  56.285  1.00  0.00     0.162 A 
ATOM     17  C   UNL     1      -2.527  44.460  54.108  1.00  0.00     0.019 A 
ATOM     18  C   UNL     1      -2.218  44.598  56.528  1.00  0.00     0.050 A 
ATOM     19  C   UNL     1      -3.062  44.455  55.413  1.00  0.00     0.005 A 
ENDBRANCH   9  11
ENDBRANCH   1   7
BRANCH   5  20
ATOM     20  N   UNL     1       6.237  46.401  51.592  1.00  0.00    -0.356 N 
ATOM     21  H   UNL     1       5.867  47.197  51.023  1.00  0.00     0.167 HD
BRANCH  20  22
ATOM     22  C   UNL     1       7.496  46.583  52.262  1.00  0.00     0.038 A 
ATOM     23  C   UNL     1       7.513  47.050  53.585  1.00  0.00     0.026 A 
ATOM     24  C   UNL     1       8.717  46.366  51.595  1.00  0.00     0.026 A 
ATOM     25  C   UNL     1       8.727  47.258  54.247  1.00  0.00     0.002 A 
ATOM     26  C   UNL     1       9.929  46.575  52.260  1.00  0.00     0.002 A 
ATOM     27  C   UNL     1       9.934  47.018  53.585  1.00  0.00     0.000 A 
ENDBRANCH  20  22
ENDBRANCH   5  20
TORSDOF 4
ENDMDL
MODEL 5
REMARK VINA RESULT:    -8.790      2.356      8.533
REMARK INTER + INTRA:         -11.515
REMARK INTER:                 -10.862
REMARK INTRA:                  -0.653
REMARK UNBOUND:                -0.669
REMARK SMILES O=C(Nc1nnc2ccccn12)c1cccc(Nc2ccccc2)c1
REMARK SMILES IDX 13 1 14 2 15 3 16 4 17 5 25 6 2 7 1 8 3 9 4 11 5 12 12 13
REMARK SMILES IDX 6 14 11 15 7 16 10 17 8 18 9 19 18 20 19 22 20 23 24 24
REMARK SMILES IDX 21 25 23 26 22 27
REMARK H PARENT 3 10 18 21
ROOT
ATOM      1  C   UNL     1       3.391  44.547  53.118  1.00  0.00     0.042 A 
ATOM      2  C   UNL     1       3.416  43.483  52.198  1.00  0.00     0.014 A 
ATOM      3  C   UNL     1       2.229  42.996  51.647  1.00  0.00     0.003 A 
ATOM      4  C   UNL     1       1.005  43.566  52.002  1.00  0.00     0.026 A 
ATOM      5  C   UNL     1       0.956  44.634  52.906  1.00  0.00     0.039 A 
ATOM      6  C   UNL     1       2.151  45.104  53.480  1.00  0.00     0.039 A 
ENDROOT
BRANCH   1   7
ATOM      7  C   UNL     1       4.642  45.058  53.729  1.00  0.00     0.258 C 
ATOM      8  O   UNL     1       5.208  44.381  54.632  1.00  0.00    -0.269 OA
ATOM      9  N   UNL     1       5.198  46.323  53.329  1.00  0.00    -0.290 N 
ATOM     10  H   UNL     1       4.597  46.984  52.792  1.00  0.00     0.173 HD
BRANCH   9  11
ATOM     11  C   UNL     1       6.526  46.744  53.676  1.00  0.00     0.235 A 
ATOM     12  N   UNL     1       6.855  47.370  54.829  1.00  0.00    -0.111 NA
ATOM     13  N   UNL     1       7.613  46.545  52.912  1.00  0.00    -0.269 N 
ATOM     14  N   UNL     1       8.168  47.583  54.804  1.00  0.00    -0.128 NA
ATOM     15  C   UNL     1       7.794  45.968  51.696  1.00  0.00     0.096 A 
ATOM     16  C   UNL     1       8.608  47.076  53.636  1.00  0.00     0.162 A 
ATOM     17  C   UNL     1       9.097  45.929  51.175  1.00  0.00     0.019 A 
ATOM     18  C   UNL     1       9.922  47.067  53.174  1.00  0.00     0.050 A 
ATOM     19  C   UNL     1      10.160  46.481  51.919  1.00  0.00     0.005 A 
ENDBRANCH   9  11
ENDBRANCH   1   7
BRANCH   5  20
ATOM     20  N   UNL     1      -0.319  45.186  53.279  1.00  0.00    -0.356 N 
ATOM     21  H   UNL     1      -0.743  45.902  52.646  1.00  0.00     0.167 HD
BRANCH  20  22
ATOM     22  C   UNL     1      -1.047  44.821  54.464  1.00  0.00     0.038 A 
ATOM     23  C   UNL     1      -0.439  44.967  55.721  1.00  0.00     0.026 A 
ATOM     24  C   UNL     1      -2.335  44.259  54.387  1.00  0.00     0.026 A 
ATOM     25  C   UNL     1      -1.120  44.594  56.884  1.00  0.00     0.002 A 
ATOM     26  C   UNL     1      -3.013  43.887  55.552  1.00  0.00     0.002 A 
ATOM     27  C   UNL     1      -2.407  44.058  56.799  1.00  0.00     0.000 A 
ENDBRANCH  20  22
ENDBRANCH   5  20
TORSDOF 4
ENDMDL
