MODEL 1
REMARK VINA RESULT:    -8.708      0.000      0.000
REMARK INTER + INTRA:         -12.433
REMARK INTER:                 -11.762
REMARK INTRA:                  -0.671
REMARK UNBOUND:                -0.671
REMARK SMILES CN(C)C(=O)[C@H](NC(=O)Cc1csc(N2CCCNC2=O)n1)c1ccccc1
REMARK SMILES IDX 7 1 8 2 9 3 6 5 4 6 2 7 5 8 1 9 3 10 23 11 24 12 28 13 25 14
REMARK SMILES IDX 27 15 26 16 10 17 11 18 12 19 22 20 13 21 14 22 15 23 16 24
REMARK SMILES IDX 20 25 17 26 19 27 21 28 18 29
REMARK H PARENT 7 4 19 30
ROOT
ATOM      1  N   UNL     1       2.759  45.087  51.438  1.00  0.00    -0.340 N 
ATOM      2  C   UNL     1       2.099  46.091  52.221  1.00  0.00     0.226 C 
ATOM      3  O   UNL     1       0.977  45.855  52.745  1.00  0.00    -0.275 OA
ATOM      4  H   UNL     1       3.581  45.391  50.866  1.00  0.00     0.164 HD
ENDROOT
BRANCH   1   5
ATOM      5  C   UNL     1       2.645  43.667  51.779  1.00  0.00     0.202 C 
BRANCH   5   6
ATOM      6  C   UNL     1       1.279  43.117  51.406  1.00  0.00     0.249 C 
ATOM      7  N   UNL     1       0.383  42.567  52.399  1.00  0.00    -0.347 N 
ATOM      8  O   UNL     1       0.933  43.111  50.192  1.00  0.00    -0.272 OA
ATOM      9  C   UNL     1       0.718  42.597  53.828  1.00  0.00     0.146 C 
ATOM     10  C   UNL     1      -0.884  41.974  51.958  1.00  0.00     0.146 C 
ENDBRANCH   5   6
BRANCH   5  11
ATOM     11  C   UNL     1       3.756  42.909  51.083  1.00  0.00    -0.016 A 
ATOM     12  C   UNL     1       5.015  43.513  50.911  1.00  0.00     0.006 A 
ATOM     13  C   UNL     1       3.524  41.644  50.512  1.00  0.00     0.006 A 
ATOM     14  C   UNL     1       6.029  42.848  50.219  1.00  0.00     0.000 A 
ATOM     15  C   UNL     1       4.544  40.979  49.828  1.00  0.00     0.000 A 
ATOM     16  C   UNL     1       5.797  41.578  49.684  1.00  0.00     0.000 A 
ENDBRANCH   5  11
ENDBRANCH   1   5
BRANCH   2  17
ATOM     17  C   UNL     1       2.784  47.391  52.495  1.00  0.00     0.157 C 
BRANCH  17  18
ATOM     18  C   UNL     1       4.058  47.124  53.234  1.00  0.00     0.063 A 
ATOM     19  C   UNL     1       4.093  46.689  54.557  1.00  0.00     0.093 A 
ATOM     20  N   UNL     1       5.267  47.175  52.610  1.00  0.00    -0.224 NA
ATOM     21  S   UNL     1       5.697  46.384  54.953  1.00  0.00    -0.105 S 
ATOM     22  C   UNL     1       6.279  46.807  53.427  1.00  0.00     0.193 A 
BRANCH  22  23
ATOM     23  N   UNL     1       7.664  46.760  53.019  1.00  0.00    -0.270 N 
ATOM     24  C   UNL     1       8.027  46.022  51.796  1.00  0.00     0.132 C 
ATOM     25  C   UNL     1       8.710  47.294  53.862  1.00  0.00     0.323 C 
ATOM     26  C   UNL     1       9.376  46.476  51.229  1.00  0.00     0.043 C 
ATOM     27  N   UNL     1      10.080  47.180  53.462  1.00  0.00    -0.338 N 
ATOM     28  O   UNL     1       8.437  47.879  54.944  1.00  0.00    -0.248 OA
ATOM     29  C   UNL     1      10.460  46.387  52.300  1.00  0.00     0.119 C 
ATOM     30  H   UNL     1      10.829  47.585  54.068  1.00  0.00     0.165 HD
ENDBRANCH  22  23
ENDBRANCH  17  18
ENDBRANCH   2  17
TORSDOF 6
ENDMDL
MODEL 2
REMARK VINA RESULT:    -8.699      3.042      6.565
REMARK INTER + INTRA:         -12.421
REMARK INTER:                 -11.272
REMARK INTRA:                  -1.148
REMARK UNBOUND:                -0.671
REMARK SMILES CN(C)C(=O)[C@H](NC(=O)Cc1csc(N2CCCNC2=O)n1)c1ccccc1
REMARK SMILES IDX 7 1 8 2 9 3 6 5 4 6 2 7 5 8 1 9 3 10 23 11 24 12 28 13 25 14
REMARK SMILES IDX 27 15 26 16 10 17 11 18 12 19 22 20 13 21 14 22 15 23 16 24
REMARK SMILES IDX 20 25 17 26 19 27 21 28 18 29
REMARK H PARENT 7 4 19 30
ROOT
ATOM      1  N   UNL     1       4.305  45.319  52.020  1.00  0.00    -0.340 N 
ATOM      2  C   UNL     1       3.219  45.680  51.155  1.00  0.00     0.226 C 
ATOM      3  O   UNL     1       3.189  46.817  50.610  1.00  0.00    -0.275 OA
ATOM      4  H   UNL     1       4.188  44.455  52.598  1.00  0.00     0.164 HD
ENDROOT
BRANCH   1   5
ATOM      5  C   UNL     1       5.666  45.798  51.765  1.00  0.00     0.202 C 
BRANCH   5   6
ATOM      6  C   UNL     1       6.457  45.928  53.055  1.00  0.00     0.249 C 
ATOM      7  N   UNL     1       7.412  46.995  53.257  1.00  0.00    -0.347 N 
ATOM      8  O   UNL     1       6.297  45.064  53.960  1.00  0.00    -0.272 OA
ATOM      9  C   UNL     1       7.596  48.053  52.256  1.00  0.00     0.146 C 
ATOM     10  C   UNL     1       8.205  47.011  54.491  1.00  0.00     0.146 C 
ENDBRANCH   5   6
BRANCH   5  11
ATOM     11  C   UNL     1       6.340  44.850  50.795  1.00  0.00    -0.016 A 
ATOM     12  C   UNL     1       5.789  43.576  50.563  1.00  0.00     0.006 A 
ATOM     13  C   UNL     1       7.569  45.180  50.194  1.00  0.00     0.006 A 
ATOM     14  C   UNL     1       6.433  42.672  49.716  1.00  0.00     0.000 A 
ATOM     15  C   UNL     1       8.205  44.275  49.341  1.00  0.00     0.000 A 
ATOM     16  C   UNL     1       7.637  43.023  49.099  1.00  0.00     0.000 A 
ENDBRANCH   5  11
ENDBRANCH   1   5
BRANCH   2  17
ATOM     17  C   UNL     1       2.166  44.673  50.822  1.00  0.00     0.157 C 
BRANCH  17  18
ATOM     18  C   UNL     1       1.418  44.320  52.070  1.00  0.00     0.063 A 
ATOM     19  C   UNL     1       0.751  43.109  52.239  1.00  0.00     0.093 A 
ATOM     20  N   UNL     1       1.450  45.122  53.170  1.00  0.00    -0.224 NA
ATOM     21  S   UNL     1       0.166  43.063  53.814  1.00  0.00    -0.105 S 
ATOM     22  C   UNL     1       0.792  44.577  54.217  1.00  0.00     0.193 A 
BRANCH  22  23
ATOM     23  N   UNL     1       0.679  45.209  55.511  1.00  0.00    -0.270 N 
ATOM     24  C   UNL     1      -0.657  45.572  56.018  1.00  0.00     0.132 C 
ATOM     25  C   UNL     1       1.853  45.625  56.245  1.00  0.00     0.323 C 
ATOM     26  C   UNL     1      -0.668  45.741  57.541  1.00  0.00     0.043 C 
ATOM     27  N   UNL     1       1.711  46.304  57.497  1.00  0.00    -0.338 N 
ATOM     28  O   UNL     1       3.010  45.383  55.810  1.00  0.00    -0.248 OA
ATOM     29  C   UNL     1       0.403  46.738  57.973  1.00  0.00     0.119 C 
ATOM     30  H   UNL     1       2.565  46.584  58.031  1.00  0.00     0.165 HD
ENDBRANCH  22  23
ENDBRANCH  17  18
ENDBRANCH   2  17
TORSDOF 6
ENDMDL
MODEL 3
REMARK VINA RESULT:    -8.582      2.198      7.565
REMARK INTER + INTRA:         -12.262
REMARK INTER:                 -11.575
REMARK INTRA:                  -0.688
REMARK UNBOUND:                -0.671
REMARK SMILES CN(C)C(=O)[C@H](NC(=O)Cc1csc(N2CCCNC2=O)n1)c1ccccc1
REMARK SMILES IDX 7 1 8 2 9 3 6 5 4 6 2 7 5 8 1 9 3 10 23 11 24 12 28 13 25 14
REMARK SMILES IDX 27 15 26 16 10 17 11 18 12 19 22 20 13 21 14 22 15 23 16 24
REMARK SMILES IDX 20 25 17 26 19 27 21 28 18 29
REMARK H PARENT 7 4 19 30
ROOT
ATOM      1  N   UNL     1       4.932  46.077  52.181  1.00  0.00    -0.340 N 
ATOM      2  C   UNL     1       4.216  47.148  52.811  1.00  0.00     0.226 C 
ATOM      3  O   UNL     1       4.820  47.969  53.552  1.00  0.00    -0.275 OA
ATOM      4  H   UNL     1       4.364  45.315  51.744  1.00  0.00     0.164 HD
ENDROOT
BRANCH   1   5
ATOM      5  C   UNL     1       6.312  46.256  51.723  1.00  0.00     0.202 C 
BRANCH   5   6
ATOM      6  C   UNL     1       7.271  46.379  52.895  1.00  0.00     0.249 C 
ATOM      7  N   UNL     1       8.277  47.417  52.949  1.00  0.00    -0.347 N 
ATOM      8  O   UNL     1       7.207  45.532  53.829  1.00  0.00    -0.272 OA
ATOM      9  C   UNL     1       8.358  48.454  51.913  1.00  0.00     0.146 C 
ATOM     10  C   UNL     1       9.227  47.424  54.066  1.00  0.00     0.146 C 
ENDBRANCH   5   6
BRANCH   5  11
ATOM     11  C   UNL     1       6.680  45.094  50.825  1.00  0.00    -0.016 A 
ATOM     12  C   UNL     1       7.897  45.112  50.120  1.00  0.00     0.006 A 
ATOM     13  C   UNL     1       5.779  44.035  50.603  1.00  0.00     0.006 A 
ATOM     14  C   UNL     1       8.221  44.073  49.244  1.00  0.00     0.000 A 
ATOM     15  C   UNL     1       6.112  42.995  49.732  1.00  0.00     0.000 A 
ATOM     16  C   UNL     1       7.333  43.011  49.055  1.00  0.00     0.000 A 
ENDBRANCH   5  11
ENDBRANCH   1   5
BRANCH   2  17
ATOM     17  C   UNL     1       2.765  47.350  52.514  1.00  0.00     0.157 C 
BRANCH  17  18
ATOM     18  C   UNL     1       2.005  46.137  52.953  1.00  0.00     0.063 A 
ATOM     19  C   UNL     1       2.315  45.423  54.107  1.00  0.00     0.093 A 
ATOM     20  N   UNL     1       0.880  45.729  52.305  1.00  0.00    -0.224 NA
ATOM     21  S   UNL     1       1.146  44.231  54.301  1.00  0.00    -0.105 S 
ATOM     22  C   UNL     1       0.292  44.676  52.916  1.00  0.00     0.193 A 
BRANCH  22  23
ATOM     23  N   UNL     1      -0.923  44.051  52.446  1.00  0.00    -0.270 N 
ATOM     24  C   UNL     1      -2.143  44.146  53.267  1.00  0.00     0.132 C 
ATOM     25  C   UNL     1      -0.925  43.212  51.268  1.00  0.00     0.323 C 
ATOM     26  C   UNL     1      -3.411  43.906  52.442  1.00  0.00     0.043 C 
ATOM     27  N   UNL     1      -2.129  42.555  50.859  1.00  0.00    -0.338 N 
ATOM     28  O   UNL     1       0.118  43.061  50.577  1.00  0.00    -0.248 OA
ATOM     29  C   UNL     1      -3.319  42.577  51.699  1.00  0.00     0.119 C 
ATOM     30  H   UNL     1      -2.126  41.967  49.995  1.00  0.00     0.165 HD
ENDBRANCH  22  23
ENDBRANCH  17  18
ENDBRANCH   2  17
TORSDOF 6
ENDMDL
MODEL 4
REMARK VINA RESULT:    -8.459      2.156      4.320
REMARK INTER + INTRA:         -12.096
REMARK INTER:                 -11.319
REMARK INTRA:                  -0.777
REMARK UNBOUND:                -0.671
REMARK SMILES CN(C)C(=O)[C@H](NC(=O)Cc1csc(N2CCCNC2=O)n1)c1ccccc1
REMARK SMILES IDX 7 1 8 2 9 3 6 5 4 6 2 7 5 8 1 9 3 10 23 11 24 12 28 13 25 14
REMARK SMILES IDX 27 15 26 16 10 17 11 18 12 19 22 20 13 21 14 22 15 23 16 24
REMARK SMILES IDX 20 25 17 26 19 27 21 28 18 29
REMARK H PARENT 7 4 19 30
ROOT
ATOM      1  N   UNL     1       1.917  42.617  52.801  1.00  0.00    -0.340 N 
ATOM      2  C   UNL     1       2.612  42.472  51.555  1.00  0.00     0.226 C 
ATOM      3  O   UNL     1       1.971  42.383  50.474  1.00  0.00    -0.275 OA
ATOM      4  H   UNL     1       2.474  42.486  53.677  1.00  0.00     0.164 HD
ENDROOT
BRANCH   1   5
ATOM      5  C   UNL     1       0.669  43.379  52.886  1.00  0.00     0.202 C 
BRANCH   5   6
ATOM      6  C   UNL     1      -0.536  42.500  52.598  1.00  0.00     0.249 C 
ATOM      7  N   UNL     1      -1.595  42.928  51.710  1.00  0.00    -0.347 N 
ATOM      8  O   UNL     1      -0.629  41.381  53.175  1.00  0.00    -0.272 OA
ATOM      9  C   UNL     1      -1.509  44.197  50.977  1.00  0.00     0.146 C 
ATOM     10  C   UNL     1      -2.771  42.067  51.545  1.00  0.00     0.146 C 
ENDBRANCH   5   6
BRANCH   5  11
ATOM     11  C   UNL     1       0.578  44.010  54.259  1.00  0.00    -0.016 A 
ATOM     12  C   UNL     1      -0.676  44.163  54.879  1.00  0.00     0.006 A 
ATOM     13  C   UNL     1       1.719  44.542  54.889  1.00  0.00     0.006 A 
ATOM     14  C   UNL     1      -0.778  44.797  56.119  1.00  0.00     0.000 A 
ATOM     15  C   UNL     1       1.613  45.167  56.134  1.00  0.00     0.000 A 
ATOM     16  C   UNL     1       0.366  45.292  56.751  1.00  0.00     0.000 A 
ENDBRANCH   5  11
ENDBRANCH   1   5
BRANCH   2  17
ATOM     17  C   UNL     1       4.106  42.519  51.527  1.00  0.00     0.157 C 
BRANCH  17  18
ATOM     18  C   UNL     1       4.551  43.943  51.651  1.00  0.00     0.063 A 
ATOM     19  C   UNL     1       3.683  45.024  51.523  1.00  0.00     0.093 A 
ATOM     20  N   UNL     1       5.822  44.262  52.021  1.00  0.00    -0.224 NA
ATOM     21  S   UNL     1       4.552  46.422  51.864  1.00  0.00    -0.105 S 
ATOM     22  C   UNL     1       5.991  45.595  52.169  1.00  0.00     0.193 A 
BRANCH  22  23
ATOM     23  N   UNL     1       7.238  46.207  52.566  1.00  0.00    -0.270 N 
ATOM     24  C   UNL     1       8.384  46.167  51.640  1.00  0.00     0.132 C 
ATOM     25  C   UNL     1       7.425  46.721  53.904  1.00  0.00     0.323 C 
ATOM     26  C   UNL     1       9.416  47.254  51.956  1.00  0.00     0.043 C 
ATOM     27  N   UNL     1       8.690  47.268  54.290  1.00  0.00    -0.338 N 
ATOM     28  O   UNL     1       6.482  46.715  54.740  1.00  0.00    -0.248 OA
ATOM     29  C   UNL     1       9.851  47.165  53.416  1.00  0.00     0.119 C 
ATOM     30  H   UNL     1       8.812  47.655  55.254  1.00  0.00     0.165 HD
ENDBRANCH  22  23
ENDBRANCH  17  18
ENDBRANCH   2  17
TORSDOF 6
ENDMDL
MODEL 5
REMARK VINA RESULT:    -8.198      2.494      4.472
REMARK INTER + INTRA:         -11.744
REMARK INTER:                 -10.282
REMARK INTRA:                  -1.463
REMARK UNBOUND:                -0.671
REMARK SMILES CN(C)C(=O)[C@H](NC(=O)Cc1csc(N2CCCNC2=O)n1)c1ccccc1
REMARK SMILES IDX 7 1 8 2 9 3 6 5 4 6 2 7 5 8 1 9 3 10 23 11 24 12 28 13 25 14
REMARK SMILES IDX 27 15 26 16 10 17 11 18 12 19 22 20 13 21 14 22 15 23 16 24
REMARK SMILES IDX 20 25 17 26 19 27 21 28 18 29
REMARK H PARENT 7 4 19 30
ROOT
ATOM      1  N   UNL     1       3.011  42.885  52.689  1.00  0.00    -0.340 N 
ATOM      2  C   UNL     1       3.088  42.355  51.358  1.00  0.00     0.226 C 
ATOM      3  O   UNL     1       2.232  42.681  50.492  1.00  0.00    -0.275 OA
ATOM      4  H   UNL     1       3.615  42.437  53.416  1.00  0.00     0.164 HD
ENDROOT
BRANCH   1   5
ATOM      5  C   UNL     1       2.533  44.248  52.933  1.00  0.00     0.202 C 
BRANCH   5   6
ATOM      6  C   UNL     1       1.196  44.244  53.653  1.00  0.00     0.249 C 
ATOM      7  N   UNL     1      -0.034  44.591  52.975  1.00  0.00    -0.347 N 
ATOM      8  O   UNL     1       1.164  43.962  54.883  1.00  0.00    -0.272 OA
ATOM      9  C   UNL     1      -0.056  44.877  51.536  1.00  0.00     0.146 C 
ATOM     10  C   UNL     1      -1.277  44.652  53.752  1.00  0.00     0.146 C 
ENDBRANCH   5   6
BRANCH   5  11
ATOM     11  C   UNL     1       3.586  44.996  53.723  1.00  0.00    -0.016 A 
ATOM     12  C   UNL     1       3.437  46.375  53.958  1.00  0.00     0.006 A 
ATOM     13  C   UNL     1       4.767  44.357  54.144  1.00  0.00     0.006 A 
ATOM     14  C   UNL     1       4.429  47.088  54.635  1.00  0.00     0.000 A 
ATOM     15  C   UNL     1       5.753  45.073  54.828  1.00  0.00     0.000 A 
ATOM     16  C   UNL     1       5.584  46.436  55.077  1.00  0.00     0.000 A 
ENDBRANCH   5  11
ENDBRANCH   1   5
BRANCH   2  17
ATOM     17  C   UNL     1       4.239  41.485  50.968  1.00  0.00     0.157 C 
BRANCH  17  18
ATOM     18  C   UNL     1       5.353  42.348  50.465  1.00  0.00     0.063 A 
ATOM     19  C   UNL     1       5.967  42.154  49.230  1.00  0.00     0.093 A 
ATOM     20  N   UNL     1       5.754  43.460  51.142  1.00  0.00    -0.224 NA
ATOM     21  S   UNL     1       7.061  43.409  48.999  1.00  0.00    -0.105 S 
ATOM     22  C   UNL     1       6.703  44.150  50.472  1.00  0.00     0.193 A 
BRANCH  22  23
ATOM     23  N   UNL     1       7.297  45.375  50.956  1.00  0.00    -0.270 N 
ATOM     24  C   UNL     1       6.419  46.464  51.421  1.00  0.00     0.132 C 
ATOM     25  C   UNL     1       8.721  45.607  50.855  1.00  0.00     0.323 C 
ATOM     26  C   UNL     1       7.153  47.439  52.348  1.00  0.00     0.043 C 
ATOM     27  N   UNL     1       9.276  46.853  51.287  1.00  0.00    -0.338 N 
ATOM     28  O   UNL     1       9.493  44.718  50.406  1.00  0.00    -0.248 OA
ATOM     29  C   UNL     1       8.416  47.965  51.673  1.00  0.00     0.119 C 
ATOM     30  H   UNL     1      10.308  47.006  51.228  1.00  0.00     0.165 HD
ENDBRANCH  22  23
ENDBRANCH  17  18
ENDBRANCH   2  17
TORSDOF 6
ENDMDL
