ligand_1_conformer_1_docked
     RDKit          3D

 54 58  0  0  0  0  0  0  0  0999 V2000
    3.5130   40.4880   50.1550 O   0  0  0  0  0  0  0  0  0  0  0  0
    3.7800   41.6690   50.5060 C   0  0  0  0  0  0  0  0  0  0  0  0
    2.7520   42.4490   51.2260 C   0  0  0  0  0  0  0  0  0  0  0  0
    2.8710   42.6540   52.6240 C   0  0  0  0  0  0  0  0  0  0  0  0
    1.9100   43.4050   53.3260 C   0  0  0  0  0  0  0  0  0  0  0  0
    0.8340   43.9320   52.6080 C   0  0  0  0  0  0  0  0  0  0  0  0
    0.7460   43.7700   51.2520 C   0  0  0  0  0  0  0  0  0  0  0  0
    1.6840   43.0450   50.5230 C   0  0  0  0  0  0  0  0  0  0  0  0
   -0.3040   44.4570   50.7810 N   0  0  0  0  0  0  0  0  0  0  0  0
   -0.8390   45.0330   51.8820 C   0  0  0  0  0  0  0  0  0  0  0  0
   -1.8150   45.8260   51.8120 O   0  0  0  0  0  0  0  0  0  0  0  0
   -0.1910   44.7070   53.0420 N   0  0  0  0  0  0  0  0  0  0  0  0
   -0.4180   45.1780   54.4290 C   0  0  0  0  0  0  0  0  0  0  0  0
   -1.2000   44.2030   55.3080 C   0  0  0  0  0  0  0  0  0  0  0  0
   -0.8420   44.6000   56.7270 C   0  0  0  0  0  0  0  0  0  0  0  0
    0.6100   45.0520   56.6590 C   0  0  0  0  0  0  0  0  0  0  0  0
    0.8960   45.3900   55.1940 C   0  0  0  0  0  0  0  0  0  0  0  0
    5.0700   42.2260   50.1980 N   0  0  0  0  0  0  0  0  0  0  0  0
    5.7880   41.9120   48.9750 C   0  0  0  0  0  0  0  0  0  0  0  0
    6.8630   42.9820   48.8360 C   0  0  0  0  0  0  0  0  0  0  0  0
    6.9780   43.6470   50.2090 C   0  0  1  0  0  0  0  0  0  0  0  0
    7.1780   45.0550   50.0610 O   0  0  0  0  0  0  0  0  0  0  0  0
    7.6200   45.9240   51.0720 C   0  0  0  0  0  0  0  0  0  0  0  0
    6.6640   46.6930   51.7510 C   0  0  0  0  0  0  0  0  0  0  0  0
    7.0490   47.5710   52.7700 C   0  0  0  0  0  0  0  0  0  0  0  0
    8.3960   47.6870   53.1200 C   0  0  0  0  0  0  0  0  0  0  0  0
    9.3610   46.9280   52.4490 C   0  0  0  0  0  0  0  0  0  0  0  0
   10.6670   47.0450   52.7900 F   0  0  0  0  0  0  0  0  0  0  0  0
    8.9790   46.0520   51.4270 C   0  0  0  0  0  0  0  0  0  0  0  0
    5.6630   43.3390   50.9250 C   0  0  0  0  0  0  0  0  0  0  0  0
    3.7245   42.2209   53.1662 H   0  0  0  0  0  0  0  0  0  0  0  0
    2.0035   43.5722   54.4092 H   0  0  0  0  0  0  0  0  0  0  0  0
    1.5953   42.9399   49.4316 H   0  0  0  0  0  0  0  0  0  0  0  0
   -0.6090   44.5630   49.7880 H   0  0  0  0  0  0  0  0  0  0  0  0
   -0.9837   46.1083   54.2722 H   0  0  0  0  0  0  0  0  0  0  0  0
   -2.2816   44.3065   55.1364 H   0  0  0  0  0  0  0  0  0  0  0  0
   -0.9514   43.1534   55.0920 H   0  0  0  0  0  0  0  0  0  0  0  0
   -1.4864   45.4220   57.0721 H   0  0  0  0  0  0  0  0  0  0  0  0
   -0.9820   43.7696   57.4347 H   0  0  0  0  0  0  0  0  0  0  0  0
    0.7606   45.9406   57.2897 H   0  0  0  0  0  0  0  0  0  0  0  0
    1.2872   44.2656   57.0236 H   0  0  0  0  0  0  0  0  0  0  0  0
    1.2233   46.4362   55.1030 H   0  0  0  0  0  0  0  0  0  0  0  0
    1.6969   44.7536   54.7897 H   0  0  0  0  0  0  0  0  0  0  0  0
    6.2473   40.9150   49.0461 H   0  0  0  0  0  0  0  0  0  0  0  0
    5.1161   41.8988   48.1041 H   0  0  0  0  0  0  0  0  0  0  0  0
    7.8222   42.5250   48.5514 H   0  0  0  0  0  0  0  0  0  0  0  0
    6.6048   43.7127   48.0554 H   0  0  0  0  0  0  0  0  0  0  0  0
    7.8369   43.2706   50.7840 H   0  0  0  0  0  0  0  0  0  0  0  0
    5.6015   46.6051   51.4800 H   0  0  0  0  0  0  0  0  0  0  0  0
    6.2907   48.1700   53.2955 H   0  0  0  0  0  0  0  0  0  0  0  0
    8.6983   48.3751   53.9232 H   0  0  0  0  0  0  0  0  0  0  0  0
    9.7414   45.4609   50.8984 H   0  0  0  0  0  0  0  0  0  0  0  0
    5.8529   43.0563   51.9709 H   0  0  0  0  0  0  0  0  0  0  0  0
    4.9960   44.2135   50.9431 H   0  0  0  0  0  0  0  0  0  0  0  0
  1  2  2  0
  2  3  1  0
  3  4  2  0
  4  5  1  0
  5  6  2  0
  6  7  1  0
  7  8  2  0
  7  9  1  0
  9 10  1  0
 10 11  2  0
 10 12  1  0
 12 13  1  0
 13 14  1  0
 14 15  1  0
 15 16  1  0
 16 17  1  0
  2 18  1  0
 18 19  1  0
 19 20  1  0
 20 21  1  0
 21 22  1  0
 22 23  1  0
 23 24  2  0
 24 25  1  0
 25 26  2  0
 26 27  1  0
 27 28  1  0
 27 29  2  0
 21 30  1  0
  8  3  1  0
 17 13  1  0
 30 18  1  0
 12  6  1  0
 29 23  1  0
  4 31  1  0
  5 32  1  0
  8 33  1  0
  9 34  1  0
 13 35  1  0
 14 36  1  0
 14 37  1  0
 15 38  1  0
 15 39  1  0
 16 40  1  0
 16 41  1  0
 17 42  1  0
 17 43  1  0
 19 44  1  0
 19 45  1  0
 20 46  1  0
 20 47  1  0
 21 48  1  1
 24 49  1  0
 25 50  1  0
 26 51  1  0
 29 52  1  0
 30 53  1  0
 30 54  1  0
M  END
>  <meeko>  (1) 
{"is_sidechain": [false], "free_energy": -9.576, "intermolecular_energy": -12.376, "internal_energy": -0.281}

$$$$
ligand_1_conformer_1_docked
     RDKit          3D

 54 58  0  0  0  0  0  0  0  0999 V2000
    2.6150   41.9420   52.0470 O   0  0  0  0  0  0  0  0  0  0  0  0
    2.7840   43.1820   52.2060 C   0  0  0  0  0  0  0  0  0  0  0  0
    4.0770   43.7810   51.8200 C   0  0  0  0  0  0  0  0  0  0  0  0
    4.6040   44.8670   52.5650 C   0  0  0  0  0  0  0  0  0  0  0  0
    5.8410   45.4430   52.2220 C   0  0  0  0  0  0  0  0  0  0  0  0
    6.5270   44.9220   51.1220 C   0  0  0  0  0  0  0  0  0  0  0  0
    6.0380   43.8450   50.4330 C   0  0  0  0  0  0  0  0  0  0  0  0
    4.8250   43.2420   50.7520 C   0  0  0  0  0  0  0  0  0  0  0  0
    6.9220   43.4630   49.5020 N   0  0  0  0  0  0  0  0  0  0  0  0
    7.9500   44.3310   49.6510 C   0  0  0  0  0  0  0  0  0  0  0  0
    9.0110   44.2290   48.9810 O   0  0  0  0  0  0  0  0  0  0  0  0
    7.7350   45.2750   50.6170 N   0  0  0  0  0  0  0  0  0  0  0  0
    8.6280   46.3430   51.1260 C   0  0  0  0  0  0  0  0  0  0  0  0
    7.9360   47.3800   52.0100 C   0  0  0  0  0  0  0  0  0  0  0  0
    9.0580   47.9960   52.8230 C   0  0  0  0  0  0  0  0  0  0  0  0
   10.0370   46.8590   53.0740 C   0  0  0  0  0  0  0  0  0  0  0  0
    9.7480   45.7890   52.0180 C   0  0  0  0  0  0  0  0  0  0  0  0
    1.7180   43.9770   52.7560 N   0  0  0  0  0  0  0  0  0  0  0  0
    0.4150   44.0860   52.1240 C   0  0  0  0  0  0  0  0  0  0  0  0
   -0.5190   44.6460   53.1900 C   0  0  0  0  0  0  0  0  0  0  0  0
    0.3830   45.2160   54.2860 C   0  0  1  0  0  0  0  0  0  0  0  0
   -0.1740   44.9450   55.5750 O   0  0  0  0  0  0  0  0  0  0  0  0
   -0.1580   45.8260   56.6680 C   0  0  0  0  0  0  0  0  0  0  0  0
   -1.3080   46.5860   56.9250 C   0  0  0  0  0  0  0  0  0  0  0  0
   -1.3490   47.4750   58.0040 C   0  0  0  0  0  0  0  0  0  0  0  0
   -0.2360   47.6110   58.8390 C   0  0  0  0  0  0  0  0  0  0  0  0
    0.9180   46.8620   58.5930 C   0  0  0  0  0  0  0  0  0  0  0  0
    1.9960   46.9980   59.4030 F   0  0  0  0  0  0  0  0  0  0  0  0
    0.9630   45.9740   57.5120 C   0  0  0  0  0  0  0  0  0  0  0  0
    1.7350   44.5270   54.1030 C   0  0  0  0  0  0  0  0  0  0  0  0
    4.0387   45.2636   53.4212 H   0  0  0  0  0  0  0  0  0  0  0  0
    6.2561   46.2796   52.8032 H   0  0  0  0  0  0  0  0  0  0  0  0
    4.4602   42.3708   50.1881 H   0  0  0  0  0  0  0  0  0  0  0  0
    6.8560   42.6530   48.8470 H   0  0  0  0  0  0  0  0  0  0  0  0
    8.9987   46.8014   50.1973 H   0  0  0  0  0  0  0  0  0  0  0  0
    7.4367   48.1436   51.3955 H   0  0  0  0  0  0  0  0  0  0  0  0
    7.1558   46.9345   52.6446 H   0  0  0  0  0  0  0  0  0  0  0  0
    9.5436   48.8061   52.2591 H   0  0  0  0  0  0  0  0  0  0  0  0
    8.6918   48.4388   53.7610 H   0  0  0  0  0  0  0  0  0  0  0  0
   11.0712   47.2203   52.9746 H   0  0  0  0  0  0  0  0  0  0  0  0
    9.9210   46.4539   54.0901 H   0  0  0  0  0  0  0  0  0  0  0  0
   10.6494   45.5945   51.4183 H   0  0  0  0  0  0  0  0  0  0  0  0
    9.4485   44.8401   52.4869 H   0  0  0  0  0  0  0  0  0  0  0  0
    0.4636   44.7669   51.2615 H   0  0  0  0  0  0  0  0  0  0  0  0
    0.0643   43.1129   51.7497 H   0  0  0  0  0  0  0  0  0  0  0  0
   -1.1516   45.4393   52.7650 H   0  0  0  0  0  0  0  0  0  0  0  0
   -1.1902   43.8692   53.5850 H   0  0  0  0  0  0  0  0  0  0  0  0
    0.4851   46.3090   54.2158 H   0  0  0  0  0  0  0  0  0  0  0  0
   -2.1867   46.4820   56.2715 H   0  0  0  0  0  0  0  0  0  0  0  0
   -2.2563   48.0667   58.1955 H   0  0  0  0  0  0  0  0  0  0  0  0
   -0.2686   48.3076   59.6897 H   0  0  0  0  0  0  0  0  0  0  0  0
    1.8750   45.3898   57.3199 H   0  0  0  0  0  0  0  0  0  0  0  0
    2.5535   45.2541   54.2100 H   0  0  0  0  0  0  0  0  0  0  0  0
    1.8973   43.7445   54.8588 H   0  0  0  0  0  0  0  0  0  0  0  0
  1  2  2  0
  2  3  1  0
  3  4  2  0
  4  5  1  0
  5  6  2  0
  6  7  1  0
  7  8  2  0
  7  9  1  0
  9 10  1  0
 10 11  2  0
 10 12  1  0
 12 13  1  0
 13 14  1  0
 14 15  1  0
 15 16  1  0
 16 17  1  0
  2 18  1  0
 18 19  1  0
 19 20  1  0
 20 21  1  0
 21 22  1  0
 22 23  1  0
 23 24  2  0
 24 25  1  0
 25 26  2  0
 26 27  1  0
 27 28  1  0
 27 29  2  0
 21 30  1  0
  8  3  1  0
 17 13  1  0
 30 18  1  0
 12  6  1  0
 29 23  1  0
  4 31  1  0
  5 32  1  0
  8 33  1  0
  9 34  1  0
 13 35  1  0
 14 36  1  0
 14 37  1  0
 15 38  1  0
 15 39  1  0
 16 40  1  0
 16 41  1  0
 17 42  1  0
 17 43  1  0
 19 44  1  0
 19 45  1  0
 20 46  1  0
 20 47  1  0
 21 48  1  6
 24 49  1  0
 25 50  1  0
 26 51  1  0
 29 52  1  0
 30 53  1  0
 30 54  1  0
M  END
>  <meeko>  (2) 
{"is_sidechain": [false], "free_energy": -9.393, "intermolecular_energy": -12.409, "internal_energy": -0.01}

$$$$
ligand_1_conformer_1_docked
     RDKit          3D

 54 58  0  0  0  0  0  0  0  0999 V2000
    7.0720   47.5370   54.9610 O   0  0  0  0  0  0  0  0  0  0  0  0
    6.6100   46.8800   53.9890 C   0  0  0  0  0  0  0  0  0  0  0  0
    5.2200   46.3870   54.0580 C   0  0  0  0  0  0  0  0  0  0  0  0
    4.7580   45.7340   55.2290 C   0  0  0  0  0  0  0  0  0  0  0  0
    3.4330   45.2700   55.3200 C   0  0  0  0  0  0  0  0  0  0  0  0
    2.5930   45.4590   54.2200 C   0  0  0  0  0  0  0  0  0  0  0  0
    3.0270   46.1290   53.1090 C   0  0  0  0  0  0  0  0  0  0  0  0
    4.3260   46.6140   52.9890 C   0  0  0  0  0  0  0  0  0  0  0  0
    2.0140   46.2810   52.2460 N   0  0  0  0  0  0  0  0  0  0  0  0
    0.9650   45.6930   52.8650 C   0  0  0  0  0  0  0  0  0  0  0  0
   -0.1940   45.7070   52.3730 O   0  0  0  0  0  0  0  0  0  0  0  0
    1.2830   45.1370   54.0740 N   0  0  0  0  0  0  0  0  0  0  0  0
    0.4190   44.4720   55.0780 C   0  0  0  0  0  0  0  0  0  0  0  0
   -0.2650   45.4250   56.0570 C   0  0  0  0  0  0  0  0  0  0  0  0
   -1.4540   44.6440   56.5800 C   0  0  0  0  0  0  0  0  0  0  0  0
   -1.9230   43.7980   55.4060 C   0  0  0  0  0  0  0  0  0  0  0  0
   -0.7470   43.7110   54.4300 C   0  0  0  0  0  0  0  0  0  0  0  0
    7.4440   46.6290   52.8430 N   0  0  0  0  0  0  0  0  0  0  0  0
    8.8730   46.3890   52.9520 C   0  0  0  0  0  0  0  0  0  0  0  0
    9.2930   45.7700   51.6240 C   0  0  0  0  0  0  0  0  0  0  0  0
    8.1500   46.0490   50.6470 C   0  0  1  0  0  0  0  0  0  0  0  0
    7.9420   44.9200   49.7950 O   0  0  0  0  0  0  0  0  0  0  0  0
    7.0020   43.9000   50.0130 C   0  0  0  0  0  0  0  0  0  0  0  0
    7.2960   42.6140   49.5380 C   0  0  0  0  0  0  0  0  0  0  0  0
    6.3980   41.5590   49.7320 C   0  0  0  0  0  0  0  0  0  0  0  0
    5.1940   41.7820   50.4040 C   0  0  0  0  0  0  0  0  0  0  0  0
    4.8840   43.0610   50.8790 C   0  0  0  0  0  0  0  0  0  0  0  0
    3.7140   43.2750   51.5280 F   0  0  0  0  0  0  0  0  0  0  0  0
    5.7800   44.1180   50.6830 C   0  0  0  0  0  0  0  0  0  0  0  0
    6.9250   46.3270   51.5190 C   0  0  0  0  0  0  0  0  0  0  0  0
    5.4440   45.5885   56.0765 H   0  0  0  0  0  0  0  0  0  0  0  0
    3.0689   44.7727   56.2311 H   0  0  0  0  0  0  0  0  0  0  0  0
    4.6466   47.1579   52.0882 H   0  0  0  0  0  0  0  0  0  0  0  0
    2.0200   46.7820   51.3300 H   0  0  0  0  0  0  0  0  0  0  0  0
    1.1298   43.8148   55.6004 H   0  0  0  0  0  0  0  0  0  0  0  0
    0.4158   45.6929   56.8784 H   0  0  0  0  0  0  0  0  0  0  0  0
   -0.5629   46.3707   55.5806 H   0  0  0  0  0  0  0  0  0  0  0  0
   -1.1542   44.0029   57.4221 H   0  0  0  0  0  0  0  0  0  0  0  0
   -2.2491   45.3063   56.9531 H   0  0  0  0  0  0  0  0  0  0  0  0
   -2.2042   42.7923   55.7517 H   0  0  0  0  0  0  0  0  0  0  0  0
   -2.8055   44.2440   54.9240 H   0  0  0  0  0  0  0  0  0  0  0  0
   -0.4685   42.6598   54.2641 H   0  0  0  0  0  0  0  0  0  0  0  0
   -1.0093   44.1443   53.4535 H   0  0  0  0  0  0  0  0  0  0  0  0
    9.4085   47.3351   53.1200 H   0  0  0  0  0  0  0  0  0  0  0  0
    9.1089   45.7282   53.7991 H   0  0  0  0  0  0  0  0  0  0  0  0
   10.2241   46.2324   51.2646 H   0  0  0  0  0  0  0  0  0  0  0  0
    9.4817   44.6910   51.7249 H   0  0  0  0  0  0  0  0  0  0  0  0
    8.3648   46.9014   49.9857 H   0  0  0  0  0  0  0  0  0  0  0  0
    8.2424   42.4328   49.0074 H   0  0  0  0  0  0  0  0  0  0  0  0
    6.6400   40.5542   49.3555 H   0  0  0  0  0  0  0  0  0  0  0  0
    4.4893   40.9518   50.5598 H   0  0  0  0  0  0  0  0  0  0  0  0
    5.5302   45.1233   51.0531 H   0  0  0  0  0  0  0  0  0  0  0  0
    6.3598   47.1841   51.1241 H   0  0  0  0  0  0  0  0  0  0  0  0
    6.2378   45.4683   51.5388 H   0  0  0  0  0  0  0  0  0  0  0  0
  1  2  2  0
  2  3  1  0
  3  4  2  0
  4  5  1  0
  5  6  2  0
  6  7  1  0
  7  8  2  0
  7  9  1  0
  9 10  1  0
 10 11  2  0
 10 12  1  0
 12 13  1  0
 13 14  1  0
 14 15  1  0
 15 16  1  0
 16 17  1  0
  2 18  1  0
 18 19  1  0
 19 20  1  0
 20 21  1  0
 21 22  1  0
 22 23  1  0
 23 24  2  0
 24 25  1  0
 25 26  2  0
 26 27  1  0
 27 28  1  0
 27 29  2  0
 21 30  1  0
  8  3  1  0
 17 13  1  0
 30 18  1  0
 12  6  1  0
 29 23  1  0
  4 31  1  0
  5 32  1  0
  8 33  1  0
  9 34  1  0
 13 35  1  0
 14 36  1  0
 14 37  1  0
 15 38  1  0
 15 39  1  0
 16 40  1  0
 16 41  1  0
 17 42  1  0
 17 43  1  0
 19 44  1  0
 19 45  1  0
 20 46  1  0
 20 47  1  0
 21 48  1  6
 24 49  1  0
 25 50  1  0
 26 51  1  0
 29 52  1  0
 30 53  1  0
 30 54  1  0
M  END
>  <meeko>  (3) 
{"is_sidechain": [false], "free_energy": -9.279, "intermolecular_energy": -12.637, "internal_energy": 0.365}

$$$$
ligand_1_conformer_1_docked
     RDKit          3D

 54 58  0  0  0  0  0  0  0  0999 V2000
    4.3090   43.0170   52.0810 O   0  0  0  0  0  0  0  0  0  0  0  0
    3.6090   43.9050   52.6380 C   0  0  0  0  0  0  0  0  0  0  0  0
    2.1370   43.8070   52.5600 C   0  0  0  0  0  0  0  0  0  0  0  0
    1.5140   43.5070   51.3210 C   0  0  0  0  0  0  0  0  0  0  0  0
    0.1140   43.3950   51.2280 C   0  0  0  0  0  0  0  0  0  0  0  0
   -0.6400   43.5990   52.3870 C   0  0  0  0  0  0  0  0  0  0  0  0
   -0.0340   43.8430   53.5880 C   0  0  0  0  0  0  0  0  0  0  0  0
    1.3480   43.9480   53.7200 C   0  0  0  0  0  0  0  0  0  0  0  0
   -0.9550   43.8890   54.5600 N   0  0  0  0  0  0  0  0  0  0  0  0
   -2.1230   43.6640   53.9150 C   0  0  0  0  0  0  0  0  0  0  0  0
   -3.2160   43.5620   54.5320 O   0  0  0  0  0  0  0  0  0  0  0  0
   -1.9830   43.5150   52.5620 N   0  0  0  0  0  0  0  0  0  0  0  0
   -2.9920   43.1920   51.5270 C   0  0  0  0  0  0  0  0  0  0  0  0
   -2.9180   44.0650   50.2750 C   0  0  0  0  0  0  0  0  0  0  0  0
   -3.6060   43.2470   49.2000 C   0  0  0  0  0  0  0  0  0  0  0  0
   -3.2580   41.8000   49.5170 C   0  0  0  0  0  0  0  0  0  0  0  0
   -2.8350   41.7630   50.9870 C   0  0  0  0  0  0  0  0  0  0  0  0
    4.2560   44.9860   53.3330 N   0  0  0  0  0  0  0  0  0  0  0  0
    4.9720   44.7980   54.5830 C   0  0  0  0  0  0  0  0  0  0  0  0
    5.8340   46.0420   54.7610 C   0  0  0  0  0  0  0  0  0  0  0  0
    5.2730   47.0870   53.7950 C   0  0  1  0  0  0  0  0  0  0  0  0
    6.3380   47.8340   53.2020 O   0  0  0  0  0  0  0  0  0  0  0  0
    7.6730   47.4090   53.1040 C   0  0  0  0  0  0  0  0  0  0  0  0
    8.0850   46.7860   51.9170 C   0  0  0  0  0  0  0  0  0  0  0  0
    9.4050   46.3470   51.7630 C   0  0  0  0  0  0  0  0  0  0  0  0
   10.3260   46.5290   52.7980 C   0  0  0  0  0  0  0  0  0  0  0  0
    9.9280   47.1460   53.9880 C   0  0  0  0  0  0  0  0  0  0  0  0
   10.8230   47.3180   54.9910 F   0  0  0  0  0  0  0  0  0  0  0  0
    8.6070   47.5820   54.1460 C   0  0  0  0  0  0  0  0  0  0  0  0
    4.4910   46.2960   52.7450 C   0  0  0  0  0  0  0  0  0  0  0  0
    2.1321   43.3603   50.4230 H   0  0  0  0  0  0  0  0  0  0  0  0
   -0.3724   43.1540   50.2713 H   0  0  0  0  0  0  0  0  0  0  0  0
    1.8106   44.1354   54.7002 H   0  0  0  0  0  0  0  0  0  0  0  0
   -0.8020   44.0180   55.5850 H   0  0  0  0  0  0  0  0  0  0  0  0
   -3.9384   43.3526   52.0641 H   0  0  0  0  0  0  0  0  0  0  0  0
   -3.4435   45.0182   50.4341 H   0  0  0  0  0  0  0  0  0  0  0  0
   -1.8831   44.3230   50.0059 H   0  0  0  0  0  0  0  0  0  0  0  0
   -4.6948   43.3990   49.2370 H   0  0  0  0  0  0  0  0  0  0  0  0
   -3.2798   43.5370   48.1903 H   0  0  0  0  0  0  0  0  0  0  0  0
   -4.1351   41.1554   49.3583 H   0  0  0  0  0  0  0  0  0  0  0  0
   -2.4525   41.4338   48.8635 H   0  0  0  0  0  0  0  0  0  0  0  0
   -3.4798   41.0720   51.5498 H   0  0  0  0  0  0  0  0  0  0  0  0
   -1.7978   41.4120   51.0917 H   0  0  0  0  0  0  0  0  0  0  0  0
    4.2636   44.7004   55.4189 H   0  0  0  0  0  0  0  0  0  0  0  0
    5.5820   43.8828   54.5656 H   0  0  0  0  0  0  0  0  0  0  0  0
    5.7699   46.4061   55.7970 H   0  0  0  0  0  0  0  0  0  0  0  0
    6.8934   45.8304   54.5541 H   0  0  0  0  0  0  0  0  0  0  0  0
    4.6255   47.8179   54.3015 H   0  0  0  0  0  0  0  0  0  0  0  0
    7.3638   46.6410   51.0992 H   0  0  0  0  0  0  0  0  0  0  0  0
    9.7172   45.8591   50.8279 H   0  0  0  0  0  0  0  0  0  0  0  0
   11.3643   46.1868   52.6766 H   0  0  0  0  0  0  0  0  0  0  0  0
    8.2967   48.0612   55.0863 H   0  0  0  0  0  0  0  0  0  0  0  0
    3.5355   46.7937   52.5230 H   0  0  0  0  0  0  0  0  0  0  0  0
    5.0444   46.2221   51.7972 H   0  0  0  0  0  0  0  0  0  0  0  0
  1  2  2  0
  2  3  1  0
  3  4  2  0
  4  5  1  0
  5  6  2  0
  6  7  1  0
  7  8  2  0
  7  9  1  0
  9 10  1  0
 10 11  2  0
 10 12  1  0
 12 13  1  0
 13 14  1  0
 14 15  1  0
 15 16  1  0
 16 17  1  0
  2 18  1  0
 18 19  1  0
 19 20  1  0
 20 21  1  0
 21 22  1  0
 22 23  1  0
 23 24  2  0
 24 25  1  0
 25 26  2  0
 26 27  1  0
 27 28  1  0
 27 29  2  0
 21 30  1  0
  8  3  1  0
 17 13  1  0
 30 18  1  0
 12  6  1  0
 29 23  1  0
  4 31  1  0
  5 32  1  0
  8 33  1  0
  9 34  1  0
 13 35  1  0
 14 36  1  0
 14 37  1  0
 15 38  1  0
 15 39  1  0
 16 40  1  0
 16 41  1  0
 17 42  1  0
 17 43  1  0
 19 44  1  0
 19 45  1  0
 20 46  1  0
 20 47  1  0
 21 48  1  1
 24 49  1  0
 25 50  1  0
 26 51  1  0
 29 52  1  0
 30 53  1  0
 30 54  1  0
M  END
>  <meeko>  (4) 
{"is_sidechain": [false], "free_energy": -9.245, "intermolecular_energy": -11.733, "internal_energy": -0.496}

$$$$
ligand_1_conformer_1_docked
     RDKit          3D

 54 58  0  0  0  0  0  0  0  0999 V2000
    3.9490   43.3120   52.2750 O   0  0  0  0  0  0  0  0  0  0  0  0
    3.4380   44.1540   53.0620 C   0  0  0  0  0  0  0  0  0  0  0  0
    1.9960   44.0600   53.3670 C   0  0  0  0  0  0  0  0  0  0  0  0
    1.5050   44.5270   54.6140 C   0  0  0  0  0  0  0  0  0  0  0  0
    0.1330   44.4610   54.9180 C   0  0  0  0  0  0  0  0  0  0  0  0
   -0.7270   43.9110   53.9630 C   0  0  0  0  0  0  0  0  0  0  0  0
   -0.2570   43.5030   52.7450 C   0  0  0  0  0  0  0  0  0  0  0  0
    1.0910   43.5670   52.4040 C   0  0  0  0  0  0  0  0  0  0  0  0
   -1.2810   43.1240   51.9680 N   0  0  0  0  0  0  0  0  0  0  0  0
   -2.3710   43.3170   52.7460 C   0  0  0  0  0  0  0  0  0  0  0  0
   -3.5390   43.1310   52.3150 O   0  0  0  0  0  0  0  0  0  0  0  0
   -2.0750   43.7680   54.0030 N   0  0  0  0  0  0  0  0  0  0  0  0
   -2.9740   44.1610   55.1140 C   0  0  0  0  0  0  0  0  0  0  0  0
   -2.5330   43.6660   56.4910 C   0  0  0  0  0  0  0  0  0  0  0  0
   -3.2240   44.5960   57.4680 C   0  0  0  0  0  0  0  0  0  0  0  0
   -3.2510   45.9520   56.7770 C   0  0  0  0  0  0  0  0  0  0  0  0
   -3.0600   45.6850   55.2820 C   0  0  0  0  0  0  0  0  0  0  0  0
    4.2660   45.1790   53.6400 N   0  0  0  0  0  0  0  0  0  0  0  0
    5.1450   44.9310   54.7700 C   0  0  0  0  0  0  0  0  0  0  0  0
    6.1190   46.1020   54.8040 C   0  0  0  0  0  0  0  0  0  0  0  0
    5.5040   47.1900   53.9230 C   0  0  1  0  0  0  0  0  0  0  0  0
    6.5230   47.8510   53.1700 O   0  0  0  0  0  0  0  0  0  0  0  0
    7.7300   47.2690   52.7490 C   0  0  0  0  0  0  0  0  0  0  0  0
    8.8970   47.5690   53.4660 C   0  0  0  0  0  0  0  0  0  0  0  0
   10.1260   47.0130   53.0950 C   0  0  0  0  0  0  0  0  0  0  0  0
   10.1980   46.1490   51.9990 C   0  0  0  0  0  0  0  0  0  0  0  0
    9.0430   45.8440   51.2720 C   0  0  0  0  0  0  0  0  0  0  0  0
    9.1170   45.0080   50.2080 F   0  0  0  0  0  0  0  0  0  0  0  0
    7.8130   46.4020   51.6400 C   0  0  0  0  0  0  0  0  0  0  0  0
    4.5130   46.4670   53.0110 C   0  0  0  0  0  0  0  0  0  0  0  0
    2.2055   44.9455   55.3516 H   0  0  0  0  0  0  0  0  0  0  0  0
   -0.2520   44.8315   55.8795 H   0  0  0  0  0  0  0  0  0  0  0  0
    1.4402   43.2426   51.4126 H   0  0  0  0  0  0  0  0  0  0  0  0
   -1.2490   42.8020   50.9760 H   0  0  0  0  0  0  0  0  0  0  0  0
   -3.9286   43.7021   54.8172 H   0  0  0  0  0  0  0  0  0  0  0  0
   -2.8535   42.6260   56.6513 H   0  0  0  0  0  0  0  0  0  0  0  0
   -1.4393   43.6744   56.6079 H   0  0  0  0  0  0  0  0  0  0  0  0
   -4.2468   44.2478   57.6744 H   0  0  0  0  0  0  0  0  0  0  0  0
   -2.7019   44.6378   58.4353 H   0  0  0  0  0  0  0  0  0  0  0  0
   -4.2165   46.4487   56.9535 H   0  0  0  0  0  0  0  0  0  0  0  0
   -2.4612   46.6113   57.1662 H   0  0  0  0  0  0  0  0  0  0  0  0
   -3.9143   46.0815   54.7138 H   0  0  0  0  0  0  0  0  0  0  0  0
   -2.1512   46.1768   54.9049 H   0  0  0  0  0  0  0  0  0  0  0  0
    4.5653   44.8879   55.7038 H   0  0  0  0  0  0  0  0  0  0  0  0
    5.6710   43.9701   54.6701 H   0  0  0  0  0  0  0  0  0  0  0  0
    6.2403   46.4681   55.8342 H   0  0  0  0  0  0  0  0  0  0  0  0
    7.1151   45.8071   54.4424 H   0  0  0  0  0  0  0  0  0  0  0  0
    5.0001   47.9692   54.5137 H   0  0  0  0  0  0  0  0  0  0  0  0
    8.8457   48.2487   54.3293 H   0  0  0  0  0  0  0  0  0  0  0  0
   11.0347   47.2557   53.6654 H   0  0  0  0  0  0  0  0  0  0  0  0
   11.1632   45.7088   51.7081 H   0  0  0  0  0  0  0  0  0  0  0  0
    6.9080   46.1633   51.0620 H   0  0  0  0  0  0  0  0  0  0  0  0
    3.5775   47.0401   52.9305 H   0  0  0  0  0  0  0  0  0  0  0  0
    4.9097   46.3513   51.9915 H   0  0  0  0  0  0  0  0  0  0  0  0
  1  2  2  0
  2  3  1  0
  3  4  2  0
  4  5  1  0
  5  6  2  0
  6  7  1  0
  7  8  2  0
  7  9  1  0
  9 10  1  0
 10 11  2  0
 10 12  1  0
 12 13  1  0
 13 14  1  0
 14 15  1  0
 15 16  1  0
 16 17  1  0
  2 18  1  0
 18 19  1  0
 19 20  1  0
 20 21  1  0
 21 22  1  0
 22 23  1  0
 23 24  2  0
 24 25  1  0
 25 26  2  0
 26 27  1  0
 27 28  1  0
 27 29  2  0
 21 30  1  0
  8  3  1  0
 17 13  1  0
 30 18  1  0
 12  6  1  0
 29 23  1  0
  4 31  1  0
  5 32  1  0
  8 33  1  0
  9 34  1  0
 13 35  1  0
 14 36  1  0
 14 37  1  0
 15 38  1  0
 15 39  1  0
 16 40  1  0
 16 41  1  0
 17 42  1  0
 17 43  1  0
 19 44  1  0
 19 45  1  0
 20 46  1  0
 20 47  1  0
 21 48  1  1
 24 49  1  0
 25 50  1  0
 26 51  1  0
 29 52  1  0
 30 53  1  0
 30 54  1  0
M  END
>  <meeko>  (5) 
{"is_sidechain": [false], "free_energy": -9.175, "intermolecular_energy": -11.556, "internal_energy": -0.582}

$$$$
