ligand_79_conformer_2_docked
     RDKit          3D

 45 47  0  0  0  0  0  0  0  0999 V2000
    5.4730   44.9580   55.6980 C   0  0  0  0  0  0  0  0  0  0  0  0
    4.8660   46.0420   54.8030 C   0  0  1  0  0  0  0  0  0  0  0  0
    5.9220   46.7170   53.9650 C   0  0  0  0  0  0  0  0  0  0  0  0
    5.7230   47.8940   53.5620 O   0  0  0  0  0  0  0  0  0  0  0  0
    7.1390   46.0310   53.6230 N   0  0  0  0  0  0  0  0  0  0  0  0
    8.1860   46.6270   52.7780 C   0  0  0  0  0  0  0  0  0  0  0  0
    7.7490   46.7970   51.3020 C   0  0  0  0  0  0  0  0  0  0  0  0
    7.3620   45.4850   50.6630 C   0  0  0  0  0  0  0  0  0  0  0  0
    6.0760   44.9500   50.8500 C   0  0  0  0  0  0  0  0  0  0  0  0
    5.7180   43.7430   50.2420 C   0  0  0  0  0  0  0  0  0  0  0  0
    6.6410   43.0570   49.4490 C   0  0  0  0  0  0  0  0  0  0  0  0
    7.9250   43.5760   49.2650 C   0  0  0  0  0  0  0  0  0  0  0  0
    8.2830   44.7890   49.8600 C   0  0  0  0  0  0  0  0  0  0  0  0
    9.5480   45.9350   52.9540 C   0  0  0  0  0  0  0  0  0  0  0  0
   10.1160   47.2040   53.5730 C   0  0  0  0  0  0  0  0  0  0  0  0
    8.7750   47.9020   53.3980 C   0  0  0  0  0  0  0  0  0  0  0  0
    3.8160   45.4850   53.9460 N   0  0  0  0  0  0  0  0  0  0  0  0
    2.7200   46.1400   53.5170 C   0  0  0  0  0  0  0  0  0  0  0  0
    1.9900   45.2920   52.7120 C   0  0  0  0  0  0  0  0  0  0  0  0
    2.7320   44.1250   52.6790 C   0  0  0  0  0  0  0  0  0  0  0  0
    2.3570   42.8630   51.9700 C   0  0  0  0  0  0  0  0  0  0  0  0
    3.4370   42.0000   51.9430 F   0  0  0  0  0  0  0  0  0  0  0  0
    1.9750   43.1420   50.6710 F   0  0  0  0  0  0  0  0  0  0  0  0
    1.3070   42.2580   52.6340 F   0  0  0  0  0  0  0  0  0  0  0  0
    3.8320   44.2590   53.4440 N   0  0  0  0  0  0  0  0  0  0  0  0
    5.3222   45.2273   56.7538 H   0  0  0  0  0  0  0  0  0  0  0  0
    4.9828   43.9951   55.4916 H   0  0  0  0  0  0  0  0  0  0  0  0
    6.5501   44.8728   55.4916 H   0  0  0  0  0  0  0  0  0  0  0  0
    4.4160   46.7998   55.4612 H   0  0  0  0  0  0  0  0  0  0  0  0
    7.2690   45.0510   53.9590 H   0  0  0  0  0  0  0  0  0  0  0  0
    6.8848   47.4766   51.2652 H   0  0  0  0  0  0  0  0  0  0  0  0
    8.6047   47.2035   50.7429 H   0  0  0  0  0  0  0  0  0  0  0  0
    5.3474   45.4836   51.4779 H   0  0  0  0  0  0  0  0  0  0  0  0
    4.7079   43.3329   50.3883 H   0  0  0  0  0  0  0  0  0  0  0  0
    6.3570   42.1086   48.9696 H   0  0  0  0  0  0  0  0  0  0  0  0
    8.6555   43.0290   48.6508 H   0  0  0  0  0  0  0  0  0  0  0  0
    9.2901   45.2012   49.6994 H   0  0  0  0  0  0  0  0  0  0  0  0
    9.5283   45.0727   53.6367 H   0  0  0  0  0  0  0  0  0  0  0  0
   10.0474   45.4643   52.0944 H   0  0  0  0  0  0  0  0  0  0  0  0
   10.4276   47.0897   54.6217 H   0  0  0  0  0  0  0  0  0  0  0  0
   11.0324   47.6561   53.1657 H   0  0  0  0  0  0  0  0  0  0  0  0
    8.2991   48.2020   54.3432 H   0  0  0  0  0  0  0  0  0  0  0  0
    8.7139   48.8598   52.8605 H   0  0  0  0  0  0  0  0  0  0  0  0
    2.4525   47.1773   53.7670 H   0  0  0  0  0  0  0  0  0  0  0  0
    1.0333   45.4970   52.2093 H   0  0  0  0  0  0  0  0  0  0  0  0
  1  2  1  0
  2  3  1  0
  3  4  2  0
  3  5  1  0
  5  6  1  0
  6  7  1  0
  7  8  1  0
  8  9  2  0
  9 10  1  0
 10 11  2  0
 11 12  1  0
 12 13  2  0
  6 14  1  0
 14 15  1  0
 15 16  1  0
  2 17  1  0
 17 18  1  0
 18 19  2  0
 19 20  1  0
 20 21  1  0
 21 22  1  0
 21 23  1  0
 21 24  1  0
 20 25  2  0
 16  6  1  0
 25 17  1  0
 13  8  1  0
  1 26  1  0
  1 27  1  0
  1 28  1  0
  2 29  1  1
  5 30  1  0
  7 31  1  0
  7 32  1  0
  9 33  1  0
 10 34  1  0
 11 35  1  0
 12 36  1  0
 13 37  1  0
 14 38  1  0
 14 39  1  0
 15 40  1  0
 15 41  1  0
 16 42  1  0
 16 43  1  0
 18 44  1  0
 19 45  1  0
M  END
>  <meeko>  (1) 
{"is_sidechain": [false], "free_energy": -9.563, "intermolecular_energy": -12.917, "internal_energy": -0.972}

$$$$
ligand_79_conformer_2_docked
     RDKit          3D

 45 47  0  0  0  0  0  0  0  0999 V2000
    3.1190   47.5850   52.4550 C   0  0  0  0  0  0  0  0  0  0  0  0
    3.7360   46.7620   53.5890 C   0  0  1  0  0  0  0  0  0  0  0  0
    3.2990   45.3210   53.5220 C   0  0  0  0  0  0  0  0  0  0  0  0
    3.3190   44.6260   54.5730 O   0  0  0  0  0  0  0  0  0  0  0  0
    2.8710   44.7390   52.2780 N   0  0  0  0  0  0  0  0  0  0  0  0
    2.4710   43.3280   52.1470 C   0  0  0  0  0  0  0  0  0  0  0  0
    3.6610   42.3460   52.2820 C   0  0  0  0  0  0  0  0  0  0  0  0
    4.6570   42.4940   51.1570 C   0  0  0  0  0  0  0  0  0  0  0  0
    5.4240   43.6650   51.0290 C   0  0  0  0  0  0  0  0  0  0  0  0
    6.3570   43.7880   49.9960 C   0  0  0  0  0  0  0  0  0  0  0  0
    6.5270   42.7490   49.0770 C   0  0  0  0  0  0  0  0  0  0  0  0
    5.7630   41.5860   49.1900 C   0  0  0  0  0  0  0  0  0  0  0  0
    4.8380   41.4520   50.2300 C   0  0  0  0  0  0  0  0  0  0  0  0
    1.5880   43.0800   50.9120 C   0  0  0  0  0  0  0  0  0  0  0  0
    0.4120   42.7430   51.8190 C   0  0  0  0  0  0  0  0  0  0  0  0
    1.2770   42.9790   53.0470 C   0  0  0  0  0  0  0  0  0  0  0  0
    5.1980   46.8520   53.5640 N   0  0  0  0  0  0  0  0  0  0  0  0
    6.0150   46.6900   54.6230 C   0  0  0  0  0  0  0  0  0  0  0  0
    7.3180   46.8220   54.1960 C   0  0  0  0  0  0  0  0  0  0  0  0
    7.2130   47.0450   52.8340 C   0  0  0  0  0  0  0  0  0  0  0  0
    8.3470   47.2970   51.8920 C   0  0  0  0  0  0  0  0  0  0  0  0
    9.5510   47.0730   52.5350 F   0  0  0  0  0  0  0  0  0  0  0  0
    8.3140   48.6050   51.4470 F   0  0  0  0  0  0  0  0  0  0  0  0
    8.2420   46.4430   50.8100 F   0  0  0  0  0  0  0  0  0  0  0  0
    5.9160   47.0710   52.4720 N   0  0  0  0  0  0  0  0  0  0  0  0
    2.5105   48.3967   52.8802 H   0  0  0  0  0  0  0  0  0  0  0  0
    3.9202   48.0135   51.8350 H   0  0  0  0  0  0  0  0  0  0  0  0
    2.4830   46.9360   51.8350 H   0  0  0  0  0  0  0  0  0  0  0  0
    3.3750   47.1845   54.5383 H   0  0  0  0  0  0  0  0  0  0  0  0
    2.8790   45.3350   51.4220 H   0  0  0  0  0  0  0  0  0  0  0  0
    4.1734   42.5402   53.2358 H   0  0  0  0  0  0  0  0  0  0  0  0
    3.2589   41.3229   52.2428 H   0  0  0  0  0  0  0  0  0  0  0  0
    5.2891   44.4886   51.7455 H   0  0  0  0  0  0  0  0  0  0  0  0
    6.9588   44.7044   49.9060 H   0  0  0  0  0  0  0  0  0  0  0  0
    7.2625   42.8475   48.2650 H   0  0  0  0  0  0  0  0  0  0  0  0
    5.8890   40.7734   48.4594 H   0  0  0  0  0  0  0  0  0  0  0  0
    4.2493   40.5275   50.3235 H   0  0  0  0  0  0  0  0  0  0  0  0
    1.4312   43.9708   50.2860 H   0  0  0  0  0  0  0  0  0  0  0  0
    1.9087   42.3744   50.1315 H   0  0  0  0  0  0  0  0  0  0  0  0
   -0.4360   43.4378   51.7288 H   0  0  0  0  0  0  0  0  0  0  0  0
   -0.1261   41.7915   51.6962 H   0  0  0  0  0  0  0  0  0  0  0  0
    0.9365   43.8102   53.6820 H   0  0  0  0  0  0  0  0  0  0  0  0
    1.3720   42.1989   53.8166 H   0  0  0  0  0  0  0  0  0  0  0  0
    5.6951   46.4864   55.6556 H   0  0  0  0  0  0  0  0  0  0  0  0
    8.2349   46.7634   54.8009 H   0  0  0  0  0  0  0  0  0  0  0  0
  1  2  1  0
  2  3  1  0
  3  4  2  0
  3  5  1  0
  5  6  1  0
  6  7  1  0
  7  8  1  0
  8  9  2  0
  9 10  1  0
 10 11  2  0
 11 12  1  0
 12 13  2  0
  6 14  1  0
 14 15  1  0
 15 16  1  0
  2 17  1  0
 17 18  1  0
 18 19  2  0
 19 20  1  0
 20 21  1  0
 21 22  1  0
 21 23  1  0
 21 24  1  0
 20 25  2  0
 16  6  1  0
 25 17  1  0
 13  8  1  0
  1 26  1  0
  1 27  1  0
  1 28  1  0
  2 29  1  1
  5 30  1  0
  7 31  1  0
  7 32  1  0
  9 33  1  0
 10 34  1  0
 11 35  1  0
 12 36  1  0
 13 37  1  0
 14 38  1  0
 14 39  1  0
 15 40  1  0
 15 41  1  0
 16 42  1  0
 16 43  1  0
 18 44  1  0
 19 45  1  0
M  END
>  <meeko>  (2) 
{"is_sidechain": [false], "free_energy": -8.829, "intermolecular_energy": -12.169, "internal_energy": -0.729}

$$$$
ligand_79_conformer_2_docked
     RDKit          3D

 45 47  0  0  0  0  0  0  0  0999 V2000
    1.1790   44.5230   51.5720 C   0  0  0  0  0  0  0  0  0  0  0  0
    2.6290   44.8330   51.1900 C   0  0  1  0  0  0  0  0  0  0  0  0
    3.3310   45.6000   52.2800 C   0  0  0  0  0  0  0  0  0  0  0  0
    2.7710   46.6170   52.7720 O   0  0  0  0  0  0  0  0  0  0  0  0
    4.6250   45.1880   52.7550 N   0  0  0  0  0  0  0  0  0  0  0  0
    5.3730   45.9210   53.7890 C   0  0  0  0  0  0  0  0  0  0  0  0
    6.0300   47.2180   53.2560 C   0  0  0  0  0  0  0  0  0  0  0  0
    7.5030   47.0430   52.9780 C   0  0  0  0  0  0  0  0  0  0  0  0
    8.4630   47.4560   53.9180 C   0  0  0  0  0  0  0  0  0  0  0  0
    9.8260   47.2740   53.6630 C   0  0  0  0  0  0  0  0  0  0  0  0
   10.2420   46.6870   52.4650 C   0  0  0  0  0  0  0  0  0  0  0  0
    9.2960   46.2820   51.5210 C   0  0  0  0  0  0  0  0  0  0  0  0
    7.9320   46.4500   51.7780 C   0  0  0  0  0  0  0  0  0  0  0  0
    6.3280   45.0110   54.5790 C   0  0  0  0  0  0  0  0  0  0  0  0
    5.4920   45.2210   55.8340 C   0  0  0  0  0  0  0  0  0  0  0  0
    4.5440   46.1280   55.0650 C   0  0  0  0  0  0  0  0  0  0  0  0
    3.3610   43.6020   50.8810 N   0  0  0  0  0  0  0  0  0  0  0  0
    2.9000   42.3480   51.0520 C   0  0  0  0  0  0  0  0  0  0  0  0
    3.8660   41.4630   50.6220 C   0  0  0  0  0  0  0  0  0  0  0  0
    4.8960   42.2700   50.1730 C   0  0  0  0  0  0  0  0  0  0  0  0
    6.2120   41.8030   49.6370 C   0  0  0  0  0  0  0  0  0  0  0  0
    6.8850   41.0820   50.6060 F   0  0  0  0  0  0  0  0  0  0  0  0
    6.9860   42.8870   49.2660 F   0  0  0  0  0  0  0  0  0  0  0  0
    5.9970   40.9970   48.5350 F   0  0  0  0  0  0  0  0  0  0  0  0
    4.5750   43.5660   50.3500 N   0  0  0  0  0  0  0  0  0  0  0  0
    1.0848   44.5029   52.6678 H   0  0  0  0  0  0  0  0  0  0  0  0
    0.5175   45.3000   51.1613 H   0  0  0  0  0  0  0  0  0  0  0  0
    0.8930   43.5434   51.1613 H   0  0  0  0  0  0  0  0  0  0  0  0
    2.6070   45.4637   50.2890 H   0  0  0  0  0  0  0  0  0  0  0  0
    5.0700   44.3510   52.3180 H   0  0  0  0  0  0  0  0  0  0  0  0
    5.5266   47.5116   52.3230 H   0  0  0  0  0  0  0  0  0  0  0  0
    5.9240   47.9913   54.0311 H   0  0  0  0  0  0  0  0  0  0  0  0
    8.1405   47.9249   54.8593 H   0  0  0  0  0  0  0  0  0  0  0  0
   10.5714   47.5933   54.4063 H   0  0  0  0  0  0  0  0  0  0  0  0
   11.3143   46.5440   52.2656 H   0  0  0  0  0  0  0  0  0  0  0  0
    9.6246   45.8300   50.5735 H   0  0  0  0  0  0  0  0  0  0  0  0
    7.1906   46.1163   51.0371 H   0  0  0  0  0  0  0  0  0  0  0  0
    6.3519   43.9699   54.2246 H   0  0  0  0  0  0  0  0  0  0  0  0
    7.4089   45.2149   54.5900 H   0  0  0  0  0  0  0  0  0  0  0  0
    5.0213   44.3034   56.2167 H   0  0  0  0  0  0  0  0  0  0  0  0
    5.9661   45.5757   56.7611 H   0  0  0  0  0  0  0  0  0  0  0  0
    3.5145   45.7465   54.9976 H   0  0  0  0  0  0  0  0  0  0  0  0
    4.3299   47.1436   55.4292 H   0  0  0  0  0  0  0  0  0  0  0  0
    1.9177   42.0756   51.4653 H   0  0  0  0  0  0  0  0  0  0  0  0
    3.8265   40.3638   50.6334 H   0  0  0  0  0  0  0  0  0  0  0  0
  1  2  1  0
  2  3  1  0
  3  4  2  0
  3  5  1  0
  5  6  1  0
  6  7  1  0
  7  8  1  0
  8  9  2  0
  9 10  1  0
 10 11  2  0
 11 12  1  0
 12 13  2  0
  6 14  1  0
 14 15  1  0
 15 16  1  0
  2 17  1  0
 17 18  1  0
 18 19  2  0
 19 20  1  0
 20 21  1  0
 21 22  1  0
 21 23  1  0
 21 24  1  0
 20 25  2  0
 16  6  1  0
 25 17  1  0
 13  8  1  0
  1 26  1  0
  1 27  1  0
  1 28  1  0
  2 29  1  6
  5 30  1  0
  7 31  1  0
  7 32  1  0
  9 33  1  0
 10 34  1  0
 11 35  1  0
 12 36  1  0
 13 37  1  0
 14 38  1  0
 14 39  1  0
 15 40  1  0
 15 41  1  0
 16 42  1  0
 16 43  1  0
 18 44  1  0
 19 45  1  0
M  END
>  <meeko>  (3) 
{"is_sidechain": [false], "free_energy": -8.513, "intermolecular_energy": -11.562, "internal_energy": -0.909}

$$$$
