ligand_88_conformer_5_docked
     RDKit          3D

 47 49  0  0  0  0  0  0  0  0999 V2000
    5.5690   41.6160   49.4380 C   0  0  0  0  0  0  0  0  0  0  0  0
    6.3080   42.8800   49.7630 C   0  0  0  0  0  0  0  0  0  0  0  0
    5.6620   43.9210   50.4470 C   0  0  0  0  0  0  0  0  0  0  0  0
    6.3410   45.1120   50.7200 C   0  0  0  0  0  0  0  0  0  0  0  0
    7.6740   45.2840   50.3090 C   0  0  0  0  0  0  0  0  0  0  0  0
    8.4110   46.5710   50.6210 C   0  0  0  0  0  0  0  0  0  0  0  0
    8.5030   46.9010   52.1430 C   0  0  0  0  0  0  0  0  0  0  0  0
    8.3390   48.4230   52.3620 C   0  0  0  0  0  0  0  0  0  0  0  0
    9.8940   46.4610   52.6420 C   0  0  0  0  0  0  0  0  0  0  0  0
    7.4640   46.1560   52.8820 N   0  0  0  0  0  0  0  0  0  0  0  0
    6.8920   46.5620   54.1400 C   0  0  0  0  0  0  0  0  0  0  0  0
    7.4690   47.4200   54.8590 O   0  0  0  0  0  0  0  0  0  0  0  0
    5.6290   45.9700   54.6140 C   0  0  0  0  0  0  0  0  0  0  0  0
    4.3910   46.0650   54.0060 C   0  0  0  0  0  0  0  0  0  0  0  0
    3.5620   45.3710   54.8610 C   0  0  0  0  0  0  0  0  0  0  0  0
    2.1200   45.1620   54.6950 C   0  0  0  0  0  0  0  0  0  0  0  0
    1.2110   44.9430   55.7140 C   0  0  0  0  0  0  0  0  0  0  0  0
   -0.0010   44.8190   55.0690 C   0  0  0  0  0  0  0  0  0  0  0  0
    0.2060   44.9490   53.7450 N   0  0  0  0  0  0  0  0  0  0  0  0
   -0.8250   44.9520   52.7170 C   0  0  0  0  0  0  0  0  0  0  0  0
    1.4880   45.1710   53.5040 N   0  0  0  0  0  0  0  0  0  0  0  0
    4.2680   44.9220   55.8720 O   0  0  0  0  0  0  0  0  0  0  0  0
    5.5180   45.2660   55.7580 N   0  0  0  0  0  0  0  0  0  0  0  0
    8.3030   44.2540   49.5890 C   0  0  0  0  0  0  0  0  0  0  0  0
    7.6250   43.0620   49.3180 C   0  0  0  0  0  0  0  0  0  0  0  0
    5.2749   41.1130   50.3710 H   0  0  0  0  0  0  0  0  0  0  0  0
    4.6697   41.8573   48.8523 H   0  0  0  0  0  0  0  0  0  0  0  0
    6.2204   40.9507   48.8523 H   0  0  0  0  0  0  0  0  0  0  0  0
    4.6174   43.7994   50.7696 H   0  0  0  0  0  0  0  0  0  0  0  0
    5.8280   45.9210   51.2608 H   0  0  0  0  0  0  0  0  0  0  0  0
    9.4333   46.4885   50.2233 H   0  0  0  0  0  0  0  0  0  0  0  0
    7.8373   47.3854   50.1546 H   0  0  0  0  0  0  0  0  0  0  0  0
    8.3158   48.6379   53.4406 H   0  0  0  0  0  0  0  0  0  0  0  0
    9.1852   48.9531   51.9006 H   0  0  0  0  0  0  0  0  0  0  0  0
    7.3993   48.7607   51.9006 H   0  0  0  0  0  0  0  0  0  0  0  0
    9.9048   46.4576   53.7419 H   0  0  0  0  0  0  0  0  0  0  0  0
   10.1139   45.4494   52.2700 H   0  0  0  0  0  0  0  0  0  0  0  0
   10.6557   47.1621   52.2700 H   0  0  0  0  0  0  0  0  0  0  0  0
    7.1360   45.2470   52.4920 H   0  0  0  0  0  0  0  0  0  0  0  0
    4.1302   46.5726   53.0656 H   0  0  0  0  0  0  0  0  0  0  0  0
    1.4100   44.8817   56.7941 H   0  0  0  0  0  0  0  0  0  0  0  0
   -0.9726   44.6436   55.5539 H   0  0  0  0  0  0  0  0  0  0  0  0
   -1.8169   44.9549   53.1925 H   0  0  0  0  0  0  0  0  0  0  0  0
   -0.7159   45.8498   52.0909 H   0  0  0  0  0  0  0  0  0  0  0  0
   -0.7211   44.0535   52.0909 H   0  0  0  0  0  0  0  0  0  0  0  0
    9.3364   44.3868   49.2361 H   0  0  0  0  0  0  0  0  0  0  0  0
    8.1272   42.2630   48.7529 H   0  0  0  0  0  0  0  0  0  0  0  0
  1  2  1  0
  2  3  2  0
  3  4  1  0
  4  5  2  0
  5  6  1  0
  6  7  1  0
  7  8  1  0
  7  9  1  0
  7 10  1  0
 10 11  1  0
 11 12  2  0
 11 13  1  0
 13 14  1  0
 14 15  2  0
 15 16  1  0
 16 17  1  0
 17 18  2  0
 18 19  1  0
 19 20  1  0
 19 21  1  0
 15 22  1  0
 22 23  1  0
  5 24  1  0
 24 25  2  0
 25  2  1  0
 23 13  2  0
 21 16  2  0
  1 26  1  0
  1 27  1  0
  1 28  1  0
  3 29  1  0
  4 30  1  0
  6 31  1  0
  6 32  1  0
  8 33  1  0
  8 34  1  0
  8 35  1  0
  9 36  1  0
  9 37  1  0
  9 38  1  0
 10 39  1  0
 14 40  1  0
 17 41  1  0
 18 42  1  0
 20 43  1  0
 20 44  1  0
 20 45  1  0
 24 46  1  0
 25 47  1  0
M  END
>  <meeko>  (1) 
{"is_sidechain": [false], "free_energy": -9.273, "intermolecular_energy": -11.984, "internal_energy": 0.318}

$$$$
ligand_88_conformer_5_docked
     RDKit          3D

 47 49  0  0  0  0  0  0  0  0999 V2000
    9.8700   47.2220   53.2230 C   0  0  0  0  0  0  0  0  0  0  0  0
    9.3810   46.3650   52.0930 C   0  0  0  0  0  0  0  0  0  0  0  0
    8.0380   46.4220   51.6920 C   0  0  0  0  0  0  0  0  0  0  0  0
    7.5740   45.6000   50.6620 C   0  0  0  0  0  0  0  0  0  0  0  0
    8.4440   44.7030   50.0180 C   0  0  0  0  0  0  0  0  0  0  0  0
    7.9420   43.8250   48.8910 C   0  0  0  0  0  0  0  0  0  0  0  0
    6.8210   42.8250   49.3100 C   0  0  0  0  0  0  0  0  0  0  0  0
    7.4390   41.6310   50.0740 C   0  0  0  0  0  0  0  0  0  0  0  0
    6.1370   42.3110   48.0280 C   0  0  0  0  0  0  0  0  0  0  0  0
    5.8200   43.5160   50.1490 N   0  0  0  0  0  0  0  0  0  0  0  0
    4.8600   42.8620   51.0000 C   0  0  0  0  0  0  0  0  0  0  0  0
    4.5930   41.6400   50.8440 O   0  0  0  0  0  0  0  0  0  0  0  0
    4.1640   43.6110   52.0590 C   0  0  0  0  0  0  0  0  0  0  0  0
    2.8900   43.3740   52.5410 C   0  0  0  0  0  0  0  0  0  0  0  0
    2.7160   44.3620   53.4850 C   0  0  0  0  0  0  0  0  0  0  0  0
    1.5220   44.5780   54.3090 C   0  0  0  0  0  0  0  0  0  0  0  0
    0.2700   44.0390   54.0760 C   0  0  0  0  0  0  0  0  0  0  0  0
   -0.5040   44.5140   55.1140 C   0  0  0  0  0  0  0  0  0  0  0  0
    0.2650   45.2960   55.8940 N   0  0  0  0  0  0  0  0  0  0  0  0
   -0.1520   45.9350   57.1350 C   0  0  0  0  0  0  0  0  0  0  0  0
    1.5010   45.3340   55.4250 N   0  0  0  0  0  0  0  0  0  0  0  0
    3.8000   45.1030   53.5350 O   0  0  0  0  0  0  0  0  0  0  0  0
    4.6920   44.6810   52.6870 N   0  0  0  0  0  0  0  0  0  0  0  0
    9.7790   44.6210   50.4500 C   0  0  0  0  0  0  0  0  0  0  0  0
   10.2430   45.4450   51.4800 C   0  0  0  0  0  0  0  0  0  0  0  0
    9.6024   46.7530   54.1813 H   0  0  0  0  0  0  0  0  0  0  0  0
   10.9632   47.3256   53.1581 H   0  0  0  0  0  0  0  0  0  0  0  0
    9.4030   48.2158   53.1581 H   0  0  0  0  0  0  0  0  0  0  0  0
    7.3468   47.1173   52.1909 H   0  0  0  0  0  0  0  0  0  0  0  0
    6.5199   45.6551   50.3526 H   0  0  0  0  0  0  0  0  0  0  0  0
    7.5451   44.4754   48.0977 H   0  0  0  0  0  0  0  0  0  0  0  0
    8.7974   43.2191   48.5575 H   0  0  0  0  0  0  0  0  0  0  0  0
    7.3500   41.8029   51.1568 H   0  0  0  0  0  0  0  0  0  0  0  0
    6.9057   40.7075   49.8043 H   0  0  0  0  0  0  0  0  0  0  0  0
    8.5009   41.5332   49.8043 H   0  0  0  0  0  0  0  0  0  0  0  0
    5.2847   41.6705   48.2987 H   0  0  0  0  0  0  0  0  0  0  0  0
    5.7795   43.1658   47.4352 H   0  0  0  0  0  0  0  0  0  0  0  0
    6.8586   41.7298   47.4352 H   0  0  0  0  0  0  0  0  0  0  0  0
    5.7720   44.5560   50.1050 H   0  0  0  0  0  0  0  0  0  0  0  0
    2.1841   42.5851   52.2421 H   0  0  0  0  0  0  0  0  0  0  0  0
   -0.0385   43.3809   53.2503 H   0  0  0  0  0  0  0  0  0  0  0  0
   -1.5689   44.2915   55.2767 H   0  0  0  0  0  0  0  0  0  0  0  0
    0.2259   45.3560   57.9905 H   0  0  0  0  0  0  0  0  0  0  0  0
    0.2538   46.9566   57.1758 H   0  0  0  0  0  0  0  0  0  0  0  0
   -1.2505   45.9749   57.1758 H   0  0  0  0  0  0  0  0  0  0  0  0
   10.4637   43.9034   49.9744 H   0  0  0  0  0  0  0  0  0  0  0  0
   11.2894   45.3710   51.8109 H   0  0  0  0  0  0  0  0  0  0  0  0
  1  2  1  0
  2  3  2  0
  3  4  1  0
  4  5  2  0
  5  6  1  0
  6  7  1  0
  7  8  1  0
  7  9  1  0
  7 10  1  0
 10 11  1  0
 11 12  2  0
 11 13  1  0
 13 14  1  0
 14 15  2  0
 15 16  1  0
 16 17  1  0
 17 18  2  0
 18 19  1  0
 19 20  1  0
 19 21  1  0
 15 22  1  0
 22 23  1  0
  5 24  1  0
 24 25  2  0
 25  2  1  0
 23 13  2  0
 21 16  2  0
  1 26  1  0
  1 27  1  0
  1 28  1  0
  3 29  1  0
  4 30  1  0
  6 31  1  0
  6 32  1  0
  8 33  1  0
  8 34  1  0
  8 35  1  0
  9 36  1  0
  9 37  1  0
  9 38  1  0
 10 39  1  0
 14 40  1  0
 17 41  1  0
 18 42  1  0
 20 43  1  0
 20 44  1  0
 20 45  1  0
 24 46  1  0
 25 47  1  0
M  END
>  <meeko>  (2) 
{"is_sidechain": [false], "free_energy": -8.798, "intermolecular_energy": -11.294, "internal_energy": 0.242}

$$$$
ligand_88_conformer_5_docked
     RDKit          3D

 47 49  0  0  0  0  0  0  0  0999 V2000
    6.8120   41.4000   50.0540 C   0  0  0  0  0  0  0  0  0  0  0  0
    5.4520   41.9480   50.3700 C   0  0  0  0  0  0  0  0  0  0  0  0
    4.3220   41.1200   50.2960 C   0  0  0  0  0  0  0  0  0  0  0  0
    3.0510   41.6390   50.5570 C   0  0  0  0  0  0  0  0  0  0  0  0
    2.8880   42.9940   50.8920 C   0  0  0  0  0  0  0  0  0  0  0  0
    1.5100   43.5490   51.1910 C   0  0  0  0  0  0  0  0  0  0  0  0
    1.3760   44.2000   52.6030 C   0  0  0  0  0  0  0  0  0  0  0  0
    1.4050   43.1030   53.6930 C   0  0  0  0  0  0  0  0  0  0  0  0
    0.0250   44.9400   52.6590 C   0  0  0  0  0  0  0  0  0  0  0  0
    2.4690   45.1700   52.8140 N   0  0  0  0  0  0  0  0  0  0  0  0
    3.0350   45.5140   54.0940 C   0  0  0  0  0  0  0  0  0  0  0  0
    2.4170   45.2490   55.1590 O   0  0  0  0  0  0  0  0  0  0  0  0
    4.3380   46.1950   54.1780 C   0  0  0  0  0  0  0  0  0  0  0  0
    5.5230   45.7890   53.5940 C   0  0  0  0  0  0  0  0  0  0  0  0
    6.4250   46.7460   54.0040 C   0  0  0  0  0  0  0  0  0  0  0  0
    7.8520   46.7960   53.6700 C   0  0  0  0  0  0  0  0  0  0  0  0
    8.8320   47.4470   54.3980 C   0  0  0  0  0  0  0  0  0  0  0  0
    9.9960   47.1990   53.7020 C   0  0  0  0  0  0  0  0  0  0  0  0
    9.6950   46.4540   52.6220 N   0  0  0  0  0  0  0  0  0  0  0  0
   10.6510   45.9180   51.6630 C   0  0  0  0  0  0  0  0  0  0  0  0
    8.3980   46.1910   52.5970 N   0  0  0  0  0  0  0  0  0  0  0  0
    5.8060   47.6230   54.7610 O   0  0  0  0  0  0  0  0  0  0  0  0
    4.5470   47.3210   54.8900 N   0  0  0  0  0  0  0  0  0  0  0  0
    4.0190   43.8280   50.9260 C   0  0  0  0  0  0  0  0  0  0  0  0
    5.2910   43.3080   50.6660 C   0  0  0  0  0  0  0  0  0  0  0  0
    7.3471   41.1844   50.9906 H   0  0  0  0  0  0  0  0  0  0  0  0
    6.7075   40.4738   49.4698 H   0  0  0  0  0  0  0  0  0  0  0  0
    7.3788   42.1399   49.4698 H   0  0  0  0  0  0  0  0  0  0  0  0
    4.4368   40.0584   50.0316 H   0  0  0  0  0  0  0  0  0  0  0  0
    2.1710   40.9815   50.4997 H   0  0  0  0  0  0  0  0  0  0  0  0
    1.2740   44.3125   50.4351 H   0  0  0  0  0  0  0  0  0  0  0  0
    0.8140   42.6975   51.1678 H   0  0  0  0  0  0  0  0  0  0  0  0
    1.3926   43.5735   54.6872 H   0  0  0  0  0  0  0  0  0  0  0  0
    0.5237   42.4539   53.5835 H   0  0  0  0  0  0  0  0  0  0  0  0
    2.3194   42.5014   53.5835 H   0  0  0  0  0  0  0  0  0  0  0  0
   -0.2633   45.0979   53.7087 H   0  0  0  0  0  0  0  0  0  0  0  0
    0.1186   45.9128   52.1541 H   0  0  0  0  0  0  0  0  0  0  0  0
   -0.7444   44.3374   52.1541 H   0  0  0  0  0  0  0  0  0  0  0  0
    2.8470   45.6780   51.9860 H   0  0  0  0  0  0  0  0  0  0  0  0
    5.7028   44.9119   52.9550 H   0  0  0  0  0  0  0  0  0  0  0  0
    8.7101   48.0303   55.3226 H   0  0  0  0  0  0  0  0  0  0  0  0
   11.0002   47.5503   53.9817 H   0  0  0  0  0  0  0  0  0  0  0  0
   11.4874   45.4491   52.2020 H   0  0  0  0  0  0  0  0  0  0  0  0
   10.1546   45.1666   51.0313 H   0  0  0  0  0  0  0  0  0  0  0  0
   11.0331   46.7335   51.0313 H   0  0  0  0  0  0  0  0  0  0  0  0
    3.9028   44.8968   51.1587 H   0  0  0  0  0  0  0  0  0  0  0  0
    6.1692   43.9698   50.6940 H   0  0  0  0  0  0  0  0  0  0  0  0
  1  2  1  0
  2  3  2  0
  3  4  1  0
  4  5  2  0
  5  6  1  0
  6  7  1  0
  7  8  1  0
  7  9  1  0
  7 10  1  0
 10 11  1  0
 11 12  2  0
 11 13  1  0
 13 14  1  0
 14 15  2  0
 15 16  1  0
 16 17  1  0
 17 18  2  0
 18 19  1  0
 19 20  1  0
 19 21  1  0
 15 22  1  0
 22 23  1  0
  5 24  1  0
 24 25  2  0
 25  2  1  0
 23 13  2  0
 21 16  2  0
  1 26  1  0
  1 27  1  0
  1 28  1  0
  3 29  1  0
  4 30  1  0
  6 31  1  0
  6 32  1  0
  8 33  1  0
  8 34  1  0
  8 35  1  0
  9 36  1  0
  9 37  1  0
  9 38  1  0
 10 39  1  0
 14 40  1  0
 17 41  1  0
 18 42  1  0
 20 43  1  0
 20 44  1  0
 20 45  1  0
 24 46  1  0
 25 47  1  0
M  END
>  <meeko>  (3) 
{"is_sidechain": [false], "free_energy": -8.723, "intermolecular_energy": -11.034, "internal_energy": 0.079}

$$$$
ligand_88_conformer_5_docked
     RDKit          3D

 47 49  0  0  0  0  0  0  0  0999 V2000
    9.8900   46.7860   51.8950 C   0  0  0  0  0  0  0  0  0  0  0  0
    8.4390   46.4430   51.7330 C   0  0  0  0  0  0  0  0  0  0  0  0
    8.0320   45.5410   50.7390 C   0  0  0  0  0  0  0  0  0  0  0  0
    6.6770   45.2470   50.5670 C   0  0  0  0  0  0  0  0  0  0  0  0
    5.7060   45.8540   51.3810 C   0  0  0  0  0  0  0  0  0  0  0  0
    4.2390   45.5200   51.2020 C   0  0  0  0  0  0  0  0  0  0  0  0
    3.7290   44.3670   52.1220 C   0  0  0  0  0  0  0  0  0  0  0  0
    4.8350   43.9650   53.1240 C   0  0  0  0  0  0  0  0  0  0  0  0
    3.3880   43.1590   51.2260 C   0  0  0  0  0  0  0  0  0  0  0  0
    2.5110   44.7980   52.8380 N   0  0  0  0  0  0  0  0  0  0  0  0
    1.6280   43.9260   53.5690 C   0  0  0  0  0  0  0  0  0  0  0  0
    1.6580   42.6810   53.3800 O   0  0  0  0  0  0  0  0  0  0  0  0
    0.6670   44.4750   54.5400 C   0  0  0  0  0  0  0  0  0  0  0  0
    0.9000   45.4820   55.4570 C   0  0  0  0  0  0  0  0  0  0  0  0
   -0.2990   45.5870   56.1280 C   0  0  0  0  0  0  0  0  0  0  0  0
   -0.6040   46.5140   57.2230 C   0  0  0  0  0  0  0  0  0  0  0  0
   -1.7550   47.2720   57.3440 C   0  0  0  0  0  0  0  0  0  0  0  0
   -1.5860   47.9610   58.5260 C   0  0  0  0  0  0  0  0  0  0  0  0
   -0.3920   47.6230   59.0490 N   0  0  0  0  0  0  0  0  0  0  0  0
    0.1370   48.0760   60.3280 C   0  0  0  0  0  0  0  0  0  0  0  0
    0.2090   46.7350   58.2750 N   0  0  0  0  0  0  0  0  0  0  0  0
   -1.1440   44.7120   55.6350 O   0  0  0  0  0  0  0  0  0  0  0  0
   -0.5950   44.0210   54.6780 N   0  0  0  0  0  0  0  0  0  0  0  0
    6.1150   46.7870   52.3490 C   0  0  0  0  0  0  0  0  0  0  0  0
    7.4710   47.0790   52.5230 C   0  0  0  0  0  0  0  0  0  0  0  0
   10.1357   46.8441   52.9656 H   0  0  0  0  0  0  0  0  0  0  0  0
   10.5059   46.0087   51.4191 H   0  0  0  0  0  0  0  0  0  0  0  0
   10.0926   47.7568   51.4191 H   0  0  0  0  0  0  0  0  0  0  0  0
    8.7826   45.0632   50.0923 H   0  0  0  0  0  0  0  0  0  0  0  0
    6.3679   44.5345   49.7880 H   0  0  0  0  0  0  0  0  0  0  0  0
    3.6503   46.4228   51.4217 H   0  0  0  0  0  0  0  0  0  0  0  0
    4.1176   45.1743   50.1648 H   0  0  0  0  0  0  0  0  0  0  0  0
    4.4655   44.0993   54.1513 H   0  0  0  0  0  0  0  0  0  0  0  0
    5.1065   42.9107   52.9669 H   0  0  0  0  0  0  0  0  0  0  0  0
    5.7201   44.5989   52.9669 H   0  0  0  0  0  0  0  0  0  0  0  0
    3.1432   42.2919   51.8571 H   0  0  0  0  0  0  0  0  0  0  0  0
    2.5244   43.4057   50.5909 H   0  0  0  0  0  0  0  0  0  0  0  0
    4.2531   42.9177   50.5909 H   0  0  0  0  0  0  0  0  0  0  0  0
    2.2390   45.8030   52.7910 H   0  0  0  0  0  0  0  0  0  0  0  0
    1.8219   46.0612   55.6138 H   0  0  0  0  0  0  0  0  0  0  0  0
   -2.6105   47.3151   56.6539 H   0  0  0  0  0  0  0  0  0  0  0  0
   -2.3047   48.6672   58.9672 H   0  0  0  0  0  0  0  0  0  0  0  0
   -0.4216   47.5976   61.1460 H   0  0  0  0  0  0  0  0  0  0  0  0
    1.2003   47.8041   60.4020 H   0  0  0  0  0  0  0  0  0  0  0  0
    0.0319   49.1685   60.4020 H   0  0  0  0  0  0  0  0  0  0  0  0
    5.3631   47.2910   52.9740 H   0  0  0  0  0  0  0  0  0  0  0  0
    7.7800   47.8113   53.2834 H   0  0  0  0  0  0  0  0  0  0  0  0
  1  2  1  0
  2  3  2  0
  3  4  1  0
  4  5  2  0
  5  6  1  0
  6  7  1  0
  7  8  1  0
  7  9  1  0
  7 10  1  0
 10 11  1  0
 11 12  2  0
 11 13  1  0
 13 14  1  0
 14 15  2  0
 15 16  1  0
 16 17  1  0
 17 18  2  0
 18 19  1  0
 19 20  1  0
 19 21  1  0
 15 22  1  0
 22 23  1  0
  5 24  1  0
 24 25  2  0
 25  2  1  0
 23 13  2  0
 21 16  2  0
  1 26  1  0
  1 27  1  0
  1 28  1  0
  3 29  1  0
  4 30  1  0
  6 31  1  0
  6 32  1  0
  8 33  1  0
  8 34  1  0
  8 35  1  0
  9 36  1  0
  9 37  1  0
  9 38  1  0
 10 39  1  0
 14 40  1  0
 17 41  1  0
 18 42  1  0
 20 43  1  0
 20 44  1  0
 20 45  1  0
 24 46  1  0
 25 47  1  0
M  END
>  <meeko>  (4) 
{"is_sidechain": [false], "free_energy": -8.588, "intermolecular_energy": -10.95, "internal_energy": 0.169}

$$$$
ligand_88_conformer_5_docked
     RDKit          3D

 47 49  0  0  0  0  0  0  0  0999 V2000
   -1.9920   46.5010   57.6500 C   0  0  0  0  0  0  0  0  0  0  0  0
   -1.2900   45.6850   56.6050 C   0  0  0  0  0  0  0  0  0  0  0  0
   -2.0260   44.8630   55.7380 C   0  0  0  0  0  0  0  0  0  0  0  0
   -1.3700   44.0770   54.7870 C   0  0  0  0  0  0  0  0  0  0  0  0
    0.0320   44.0960   54.6900 C   0  0  0  0  0  0  0  0  0  0  0  0
    0.7390   43.2550   53.6460 C   0  0  0  0  0  0  0  0  0  0  0  0
    1.2490   44.0630   52.4130 C   0  0  0  0  0  0  0  0  0  0  0  0
    0.2490   45.1930   52.0730 C   0  0  0  0  0  0  0  0  0  0  0  0
    1.3490   43.0950   51.2170 C   0  0  0  0  0  0  0  0  0  0  0  0
    2.5860   44.6220   52.6980 N   0  0  0  0  0  0  0  0  0  0  0  0
    3.2030   45.7040   51.9740 C   0  0  0  0  0  0  0  0  0  0  0  0
    2.7750   46.0390   50.8370 O   0  0  0  0  0  0  0  0  0  0  0  0
    4.3510   46.4280   52.5430 C   0  0  0  0  0  0  0  0  0  0  0  0
    5.6760   46.0340   52.5150 C   0  0  0  0  0  0  0  0  0  0  0  0
    6.3230   47.0370   53.2030 C   0  0  0  0  0  0  0  0  0  0  0  0
    7.7620   47.1170   53.4750 C   0  0  0  0  0  0  0  0  0  0  0  0
    8.7700   47.0390   52.5310 C   0  0  0  0  0  0  0  0  0  0  0  0
    9.9310   47.1770   53.2600 C   0  0  0  0  0  0  0  0  0  0  0  0
    9.6050   47.3140   54.5590 N   0  0  0  0  0  0  0  0  0  0  0  0
   10.5370   47.5560   55.6520 C   0  0  0  0  0  0  0  0  0  0  0  0
    8.2900   47.2930   54.7030 N   0  0  0  0  0  0  0  0  0  0  0  0
    5.4410   47.9270   53.5930 O   0  0  0  0  0  0  0  0  0  0  0  0
    4.2410   47.5920   53.2150 N   0  0  0  0  0  0  0  0  0  0  0  0
    0.7660   44.8910   55.5860 C   0  0  0  0  0  0  0  0  0  0  0  0
    0.1100   45.6780   56.5370 C   0  0  0  0  0  0  0  0  0  0  0  0
   -1.6924   46.1528   58.6495 H   0  0  0  0  0  0  0  0  0  0  0  0
   -1.7183   47.5600   57.5334 H   0  0  0  0  0  0  0  0  0  0  0  0
   -3.0800   46.3885   57.5334 H   0  0  0  0  0  0  0  0  0  0  0  0
   -3.1235   44.8373   55.8073 H   0  0  0  0  0  0  0  0  0  0  0  0
   -1.9554   43.4385   54.1091 H   0  0  0  0  0  0  0  0  0  0  0  0
    1.6036   42.7693   54.1219 H   0  0  0  0  0  0  0  0  0  0  0  0
    0.0000   42.5334   53.2676 H   0  0  0  0  0  0  0  0  0  0  0  0
   -0.1391   45.6316   53.0041 H   0  0  0  0  0  0  0  0  0  0  0  0
    0.7601   45.9707   51.4865 H   0  0  0  0  0  0  0  0  0  0  0  0
   -0.5851   44.7803   51.4865 H   0  0  0  0  0  0  0  0  0  0  0  0
    1.4554   42.0646   51.5871 H   0  0  0  0  0  0  0  0  0  0  0  0
    0.4381   43.1726   50.6053 H   0  0  0  0  0  0  0  0  0  0  0  0
    2.2248   43.3572   50.6053 H   0  0  0  0  0  0  0  0  0  0  0  0
    3.1530   44.1860   53.4560 H   0  0  0  0  0  0  0  0  0  0  0  0
    6.1099   45.1346   52.0536 H   0  0  0  0  0  0  0  0  0  0  0  0
    8.6679   46.8987   51.4448 H   0  0  0  0  0  0  0  0  0  0  0  0
   10.9517   47.1755   52.8499 H   0  0  0  0  0  0  0  0  0  0  0  0
   10.0184   47.4213   56.6127 H   0  0  0  0  0  0  0  0  0  0  0  0
   11.3739   46.8454   55.5844 H   0  0  0  0  0  0  0  0  0  0  0  0
   10.9225   48.5840   55.5844 H   0  0  0  0  0  0  0  0  0  0  0  0
    1.8650   44.8942   55.5389 H   0  0  0  0  0  0  0  0  0  0  0  0
    0.6951   46.2946   57.2351 H   0  0  0  0  0  0  0  0  0  0  0  0
  1  2  1  0
  2  3  2  0
  3  4  1  0
  4  5  2  0
  5  6  1  0
  6  7  1  0
  7  8  1  0
  7  9  1  0
  7 10  1  0
 10 11  1  0
 11 12  2  0
 11 13  1  0
 13 14  1  0
 14 15  2  0
 15 16  1  0
 16 17  1  0
 17 18  2  0
 18 19  1  0
 19 20  1  0
 19 21  1  0
 15 22  1  0
 22 23  1  0
  5 24  1  0
 24 25  2  0
 25  2  1  0
 23 13  2  0
 21 16  2  0
  1 26  1  0
  1 27  1  0
  1 28  1  0
  3 29  1  0
  4 30  1  0
  6 31  1  0
  6 32  1  0
  8 33  1  0
  8 34  1  0
  8 35  1  0
  9 36  1  0
  9 37  1  0
  9 38  1  0
 10 39  1  0
 14 40  1  0
 17 41  1  0
 18 42  1  0
 20 43  1  0
 20 44  1  0
 20 45  1  0
 24 46  1  0
 25 47  1  0
M  END
>  <meeko>  (5) 
{"is_sidechain": [false], "free_energy": -8.326, "intermolecular_energy": -10.364, "internal_energy": -0.078}

$$$$
