MODEL 1
REMARK VINA RESULT:    -8.856      0.000      0.000
REMARK INTER + INTRA:          -9.461
REMARK INTER:                  -9.373
REMARK INTRA:                  -0.088
REMARK UNBOUND:                -0.088
REMARK SMILES CN1CCC2(CCN(C(=O)c3ccc4cccnn34)CC2)C1=O
REMARK SMILES IDX 1 1 2 2 3 3 4 4 5 5 6 6 7 7 8 8 20 9 21 10 9 11 10 12 22 13
REMARK SMILES IDX 23 14 11 15 12 16 19 17 13 18 18 19 14 20 17 21 15 22 16 23
REMARK H PARENT
ROOT
ATOM      1  C   UNL     1      -1.727  42.889  51.979  1.00  0.00     0.146 C 
ATOM      2  N   UNL     1      -0.364  43.404  52.054  1.00  0.00    -0.345 N 
ATOM      3  C   UNL     1       0.829  42.582  52.098  1.00  0.00     0.120 C 
ATOM      4  C   UNL     1       2.010  43.567  52.080  1.00  0.00     0.038 C 
ATOM      5  C   UNL     1       1.439  44.970  52.451  1.00  0.00     0.054 C 
ATOM      6  C   UNL     1       1.729  45.328  53.942  1.00  0.00     0.038 C 
ATOM      7  C   UNL     1       2.987  46.200  54.121  1.00  0.00     0.121 C 
ATOM      8  N   UNL     1       3.939  45.975  53.027  1.00  0.00    -0.337 N 
ATOM      9  C   UNL     1       3.497  46.242  51.649  1.00  0.00     0.121 C 
ATOM     10  C   UNL     1       1.972  46.074  51.505  1.00  0.00     0.038 C 
ATOM     11  C   UNL     1       5.176  45.279  53.277  1.00  0.00     0.272 C 
ATOM     12  O   UNL     1       5.231  44.424  54.200  1.00  0.00    -0.267 OA
ATOM     13  C   UNL     1      -0.024  44.760  52.257  1.00  0.00     0.228 C 
ATOM     14  O   UNL     1      -0.883  45.682  52.300  1.00  0.00    -0.274 OA
ENDROOT
BRANCH  11  15
ATOM     15  C   UNL     1       6.387  45.541  52.471  1.00  0.00     0.130 A 
ATOM     16  C   UNL     1       6.568  45.240  51.124  1.00  0.00     0.036 A 
ATOM     17  N   UNL     1       7.490  46.169  52.920  1.00  0.00    -0.228 N 
ATOM     18  C   UNL     1       7.834  45.694  50.766  1.00  0.00     0.031 A 
ATOM     19  N   UNL     1       7.739  46.630  54.145  1.00  0.00    -0.176 NA
ATOM     20  C   UNL     1       8.364  46.259  51.907  1.00  0.00     0.066 A 
ATOM     21  C   UNL     1       8.933  47.234  54.402  1.00  0.00     0.134 A 
ATOM     22  C   UNL     1       9.601  46.863  52.095  1.00  0.00     0.030 A 
ATOM     23  C   UNL     1       9.888  47.361  53.375  1.00  0.00     0.024 A 
ENDBRANCH  11  15
TORSDOF 1
ENDMDL
MODEL 2
REMARK VINA RESULT:    -8.804      1.817      2.701
REMARK INTER + INTRA:          -9.406
REMARK INTER:                  -9.445
REMARK INTRA:                   0.039
REMARK UNBOUND:                -0.088
REMARK SMILES CN1CCC2(CCN(C(=O)c3ccc4cccnn34)CC2)C1=O
REMARK SMILES IDX 1 1 2 2 3 3 4 4 5 5 6 6 7 7 8 8 20 9 21 10 9 11 10 12 22 13
REMARK SMILES IDX 23 14 11 15 12 16 19 17 13 18 18 19 14 20 17 21 15 22 16 23
REMARK H PARENT
ROOT
ATOM      1  C   UNL     1      -0.402  42.061  52.927  1.00  0.00     0.146 C 
ATOM      2  N   UNL     1       0.826  42.848  52.931  1.00  0.00    -0.345 N 
ATOM      3  C   UNL     1       1.230  43.745  53.996  1.00  0.00     0.120 C 
ATOM      4  C   UNL     1       2.620  44.267  53.591  1.00  0.00     0.038 C 
ATOM      5  C   UNL     1       2.795  43.965  52.071  1.00  0.00     0.054 C 
ATOM      6  C   UNL     1       2.545  45.238  51.204  1.00  0.00     0.038 C 
ATOM      7  C   UNL     1       3.843  45.979  50.830  1.00  0.00     0.121 C 
ATOM      8  N   UNL     1       4.889  45.739  51.831  1.00  0.00    -0.337 N 
ATOM      9  C   UNL     1       5.314  44.352  52.079  1.00  0.00     0.121 C 
ATOM     10  C   UNL     1       4.184  43.353  51.765  1.00  0.00     0.038 C 
ATOM     11  C   UNL     1       5.303  46.800  52.714  1.00  0.00     0.272 C 
ATOM     12  O   UNL     1       4.481  47.705  53.025  1.00  0.00    -0.267 OA
ATOM     13  C   UNL     1       1.709  42.971  51.835  1.00  0.00     0.228 C 
ATOM     14  O   UNL     1       1.561  42.326  50.762  1.00  0.00    -0.274 OA
ENDROOT
BRANCH  11  15
ATOM     15  C   UNL     1       6.671  46.854  53.271  1.00  0.00     0.130 A 
ATOM     16  C   UNL     1       7.020  47.152  54.584  1.00  0.00     0.036 A 
ATOM     17  N   UNL     1       7.793  46.565  52.585  1.00  0.00    -0.228 N 
ATOM     18  C   UNL     1       8.405  47.049  54.677  1.00  0.00     0.031 A 
ATOM     19  N   UNL     1       7.915  46.226  51.302  1.00  0.00    -0.176 NA
ATOM     20  C   UNL     1       8.837  46.685  53.418  1.00  0.00     0.066 A 
ATOM     21  C   UNL     1       9.154  45.978  50.792  1.00  0.00     0.134 A 
ATOM     22  C   UNL     1      10.129  46.447  52.968  1.00  0.00     0.030 A 
ATOM     23  C   UNL     1      10.286  46.085  51.622  1.00  0.00     0.024 A 
ENDBRANCH  11  15
TORSDOF 1
ENDMDL
MODEL 3
REMARK VINA RESULT:    -8.787      1.936      2.515
REMARK INTER + INTRA:          -9.389
REMARK INTER:                  -9.324
REMARK INTRA:                  -0.065
REMARK UNBOUND:                -0.088
REMARK SMILES CN1CCC2(CCN(C(=O)c3ccc4cccnn34)CC2)C1=O
REMARK SMILES IDX 1 1 2 2 3 3 4 4 5 5 6 6 7 7 8 8 20 9 21 10 9 11 10 12 22 13
REMARK SMILES IDX 23 14 11 15 12 16 19 17 13 18 18 19 14 20 17 21 15 22 16 23
REMARK H PARENT
ROOT
ATOM      1  C   UNL     1      -0.261  44.546  56.324  1.00  0.00     0.146 C 
ATOM      2  N   UNL     1       0.943  44.869  55.567  1.00  0.00    -0.345 N 
ATOM      3  C   UNL     1       2.062  45.636  56.079  1.00  0.00     0.120 C 
ATOM      4  C   UNL     1       3.114  45.632  54.957  1.00  0.00     0.038 C 
ATOM      5  C   UNL     1       2.383  45.201  53.648  1.00  0.00     0.054 C 
ATOM      6  C   UNL     1       2.059  46.430  52.744  1.00  0.00     0.038 C 
ATOM      7  C   UNL     1       3.110  46.664  51.642  1.00  0.00     0.121 C 
ATOM      8  N   UNL     1       4.420  46.142  52.050  1.00  0.00    -0.337 N 
ATOM      9  C   UNL     1       4.533  44.711  52.371  1.00  0.00     0.121 C 
ATOM     10  C   UNL     1       3.191  44.137  52.864  1.00  0.00     0.038 C 
ATOM     11  C   UNL     1       5.494  47.050  52.366  1.00  0.00     0.272 C 
ATOM     12  O   UNL     1       5.225  48.196  52.818  1.00  0.00    -0.267 OA
ATOM     13  C   UNL     1       1.120  44.621  54.186  1.00  0.00     0.228 C 
ATOM     14  O   UNL     1       0.271  44.003  53.489  1.00  0.00    -0.274 OA
ENDROOT
BRANCH  11  15
ATOM     15  C   UNL     1       6.909  46.670  52.178  1.00  0.00     0.130 A 
ATOM     16  C   UNL     1       7.453  46.020  51.074  1.00  0.00     0.036 A 
ATOM     17  N   UNL     1       7.903  46.949  53.041  1.00  0.00    -0.228 N 
ATOM     18  C   UNL     1       8.821  45.898  51.299  1.00  0.00     0.031 A 
ATOM     19  N   UNL     1       7.826  47.563  54.222  1.00  0.00    -0.176 NA
ATOM     20  C   UNL     1       9.051  46.486  52.526  1.00  0.00     0.066 A 
ATOM     21  C   UNL     1       8.960  47.744  54.956  1.00  0.00     0.134 A 
ATOM     22  C   UNL     1      10.246  46.636  53.218  1.00  0.00     0.030 A 
ATOM     23  C   UNL     1      10.194  47.281  54.462  1.00  0.00     0.024 A 
ENDBRANCH  11  15
TORSDOF 1
ENDMDL
MODEL 4
REMARK VINA RESULT:    -8.729      1.874      7.329
REMARK INTER + INTRA:          -9.327
REMARK INTER:                  -8.973
REMARK INTRA:                  -0.355
REMARK UNBOUND:                -0.088
REMARK SMILES CN1CCC2(CCN(C(=O)c3ccc4cccnn34)CC2)C1=O
REMARK SMILES IDX 1 1 2 2 3 3 4 4 5 5 6 6 7 7 8 8 20 9 21 10 9 11 10 12 22 13
REMARK SMILES IDX 23 14 11 15 12 16 19 17 13 18 18 19 14 20 17 21 15 22 16 23
REMARK H PARENT
ROOT
ATOM      1  C   UNL     1      10.255  46.689  52.325  1.00  0.00     0.146 C 
ATOM      2  N   UNL     1       8.838  46.345  52.328  1.00  0.00    -0.345 N 
ATOM      3  C   UNL     1       8.083  45.936  51.160  1.00  0.00     0.120 C 
ATOM      4  C   UNL     1       6.675  45.595  51.675  1.00  0.00     0.038 C 
ATOM      5  C   UNL     1       6.543  46.230  53.094  1.00  0.00     0.054 C 
ATOM      6  C   UNL     1       5.732  47.562  53.050  1.00  0.00     0.038 C 
ATOM      7  C   UNL     1       4.243  47.375  53.400  1.00  0.00     0.121 C 
ATOM      8  N   UNL     1       3.797  46.015  53.075  1.00  0.00    -0.337 N 
ATOM      9  C   UNL     1       4.475  44.882  53.725  1.00  0.00     0.121 C 
ATOM     10  C   UNL     1       5.923  45.240  54.110  1.00  0.00     0.038 C 
ATOM     11  C   UNL     1       2.898  45.793  51.970  1.00  0.00     0.272 C 
ATOM     12  O   UNL     1       2.912  46.586  50.990  1.00  0.00    -0.267 OA
ATOM     13  C   UNL     1       7.967  46.517  53.429  1.00  0.00     0.228 C 
ATOM     14  O   UNL     1       8.365  46.905  54.560  1.00  0.00    -0.274 OA
ENDROOT
BRANCH  11  15
ATOM     15  C   UNL     1       1.959  44.653  51.954  1.00  0.00     0.130 A 
ATOM     16  C   UNL     1       1.935  43.611  51.032  1.00  0.00     0.036 A 
ATOM     17  N   UNL     1       1.006  44.427  52.878  1.00  0.00    -0.228 N 
ATOM     18  C   UNL     1       0.919  42.741  51.417  1.00  0.00     0.031 A 
ATOM     19  N   UNL     1       0.686  45.171  53.936  1.00  0.00    -0.176 NA
ATOM     20  C   UNL     1       0.375  43.287  52.561  1.00  0.00     0.066 A 
ATOM     21  C   UNL     1      -0.326  44.768  54.755  1.00  0.00     0.134 A 
ATOM     22  C   UNL     1      -0.666  42.814  53.350  1.00  0.00     0.030 A 
ATOM     23  C   UNL     1      -1.021  43.577  54.473  1.00  0.00     0.024 A 
ENDBRANCH  11  15
TORSDOF 1
ENDMDL
MODEL 5
REMARK VINA RESULT:    -8.711      2.101      2.731
REMARK INTER + INTRA:          -9.308
REMARK INTER:                  -8.867
REMARK INTRA:                  -0.441
REMARK UNBOUND:                -0.088
REMARK SMILES CN1CCC2(CCN(C(=O)c3ccc4cccnn34)CC2)C1=O
REMARK SMILES IDX 1 1 2 2 3 3 4 4 5 5 6 6 7 7 8 8 20 9 21 10 9 11 10 12 22 13
REMARK SMILES IDX 23 14 11 15 12 16 19 17 13 18 18 19 14 20 17 21 15 22 16 23
REMARK H PARENT
ROOT
ATOM      1  C   UNL     1      -1.763  43.839  55.890  1.00  0.00     0.146 C 
ATOM      2  N   UNL     1      -0.565  44.099  55.100  1.00  0.00    -0.345 N 
ATOM      3  C   UNL     1       0.244  45.299  55.193  1.00  0.00     0.120 C 
ATOM      4  C   UNL     1       1.432  45.071  54.244  1.00  0.00     0.038 C 
ATOM      5  C   UNL     1       1.043  43.892  53.300  1.00  0.00     0.054 C 
ATOM      6  C   UNL     1       0.585  44.407  51.901  1.00  0.00     0.038 C 
ATOM      7  C   UNL     1       1.713  44.389  50.851  1.00  0.00     0.121 C 
ATOM      8  N   UNL     1       3.027  44.515  51.493  1.00  0.00    -0.337 N 
ATOM      9  C   UNL     1       3.423  43.498  52.480  1.00  0.00     0.121 C 
ATOM     10  C   UNL     1       2.195  42.865  53.161  1.00  0.00     0.038 C 
ATOM     11  C   UNL     1       3.790  45.728  51.346  1.00  0.00     0.272 C 
ATOM     12  O   UNL     1       3.189  46.822  51.168  1.00  0.00    -0.267 OA
ATOM     13  C   UNL     1      -0.117  43.298  54.025  1.00  0.00     0.228 C 
ATOM     14  O   UNL     1      -0.672  42.213  53.703  1.00  0.00    -0.274 OA
ENDROOT
BRANCH  11  15
ATOM     15  C   UNL     1       5.267  45.725  51.402  1.00  0.00     0.130 A 
ATOM     16  C   UNL     1       6.134  45.333  50.386  1.00  0.00     0.036 A 
ATOM     17  N   UNL     1       5.999  46.158  52.445  1.00  0.00    -0.228 N 
ATOM     18  C   UNL     1       7.431  45.529  50.853  1.00  0.00     0.031 A 
ATOM     19  N   UNL     1       5.572  46.621  53.619  1.00  0.00    -0.176 NA
ATOM     20  C   UNL     1       7.296  46.038  52.127  1.00  0.00     0.066 A 
ATOM     21  C   UNL     1       6.484  47.006  54.557  1.00  0.00     0.134 A 
ATOM     22  C   UNL     1       8.281  46.412  53.033  1.00  0.00     0.030 A 
ATOM     23  C   UNL     1       7.860  46.907  54.276  1.00  0.00     0.024 A 
ENDBRANCH  11  15
TORSDOF 1
ENDMDL
