MODEL 1
REMARK VINA RESULT:    -8.406      0.000      0.000
REMARK INTER + INTRA:         -13.293
REMARK INTER:                 -12.828
REMARK INTRA:                  -0.465
REMARK UNBOUND:                -0.465
REMARK SMILES COc1cc(OC)cc(S(=O)(=O)Nc2cc(S(=O)(=O)NC(C)(C)C)ccc2OC)c1
REMARK SMILES IDX 14 1 15 2 16 3 25 4 26 5 27 6 13 7 10 9 11 10 12 11 9 12
REMARK SMILES IDX 3 13 4 14 30 15 5 16 8 17 2 18 1 19 6 20 7 21 28 22 29 23
REMARK SMILES IDX 17 24 18 25 19 26 20 27 21 29 22 30 23 31 24 32
REMARK H PARENT 13 8 20 28
ROOT
ATOM      1  C   UNL     1       3.592  43.397  52.596  1.00  0.00     0.092 A 
ATOM      2  C   UNL     1       4.369  44.338  53.299  1.00  0.00     0.052 A 
ATOM      3  C   UNL     1       5.499  44.915  52.712  1.00  0.00     0.084 A 
ATOM      4  C   UNL     1       5.871  44.549  51.414  1.00  0.00     0.026 A 
ATOM      5  C   UNL     1       5.117  43.613  50.705  1.00  0.00     0.050 A 
ATOM      6  C   UNL     1       3.970  43.033  51.284  1.00  0.00     0.143 A 
ENDROOT
BRANCH   1   7
ATOM      7  N   UNL     1       2.421  42.807  53.197  1.00  0.00    -0.276 N 
ATOM      8  H   UNL     1       2.505  41.906  53.717  1.00  0.00     0.180 HD
BRANCH   7   9
ATOM      9  S   UNL     1       0.815  43.431  52.985  1.00  0.00     0.262 S 
ATOM     10  O   UNL     1       0.845  44.546  51.976  1.00  0.00    -0.201 OA
ATOM     11  O   UNL     1      -0.079  42.336  52.473  1.00  0.00    -0.201 OA
BRANCH   9  12
ATOM     12  C   UNL     1       0.218  44.069  54.518  1.00  0.00     0.095 A 
ATOM     13  C   UNL     1      -1.547  44.270  56.179  1.00  0.00     0.123 A 
ATOM     14  C   UNL     1      -0.723  45.136  56.930  1.00  0.00     0.092 A 
ATOM     15  C   UNL     1      -1.064  43.739  54.978  1.00  0.00     0.069 A 
ATOM     16  C   UNL     1       0.563  45.464  56.486  1.00  0.00     0.123 A 
ATOM     17  C   UNL     1       1.028  44.928  55.271  1.00  0.00     0.069 A 
BRANCH  13  18
ATOM     18  O   UNL     1      -2.845  43.925  56.587  1.00  0.00    -0.497 OA
ATOM     19  C   UNL     1      -3.152  43.198  57.773  1.00  0.00     0.278 C 
ENDBRANCH  13  18
BRANCH  16  20
ATOM     20  O   UNL     1       1.340  46.327  57.275  1.00  0.00    -0.497 OA
ATOM     21  C   UNL     1       0.930  46.862  58.530  1.00  0.00     0.278 C 
ENDBRANCH  16  20
ENDBRANCH   9  12
ENDBRANCH   7   9
ENDBRANCH   1   7
BRANCH   6  22
ATOM     22  O   UNL     1       3.181  42.106  50.582  1.00  0.00    -0.495 OA
ATOM     23  C   UNL     1       3.693  40.983  49.868  1.00  0.00     0.278 C 
ENDBRANCH   6  22
BRANCH   3  24
ATOM     24  S   UNL     1       6.400  46.131  53.609  1.00  0.00     0.241 S 
ATOM     25  O   UNL     1       6.258  45.890  55.088  1.00  0.00    -0.207 OA
ATOM     26  O   UNL     1       5.835  47.484  53.275  1.00  0.00    -0.207 OA
BRANCH  24  27
ATOM     27  N   UNL     1       8.077  45.990  53.140  1.00  0.00    -0.206 NA
ATOM     28  H   UNL     1       8.520  45.330  53.824  1.00  0.00     0.141 HD
BRANCH  27  29
ATOM     29  C   UNL     1       8.854  47.252  53.070  1.00  0.00     0.025 C 
ATOM     30  C   UNL     1      10.247  46.920  52.493  1.00  0.00     0.028 C 
ATOM     31  C   UNL     1       8.165  48.241  52.102  1.00  0.00     0.028 C 
ATOM     32  C   UNL     1       9.055  47.910  54.454  1.00  0.00     0.028 C 
ENDBRANCH  27  29
ENDBRANCH  24  27
ENDBRANCH   3  24
TORSDOF 9
ENDMDL
MODEL 2
REMARK VINA RESULT:    -8.399      0.208      2.105
REMARK INTER + INTRA:         -13.284
REMARK INTER:                 -12.731
REMARK INTRA:                  -0.553
REMARK UNBOUND:                -0.465
REMARK SMILES COc1cc(OC)cc(S(=O)(=O)Nc2cc(S(=O)(=O)NC(C)(C)C)ccc2OC)c1
REMARK SMILES IDX 14 1 15 2 16 3 25 4 26 5 27 6 13 7 10 9 11 10 12 11 9 12
REMARK SMILES IDX 3 13 4 14 30 15 5 16 8 17 2 18 1 19 6 20 7 21 28 22 29 23
REMARK SMILES IDX 17 24 18 25 19 26 20 27 21 29 22 30 23 31 24 32
REMARK H PARENT 13 8 20 28
ROOT
ATOM      1  C   UNL     1       3.536  43.269  52.460  1.00  0.00     0.092 A 
ATOM      2  C   UNL     1       4.312  44.223  53.145  1.00  0.00     0.052 A 
ATOM      3  C   UNL     1       5.437  44.796  52.543  1.00  0.00     0.084 A 
ATOM      4  C   UNL     1       5.802  44.413  51.248  1.00  0.00     0.026 A 
ATOM      5  C   UNL     1       5.049  43.463  50.558  1.00  0.00     0.050 A 
ATOM      6  C   UNL     1       3.908  42.886  51.152  1.00  0.00     0.143 A 
ENDROOT
BRANCH   1   7
ATOM      7  N   UNL     1       2.371  42.683  53.077  1.00  0.00    -0.276 N 
ATOM      8  H   UNL     1       2.463  41.792  53.615  1.00  0.00     0.180 HD
BRANCH   7   9
ATOM      9  S   UNL     1       0.760  43.292  52.859  1.00  0.00     0.262 S 
ATOM     10  O   UNL     1       0.781  44.392  51.833  1.00  0.00    -0.201 OA
ATOM     11  O   UNL     1      -0.127  42.183  52.364  1.00  0.00    -0.201 OA
BRANCH   9  12
ATOM     12  C   UNL     1       0.160  43.948  54.382  1.00  0.00     0.095 A 
ATOM     13  C   UNL     1       0.490  45.298  56.378  1.00  0.00     0.123 A 
ATOM     14  C   UNL     1      -0.799  44.935  56.821  1.00  0.00     0.092 A 
ATOM     15  C   UNL     1       0.957  44.803  55.155  1.00  0.00     0.069 A 
ATOM     16  C   UNL     1      -1.609  44.092  56.052  1.00  0.00     0.123 A 
ATOM     17  C   UNL     1      -1.119  43.595  54.829  1.00  0.00     0.069 A 
BRANCH  13  18
ATOM     18  O   UNL     1       1.335  46.134  57.125  1.00  0.00    -0.497 OA
ATOM     19  C   UNL     1       0.976  46.749  58.359  1.00  0.00     0.278 C 
ENDBRANCH  13  18
BRANCH  16  20
ATOM     20  O   UNL     1      -2.886  43.767  56.539  1.00  0.00    -0.497 OA
ATOM     21  C   UNL     1      -3.140  43.198  57.820  1.00  0.00     0.278 C 
ENDBRANCH  16  20
ENDBRANCH   9  12
ENDBRANCH   7   9
ENDBRANCH   1   7
BRANCH   6  22
ATOM     22  O   UNL     1       3.120  41.945  50.469  1.00  0.00    -0.495 OA
ATOM     23  C   UNL     1       3.633  40.818  49.763  1.00  0.00     0.278 C 
ENDBRANCH   6  22
BRANCH   3  24
ATOM     24  S   UNL     1       6.337  46.030  53.416  1.00  0.00     0.241 S 
ATOM     25  O   UNL     1       6.200  45.813  54.899  1.00  0.00    -0.207 OA
ATOM     26  O   UNL     1       5.766  47.376  53.061  1.00  0.00    -0.207 OA
BRANCH  24  27
ATOM     27  N   UNL     1       8.013  45.886  52.943  1.00  0.00    -0.206 NA
ATOM     28  H   UNL     1       8.428  45.140  53.551  1.00  0.00     0.141 HD
BRANCH  27  29
ATOM     29  C   UNL     1       8.831  47.122  53.020  1.00  0.00     0.025 C 
ATOM     30  C   UNL     1      10.279  46.756  52.626  1.00  0.00     0.028 C 
ATOM     31  C   UNL     1       8.312  48.161  52.000  1.00  0.00     0.028 C 
ATOM     32  C   UNL     1       8.862  47.733  54.439  1.00  0.00     0.028 C 
ENDBRANCH  27  29
ENDBRANCH  24  27
ENDBRANCH   3  24
TORSDOF 9
ENDMDL
MODEL 3
REMARK VINA RESULT:    -8.330      3.654      7.515
REMARK INTER + INTRA:         -13.177
REMARK INTER:                 -12.970
REMARK INTRA:                  -0.208
REMARK UNBOUND:                -0.465
REMARK SMILES COc1cc(OC)cc(S(=O)(=O)Nc2cc(S(=O)(=O)NC(C)(C)C)ccc2OC)c1
REMARK SMILES IDX 14 1 15 2 16 3 25 4 26 5 27 6 13 7 10 9 11 10 12 11 9 12
REMARK SMILES IDX 3 13 4 14 30 15 5 16 8 17 2 18 1 19 6 20 7 21 28 22 29 23
REMARK SMILES IDX 17 24 18 25 19 26 20 27 21 29 22 30 23 31 24 32
REMARK H PARENT 13 8 20 28
ROOT
ATOM      1  C   UNL     1       4.394  43.406  51.577  1.00  0.00     0.092 A 
ATOM      2  C   UNL     1       5.386  44.227  52.147  1.00  0.00     0.052 A 
ATOM      3  C   UNL     1       5.047  45.432  52.770  1.00  0.00     0.084 A 
ATOM      4  C   UNL     1       3.708  45.834  52.822  1.00  0.00     0.026 A 
ATOM      5  C   UNL     1       2.713  45.037  52.255  1.00  0.00     0.050 A 
ATOM      6  C   UNL     1       3.043  43.815  51.634  1.00  0.00     0.143 A 
ENDROOT
BRANCH   1   7
ATOM      7  N   UNL     1       4.741  42.159  50.942  1.00  0.00    -0.276 N 
ATOM      8  H   UNL     1       4.359  41.262  51.318  1.00  0.00     0.180 HD
BRANCH   7   9
ATOM      9  S   UNL     1       5.897  42.027  49.653  1.00  0.00     0.262 S 
ATOM     10  O   UNL     1       6.452  43.390  49.344  1.00  0.00    -0.201 OA
ATOM     11  O   UNL     1       7.023  41.130  50.086  1.00  0.00    -0.201 OA
BRANCH   9  12
ATOM     12  C   UNL     1       5.106  41.396  48.207  1.00  0.00     0.095 A 
ATOM     13  C   UNL     1       3.442  39.961  47.164  1.00  0.00     0.123 A 
ATOM     14  C   UNL     1       3.903  40.372  45.896  1.00  0.00     0.092 A 
ATOM     15  C   UNL     1       4.048  40.484  48.313  1.00  0.00     0.069 A 
ATOM     16  C   UNL     1       4.952  41.291  45.778  1.00  0.00     0.123 A 
ATOM     17  C   UNL     1       5.555  41.799  46.944  1.00  0.00     0.069 A 
BRANCH  13  18
ATOM     18  O   UNL     1       2.399  39.034  47.323  1.00  0.00    -0.497 OA
ATOM     19  C   UNL     1       2.295  37.807  46.607  1.00  0.00     0.278 C 
ENDBRANCH  13  18
BRANCH  16  20
ATOM     20  O   UNL     1       5.366  41.668  44.490  1.00  0.00    -0.497 OA
ATOM     21  C   UNL     1       5.725  40.754  43.458  1.00  0.00     0.278 C 
ENDBRANCH  16  20
ENDBRANCH   9  12
ENDBRANCH   7   9
ENDBRANCH   1   7
BRANCH   6  22
ATOM     22  O   UNL     1       2.057  42.984  51.077  1.00  0.00    -0.495 OA
ATOM     23  C   UNL     1       0.706  43.375  50.843  1.00  0.00     0.278 C 
ENDBRANCH   6  22
BRANCH   3  24
ATOM     24  S   UNL     1       6.316  46.391  53.522  1.00  0.00     0.241 S 
ATOM     25  O   UNL     1       6.443  46.026  54.976  1.00  0.00    -0.207 OA
ATOM     26  O   UNL     1       5.943  47.844  53.410  1.00  0.00    -0.207 OA
BRANCH  24  27
ATOM     27  N   UNL     1       7.807  46.034  52.683  1.00  0.00    -0.206 NA
ATOM     28  H   UNL     1       8.192  45.164  53.124  1.00  0.00     0.141 HD
BRANCH  27  29
ATOM     29  C   UNL     1       8.835  47.103  52.676  1.00  0.00     0.025 C 
ATOM     30  C   UNL     1      10.118  46.522  52.042  1.00  0.00     0.028 C 
ATOM     31  C   UNL     1       8.364  48.281  51.793  1.00  0.00     0.028 C 
ATOM     32  C   UNL     1       9.189  47.604  54.094  1.00  0.00     0.028 C 
ENDBRANCH  27  29
ENDBRANCH  24  27
ENDBRANCH   3  24
TORSDOF 9
ENDMDL
MODEL 4
REMARK VINA RESULT:    -8.174      1.627      2.990
REMARK INTER + INTRA:         -12.940
REMARK INTER:                 -12.539
REMARK INTRA:                  -0.401
REMARK UNBOUND:                -0.465
REMARK SMILES COc1cc(OC)cc(S(=O)(=O)Nc2cc(S(=O)(=O)NC(C)(C)C)ccc2OC)c1
REMARK SMILES IDX 14 1 15 2 16 3 25 4 26 5 27 6 13 7 10 9 11 10 12 11 9 12
REMARK SMILES IDX 3 13 4 14 30 15 5 16 8 17 2 18 1 19 6 20 7 21 28 22 29 23
REMARK SMILES IDX 17 24 18 25 19 26 20 27 21 29 22 30 23 31 24 32
REMARK H PARENT 13 8 20 28
ROOT
ATOM      1  C   UNL     1       4.094  42.644  51.418  1.00  0.00     0.092 A 
ATOM      2  C   UNL     1       4.693  43.882  51.717  1.00  0.00     0.052 A 
ATOM      3  C   UNL     1       5.856  44.292  51.057  1.00  0.00     0.084 A 
ATOM      4  C   UNL     1       6.438  43.461  50.094  1.00  0.00     0.026 A 
ATOM      5  C   UNL     1       5.861  42.227  49.791  1.00  0.00     0.050 A 
ATOM      6  C   UNL     1       4.684  41.808  50.444  1.00  0.00     0.143 A 
ENDROOT
BRANCH   1   7
ATOM      7  N   UNL     1       2.890  42.223  52.093  1.00  0.00    -0.276 N 
ATOM      8  H   UNL     1       2.819  41.250  52.466  1.00  0.00     0.180 HD
BRANCH   7   9
ATOM      9  S   UNL     1       1.459  43.199  52.201  1.00  0.00     0.262 S 
ATOM     10  O   UNL     1       1.399  44.124  51.017  1.00  0.00    -0.201 OA
ATOM     11  O   UNL     1       0.248  42.308  52.183  1.00  0.00    -0.201 OA
BRANCH   9  12
ATOM     12  C   UNL     1       1.508  44.167  53.675  1.00  0.00     0.095 A 
ATOM     13  C   UNL     1       2.746  45.510  55.281  1.00  0.00     0.123 A 
ATOM     14  C   UNL     1       1.569  45.658  56.045  1.00  0.00     0.092 A 
ATOM     15  C   UNL     1       2.702  44.768  54.095  1.00  0.00     0.069 A 
ATOM     16  C   UNL     1       0.367  45.072  55.629  1.00  0.00     0.123 A 
ATOM     17  C   UNL     1       0.345  44.321  54.439  1.00  0.00     0.069 A 
BRANCH  13  18
ATOM     18  O   UNL     1       3.971  46.075  55.670  1.00  0.00    -0.497 OA
ATOM     19  C   UNL     1       5.248  45.570  55.290  1.00  0.00     0.278 C 
ENDBRANCH  13  18
BRANCH  16  20
ATOM     20  O   UNL     1      -0.775  45.255  56.426  1.00  0.00    -0.497 OA
ATOM     21  C   UNL     1      -1.046  46.426  57.190  1.00  0.00     0.278 C 
ENDBRANCH  16  20
ENDBRANCH   9  12
ENDBRANCH   7   9
ENDBRANCH   1   7
BRANCH   6  22
ATOM     22  O   UNL     1       4.071  40.581  50.140  1.00  0.00    -0.495 OA
ATOM     23  C   UNL     1       3.537  40.236  48.864  1.00  0.00     0.278 C 
ENDBRANCH   6  22
BRANCH   3  24
ATOM     24  S   UNL     1       6.531  45.876  51.420  1.00  0.00     0.241 S 
ATOM     25  O   UNL     1       5.446  46.797  51.910  1.00  0.00    -0.207 OA
ATOM     26  O   UNL     1       7.123  46.441  50.158  1.00  0.00    -0.207 OA
BRANCH  24  27
ATOM     27  N   UNL     1       7.736  45.656  52.666  1.00  0.00    -0.206 NA
ATOM     28  H   UNL     1       7.221  45.665  53.579  1.00  0.00     0.141 HD
BRANCH  27  29
ATOM     29  C   UNL     1       8.846  46.640  52.695  1.00  0.00     0.025 C 
ATOM     30  C   UNL     1       9.348  46.745  54.151  1.00  0.00     0.028 C 
ATOM     31  C   UNL     1      10.020  46.135  51.825  1.00  0.00     0.028 C 
ATOM     32  C   UNL     1       8.409  48.050  52.238  1.00  0.00     0.028 C 
ENDBRANCH  27  29
ENDBRANCH  24  27
ENDBRANCH   3  24
TORSDOF 9
ENDMDL
MODEL 5
REMARK VINA RESULT:    -8.147      3.554      7.716
REMARK INTER + INTRA:         -12.898
REMARK INTER:                 -12.779
REMARK INTRA:                  -0.119
REMARK UNBOUND:                -0.465
REMARK SMILES COc1cc(OC)cc(S(=O)(=O)Nc2cc(S(=O)(=O)NC(C)(C)C)ccc2OC)c1
REMARK SMILES IDX 14 1 15 2 16 3 25 4 26 5 27 6 13 7 10 9 11 10 12 11 9 12
REMARK SMILES IDX 3 13 4 14 30 15 5 16 8 17 2 18 1 19 6 20 7 21 28 22 29 23
REMARK SMILES IDX 17 24 18 25 19 26 20 27 21 29 22 30 23 31 24 32
REMARK H PARENT 13 8 20 28
ROOT
ATOM      1  C   UNL     1       4.376  43.316  51.711  1.00  0.00     0.092 A 
ATOM      2  C   UNL     1       5.400  44.173  52.154  1.00  0.00     0.052 A 
ATOM      3  C   UNL     1       5.101  45.334  52.874  1.00  0.00     0.084 A 
ATOM      4  C   UNL     1       3.768  45.654  53.153  1.00  0.00     0.026 A 
ATOM      5  C   UNL     1       2.739  44.819  52.715  1.00  0.00     0.050 A 
ATOM      6  C   UNL     1       3.031  43.642  51.996  1.00  0.00     0.143 A 
ENDROOT
BRANCH   1   7
ATOM      7  N   UNL     1       4.683  42.115  50.974  1.00  0.00    -0.276 N 
ATOM      8  H   UNL     1       4.254  41.207  51.262  1.00  0.00     0.180 HD
BRANCH   7   9
ATOM      9  S   UNL     1       5.862  42.043  49.702  1.00  0.00     0.262 S 
ATOM     10  O   UNL     1       6.367  43.431  49.416  1.00  0.00    -0.201 OA
ATOM     11  O   UNL     1       7.017  41.187  50.143  1.00  0.00    -0.201 OA
BRANCH   9  12
ATOM     12  C   UNL     1       5.120  41.397  48.238  1.00  0.00     0.095 A 
ATOM     13  C   UNL     1       4.971  41.292  45.813  1.00  0.00     0.123 A 
ATOM     14  C   UNL     1       3.891  40.393  45.931  1.00  0.00     0.092 A 
ATOM     15  C   UNL     1       5.582  41.783  46.973  1.00  0.00     0.069 A 
ATOM     16  C   UNL     1       3.428  39.991  47.189  1.00  0.00     0.123 A 
ATOM     17  C   UNL     1       4.048  40.503  48.345  1.00  0.00     0.069 A 
BRANCH  13  18
ATOM     18  O   UNL     1       5.458  41.725  44.569  1.00  0.00    -0.497 OA
ATOM     19  C   UNL     1       5.740  40.864  43.469  1.00  0.00     0.278 C 
ENDBRANCH  13  18
BRANCH  16  20
ATOM     20  O   UNL     1       2.351  39.091  47.248  1.00  0.00    -0.497 OA
ATOM     21  C   UNL     1       1.919  38.279  46.161  1.00  0.00     0.278 C 
ENDBRANCH  16  20
ENDBRANCH   9  12
ENDBRANCH   7   9
ENDBRANCH   1   7
BRANCH   6  22
ATOM     22  O   UNL     1       2.014  42.773  51.565  1.00  0.00    -0.495 OA
ATOM     23  C   UNL     1       0.832  43.185  50.883  1.00  0.00     0.278 C 
ENDBRANCH   6  22
BRANCH   3  24
ATOM     24  S   UNL     1       6.421  46.340  53.459  1.00  0.00     0.241 S 
ATOM     25  O   UNL     1       6.675  46.058  54.916  1.00  0.00    -0.207 OA
ATOM     26  O   UNL     1       6.026  47.782  53.299  1.00  0.00    -0.207 OA
BRANCH  24  27
ATOM     27  N   UNL     1       7.838  45.942  52.518  1.00  0.00    -0.206 NA
ATOM     28  H   UNL     1       8.203  45.037  52.903  1.00  0.00     0.141 HD
BRANCH  27  29
ATOM     29  C   UNL     1       8.919  46.958  52.486  1.00  0.00     0.025 C 
ATOM     30  C   UNL     1      10.157  46.310  51.830  1.00  0.00     0.028 C 
ATOM     31  C   UNL     1       8.490  48.155  51.608  1.00  0.00     0.028 C 
ATOM     32  C   UNL     1       9.325  47.445  53.895  1.00  0.00     0.028 C 
ENDBRANCH  27  29
ENDBRANCH  24  27
ENDBRANCH   3  24
TORSDOF 9
ENDMDL
