ligand_94_conformer_1_docked
     RDKit          3D

 52 55  0  0  0  0  0  0  0  0999 V2000
    0.6370   42.5680   53.3150 C   0  0  0  0  0  0  0  0  0  0  0  0
    1.6590   43.5070   52.8260 N   0  0  0  0  0  0  0  0  0  0  0  0
    1.0760   44.3920   51.7980 C   0  0  0  0  0  0  0  0  0  0  0  0
    2.1540   45.3120   51.2170 C   0  0  0  0  0  0  0  0  0  0  0  0
    2.8100   46.1390   52.3260 C   0  0  0  0  0  0  0  0  0  0  0  0
    3.3320   45.2300   53.4520 C   0  0  1  0  0  0  0  0  0  0  0  0
    3.9730   46.0640   54.5070 N   0  0  0  0  0  0  0  0  0  0  0  0
    5.0430   45.4400   55.3160 C   0  0  0  0  0  0  0  0  0  0  0  0
    6.4660   45.9110   54.9400 C   0  0  0  0  0  0  0  0  0  0  0  0
    6.5260   46.5320   53.6080 N   0  0  0  0  0  0  0  0  0  0  0  0
    7.7330   46.3980   52.8280 C   0  0  0  0  0  0  0  0  0  0  0  0
    8.8180   46.1130   53.4080 O   0  0  0  0  0  0  0  0  0  0  0  0
    7.7410   46.6430   51.3400 C   0  0  0  0  0  0  0  0  0  0  0  0
    7.5560   45.3650   50.5790 C   0  0  0  0  0  0  0  0  0  0  0  0
    8.5370   44.8200   49.7520 C   0  0  0  0  0  0  0  0  0  0  0  0
    7.9440   43.3700   49.1430 S   0  0  0  0  0  0  0  0  0  0  0  0
    6.4770   43.4930   49.9580 C   0  0  0  0  0  0  0  0  0  0  0  0
    5.3890   42.5100   49.8980 C   0  0  0  0  0  0  0  0  0  0  0  0
    4.3490   42.3940   50.8110 C   0  0  0  0  0  0  0  0  0  0  0  0
    3.4530   41.3640   50.5000 C   0  0  0  0  0  0  0  0  0  0  0  0
    3.7840   40.6670   49.3450 C   0  0  0  0  0  0  0  0  0  0  0  0
    5.1920   41.3340   48.7110 S   0  0  0  0  0  0  0  0  0  0  0  0
    6.4210   44.6230   50.6960 N   0  0  0  0  0  0  0  0  0  0  0  0
    5.5110   47.5270   53.2200 C   0  0  0  0  0  0  0  0  0  0  0  0
    4.2770   47.4530   54.1220 C   0  0  0  0  0  0  0  0  0  0  0  0
    2.1930   44.3010   53.9500 C   0  0  0  0  0  0  0  0  0  0  0  0
    0.6361   42.5672   54.4150 H   0  0  0  0  0  0  0  0  0  0  0  0
   -0.3522   42.8788   52.9478 H   0  0  0  0  0  0  0  0  0  0  0  0
    0.8631   41.5561   52.9478 H   0  0  0  0  0  0  0  0  0  0  0  0
    0.6485   43.7788   50.9910 H   0  0  0  0  0  0  0  0  0  0  0  0
    0.2899   45.0078   52.2593 H   0  0  0  0  0  0  0  0  0  0  0  0
    2.9214   44.7008   50.7195 H   0  0  0  0  0  0  0  0  0  0  0  0
    1.6853   45.9959   50.4940 H   0  0  0  0  0  0  0  0  0  0  0  0
    3.6514   46.7069   51.9022 H   0  0  0  0  0  0  0  0  0  0  0  0
    2.0581   46.8231   52.7463 H   0  0  0  0  0  0  0  0  0  0  0  0
    4.1196   44.5538   53.0881 H   0  0  0  0  0  0  0  0  0  0  0  0
    4.8651   45.6845   56.3736 H   0  0  0  0  0  0  0  0  0  0  0  0
    5.0021   44.3583   55.1207 H   0  0  0  0  0  0  0  0  0  0  0  0
    6.8018   46.6461   55.6862 H   0  0  0  0  0  0  0  0  0  0  0  0
    7.1154   45.0233   54.9218 H   0  0  0  0  0  0  0  0  0  0  0  0
    6.9234   47.3335   51.0857 H   0  0  0  0  0  0  0  0  0  0  0  0
    8.7140   47.0752   51.0635 H   0  0  0  0  0  0  0  0  0  0  0  0
    9.5220   45.2598   49.5367 H   0  0  0  0  0  0  0  0  0  0  0  0
    4.2401   43.0459   51.6903 H   0  0  0  0  0  0  0  0  0  0  0  0
    2.5701   41.1289   51.1126 H   0  0  0  0  0  0  0  0  0  0  0  0
    3.2217   39.8234   48.9181 H   0  0  0  0  0  0  0  0  0  0  0  0
    5.9495   48.5329   53.2965 H   0  0  0  0  0  0  0  0  0  0  0  0
    5.1964   47.3135   52.1878 H   0  0  0  0  0  0  0  0  0  0  0  0
    4.4628   48.0436   55.0312 H   0  0  0  0  0  0  0  0  0  0  0  0
    3.4172   47.8530   53.5646 H   0  0  0  0  0  0  0  0  0  0  0  0
    2.5877   43.6220   54.7201 H   0  0  0  0  0  0  0  0  0  0  0  0
    1.3849   44.9163   54.3725 H   0  0  0  0  0  0  0  0  0  0  0  0
  1  2  1  0
  2  3  1  0
  3  4  1  0
  4  5  1  0
  5  6  1  0
  6  7  1  0
  7  8  1  0
  8  9  1  0
  9 10  1  0
 10 11  1  0
 11 12  2  0
 11 13  1  0
 13 14  1  0
 14 15  2  0
 15 16  1  0
 16 17  1  0
 17 18  1  0
 18 19  2  0
 19 20  1  0
 20 21  2  0
 21 22  1  0
 17 23  2  0
 10 24  1  0
 24 25  1  0
  6 26  1  0
 26  2  1  0
 25  7  1  0
 23 14  1  0
 22 18  1  0
  1 27  1  0
  1 28  1  0
  1 29  1  0
  3 30  1  0
  3 31  1  0
  4 32  1  0
  4 33  1  0
  5 34  1  0
  5 35  1  0
  6 36  1  6
  8 37  1  0
  8 38  1  0
  9 39  1  0
  9 40  1  0
 13 41  1  0
 13 42  1  0
 15 43  1  0
 19 44  1  0
 20 45  1  0
 21 46  1  0
 24 47  1  0
 24 48  1  0
 25 49  1  0
 25 50  1  0
 26 51  1  0
 26 52  1  0
M  END
>  <meeko>  (1) 
{"is_sidechain": [false], "free_energy": -7.966, "intermolecular_energy": -9.828, "internal_energy": -0.942}

$$$$
ligand_94_conformer_1_docked
     RDKit          3D

 52 55  0  0  0  0  0  0  0  0999 V2000
    8.0340   44.9260   49.8040 C   0  0  0  0  0  0  0  0  0  0  0  0
    8.0660   45.3370   51.2170 N   0  0  0  0  0  0  0  0  0  0  0  0
    9.0910   46.3810   51.4130 C   0  0  0  0  0  0  0  0  0  0  0  0
    9.1950   46.7490   52.8960 C   0  0  0  0  0  0  0  0  0  0  0  0
    7.8400   47.2230   53.4280 C   0  0  0  0  0  0  0  0  0  0  0  0
    6.7430   46.1850   53.1390 C   0  0  1  0  0  0  0  0  0  0  0  0
    5.4420   46.6720   53.6790 N   0  0  0  0  0  0  0  0  0  0  0  0
    4.4530   47.1960   52.7120 C   0  0  0  0  0  0  0  0  0  0  0  0
    3.2780   46.2310   52.4350 C   0  0  0  0  0  0  0  0  0  0  0  0
    3.5770   44.8450   52.8290 N   0  0  0  0  0  0  0  0  0  0  0  0
    2.9840   43.7630   52.0790 C   0  0  0  0  0  0  0  0  0  0  0  0
    1.9540   43.9820   51.3830 O   0  0  0  0  0  0  0  0  0  0  0  0
    3.5350   42.3610   52.1510 C   0  0  0  0  0  0  0  0  0  0  0  0
    4.1320   41.9460   50.8400 C   0  0  0  0  0  0  0  0  0  0  0  0
    5.4570   42.1970   50.4900 C   0  0  0  0  0  0  0  0  0  0  0  0
    5.7230   41.5190   48.9750 S   0  0  0  0  0  0  0  0  0  0  0  0
    4.1530   40.9330   48.8330 C   0  0  0  0  0  0  0  0  0  0  0  0
    3.6310   40.1780   47.6870 C   0  0  0  0  0  0  0  0  0  0  0  0
    3.0470   38.9180   47.7440 C   0  0  0  0  0  0  0  0  0  0  0  0
    2.6390   38.4420   46.4920 C   0  0  0  0  0  0  0  0  0  0  0  0
    2.9000   39.3210   45.4490 C   0  0  0  0  0  0  0  0  0  0  0  0
    3.6380   40.6920   46.0850 S   0  0  0  0  0  0  0  0  0  0  0  0
    3.4160   41.2390   49.9230 N   0  0  0  0  0  0  0  0  0  0  0  0
    4.1960   44.5760   54.1380 C   0  0  0  0  0  0  0  0  0  0  0  0
    4.8360   45.8340   54.7270 C   0  0  0  0  0  0  0  0  0  0  0  0
    6.7370   45.8330   51.6260 C   0  0  0  0  0  0  0  0  0  0  0  0
    7.9487   43.8310   49.7425 H   0  0  0  0  0  0  0  0  0  0  0  0
    7.1692   45.3896   49.3068 H   0  0  0  0  0  0  0  0  0  0  0  0
    8.9601   45.2502   49.3068 H   0  0  0  0  0  0  0  0  0  0  0  0
   10.0638   46.0053   51.0629 H   0  0  0  0  0  0  0  0  0  0  0  0
    8.8056   47.2759   50.8405 H   0  0  0  0  0  0  0  0  0  0  0  0
    9.5187   45.8657   53.4661 H   0  0  0  0  0  0  0  0  0  0  0  0
    9.9260   47.5631   53.0097 H   0  0  0  0  0  0  0  0  0  0  0  0
    7.9135   47.3762   54.5148 H   0  0  0  0  0  0  0  0  0  0  0  0
    7.5746   48.1641   52.9242 H   0  0  0  0  0  0  0  0  0  0  0  0
    6.9430   45.2359   53.6578 H   0  0  0  0  0  0  0  0  0  0  0  0
    4.0431   48.1358   53.1104 H   0  0  0  0  0  0  0  0  0  0  0  0
    4.9823   47.3377   51.7582 H   0  0  0  0  0  0  0  0  0  0  0  0
    2.3990   46.5756   52.9994 H   0  0  0  0  0  0  0  0  0  0  0  0
    3.0924   46.2357   51.3508 H   0  0  0  0  0  0  0  0  0  0  0  0
    4.3123   42.3203   52.9283 H   0  0  0  0  0  0  0  0  0  0  0  0
    2.7102   41.6741   52.3915 H   0  0  0  0  0  0  0  0  0  0  0  0
    6.1963   42.7411   51.0962 H   0  0  0  0  0  0  0  0  0  0  0  0
    2.9183   38.3519   48.6783 H   0  0  0  0  0  0  0  0  0  0  0  0
    2.1570   37.4637   46.3481 H   0  0  0  0  0  0  0  0  0  0  0  0
    2.6644   39.1498   44.3883 H   0  0  0  0  0  0  0  0  0  0  0  0
    3.4229   44.2111   54.8303 H   0  0  0  0  0  0  0  0  0  0  0  0
    4.9847   43.8222   53.9974 H   0  0  0  0  0  0  0  0  0  0  0  0
    4.0632   46.4174   55.2489 H   0  0  0  0  0  0  0  0  0  0  0  0
    5.6294   45.5242   55.4231 H   0  0  0  0  0  0  0  0  0  0  0  0
    5.9835   45.0544   51.4363 H   0  0  0  0  0  0  0  0  0  0  0  0
    6.4949   46.7361   51.0464 H   0  0  0  0  0  0  0  0  0  0  0  0
  1  2  1  0
  2  3  1  0
  3  4  1  0
  4  5  1  0
  5  6  1  0
  6  7  1  0
  7  8  1  0
  8  9  1  0
  9 10  1  0
 10 11  1  0
 11 12  2  0
 11 13  1  0
 13 14  1  0
 14 15  2  0
 15 16  1  0
 16 17  1  0
 17 18  1  0
 18 19  2  0
 19 20  1  0
 20 21  2  0
 21 22  1  0
 17 23  2  0
 10 24  1  0
 24 25  1  0
  6 26  1  0
 26  2  1  0
 25  7  1  0
 23 14  1  0
 22 18  1  0
  1 27  1  0
  1 28  1  0
  1 29  1  0
  3 30  1  0
  3 31  1  0
  4 32  1  0
  4 33  1  0
  5 34  1  0
  5 35  1  0
  6 36  1  1
  8 37  1  0
  8 38  1  0
  9 39  1  0
  9 40  1  0
 13 41  1  0
 13 42  1  0
 15 43  1  0
 19 44  1  0
 20 45  1  0
 21 46  1  0
 24 47  1  0
 24 48  1  0
 25 49  1  0
 25 50  1  0
 26 51  1  0
 26 52  1  0
M  END
>  <meeko>  (2) 
{"is_sidechain": [false], "free_energy": -7.583, "intermolecular_energy": -9.511, "internal_energy": -0.788}

$$$$
ligand_94_conformer_1_docked
     RDKit          3D

 52 55  0  0  0  0  0  0  0  0999 V2000
    6.4220   41.2540   49.7750 C   0  0  0  0  0  0  0  0  0  0  0  0
    5.8600   42.3890   50.5240 N   0  0  0  0  0  0  0  0  0  0  0  0
    6.3510   43.6590   49.9530 C   0  0  0  0  0  0  0  0  0  0  0  0
    5.8450   44.8430   50.7820 C   0  0  0  0  0  0  0  0  0  0  0  0
    4.3150   44.8410   50.8440 C   0  0  0  0  0  0  0  0  0  0  0  0
    3.7890   43.4850   51.3430 C   0  0  1  0  0  0  0  0  0  0  0  0
    2.3000   43.5210   51.4030 N   0  0  0  0  0  0  0  0  0  0  0  0
    1.6350   42.6690   52.4130 C   0  0  0  0  0  0  0  0  0  0  0  0
    1.0920   43.4510   53.6300 C   0  0  0  0  0  0  0  0  0  0  0  0
    1.7010   44.7840   53.7660 N   0  0  0  0  0  0  0  0  0  0  0  0
    1.8760   45.3410   55.0870 C   0  0  0  0  0  0  0  0  0  0  0  0
    1.1840   44.8940   56.0450 O   0  0  0  0  0  0  0  0  0  0  0  0
    2.8270   46.4820   55.3410 C   0  0  0  0  0  0  0  0  0  0  0  0
    4.2470   46.0710   55.0930 C   0  0  0  0  0  0  0  0  0  0  0  0
    4.8060   44.9040   55.6100 C   0  0  0  0  0  0  0  0  0  0  0  0
    6.3860   44.8000   55.0460 S   0  0  0  0  0  0  0  0  0  0  0  0
    6.2900   46.2310   54.1670 C   0  0  0  0  0  0  0  0  0  0  0  0
    7.3730   46.8050   53.3600 C   0  0  0  0  0  0  0  0  0  0  0  0
    7.2320   47.8070   52.4070 C   0  0  0  0  0  0  0  0  0  0  0  0
    8.4400   48.1570   51.7930 C   0  0  0  0  0  0  0  0  0  0  0  0
    9.5320   47.4350   52.2560 C   0  0  0  0  0  0  0  0  0  0  0  0
    8.9940   46.3600   53.4320 S   0  0  0  0  0  0  0  0  0  0  0  0
    5.0690   46.7980   54.2880 N   0  0  0  0  0  0  0  0  0  0  0  0
    1.8290   45.6520   52.5830 C   0  0  0  0  0  0  0  0  0  0  0  0
    1.6910   44.8570   51.2840 C   0  0  0  0  0  0  0  0  0  0  0  0
    4.3850   42.3390   50.4820 C   0  0  0  0  0  0  0  0  0  0  0  0
    6.7963   40.4981   50.4810 H   0  0  0  0  0  0  0  0  0  0  0  0
    5.6400   40.8092   49.1420 H   0  0  0  0  0  0  0  0  0  0  0  0
    7.2498   41.6063   49.1420 H   0  0  0  0  0  0  0  0  0  0  0  0
    7.4510   43.6573   49.9559 H   0  0  0  0  0  0  0  0  0  0  0  0
    5.9779   43.7570   48.9228 H   0  0  0  0  0  0  0  0  0  0  0  0
    6.2485   44.7687   51.8026 H   0  0  0  0  0  0  0  0  0  0  0  0
    6.1801   45.7774   50.3081 H   0  0  0  0  0  0  0  0  0  0  0  0
    3.9812   45.6321   51.5315 H   0  0  0  0  0  0  0  0  0  0  0  0
    3.9216   45.0205   49.8326 H   0  0  0  0  0  0  0  0  0  0  0  0
    4.1233   43.2795   52.3706 H   0  0  0  0  0  0  0  0  0  0  0  0
    0.7931   42.1515   51.9298 H   0  0  0  0  0  0  0  0  0  0  0  0
    2.3956   41.9718   52.7942 H   0  0  0  0  0  0  0  0  0  0  0  0
    0.0047   43.5709   53.5147 H   0  0  0  0  0  0  0  0  0  0  0  0
    1.3442   42.8766   54.5336 H   0  0  0  0  0  0  0  0  0  0  0  0
    2.5730   47.3165   54.6709 H   0  0  0  0  0  0  0  0  0  0  0  0
    2.7318   46.7864   56.3937 H   0  0  0  0  0  0  0  0  0  0  0  0
    4.3035   44.1806   56.2690 H   0  0  0  0  0  0  0  0  0  0  0  0
    6.2686   48.2772   52.1604 H   0  0  0  0  0  0  0  0  0  0  0  0
    8.5172   48.9318   51.0160 H   0  0  0  0  0  0  0  0  0  0  0  0
   10.5709   47.5470   51.9124 H   0  0  0  0  0  0  0  0  0  0  0  0
    1.0422   46.4199   52.6169 H   0  0  0  0  0  0  0  0  0  0  0  0
    2.8280   46.1122   52.6003 H   0  0  0  0  0  0  0  0  0  0  0  0
    0.6231   44.7434   51.0459 H   0  0  0  0  0  0  0  0  0  0  0  0
    2.2132   45.4052   50.4860 H   0  0  0  0  0  0  0  0  0  0  0  0
    4.0422   41.3711   50.8765 H   0  0  0  0  0  0  0  0  0  0  0  0
    4.0497   42.4581   49.4412 H   0  0  0  0  0  0  0  0  0  0  0  0
  1  2  1  0
  2  3  1  0
  3  4  1  0
  4  5  1  0
  5  6  1  0
  6  7  1  0
  7  8  1  0
  8  9  1  0
  9 10  1  0
 10 11  1  0
 11 12  2  0
 11 13  1  0
 13 14  1  0
 14 15  2  0
 15 16  1  0
 16 17  1  0
 17 18  1  0
 18 19  2  0
 19 20  1  0
 20 21  2  0
 21 22  1  0
 17 23  2  0
 10 24  1  0
 24 25  1  0
  6 26  1  0
 26  2  1  0
 25  7  1  0
 23 14  1  0
 22 18  1  0
  1 27  1  0
  1 28  1  0
  1 29  1  0
  3 30  1  0
  3 31  1  0
  4 32  1  0
  4 33  1  0
  5 34  1  0
  5 35  1  0
  6 36  1  1
  8 37  1  0
  8 38  1  0
  9 39  1  0
  9 40  1  0
 13 41  1  0
 13 42  1  0
 15 43  1  0
 19 44  1  0
 20 45  1  0
 21 46  1  0
 24 47  1  0
 24 48  1  0
 25 49  1  0
 25 50  1  0
 26 51  1  0
 26 52  1  0
M  END
>  <meeko>  (3) 
{"is_sidechain": [false], "free_energy": -7.369, "intermolecular_energy": -9.287, "internal_energy": -0.747}

$$$$
ligand_94_conformer_1_docked
     RDKit          3D

 52 55  0  0  0  0  0  0  0  0999 V2000
    0.9480   45.9120   56.9030 C   0  0  0  0  0  0  0  0  0  0  0  0
   -0.0430   44.8860   56.5400 N   0  0  0  0  0  0  0  0  0  0  0  0
   -1.3180   45.1530   57.2350 C   0  0  0  0  0  0  0  0  0  0  0  0
   -2.3270   44.0410   56.9360 C   0  0  0  0  0  0  0  0  0  0  0  0
   -2.5550   43.9130   55.4280 C   0  0  0  0  0  0  0  0  0  0  0  0
   -1.2220   43.7350   54.6840 C   0  0  1  0  0  0  0  0  0  0  0  0
   -1.4810   43.6020   53.2230 N   0  0  0  0  0  0  0  0  0  0  0  0
   -1.4050   44.8300   52.4000 C   0  0  0  0  0  0  0  0  0  0  0  0
   -0.1240   44.9290   51.5420 C   0  0  0  0  0  0  0  0  0  0  0  0
    0.9470   44.0360   52.0150 N   0  0  0  0  0  0  0  0  0  0  0  0
    2.3210   44.4430   51.8440 C   0  0  0  0  0  0  0  0  0  0  0  0
    2.6060   45.3200   50.9810 O   0  0  0  0  0  0  0  0  0  0  0  0
    3.4350   43.8060   52.6350 C   0  0  0  0  0  0  0  0  0  0  0  0
    4.3740   44.8400   53.1800 C   0  0  0  0  0  0  0  0  0  0  0  0
    4.0520   45.6780   54.2460 C   0  0  0  0  0  0  0  0  0  0  0  0
    5.3950   46.6350   54.5670 S   0  0  0  0  0  0  0  0  0  0  0  0
    6.3260   45.9430   53.3490 C   0  0  0  0  0  0  0  0  0  0  0  0
    7.7110   46.3080   53.0270 C   0  0  0  0  0  0  0  0  0  0  0  0
    8.6560   46.7800   53.9300 C   0  0  0  0  0  0  0  0  0  0  0  0
    9.8970   47.0470   53.3400 C   0  0  0  0  0  0  0  0  0  0  0  0
    9.9330   46.7900   51.9760 C   0  0  0  0  0  0  0  0  0  0  0  0
    8.4200   46.2280   51.5040 S   0  0  0  0  0  0  0  0  0  0  0  0
    5.6360   44.9840   52.6910 N   0  0  0  0  0  0  0  0  0  0  0  0
    0.6340   42.6380   52.3540 C   0  0  0  0  0  0  0  0  0  0  0  0
   -0.8670   42.4330   52.5720 C   0  0  0  0  0  0  0  0  0  0  0  0
   -0.2430   44.8740   55.0780 C   0  0  0  0  0  0  0  0  0  0  0  0
    1.0172   45.9836   57.9985 H   0  0  0  0  0  0  0  0  0  0  0  0
    1.9297   45.6356   56.4909 H   0  0  0  0  0  0  0  0  0  0  0  0
    0.6377   46.8835   56.4909 H   0  0  0  0  0  0  0  0  0  0  0  0
   -1.1381   45.1983   58.3192 H   0  0  0  0  0  0  0  0  0  0  0  0
   -1.7254   46.1115   56.8812 H   0  0  0  0  0  0  0  0  0  0  0  0
   -1.9406   43.0876   57.3256 H   0  0  0  0  0  0  0  0  0  0  0  0
   -3.2831   44.2897   57.4198 H   0  0  0  0  0  0  0  0  0  0  0  0
   -3.1952   43.0399   55.2336 H   0  0  0  0  0  0  0  0  0  0  0  0
   -3.0386   44.8326   55.0668 H   0  0  0  0  0  0  0  0  0  0  0  0
   -0.7186   42.8033   54.9817 H   0  0  0  0  0  0  0  0  0  0  0  0
   -2.2751   44.8508   51.7273 H   0  0  0  0  0  0  0  0  0  0  0  0
   -1.3899   45.6813   53.0965 H   0  0  0  0  0  0  0  0  0  0  0  0
   -0.3735   44.6607   50.5048 H   0  0  0  0  0  0  0  0  0  0  0  0
    0.2472   45.9618   51.6169 H   0  0  0  0  0  0  0  0  0  0  0  0
    3.0017   43.2384   53.4717 H   0  0  0  0  0  0  0  0  0  0  0  0
    4.0004   43.1406   51.9660 H   0  0  0  0  0  0  0  0  0  0  0  0
    3.0913   45.7075   54.7810 H   0  0  0  0  0  0  0  0  0  0  0  0
    8.4497   46.9288   55.0002 H   0  0  0  0  0  0  0  0  0  0  0  0
   10.7625   47.4249   53.9040 H   0  0  0  0  0  0  0  0  0  0  0  0
   10.8025   46.9301   51.3169 H   0  0  0  0  0  0  0  0  0  0  0  0
    0.9672   41.9881   51.5314 H   0  0  0  0  0  0  0  0  0  0  0  0
    1.1548   42.3862   53.2896 H   0  0  0  0  0  0  0  0  0  0  0  0
   -1.3511   42.2709   51.5976 H   0  0  0  0  0  0  0  0  0  0  0  0
   -1.0051   41.5603   53.2272 H   0  0  0  0  0  0  0  0  0  0  0  0
    0.7240   44.7115   54.5796 H   0  0  0  0  0  0  0  0  0  0  0  0
   -0.6676   45.8390   54.7642 H   0  0  0  0  0  0  0  0  0  0  0  0
  1  2  1  0
  2  3  1  0
  3  4  1  0
  4  5  1  0
  5  6  1  0
  6  7  1  0
  7  8  1  0
  8  9  1  0
  9 10  1  0
 10 11  1  0
 11 12  2  0
 11 13  1  0
 13 14  1  0
 14 15  2  0
 15 16  1  0
 16 17  1  0
 17 18  1  0
 18 19  2  0
 19 20  1  0
 20 21  2  0
 21 22  1  0
 17 23  2  0
 10 24  1  0
 24 25  1  0
  6 26  1  0
 26  2  1  0
 25  7  1  0
 23 14  1  0
 22 18  1  0
  1 27  1  0
  1 28  1  0
  1 29  1  0
  3 30  1  0
  3 31  1  0
  4 32  1  0
  4 33  1  0
  5 34  1  0
  5 35  1  0
  6 36  1  1
  8 37  1  0
  8 38  1  0
  9 39  1  0
  9 40  1  0
 13 41  1  0
 13 42  1  0
 15 43  1  0
 19 44  1  0
 20 45  1  0
 21 46  1  0
 24 47  1  0
 24 48  1  0
 25 49  1  0
 25 50  1  0
 26 51  1  0
 26 52  1  0
M  END
>  <meeko>  (4) 
{"is_sidechain": [false], "free_energy": -7.305, "intermolecular_energy": -9.386, "internal_energy": -0.57}

$$$$
ligand_94_conformer_1_docked
     RDKit          3D

 52 55  0  0  0  0  0  0  0  0999 V2000
    3.4930   40.9690   50.0870 C   0  0  0  0  0  0  0  0  0  0  0  0
    4.7650   41.6330   50.4160 N   0  0  0  0  0  0  0  0  0  0  0  0
    5.7110   41.4870   49.2920 C   0  0  0  0  0  0  0  0  0  0  0  0
    7.0680   42.0940   49.6600 C   0  0  0  0  0  0  0  0  0  0  0  0
    6.9110   43.5700   50.0390 C   0  0  0  0  0  0  0  0  0  0  0  0
    5.8520   43.7430   51.1400 C   0  0  1  0  0  0  0  0  0  0  0  0
    5.7330   45.1860   51.4930 N   0  0  0  0  0  0  0  0  0  0  0  0
    4.8670   46.0300   50.6400 C   0  0  0  0  0  0  0  0  0  0  0  0
    3.5120   46.3890   51.2900 C   0  0  0  0  0  0  0  0  0  0  0  0
    3.1630   45.4980   52.4080 N   0  0  0  0  0  0  0  0  0  0  0  0
    1.7720   45.2100   52.6640 C   0  0  0  0  0  0  0  0  0  0  0  0
    0.8840   45.9880   52.2160 O   0  0  0  0  0  0  0  0  0  0  0  0
    1.3540   44.0290   53.5020 C   0  0  0  0  0  0  0  0  0  0  0  0
    0.3790   44.4360   54.5660 C   0  0  0  0  0  0  0  0  0  0  0  0
   -0.9000   43.8950   54.6770 C   0  0  0  0  0  0  0  0  0  0  0  0
   -1.6300   44.5820   56.0260 S   0  0  0  0  0  0  0  0  0  0  0  0
   -0.2930   45.5270   56.4130 C   0  0  0  0  0  0  0  0  0  0  0  0
   -0.2050   46.4440   57.5560 C   0  0  0  0  0  0  0  0  0  0  0  0
    0.9260   46.6680   58.3310 C   0  0  0  0  0  0  0  0  0  0  0  0
    0.7170   47.5980   59.3560 C   0  0  0  0  0  0  0  0  0  0  0  0
   -0.5750   48.1070   59.3930 C   0  0  0  0  0  0  0  0  0  0  0  0
   -1.4570   47.3990   58.1490 S   0  0  0  0  0  0  0  0  0  0  0  0
    0.7140   45.3330   55.5330 N   0  0  0  0  0  0  0  0  0  0  0  0
    4.1780   45.1740   53.4260 C   0  0  0  0  0  0  0  0  0  0  0  0
    5.5920   45.4800   52.9290 C   0  0  0  0  0  0  0  0  0  0  0  0
    4.5260   43.0600   50.7090 C   0  0  0  0  0  0  0  0  0  0  0  0
    2.9707   40.6964   51.0159 H   0  0  0  0  0  0  0  0  0  0  0  0
    2.8633   41.6534   49.4996 H   0  0  0  0  0  0  0  0  0  0  0  0
    3.6945   40.0611   49.4996 H   0  0  0  0  0  0  0  0  0  0  0  0
    5.8409   40.4190   49.0629 H   0  0  0  0  0  0  0  0  0  0  0  0
    5.3088   42.0135   48.4139 H   0  0  0  0  0  0  0  0  0  0  0  0
    7.4909   41.5441   50.5137 H   0  0  0  0  0  0  0  0  0  0  0  0
    7.7383   42.0194   48.7910 H   0  0  0  0  0  0  0  0  0  0  0  0
    7.8756   43.9530   50.4035 H   0  0  0  0  0  0  0  0  0  0  0  0
    6.5877   44.1294   49.1488 H   0  0  0  0  0  0  0  0  0  0  0  0
    6.1523   43.2335   52.0675 H   0  0  0  0  0  0  0  0  0  0  0  0
    5.4035   46.9642   50.4178 H   0  0  0  0  0  0  0  0  0  0  0  0
    4.6437   45.4474   49.7341 H   0  0  0  0  0  0  0  0  0  0  0  0
    3.5651   47.4212   51.6664 H   0  0  0  0  0  0  0  0  0  0  0  0
    2.7345   46.2753   50.5202 H   0  0  0  0  0  0  0  0  0  0  0  0
    0.8825   43.2771   52.8522 H   0  0  0  0  0  0  0  0  0  0  0  0
    2.2485   43.6145   53.9899 H   0  0  0  0  0  0  0  0  0  0  0  0
   -1.3510   43.1519   54.0029 H   0  0  0  0  0  0  0  0  0  0  0  0
    1.8887   46.1652   58.1567 H   0  0  0  0  0  0  0  0  0  0  0  0
    1.5022   47.8977   60.0657 H   0  0  0  0  0  0  0  0  0  0  0  0
   -0.9558   48.8465   60.1128 H   0  0  0  0  0  0  0  0  0  0  0  0
    3.9804   45.7698   54.3293 H   0  0  0  0  0  0  0  0  0  0  0  0
    4.1154   44.0976   53.6438 H   0  0  0  0  0  0  0  0  0  0  0  0
    5.8083   46.5450   53.0990 H   0  0  0  0  0  0  0  0  0  0  0  0
    6.2984   44.8445   53.4831 H   0  0  0  0  0  0  0  0  0  0  0  0
    3.7905   43.1466   51.5223 H   0  0  0  0  0  0  0  0  0  0  0  0
    4.1423   43.5549   49.8047 H   0  0  0  0  0  0  0  0  0  0  0  0
  1  2  1  0
  2  3  1  0
  3  4  1  0
  4  5  1  0
  5  6  1  0
  6  7  1  0
  7  8  1  0
  8  9  1  0
  9 10  1  0
 10 11  1  0
 11 12  2  0
 11 13  1  0
 13 14  1  0
 14 15  2  0
 15 16  1  0
 16 17  1  0
 17 18  1  0
 18 19  2  0
 19 20  1  0
 20 21  2  0
 21 22  1  0
 17 23  2  0
 10 24  1  0
 24 25  1  0
  6 26  1  0
 26  2  1  0
 25  7  1  0
 23 14  1  0
 22 18  1  0
  1 27  1  0
  1 28  1  0
  1 29  1  0
  3 30  1  0
  3 31  1  0
  4 32  1  0
  4 33  1  0
  5 34  1  0
  5 35  1  0
  6 36  1  1
  8 37  1  0
  8 38  1  0
  9 39  1  0
  9 40  1  0
 13 41  1  0
 13 42  1  0
 15 43  1  0
 19 44  1  0
 20 45  1  0
 21 46  1  0
 24 47  1  0
 24 48  1  0
 25 49  1  0
 25 50  1  0
 26 51  1  0
 26 52  1  0
M  END
>  <meeko>  (5) 
{"is_sidechain": [false], "free_energy": -7.13, "intermolecular_energy": -9.311, "internal_energy": -0.429}

$$$$
