MODEL 1
REMARK VINA RESULT:    -9.033      0.000      0.000
REMARK INTER + INTRA:         -12.183
REMARK INTER:                 -11.673
REMARK INTRA:                  -0.510
REMARK UNBOUND:                -0.510
REMARK SMILES O=C(c1ccc(-n2cnc3ccccc32)cc1)N1CCC[C@](O)(CO)C1
REMARK SMILES IDX 18 1 19 2 20 3 21 4 22 5 26 6 2 7 1 8 3 9 4 10 17 11 5 12
REMARK SMILES IDX 16 13 6 14 7 15 8 16 15 17 9 18 14 19 10 20 13 21 11 22
REMARK SMILES IDX 12 23 23 24 24 26 25 27
REMARK H PARENT 23 25 25 28
ROOT
ATOM      1  N   UNL     1       8.182  45.737  51.221  1.00  0.00    -0.336 N 
ATOM      2  C   UNL     1       9.624  45.439  51.164  1.00  0.00     0.120 C 
ATOM      3  C   UNL     1      10.442  46.430  51.998  1.00  0.00     0.025 C 
ATOM      4  C   UNL     1       9.778  46.627  53.362  1.00  0.00     0.041 C 
ATOM      5  C   UNL     1       8.338  47.222  53.237  1.00  0.00     0.105 C 
ATOM      6  C   UNL     1       7.720  46.997  51.822  1.00  0.00     0.157 C 
ENDROOT
BRANCH   1   7
ATOM      7  C   UNL     1       7.285  44.995  50.374  1.00  0.00     0.253 C 
ATOM      8  O   UNL     1       7.700  44.552  49.268  1.00  0.00    -0.269 OA
BRANCH   7   9
ATOM      9  C   UNL     1       5.883  44.735  50.772  1.00  0.00     0.040 A 
ATOM     10  C   UNL     1       5.481  43.440  51.138  1.00  0.00     0.016 A 
ATOM     11  C   UNL     1       4.926  45.763  50.742  1.00  0.00     0.016 A 
ATOM     12  C   UNL     1       4.156  43.185  51.501  1.00  0.00     0.027 A 
ATOM     13  C   UNL     1       3.600  45.507  51.105  1.00  0.00     0.027 A 
ATOM     14  C   UNL     1       3.209  44.220  51.504  1.00  0.00     0.047 A 
BRANCH  14  15
ATOM     15  N   UNL     1       1.843  43.948  51.866  1.00  0.00    -0.299 N 
ATOM     16  C   UNL     1       0.895  43.383  51.076  1.00  0.00     0.205 A 
ATOM     17  C   UNL     1       1.211  44.188  53.028  1.00  0.00     0.073 A 
ATOM     18  N   UNL     1      -0.312  43.263  51.688  1.00  0.00    -0.236 NA
ATOM     19  C   UNL     1       1.716  44.698  54.228  1.00  0.00     0.029 A 
ATOM     20  C   UNL     1      -0.085  43.776  52.911  1.00  0.00     0.089 A 
ATOM     21  C   UNL     1       0.828  44.813  55.313  1.00  0.00     0.002 A 
ATOM     22  C   UNL     1      -0.988  43.873  53.968  1.00  0.00     0.030 A 
ATOM     23  C   UNL     1      -0.520  44.406  55.183  1.00  0.00     0.002 A 
ENDBRANCH  14  15
ENDBRANCH   7   9
ENDBRANCH   1   7
BRANCH   5  24
ATOM     24  O   UNL     1       8.385  48.608  53.492  1.00  0.00    -0.386 OA
ATOM     25  H   UNL     1       8.585  48.737  54.456  1.00  0.00     0.211 HD
ENDBRANCH   5  24
BRANCH   5  26
ATOM     26  C   UNL     1       7.422  46.602  54.317  1.00  0.00     0.193 C 
BRANCH  26  27
ATOM     27  O   UNL     1       6.317  47.427  54.587  1.00  0.00    -0.393 OA
ATOM     28  H   UNL     1       5.500  46.902  54.387  1.00  0.00     0.210 HD
ENDBRANCH  26  27
ENDBRANCH   5  26
TORSDOF 6
ENDMDL
MODEL 2
REMARK VINA RESULT:    -8.832      3.170      8.032
REMARK INTER + INTRA:         -11.924
REMARK INTER:                 -11.099
REMARK INTRA:                  -0.824
REMARK UNBOUND:                -0.510
REMARK SMILES O=C(c1ccc(-n2cnc3ccccc32)cc1)N1CCC[C@](O)(CO)C1
REMARK SMILES IDX 18 1 19 2 20 3 21 4 22 5 26 6 2 7 1 8 3 9 4 10 17 11 5 12
REMARK SMILES IDX 16 13 6 14 7 15 8 16 15 17 9 18 14 19 10 20 13 21 11 22
REMARK SMILES IDX 12 23 23 24 24 26 25 27
REMARK H PARENT 23 25 25 28
ROOT
ATOM      1  N   UNL     1       0.528  44.215  52.505  1.00  0.00    -0.336 N 
ATOM      2  C   UNL     1       0.984  43.953  53.882  1.00  0.00     0.120 C 
ATOM      3  C   UNL     1       0.035  44.561  54.920  1.00  0.00     0.025 C 
ATOM      4  C   UNL     1      -1.413  44.242  54.543  1.00  0.00     0.041 C 
ATOM      5  C   UNL     1      -1.811  44.848  53.158  1.00  0.00     0.105 C 
ATOM      6  C   UNL     1      -0.569  45.164  52.268  1.00  0.00     0.157 C 
ENDROOT
BRANCH   1   7
ATOM      7  C   UNL     1       1.383  43.842  51.408  1.00  0.00     0.253 C 
ATOM      8  O   UNL     1       0.915  43.145  50.467  1.00  0.00    -0.269 OA
BRANCH   7   9
ATOM      9  C   UNL     1       2.802  44.262  51.357  1.00  0.00     0.040 A 
ATOM     10  C   UNL     1       3.823  43.324  51.582  1.00  0.00     0.016 A 
ATOM     11  C   UNL     1       3.146  45.605  51.135  1.00  0.00     0.016 A 
ATOM     12  C   UNL     1       5.164  43.717  51.551  1.00  0.00     0.027 A 
ATOM     13  C   UNL     1       4.487  45.997  51.104  1.00  0.00     0.027 A 
ATOM     14  C   UNL     1       5.508  45.053  51.294  1.00  0.00     0.047 A 
BRANCH  14  15
ATOM     15  N   UNL     1       6.889  45.453  51.276  1.00  0.00    -0.299 N 
ATOM     16  C   UNL     1       7.780  45.239  50.275  1.00  0.00     0.205 A 
ATOM     17  C   UNL     1       7.594  46.105  52.217  1.00  0.00     0.073 A 
ATOM     18  N   UNL     1       9.021  45.720  50.548  1.00  0.00    -0.236 NA
ATOM     19  C   UNL     1       7.171  46.638  53.439  1.00  0.00     0.029 A 
ATOM     20  C   UNL     1       8.876  46.258  51.773  1.00  0.00     0.089 A 
ATOM     21  C   UNL     1       8.124  47.310  54.224  1.00  0.00     0.002 A 
ATOM     22  C   UNL     1       9.843  46.922  52.525  1.00  0.00     0.030 A 
ATOM     23  C   UNL     1       9.457  47.449  53.771  1.00  0.00     0.002 A 
ENDBRANCH  14  15
ENDBRANCH   7   9
ENDBRANCH   1   7
BRANCH   5  24
ATOM     24  O   UNL     1      -2.533  46.040  53.363  1.00  0.00    -0.386 OA
ATOM     25  H   UNL     1      -3.252  45.855  54.023  1.00  0.00     0.211 HD
ENDBRANCH   5  24
BRANCH   5  26
ATOM     26  C   UNL     1      -2.756  43.875  52.416  1.00  0.00     0.193 C 
BRANCH  26  27
ATOM     27  O   UNL     1      -2.415  42.536  52.669  1.00  0.00    -0.393 OA
ATOM     28  H   UNL     1      -1.519  42.535  53.096  1.00  0.00     0.210 HD
ENDBRANCH  26  27
ENDBRANCH   5  26
TORSDOF 6
ENDMDL
MODEL 3
REMARK VINA RESULT:    -8.823      2.917      8.058
REMARK INTER + INTRA:         -11.912
REMARK INTER:                 -11.158
REMARK INTRA:                  -0.753
REMARK UNBOUND:                -0.510
REMARK SMILES O=C(c1ccc(-n2cnc3ccccc32)cc1)N1CCC[C@](O)(CO)C1
REMARK SMILES IDX 18 1 19 2 20 3 21 4 22 5 26 6 2 7 1 8 3 9 4 10 17 11 5 12
REMARK SMILES IDX 16 13 6 14 7 15 8 16 15 17 9 18 14 19 10 20 13 21 11 22
REMARK SMILES IDX 12 23 23 24 24 26 25 27
REMARK H PARENT 23 25 25 28
ROOT
ATOM      1  N   UNL     1       0.053  43.885  51.994  1.00  0.00    -0.336 N 
ATOM      2  C   UNL     1      -1.092  44.449  51.257  1.00  0.00     0.120 C 
ATOM      3  C   UNL     1      -2.384  44.383  52.078  1.00  0.00     0.025 C 
ATOM      4  C   UNL     1      -2.113  44.858  53.506  1.00  0.00     0.041 C 
ATOM      5  C   UNL     1      -1.065  43.959  54.239  1.00  0.00     0.105 C 
ATOM      6  C   UNL     1      -0.177  43.148  53.245  1.00  0.00     0.157 C 
ENDROOT
BRANCH   1   7
ATOM      7  C   UNL     1       1.311  43.732  51.311  1.00  0.00     0.253 C 
ATOM      8  O   UNL     1       1.363  43.049  50.253  1.00  0.00    -0.269 OA
BRANCH   7   9
ATOM      9  C   UNL     1       2.549  44.364  51.823  1.00  0.00     0.040 A 
ATOM     10  C   UNL     1       3.451  43.619  52.601  1.00  0.00     0.016 A 
ATOM     11  C   UNL     1       2.814  45.722  51.584  1.00  0.00     0.016 A 
ATOM     12  C   UNL     1       4.614  44.213  53.099  1.00  0.00     0.027 A 
ATOM     13  C   UNL     1       3.977  46.315  52.084  1.00  0.00     0.027 A 
ATOM     14  C   UNL     1       4.895  45.561  52.830  1.00  0.00     0.047 A 
BRANCH  14  15
ATOM     15  N   UNL     1       6.086  46.169  53.358  1.00  0.00    -0.299 N 
ATOM     16  C   UNL     1       6.228  46.745  54.579  1.00  0.00     0.205 A 
ATOM     17  C   UNL     1       7.294  46.308  52.782  1.00  0.00     0.073 A 
ATOM     18  N   UNL     1       7.471  47.250  54.795  1.00  0.00    -0.236 NA
ATOM     19  C   UNL     1       7.750  45.839  51.546  1.00  0.00     0.029 A 
ATOM     20  C   UNL     1       8.119  46.961  53.651  1.00  0.00     0.089 A 
ATOM     21  C   UNL     1       9.089  46.099  51.203  1.00  0.00     0.002 A 
ATOM     22  C   UNL     1       9.451  47.231  53.343  1.00  0.00     0.030 A 
ATOM     23  C   UNL     1       9.936  46.795  52.096  1.00  0.00     0.002 A 
ENDBRANCH  14  15
ENDBRANCH   7   9
ENDBRANCH   1   7
BRANCH   5  24
ATOM     24  O   UNL     1      -1.740  43.052  55.082  1.00  0.00    -0.386 OA
ATOM     25  H   UNL     1      -1.661  43.382  56.015  1.00  0.00     0.211 HD
ENDBRANCH   5  24
BRANCH   5  26
ATOM     26  C   UNL     1      -0.173  44.834  55.150  1.00  0.00     0.193 C 
BRANCH  26  27
ATOM     27  O   UNL     1       0.659  45.676  54.394  1.00  0.00    -0.393 OA
ATOM     28  H   UNL     1       0.192  45.864  53.539  1.00  0.00     0.210 HD
ENDBRANCH  26  27
ENDBRANCH   5  26
TORSDOF 6
ENDMDL
MODEL 4
REMARK VINA RESULT:    -8.748      2.821      8.255
REMARK INTER + INTRA:         -11.815
REMARK INTER:                 -10.930
REMARK INTRA:                  -0.884
REMARK UNBOUND:                -0.510
REMARK SMILES O=C(c1ccc(-n2cnc3ccccc32)cc1)N1CCC[C@](O)(CO)C1
REMARK SMILES IDX 18 1 19 2 20 3 21 4 22 5 26 6 2 7 1 8 3 9 4 10 17 11 5 12
REMARK SMILES IDX 16 13 6 14 7 15 8 16 15 17 9 18 14 19 10 20 13 21 11 22
REMARK SMILES IDX 12 23 23 24 24 26 25 27
REMARK H PARENT 23 25 25 28
ROOT
ATOM      1  N   UNL     1       0.128  44.789  53.734  1.00  0.00    -0.336 N 
ATOM      2  C   UNL     1      -0.979  44.144  54.462  1.00  0.00     0.120 C 
ATOM      3  C   UNL     1      -2.145  43.797  53.531  1.00  0.00     0.025 C 
ATOM      4  C   UNL     1      -1.611  43.139  52.259  1.00  0.00     0.041 C 
ATOM      5  C   UNL     1      -0.660  44.087  51.457  1.00  0.00     0.105 C 
ATOM      6  C   UNL     1      -0.070  45.227  52.345  1.00  0.00     0.157 C 
ENDROOT
BRANCH   1   7
ATOM      7  C   UNL     1       1.239  45.315  54.484  1.00  0.00     0.253 C 
ATOM      8  O   UNL     1       1.063  45.686  55.676  1.00  0.00    -0.269 OA
BRANCH   7   9
ATOM      9  C   UNL     1       2.589  45.429  53.886  1.00  0.00     0.040 A 
ATOM     10  C   UNL     1       3.071  46.680  53.466  1.00  0.00     0.016 A 
ATOM     11  C   UNL     1       3.384  44.289  53.684  1.00  0.00     0.016 A 
ATOM     12  C   UNL     1       4.339  46.791  52.887  1.00  0.00     0.027 A 
ATOM     13  C   UNL     1       4.650  44.402  53.104  1.00  0.00     0.027 A 
ATOM     14  C   UNL     1       5.146  45.656  52.718  1.00  0.00     0.047 A 
BRANCH  14  15
ATOM     15  N   UNL     1       6.443  45.777  52.109  1.00  0.00    -0.299 N 
ATOM     16  C   UNL     1       6.773  45.445  50.836  1.00  0.00     0.205 A 
ATOM     17  C   UNL     1       7.591  46.227  52.645  1.00  0.00     0.073 A 
ATOM     18  N   UNL     1       8.083  45.658  50.547  1.00  0.00    -0.236 NA
ATOM     19  C   UNL     1       7.832  46.769  53.912  1.00  0.00     0.029 A 
ATOM     20  C   UNL     1       8.573  46.149  51.699  1.00  0.00     0.089 A 
ATOM     21  C   UNL     1       9.139  47.199  54.201  1.00  0.00     0.002 A 
ATOM     22  C   UNL     1       9.877  46.570  51.953  1.00  0.00     0.030 A 
ATOM     23  C   UNL     1      10.159  47.096  53.227  1.00  0.00     0.002 A 
ENDBRANCH  14  15
ENDBRANCH   7   9
ENDBRANCH   1   7
BRANCH   5  24
ATOM     24  O   UNL     1      -1.375  44.671  50.393  1.00  0.00    -0.386 OA
ATOM     25  H   UNL     1      -1.920  43.960  49.962  1.00  0.00     0.211 HD
ENDBRANCH   5  24
BRANCH   5  26
ATOM     26  C   UNL     1       0.486  43.264  50.826  1.00  0.00     0.193 C 
BRANCH  26  27
ATOM     27  O   UNL     1       1.631  44.053  50.622  1.00  0.00    -0.393 OA
ATOM     28  H   UNL     1       1.751  44.152  49.642  1.00  0.00     0.210 HD
ENDBRANCH  26  27
ENDBRANCH   5  26
TORSDOF 6
ENDMDL
MODEL 5
REMARK VINA RESULT:    -8.596      1.130      2.062
REMARK INTER + INTRA:         -11.619
REMARK INTER:                 -10.810
REMARK INTRA:                  -0.809
REMARK UNBOUND:                -0.510
REMARK SMILES O=C(c1ccc(-n2cnc3ccccc32)cc1)N1CCC[C@](O)(CO)C1
REMARK SMILES IDX 18 1 19 2 20 3 21 4 22 5 26 6 2 7 1 8 3 9 4 10 17 11 5 12
REMARK SMILES IDX 16 13 6 14 7 15 8 16 15 17 9 18 14 19 10 20 13 21 11 22
REMARK SMILES IDX 12 23 23 24 24 26 25 27
REMARK H PARENT 23 25 25 28
ROOT
ATOM      1  N   UNL     1       7.926  45.934  51.401  1.00  0.00    -0.336 N 
ATOM      2  C   UNL     1       9.324  45.529  51.172  1.00  0.00     0.120 C 
ATOM      3  C   UNL     1      10.310  46.467  51.876  1.00  0.00     0.025 C 
ATOM      4  C   UNL     1       9.838  46.730  53.306  1.00  0.00     0.041 C 
ATOM      5  C   UNL     1       8.441  47.430  53.348  1.00  0.00     0.105 C 
ATOM      6  C   UNL     1       7.636  47.233  52.026  1.00  0.00     0.157 C 
ENDROOT
BRANCH   1   7
ATOM      7  C   UNL     1       6.878  45.250  50.688  1.00  0.00     0.253 C 
ATOM      8  O   UNL     1       7.122  44.754  49.554  1.00  0.00    -0.269 OA
BRANCH   7   9
ATOM      9  C   UNL     1       5.519  45.113  51.257  1.00  0.00     0.040 A 
ATOM     10  C   UNL     1       4.475  45.933  50.798  1.00  0.00     0.016 A 
ATOM     11  C   UNL     1       5.263  44.202  52.295  1.00  0.00     0.016 A 
ATOM     12  C   UNL     1       3.193  45.819  51.342  1.00  0.00     0.027 A 
ATOM     13  C   UNL     1       3.981  44.089  52.839  1.00  0.00     0.027 A 
ATOM     14  C   UNL     1       2.931  44.884  52.355  1.00  0.00     0.047 A 
BRANCH  14  15
ATOM     15  N   UNL     1       1.613  44.781  52.920  1.00  0.00    -0.299 N 
ATOM     16  C   UNL     1       1.210  45.257  54.125  1.00  0.00     0.205 A 
ATOM     17  C   UNL     1       0.512  44.206  52.403  1.00  0.00     0.073 A 
ATOM     18  N   UNL     1      -0.096  44.998  54.396  1.00  0.00    -0.236 NA
ATOM     19  C   UNL     1       0.321  43.613  51.151  1.00  0.00     0.029 A 
ATOM     20  C   UNL     1      -0.509  44.338  53.299  1.00  0.00     0.089 A 
ATOM     21  C   UNL     1      -0.960  43.116  50.854  1.00  0.00     0.002 A 
ATOM     22  C   UNL     1      -1.791  43.859  53.033  1.00  0.00     0.030 A 
ATOM     23  C   UNL     1      -2.012  43.234  51.792  1.00  0.00     0.002 A 
ENDBRANCH  14  15
ENDBRANCH   7   9
ENDBRANCH   1   7
BRANCH   5  24
ATOM     24  O   UNL     1       8.619  48.811  53.564  1.00  0.00    -0.386 OA
ATOM     25  H   UNL     1       8.418  49.285  52.714  1.00  0.00     0.211 HD
ENDBRANCH   5  24
BRANCH   5  26
ATOM     26  C   UNL     1       7.625  46.894  54.547  1.00  0.00     0.193 C 
BRANCH  26  27
ATOM     27  O   UNL     1       6.282  47.302  54.475  1.00  0.00    -0.393 OA
ATOM     28  H   UNL     1       5.727  46.554  54.817  1.00  0.00     0.210 HD
ENDBRANCH  26  27
ENDBRANCH   5  26
TORSDOF 6
ENDMDL
