ligand_9_conformer_5_docked
     RDKit          3D

 53 56  0  0  0  0  0  0  0  0999 V2000
   10.1820   47.1290   53.5970 C   0  0  0  0  0  0  0  0  0  0  0  0
   10.2040   46.5480   52.3260 C   0  0  0  0  0  0  0  0  0  0  0  0
    9.0130   46.1290   51.7250 C   0  0  0  0  0  0  0  0  0  0  0  0
    7.7850   46.2900   52.3930 C   0  0  0  0  0  0  0  0  0  0  0  0
    6.5230   45.8520   51.7590 C   0  0  0  0  0  0  0  0  0  0  0  0
    6.4320   44.8200   50.8970 N   0  0  0  0  0  0  0  0  0  0  0  0
    5.1760   44.7620   50.5750 O   0  0  0  0  0  0  0  0  0  0  0  0
    4.5150   45.7070   51.1980 C   0  0  0  0  0  0  0  0  0  0  0  0
    3.0280   45.9150   51.0640 C   0  0  0  0  0  0  0  0  0  0  0  0
    2.2700   44.5790   50.9800 C   0  0  0  0  0  0  0  0  0  0  0  0
    2.0930   43.9260   52.3570 C   0  0  0  0  0  0  0  0  0  0  0  0
    1.4200   44.8560   53.2850 N   0  0  0  0  0  0  0  0  0  0  0  0
    1.1190   44.1850   54.5720 C   0  0  0  0  0  0  0  0  0  0  0  0
   -0.0690   44.8700   55.2930 C   0  0  1  0  0  0  0  0  0  0  0  0
   -1.4110   44.1300   55.0670 C   0  0  0  0  0  0  0  0  0  0  0  0
   -2.6430   45.0420   54.9110 C   0  0  0  0  0  0  0  0  0  0  0  0
   -3.1000   45.6400   56.2520 C   0  0  0  0  0  0  0  0  0  0  0  0
   -1.9520   46.1390   57.1690 C   0  0  0  0  0  0  0  0  0  0  0  0
   -1.0100   45.0870   57.5720 N   0  0  0  0  0  0  0  0  0  0  0  0
    0.2340   45.0940   56.7870 C   0  0  0  0  0  0  0  0  0  0  0  0
    2.2560   46.0570   53.4970 C   0  0  0  0  0  0  0  0  0  0  0  0
    2.4580   46.8140   52.1780 C   0  0  0  0  0  0  0  0  0  0  0  0
    5.3300   46.4410   51.9800 N   0  0  0  0  0  0  0  0  0  0  0  0
    7.7740   46.8780   53.6700 C   0  0  0  0  0  0  0  0  0  0  0  0
    8.9680   47.2940   54.2670 C   0  0  0  0  0  0  0  0  0  0  0  0
   11.1202   47.4560   54.0691 H   0  0  0  0  0  0  0  0  0  0  0  0
   11.1602   46.4201   51.7974 H   0  0  0  0  0  0  0  0  0  0  0  0
    9.0361   45.6712   50.7250 H   0  0  0  0  0  0  0  0  0  0  0  0
    2.8726   46.4460   50.1133 H   0  0  0  0  0  0  0  0  0  0  0  0
    1.2767   44.7620   50.5443 H   0  0  0  0  0  0  0  0  0  0  0  0
    2.8612   43.8939   50.3546 H   0  0  0  0  0  0  0  0  0  0  0  0
    1.4842   43.0160   52.2510 H   0  0  0  0  0  0  0  0  0  0  0  0
    3.0840   43.6729   52.7618 H   0  0  0  0  0  0  0  0  0  0  0  0
    0.8631   43.1330   54.3776 H   0  0  0  0  0  0  0  0  0  0  0  0
    2.0066   44.2536   55.2181 H   0  0  0  0  0  0  0  0  0  0  0  0
   -0.1934   45.8619   54.8340 H   0  0  0  0  0  0  0  0  0  0  0  0
   -1.3168   43.5254   54.1529 H   0  0  0  0  0  0  0  0  0  0  0  0
   -1.5864   43.5310   55.9728 H   0  0  0  0  0  0  0  0  0  0  0  0
   -2.3901   45.8639   54.2250 H   0  0  0  0  0  0  0  0  0  0  0  0
   -3.4675   44.4294   54.5173 H   0  0  0  0  0  0  0  0  0  0  0  0
   -3.7619   46.4922   56.0384 H   0  0  0  0  0  0  0  0  0  0  0  0
   -3.6003   44.8268   56.7983 H   0  0  0  0  0  0  0  0  0  0  0  0
   -1.3918   46.9170   56.6297 H   0  0  0  0  0  0  0  0  0  0  0  0
   -2.4210   46.5163   58.0897 H   0  0  0  0  0  0  0  0  0  0  0  0
   -0.7680   45.2530   58.5760 H   0  0  0  0  0  0  0  0  0  0  0  0
    0.7360   46.0647   56.9129 H   0  0  0  0  0  0  0  0  0  0  0  0
    0.8842   44.2816   57.1437 H   0  0  0  0  0  0  0  0  0  0  0  0
    1.7600   46.7194   54.2217 H   0  0  0  0  0  0  0  0  0  0  0  0
    3.2383   45.7424   53.8793 H   0  0  0  0  0  0  0  0  0  0  0  0
    1.4875   47.2128   51.8477 H   0  0  0  0  0  0  0  0  0  0  0  0
    3.1841   47.6195   52.3623 H   0  0  0  0  0  0  0  0  0  0  0  0
    6.8208   47.0115   54.2024 H   0  0  0  0  0  0  0  0  0  0  0  0
    8.9510   47.7523   55.2668 H   0  0  0  0  0  0  0  0  0  0  0  0
  1  2  2  0
  2  3  1  0
  3  4  2  0
  4  5  1  0
  5  6  2  0
  6  7  1  0
  7  8  1  0
  8  9  1  0
  9 10  1  0
 10 11  1  0
 11 12  1  0
 12 13  1  0
 13 14  1  0
 14 15  1  0
 15 16  1  0
 16 17  1  0
 17 18  1  0
 18 19  1  0
 19 20  1  0
 12 21  1  0
 21 22  1  0
  8 23  2  0
  4 24  1  0
 24 25  2  0
 25  1  1  0
 23  5  1  0
 22  9  1  0
 20 14  1  0
  1 26  1  0
  2 27  1  0
  3 28  1  0
  9 29  1  0
 10 30  1  0
 10 31  1  0
 11 32  1  0
 11 33  1  0
 13 34  1  0
 13 35  1  0
 14 36  1  6
 15 37  1  0
 15 38  1  0
 16 39  1  0
 16 40  1  0
 17 41  1  0
 17 42  1  0
 18 43  1  0
 18 44  1  0
 19 45  1  0
 20 46  1  0
 20 47  1  0
 21 48  1  0
 21 49  1  0
 22 50  1  0
 22 51  1  0
 24 52  1  0
 25 53  1  0
M  END
>  <meeko>  (1) 
{"is_sidechain": [false], "free_energy": -7.188, "intermolecular_energy": -11.389, "internal_energy": 0.072}

$$$$
ligand_9_conformer_5_docked
     RDKit          3D

 53 56  0  0  0  0  0  0  0  0999 V2000
   10.2650   47.1740   53.9290 C   0  0  0  0  0  0  0  0  0  0  0  0
    9.0480   47.4510   54.5550 C   0  0  0  0  0  0  0  0  0  0  0  0
    7.8430   47.1200   53.9260 C   0  0  0  0  0  0  0  0  0  0  0  0
    7.8490   46.5050   52.6610 C   0  0  0  0  0  0  0  0  0  0  0  0
    6.5790   46.1490   51.9930 C   0  0  0  0  0  0  0  0  0  0  0  0
    6.4730   45.2220   51.0210 N   0  0  0  0  0  0  0  0  0  0  0  0
    5.2140   45.2090   50.7060 O   0  0  0  0  0  0  0  0  0  0  0  0
    4.5650   46.0810   51.4370 C   0  0  0  0  0  0  0  0  0  0  0  0
    3.0790   46.3130   51.3420 C   0  0  0  0  0  0  0  0  0  0  0  0
    2.3390   45.0650   50.8280 C   0  0  0  0  0  0  0  0  0  0  0  0
    2.1430   44.0140   51.9290 C   0  0  0  0  0  0  0  0  0  0  0  0
    1.4400   44.6040   53.0850 N   0  0  0  0  0  0  0  0  0  0  0  0
    1.1210   43.5630   54.0910 C   0  0  0  0  0  0  0  0  0  0  0  0
   -0.3970   43.5270   54.3930 C   0  0  1  0  0  0  0  0  0  0  0  0
   -0.7910   44.4330   55.5860 C   0  0  0  0  0  0  0  0  0  0  0  0
   -2.3030   44.5280   55.8670 C   0  0  0  0  0  0  0  0  0  0  0  0
   -2.9620   45.7000   55.1200 C   0  0  0  0  0  0  0  0  0  0  0  0
   -2.9050   45.5640   53.5580 C   0  0  0  0  0  0  0  0  0  0  0  0
   -1.5590   45.2570   53.0560 N   0  0  0  0  0  0  0  0  0  0  0  0
   -1.2290   43.8250   53.1300 C   0  0  0  0  0  0  0  0  0  0  0  0
    2.2560   45.6840   53.6790 C   0  0  0  0  0  0  0  0  0  0  0  0
    2.4760   46.8160   52.6670 C   0  0  0  0  0  0  0  0  0  0  0  0
    5.3920   46.7170   52.2900 N   0  0  0  0  0  0  0  0  0  0  0  0
    9.0800   46.2280   52.0410 C   0  0  0  0  0  0  0  0  0  0  0  0
   10.2820   46.5630   52.6740 C   0  0  0  0  0  0  0  0  0  0  0  0
   11.2108   47.4374   54.4250 H   0  0  0  0  0  0  0  0  0  0  0  0
    9.0367   47.9305   55.5449 H   0  0  0  0  0  0  0  0  0  0  0  0
    6.8869   47.3416   54.4228 H   0  0  0  0  0  0  0  0  0  0  0  0
    2.9361   47.1142   50.6020 H   0  0  0  0  0  0  0  0  0  0  0  0
    1.3523   45.3692   50.4487 H   0  0  0  0  0  0  0  0  0  0  0  0
    2.9507   44.6125   50.0336 H   0  0  0  0  0  0  0  0  0  0  0  0
    1.5481   43.1788   51.5309 H   0  0  0  0  0  0  0  0  0  0  0  0
    3.1290   43.6534   52.2573 H   0  0  0  0  0  0  0  0  0  0  0  0
    1.4338   42.5818   53.7044 H   0  0  0  0  0  0  0  0  0  0  0  0
    1.6571   43.8004   55.0217 H   0  0  0  0  0  0  0  0  0  0  0  0
   -0.6359   42.4999   54.7060 H   0  0  0  0  0  0  0  0  0  0  0  0
   -0.3013   44.0389   56.4887 H   0  0  0  0  0  0  0  0  0  0  0  0
   -0.4662   45.4491   55.3176 H   0  0  0  0  0  0  0  0  0  0  0  0
   -2.7819   43.5906   55.5476 H   0  0  0  0  0  0  0  0  0  0  0  0
   -2.4352   44.6989   56.9456 H   0  0  0  0  0  0  0  0  0  0  0  0
   -4.0172   45.7571   55.4254 H   0  0  0  0  0  0  0  0  0  0  0  0
   -2.3989   46.6072   55.3845 H   0  0  0  0  0  0  0  0  0  0  0  0
   -3.5858   44.7561   53.2517 H   0  0  0  0  0  0  0  0  0  0  0  0
   -3.2007   46.5345   53.1328 H   0  0  0  0  0  0  0  0  0  0  0  0
   -1.5260   45.5520   52.0530 H   0  0  0  0  0  0  0  0  0  0  0  0
   -2.1601   43.2403   53.1636 H   0  0  0  0  0  0  0  0  0  0  0  0
   -0.6399   43.5495   52.2429 H   0  0  0  0  0  0  0  0  0  0  0  0
    1.7369   46.0848   54.5621 H   0  0  0  0  0  0  0  0  0  0  0  0
    3.2343   45.2712   53.9663 H   0  0  0  0  0  0  0  0  0  0  0  0
    1.5078   47.2932   52.4554 H   0  0  0  0  0  0  0  0  0  0  0  0
    3.1887   47.5270   53.1102 H   0  0  0  0  0  0  0  0  0  0  0  0
    9.0983   45.7452   51.0528 H   0  0  0  0  0  0  0  0  0  0  0  0
   11.2414   46.3447   52.1822 H   0  0  0  0  0  0  0  0  0  0  0  0
  1  2  2  0
  2  3  1  0
  3  4  2  0
  4  5  1  0
  5  6  2  0
  6  7  1  0
  7  8  1  0
  8  9  1  0
  9 10  1  0
 10 11  1  0
 11 12  1  0
 12 13  1  0
 13 14  1  0
 14 15  1  0
 15 16  1  0
 16 17  1  0
 17 18  1  0
 18 19  1  0
 19 20  1  0
 12 21  1  0
 21 22  1  0
  8 23  2  0
  4 24  1  0
 24 25  2  0
 25  1  1  0
 23  5  1  0
 22  9  1  0
 20 14  1  0
  1 26  1  0
  2 27  1  0
  3 28  1  0
  9 29  1  0
 10 30  1  0
 10 31  1  0
 11 32  1  0
 11 33  1  0
 13 34  1  0
 13 35  1  0
 14 36  1  1
 15 37  1  0
 15 38  1  0
 16 39  1  0
 16 40  1  0
 17 41  1  0
 17 42  1  0
 18 43  1  0
 18 44  1  0
 19 45  1  0
 20 46  1  0
 20 47  1  0
 21 48  1  0
 21 49  1  0
 22 50  1  0
 22 51  1  0
 24 52  1  0
 25 53  1  0
M  END
>  <meeko>  (2) 
{"is_sidechain": [false], "free_energy": -7.102, "intermolecular_energy": -10.846, "internal_energy": -0.335}

$$$$
ligand_9_conformer_5_docked
     RDKit          3D

 53 56  0  0  0  0  0  0  0  0999 V2000
    4.9330   41.2040   48.4300 C   0  0  0  0  0  0  0  0  0  0  0  0
    5.7430   41.8820   47.5160 C   0  0  0  0  0  0  0  0  0  0  0  0
    6.7180   42.7750   47.9700 C   0  0  0  0  0  0  0  0  0  0  0  0
    6.8920   42.9970   49.3480 C   0  0  0  0  0  0  0  0  0  0  0  0
    7.9250   43.9380   49.8320 C   0  0  0  0  0  0  0  0  0  0  0  0
    9.2410   43.8130   49.5680 N   0  0  0  0  0  0  0  0  0  0  0  0
    9.8000   44.8220   50.1630 O   0  0  0  0  0  0  0  0  0  0  0  0
    8.8860   45.5390   50.7700 C   0  0  0  0  0  0  0  0  0  0  0  0
    9.1880   46.7960   51.5460 C   0  0  0  0  0  0  0  0  0  0  0  0
    8.0520   47.8270   51.4260 C   0  0  0  0  0  0  0  0  0  0  0  0
    6.8710   47.4960   52.3470 C   0  0  0  0  0  0  0  0  0  0  0  0
    7.3260   47.3750   53.7460 N   0  0  0  0  0  0  0  0  0  0  0  0
    6.1720   47.1970   54.6590 C   0  0  0  0  0  0  0  0  0  0  0  0
    5.0480   46.3740   53.9800 C   0  0  1  0  0  0  0  0  0  0  0  0
    4.6990   45.0830   54.7610 C   0  0  0  0  0  0  0  0  0  0  0  0
    3.2000   44.8790   55.0530 C   0  0  0  0  0  0  0  0  0  0  0  0
    2.3950   44.5680   53.7800 C   0  0  0  0  0  0  0  0  0  0  0  0
    1.9460   45.8190   52.9740 C   0  0  0  0  0  0  0  0  0  0  0  0
    3.0470   46.7010   52.5610 N   0  0  0  0  0  0  0  0  0  0  0  0
    3.8080   47.2440   53.6970 C   0  0  0  0  0  0  0  0  0  0  0  0
    8.2810   46.2540   53.8750 C   0  0  0  0  0  0  0  0  0  0  0  0
    9.5310   46.5080   53.0200 C   0  0  0  0  0  0  0  0  0  0  0  0
    7.6560   45.0200   50.5900 N   0  0  0  0  0  0  0  0  0  0  0  0
    6.0730   42.3080   50.2600 C   0  0  0  0  0  0  0  0  0  0  0  0
    5.0980   41.4160   49.8000 C   0  0  0  0  0  0  0  0  0  0  0  0
    4.1652   40.5031   48.0704 H   0  0  0  0  0  0  0  0  0  0  0  0
    5.6134   41.7129   46.4368 H   0  0  0  0  0  0  0  0  0  0  0  0
    7.3525   43.3069   47.2458 H   0  0  0  0  0  0  0  0  0  0  0  0
   10.0866   47.2361   51.0889 H   0  0  0  0  0  0  0  0  0  0  0  0
    8.4439   48.8191   51.6947 H   0  0  0  0  0  0  0  0  0  0  0  0
    7.6871   47.8089   50.3884 H   0  0  0  0  0  0  0  0  0  0  0  0
    6.1218   48.2984   52.2779 H   0  0  0  0  0  0  0  0  0  0  0  0
    6.4306   46.5386   52.0315 H   0  0  0  0  0  0  0  0  0  0  0  0
    6.5075   46.6694   55.5640 H   0  0  0  0  0  0  0  0  0  0  0  0
    5.7729   48.1891   54.9167 H   0  0  0  0  0  0  0  0  0  0  0  0
    5.4384   46.0383   53.0079 H   0  0  0  0  0  0  0  0  0  0  0  0
    5.0513   44.2232   54.1723 H   0  0  0  0  0  0  0  0  0  0  0  0
    5.1913   45.1757   55.7403 H   0  0  0  0  0  0  0  0  0  0  0  0
    3.0874   44.0409   55.7565 H   0  0  0  0  0  0  0  0  0  0  0  0
    2.8093   45.8152   55.4782 H   0  0  0  0  0  0  0  0  0  0  0  0
    3.0191   43.9435   53.1239 H   0  0  0  0  0  0  0  0  0  0  0  0
    1.4746   44.0639   54.1097 H   0  0  0  0  0  0  0  0  0  0  0  0
    1.4219   45.4761   52.0697 H   0  0  0  0  0  0  0  0  0  0  0  0
    1.3034   46.4102   53.6430 H   0  0  0  0  0  0  0  0  0  0  0  0
    3.6960   46.1320   51.9700 H   0  0  0  0  0  0  0  0  0  0  0  0
    4.1308   48.2685   53.4600 H   0  0  0  0  0  0  0  0  0  0  0  0
    3.1637   47.2465   54.5886 H   0  0  0  0  0  0  0  0  0  0  0  0
    8.5786   46.1520   54.9291 H   0  0  0  0  0  0  0  0  0  0  0  0
    7.7941   45.3314   53.5262 H   0  0  0  0  0  0  0  0  0  0  0  0
   10.0707   47.3733   53.4323 H   0  0  0  0  0  0  0  0  0  0  0  0
   10.1466   45.5968   53.0484 H   0  0  0  0  0  0  0  0  0  0  0  0
    6.1994   42.4711   51.3405 H   0  0  0  0  0  0  0  0  0  0  0  0
    4.4604   40.8809   50.5191 H   0  0  0  0  0  0  0  0  0  0  0  0
  1  2  2  0
  2  3  1  0
  3  4  2  0
  4  5  1  0
  5  6  2  0
  6  7  1  0
  7  8  1  0
  8  9  1  0
  9 10  1  0
 10 11  1  0
 11 12  1  0
 12 13  1  0
 13 14  1  0
 14 15  1  0
 15 16  1  0
 16 17  1  0
 17 18  1  0
 18 19  1  0
 19 20  1  0
 12 21  1  0
 21 22  1  0
  8 23  2  0
  4 24  1  0
 24 25  2  0
 25  1  1  0
 23  5  1  0
 22  9  1  0
 20 14  1  0
  1 26  1  0
  2 27  1  0
  3 28  1  0
  9 29  1  0
 10 30  1  0
 10 31  1  0
 11 32  1  0
 11 33  1  0
 13 34  1  0
 13 35  1  0
 14 36  1  6
 15 37  1  0
 15 38  1  0
 16 39  1  0
 16 40  1  0
 17 41  1  0
 17 42  1  0
 18 43  1  0
 18 44  1  0
 19 45  1  0
 20 46  1  0
 20 47  1  0
 21 48  1  0
 21 49  1  0
 22 50  1  0
 22 51  1  0
 24 52  1  0
 25 53  1  0
M  END
>  <meeko>  (3) 
{"is_sidechain": [false], "free_energy": -6.597, "intermolecular_energy": -10.446, "internal_energy": 0.064}

$$$$
ligand_9_conformer_5_docked
     RDKit          3D

 53 56  0  0  0  0  0  0  0  0999 V2000
   10.2120   46.5110   51.9540 C   0  0  0  0  0  0  0  0  0  0  0  0
   10.0840   46.7980   53.3150 C   0  0  0  0  0  0  0  0  0  0  0  0
    8.8320   46.7170   53.9350 C   0  0  0  0  0  0  0  0  0  0  0  0
    7.6960   46.3460   53.1930 C   0  0  0  0  0  0  0  0  0  0  0  0
    6.3720   46.2550   53.8450 C   0  0  0  0  0  0  0  0  0  0  0  0
    6.1810   45.8210   55.1070 N   0  0  0  0  0  0  0  0  0  0  0  0
    4.8990   45.8920   55.2960 O   0  0  0  0  0  0  0  0  0  0  0  0
    4.3160   46.3440   54.2130 C   0  0  0  0  0  0  0  0  0  0  0  0
    2.8300   46.5670   54.0940 C   0  0  0  0  0  0  0  0  0  0  0  0
    2.3430   46.3990   52.6440 C   0  0  0  0  0  0  0  0  0  0  0  0
    2.1930   44.9240   52.2510 C   0  0  0  0  0  0  0  0  0  0  0  0
    1.2920   44.2290   53.1920 N   0  0  0  0  0  0  0  0  0  0  0  0
    1.0290   42.8430   52.7390 C   0  0  0  0  0  0  0  0  0  0  0  0
   -0.4920   42.5580   52.6710 C   0  0  1  0  0  0  0  0  0  0  0  0
   -1.3010   43.3860   53.7000 C   0  0  0  0  0  0  0  0  0  0  0  0
   -2.6060   44.0040   53.1630 C   0  0  0  0  0  0  0  0  0  0  0  0
   -2.3510   45.2690   52.3270 C   0  0  0  0  0  0  0  0  0  0  0  0
   -1.9550   44.9560   50.8580 C   0  0  0  0  0  0  0  0  0  0  0  0
   -0.7830   44.0790   50.7400 N   0  0  0  0  0  0  0  0  0  0  0  0
   -1.0300   42.7160   51.2360 C   0  0  0  0  0  0  0  0  0  0  0  0
    1.8710   44.2410   54.5520 C   0  0  0  0  0  0  0  0  0  0  0  0
    2.0240   45.6810   55.0620 C   0  0  0  0  0  0  0  0  0  0  0  0
    5.2150   46.6000   53.2430 N   0  0  0  0  0  0  0  0  0  0  0  0
    7.8370   46.0570   51.8250 C   0  0  0  0  0  0  0  0  0  0  0  0
    9.0910   46.1410   51.2100 C   0  0  0  0  0  0  0  0  0  0  0  0
   11.1969   46.5767   51.4685 H   0  0  0  0  0  0  0  0  0  0  0  0
   10.9689   47.0882   53.9005 H   0  0  0  0  0  0  0  0  0  0  0  0
    8.7359   46.9444   55.0069 H   0  0  0  0  0  0  0  0  0  0  0  0
    2.6469   47.6109   54.3884 H   0  0  0  0  0  0  0  0  0  0  0  0
    1.3668   46.8949   52.5384 H   0  0  0  0  0  0  0  0  0  0  0  0
    3.0951   46.8507   51.9804 H   0  0  0  0  0  0  0  0  0  0  0  0
    1.7752   44.8603   51.2354 H   0  0  0  0  0  0  0  0  0  0  0  0
    3.1821   44.4439   52.2840 H   0  0  0  0  0  0  0  0  0  0  0  0
    1.4659   42.7027   51.7393 H   0  0  0  0  0  0  0  0  0  0  0  0
    1.4830   42.1475   53.4602 H   0  0  0  0  0  0  0  0  0  0  0  0
   -0.6336   41.5053   52.9571 H   0  0  0  0  0  0  0  0  0  0  0  0
   -1.5580   42.7259   54.5415 H   0  0  0  0  0  0  0  0  0  0  0  0
   -0.6576   44.2312   53.9857 H   0  0  0  0  0  0  0  0  0  0  0  0
   -3.1166   43.2606   52.5332 H   0  0  0  0  0  0  0  0  0  0  0  0
   -3.2236   44.2902   54.0271 H   0  0  0  0  0  0  0  0  0  0  0  0
   -3.2683   45.8760   52.3210 H   0  0  0  0  0  0  0  0  0  0  0  0
   -1.5077   45.8038   52.7883 H   0  0  0  0  0  0  0  0  0  0  0  0
   -2.8074   44.4659   50.3648 H   0  0  0  0  0  0  0  0  0  0  0  0
   -1.6914   45.9129   50.3837 H   0  0  0  0  0  0  0  0  0  0  0  0
   -0.5380   44.0220   49.7240 H   0  0  0  0  0  0  0  0  0  0  0  0
   -2.1124   42.5198   51.2316 H   0  0  0  0  0  0  0  0  0  0  0  0
   -0.5120   41.9999   50.5811 H   0  0  0  0  0  0  0  0  0  0  0  0
    1.2084   43.6853   55.2318 H   0  0  0  0  0  0  0  0  0  0  0  0
    2.8642   43.7695   54.5185 H   0  0  0  0  0  0  0  0  0  0  0  0
    1.0227   46.1182   55.1897 H   0  0  0  0  0  0  0  0  0  0  0  0
    2.5727   45.6417   56.0146 H   0  0  0  0  0  0  0  0  0  0  0  0
    6.9567   45.7631   51.2344 H   0  0  0  0  0  0  0  0  0  0  0  0
    9.1933   45.9150   50.1383 H   0  0  0  0  0  0  0  0  0  0  0  0
  1  2  2  0
  2  3  1  0
  3  4  2  0
  4  5  1  0
  5  6  2  0
  6  7  1  0
  7  8  1  0
  8  9  1  0
  9 10  1  0
 10 11  1  0
 11 12  1  0
 12 13  1  0
 13 14  1  0
 14 15  1  0
 15 16  1  0
 16 17  1  0
 17 18  1  0
 18 19  1  0
 19 20  1  0
 12 21  1  0
 21 22  1  0
  8 23  2  0
  4 24  1  0
 24 25  2  0
 25  1  1  0
 23  5  1  0
 22  9  1  0
 20 14  1  0
  1 26  1  0
  2 27  1  0
  3 28  1  0
  9 29  1  0
 10 30  1  0
 10 31  1  0
 11 32  1  0
 11 33  1  0
 13 34  1  0
 13 35  1  0
 14 36  1  1
 15 37  1  0
 15 38  1  0
 16 39  1  0
 16 40  1  0
 17 41  1  0
 17 42  1  0
 18 43  1  0
 18 44  1  0
 19 45  1  0
 20 46  1  0
 20 47  1  0
 21 48  1  0
 21 49  1  0
 22 50  1  0
 22 51  1  0
 24 52  1  0
 25 53  1  0
M  END
>  <meeko>  (4) 
{"is_sidechain": [false], "free_energy": -6.376, "intermolecular_energy": -9.728, "internal_energy": -0.304}

$$$$
ligand_9_conformer_5_docked
     RDKit          3D

 53 56  0  0  0  0  0  0  0  0999 V2000
   -2.4230   45.1830   56.3870 C   0  0  0  0  0  0  0  0  0  0  0  0
   -1.1090   45.1420   56.8570 C   0  0  0  0  0  0  0  0  0  0  0  0
   -0.0650   44.7930   55.9940 C   0  0  0  0  0  0  0  0  0  0  0  0
   -0.3300   44.4830   54.6480 C   0  0  0  0  0  0  0  0  0  0  0  0
    0.7710   44.1180   53.7310 C   0  0  0  0  0  0  0  0  0  0  0  0
    1.2580   42.8680   53.6000 N   0  0  0  0  0  0  0  0  0  0  0  0
    2.2000   42.9660   52.7120 O   0  0  0  0  0  0  0  0  0  0  0  0
    2.3000   44.2090   52.3090 C   0  0  0  0  0  0  0  0  0  0  0  0
    3.2840   44.6740   51.2670 C   0  0  0  0  0  0  0  0  0  0  0  0
    3.3550   46.2090   51.1930 C   0  0  0  0  0  0  0  0  0  0  0  0
    4.2090   46.8040   52.3200 C   0  0  0  0  0  0  0  0  0  0  0  0
    5.5620   46.2140   52.3070 N   0  0  0  0  0  0  0  0  0  0  0  0
    6.4350   46.8850   53.3000 C   0  0  0  0  0  0  0  0  0  0  0  0
    7.5240   47.7340   52.5990 C   0  0  1  0  0  0  0  0  0  0  0  0
    8.7900   47.9200   53.4720 C   0  0  0  0  0  0  0  0  0  0  0  0
    9.6530   46.6560   53.6510 C   0  0  0  0  0  0  0  0  0  0  0  0
   10.6050   46.4260   52.4660 C   0  0  0  0  0  0  0  0  0  0  0  0
    9.9300   45.8810   51.2030 C   0  0  0  0  0  0  0  0  0  0  0  0
    8.4650   45.8500   51.2980 N   0  0  0  0  0  0  0  0  0  0  0  0
    7.8510   47.1840   51.1980 C   0  0  0  0  0  0  0  0  0  0  0  0
    5.4850   44.7610   52.5660 C   0  0  0  0  0  0  0  0  0  0  0  0
    4.6830   44.0570   51.4630 C   0  0  0  0  0  0  0  0  0  0  0  0
    1.4020   44.9990   52.9290 N   0  0  0  0  0  0  0  0  0  0  0  0
   -1.6570   44.5300   54.1840 C   0  0  0  0  0  0  0  0  0  0  0  0
   -2.6970   44.8780   55.0520 C   0  0  0  0  0  0  0  0  0  0  0  0
   -3.2425   45.4556   57.0683 H   0  0  0  0  0  0  0  0  0  0  0  0
   -0.8943   45.3847   57.9082 H   0  0  0  0  0  0  0  0  0  0  0  0
    0.9683   44.7608   56.3699 H   0  0  0  0  0  0  0  0  0  0  0  0
    2.9066   44.3113   50.2995 H   0  0  0  0  0  0  0  0  0  0  0  0
    3.7934   46.4973   50.2262 H   0  0  0  0  0  0  0  0  0  0  0  0
    2.3326   46.6002   51.3011 H   0  0  0  0  0  0  0  0  0  0  0  0
    4.2868   47.8922   52.1798 H   0  0  0  0  0  0  0  0  0  0  0  0
    3.7316   46.5803   53.2854 H   0  0  0  0  0  0  0  0  0  0  0  0
    5.8204   47.5410   53.9339 H   0  0  0  0  0  0  0  0  0  0  0  0
    6.9301   46.1139   53.9085 H   0  0  0  0  0  0  0  0  0  0  0  0
    7.1051   48.7419   52.4621 H   0  0  0  0  0  0  0  0  0  0  0  0
    9.4148   48.6957   53.0051 H   0  0  0  0  0  0  0  0  0  0  0  0
    8.4321   48.1909   54.4763 H   0  0  0  0  0  0  0  0  0  0  0  0
   10.2500   46.7625   54.5687 H   0  0  0  0  0  0  0  0  0  0  0  0
    8.9751   45.7917   53.7103 H   0  0  0  0  0  0  0  0  0  0  0  0
   11.0787   47.3865   52.2148 H   0  0  0  0  0  0  0  0  0  0  0  0
   11.3264   45.6611   52.7891 H   0  0  0  0  0  0  0  0  0  0  0  0
   10.2118   46.5194   50.3527 H   0  0  0  0  0  0  0  0  0  0  0  0
   10.2712   44.8436   51.0715 H   0  0  0  0  0  0  0  0  0  0  0  0
    8.1130   45.2640   50.5060 H   0  0  0  0  0  0  0  0  0  0  0  0
    8.5507   47.8677   50.6950 H   0  0  0  0  0  0  0  0  0  0  0  0
    6.9181   47.1037   50.6208 H   0  0  0  0  0  0  0  0  0  0  0  0
    6.5027   44.3446   52.5947 H   0  0  0  0  0  0  0  0  0  0  0  0
    4.9800   44.5990   53.5297 H   0  0  0  0  0  0  0  0  0  0  0  0
    5.2392   44.1356   50.5172 H   0  0  0  0  0  0  0  0  0  0  0  0
    4.5470   43.0082   51.7654 H   0  0  0  0  0  0  0  0  0  0  0  0
   -1.8780   44.2918   53.1331 H   0  0  0  0  0  0  0  0  0  0  0  0
   -3.7325   44.9115   54.6825 H   0  0  0  0  0  0  0  0  0  0  0  0
  1  2  2  0
  2  3  1  0
  3  4  2  0
  4  5  1  0
  5  6  2  0
  6  7  1  0
  7  8  1  0
  8  9  1  0
  9 10  1  0
 10 11  1  0
 11 12  1  0
 12 13  1  0
 13 14  1  0
 14 15  1  0
 15 16  1  0
 16 17  1  0
 17 18  1  0
 18 19  1  0
 19 20  1  0
 12 21  1  0
 21 22  1  0
  8 23  2  0
  4 24  1  0
 24 25  2  0
 25  1  1  0
 23  5  1  0
 22  9  1  0
 20 14  1  0
  1 26  1  0
  2 27  1  0
  3 28  1  0
  9 29  1  0
 10 30  1  0
 10 31  1  0
 11 32  1  0
 11 33  1  0
 13 34  1  0
 13 35  1  0
 14 36  1  6
 15 37  1  0
 15 38  1  0
 16 39  1  0
 16 40  1  0
 17 41  1  0
 17 42  1  0
 18 43  1  0
 18 44  1  0
 19 45  1  0
 20 46  1  0
 20 47  1  0
 21 48  1  0
 21 49  1  0
 22 50  1  0
 22 51  1  0
 24 52  1  0
 25 53  1  0
M  END
>  <meeko>  (5) 
{"is_sidechain": [false], "free_energy": -6.149, "intermolecular_energy": -9.465, "internal_energy": -0.207}

$$$$
