ligand_60_conformer_5_docked
     RDKit          3D

 44 47  0  0  0  0  0  0  0  0999 V2000
   -0.4970   42.2290   52.4900 C   0  0  0  0  0  0  0  0  0  0  0  0
    0.6910   43.1970   52.5370 C   0  0  2  0  0  0  0  0  0  0  0  0
    1.2410   43.3280   53.9800 C   0  0  0  0  0  0  0  0  0  0  0  0
    1.8340   44.7160   54.2970 C   0  0  0  0  0  0  0  0  0  0  0  0
    2.5200   45.3690   53.0730 C   0  0  1  0  0  0  0  0  0  0  0  0
    3.1200   46.7430   53.4520 C   0  0  0  0  0  0  0  0  0  0  0  0
    4.3550   46.9090   52.5760 C   0  0  0  0  0  0  0  0  0  0  0  0
    4.7170   45.5640   52.1640 N   0  0  0  0  0  0  0  0  0  0  0  0
    6.0140   45.2350   51.6420 C   0  0  0  0  0  0  0  0  0  0  0  0
    6.1370   44.2690   50.8420 O   0  0  0  0  0  0  0  0  0  0  0  0
    7.2150   45.9950   52.0240 C   0  0  0  0  0  0  0  0  0  0  0  0
    8.1310   46.5760   51.1660 C   0  0  0  0  0  0  0  0  0  0  0  0
    9.0600   47.1980   51.9730 C   0  0  0  0  0  0  0  0  0  0  0  0
    8.6450   46.9630   53.2700 C   0  0  0  0  0  0  0  0  0  0  0  0
    9.3160   47.4340   54.4850 C   0  0  0  0  0  0  0  0  0  0  0  0
   10.3620   46.8150   55.0680 N   0  0  0  0  0  0  0  0  0  0  0  0
   10.6500   47.5630   56.1210 N   0  0  0  0  0  0  0  0  0  0  0  0
    9.8150   48.5850   56.1700 N   0  0  0  0  0  0  0  0  0  0  0  0
    8.9610   48.5420   55.1610 N   0  0  0  0  0  0  0  0  0  0  0  0
    7.5440   46.2490   53.2710 O   0  0  0  0  0  0  0  0  0  0  0  0
    3.7620   44.5670   52.6230 C   0  0  0  0  0  0  0  0  0  0  0  0
    1.5020   45.5300   51.8900 C   0  0  0  0  0  0  0  0  0  0  0  0
    0.3010   44.5640   51.9550 C   0  0  0  0  0  0  0  0  0  0  0  0
   -0.8058   41.9774   53.5154 H   0  0  0  0  0  0  0  0  0  0  0  0
   -1.3361   42.7038   51.9605 H   0  0  0  0  0  0  0  0  0  0  0  0
   -0.2015   41.3113   51.9605 H   0  0  0  0  0  0  0  0  0  0  0  0
    1.4980   42.7862   51.9125 H   0  0  0  0  0  0  0  0  0  0  0  0
    0.4182   43.1336   54.6837 H   0  0  0  0  0  0  0  0  0  0  0  0
    2.0598   42.6000   54.0779 H   0  0  0  0  0  0  0  0  0  0  0  0
    1.0223   45.3754   54.6382 H   0  0  0  0  0  0  0  0  0  0  0  0
    2.6017   44.5788   55.0728 H   0  0  0  0  0  0  0  0  0  0  0  0
    2.3961   47.5464   53.2506 H   0  0  0  0  0  0  0  0  0  0  0  0
    3.3709   46.7954   54.5217 H   0  0  0  0  0  0  0  0  0  0  0  0
    4.1243   47.5315   51.6990 H   0  0  0  0  0  0  0  0  0  0  0  0
    5.1749   47.4076   53.1137 H   0  0  0  0  0  0  0  0  0  0  0  0
    8.1206   46.5477   50.0664 H   0  0  0  0  0  0  0  0  0  0  0  0
    9.9469   47.7636   51.6513 H   0  0  0  0  0  0  0  0  0  0  0  0
    9.8270   49.3260   56.9030 H   0  0  0  0  0  0  0  0  0  0  0  0
    3.5008   43.8786   51.8057 H   0  0  0  0  0  0  0  0  0  0  0  0
    4.1708   43.9523   53.4384 H   0  0  0  0  0  0  0  0  0  0  0  0
    1.1173   46.5605   51.9034 H   0  0  0  0  0  0  0  0  0  0  0  0
    2.0499   45.2923   50.9662 H   0  0  0  0  0  0  0  0  0  0  0  0
   -0.4793   45.0101   52.5891 H   0  0  0  0  0  0  0  0  0  0  0  0
   -0.0620   44.4047   50.9289 H   0  0  0  0  0  0  0  0  0  0  0  0
  1  2  1  0
  2  3  1  0
  3  4  1  0
  5  4  1  6
  5  6  1  0
  6  7  1  0
  7  8  1  0
  8  9  1  0
  9 10  2  0
  9 11  1  0
 11 12  2  0
 12 13  1  0
 13 14  2  0
 14 15  1  0
 15 16  1  0
 16 17  2  0
 17 18  1  0
 18 19  1  0
 14 20  1  0
  8 21  1  0
  5 22  1  0
 22 23  1  0
 23  2  1  0
 21  5  1  0
 20 11  1  0
 19 15  2  0
  1 24  1  0
  1 25  1  0
  1 26  1  0
  2 27  1  1
  3 28  1  0
  3 29  1  0
  4 30  1  0
  4 31  1  0
  6 32  1  0
  6 33  1  0
  7 34  1  0
  7 35  1  0
 12 36  1  0
 13 37  1  0
 18 38  1  0
 21 39  1  0
 21 40  1  0
 22 41  1  0
 22 42  1  0
 23 43  1  0
 23 44  1  0
M  END
>  <meeko>  (1) 
{"is_sidechain": [false], "free_energy": -8.708, "intermolecular_energy": -10.235, "internal_energy": -0.383}

$$$$
ligand_60_conformer_5_docked
     RDKit          3D

 44 47  0  0  0  0  0  0  0  0999 V2000
   10.2190   47.2580   54.5580 C   0  0  0  0  0  0  0  0  0  0  0  0
    9.1430   46.7170   53.6090 C   0  0  2  0  0  0  0  0  0  0  0  0
    9.0170   47.6110   52.3490 C   0  0  0  0  0  0  0  0  0  0  0  0
    7.5920   47.6630   51.7620 C   0  0  0  0  0  0  0  0  0  0  0  0
    6.8260   46.3280   51.9260 C   0  0  1  0  0  0  0  0  0  0  0  0
    5.4170   46.4260   51.2980 C   0  0  0  0  0  0  0  0  0  0  0  0
    5.0960   45.0280   50.7860 C   0  0  0  0  0  0  0  0  0  0  0  0
    6.3820   44.3670   50.6430 N   0  0  0  0  0  0  0  0  0  0  0  0
    6.5610   43.1820   49.8520 C   0  0  0  0  0  0  0  0  0  0  0  0
    7.6580   42.9860   49.2630 O   0  0  0  0  0  0  0  0  0  0  0  0
    5.4870   42.1870   49.6990 C   0  0  0  0  0  0  0  0  0  0  0  0
    4.6560   41.7120   50.6980 C   0  0  0  0  0  0  0  0  0  0  0  0
    3.7980   40.8250   50.0820 C   0  0  0  0  0  0  0  0  0  0  0  0
    4.1550   40.8250   48.7480 C   0  0  0  0  0  0  0  0  0  0  0  0
    3.5210   40.0350   47.6880 C   0  0  0  0  0  0  0  0  0  0  0  0
    2.8160   38.9060   47.8960 N   0  0  0  0  0  0  0  0  0  0  0  0
    2.4280   38.5250   46.6900 N   0  0  0  0  0  0  0  0  0  0  0  0
    2.8800   39.3870   45.7960 N   0  0  0  0  0  0  0  0  0  0  0  0
    3.5710   40.3500   46.3810 N   0  0  0  0  0  0  0  0  0  0  0  0
    5.1590   41.6460   48.5480 O   0  0  0  0  0  0  0  0  0  0  0  0
    7.4840   45.1920   51.1120 C   0  0  0  0  0  0  0  0  0  0  0  0
    6.7180   45.9370   53.4420 C   0  0  0  0  0  0  0  0  0  0  0  0
    7.7980   46.5770   54.3380 C   0  0  0  0  0  0  0  0  0  0  0  0
    9.9028   47.0990   55.5995 H   0  0  0  0  0  0  0  0  0  0  0  0
   11.1665   46.7291   54.3776 H   0  0  0  0  0  0  0  0  0  0  0  0
   10.3596   48.3340   54.3776 H   0  0  0  0  0  0  0  0  0  0  0  0
    9.4479   45.7147   53.2736 H   0  0  0  0  0  0  0  0  0  0  0  0
    9.3186   48.6340   52.6182 H   0  0  0  0  0  0  0  0  0  0  0  0
    9.6651   47.1699   51.5774 H   0  0  0  0  0  0  0  0  0  0  0  0
    7.0292   48.4564   52.2756 H   0  0  0  0  0  0  0  0  0  0  0  0
    7.6852   47.8608   50.6839 H   0  0  0  0  0  0  0  0  0  0  0  0
    4.6807   46.7360   52.0542 H   0  0  0  0  0  0  0  0  0  0  0  0
    5.3835   47.1719   50.4902 H   0  0  0  0  0  0  0  0  0  0  0  0
    4.4640   44.4892   51.5074 H   0  0  0  0  0  0  0  0  0  0  0  0
    4.5419   45.0565   49.8362 H   0  0  0  0  0  0  0  0  0  0  0  0
    4.6755   41.9853   51.7633 H   0  0  0  0  0  0  0  0  0  0  0  0
    2.9960   40.2393   50.5550 H   0  0  0  0  0  0  0  0  0  0  0  0
    2.7140   39.3170   44.7690 H   0  0  0  0  0  0  0  0  0  0  0  0
    8.1613   44.6042   51.7490 H   0  0  0  0  0  0  0  0  0  0  0  0
    8.0878   45.5814   50.2791 H   0  0  0  0  0  0  0  0  0  0  0  0
    5.7314   46.2542   53.8107 H   0  0  0  0  0  0  0  0  0  0  0  0
    6.8642   44.8482   53.4990 H   0  0  0  0  0  0  0  0  0  0  0  0
    7.4563   47.5757   54.6475 H   0  0  0  0  0  0  0  0  0  0  0  0
    7.9500   45.9208   55.2076 H   0  0  0  0  0  0  0  0  0  0  0  0
  1  2  1  0
  2  3  1  0
  3  4  1  0
  5  4  1  6
  5  6  1  0
  6  7  1  0
  7  8  1  0
  8  9  1  0
  9 10  2  0
  9 11  1  0
 11 12  2  0
 12 13  1  0
 13 14  2  0
 14 15  1  0
 15 16  1  0
 16 17  2  0
 17 18  1  0
 18 19  1  0
 14 20  1  0
  8 21  1  0
  5 22  1  0
 22 23  1  0
 23  2  1  0
 21  5  1  0
 20 11  1  0
 19 15  2  0
  1 24  1  0
  1 25  1  0
  1 26  1  0
  2 27  1  1
  3 28  1  0
  3 29  1  0
  4 30  1  0
  4 31  1  0
  6 32  1  0
  6 33  1  0
  7 34  1  0
  7 35  1  0
 12 36  1  0
 13 37  1  0
 18 38  1  0
 21 39  1  0
 21 40  1  0
 22 41  1  0
 22 42  1  0
 23 43  1  0
 23 44  1  0
M  END
>  <meeko>  (2) 
{"is_sidechain": [false], "free_energy": -8.656, "intermolecular_energy": -10.335, "internal_energy": -0.222}

$$$$
ligand_60_conformer_5_docked
     RDKit          3D

 44 47  0  0  0  0  0  0  0  0999 V2000
    8.6850   46.2260   53.0500 C   0  0  0  0  0  0  0  0  0  0  0  0
    7.1810   46.0270   52.8260 C   0  0  2  0  0  0  0  0  0  0  0  0
    6.9170   45.2270   51.5250 C   0  0  0  0  0  0  0  0  0  0  0  0
    5.6000   45.6060   50.8170 C   0  0  0  0  0  0  0  0  0  0  0  0
    4.4760   45.9950   51.8090 C   0  0  1  0  0  0  0  0  0  0  0  0
    3.1740   46.3390   51.0490 C   0  0  0  0  0  0  0  0  0  0  0  0
    2.0370   45.9190   51.9720 C   0  0  0  0  0  0  0  0  0  0  0  0
    2.6210   44.9530   52.8860 N   0  0  0  0  0  0  0  0  0  0  0  0
    1.8280   44.0470   53.6690 C   0  0  0  0  0  0  0  0  0  0  0  0
    1.8560   42.8140   53.4130 O   0  0  0  0  0  0  0  0  0  0  0  0
    0.9680   44.5240   54.7640 C   0  0  0  0  0  0  0  0  0  0  0  0
   -0.3720   44.2310   54.9470 C   0  0  0  0  0  0  0  0  0  0  0  0
   -0.7400   44.8710   56.1120 C   0  0  0  0  0  0  0  0  0  0  0  0
    0.4000   45.5040   56.5670 C   0  0  0  0  0  0  0  0  0  0  0  0
    0.5060   46.3140   57.7850 C   0  0  0  0  0  0  0  0  0  0  0  0
   -0.5020   47.0400   58.3080 N   0  0  0  0  0  0  0  0  0  0  0  0
    0.0160   47.6050   59.3870 N   0  0  0  0  0  0  0  0  0  0  0  0
    1.2800   47.2360   59.5060 N   0  0  0  0  0  0  0  0  0  0  0  0
    1.6270   46.4250   58.5200 N   0  0  0  0  0  0  0  0  0  0  0  0
    1.4010   45.2770   55.7500 O   0  0  0  0  0  0  0  0  0  0  0  0
    4.0540   44.7960   52.6860 C   0  0  0  0  0  0  0  0  0  0  0  0
    4.9210   47.2080   52.6990 C   0  0  0  0  0  0  0  0  0  0  0  0
    6.4500   47.3780   52.8170 C   0  0  0  0  0  0  0  0  0  0  0  0
    8.8944   46.2537   54.1295 H   0  0  0  0  0  0  0  0  0  0  0  0
    9.2375   45.3931   52.5906 H   0  0  0  0  0  0  0  0  0  0  0  0
    9.0019   47.1739   52.5906 H   0  0  0  0  0  0  0  0  0  0  0  0
    6.7804   45.4365   53.6632 H   0  0  0  0  0  0  0  0  0  0  0  0
    7.7496   45.4107   50.8300 H   0  0  0  0  0  0  0  0  0  0  0  0
    6.8333   44.1683   51.8116 H   0  0  0  0  0  0  0  0  0  0  0  0
    5.7921   46.4601   50.1510 H   0  0  0  0  0  0  0  0  0  0  0  0
    5.2578   44.7222   50.2586 H   0  0  0  0  0  0  0  0  0  0  0  0
    3.1231   47.4185   50.8438 H   0  0  0  0  0  0  0  0  0  0  0  0
    3.1214   45.8241   50.0784 H   0  0  0  0  0  0  0  0  0  0  0  0
    1.6494   46.7871   52.5252 H   0  0  0  0  0  0  0  0  0  0  0  0
    1.1908   45.4939   51.4124 H   0  0  0  0  0  0  0  0  0  0  0  0
   -1.0114   43.6150   54.2976 H   0  0  0  0  0  0  0  0  0  0  0  0
   -1.7349   44.8762   56.5813 H   0  0  0  0  0  0  0  0  0  0  0  0
    1.9160   47.5420   60.2730 H   0  0  0  0  0  0  0  0  0  0  0  0
    4.5826   44.8190   53.6504 H   0  0  0  0  0  0  0  0  0  0  0  0
    4.2993   43.8342   52.2118 H   0  0  0  0  0  0  0  0  0  0  0  0
    4.5043   48.1276   52.2623 H   0  0  0  0  0  0  0  0  0  0  0  0
    4.5455   47.0102   53.7138 H   0  0  0  0  0  0  0  0  0  0  0  0
    6.8084   47.9699   51.9619 H   0  0  0  0  0  0  0  0  0  0  0  0
    6.6626   47.8853   53.7696 H   0  0  0  0  0  0  0  0  0  0  0  0
  1  2  1  0
  2  3  1  0
  3  4  1  0
  5  4  1  1
  5  6  1  0
  6  7  1  0
  7  8  1  0
  8  9  1  0
  9 10  2  0
  9 11  1  0
 11 12  2  0
 12 13  1  0
 13 14  2  0
 14 15  1  0
 15 16  1  0
 16 17  2  0
 17 18  1  0
 18 19  1  0
 14 20  1  0
  8 21  1  0
  5 22  1  0
 22 23  1  0
 23  2  1  0
 21  5  1  0
 20 11  1  0
 19 15  2  0
  1 24  1  0
  1 25  1  0
  1 26  1  0
  2 27  1  6
  3 28  1  0
  3 29  1  0
  4 30  1  0
  4 31  1  0
  6 32  1  0
  6 33  1  0
  7 34  1  0
  7 35  1  0
 12 36  1  0
 13 37  1  0
 18 38  1  0
 21 39  1  0
 21 40  1  0
 22 41  1  0
 22 42  1  0
 23 43  1  0
 23 44  1  0
M  END
>  <meeko>  (3) 
{"is_sidechain": [false], "free_energy": -8.579, "intermolecular_energy": -9.998, "internal_energy": -0.469}

$$$$
ligand_60_conformer_5_docked
     RDKit          3D

 44 47  0  0  0  0  0  0  0  0999 V2000
   10.1170   47.8060   55.0810 C   0  0  0  0  0  0  0  0  0  0  0  0
    9.0360   47.1910   54.1840 C   0  0  2  0  0  0  0  0  0  0  0  0
    9.5900   45.9690   53.4080 C   0  0  0  0  0  0  0  0  0  0  0  0
    8.9480   45.7680   52.0210 C   0  0  0  0  0  0  0  0  0  0  0  0
    7.4560   46.1820   51.9840 C   0  0  1  0  0  0  0  0  0  0  0  0
    6.8550   45.9350   50.5810 C   0  0  0  0  0  0  0  0  0  0  0  0
    5.3920   45.5840   50.8170 C   0  0  0  0  0  0  0  0  0  0  0  0
    5.3200   45.1420   52.1980 N   0  0  0  0  0  0  0  0  0  0  0  0
    4.2150   44.3830   52.7140 C   0  0  0  0  0  0  0  0  0  0  0  0
    3.8770   43.3110   52.1450 O   0  0  0  0  0  0  0  0  0  0  0  0
    3.4550   44.8310   53.8920 C   0  0  0  0  0  0  0  0  0  0  0  0
    3.8770   45.7340   54.8510 C   0  0  0  0  0  0  0  0  0  0  0  0
    2.8260   45.8620   55.7350 C   0  0  0  0  0  0  0  0  0  0  0  0
    1.8300   45.0360   55.2520 C   0  0  0  0  0  0  0  0  0  0  0  0
    0.5080   44.8390   55.8560 C   0  0  0  0  0  0  0  0  0  0  0  0
    0.2200   45.0710   57.1520 N   0  0  0  0  0  0  0  0  0  0  0  0
   -1.0630   44.7690   57.2700 N   0  0  0  0  0  0  0  0  0  0  0  0
   -1.5250   44.3730   56.0970 N   0  0  0  0  0  0  0  0  0  0  0  0
   -0.5710   44.4020   55.1820 N   0  0  0  0  0  0  0  0  0  0  0  0
    2.2280   44.4390   54.1540 O   0  0  0  0  0  0  0  0  0  0  0  0
    6.5940   45.2750   52.8900 C   0  0  0  0  0  0  0  0  0  0  0  0
    7.2920   47.6900   52.3870 C   0  0  0  0  0  0  0  0  0  0  0  0
    8.4560   48.2490   53.2320 C   0  0  0  0  0  0  0  0  0  0  0  0
    9.8482   47.6531   56.1366 H   0  0  0  0  0  0  0  0  0  0  0  0
   11.0833   47.3224   54.8749 H   0  0  0  0  0  0  0  0  0  0  0  0
   10.1950   48.8837   54.8749 H   0  0  0  0  0  0  0  0  0  0  0  0
    8.2169   46.8310   54.8239 H   0  0  0  0  0  0  0  0  0  0  0  0
   10.6728   46.1067   53.2720 H   0  0  0  0  0  0  0  0  0  0  0  0
    9.3500   45.0761   54.0039 H   0  0  0  0  0  0  0  0  0  0  0  0
    9.4993   46.3746   51.2874 H   0  0  0  0  0  0  0  0  0  0  0  0
    8.9997   44.6949   51.7847 H   0  0  0  0  0  0  0  0  0  0  0  0
    6.9374   46.8414   49.9632 H   0  0  0  0  0  0  0  0  0  0  0  0
    7.3848   45.1322   50.0473 H   0  0  0  0  0  0  0  0  0  0  0  0
    4.7544   46.4668   50.6616 H   0  0  0  0  0  0  0  0  0  0  0  0
    5.0395   44.8091   50.1204 H   0  0  0  0  0  0  0  0  0  0  0  0
    4.8501   46.2447   54.8988 H   0  0  0  0  0  0  0  0  0  0  0  0
    2.7888   46.4909   56.6367 H   0  0  0  0  0  0  0  0  0  0  0  0
   -2.5090   44.0770   55.9170 H   0  0  0  0  0  0  0  0  0  0  0  0
    6.4502   45.7403   53.8763 H   0  0  0  0  0  0  0  0  0  0  0  0
    7.0698   44.2989   53.0654 H   0  0  0  0  0  0  0  0  0  0  0  0
    7.2164   48.2869   51.4662 H   0  0  0  0  0  0  0  0  0  0  0  0
    6.3888   47.7539   53.0116 H   0  0  0  0  0  0  0  0  0  0  0  0
    9.2525   48.5931   52.5558 H   0  0  0  0  0  0  0  0  0  0  0  0
    8.0662   49.0775   53.8416 H   0  0  0  0  0  0  0  0  0  0  0  0
  1  2  1  0
  2  3  1  0
  3  4  1  0
  5  4  1  1
  5  6  1  0
  6  7  1  0
  7  8  1  0
  8  9  1  0
  9 10  2  0
  9 11  1  0
 11 12  2  0
 12 13  1  0
 13 14  2  0
 14 15  1  0
 15 16  1  0
 16 17  2  0
 17 18  1  0
 18 19  1  0
 14 20  1  0
  8 21  1  0
  5 22  1  0
 22 23  1  0
 23  2  1  0
 21  5  1  0
 20 11  1  0
 19 15  2  0
  1 24  1  0
  1 25  1  0
  1 26  1  0
  2 27  1  6
  3 28  1  0
  3 29  1  0
  4 30  1  0
  4 31  1  0
  6 32  1  0
  6 33  1  0
  7 34  1  0
  7 35  1  0
 12 36  1  0
 13 37  1  0
 18 38  1  0
 21 39  1  0
 21 40  1  0
 22 41  1  0
 22 42  1  0
 23 43  1  0
 23 44  1  0
M  END
>  <meeko>  (4) 
{"is_sidechain": [false], "free_energy": -8.568, "intermolecular_energy": -10.138, "internal_energy": -0.316}

$$$$
ligand_60_conformer_5_docked
     RDKit          3D

 44 47  0  0  0  0  0  0  0  0999 V2000
   -2.2770   42.7780   51.5440 C   0  0  0  0  0  0  0  0  0  0  0  0
   -1.0800   43.4560   52.2230 C   0  0  2  0  0  0  0  0  0  0  0  0
    0.0820   42.4500   52.4250 C   0  0  0  0  0  0  0  0  0  0  0  0
    0.9370   42.7300   53.6780 C   0  0  0  0  0  0  0  0  0  0  0  0
    1.0670   44.2410   53.9910 C   0  0  1  0  0  0  0  0  0  0  0  0
    1.9530   44.4650   55.2380 C   0  0  0  0  0  0  0  0  0  0  0  0
    2.6580   45.7950   55.0070 C   0  0  0  0  0  0  0  0  0  0  0  0
    2.6050   46.0140   53.5720 N   0  0  0  0  0  0  0  0  0  0  0  0
    3.4590   46.9510   52.8980 C   0  0  0  0  0  0  0  0  0  0  0  0
    2.9670   48.0030   52.4090 O   0  0  0  0  0  0  0  0  0  0  0  0
    4.9040   46.7110   52.7510 C   0  0  0  0  0  0  0  0  0  0  0  0
    5.5310   46.0760   51.6940 C   0  0  0  0  0  0  0  0  0  0  0  0
    6.8790   46.1110   51.9810 C   0  0  0  0  0  0  0  0  0  0  0  0
    6.9870   46.7720   53.1890 C   0  0  0  0  0  0  0  0  0  0  0  0
    8.2350   47.0600   53.9030 C   0  0  0  0  0  0  0  0  0  0  0  0
    8.3260   47.8480   54.9930 N   0  0  0  0  0  0  0  0  0  0  0  0
    9.6100   47.8350   55.3100 N   0  0  0  0  0  0  0  0  0  0  0  0
   10.2620   47.0730   54.4490 N   0  0  0  0  0  0  0  0  0  0  0  0
    9.4360   46.5680   53.5500 N   0  0  0  0  0  0  0  0  0  0  0  0
    5.7990   47.1210   53.6220 O   0  0  0  0  0  0  0  0  0  0  0  0
    1.8420   44.9850   52.8820 C   0  0  0  0  0  0  0  0  0  0  0  0
   -0.3490   44.8820   54.2100 C   0  0  0  0  0  0  0  0  0  0  0  0
   -1.5050   44.1020   53.5510 C   0  0  0  0  0  0  0  0  0  0  0  0
   -2.9625   42.3897   52.3117 H   0  0  0  0  0  0  0  0  0  0  0  0
   -2.8060   43.5106   50.9167 H   0  0  0  0  0  0  0  0  0  0  0  0
   -1.9207   41.9476   50.9167 H   0  0  0  0  0  0  0  0  0  0  0  0
   -0.7131   44.2567   51.5640 H   0  0  0  0  0  0  0  0  0  0  0  0
   -0.3451   41.4403   52.5151 H   0  0  0  0  0  0  0  0  0  0  0  0
    0.7470   42.5496   51.5545 H   0  0  0  0  0  0  0  0  0  0  0  0
    0.4704   42.2314   54.5404 H   0  0  0  0  0  0  0  0  0  0  0  0
    1.9483   42.3445   53.4815 H   0  0  0  0  0  0  0  0  0  0  0  0
    1.3334   44.5116   56.1457 H   0  0  0  0  0  0  0  0  0  0  0  0
    2.6707   43.6435   55.3798 H   0  0  0  0  0  0  0  0  0  0  0  0
    2.1373   46.6045   55.5396 H   0  0  0  0  0  0  0  0  0  0  0  0
    3.6923   45.7808   55.3813 H   0  0  0  0  0  0  0  0  0  0  0  0
    5.0527   45.6343   50.8074 H   0  0  0  0  0  0  0  0  0  0  0  0
    7.6983   45.6983   51.3741 H   0  0  0  0  0  0  0  0  0  0  0  0
   11.2900   46.8950   54.4760 H   0  0  0  0  0  0  0  0  0  0  0  0
    1.1446   45.4394   52.1628 H   0  0  0  0  0  0  0  0  0  0  0  0
    2.4918   44.3067   52.3096 H   0  0  0  0  0  0  0  0  0  0  0  0
   -0.5406   44.9339   55.2919 H   0  0  0  0  0  0  0  0  0  0  0  0
   -0.3244   45.8731   53.7335 H   0  0  0  0  0  0  0  0  0  0  0  0
   -1.8383   43.3117   54.2398 H   0  0  0  0  0  0  0  0  0  0  0  0
   -2.3170   44.8130   53.3385 H   0  0  0  0  0  0  0  0  0  0  0  0
  1  2  1  0
  2  3  1  0
  3  4  1  0
  5  4  1  1
  5  6  1  0
  6  7  1  0
  7  8  1  0
  8  9  1  0
  9 10  2  0
  9 11  1  0
 11 12  2  0
 12 13  1  0
 13 14  2  0
 14 15  1  0
 15 16  1  0
 16 17  2  0
 17 18  1  0
 18 19  1  0
 14 20  1  0
  8 21  1  0
  5 22  1  0
 22 23  1  0
 23  2  1  0
 21  5  1  0
 20 11  1  0
 19 15  2  0
  1 24  1  0
  1 25  1  0
  1 26  1  0
  2 27  1  1
  3 28  1  0
  3 29  1  0
  4 30  1  0
  4 31  1  0
  6 32  1  0
  6 33  1  0
  7 34  1  0
  7 35  1  0
 12 36  1  0
 13 37  1  0
 18 38  1  0
 21 39  1  0
 21 40  1  0
 22 41  1  0
 22 42  1  0
 23 43  1  0
 23 44  1  0
M  END
>  <meeko>  (5) 
{"is_sidechain": [false], "free_energy": -8.464, "intermolecular_energy": -9.879, "internal_energy": -0.451}

$$$$
