ligand_85_conformer_2_docked
     RDKit          3D

 44 47  0  0  0  0  0  0  0  0999 V2000
    3.9630   40.5420   48.4640 C   0  0  0  0  0  0  0  0  0  0  0  0
    3.2860   41.1440   49.6930 C   0  0  0  0  0  0  0  0  0  0  0  0
    4.2620   41.3300   50.8610 C   0  0  0  0  0  0  0  0  0  0  0  0
    4.7120   42.7180   50.9540 N   0  0  0  0  0  0  0  0  0  0  0  0
    3.9870   43.6890   51.5000 N   0  0  0  0  0  0  0  0  0  0  0  0
    4.6740   44.8480   51.3520 C   0  0  0  0  0  0  0  0  0  0  0  0
    4.2000   46.1290   51.7860 N   0  0  0  0  0  0  0  0  0  0  0  0
    4.1590   46.4990   53.1980 C   0  0  0  0  0  0  0  0  0  0  0  0
    5.5410   46.7700   53.6960 C   0  0  0  0  0  0  0  0  0  0  0  0
    6.4490   47.5130   53.0340 N   0  0  0  0  0  0  0  0  0  0  0  0
    7.5110   47.4260   53.8610 C   0  0  0  0  0  0  0  0  0  0  0  0
    8.8360   48.0540   53.5740 C   0  0  0  0  0  0  0  0  0  0  0  0
    9.9110   46.9700   53.4480 C   0  0  0  0  0  0  0  0  0  0  0  0
    9.4210   45.6540   52.8620 C   0  0  0  0  0  0  0  0  0  0  0  0
   10.2960   46.5800   52.0290 C   0  0  0  0  0  0  0  0  0  0  0  0
    7.2640   46.6680   54.9470 N   0  0  0  0  0  0  0  0  0  0  0  0
    6.0330   46.2810   54.8080 O   0  0  0  0  0  0  0  0  0  0  0  0
    5.8570   44.5970   50.6910 C   0  0  0  0  0  0  0  0  0  0  0  0
    6.9010   45.4190   50.2690 C   0  0  0  0  0  0  0  0  0  0  0  0
    7.9680   44.8110   49.5800 C   0  0  0  0  0  0  0  0  0  0  0  0
    7.9600   43.4200   49.3300 C   0  0  0  0  0  0  0  0  0  0  0  0
    6.8880   42.6200   49.7670 C   0  0  0  0  0  0  0  0  0  0  0  0
    5.8470   43.2500   50.4520 C   0  0  0  0  0  0  0  0  0  0  0  0
    4.7494   39.8427   48.7842 H   0  0  0  0  0  0  0  0  0  0  0  0
    3.2168   40.0036   47.8612 H   0  0  0  0  0  0  0  0  0  0  0  0
    4.4105   41.3460   47.8612 H   0  0  0  0  0  0  0  0  0  0  0  0
    2.8674   42.1245   49.4219 H   0  0  0  0  0  0  0  0  0  0  0  0
    2.4989   40.4481   50.0190 H   0  0  0  0  0  0  0  0  0  0  0  0
    3.7579   41.0520   51.7983 H   0  0  0  0  0  0  0  0  0  0  0  0
    5.1391   40.6888   50.6893 H   0  0  0  0  0  0  0  0  0  0  0  0
    3.8600   46.8160   51.0780 H   0  0  0  0  0  0  0  0  0  0  0  0
    3.5442   47.4030   53.3199 H   0  0  0  0  0  0  0  0  0  0  0  0
    3.7233   45.6705   53.7756 H   0  0  0  0  0  0  0  0  0  0  0  0
    8.7755   48.6187   52.6320 H   0  0  0  0  0  0  0  0  0  0  0  0
    9.1011   48.7325   54.3982 H   0  0  0  0  0  0  0  0  0  0  0  0
   10.4710   47.2705   54.3458 H   0  0  0  0  0  0  0  0  0  0  0  0
    9.8263   44.7014   53.2340 H   0  0  0  0  0  0  0  0  0  0  0  0
    8.4370   45.1818   52.7251 H   0  0  0  0  0  0  0  0  0  0  0  0
   11.3336   46.2966   51.7988 H   0  0  0  0  0  0  0  0  0  0  0  0
   10.2063   47.0542   51.0405 H   0  0  0  0  0  0  0  0  0  0  0  0
    6.8916   46.5010   50.4667 H   0  0  0  0  0  0  0  0  0  0  0  0
    8.8139   45.4231   49.2338 H   0  0  0  0  0  0  0  0  0  0  0  0
    8.7993   42.9586   48.7890 H   0  0  0  0  0  0  0  0  0  0  0  0
    6.8707   41.5369   49.5758 H   0  0  0  0  0  0  0  0  0  0  0  0
  1  2  1  0
  2  3  1  0
  3  4  1  0
  4  5  1  0
  5  6  2  0
  6  7  1  0
  7  8  1  0
  8  9  1  0
  9 10  2  0
 10 11  1  0
 11 12  1  0
 12 13  1  0
 13 14  1  0
 14 15  1  0
 11 16  2  0
 16 17  1  0
  6 18  1  0
 18 19  2  0
 19 20  1  0
 20 21  2  0
 21 22  1  0
 22 23  2  0
 23  4  1  0
 17  9  1  0
 23 18  1  0
 15 13  1  0
  1 24  1  0
  1 25  1  0
  1 26  1  0
  2 27  1  0
  2 28  1  0
  3 29  1  0
  3 30  1  0
  7 31  1  0
  8 32  1  0
  8 33  1  0
 12 34  1  0
 12 35  1  0
 13 36  1  0
 14 37  1  0
 14 38  1  0
 15 39  1  0
 15 40  1  0
 19 41  1  0
 20 42  1  0
 21 43  1  0
 22 44  1  0
M  END
>  <meeko>  (1) 
{"is_sidechain": [false], "free_energy": -8.284, "intermolecular_energy": -11.674, "internal_energy": -1.111}

$$$$
ligand_85_conformer_2_docked
     RDKit          3D

 44 47  0  0  0  0  0  0  0  0999 V2000
    7.4090   43.1030   49.2400 C   0  0  0  0  0  0  0  0  0  0  0  0
    6.6550   44.1580   50.0470 C   0  0  0  0  0  0  0  0  0  0  0  0
    7.4630   45.4510   50.2090 C   0  0  0  0  0  0  0  0  0  0  0  0
    7.2250   46.0590   51.5160 N   0  0  0  0  0  0  0  0  0  0  0  0
    6.0160   46.3790   51.9680 N   0  0  0  0  0  0  0  0  0  0  0  0
    6.1720   46.9820   53.1710 C   0  0  0  0  0  0  0  0  0  0  0  0
    5.0940   47.5020   53.9600 N   0  0  0  0  0  0  0  0  0  0  0  0
    4.3210   46.6550   54.8630 C   0  0  0  0  0  0  0  0  0  0  0  0
    3.4340   45.7440   54.0770 C   0  0  0  0  0  0  0  0  0  0  0  0
    3.7610   44.4820   53.7390 N   0  0  0  0  0  0  0  0  0  0  0  0
    2.6750   44.1130   53.0280 C   0  0  0  0  0  0  0  0  0  0  0  0
    2.5310   42.7800   52.3700 C   0  0  0  0  0  0  0  0  0  0  0  0
    3.4530   42.7000   51.1480 C   0  0  0  0  0  0  0  0  0  0  0  0
    4.4220   41.5270   51.1580 C   0  0  0  0  0  0  0  0  0  0  0  0
    3.2230   41.5150   50.2210 C   0  0  0  0  0  0  0  0  0  0  0  0
    1.7570   45.0950   52.9330 N   0  0  0  0  0  0  0  0  0  0  0  0
    2.2640   46.0880   53.5960 O   0  0  0  0  0  0  0  0  0  0  0  0
    7.5140   47.0480   53.4790 C   0  0  0  0  0  0  0  0  0  0  0  0
    8.2140   47.5780   54.5610 C   0  0  0  0  0  0  0  0  0  0  0  0
    9.6190   47.4910   54.5320 C   0  0  0  0  0  0  0  0  0  0  0  0
   10.2760   46.8880   53.4350 C   0  0  0  0  0  0  0  0  0  0  0  0
    9.5390   46.3660   52.3560 C   0  0  0  0  0  0  0  0  0  0  0  0
    8.1470   46.4620   52.4160 C   0  0  0  0  0  0  0  0  0  0  0  0
    7.9086   42.4039   49.9268 H   0  0  0  0  0  0  0  0  0  0  0  0
    6.7000   42.5504   48.6060 H   0  0  0  0  0  0  0  0  0  0  0  0
    8.1614   43.5949   48.6060 H   0  0  0  0  0  0  0  0  0  0  0  0
    5.7123   44.3919   49.5307 H   0  0  0  0  0  0  0  0  0  0  0  0
    6.4709   43.7472   51.0507 H   0  0  0  0  0  0  0  0  0  0  0  0
    8.5339   45.2204   50.1096 H   0  0  0  0  0  0  0  0  0  0  0  0
    7.1468   46.1608   49.4304 H   0  0  0  0  0  0  0  0  0  0  0  0
    4.8410   48.5110   53.8800 H   0  0  0  0  0  0  0  0  0  0  0  0
    5.0085   46.0539   55.4763 H   0  0  0  0  0  0  0  0  0  0  0  0
    3.7008   47.2910   55.5117 H   0  0  0  0  0  0  0  0  0  0  0  0
    2.8028   41.9891   53.0846 H   0  0  0  0  0  0  0  0  0  0  0  0
    1.4882   42.6461   52.0467 H   0  0  0  0  0  0  0  0  0  0  0  0
    3.5371   43.7876   51.0066 H   0  0  0  0  0  0  0  0  0  0  0  0
    5.4367   41.6484   50.7511 H   0  0  0  0  0  0  0  0  0  0  0  0
    4.8127   40.8476   51.9298 H   0  0  0  0  0  0  0  0  0  0  0  0
    3.3710   41.6279   49.1369 H   0  0  0  0  0  0  0  0  0  0  0  0
    2.3880   40.8235   50.0349 H   0  0  0  0  0  0  0  0  0  0  0  0
    7.6886   48.0468   55.4061 H   0  0  0  0  0  0  0  0  0  0  0  0
   10.2091   47.8947   55.3680 H   0  0  0  0  0  0  0  0  0  0  0  0
   11.3742   46.8263   53.4249 H   0  0  0  0  0  0  0  0  0  0  0  0
   10.0413   45.8990   51.4960 H   0  0  0  0  0  0  0  0  0  0  0  0
  1  2  1  0
  2  3  1  0
  3  4  1  0
  4  5  1  0
  5  6  2  0
  6  7  1  0
  7  8  1  0
  8  9  1  0
  9 10  2  0
 10 11  1  0
 11 12  1  0
 12 13  1  0
 13 14  1  0
 14 15  1  0
 11 16  2  0
 16 17  1  0
  6 18  1  0
 18 19  2  0
 19 20  1  0
 20 21  2  0
 21 22  1  0
 22 23  2  0
 23  4  1  0
 17  9  1  0
 23 18  1  0
 15 13  1  0
  1 24  1  0
  1 25  1  0
  1 26  1  0
  2 27  1  0
  2 28  1  0
  3 29  1  0
  3 30  1  0
  7 31  1  0
  8 32  1  0
  8 33  1  0
 12 34  1  0
 12 35  1  0
 13 36  1  0
 14 37  1  0
 14 38  1  0
 15 39  1  0
 15 40  1  0
 19 41  1  0
 20 42  1  0
 21 43  1  0
 22 44  1  0
M  END
>  <meeko>  (2) 
{"is_sidechain": [false], "free_energy": -8.127, "intermolecular_energy": -11.534, "internal_energy": -1.03}

$$$$
ligand_85_conformer_2_docked
     RDKit          3D

 44 47  0  0  0  0  0  0  0  0999 V2000
   11.0250   47.5330   56.2390 C   0  0  0  0  0  0  0  0  0  0  0  0
   10.2020   47.0930   55.0300 C   0  0  0  0  0  0  0  0  0  0  0  0
    9.1450   48.1330   54.6390 C   0  0  0  0  0  0  0  0  0  0  0  0
    8.0530   47.5150   53.8870 N   0  0  0  0  0  0  0  0  0  0  0  0
    6.7970   47.4720   54.3190 N   0  0  0  0  0  0  0  0  0  0  0  0
    6.0740   46.7700   53.4140 C   0  0  0  0  0  0  0  0  0  0  0  0
    4.6770   46.4790   53.5450 N   0  0  0  0  0  0  0  0  0  0  0  0
    4.1960   45.3330   54.3120 C   0  0  0  0  0  0  0  0  0  0  0  0
    3.7710   44.2400   53.3860 C   0  0  0  0  0  0  0  0  0  0  0  0
    4.6140   43.5600   52.5860 N   0  0  0  0  0  0  0  0  0  0  0  0
    3.7590   42.7350   51.9470 C   0  0  0  0  0  0  0  0  0  0  0  0
    4.1780   41.7670   50.8890 C   0  0  0  0  0  0  0  0  0  0  0  0
    5.3610   42.3370   50.0990 C   0  0  0  0  0  0  0  0  0  0  0  0
    6.6040   41.4600   50.0940 C   0  0  0  0  0  0  0  0  0  0  0  0
    5.7480   41.5730   48.8410 C   0  0  0  0  0  0  0  0  0  0  0  0
    2.4790   42.9150   52.3280 N   0  0  0  0  0  0  0  0  0  0  0  0
    2.5290   43.8550   53.2210 O   0  0  0  0  0  0  0  0  0  0  0  0
    6.9000   46.3560   52.3900 C   0  0  0  0  0  0  0  0  0  0  0  0
    6.6810   45.5980   51.2410 C   0  0  0  0  0  0  0  0  0  0  0  0
    7.7890   45.3400   50.4130 C   0  0  0  0  0  0  0  0  0  0  0  0
    9.0690   45.8340   50.7530 C   0  0  0  0  0  0  0  0  0  0  0  0
    9.2560   46.5930   51.9230 C   0  0  0  0  0  0  0  0  0  0  0  0
    8.1370   46.8380   52.7220 C   0  0  0  0  0  0  0  0  0  0  0  0
   10.4986   47.2516   57.1630 H   0  0  0  0  0  0  0  0  0  0  0  0
   12.0080   47.0401   56.2124 H   0  0  0  0  0  0  0  0  0  0  0  0
   11.1611   48.6242   56.2124 H   0  0  0  0  0  0  0  0  0  0  0  0
   10.8797   46.9389   54.1773 H   0  0  0  0  0  0  0  0  0  0  0  0
    9.6782   46.1637   55.2983 H   0  0  0  0  0  0  0  0  0  0  0  0
    8.7380   48.5926   55.5517 H   0  0  0  0  0  0  0  0  0  0  0  0
    9.6211   48.8939   54.0031 H   0  0  0  0  0  0  0  0  0  0  0  0
    3.9790   47.0920   53.0700 H   0  0  0  0  0  0  0  0  0  0  0  0
    5.0031   44.9657   54.9629 H   0  0  0  0  0  0  0  0  0  0  0  0
    3.3357   45.6432   54.9232 H   0  0  0  0  0  0  0  0  0  0  0  0
    4.4769   40.8189   51.3599 H   0  0  0  0  0  0  0  0  0  0  0  0
    3.3354   41.5926   50.2037 H   0  0  0  0  0  0  0  0  0  0  0  0
    5.1435   43.3908   50.3274 H   0  0  0  0  0  0  0  0  0  0  0  0
    7.6024   41.9209   50.1214 H   0  0  0  0  0  0  0  0  0  0  0  0
    6.9712   40.6278   50.7126 H   0  0  0  0  0  0  0  0  0  0  0  0
    6.1275   42.1157   47.9627 H   0  0  0  0  0  0  0  0  0  0  0  0
    5.2400   40.8566   48.1787 H   0  0  0  0  0  0  0  0  0  0  0  0
    5.6802   45.2161   50.9911 H   0  0  0  0  0  0  0  0  0  0  0  0
    7.6581   44.7495   49.4942 H   0  0  0  0  0  0  0  0  0  0  0  0
    9.9265   45.6232   50.0971 H   0  0  0  0  0  0  0  0  0  0  0  0
   10.2483   46.9796   52.1986 H   0  0  0  0  0  0  0  0  0  0  0  0
  1  2  1  0
  2  3  1  0
  3  4  1  0
  4  5  1  0
  5  6  2  0
  6  7  1  0
  7  8  1  0
  8  9  1  0
  9 10  2  0
 10 11  1  0
 11 12  1  0
 12 13  1  0
 13 14  1  0
 14 15  1  0
 11 16  2  0
 16 17  1  0
  6 18  1  0
 18 19  2  0
 19 20  1  0
 20 21  2  0
 21 22  1  0
 22 23  2  0
 23  4  1  0
 17  9  1  0
 23 18  1  0
 15 13  1  0
  1 24  1  0
  1 25  1  0
  1 26  1  0
  2 27  1  0
  2 28  1  0
  3 29  1  0
  3 30  1  0
  7 31  1  0
  8 32  1  0
  8 33  1  0
 12 34  1  0
 12 35  1  0
 13 36  1  0
 14 37  1  0
 14 38  1  0
 15 39  1  0
 15 40  1  0
 19 41  1  0
 20 42  1  0
 21 43  1  0
 22 44  1  0
M  END
>  <meeko>  (3) 
{"is_sidechain": [false], "free_energy": -8.109, "intermolecular_energy": -11.71, "internal_energy": -0.828}

$$$$
ligand_85_conformer_2_docked
     RDKit          3D

 44 47  0  0  0  0  0  0  0  0999 V2000
   -0.3550   42.7480   53.2340 C   0  0  0  0  0  0  0  0  0  0  0  0
    1.1620   42.6990   53.4010 C   0  0  0  0  0  0  0  0  0  0  0  0
    1.8930   42.6670   52.0540 C   0  0  0  0  0  0  0  0  0  0  0  0
    2.7990   43.8070   51.9210 N   0  0  0  0  0  0  0  0  0  0  0  0
    2.4820   45.0440   52.2880 N   0  0  0  0  0  0  0  0  0  0  0  0
    3.5190   45.8510   51.9590 C   0  0  0  0  0  0  0  0  0  0  0  0
    3.5390   47.2680   52.1680 N   0  0  0  0  0  0  0  0  0  0  0  0
    3.8670   47.8530   53.4650 C   0  0  0  0  0  0  0  0  0  0  0  0
    5.1580   47.2930   53.9660 C   0  0  0  0  0  0  0  0  0  0  0  0
    6.3670   47.6290   53.4750 N   0  0  0  0  0  0  0  0  0  0  0  0
    7.1770   46.8470   54.2180 C   0  0  0  0  0  0  0  0  0  0  0  0
    8.6610   46.7960   54.0480 C   0  0  0  0  0  0  0  0  0  0  0  0
    9.0090   46.1860   52.6860 C   0  0  0  0  0  0  0  0  0  0  0  0
    9.2080   47.1980   51.5680 C   0  0  0  0  0  0  0  0  0  0  0  0
   10.4090   46.4810   52.1670 C   0  0  0  0  0  0  0  0  0  0  0  0
    6.5000   46.0790   55.0940 N   0  0  0  0  0  0  0  0  0  0  0  0
    5.2530   46.3850   54.9070 O   0  0  0  0  0  0  0  0  0  0  0  0
    4.5110   45.1000   51.3630 C   0  0  0  0  0  0  0  0  0  0  0  0
    5.7540   45.4270   50.8240 C   0  0  0  0  0  0  0  0  0  0  0  0
    6.5110   44.3840   50.2600 C   0  0  0  0  0  0  0  0  0  0  0  0
    6.0110   43.0620   50.2450 C   0  0  0  0  0  0  0  0  0  0  0  0
    4.7490   42.7670   50.7940 C   0  0  0  0  0  0  0  0  0  0  0  0
    4.0230   43.8220   51.3520 C   0  0  0  0  0  0  0  0  0  0  0  0
   -0.8326   42.7634   54.2248 H   0  0  0  0  0  0  0  0  0  0  0  0
   -0.6336   43.6556   52.6785 H   0  0  0  0  0  0  0  0  0  0  0  0
   -0.6916   41.8603   52.6785 H   0  0  0  0  0  0  0  0  0  0  0  0
    1.4858   43.5903   53.9585 H   0  0  0  0  0  0  0  0  0  0  0  0
    1.4120   41.7747   53.9425 H   0  0  0  0  0  0  0  0  0  0  0  0
    2.4740   41.7357   51.9823 H   0  0  0  0  0  0  0  0  0  0  0  0
    1.1453   42.7184   51.2488 H   0  0  0  0  0  0  0  0  0  0  0  0
    3.2980   47.9060   51.3770 H   0  0  0  0  0  0  0  0  0  0  0  0
    3.9596   48.9440   53.3596 H   0  0  0  0  0  0  0  0  0  0  0  0
    3.0674   47.6141   54.1816 H   0  0  0  0  0  0  0  0  0  0  0  0
    9.0701   47.8154   54.1064 H   0  0  0  0  0  0  0  0  0  0  0  0
    9.0958   46.1748   54.8449 H   0  0  0  0  0  0  0  0  0  0  0  0
    8.4108   45.2729   52.8220 H   0  0  0  0  0  0  0  0  0  0  0  0
    8.8790   46.9599   50.5457 H   0  0  0  0  0  0  0  0  0  0  0  0
    8.9284   48.2505   51.4129 H   0  0  0  0  0  0  0  0  0  0  0  0
   10.9481   45.7244   51.5779 H   0  0  0  0  0  0  0  0  0  0  0  0
   11.3571   46.8002   52.6244 H   0  0  0  0  0  0  0  0  0  0  0  0
    6.1288   46.4611   50.8390 H   0  0  0  0  0  0  0  0  0  0  0  0
    7.4993   44.5988   49.8275 H   0  0  0  0  0  0  0  0  0  0  0  0
    6.6137   42.2564   49.8002 H   0  0  0  0  0  0  0  0  0  0  0  0
    4.3487   41.7425   50.7840 H   0  0  0  0  0  0  0  0  0  0  0  0
  1  2  1  0
  2  3  1  0
  3  4  1  0
  4  5  1  0
  5  6  2  0
  6  7  1  0
  7  8  1  0
  8  9  1  0
  9 10  2  0
 10 11  1  0
 11 12  1  0
 12 13  1  0
 13 14  1  0
 14 15  1  0
 11 16  2  0
 16 17  1  0
  6 18  1  0
 18 19  2  0
 19 20  1  0
 20 21  2  0
 21 22  1  0
 22 23  2  0
 23  4  1  0
 17  9  1  0
 23 18  1  0
 15 13  1  0
  1 24  1  0
  1 25  1  0
  1 26  1  0
  2 27  1  0
  2 28  1  0
  3 29  1  0
  3 30  1  0
  7 31  1  0
  8 32  1  0
  8 33  1  0
 12 34  1  0
 12 35  1  0
 13 36  1  0
 14 37  1  0
 14 38  1  0
 15 39  1  0
 15 40  1  0
 19 41  1  0
 20 42  1  0
 21 43  1  0
 22 44  1  0
M  END
>  <meeko>  (4) 
{"is_sidechain": [false], "free_energy": -8.09, "intermolecular_energy": -11.31, "internal_energy": -1.202}

$$$$
ligand_85_conformer_2_docked
     RDKit          3D

 44 47  0  0  0  0  0  0  0  0999 V2000
    9.9430   47.1910   54.1580 C   0  0  0  0  0  0  0  0  0  0  0  0
   10.0170   46.6840   52.7190 C   0  0  0  0  0  0  0  0  0  0  0  0
    9.1120   47.4850   51.7750 C   0  0  0  0  0  0  0  0  0  0  0  0
    7.7090   47.1130   51.9500 N   0  0  0  0  0  0  0  0  0  0  0  0
    6.8780   47.7470   52.7710 N   0  0  0  0  0  0  0  0  0  0  0  0
    5.6900   47.0980   52.7370 C   0  0  0  0  0  0  0  0  0  0  0  0
    4.5460   47.4650   53.5170 N   0  0  0  0  0  0  0  0  0  0  0  0
    4.2130   46.7850   54.7660 C   0  0  0  0  0  0  0  0  0  0  0  0
    3.0030   45.9300   54.5750 C   0  0  0  0  0  0  0  0  0  0  0  0
    2.1480   46.0520   53.5420 N   0  0  0  0  0  0  0  0  0  0  0  0
    1.2380   45.1030   53.8420 C   0  0  0  0  0  0  0  0  0  0  0  0
    0.0190   44.8370   53.0200 C   0  0  0  0  0  0  0  0  0  0  0  0
    0.4190   44.5740   51.5640 C   0  0  0  0  0  0  0  0  0  0  0  0
    1.2070   43.2920   51.3430 C   0  0  0  0  0  0  0  0  0  0  0  0
   -0.2460   43.3770   50.9000 C   0  0  0  0  0  0  0  0  0  0  0  0
    1.5190   44.4560   54.9900 N   0  0  0  0  0  0  0  0  0  0  0  0
    2.6200   44.9970   55.4130 O   0  0  0  0  0  0  0  0  0  0  0  0
    5.7800   46.0240   51.8760 C   0  0  0  0  0  0  0  0  0  0  0  0
    4.8760   45.0330   51.4990 C   0  0  0  0  0  0  0  0  0  0  0  0
    5.3280   44.0520   50.5960 C   0  0  0  0  0  0  0  0  0  0  0  0
    6.6540   44.0860   50.1050 C   0  0  0  0  0  0  0  0  0  0  0  0
    7.5420   45.0990   50.5110 C   0  0  0  0  0  0  0  0  0  0  0  0
    7.0630   46.0610   51.4030 C   0  0  0  0  0  0  0  0  0  0  0  0
   10.0663   46.3459   54.8513 H   0  0  0  0  0  0  0  0  0  0  0  0
   10.7434   47.9258   54.3295 H   0  0  0  0  0  0  0  0  0  0  0  0
    8.9660   47.6664   54.3295 H   0  0  0  0  0  0  0  0  0  0  0  0
   11.0562   46.7659   52.3676 H   0  0  0  0  0  0  0  0  0  0  0  0
    9.6727   45.6393   52.7111 H   0  0  0  0  0  0  0  0  0  0  0  0
    9.2288   48.5576   51.9894 H   0  0  0  0  0  0  0  0  0  0  0  0
    9.4055   47.2640   50.7382 H   0  0  0  0  0  0  0  0  0  0  0  0
    3.9200   48.2300   53.1820 H   0  0  0  0  0  0  0  0  0  0  0  0
    5.0598   46.1543   55.0744 H   0  0  0  0  0  0  0  0  0  0  0  0
    4.0055   47.5364   55.5422 H   0  0  0  0  0  0  0  0  0  0  0  0
   -0.5050   43.9560   53.4191 H   0  0  0  0  0  0  0  0  0  0  0  0
   -0.6438   45.7139   53.0608 H   0  0  0  0  0  0  0  0  0  0  0  0
    0.5496   45.6329   51.2964 H   0  0  0  0  0  0  0  0  0  0  0  0
    2.0101   43.2627   50.5919 H   0  0  0  0  0  0  0  0  0  0  0  0
    1.7850   42.6136   51.9877 H   0  0  0  0  0  0  0  0  0  0  0  0
   -0.4935   43.4094   49.8287 H   0  0  0  0  0  0  0  0  0  0  0  0
   -1.1536   42.7858   51.0917 H   0  0  0  0  0  0  0  0  0  0  0  0
    3.8486   45.0177   51.8918 H   0  0  0  0  0  0  0  0  0  0  0  0
    4.6452   43.2535   50.2701 H   0  0  0  0  0  0  0  0  0  0  0  0
    6.9940   43.3136   49.3995 H   0  0  0  0  0  0  0  0  0  0  0  0
    8.5767   45.1321   50.1391 H   0  0  0  0  0  0  0  0  0  0  0  0
  1  2  1  0
  2  3  1  0
  3  4  1  0
  4  5  1  0
  5  6  2  0
  6  7  1  0
  7  8  1  0
  8  9  1  0
  9 10  2  0
 10 11  1  0
 11 12  1  0
 12 13  1  0
 13 14  1  0
 14 15  1  0
 11 16  2  0
 16 17  1  0
  6 18  1  0
 18 19  2  0
 19 20  1  0
 20 21  2  0
 21 22  1  0
 22 23  2  0
 23  4  1  0
 17  9  1  0
 23 18  1  0
 15 13  1  0
  1 24  1  0
  1 25  1  0
  1 26  1  0
  2 27  1  0
  2 28  1  0
  3 29  1  0
  3 30  1  0
  7 31  1  0
  8 32  1  0
  8 33  1  0
 12 34  1  0
 12 35  1  0
 13 36  1  0
 14 37  1  0
 14 38  1  0
 15 39  1  0
 15 40  1  0
 19 41  1  0
 20 42  1  0
 21 43  1  0
 22 44  1  0
M  END
>  <meeko>  (5) 
{"is_sidechain": [false], "free_energy": -8.088, "intermolecular_energy": -11.436, "internal_energy": -1.073}

$$$$
