ligand_53_conformer_5_docked
     RDKit          3D

 38 40  0  0  0  0  0  0  0  0999 V2000
    1.0730   45.4810   54.8010 N   0  0  0  0  0  0  0  0  0  0  0  0
    2.2180   45.4260   54.6380 C   0  0  0  0  0  0  0  0  0  0  0  0
    3.6390   45.3580   54.4360 C   0  0  0  0  0  0  0  0  0  0  0  0
    4.1760   45.4690   53.1520 C   0  0  0  0  0  0  0  0  0  0  0  0
    5.5680   45.4020   52.9970 C   0  0  0  0  0  0  0  0  0  0  0  0
    6.1780   45.5190   51.6970 N   0  0  0  0  0  0  0  0  0  0  0  0
    7.6220   45.8070   51.5870 C   0  0  0  0  0  0  0  0  0  0  0  0
    7.9120   47.3160   51.5800 C   0  0  0  0  0  0  0  0  0  0  0  0
    9.1380   47.6890   52.4350 C   0  0  1  0  0  0  0  0  0  0  0  0
    8.7910   47.9990   53.8920 C   0  0  0  0  0  0  0  0  0  0  0  0
    9.6420   46.8200   54.3420 C   0  0  2  0  0  0  0  0  0  0  0  0
   10.7580   47.2270   55.0540 F   0  0  0  0  0  0  0  0  0  0  0  0
    9.9780   46.4950   52.8930 C   0  0  0  0  0  0  0  0  0  0  0  0
    5.4180   45.0900   50.5120 C   0  0  0  0  0  0  0  0  0  0  0  0
    5.4800   43.6050   50.3470 C   0  0  0  0  0  0  0  0  0  0  0  0
    6.4820   42.8670   49.7330 C   0  0  0  0  0  0  0  0  0  0  0  0
    6.2620   41.4760   49.8010 C   0  0  0  0  0  0  0  0  0  0  0  0
    5.1370   41.0770   50.4480 N   0  0  0  0  0  0  0  0  0  0  0  0
    4.4040   42.4830   50.9450 S   0  0  0  0  0  0  0  0  0  0  0  0
    6.3480   45.2100   54.0970 N   0  0  0  0  0  0  0  0  0  0  0  0
    5.8070   45.1010   55.3370 C   0  0  0  0  0  0  0  0  0  0  0  0
    4.4620   45.1770   55.5010 N   0  0  0  0  0  0  0  0  0  0  0  0
    3.5203   45.6063   52.2795 H   0  0  0  0  0  0  0  0  0  0  0  0
    8.1409   45.3501   52.4426 H   0  0  0  0  0  0  0  0  0  0  0  0
    7.9789   45.3892   50.6341 H   0  0  0  0  0  0  0  0  0  0  0  0
    8.0958   47.6344   50.5432 H   0  0  0  0  0  0  0  0  0  0  0  0
    7.0378   47.8247   52.0124 H   0  0  0  0  0  0  0  0  0  0  0  0
    9.5812   48.4560   51.7829 H   0  0  0  0  0  0  0  0  0  0  0  0
    9.1550   48.9760   54.2428 H   0  0  0  0  0  0  0  0  0  0  0  0
    7.7412   48.0828   54.2098 H   0  0  0  0  0  0  0  0  0  0  0  0
    9.2204   46.0488   55.0034 H   0  0  0  0  0  0  0  0  0  0  0  0
   11.0476   46.5779   52.6499 H   0  0  0  0  0  0  0  0  0  0  0  0
    9.7876   45.4903   52.4877 H   0  0  0  0  0  0  0  0  0  0  0  0
    4.3677   45.3960   50.6276 H   0  0  0  0  0  0  0  0  0  0  0  0
    5.8598   45.5612   49.6216 H   0  0  0  0  0  0  0  0  0  0  0  0
    7.3570   43.3201   49.2441 H   0  0  0  0  0  0  0  0  0  0  0  0
    6.9624   40.7546   49.3549 H   0  0  0  0  0  0  0  0  0  0  0  0
    6.4594   44.9509   56.2099 H   0  0  0  0  0  0  0  0  0  0  0  0
  1  2  3  0
  2  3  1  0
  3  4  2  0
  4  5  1  0
  5  6  1  0
  6  7  1  0
  7  8  1  0
  8  9  1  0
  9 10  1  0
 10 11  1  0
 11 12  1  0
 11 13  1  0
  6 14  1  0
 14 15  1  0
 15 16  2  0
 16 17  1  0
 17 18  2  0
 18 19  1  0
  5 20  2  0
 20 21  1  0
 21 22  2  0
 22  3  1  0
 13  9  1  0
 19 15  1  0
  4 23  1  0
  7 24  1  0
  7 25  1  0
  8 26  1  0
  8 27  1  0
  9 28  1  6
 10 29  1  0
 10 30  1  0
 11 31  1  1
 13 32  1  0
 13 33  1  0
 14 34  1  0
 14 35  1  0
 16 36  1  0
 17 37  1  0
 21 38  1  0
M  END
>  <meeko>  (1) 
{"is_sidechain": [false], "free_energy": -8.135, "intermolecular_energy": -10.988, "internal_energy": -0.815}

$$$$
ligand_53_conformer_5_docked
     RDKit          3D

 38 40  0  0  0  0  0  0  0  0999 V2000
   10.6610   47.5580   56.0590 N   0  0  0  0  0  0  0  0  0  0  0  0
   10.1650   47.2900   55.0480 C   0  0  0  0  0  0  0  0  0  0  0  0
    9.5490   46.9590   53.7920 C   0  0  0  0  0  0  0  0  0  0  0  0
    8.1630   47.0470   53.6400 C   0  0  0  0  0  0  0  0  0  0  0  0
    7.6020   46.7180   52.3980 C   0  0  0  0  0  0  0  0  0  0  0  0
    6.1800   46.8000   52.1800 N   0  0  0  0  0  0  0  0  0  0  0  0
    5.5430   45.9400   51.1640 C   0  0  0  0  0  0  0  0  0  0  0  0
    5.6600   44.4470   51.5110 C   0  0  0  0  0  0  0  0  0  0  0  0
    5.4120   43.5330   50.2960 C   0  0  1  0  0  0  0  0  0  0  0  0
    6.6990   43.0520   49.6250 C   0  0  0  0  0  0  0  0  0  0  0  0
    6.3350   41.6130   49.9680 C   0  0  2  0  0  0  0  0  0  0  0  0
    6.0660   40.8620   48.8350 F   0  0  0  0  0  0  0  0  0  0  0  0
    5.0600   42.0880   50.6520 C   0  0  0  0  0  0  0  0  0  0  0  0
    5.3510   47.5360   53.1490 C   0  0  0  0  0  0  0  0  0  0  0  0
    4.3530   46.6300   53.7960 C   0  0  0  0  0  0  0  0  0  0  0  0
    4.5260   45.8720   54.9450 C   0  0  0  0  0  0  0  0  0  0  0  0
    3.3620   45.1700   55.3210 C   0  0  0  0  0  0  0  0  0  0  0  0
    2.2730   45.3450   54.5290 N   0  0  0  0  0  0  0  0  0  0  0  0
    2.7700   46.3930   53.3390 S   0  0  0  0  0  0  0  0  0  0  0  0
    8.4190   46.3050   51.3900 N   0  0  0  0  0  0  0  0  0  0  0  0
    9.7630   46.2230   51.5580 C   0  0  0  0  0  0  0  0  0  0  0  0
   10.3200   46.5500   52.7530 N   0  0  0  0  0  0  0  0  0  0  0  0
    7.5254   47.3676   54.4771 H   0  0  0  0  0  0  0  0  0  0  0  0
    4.4777   46.2048   51.0932 H   0  0  0  0  0  0  0  0  0  0  0  0
    6.0612   46.1061   50.2080 H   0  0  0  0  0  0  0  0  0  0  0  0
    6.6720   44.2535   51.8962 H   0  0  0  0  0  0  0  0  0  0  0  0
    4.8886   44.2189   52.2613 H   0  0  0  0  0  0  0  0  0  0  0  0
    4.6886   44.1568   49.7504 H   0  0  0  0  0  0  0  0  0  0  0  0
    6.7477   43.2585   48.5457 H   0  0  0  0  0  0  0  0  0  0  0  0
    7.6729   43.4676   49.9231 H   0  0  0  0  0  0  0  0  0  0  0  0
    7.0489   40.9693   50.5028 H   0  0  0  0  0  0  0  0  0  0  0  0
    4.1349   41.7219   50.1828 H   0  0  0  0  0  0  0  0  0  0  0  0
    4.8472   41.8059   51.6937 H   0  0  0  0  0  0  0  0  0  0  0  0
    6.0011   47.9675   53.9243 H   0  0  0  0  0  0  0  0  0  0  0  0
    4.8092   48.3306   52.6151 H   0  0  0  0  0  0  0  0  0  0  0  0
    5.4720   45.8236   55.5042 H   0  0  0  0  0  0  0  0  0  0  0  0
    3.3377   44.5174   56.2061 H   0  0  0  0  0  0  0  0  0  0  0  0
   10.4018   45.8916   50.7261 H   0  0  0  0  0  0  0  0  0  0  0  0
  1  2  3  0
  2  3  1  0
  3  4  2  0
  4  5  1  0
  5  6  1  0
  6  7  1  0
  7  8  1  0
  8  9  1  0
  9 10  1  0
 10 11  1  0
 11 12  1  0
 11 13  1  0
  6 14  1  0
 14 15  1  0
 15 16  2  0
 16 17  1  0
 17 18  2  0
 18 19  1  0
  5 20  2  0
 20 21  1  0
 21 22  2  0
 22  3  1  0
 13  9  1  0
 19 15  1  0
  4 23  1  0
  7 24  1  0
  7 25  1  0
  8 26  1  0
  8 27  1  0
  9 28  1  6
 10 29  1  0
 10 30  1  0
 11 31  1  1
 13 32  1  0
 13 33  1  0
 14 34  1  0
 14 35  1  0
 16 36  1  0
 17 37  1  0
 21 38  1  0
M  END
>  <meeko>  (2) 
{"is_sidechain": [false], "free_energy": -7.87, "intermolecular_energy": -10.875, "internal_energy": -0.571}

$$$$
ligand_53_conformer_5_docked
     RDKit          3D

 38 40  0  0  0  0  0  0  0  0999 V2000
    3.7680   40.6180   50.0950 N   0  0  0  0  0  0  0  0  0  0  0  0
    4.4750   41.5310   50.1810 C   0  0  0  0  0  0  0  0  0  0  0  0
    5.3540   42.6620   50.2890 C   0  0  0  0  0  0  0  0  0  0  0  0
    5.0750   43.6900   51.1930 C   0  0  0  0  0  0  0  0  0  0  0  0
    5.9600   44.7750   51.2700 C   0  0  0  0  0  0  0  0  0  0  0  0
    5.7270   45.8600   52.1900 N   0  0  0  0  0  0  0  0  0  0  0  0
    6.8440   46.3930   52.9940 C   0  0  0  0  0  0  0  0  0  0  0  0
    7.5320   47.5860   52.3120 C   0  0  0  0  0  0  0  0  0  0  0  0
    8.8520   47.9830   52.9990 C   0  0  1  0  0  0  0  0  0  0  0  0
    8.7690   47.9750   54.5260 C   0  0  0  0  0  0  0  0  0  0  0  0
    9.8230   46.8770   54.5730 C   0  0  2  0  0  0  0  0  0  0  0  0
   11.0040   47.3160   55.1480 F   0  0  0  0  0  0  0  0  0  0  0  0
    9.8980   46.8680   53.0530 C   0  0  0  0  0  0  0  0  0  0  0  0
    4.4520   46.5920   52.1210 C   0  0  0  0  0  0  0  0  0  0  0  0
    3.5080   46.1230   53.1820 C   0  0  0  0  0  0  0  0  0  0  0  0
    3.7680   45.9860   54.5380 C   0  0  0  0  0  0  0  0  0  0  0  0
    2.6380   45.5750   55.2750 C   0  0  0  0  0  0  0  0  0  0  0  0
    1.4940   45.3900   54.5680 N   0  0  0  0  0  0  0  0  0  0  0  0
    1.8980   45.7440   52.9960 S   0  0  0  0  0  0  0  0  0  0  0  0
    7.0470   44.8040   50.4510 N   0  0  0  0  0  0  0  0  0  0  0  0
    7.3000   43.7960   49.5770 C   0  0  0  0  0  0  0  0  0  0  0  0
    6.4580   42.7340   49.5010 N   0  0  0  0  0  0  0  0  0  0  0  0
    4.1799   43.6491   51.8310 H   0  0  0  0  0  0  0  0  0  0  0  0
    6.4544   46.7190   53.9696 H   0  0  0  0  0  0  0  0  0  0  0  0
    7.5901   45.5928   53.1083 H   0  0  0  0  0  0  0  0  0  0  0  0
    7.7459   47.3184   51.2667 H   0  0  0  0  0  0  0  0  0  0  0  0
    6.8500   48.4464   52.3802 H   0  0  0  0  0  0  0  0  0  0  0  0
    9.0650   48.9114   52.4489 H   0  0  0  0  0  0  0  0  0  0  0  0
    9.0808   48.9182   54.9983 H   0  0  0  0  0  0  0  0  0  0  0  0
    7.8013   47.8419   55.0318 H   0  0  0  0  0  0  0  0  0  0  0  0
    9.6337   45.9459   55.1273 H   0  0  0  0  0  0  0  0  0  0  0  0
   10.8807   47.1534   52.6496 H   0  0  0  0  0  0  0  0  0  0  0  0
    9.7473   45.9337   52.4923 H   0  0  0  0  0  0  0  0  0  0  0  0
    4.6455   47.6658   52.2604 H   0  0  0  0  0  0  0  0  0  0  0  0
    3.9944   46.4080   51.1378 H   0  0  0  0  0  0  0  0  0  0  0  0
    4.7520   46.1778   54.9906 H   0  0  0  0  0  0  0  0  0  0  0  0
    2.6812   45.4133   56.3622 H   0  0  0  0  0  0  0  0  0  0  0  0
    8.1884   43.8401   48.9298 H   0  0  0  0  0  0  0  0  0  0  0  0
  1  2  3  0
  2  3  1  0
  3  4  2  0
  4  5  1  0
  5  6  1  0
  6  7  1  0
  7  8  1  0
  8  9  1  0
  9 10  1  0
 10 11  1  0
 11 12  1  0
 11 13  1  0
  6 14  1  0
 14 15  1  0
 15 16  2  0
 16 17  1  0
 17 18  2  0
 18 19  1  0
  5 20  2  0
 20 21  1  0
 21 22  2  0
 22  3  1  0
 13  9  1  0
 19 15  1  0
  4 23  1  0
  7 24  1  0
  7 25  1  0
  8 26  1  0
  8 27  1  0
  9 28  1  6
 10 29  1  0
 10 30  1  0
 11 31  1  1
 13 32  1  0
 13 33  1  0
 14 34  1  0
 14 35  1  0
 16 36  1  0
 17 37  1  0
 21 38  1  0
M  END
>  <meeko>  (3) 
{"is_sidechain": [false], "free_energy": -7.815, "intermolecular_energy": -11.004, "internal_energy": -0.366}

$$$$
ligand_53_conformer_5_docked
     RDKit          3D

 38 40  0  0  0  0  0  0  0  0999 V2000
   -0.4080   45.4680   52.0230 N   0  0  0  0  0  0  0  0  0  0  0  0
    0.5930   45.5120   52.6020 C   0  0  0  0  0  0  0  0  0  0  0  0
    1.8360   45.5670   53.3220 C   0  0  0  0  0  0  0  0  0  0  0  0
    3.0400   45.7570   52.6400 C   0  0  0  0  0  0  0  0  0  0  0  0
    4.2300   45.8080   53.3800 C   0  0  0  0  0  0  0  0  0  0  0  0
    5.5000   46.0100   52.7300 N   0  0  0  0  0  0  0  0  0  0  0  0
    6.7510   45.8530   53.4990 C   0  0  0  0  0  0  0  0  0  0  0  0
    7.3410   47.2050   53.9280 C   0  0  0  0  0  0  0  0  0  0  0  0
    8.7830   47.4100   53.4240 C   0  0  1  0  0  0  0  0  0  0  0  0
    9.6190   46.1310   53.4370 C   0  0  0  0  0  0  0  0  0  0  0  0
    9.7640   46.2140   51.9230 C   0  0  2  0  0  0  0  0  0  0  0  0
   11.0720   46.4580   51.5400 F   0  0  0  0  0  0  0  0  0  0  0  0
    8.9180   47.4800   51.9020 C   0  0  0  0  0  0  0  0  0  0  0  0
    5.5430   46.1060   51.2620 C   0  0  0  0  0  0  0  0  0  0  0  0
    6.0420   44.8320   50.6580 C   0  0  0  0  0  0  0  0  0  0  0  0
    7.2130   44.6440   49.9400 C   0  0  0  0  0  0  0  0  0  0  0  0
    7.4170   43.3010   49.5600 C   0  0  0  0  0  0  0  0  0  0  0  0
    6.4650   42.4150   49.9530 N   0  0  0  0  0  0  0  0  0  0  0  0
    5.3520   43.3220   50.7890 S   0  0  0  0  0  0  0  0  0  0  0  0
    4.1780   45.6530   54.7320 N   0  0  0  0  0  0  0  0  0  0  0  0
    2.9970   45.4670   55.3770 C   0  0  0  0  0  0  0  0  0  0  0  0
    1.8370   45.4270   54.6730 N   0  0  0  0  0  0  0  0  0  0  0  0
    3.0544   45.8644   51.5453 H   0  0  0  0  0  0  0  0  0  0  0  0
    6.5413   45.2563   54.3990 H   0  0  0  0  0  0  0  0  0  0  0  0
    7.4861   45.3539   52.8505 H   0  0  0  0  0  0  0  0  0  0  0  0
    6.7089   48.0093   53.5236 H   0  0  0  0  0  0  0  0  0  0  0  0
    7.3670   47.2229   55.0275 H   0  0  0  0  0  0  0  0  0  0  0  0
    9.0642   48.2757   54.0417 H   0  0  0  0  0  0  0  0  0  0  0  0
   10.5686   46.2202   53.9851 H   0  0  0  0  0  0  0  0  0  0  0  0
    9.2324   45.2168   53.9110 H   0  0  0  0  0  0  0  0  0  0  0  0
    9.4991   45.3551   51.2889 H   0  0  0  0  0  0  0  0  0  0  0  0
    9.4509   48.3710   51.5383 H   0  0  0  0  0  0  0  0  0  0  0  0
    8.0237   47.5431   51.2647 H   0  0  0  0  0  0  0  0  0  0  0  0
    4.5303   46.3109   50.8847 H   0  0  0  0  0  0  0  0  0  0  0  0
    6.2290   46.9194   50.9830 H   0  0  0  0  0  0  0  0  0  0  0  0
    7.9106   45.4577   49.6924 H   0  0  0  0  0  0  0  0  0  0  0  0
    8.2970   42.9888   48.9785 H   0  0  0  0  0  0  0  0  0  0  0  0
    2.9806   45.3487   56.4705 H   0  0  0  0  0  0  0  0  0  0  0  0
  1  2  3  0
  2  3  1  0
  3  4  2  0
  4  5  1  0
  5  6  1  0
  6  7  1  0
  7  8  1  0
  8  9  1  0
  9 10  1  0
 10 11  1  0
 11 12  1  0
 11 13  1  0
  6 14  1  0
 14 15  1  0
 15 16  2  0
 16 17  1  0
 17 18  2  0
 18 19  1  0
  5 20  2  0
 20 21  1  0
 21 22  2  0
 22  3  1  0
 13  9  1  0
 19 15  1  0
  4 23  1  0
  7 24  1  0
  7 25  1  0
  8 26  1  0
  8 27  1  0
  9 28  1  1
 10 29  1  0
 10 30  1  0
 11 31  1  6
 13 32  1  0
 13 33  1  0
 14 34  1  0
 14 35  1  0
 16 36  1  0
 17 37  1  0
 21 38  1  0
M  END
>  <meeko>  (4) 
{"is_sidechain": [false], "free_energy": -7.606, "intermolecular_energy": -10.2, "internal_energy": -0.889}

$$$$
ligand_53_conformer_5_docked
     RDKit          3D

 38 40  0  0  0  0  0  0  0  0999 V2000
   10.4630   46.1800   51.6340 N   0  0  0  0  0  0  0  0  0  0  0  0
    9.4250   46.3360   52.1220 C   0  0  0  0  0  0  0  0  0  0  0  0
    8.1360   46.5270   52.7280 C   0  0  0  0  0  0  0  0  0  0  0  0
    6.9730   46.4350   51.9590 C   0  0  0  0  0  0  0  0  0  0  0  0
    5.7350   46.6260   52.5890 C   0  0  0  0  0  0  0  0  0  0  0  0
    4.5020   46.5340   51.8480 N   0  0  0  0  0  0  0  0  0  0  0  0
    4.3730   45.5470   50.7590 C   0  0  0  0  0  0  0  0  0  0  0  0
    4.0090   44.1490   51.2840 C   0  0  0  0  0  0  0  0  0  0  0  0
    5.2060   43.1790   51.2700 C   0  0  1  0  0  0  0  0  0  0  0  0
    4.8280   41.7540   50.8620 C   0  0  0  0  0  0  0  0  0  0  0  0
    5.7320   41.8680   49.6420 C   0  0  2  0  0  0  0  0  0  0  0  0
    6.8190   41.0130   49.7200 F   0  0  0  0  0  0  0  0  0  0  0  0
    6.0990   43.2930   50.0340 C   0  0  0  0  0  0  0  0  0  0  0  0
    3.3110   47.2330   52.3570 C   0  0  0  0  0  0  0  0  0  0  0  0
    2.3690   46.2750   53.0140 C   0  0  0  0  0  0  0  0  0  0  0  0
    1.1650   45.8030   52.5140 C   0  0  0  0  0  0  0  0  0  0  0  0
    0.5490   44.8600   53.3620 C   0  0  0  0  0  0  0  0  0  0  0  0
    1.2130   44.5580   54.5080 N   0  0  0  0  0  0  0  0  0  0  0  0
    2.5940   45.4810   54.4600 S   0  0  0  0  0  0  0  0  0  0  0  0
    5.7050   46.9130   53.9200 N   0  0  0  0  0  0  0  0  0  0  0  0
    6.8470   47.0010   54.6490 C   0  0  0  0  0  0  0  0  0  0  0  0
    8.0510   46.8070   54.0540 N   0  0  0  0  0  0  0  0  0  0  0  0
    7.0275   46.2173   50.8821 H   0  0  0  0  0  0  0  0  0  0  0  0
    3.5854   45.8823   50.0682 H   0  0  0  0  0  0  0  0  0  0  0  0
    5.3461   45.4747   50.2511 H   0  0  0  0  0  0  0  0  0  0  0  0
    3.6456   44.2448   52.3178 H   0  0  0  0  0  0  0  0  0  0  0  0
    3.2373   43.7345   50.6187 H   0  0  0  0  0  0  0  0  0  0  0  0
    5.6178   43.3919   52.2676 H   0  0  0  0  0  0  0  0  0  0  0  0
    5.1392   40.9826   51.5818 H   0  0  0  0  0  0  0  0  0  0  0  0
    3.7720   41.4672   50.7494 H   0  0  0  0  0  0  0  0  0  0  0  0
    5.3425   41.6484   48.6370 H   0  0  0  0  0  0  0  0  0  0  0  0
    7.1656   43.4362   50.2616 H   0  0  0  0  0  0  0  0  0  0  0  0
    5.9630   44.1202   49.3218 H   0  0  0  0  0  0  0  0  0  0  0  0
    3.6242   47.9903   53.0908 H   0  0  0  0  0  0  0  0  0  0  0  0
    2.7943   47.7085   51.5103 H   0  0  0  0  0  0  0  0  0  0  0  0
    0.7352   46.1301   51.5557 H   0  0  0  0  0  0  0  0  0  0  0  0
   -0.4154   44.3948   53.1097 H   0  0  0  0  0  0  0  0  0  0  0  0
    6.7961   47.2299   55.7237 H   0  0  0  0  0  0  0  0  0  0  0  0
  1  2  3  0
  2  3  1  0
  3  4  2  0
  4  5  1  0
  5  6  1  0
  6  7  1  0
  7  8  1  0
  8  9  1  0
  9 10  1  0
 10 11  1  0
 11 12  1  0
 11 13  1  0
  6 14  1  0
 14 15  1  0
 15 16  2  0
 16 17  1  0
 17 18  2  0
 18 19  1  0
  5 20  2  0
 20 21  1  0
 21 22  2  0
 22  3  1  0
 13  9  1  0
 19 15  1  0
  4 23  1  0
  7 24  1  0
  7 25  1  0
  8 26  1  0
  8 27  1  0
  9 28  1  1
 10 29  1  0
 10 30  1  0
 11 31  1  6
 13 32  1  0
 13 33  1  0
 14 34  1  0
 14 35  1  0
 16 36  1  0
 17 37  1  0
 21 38  1  0
M  END
>  <meeko>  (5) 
{"is_sidechain": [false], "free_energy": -7.26, "intermolecular_energy": -10.053, "internal_energy": -0.569}

$$$$
