ligand_84_conformer_5_docked
     RDKit          3D

 51 53  0  0  0  0  0  0  0  0999 V2000
   -0.3450   42.3080   52.5420 C   0  0  0  0  0  0  0  0  0  0  0  0
    0.0630   43.5070   51.7990 N   0  0  0  0  0  0  0  0  0  0  0  0
   -0.9510   44.3180   51.1170 C   0  0  0  0  0  0  0  0  0  0  0  0
    1.4520   43.8990   51.6960 C   0  0  0  0  0  0  0  0  0  0  0  0
    1.7610   44.8630   50.9430 O   0  0  0  0  0  0  0  0  0  0  0  0
    2.5630   43.1630   52.4220 C   0  0  2  0  0  0  0  0  0  0  0  0
    3.2650   44.0600   53.3480 N   0  0  0  0  0  0  0  0  0  0  0  0
    2.6550   44.5380   54.5570 C   0  0  0  0  0  0  0  0  0  0  0  0
    1.4880   44.1730   54.8700 O   0  0  0  0  0  0  0  0  0  0  0  0
    3.3760   45.5200   55.4250 C   0  0  0  0  0  0  0  0  0  0  0  0
    4.3020   46.3470   54.5880 C   0  0  0  0  0  0  0  0  0  0  0  0
    3.9220   47.5490   53.9950 C   0  0  0  0  0  0  0  0  0  0  0  0
    5.2230   48.1060   53.0890 S   0  0  0  0  0  0  0  0  0  0  0  0
    6.2080   46.7960   53.4820 C   0  0  0  0  0  0  0  0  0  0  0  0
    7.5530   46.5890   53.0000 N   0  0  0  0  0  0  0  0  0  0  0  0
    8.6830   46.7210   53.9340 C   0  0  0  0  0  0  0  0  0  0  0  0
    9.9860   47.0560   53.2030 C   0  0  0  0  0  0  0  0  0  0  0  0
   10.2740   46.0150   52.1240 C   0  0  0  0  0  0  0  0  0  0  0  0
    9.1440   45.9090   51.2070 N   0  0  0  0  0  0  0  0  0  0  0  0
    7.8020   46.1160   51.6570 C   0  0  0  0  0  0  0  0  0  0  0  0
    6.8490   45.8900   50.8630 O   0  0  0  0  0  0  0  0  0  0  0  0
    5.5630   45.9290   54.2950 N   0  0  0  0  0  0  0  0  0  0  0  0
    3.5320   42.5790   51.4160 C   0  0  0  0  0  0  0  0  0  0  0  0
    4.8410   43.0840   51.3180 C   0  0  0  0  0  0  0  0  0  0  0  0
    5.7390   42.5430   50.3930 C   0  0  0  0  0  0  0  0  0  0  0  0
    5.3400   41.4960   49.5590 C   0  0  0  0  0  0  0  0  0  0  0  0
    4.0440   40.9860   49.6480 C   0  0  0  0  0  0  0  0  0  0  0  0
    3.1420   41.5220   50.5720 C   0  0  0  0  0  0  0  0  0  0  0  0
   -0.2778   42.5054   53.6221 H   0  0  0  0  0  0  0  0  0  0  0  0
   -1.3817   42.0495   52.2803 H   0  0  0  0  0  0  0  0  0  0  0  0
    0.3189   41.4709   52.2803 H   0  0  0  0  0  0  0  0  0  0  0  0
   -1.5811   44.8220   51.8646 H   0  0  0  0  0  0  0  0  0  0  0  0
   -0.4552   45.0715   50.4874 H   0  0  0  0  0  0  0  0  0  0  0  0
   -1.5772   43.6687   50.4874 H   0  0  0  0  0  0  0  0  0  0  0  0
    2.1191   42.3466   53.0106 H   0  0  0  0  0  0  0  0  0  0  0  0
    4.2150   44.4210   53.1080 H   0  0  0  0  0  0  0  0  0  0  0  0
    2.6452   46.1766   55.9197 H   0  0  0  0  0  0  0  0  0  0  0  0
    3.9576   44.9772   56.1846 H   0  0  0  0  0  0  0  0  0  0  0  0
    2.9456   48.0445   54.1008 H   0  0  0  0  0  0  0  0  0  0  0  0
    8.4603   47.5243   54.6517 H   0  0  0  0  0  0  0  0  0  0  0  0
    8.8165   45.7581   54.4488 H   0  0  0  0  0  0  0  0  0  0  0  0
    9.8944   48.0473   52.7350 H   0  0  0  0  0  0  0  0  0  0  0  0
   10.8125   47.0555   53.9289 H   0  0  0  0  0  0  0  0  0  0  0  0
   11.1707   46.3141   51.5615 H   0  0  0  0  0  0  0  0  0  0  0  0
   10.4378   45.0388   52.6038 H   0  0  0  0  0  0  0  0  0  0  0  0
    9.3120   45.5580   50.2380 H   0  0  0  0  0  0  0  0  0  0  0  0
    5.1598   43.9087   51.9724 H   0  0  0  0  0  0  0  0  0  0  0  0
    6.7614   42.9425   50.3219 H   0  0  0  0  0  0  0  0  0  0  0  0
    6.0481   41.0730   48.8312 H   0  0  0  0  0  0  0  0  0  0  0  0
    3.7318   40.1613   48.9904 H   0  0  0  0  0  0  0  0  0  0  0  0
    2.1221   41.1156   50.6398 H   0  0  0  0  0  0  0  0  0  0  0  0
  1  2  1  0
  2  3  1  0
  2  4  1  0
  4  5  2  0
  4  6  1  0
  6  7  1  0
  7  8  1  0
  8  9  2  0
  8 10  1  0
 10 11  1  0
 11 12  2  0
 12 13  1  0
 13 14  1  0
 14 15  1  0
 15 16  1  0
 16 17  1  0
 17 18  1  0
 18 19  1  0
 19 20  1  0
 20 21  2  0
 14 22  2  0
  6 23  1  0
 23 24  2  0
 24 25  1  0
 25 26  2  0
 26 27  1  0
 27 28  2  0
 22 11  1  0
 28 23  1  0
 20 15  1  0
  1 29  1  0
  1 30  1  0
  1 31  1  0
  3 32  1  0
  3 33  1  0
  3 34  1  0
  6 35  1  1
  7 36  1  0
 10 37  1  0
 10 38  1  0
 12 39  1  0
 16 40  1  0
 16 41  1  0
 17 42  1  0
 17 43  1  0
 18 44  1  0
 18 45  1  0
 19 46  1  0
 24 47  1  0
 25 48  1  0
 26 49  1  0
 27 50  1  0
 28 51  1  0
M  END
>  <meeko>  (1) 
{"is_sidechain": [false], "free_energy": -8.009, "intermolecular_energy": -10.818, "internal_energy": -1.518}

$$$$
ligand_84_conformer_5_docked
     RDKit          3D

 51 53  0  0  0  0  0  0  0  0999 V2000
    3.5480   47.5520   52.6930 C   0  0  0  0  0  0  0  0  0  0  0  0
    4.5300   46.7390   53.4220 N   0  0  0  0  0  0  0  0  0  0  0  0
    5.0100   47.1840   54.7340 C   0  0  0  0  0  0  0  0  0  0  0  0
    5.0630   45.5150   52.8650 C   0  0  0  0  0  0  0  0  0  0  0  0
    5.9960   44.9210   53.4740 O   0  0  0  0  0  0  0  0  0  0  0  0
    4.5780   44.9390   51.5480 C   0  0  2  0  0  0  0  0  0  0  0  0
    3.5960   43.8720   51.7740 N   0  0  0  0  0  0  0  0  0  0  0  0
    2.2250   43.9990   51.3660 C   0  0  0  0  0  0  0  0  0  0  0  0
    1.8290   45.0390   50.7720 O   0  0  0  0  0  0  0  0  0  0  0  0
    1.2410   42.9210   51.6970 C   0  0  0  0  0  0  0  0  0  0  0  0
    0.3930   43.3510   52.8530 C   0  0  0  0  0  0  0  0  0  0  0  0
   -0.9700   43.0770   52.9400 C   0  0  0  0  0  0  0  0  0  0  0  0
   -1.5490   43.7980   54.3420 S   0  0  0  0  0  0  0  0  0  0  0  0
   -0.0480   44.4320   54.7760 C   0  0  0  0  0  0  0  0  0  0  0  0
    0.2100   45.2440   55.9410 N   0  0  0  0  0  0  0  0  0  0  0  0
   -0.9150   45.6550   56.7970 C   0  0  0  0  0  0  0  0  0  0  0  0
   -0.5900   46.9260   57.5870 C   0  0  0  0  0  0  0  0  0  0  0  0
    0.6890   46.7360   58.3990 C   0  0  0  0  0  0  0  0  0  0  0  0
    1.7890   46.3370   57.5290 N   0  0  0  0  0  0  0  0  0  0  0  0
    1.5600   45.5390   56.3630 C   0  0  0  0  0  0  0  0  0  0  0  0
    2.5510   45.1110   55.7110 O   0  0  0  0  0  0  0  0  0  0  0  0
    0.8970   44.1090   53.8640 N   0  0  0  0  0  0  0  0  0  0  0  0
    5.7560   44.4130   50.7550 C   0  0  0  0  0  0  0  0  0  0  0  0
    5.7690   43.0810   50.3050 C   0  0  0  0  0  0  0  0  0  0  0  0
    6.8540   42.5940   49.5700 C   0  0  0  0  0  0  0  0  0  0  0  0
    7.9340   43.4290   49.2770 C   0  0  0  0  0  0  0  0  0  0  0  0
    7.9320   44.7550   49.7170 C   0  0  0  0  0  0  0  0  0  0  0  0
    6.8490   45.2470   50.4510 C   0  0  0  0  0  0  0  0  0  0  0  0
    2.9063   48.0833   53.4113 H   0  0  0  0  0  0  0  0  0  0  0  0
    4.0738   48.2827   52.0608 H   0  0  0  0  0  0  0  0  0  0  0  0
    2.9283   46.8990   52.0608 H   0  0  0  0  0  0  0  0  0  0  0  0
    4.4495   46.6644   55.5251 H   0  0  0  0  0  0  0  0  0  0  0  0
    6.0809   46.9521   54.8306 H   0  0  0  0  0  0  0  0  0  0  0  0
    4.8597   48.2694   54.8306 H   0  0  0  0  0  0  0  0  0  0  0  0
    4.0852   45.7380   50.9747 H   0  0  0  0  0  0  0  0  0  0  0  0
    3.8690   43.0120   52.2990 H   0  0  0  0  0  0  0  0  0  0  0  0
    0.5997   42.7304   50.8238 H   0  0  0  0  0  0  0  0  0  0  0  0
    1.7831   42.0019   51.9643 H   0  0  0  0  0  0  0  0  0  0  0  0
   -1.5613   42.4929   52.2194 H   0  0  0  0  0  0  0  0  0  0  0  0
   -1.7944   45.8438   56.1638 H   0  0  0  0  0  0  0  0  0  0  0  0
   -1.1132   44.8458   57.5153 H   0  0  0  0  0  0  0  0  0  0  0  0
   -0.4536   47.7631   56.8865 H   0  0  0  0  0  0  0  0  0  0  0  0
   -1.4209   47.1404   58.2753 H   0  0  0  0  0  0  0  0  0  0  0  0
    0.9459   47.6824   58.8972 H   0  0  0  0  0  0  0  0  0  0  0  0
    0.5224   45.9476   59.1478 H   0  0  0  0  0  0  0  0  0  0  0  0
    2.7690   46.5360   57.8300 H   0  0  0  0  0  0  0  0  0  0  0  0
    4.9209   42.4185   50.5325 H   0  0  0  0  0  0  0  0  0  0  0  0
    6.8568   41.5506   49.2217 H   0  0  0  0  0  0  0  0  0  0  0  0
    8.7868   43.0427   48.6995 H   0  0  0  0  0  0  0  0  0  0  0  0
    8.7832   45.4122   49.4857 H   0  0  0  0  0  0  0  0  0  0  0  0
    6.8506   46.2924   50.7933 H   0  0  0  0  0  0  0  0  0  0  0  0
  1  2  1  0
  2  3  1  0
  2  4  1  0
  4  5  2  0
  4  6  1  0
  6  7  1  0
  7  8  1  0
  8  9  2  0
  8 10  1  0
 10 11  1  0
 11 12  2  0
 12 13  1  0
 13 14  1  0
 14 15  1  0
 15 16  1  0
 16 17  1  0
 17 18  1  0
 18 19  1  0
 19 20  1  0
 20 21  2  0
 14 22  2  0
  6 23  1  0
 23 24  2  0
 24 25  1  0
 25 26  2  0
 26 27  1  0
 27 28  2  0
 22 11  1  0
 28 23  1  0
 20 15  1  0
  1 29  1  0
  1 30  1  0
  1 31  1  0
  3 32  1  0
  3 33  1  0
  3 34  1  0
  6 35  1  6
  7 36  1  0
 10 37  1  0
 10 38  1  0
 12 39  1  0
 16 40  1  0
 16 41  1  0
 17 42  1  0
 17 43  1  0
 18 44  1  0
 18 45  1  0
 19 46  1  0
 24 47  1  0
 25 48  1  0
 26 49  1  0
 27 50  1  0
 28 51  1  0
M  END
>  <meeko>  (2) 
{"is_sidechain": [false], "free_energy": -7.887, "intermolecular_energy": -11.47, "internal_energy": -0.701}

$$$$
ligand_84_conformer_5_docked
     RDKit          3D

 51 53  0  0  0  0  0  0  0  0999 V2000
    5.4610   44.5580   54.3150 C   0  0  0  0  0  0  0  0  0  0  0  0
    4.9150   45.9200   54.2560 N   0  0  0  0  0  0  0  0  0  0  0  0
    3.8560   46.3180   55.1890 C   0  0  0  0  0  0  0  0  0  0  0  0
    5.3760   46.8790   53.2760 C   0  0  0  0  0  0  0  0  0  0  0  0
    4.7870   47.9920   53.1850 O   0  0  0  0  0  0  0  0  0  0  0  0
    6.5130   46.5820   52.3160 C   0  0  2  0  0  0  0  0  0  0  0  0
    6.4330   45.2020   51.8220 N   0  0  0  0  0  0  0  0  0  0  0  0
    6.8400   44.8430   50.4930 C   0  0  0  0  0  0  0  0  0  0  0  0
    7.3060   45.7150   49.7110 O   0  0  0  0  0  0  0  0  0  0  0  0
    6.6570   43.4400   50.0060 C   0  0  0  0  0  0  0  0  0  0  0  0
    5.3120   42.9330   50.4220 C   0  0  0  0  0  0  0  0  0  0  0  0
    4.8170   41.6880   50.0410 C   0  0  0  0  0  0  0  0  0  0  0  0
    3.2580   41.5480   50.6510 S   0  0  0  0  0  0  0  0  0  0  0  0
    3.2750   43.0750   51.3660 C   0  0  0  0  0  0  0  0  0  0  0  0
    2.1770   43.6690   52.0910 N   0  0  0  0  0  0  0  0  0  0  0  0
    1.5650   42.9300   53.2070 C   0  0  0  0  0  0  0  0  0  0  0  0
    0.1250   43.3820   53.4640 C   0  0  0  0  0  0  0  0  0  0  0  0
    0.0750   44.8900   53.7000 C   0  0  0  0  0  0  0  0  0  0  0  0
    0.6790   45.6000   52.5790 N   0  0  0  0  0  0  0  0  0  0  0  0
    1.7630   45.0300   51.8380 C   0  0  0  0  0  0  0  0  0  0  0  0
    2.3380   45.7300   50.9600 O   0  0  0  0  0  0  0  0  0  0  0  0
    4.4530   43.7010   51.1460 N   0  0  0  0  0  0  0  0  0  0  0  0
    7.8400   46.8200   53.0050 C   0  0  0  0  0  0  0  0  0  0  0  0
    7.8810   47.4290   54.2720 C   0  0  0  0  0  0  0  0  0  0  0  0
    9.1060   47.6450   54.9120 C   0  0  0  0  0  0  0  0  0  0  0  0
   10.2970   47.2570   54.2950 C   0  0  0  0  0  0  0  0  0  0  0  0
   10.2680   46.6510   53.0380 C   0  0  0  0  0  0  0  0  0  0  0  0
    9.0470   46.4310   52.3940 C   0  0  0  0  0  0  0  0  0  0  0  0
    5.5818   44.2566   55.3660 H   0  0  0  0  0  0  0  0  0  0  0  0
    4.7714   43.8644   53.8116 H   0  0  0  0  0  0  0  0  0  0  0  0
    6.4387   44.5328   53.8116 H   0  0  0  0  0  0  0  0  0  0  0  0
    4.2089   46.1854   56.2224 H   0  0  0  0  0  0  0  0  0  0  0  0
    3.5983   47.3743   55.0222 H   0  0  0  0  0  0  0  0  0  0  0  0
    2.9664   45.6929   55.0222 H   0  0  0  0  0  0  0  0  0  0  0  0
    6.4294   47.2575   51.4518 H   0  0  0  0  0  0  0  0  0  0  0  0
    6.0130   44.4560   52.4210 H   0  0  0  0  0  0  0  0  0  0  0  0
    6.7315   43.4212   48.9087 H   0  0  0  0  0  0  0  0  0  0  0  0
    7.4382   42.7989   50.4403 H   0  0  0  0  0  0  0  0  0  0  0  0
    5.3513   40.9318   49.4470 H   0  0  0  0  0  0  0  0  0  0  0  0
    1.5640   41.8568   52.9658 H   0  0  0  0  0  0  0  0  0  0  0  0
    2.1540   43.1298   54.1143 H   0  0  0  0  0  0  0  0  0  0  0  0
   -0.4951   43.1309   52.5908 H   0  0  0  0  0  0  0  0  0  0  0  0
   -0.2564   42.8678   54.3585 H   0  0  0  0  0  0  0  0  0  0  0  0
   -0.9733   45.2057   53.8065 H   0  0  0  0  0  0  0  0  0  0  0  0
    0.6359   45.1266   54.6162 H   0  0  0  0  0  0  0  0  0  0  0  0
    0.3950   46.5870   52.3940 H   0  0  0  0  0  0  0  0  0  0  0  0
    6.9455   47.7369   54.7620 H   0  0  0  0  0  0  0  0  0  0  0  0
    9.1311   48.1214   55.9032 H   0  0  0  0  0  0  0  0  0  0  0  0
   11.2589   47.4291   54.8000 H   0  0  0  0  0  0  0  0  0  0  0  0
   11.2073   46.3461   52.5535 H   0  0  0  0  0  0  0  0  0  0  0  0
    9.0293   45.9512   51.4043 H   0  0  0  0  0  0  0  0  0  0  0  0
  1  2  1  0
  2  3  1  0
  2  4  1  0
  4  5  2  0
  4  6  1  0
  6  7  1  0
  7  8  1  0
  8  9  2  0
  8 10  1  0
 10 11  1  0
 11 12  2  0
 12 13  1  0
 13 14  1  0
 14 15  1  0
 15 16  1  0
 16 17  1  0
 17 18  1  0
 18 19  1  0
 19 20  1  0
 20 21  2  0
 14 22  2  0
  6 23  1  0
 23 24  2  0
 24 25  1  0
 25 26  2  0
 26 27  1  0
 27 28  2  0
 22 11  1  0
 28 23  1  0
 20 15  1  0
  1 29  1  0
  1 30  1  0
  1 31  1  0
  3 32  1  0
  3 33  1  0
  3 34  1  0
  6 35  1  6
  7 36  1  0
 10 37  1  0
 10 38  1  0
 12 39  1  0
 16 40  1  0
 16 41  1  0
 17 42  1  0
 17 43  1  0
 18 44  1  0
 18 45  1  0
 19 46  1  0
 24 47  1  0
 25 48  1  0
 26 49  1  0
 27 50  1  0
 28 51  1  0
M  END
>  <meeko>  (3) 
{"is_sidechain": [false], "free_energy": -7.485, "intermolecular_energy": -11.985, "internal_energy": 0.357}

$$$$
ligand_84_conformer_5_docked
     RDKit          3D

 51 53  0  0  0  0  0  0  0  0999 V2000
    8.3980   47.9840   51.4430 C   0  0  0  0  0  0  0  0  0  0  0  0
    8.2730   47.1750   52.6610 N   0  0  0  0  0  0  0  0  0  0  0  0
    9.3050   47.2610   53.6990 C   0  0  0  0  0  0  0  0  0  0  0  0
    7.1640   46.2670   52.8570 C   0  0  0  0  0  0  0  0  0  0  0  0
    7.1690   45.5030   53.8620 O   0  0  0  0  0  0  0  0  0  0  0  0
    6.0140   46.1590   51.8730 C   0  0  2  0  0  0  0  0  0  0  0  0
    4.7230   46.2240   52.5700 N   0  0  0  0  0  0  0  0  0  0  0  0
    3.5000   46.5210   51.8800 C   0  0  0  0  0  0  0  0  0  0  0  0
    3.5000   46.7150   50.6340 O   0  0  0  0  0  0  0  0  0  0  0  0
    2.2220   46.6630   52.6460 C   0  0  0  0  0  0  0  0  0  0  0  0
    1.5000   45.3520   52.6700 C   0  0  0  0  0  0  0  0  0  0  0  0
    2.0370   44.1980   53.2360 C   0  0  0  0  0  0  0  0  0  0  0  0
    0.9460   42.9470   52.9800 S   0  0  0  0  0  0  0  0  0  0  0  0
   -0.1580   43.9210   52.1570 C   0  0  0  0  0  0  0  0  0  0  0  0
   -1.4050   43.4710   51.5870 N   0  0  0  0  0  0  0  0  0  0  0  0
   -1.4850   43.2080   50.1410 C   0  0  0  0  0  0  0  0  0  0  0  0
   -2.9210   43.3220   49.6230 C   0  0  0  0  0  0  0  0  0  0  0  0
   -3.8460   42.3950   50.4100 C   0  0  0  0  0  0  0  0  0  0  0  0
   -3.7550   42.6800   51.8370 N   0  0  0  0  0  0  0  0  0  0  0  0
   -2.5320   43.1350   52.4270 C   0  0  0  0  0  0  0  0  0  0  0  0
   -2.4630   43.2460   53.6810 O   0  0  0  0  0  0  0  0  0  0  0  0
    0.2920   45.1930   52.0660 N   0  0  0  0  0  0  0  0  0  0  0  0
    6.1280   44.8670   51.0920 C   0  0  0  0  0  0  0  0  0  0  0  0
    7.1290   44.7150   50.1170 C   0  0  0  0  0  0  0  0  0  0  0  0
    7.2390   43.5210   49.3970 C   0  0  0  0  0  0  0  0  0  0  0  0
    6.3530   42.4700   49.6440 C   0  0  0  0  0  0  0  0  0  0  0  0
    5.3560   42.6090   50.6110 C   0  0  0  0  0  0  0  0  0  0  0  0
    5.2430   43.8000   51.3340 C   0  0  0  0  0  0  0  0  0  0  0  0
    8.5607   49.0368   51.7172 H   0  0  0  0  0  0  0  0  0  0  0  0
    9.2511   47.6237   50.8494 H   0  0  0  0  0  0  0  0  0  0  0  0
    7.4759   47.8980   50.8494 H   0  0  0  0  0  0  0  0  0  0  0  0
    8.8314   47.2215   54.6911 H   0  0  0  0  0  0  0  0  0  0  0  0
   10.0035   46.4180   53.5923 H   0  0  0  0  0  0  0  0  0  0  0  0
    9.8543   48.2080   53.5923 H   0  0  0  0  0  0  0  0  0  0  0  0
    6.0668   47.0074   51.1748 H   0  0  0  0  0  0  0  0  0  0  0  0
    4.6820   46.1120   53.6070 H   0  0  0  0  0  0  0  0  0  0  0  0
    2.4461   46.9759   53.6765 H   0  0  0  0  0  0  0  0  0  0  0  0
    1.5880   47.4192   52.1600 H   0  0  0  0  0  0  0  0  0  0  0  0
    3.0025   44.1200   53.7572 H   0  0  0  0  0  0  0  0  0  0  0  0
   -0.8558   43.9379   49.6106 H   0  0  0  0  0  0  0  0  0  0  0  0
   -1.1357   42.1808   49.9596 H   0  0  0  0  0  0  0  0  0  0  0  0
   -3.2660   44.3603   49.7367 H   0  0  0  0  0  0  0  0  0  0  0  0
   -2.9420   43.0308   48.5624 H   0  0  0  0  0  0  0  0  0  0  0  0
   -4.8826   42.5474   50.0751 H   0  0  0  0  0  0  0  0  0  0  0  0
   -3.5418   41.3527   50.2336 H   0  0  0  0  0  0  0  0  0  0  0  0
   -4.5600   42.4310   52.4540 H   0  0  0  0  0  0  0  0  0  0  0  0
    7.8297   45.5396   49.9192 H   0  0  0  0  0  0  0  0  0  0  0  0
    8.0245   43.4095   48.6351 H   0  0  0  0  0  0  0  0  0  0  0  0
    6.4409   41.5320   49.0761 H   0  0  0  0  0  0  0  0  0  0  0  0
    4.6586   41.7806   50.8043 H   0  0  0  0  0  0  0  0  0  0  0  0
    4.4574   43.9038   52.0969 H   0  0  0  0  0  0  0  0  0  0  0  0
  1  2  1  0
  2  3  1  0
  2  4  1  0
  4  5  2  0
  4  6  1  0
  6  7  1  0
  7  8  1  0
  8  9  2  0
  8 10  1  0
 10 11  1  0
 11 12  2  0
 12 13  1  0
 13 14  1  0
 14 15  1  0
 15 16  1  0
 16 17  1  0
 17 18  1  0
 18 19  1  0
 19 20  1  0
 20 21  2  0
 14 22  2  0
  6 23  1  0
 23 24  2  0
 24 25  1  0
 25 26  2  0
 26 27  1  0
 27 28  2  0
 22 11  1  0
 28 23  1  0
 20 15  1  0
  1 29  1  0
  1 30  1  0
  1 31  1  0
  3 32  1  0
  3 33  1  0
  3 34  1  0
  6 35  1  6
  7 36  1  0
 10 37  1  0
 10 38  1  0
 12 39  1  0
 16 40  1  0
 16 41  1  0
 17 42  1  0
 17 43  1  0
 18 44  1  0
 18 45  1  0
 19 46  1  0
 24 47  1  0
 25 48  1  0
 26 49  1  0
 27 50  1  0
 28 51  1  0
M  END
>  <meeko>  (4) 
{"is_sidechain": [false], "free_energy": -7.327, "intermolecular_energy": -10.702, "internal_energy": -0.713}

$$$$
ligand_84_conformer_5_docked
     RDKit          3D

 51 53  0  0  0  0  0  0  0  0999 V2000
    6.0690   47.2800   52.3610 C   0  0  0  0  0  0  0  0  0  0  0  0
    6.4630   46.3670   53.4410 N   0  0  0  0  0  0  0  0  0  0  0  0
    7.6640   46.6530   54.2310 C   0  0  0  0  0  0  0  0  0  0  0  0
    5.7080   45.1680   53.7320 C   0  0  0  0  0  0  0  0  0  0  0  0
    6.1580   44.3530   54.5850 O   0  0  0  0  0  0  0  0  0  0  0  0
    4.4150   44.8240   53.0160 C   0  0  2  0  0  0  0  0  0  0  0  0
    3.3870   44.3930   53.9720 N   0  0  0  0  0  0  0  0  0  0  0  0
    2.6020   45.3330   54.7210 C   0  0  0  0  0  0  0  0  0  0  0  0
    2.7630   46.5730   54.5580 O   0  0  0  0  0  0  0  0  0  0  0  0
    1.6280   44.8460   55.7480 C   0  0  0  0  0  0  0  0  0  0  0  0
    0.2620   44.7570   55.1440 C   0  0  0  0  0  0  0  0  0  0  0  0
   -0.9090   44.8720   55.8900 C   0  0  0  0  0  0  0  0  0  0  0  0
   -2.2060   44.6360   54.8480 S   0  0  0  0  0  0  0  0  0  0  0  0
   -1.2260   44.3920   53.4970 C   0  0  0  0  0  0  0  0  0  0  0  0
   -1.7000   44.0910   52.1670 N   0  0  0  0  0  0  0  0  0  0  0  0
   -1.9540   45.1920   51.2250 C   0  0  0  0  0  0  0  0  0  0  0  0
   -2.9610   44.7920   50.1430 C   0  0  0  0  0  0  0  0  0  0  0  0
   -2.4900   43.5340   49.4170 C   0  0  0  0  0  0  0  0  0  0  0  0
   -2.2530   42.4560   50.3700 N   0  0  0  0  0  0  0  0  0  0  0  0
   -1.7910   42.7270   51.6970 C   0  0  0  0  0  0  0  0  0  0  0  0
   -1.4790   41.7610   52.4450 O   0  0  0  0  0  0  0  0  0  0  0  0
    0.0830   44.4820   53.8240 N   0  0  0  0  0  0  0  0  0  0  0  0
    4.6710   43.7380   51.9920 C   0  0  0  0  0  0  0  0  0  0  0  0
    3.8890   42.5700   51.9870 C   0  0  0  0  0  0  0  0  0  0  0  0
    4.1210   41.5680   51.0400 C   0  0  0  0  0  0  0  0  0  0  0  0
    5.1340   41.7220   50.0900 C   0  0  0  0  0  0  0  0  0  0  0  0
    5.9160   42.8780   50.0840 C   0  0  0  0  0  0  0  0  0  0  0  0
    5.6880   43.8840   51.0290 C   0  0  0  0  0  0  0  0  0  0  0  0
    5.6683   48.2085   52.7937 H   0  0  0  0  0  0  0  0  0  0  0  0
    6.9464   47.5136   51.7400 H   0  0  0  0  0  0  0  0  0  0  0  0
    5.2971   46.8019   51.7400 H   0  0  0  0  0  0  0  0  0  0  0  0
    7.4207   46.5951   55.3022 H   0  0  0  0  0  0  0  0  0  0  0  0
    8.4444   45.9156   53.9919 H   0  0  0  0  0  0  0  0  0  0  0  0
    8.0283   47.6630   53.9919 H   0  0  0  0  0  0  0  0  0  0  0  0
    4.0462   45.7244   52.5029 H   0  0  0  0  0  0  0  0  0  0  0  0
    3.2500   43.3770   54.1700 H   0  0  0  0  0  0  0  0  0  0  0  0
    1.9368   43.8515   56.1024 H   0  0  0  0  0  0  0  0  0  0  0  0
    1.6077   45.5492   56.5937 H   0  0  0  0  0  0  0  0  0  0  0  0
   -0.9731   45.0801   56.9682 H   0  0  0  0  0  0  0  0  0  0  0  0
   -2.3526   46.0527   51.7820 H   0  0  0  0  0  0  0  0  0  0  0  0
   -1.0043   45.4466   50.7317 H   0  0  0  0  0  0  0  0  0  0  0  0
   -3.9372   44.5966   50.6108 H   0  0  0  0  0  0  0  0  0  0  0  0
   -3.0481   45.6125   49.4155 H   0  0  0  0  0  0  0  0  0  0  0  0
   -3.2615   43.2197   48.6987 H   0  0  0  0  0  0  0  0  0  0  0  0
   -1.5509   43.7569   48.8894 H   0  0  0  0  0  0  0  0  0  0  0  0
   -2.3070   41.4670   50.0370 H   0  0  0  0  0  0  0  0  0  0  0  0
    3.0900   42.4436   52.7324 H   0  0  0  0  0  0  0  0  0  0  0  0
    3.5049   40.6567   51.0428 H   0  0  0  0  0  0  0  0  0  0  0  0
    5.3152   40.9318   49.3465 H   0  0  0  0  0  0  0  0  0  0  0  0
    6.7127   42.9982   49.3352 H   0  0  0  0  0  0  0  0  0  0  0  0
    6.3063   44.7937   51.0198 H   0  0  0  0  0  0  0  0  0  0  0  0
  1  2  1  0
  2  3  1  0
  2  4  1  0
  4  5  2  0
  4  6  1  0
  6  7  1  0
  7  8  1  0
  8  9  2  0
  8 10  1  0
 10 11  1  0
 11 12  2  0
 12 13  1  0
 13 14  1  0
 14 15  1  0
 15 16  1  0
 16 17  1  0
 17 18  1  0
 18 19  1  0
 19 20  1  0
 20 21  2  0
 14 22  2  0
  6 23  1  0
 23 24  2  0
 24 25  1  0
 25 26  2  0
 26 27  1  0
 27 28  2  0
 22 11  1  0
 28 23  1  0
 20 15  1  0
  1 29  1  0
  1 30  1  0
  1 31  1  0
  3 32  1  0
  3 33  1  0
  3 34  1  0
  6 35  1  6
  7 36  1  0
 10 37  1  0
 10 38  1  0
 12 39  1  0
 16 40  1  0
 16 41  1  0
 17 42  1  0
 17 43  1  0
 18 44  1  0
 18 45  1  0
 19 46  1  0
 24 47  1  0
 25 48  1  0
 26 49  1  0
 27 50  1  0
 28 51  1  0
M  END
>  <meeko>  (5) 
{"is_sidechain": [false], "free_energy": -7.218, "intermolecular_energy": -9.873, "internal_energy": -1.394}

$$$$
