MODEL 1
REMARK VINA RESULT:    -9.724      0.000      0.000
REMARK INTER + INTRA:         -13.420
REMARK INTER:                 -12.566
REMARK INTRA:                  -0.854
REMARK UNBOUND:                -0.854
REMARK SMILES Cc1cccc(Oc2ccc(C(=O)Nc3cccc([C@@H]4CCC(=O)N4)c3)nc2)c1
REMARK SMILES IDX 8 1 9 2 10 3 11 4 27 5 28 6 7 7 6 8 2 9 3 10 29 11 4 12 5 13
REMARK SMILES IDX 1 14 12 15 13 16 14 17 15 19 16 20 26 21 17 22 19 23 18 24
REMARK SMILES IDX 20 25 21 26 25 27 22 28 23 29 24 30
REMARK H PARENT 14 18 25 31
ROOT
ATOM      1  C   UNL     1      -0.633  43.895  53.721  1.00  0.00     0.145 A 
ATOM      2  C   UNL     1      -0.703  44.859  52.704  1.00  0.00     0.051 A 
ATOM      3  C   UNL     1       0.460  45.277  52.054  1.00  0.00     0.038 A 
ATOM      4  C   UNL     1       1.695  44.714  52.415  1.00  0.00     0.128 A 
ATOM      5  N   UNL     1       1.731  43.760  53.387  1.00  0.00    -0.247 NA
ATOM      6  C   UNL     1       0.612  43.342  54.035  1.00  0.00     0.159 A 
ENDROOT
BRANCH   1   7
ATOM      7  O   UNL     1      -1.771  43.435  54.398  1.00  0.00    -0.456 OA
BRANCH   7   8
ATOM      8  C   UNL     1      -2.271  43.954  55.602  1.00  0.00     0.127 A 
ATOM      9  C   UNL     1      -3.184  43.676  57.849  1.00  0.00    -0.047 A 
ATOM     10  C   UNL     1      -3.300  45.069  57.965  1.00  0.00     0.003 A 
ATOM     11  C   UNL     1      -2.662  43.122  56.669  1.00  0.00     0.050 A 
ATOM     12  C   UNL     1      -2.934  45.895  56.899  1.00  0.00     0.004 A 
ATOM     13  C   UNL     1      -2.429  45.339  55.721  1.00  0.00     0.047 A 
ATOM     14  C   UNL     1      -3.546  42.789  59.003  1.00  0.00     0.044 C 
ENDBRANCH   7   8
ENDBRANCH   1   7
BRANCH   4  15
ATOM     15  C   UNL     1       2.948  45.131  51.749  1.00  0.00     0.274 C 
ATOM     16  O   UNL     1       2.898  45.912  50.758  1.00  0.00    -0.267 OA
ATOM     17  N   UNL     1       4.221  44.684  52.250  1.00  0.00    -0.321 N 
ATOM     18  H   UNL     1       4.264  44.314  53.225  1.00  0.00     0.170 HD
BRANCH  17  19
ATOM     19  C   UNL     1       5.463  44.822  51.537  1.00  0.00     0.041 A 
ATOM     20  C   UNL     1       5.754  43.940  50.487  1.00  0.00     0.026 A 
ATOM     21  C   UNL     1       6.370  45.856  51.833  1.00  0.00     0.032 A 
ATOM     22  C   UNL     1       6.949  44.057  49.774  1.00  0.00     0.003 A 
ATOM     23  C   UNL     1       7.573  45.983  51.114  1.00  0.00    -0.024 A 
ATOM     24  C   UNL     1       7.860  45.066  50.092  1.00  0.00     0.006 A 
BRANCH  23  25
ATOM     25  C   UNL     1       8.570  47.069  51.460  1.00  0.00     0.113 C 
ATOM     26  C   UNL     1       9.917  46.481  51.953  1.00  0.00     0.040 C 
ATOM     27  N   UNL     1       8.071  47.888  52.550  1.00  0.00    -0.349 N 
ATOM     28  C   UNL     1      10.090  46.902  53.421  1.00  0.00     0.102 C 
ATOM     29  C   UNL     1       8.939  47.794  53.656  1.00  0.00     0.220 C 
ATOM     30  O   UNL     1       8.733  48.406  54.737  1.00  0.00    -0.275 OA
ATOM     31  H   UNL     1       7.199  48.461  52.521  1.00  0.00     0.164 HD
ENDBRANCH  23  25
ENDBRANCH  17  19
ENDBRANCH   4  15
TORSDOF 5
ENDMDL
MODEL 2
REMARK VINA RESULT:    -8.970      2.614     10.414
REMARK INTER + INTRA:         -12.446
REMARK INTER:                 -11.571
REMARK INTRA:                  -0.875
REMARK UNBOUND:                -0.854
REMARK SMILES Cc1cccc(Oc2ccc(C(=O)Nc3cccc([C@@H]4CCC(=O)N4)c3)nc2)c1
REMARK SMILES IDX 8 1 9 2 10 3 11 4 27 5 28 6 7 7 6 8 2 9 3 10 29 11 4 12 5 13
REMARK SMILES IDX 1 14 12 15 13 16 14 17 15 19 16 20 26 21 17 22 19 23 18 24
REMARK SMILES IDX 20 25 21 26 25 27 22 28 23 29 24 30
REMARK H PARENT 14 18 25 31
ROOT
ATOM      1  C   UNL     1       5.140  47.143  53.447  1.00  0.00     0.145 A 
ATOM      2  C   UNL     1       5.270  45.944  54.166  1.00  0.00     0.051 A 
ATOM      3  C   UNL     1       4.137  45.199  54.496  1.00  0.00     0.038 A 
ATOM      4  C   UNL     1       2.870  45.649  54.090  1.00  0.00     0.128 A 
ATOM      5  N   UNL     1       2.774  46.802  53.369  1.00  0.00    -0.247 NA
ATOM      6  C   UNL     1       3.864  47.544  53.040  1.00  0.00     0.159 A 
ENDROOT
BRANCH   1   7
ATOM      7  O   UNL     1       6.246  47.923  53.082  1.00  0.00    -0.456 OA
BRANCH   7   8
ATOM      8  C   UNL     1       7.585  47.504  53.110  1.00  0.00     0.127 A 
ATOM      9  C   UNL     1       9.738  47.256  54.233  1.00  0.00    -0.047 A 
ATOM     10  C   UNL     1      10.268  46.677  53.071  1.00  0.00     0.003 A 
ATOM     11  C   UNL     1       8.393  47.662  54.252  1.00  0.00     0.050 A 
ATOM     12  C   UNL     1       9.474  46.540  51.929  1.00  0.00     0.004 A 
ATOM     13  C   UNL     1       8.141  46.959  51.947  1.00  0.00     0.047 A 
ATOM     14  C   UNL     1      10.579  47.375  55.469  1.00  0.00     0.044 C 
ENDBRANCH   7   8
ENDBRANCH   1   7
BRANCH   4  15
ATOM     15  C   UNL     1       1.646  44.887  54.421  1.00  0.00     0.274 C 
ATOM     16  O   UNL     1       1.589  43.654  54.156  1.00  0.00    -0.267 OA
ATOM     17  N   UNL     1       0.542  45.535  55.078  1.00  0.00    -0.321 N 
ATOM     18  H   UNL     1       0.721  46.442  55.562  1.00  0.00     0.170 HD
BRANCH  17  19
ATOM     19  C   UNL     1      -0.769  44.957  55.213  1.00  0.00     0.041 A 
ATOM     20  C   UNL     1      -1.209  44.542  56.478  1.00  0.00     0.026 A 
ATOM     21  C   UNL     1      -1.640  44.846  54.114  1.00  0.00     0.032 A 
ATOM     22  C   UNL     1      -2.479  43.984  56.637  1.00  0.00     0.003 A 
ATOM     23  C   UNL     1      -2.925  44.291  54.270  1.00  0.00    -0.024 A 
ATOM     24  C   UNL     1      -3.329  43.848  55.538  1.00  0.00     0.006 A 
BRANCH  23  25
ATOM     25  C   UNL     1      -3.847  44.132  53.080  1.00  0.00     0.113 C 
ATOM     26  C   UNL     1      -3.352  43.031  52.107  1.00  0.00     0.040 C 
ATOM     27  N   UNL     1      -3.892  45.358  52.304  1.00  0.00    -0.349 N 
ATOM     28  C   UNL     1      -2.994  43.721  50.781  1.00  0.00     0.102 C 
ATOM     29  C   UNL     1      -3.412  45.118  51.001  1.00  0.00     0.220 C 
ATOM     30  O   UNL     1      -3.341  46.019  50.125  1.00  0.00    -0.275 OA
ATOM     31  H   UNL     1      -4.228  46.281  52.657  1.00  0.00     0.164 HD
ENDBRANCH  23  25
ENDBRANCH  17  19
ENDBRANCH   4  15
TORSDOF 5
ENDMDL
MODEL 3
REMARK VINA RESULT:    -8.926      2.459     10.202
REMARK INTER + INTRA:         -12.390
REMARK INTER:                 -11.645
REMARK INTRA:                  -0.745
REMARK UNBOUND:                -0.854
REMARK SMILES Cc1cccc(Oc2ccc(C(=O)Nc3cccc([C@@H]4CCC(=O)N4)c3)nc2)c1
REMARK SMILES IDX 8 1 9 2 10 3 11 4 27 5 28 6 7 7 6 8 2 9 3 10 29 11 4 12 5 13
REMARK SMILES IDX 1 14 12 15 13 16 14 17 15 19 16 20 26 21 17 22 19 23 18 24
REMARK SMILES IDX 20 25 21 26 25 27 22 28 23 29 24 30
REMARK H PARENT 14 18 25 31
ROOT
ATOM      1  C   UNL     1       5.424  45.537  51.484  1.00  0.00     0.145 A 
ATOM      2  C   UNL     1       5.224  44.858  52.696  1.00  0.00     0.051 A 
ATOM      3  C   UNL     1       3.942  44.762  53.241  1.00  0.00     0.038 A 
ATOM      4  C   UNL     1       2.856  45.333  52.559  1.00  0.00     0.128 A 
ATOM      5  N   UNL     1       3.074  45.962  51.369  1.00  0.00    -0.247 NA
ATOM      6  C   UNL     1       4.314  46.071  50.824  1.00  0.00     0.159 A 
ENDROOT
BRANCH   1   7
ATOM      7  O   UNL     1       6.689  45.653  50.890  1.00  0.00    -0.456 OA
BRANCH   7   8
ATOM      8  C   UNL     1       7.870  46.027  51.550  1.00  0.00     0.127 A 
ATOM      9  C   UNL     1       9.059  47.181  53.341  1.00  0.00    -0.047 A 
ATOM     10  C   UNL     1      10.279  46.766  52.788  1.00  0.00     0.003 A 
ATOM     11  C   UNL     1       7.856  46.804  52.724  1.00  0.00     0.050 A 
ATOM     12  C   UNL     1      10.296  46.015  51.610  1.00  0.00     0.004 A 
ATOM     13  C   UNL     1       9.097  45.653  50.991  1.00  0.00     0.047 A 
ATOM     14  C   UNL     1       9.038  47.962  54.622  1.00  0.00     0.044 C 
ENDBRANCH   7   8
ENDBRANCH   1   7
BRANCH   4  15
ATOM     15  C   UNL     1       1.483  45.252  53.104  1.00  0.00     0.274 C 
ATOM     16  O   UNL     1       0.517  45.706  52.431  1.00  0.00    -0.267 OA
ATOM     17  N   UNL     1       1.243  44.623  54.377  1.00  0.00    -0.321 N 
ATOM     18  H   UNL     1       1.979  43.991  54.760  1.00  0.00     0.170 HD
BRANCH  17  19
ATOM     19  C   UNL     1       0.003  44.716  55.101  1.00  0.00     0.041 A 
ATOM     20  C   UNL     1      -0.992  43.753  54.884  1.00  0.00     0.026 A 
ATOM     21  C   UNL     1      -0.214  45.720  56.062  1.00  0.00     0.032 A 
ATOM     22  C   UNL     1      -2.201  43.816  55.580  1.00  0.00     0.003 A 
ATOM     23  C   UNL     1      -1.428  45.785  56.771  1.00  0.00    -0.024 A 
ATOM     24  C   UNL     1      -2.424  44.832  56.510  1.00  0.00     0.006 A 
BRANCH  23  25
ATOM     25  C   UNL     1      -1.680  46.890  57.774  1.00  0.00     0.113 C 
ATOM     26  C   UNL     1      -3.057  46.739  58.469  1.00  0.00     0.040 C 
ATOM     27  N   UNL     1      -1.709  48.181  57.111  1.00  0.00    -0.349 N 
ATOM     28  C   UNL     1      -3.912  47.948  58.056  1.00  0.00     0.102 C 
ATOM     29  C   UNL     1      -2.974  48.778  57.278  1.00  0.00     0.220 C 
ATOM     30  O   UNL     1      -3.266  49.903  56.795  1.00  0.00    -0.275 OA
ATOM     31  H   UNL     1      -0.912  48.606  56.586  1.00  0.00     0.164 HD
ENDBRANCH  23  25
ENDBRANCH  17  19
ENDBRANCH   4  15
TORSDOF 5
ENDMDL
MODEL 4
REMARK VINA RESULT:    -8.606      5.477      8.036
REMARK INTER + INTRA:         -11.976
REMARK INTER:                 -11.327
REMARK INTRA:                  -0.648
REMARK UNBOUND:                -0.854
REMARK SMILES Cc1cccc(Oc2ccc(C(=O)Nc3cccc([C@@H]4CCC(=O)N4)c3)nc2)c1
REMARK SMILES IDX 8 1 9 2 10 3 11 4 27 5 28 6 7 7 6 8 2 9 3 10 29 11 4 12 5 13
REMARK SMILES IDX 1 14 12 15 13 16 14 17 15 19 16 20 26 21 17 22 19 23 18 24
REMARK SMILES IDX 20 25 21 26 25 27 22 28 23 29 24 30
REMARK H PARENT 14 18 25 31
ROOT
ATOM      1  C   UNL     1       3.986  40.301  46.508  1.00  0.00     0.145 A 
ATOM      2  C   UNL     1       5.034  41.193  46.233  1.00  0.00     0.051 A 
ATOM      3  C   UNL     1       5.632  41.912  47.269  1.00  0.00     0.038 A 
ATOM      4  C   UNL     1       5.188  41.724  48.588  1.00  0.00     0.128 A 
ATOM      5  N   UNL     1       4.187  40.831  48.832  1.00  0.00    -0.247 NA
ATOM      6  C   UNL     1       3.589  40.124  47.837  1.00  0.00     0.159 A 
ENDROOT
BRANCH   1   7
ATOM      7  O   UNL     1       3.359  39.548  45.506  1.00  0.00    -0.456 OA
BRANCH   7   8
ATOM      8  C   UNL     1       2.144  38.858  45.641  1.00  0.00     0.127 A 
ATOM      9  C   UNL     1       0.833  36.940  46.388  1.00  0.00    -0.047 A 
ATOM     10  C   UNL     1      -0.317  37.522  45.835  1.00  0.00     0.003 A 
ATOM     11  C   UNL     1       2.061  37.614  46.295  1.00  0.00     0.050 A 
ATOM     12  C   UNL     1      -0.233  38.745  45.166  1.00  0.00     0.004 A 
ATOM     13  C   UNL     1       0.994  39.406  45.064  1.00  0.00     0.047 A 
ATOM     14  C   UNL     1       0.738  35.642  47.134  1.00  0.00     0.044 C 
ENDBRANCH   7   8
ENDBRANCH   1   7
BRANCH   4  15
ATOM     15  C   UNL     1       5.796  42.468  49.713  1.00  0.00     0.274 C 
ATOM     16  O   UNL     1       6.847  42.026  50.256  1.00  0.00    -0.267 OA
ATOM     17  N   UNL     1       5.220  43.709  50.160  1.00  0.00    -0.321 N 
ATOM     18  H   UNL     1       4.564  44.207  49.518  1.00  0.00     0.170 HD
BRANCH  17  19
ATOM     19  C   UNL     1       5.578  44.369  51.387  1.00  0.00     0.041 A 
ATOM     20  C   UNL     1       4.985  43.955  52.588  1.00  0.00     0.026 A 
ATOM     21  C   UNL     1       6.550  45.385  51.419  1.00  0.00     0.032 A 
ATOM     22  C   UNL     1       5.320  44.575  53.793  1.00  0.00     0.003 A 
ATOM     23  C   UNL     1       6.898  46.009  52.632  1.00  0.00    -0.024 A 
ATOM     24  C   UNL     1       6.264  45.603  53.816  1.00  0.00     0.006 A 
BRANCH  23  25
ATOM     25  C   UNL     1       7.913  47.132  52.661  1.00  0.00     0.113 C 
ATOM     26  C   UNL     1       9.239  46.731  51.965  1.00  0.00     0.040 C 
ATOM     27  N   UNL     1       8.266  47.462  54.029  1.00  0.00    -0.349 N 
ATOM     28  C   UNL     1      10.336  46.725  53.043  1.00  0.00     0.102 C 
ATOM     29  C   UNL     1       9.641  47.235  54.239  1.00  0.00     0.220 C 
ATOM     30  O   UNL     1      10.204  47.440  55.346  1.00  0.00    -0.275 OA
ATOM     31  H   UNL     1       7.601  47.815  54.753  1.00  0.00     0.164 HD
ENDBRANCH  23  25
ENDBRANCH  17  19
ENDBRANCH   4  15
TORSDOF 5
ENDMDL
MODEL 5
REMARK VINA RESULT:    -8.590      2.138     10.166
REMARK INTER + INTRA:         -11.955
REMARK INTER:                 -11.050
REMARK INTRA:                  -0.905
REMARK UNBOUND:                -0.854
REMARK SMILES Cc1cccc(Oc2ccc(C(=O)Nc3cccc([C@@H]4CCC(=O)N4)c3)nc2)c1
REMARK SMILES IDX 8 1 9 2 10 3 11 4 27 5 28 6 7 7 6 8 2 9 3 10 29 11 4 12 5 13
REMARK SMILES IDX 1 14 12 15 13 16 14 17 15 19 16 20 26 21 17 22 19 23 18 24
REMARK SMILES IDX 20 25 21 26 25 27 22 28 23 29 24 30
REMARK H PARENT 14 18 25 31
ROOT
ATOM      1  C   UNL     1       5.616  45.265  50.924  1.00  0.00     0.145 A 
ATOM      2  C   UNL     1       4.516  46.132  50.826  1.00  0.00     0.051 A 
ATOM      3  C   UNL     1       3.269  45.738  51.312  1.00  0.00     0.038 A 
ATOM      4  C   UNL     1       3.127  44.477  51.914  1.00  0.00     0.128 A 
ATOM      5  N   UNL     1       4.217  43.666  52.022  1.00  0.00    -0.247 NA
ATOM      6  C   UNL     1       5.439  44.028  51.552  1.00  0.00     0.159 A 
ENDROOT
BRANCH   1   7
ATOM      7  O   UNL     1       6.891  45.616  50.460  1.00  0.00    -0.456 OA
BRANCH   7   8
ATOM      8  C   UNL     1       7.985  45.967  51.266  1.00  0.00     0.127 A 
ATOM      9  C   UNL     1       8.959  47.112  53.189  1.00  0.00    -0.047 A 
ATOM     10  C   UNL     1      10.230  46.662  52.802  1.00  0.00     0.003 A 
ATOM     11  C   UNL     1       7.837  46.756  52.423  1.00  0.00     0.050 A 
ATOM     12  C   UNL     1      10.382  45.898  51.643  1.00  0.00     0.004 A 
ATOM     13  C   UNL     1       9.265  45.558  50.875  1.00  0.00     0.047 A 
ATOM     14  C   UNL     1       8.791  47.905  54.451  1.00  0.00     0.044 C 
ENDBRANCH   7   8
ENDBRANCH   1   7
BRANCH   4  15
ATOM     15  C   UNL     1       1.821  44.025  52.441  1.00  0.00     0.274 C 
ATOM     16  O   UNL     1       1.749  42.940  53.082  1.00  0.00    -0.267 OA
ATOM     17  N   UNL     1       0.644  44.835  52.261  1.00  0.00    -0.321 N 
ATOM     18  H   UNL     1       0.772  45.842  52.020  1.00  0.00     0.170 HD
BRANCH  17  19
ATOM     19  C   UNL     1      -0.697  44.376  52.508  1.00  0.00     0.041 A 
ATOM     20  C   UNL     1      -1.299  43.495  51.598  1.00  0.00     0.026 A 
ATOM     21  C   UNL     1      -1.400  44.748  53.667  1.00  0.00     0.032 A 
ATOM     22  C   UNL     1      -2.597  43.029  51.817  1.00  0.00     0.003 A 
ATOM     23  C   UNL     1      -2.706  44.276  53.898  1.00  0.00    -0.024 A 
ATOM     24  C   UNL     1      -3.302  43.425  52.955  1.00  0.00     0.006 A 
BRANCH  23  25
ATOM     25  C   UNL     1      -3.480  44.710  55.125  1.00  0.00     0.113 C 
ATOM     26  C   UNL     1      -2.849  45.957  55.795  1.00  0.00     0.040 C 
ATOM     27  N   UNL     1      -3.463  43.665  56.132  1.00  0.00    -0.349 N 
ATOM     28  C   UNL     1      -2.356  45.527  57.186  1.00  0.00     0.102 C 
ATOM     29  C   UNL     1      -2.829  44.135  57.300  1.00  0.00     0.220 C 
ATOM     30  O   UNL     1      -2.678  43.423  58.327  1.00  0.00    -0.275 OA
ATOM     31  H   UNL     1      -3.859  42.706  56.011  1.00  0.00     0.164 HD
ENDBRANCH  23  25
ENDBRANCH  17  19
ENDBRANCH   4  15
TORSDOF 5
ENDMDL
