ligand_15_conformer_3_docked
     RDKit          3D

 46 48  0  0  0  0  0  0  0  0999 V2000
   11.0930   47.5240   56.2620 C   0  0  0  0  0  0  0  0  0  0  0  0
    9.8250   47.8840   55.7240 O   0  0  0  0  0  0  0  0  0  0  0  0
    9.3510   47.4740   54.4690 C   0  0  0  0  0  0  0  0  0  0  0  0
   10.2750   46.9850   53.5370 C   0  0  0  0  0  0  0  0  0  0  0  0
    9.8540   46.5710   52.2720 C   0  0  0  0  0  0  0  0  0  0  0  0
    8.5030   46.6380   51.9260 C   0  0  0  0  0  0  0  0  0  0  0  0
    7.5590   47.1190   52.8480 C   0  0  0  0  0  0  0  0  0  0  0  0
    6.1110   47.2580   52.4510 C   0  0  0  0  0  0  0  0  0  0  0  0
    5.2920   46.0210   52.8430 C   0  0  0  0  0  0  0  0  0  0  0  0
    5.1020   45.0950   51.6760 C   0  0  0  0  0  0  0  0  0  0  0  0
    4.7440   45.5700   50.5650 O   0  0  0  0  0  0  0  0  0  0  0  0
    5.2280   43.6750   51.8620 N   0  0  0  0  0  0  0  0  0  0  0  0
    4.9490   42.7070   50.8390 C   0  0  0  0  0  0  0  0  0  0  0  0
    5.8990   42.3890   49.8550 C   0  0  0  0  0  0  0  0  0  0  0  0
    5.6090   41.4290   48.8790 C   0  0  0  0  0  0  0  0  0  0  0  0
    4.3680   40.7780   48.8690 C   0  0  0  0  0  0  0  0  0  0  0  0
    4.1020   39.7820   47.8670 N   0  0  0  0  0  0  0  0  0  0  0  0
    3.2880   40.0020   46.7060 C   0  0  0  0  0  0  0  0  0  0  0  0
    2.2810   39.1430   46.3860 N   0  0  0  0  0  0  0  0  0  0  0  0
    1.4890   39.3620   45.3060 C   0  0  0  0  0  0  0  0  0  0  0  0
    1.6940   40.4880   44.5100 C   0  0  0  0  0  0  0  0  0  0  0  0
    2.7180   41.3670   44.8580 C   0  0  0  0  0  0  0  0  0  0  0  0
    3.4900   41.1120   45.9470 N   0  0  0  0  0  0  0  0  0  0  0  0
    3.4360   41.0640   49.8810 C   0  0  0  0  0  0  0  0  0  0  0  0
    3.7270   42.0210   50.8580 C   0  0  0  0  0  0  0  0  0  0  0  0
    7.9890   47.5400   54.1180 C   0  0  0  0  0  0  0  0  0  0  0  0
   11.0426   47.5383   57.3608 H   0  0  0  0  0  0  0  0  0  0  0  0
   11.3628   46.5138   55.9205 H   0  0  0  0  0  0  0  0  0  0  0  0
   11.8534   48.2418   55.9205 H   0  0  0  0  0  0  0  0  0  0  0  0
   11.3406   46.9267   53.8038 H   0  0  0  0  0  0  0  0  0  0  0  0
   10.5882   46.1912   51.5463 H   0  0  0  0  0  0  0  0  0  0  0  0
    8.1766   46.3127   50.9272 H   0  0  0  0  0  0  0  0  0  0  0  0
    5.6870   48.1398   52.9536 H   0  0  0  0  0  0  0  0  0  0  0  0
    6.0649   47.3664   51.3573 H   0  0  0  0  0  0  0  0  0  0  0  0
    5.8189   45.4826   53.6446 H   0  0  0  0  0  0  0  0  0  0  0  0
    4.3010   46.3563   53.1828 H   0  0  0  0  0  0  0  0  0  0  0  0
    5.3680   43.3240   52.8370 H   0  0  0  0  0  0  0  0  0  0  0  0
    6.8749   42.8965   49.8514 H   0  0  0  0  0  0  0  0  0  0  0  0
    6.3605   41.1836   48.1142 H   0  0  0  0  0  0  0  0  0  0  0  0
    4.5970   38.8640   47.9420 H   0  0  0  0  0  0  0  0  0  0  0  0
    0.6861   38.6518   45.0589 H   0  0  0  0  0  0  0  0  0  0  0  0
    1.0632   40.6780   43.6291 H   0  0  0  0  0  0  0  0  0  0  0  0
    2.9012   42.2664   44.2518 H   0  0  0  0  0  0  0  0  0  0  0  0
    2.4732   40.5326   49.9047 H   0  0  0  0  0  0  0  0  0  0  0  0
    2.9917   42.2370   51.6471 H   0  0  0  0  0  0  0  0  0  0  0  0
    7.2563   47.9239   54.8431 H   0  0  0  0  0  0  0  0  0  0  0  0
  1  2  1  0
  2  3  1  0
  3  4  2  0
  4  5  1  0
  5  6  2  0
  6  7  1  0
  7  8  1  0
  8  9  1  0
  9 10  1  0
 10 11  2  0
 10 12  1  0
 12 13  1  0
 13 14  2  0
 14 15  1  0
 15 16  2  0
 16 17  1  0
 17 18  1  0
 18 19  2  0
 19 20  1  0
 20 21  2  0
 21 22  1  0
 22 23  2  0
 16 24  1  0
 24 25  2  0
  7 26  2  0
 26  3  1  0
 25 13  1  0
 23 18  1  0
  1 27  1  0
  1 28  1  0
  1 29  1  0
  4 30  1  0
  5 31  1  0
  6 32  1  0
  8 33  1  0
  8 34  1  0
  9 35  1  0
  9 36  1  0
 12 37  1  0
 14 38  1  0
 15 39  1  0
 17 40  1  0
 20 41  1  0
 21 42  1  0
 22 43  1  0
 24 44  1  0
 25 45  1  0
 26 46  1  0
M  END
>  <meeko>  (1) 
{"is_sidechain": [false], "free_energy": -8.527, "intermolecular_energy": -12.017, "internal_energy": -0.718}

$$$$
ligand_15_conformer_3_docked
     RDKit          3D

 46 48  0  0  0  0  0  0  0  0999 V2000
    8.9160   44.3210   49.7370 C   0  0  0  0  0  0  0  0  0  0  0  0
    9.7550   45.2150   50.4590 O   0  0  0  0  0  0  0  0  0  0  0  0
    9.3300   46.0060   51.5360 C   0  0  0  0  0  0  0  0  0  0  0  0
   10.2780   46.3890   52.4940 C   0  0  0  0  0  0  0  0  0  0  0  0
    9.9030   47.1700   53.5890 C   0  0  0  0  0  0  0  0  0  0  0  0
    8.5760   47.5790   53.7370 C   0  0  0  0  0  0  0  0  0  0  0  0
    7.6110   47.2110   52.7850 C   0  0  0  0  0  0  0  0  0  0  0  0
    6.1660   47.5930   52.9810 C   0  0  0  0  0  0  0  0  0  0  0  0
    5.4960   46.7480   54.0720 C   0  0  0  0  0  0  0  0  0  0  0  0
    5.0890   45.3990   53.5520 C   0  0  0  0  0  0  0  0  0  0  0  0
    5.2200   44.3880   54.2930 O   0  0  0  0  0  0  0  0  0  0  0  0
    4.6540   45.2600   52.1880 N   0  0  0  0  0  0  0  0  0  0  0  0
    4.3600   43.9990   51.5680 C   0  0  0  0  0  0  0  0  0  0  0  0
    3.0430   43.5190   51.4760 C   0  0  0  0  0  0  0  0  0  0  0  0
    2.7810   42.2950   50.8500 C   0  0  0  0  0  0  0  0  0  0  0  0
    3.8270   41.5320   50.3140 C   0  0  0  0  0  0  0  0  0  0  0  0
    3.5290   40.2870   49.6600 N   0  0  0  0  0  0  0  0  0  0  0  0
    3.5210   40.1060   48.2370 C   0  0  0  0  0  0  0  0  0  0  0  0
    2.7810   39.1170   47.6630 N   0  0  0  0  0  0  0  0  0  0  0  0
    2.7460   38.9590   46.3150 C   0  0  0  0  0  0  0  0  0  0  0  0
    3.4690   39.8240   45.4950 C   0  0  0  0  0  0  0  0  0  0  0  0
    4.2110   40.8410   46.0950 C   0  0  0  0  0  0  0  0  0  0  0  0
    4.2200   40.9650   47.4470 N   0  0  0  0  0  0  0  0  0  0  0  0
    5.1390   42.0350   50.3670 C   0  0  0  0  0  0  0  0  0  0  0  0
    5.4010   43.2590   50.9890 C   0  0  0  0  0  0  0  0  0  0  0  0
    7.9930   46.4200   51.6890 C   0  0  0  0  0  0  0  0  0  0  0  0
    8.3397   43.7069   50.4446 H   0  0  0  0  0  0  0  0  0  0  0  0
    8.2249   44.8971   49.1041 H   0  0  0  0  0  0  0  0  0  0  0  0
    9.5348   43.6679   49.1041 H   0  0  0  0  0  0  0  0  0  0  0  0
   11.3254   46.0721   52.3826 H   0  0  0  0  0  0  0  0  0  0  0  0
   10.6545   47.4637   54.3367 H   0  0  0  0  0  0  0  0  0  0  0  0
    8.2852   48.1920   54.6028 H   0  0  0  0  0  0  0  0  0  0  0  0
    6.1140   48.6532   53.2697 H   0  0  0  0  0  0  0  0  0  0  0  0
    5.6338   47.4141   52.0351 H   0  0  0  0  0  0  0  0  0  0  0  0
    6.2033   46.6120   54.9034 H   0  0  0  0  0  0  0  0  0  0  0  0
    4.5913   47.2749   54.4094 H   0  0  0  0  0  0  0  0  0  0  0  0
    4.7160   46.1010   51.5710 H   0  0  0  0  0  0  0  0  0  0  0  0
    2.2146   44.1073   51.8975 H   0  0  0  0  0  0  0  0  0  0  0  0
    1.7461   41.9291   50.7782 H   0  0  0  0  0  0  0  0  0  0  0  0
    3.3880   39.4400   50.2550 H   0  0  0  0  0  0  0  0  0  0  0  0
    2.1481   38.1497   45.8706 H   0  0  0  0  0  0  0  0  0  0  0  0
    3.4546   39.7072   44.4013 H   0  0  0  0  0  0  0  0  0  0  0  0
    4.7881   41.5417   45.4738 H   0  0  0  0  0  0  0  0  0  0  0  0
    5.9633   41.4624   49.9167 H   0  0  0  0  0  0  0  0  0  0  0  0
    6.4307   43.6444   51.0246 H   0  0  0  0  0  0  0  0  0  0  0  0
    7.2411   46.1214   50.9437 H   0  0  0  0  0  0  0  0  0  0  0  0
  1  2  1  0
  2  3  1  0
  3  4  2  0
  4  5  1  0
  5  6  2  0
  6  7  1  0
  7  8  1  0
  8  9  1  0
  9 10  1  0
 10 11  2  0
 10 12  1  0
 12 13  1  0
 13 14  2  0
 14 15  1  0
 15 16  2  0
 16 17  1  0
 17 18  1  0
 18 19  2  0
 19 20  1  0
 20 21  2  0
 21 22  1  0
 22 23  2  0
 16 24  1  0
 24 25  2  0
  7 26  2  0
 26  3  1  0
 25 13  1  0
 23 18  1  0
  1 27  1  0
  1 28  1  0
  1 29  1  0
  4 30  1  0
  5 31  1  0
  6 32  1  0
  8 33  1  0
  8 34  1  0
  9 35  1  0
  9 36  1  0
 12 37  1  0
 14 38  1  0
 15 39  1  0
 17 40  1  0
 20 41  1  0
 21 42  1  0
 22 43  1  0
 24 44  1  0
 25 45  1  0
 26 46  1  0
M  END
>  <meeko>  (2) 
{"is_sidechain": [false], "free_energy": -8.223, "intermolecular_energy": -11.524, "internal_energy": -0.783}

$$$$
ligand_15_conformer_3_docked
     RDKit          3D

 46 48  0  0  0  0  0  0  0  0999 V2000
    5.8790   46.9900   54.9420 C   0  0  0  0  0  0  0  0  0  0  0  0
    7.2890   47.1540   54.8290 O   0  0  0  0  0  0  0  0  0  0  0  0
    8.0380   46.8080   53.6950 C   0  0  0  0  0  0  0  0  0  0  0  0
    9.4340   46.8890   53.7710 C   0  0  0  0  0  0  0  0  0  0  0  0
   10.2250   46.5630   52.6680 C   0  0  0  0  0  0  0  0  0  0  0  0
    9.6270   46.1490   51.4760 C   0  0  0  0  0  0  0  0  0  0  0  0
    8.2290   46.0550   51.3800 C   0  0  0  0  0  0  0  0  0  0  0  0
    7.5810   45.6760   50.0720 C   0  0  0  0  0  0  0  0  0  0  0  0
    7.4080   44.1570   49.9410 C   0  0  0  0  0  0  0  0  0  0  0  0
    6.0820   43.7050   50.4820 C   0  0  0  0  0  0  0  0  0  0  0  0
    5.7240   42.5080   50.3150 O   0  0  0  0  0  0  0  0  0  0  0  0
    5.1950   44.6600   51.0910 N   0  0  0  0  0  0  0  0  0  0  0  0
    3.8640   44.3480   51.5280 C   0  0  0  0  0  0  0  0  0  0  0  0
    3.6100   43.2620   52.3830 C   0  0  0  0  0  0  0  0  0  0  0  0
    2.3060   42.9900   52.8090 C   0  0  0  0  0  0  0  0  0  0  0  0
    1.2370   43.7920   52.3850 C   0  0  0  0  0  0  0  0  0  0  0  0
   -0.0910   43.5030   52.8530 N   0  0  0  0  0  0  0  0  0  0  0  0
   -0.5950   43.8910   54.1390 C   0  0  0  0  0  0  0  0  0  0  0  0
   -1.7380   43.3420   54.6360 N   0  0  0  0  0  0  0  0  0  0  0  0
   -2.2040   43.6840   55.8650 C   0  0  0  0  0  0  0  0  0  0  0  0
   -1.5030   44.6040   56.6430 C   0  0  0  0  0  0  0  0  0  0  0  0
   -0.3270   45.1470   56.1280 C   0  0  0  0  0  0  0  0  0  0  0  0
    0.1060   44.7790   54.8940 N   0  0  0  0  0  0  0  0  0  0  0  0
    1.4980   44.9050   51.5670 C   0  0  0  0  0  0  0  0  0  0  0  0
    2.8020   45.1790   51.1440 C   0  0  0  0  0  0  0  0  0  0  0  0
    7.4390   46.3900   52.4920 C   0  0  0  0  0  0  0  0  0  0  0  0
    5.5977   46.9573   56.0049 H   0  0  0  0  0  0  0  0  0  0  0  0
    5.3713   47.8352   54.4542 H   0  0  0  0  0  0  0  0  0  0  0  0
    5.5788   46.0509   54.4542 H   0  0  0  0  0  0  0  0  0  0  0  0
    9.9113   47.2123   54.7079 H   0  0  0  0  0  0  0  0  0  0  0  0
   11.3206   46.6323   52.7379 H   0  0  0  0  0  0  0  0  0  0  0  0
   10.2537   45.8953   50.6083 H   0  0  0  0  0  0  0  0  0  0  0  0
    6.5918   46.1534   50.0132 H   0  0  0  0  0  0  0  0  0  0  0  0
    8.2339   46.0175   49.2553 H   0  0  0  0  0  0  0  0  0  0  0  0
    7.4736   43.8802   48.8784 H   0  0  0  0  0  0  0  0  0  0  0  0
    8.2029   43.6678   50.5231 H   0  0  0  0  0  0  0  0  0  0  0  0
    5.4720   45.6670   51.0610 H   0  0  0  0  0  0  0  0  0  0  0  0
    4.4403   42.6232   52.7186 H   0  0  0  0  0  0  0  0  0  0  0  0
    2.1176   42.1404   53.4818 H   0  0  0  0  0  0  0  0  0  0  0  0
   -0.7600   43.0530   52.1890 H   0  0  0  0  0  0  0  0  0  0  0  0
   -3.1334   43.2356   56.2460 H   0  0  0  0  0  0  0  0  0  0  0  0
   -1.8689   44.8944   57.6389 H   0  0  0  0  0  0  0  0  0  0  0  0
    0.2498   45.8727   56.7201 H   0  0  0  0  0  0  0  0  0  0  0  0
    0.6725   45.5633   51.2584 H   0  0  0  0  0  0  0  0  0  0  0  0
    2.9963   46.0531   50.5051 H   0  0  0  0  0  0  0  0  0  0  0  0
    6.3431   46.3251   52.4220 H   0  0  0  0  0  0  0  0  0  0  0  0
  1  2  1  0
  2  3  1  0
  3  4  2  0
  4  5  1  0
  5  6  2  0
  6  7  1  0
  7  8  1  0
  8  9  1  0
  9 10  1  0
 10 11  2  0
 10 12  1  0
 12 13  1  0
 13 14  2  0
 14 15  1  0
 15 16  2  0
 16 17  1  0
 17 18  1  0
 18 19  2  0
 19 20  1  0
 20 21  2  0
 21 22  1  0
 22 23  2  0
 16 24  1  0
 24 25  2  0
  7 26  2  0
 26  3  1  0
 25 13  1  0
 23 18  1  0
  1 27  1  0
  1 28  1  0
  1 29  1  0
  4 30  1  0
  5 31  1  0
  6 32  1  0
  8 33  1  0
  8 34  1  0
  9 35  1  0
  9 36  1  0
 12 37  1  0
 14 38  1  0
 15 39  1  0
 17 40  1  0
 20 41  1  0
 21 42  1  0
 22 43  1  0
 24 44  1  0
 25 45  1  0
 26 46  1  0
M  END
>  <meeko>  (3) 
{"is_sidechain": [false], "free_energy": -7.983, "intermolecular_energy": -11.773, "internal_energy": -0.196}

$$$$
ligand_15_conformer_3_docked
     RDKit          3D

 46 48  0  0  0  0  0  0  0  0999 V2000
    5.7050   46.9200   54.9680 C   0  0  0  0  0  0  0  0  0  0  0  0
    7.1050   47.1650   54.8890 O   0  0  0  0  0  0  0  0  0  0  0  0
    7.9000   46.8650   53.7740 C   0  0  0  0  0  0  0  0  0  0  0  0
    9.2820   47.0680   53.8690 C   0  0  0  0  0  0  0  0  0  0  0  0
   10.1160   46.7910   52.7840 C   0  0  0  0  0  0  0  0  0  0  0  0
    9.5770   46.3030   51.5920 C   0  0  0  0  0  0  0  0  0  0  0  0
    8.1940   46.0870   51.4770 C   0  0  0  0  0  0  0  0  0  0  0  0
    7.6030   45.6280   50.1680 C   0  0  0  0  0  0  0  0  0  0  0  0
    6.9210   44.2590   50.2990 C   0  0  0  0  0  0  0  0  0  0  0  0
    5.4960   44.3950   50.7530 C   0  0  0  0  0  0  0  0  0  0  0  0
    4.8410   45.4220   50.4260 O   0  0  0  0  0  0  0  0  0  0  0  0
    4.9290   43.4120   51.6350 N   0  0  0  0  0  0  0  0  0  0  0  0
    3.6200   43.5180   52.2150 C   0  0  0  0  0  0  0  0  0  0  0  0
    2.5590   42.7060   51.7810 C   0  0  0  0  0  0  0  0  0  0  0  0
    1.2980   42.8170   52.3750 C   0  0  0  0  0  0  0  0  0  0  0  0
    1.0750   43.7420   53.4040 C   0  0  0  0  0  0  0  0  0  0  0  0
   -0.2260   43.8220   54.0110 N   0  0  0  0  0  0  0  0  0  0  0  0
   -1.4310   44.1280   53.2950 C   0  0  0  0  0  0  0  0  0  0  0  0
   -2.5570   43.3830   53.4740 N   0  0  0  0  0  0  0  0  0  0  0  0
   -3.7090   43.6850   52.8230 C   0  0  0  0  0  0  0  0  0  0  0  0
   -3.7540   44.7800   51.9610 C   0  0  0  0  0  0  0  0  0  0  0  0
   -2.5990   45.5430   51.7990 C   0  0  0  0  0  0  0  0  0  0  0  0
   -1.4660   45.2070   52.4690 N   0  0  0  0  0  0  0  0  0  0  0  0
    2.1490   44.5220   53.8680 C   0  0  0  0  0  0  0  0  0  0  0  0
    3.4100   44.4080   53.2770 C   0  0  0  0  0  0  0  0  0  0  0  0
    7.3590   46.3730   52.5700 C   0  0  0  0  0  0  0  0  0  0  0  0
    5.4011   46.8668   56.0238 H   0  0  0  0  0  0  0  0  0  0  0  0
    5.1612   47.7366   54.4706 H   0  0  0  0  0  0  0  0  0  0  0  0
    5.4709   45.9672   54.4706 H   0  0  0  0  0  0  0  0  0  0  0  0
    9.7143   47.4488   54.8061 H   0  0  0  0  0  0  0  0  0  0  0  0
   11.2000   46.9576   52.8685 H   0  0  0  0  0  0  0  0  0  0  0  0
   10.2380   46.0869   50.7398 H   0  0  0  0  0  0  0  0  0  0  0  0
    6.8585   46.3662   49.8352 H   0  0  0  0  0  0  0  0  0  0  0  0
    8.4206   45.5341   49.4381 H   0  0  0  0  0  0  0  0  0  0  0  0
    6.9380   43.7562   49.3208 H   0  0  0  0  0  0  0  0  0  0  0  0
    7.4681   43.6715   51.0510 H   0  0  0  0  0  0  0  0  0  0  0  0
    5.5630   42.6670   52.0030 H   0  0  0  0  0  0  0  0  0  0  0  0
    2.7208   41.9800   50.9706 H   0  0  0  0  0  0  0  0  0  0  0  0
    0.4746   42.1733   52.0320 H   0  0  0  0  0  0  0  0  0  0  0  0
   -0.3160   43.5630   55.0190 H   0  0  0  0  0  0  0  0  0  0  0  0
   -4.6060   43.0667   52.9752 H   0  0  0  0  0  0  0  0  0  0  0  0
   -4.6783   45.0354   51.4221 H   0  0  0  0  0  0  0  0  0  0  0  0
   -2.6048   46.4159   51.1297 H   0  0  0  0  0  0  0  0  0  0  0  0
    1.9958   45.2251   54.7000 H   0  0  0  0  0  0  0  0  0  0  0  0
    4.2442   45.0215   53.6481 H   0  0  0  0  0  0  0  0  0  0  0  0
    6.2743   46.2115   52.4850 H   0  0  0  0  0  0  0  0  0  0  0  0
  1  2  1  0
  2  3  1  0
  3  4  2  0
  4  5  1  0
  5  6  2  0
  6  7  1  0
  7  8  1  0
  8  9  1  0
  9 10  1  0
 10 11  2  0
 10 12  1  0
 12 13  1  0
 13 14  2  0
 14 15  1  0
 15 16  2  0
 16 17  1  0
 17 18  1  0
 18 19  2  0
 19 20  1  0
 20 21  2  0
 21 22  1  0
 22 23  2  0
 16 24  1  0
 24 25  2  0
  7 26  2  0
 26  3  1  0
 25 13  1  0
 23 18  1  0
  1 27  1  0
  1 28  1  0
  1 29  1  0
  4 30  1  0
  5 31  1  0
  6 32  1  0
  8 33  1  0
  8 34  1  0
  9 35  1  0
  9 36  1  0
 12 37  1  0
 14 38  1  0
 15 39  1  0
 17 40  1  0
 20 41  1  0
 21 42  1  0
 22 43  1  0
 24 44  1  0
 25 45  1  0
 26 46  1  0
M  END
>  <meeko>  (4) 
{"is_sidechain": [false], "free_energy": -7.978, "intermolecular_energy": -11.363, "internal_energy": -0.598}

$$$$
ligand_15_conformer_3_docked
     RDKit          3D

 46 48  0  0  0  0  0  0  0  0999 V2000
    7.0740   43.2700   49.3660 C   0  0  0  0  0  0  0  0  0  0  0  0
    8.2690   44.0360   49.2560 O   0  0  0  0  0  0  0  0  0  0  0  0
    8.7530   44.8950   50.2530 C   0  0  0  0  0  0  0  0  0  0  0  0
   10.1170   44.8460   50.5690 C   0  0  0  0  0  0  0  0  0  0  0  0
   10.6460   45.6760   51.5590 C   0  0  0  0  0  0  0  0  0  0  0  0
    9.8180   46.5690   52.2420 C   0  0  0  0  0  0  0  0  0  0  0  0
    8.4480   46.6390   51.9360 C   0  0  0  0  0  0  0  0  0  0  0  0
    7.5400   47.5520   52.7210 C   0  0  0  0  0  0  0  0  0  0  0  0
    7.3380   47.0560   54.1590 C   0  0  0  0  0  0  0  0  0  0  0  0
    6.1610   46.1300   54.2610 C   0  0  0  0  0  0  0  0  0  0  0  0
    6.0730   45.3520   55.2490 O   0  0  0  0  0  0  0  0  0  0  0  0
    5.2060   46.0650   53.1880 N   0  0  0  0  0  0  0  0  0  0  0  0
    4.1180   45.1300   53.1410 C   0  0  0  0  0  0  0  0  0  0  0  0
    2.8990   45.3910   53.7890 C   0  0  0  0  0  0  0  0  0  0  0  0
    1.8490   44.4710   53.7130 C   0  0  0  0  0  0  0  0  0  0  0  0
    2.0000   43.2760   52.9960 C   0  0  0  0  0  0  0  0  0  0  0  0
    0.8980   42.3560   52.9180 N   0  0  0  0  0  0  0  0  0  0  0  0
   -0.3660   42.6620   52.3130 C   0  0  0  0  0  0  0  0  0  0  0  0
   -1.5080   42.6860   53.0540 N   0  0  0  0  0  0  0  0  0  0  0  0
   -2.7030   43.0030   52.4930 C   0  0  0  0  0  0  0  0  0  0  0  0
   -2.7720   43.3220   51.1380 C   0  0  0  0  0  0  0  0  0  0  0  0
   -1.5930   43.3090   50.3940 C   0  0  0  0  0  0  0  0  0  0  0  0
   -0.4170   42.9860   50.9930 N   0  0  0  0  0  0  0  0  0  0  0  0
    3.2040   43.0360   52.3110 C   0  0  0  0  0  0  0  0  0  0  0  0
    4.2520   43.9580   52.3840 C   0  0  0  0  0  0  0  0  0  0  0  0
    7.9200   45.7970   50.9440 C   0  0  0  0  0  0  0  0  0  0  0  0
    6.8337   43.1160   50.4283 H   0  0  0  0  0  0  0  0  0  0  0  0
    6.2478   43.8072   48.8773 H   0  0  0  0  0  0  0  0  0  0  0  0
    7.2172   42.2950   48.8773 H   0  0  0  0  0  0  0  0  0  0  0  0
   10.7765   44.1478   50.0327 H   0  0  0  0  0  0  0  0  0  0  0  0
   11.7178   45.6264   51.8016 H   0  0  0  0  0  0  0  0  0  0  0  0
   10.2393   47.2200   53.0222 H   0  0  0  0  0  0  0  0  0  0  0  0
    7.9851   48.5575   52.7504 H   0  0  0  0  0  0  0  0  0  0  0  0
    6.5588   47.5683   52.2240 H   0  0  0  0  0  0  0  0  0  0  0  0
    8.2429   46.5210   54.4831 H   0  0  0  0  0  0  0  0  0  0  0  0
    7.1477   47.9283   54.8016 H   0  0  0  0  0  0  0  0  0  0  0  0
    5.4110   46.6140   52.3220 H   0  0  0  0  0  0  0  0  0  0  0  0
    2.7702   46.3232   54.3586 H   0  0  0  0  0  0  0  0  0  0  0  0
    0.8968   44.6866   54.2199 H   0  0  0  0  0  0  0  0  0  0  0  0
    1.0500   41.3770   53.2480 H   0  0  0  0  0  0  0  0  0  0  0  0
   -3.6156   43.0081   53.1071 H   0  0  0  0  0  0  0  0  0  0  0  0
   -3.7328   43.5777   50.6673 H   0  0  0  0  0  0  0  0  0  0  0  0
   -1.6148   43.5600   49.3232 H   0  0  0  0  0  0  0  0  0  0  0  0
    3.3218   42.1189   51.7152 H   0  0  0  0  0  0  0  0  0  0  0  0
    5.1895   43.7622   51.8430 H   0  0  0  0  0  0  0  0  0  0  0  0
    6.8473   45.8420   50.7045 H   0  0  0  0  0  0  0  0  0  0  0  0
  1  2  1  0
  2  3  1  0
  3  4  2  0
  4  5  1  0
  5  6  2  0
  6  7  1  0
  7  8  1  0
  8  9  1  0
  9 10  1  0
 10 11  2  0
 10 12  1  0
 12 13  1  0
 13 14  2  0
 14 15  1  0
 15 16  2  0
 16 17  1  0
 17 18  1  0
 18 19  2  0
 19 20  1  0
 20 21  2  0
 21 22  1  0
 22 23  2  0
 16 24  1  0
 24 25  2  0
  7 26  2  0
 26  3  1  0
 25 13  1  0
 23 18  1  0
  1 27  1  0
  1 28  1  0
  1 29  1  0
  4 30  1  0
  5 31  1  0
  6 32  1  0
  8 33  1  0
  8 34  1  0
  9 35  1  0
  9 36  1  0
 12 37  1  0
 14 38  1  0
 15 39  1  0
 17 40  1  0
 20 41  1  0
 21 42  1  0
 22 43  1  0
 24 44  1  0
 25 45  1  0
 26 46  1  0
M  END
>  <meeko>  (5) 
{"is_sidechain": [false], "free_energy": -7.761, "intermolecular_energy": -10.735, "internal_energy": -0.921}

$$$$
