MODEL 1
REMARK VINA RESULT:    -9.407      0.000      0.000
REMARK INTER + INTRA:         -12.648
REMARK INTER:                 -11.882
REMARK INTRA:                  -0.766
REMARK UNBOUND:                -0.766
REMARK SMILES Cc1c[nH]c2ncc(C(=O)N[C@H]3[C@@H]4CN(C(=O)c5ccc6nc(N)n(C)c6c5)C[C@@H]43)cc12
REMARK SMILES IDX 12 1 13 2 14 3 15 4 29 5 30 6 11 7 9 8 10 9 8 11 2 12 3 13
REMARK SMILES IDX 32 14 4 15 31 16 5 17 6 18 7 19 1 20 16 22 17 23 18 24 19 25
REMARK SMILES IDX 28 26 20 27 27 28 21 29 25 30 22 31 23 32 26 33 24 34
REMARK H PARENT 11 10 4 21 24 35 24 36
ROOT
ATOM      1  C   UNL     1       2.376  44.431  53.268  1.00  0.00     0.093 C 
ATOM      2  C   UNL     1       1.459  44.278  52.061  1.00  0.00     0.038 C 
ATOM      3  C   UNL     1       0.006  44.672  52.282  1.00  0.00     0.126 C 
ATOM      4  N   UNL     1      -0.526  43.734  53.258  1.00  0.00    -0.338 N 
ATOM      5  C   UNL     1       0.460  42.758  53.703  1.00  0.00     0.126 C 
ATOM      6  C   UNL     1       1.746  43.081  52.958  1.00  0.00     0.038 C 
ENDROOT
BRANCH   1   7
ATOM      7  N   UNL     1       3.786  44.512  52.902  1.00  0.00    -0.349 N 
ATOM      8  C   UNL     1       4.485  45.765  52.908  1.00  0.00     0.253 C 
ATOM      9  O   UNL     1       3.905  46.798  53.341  1.00  0.00    -0.269 OA
ATOM     10  H   UNL     1       4.311  43.619  52.774  1.00  0.00     0.164 HD
BRANCH   8  11
ATOM     11  C   UNL     1       5.883  45.865  52.425  1.00  0.00     0.058 A 
ATOM     12  C   UNL     1       9.395  46.850  53.273  1.00  0.00    -0.024 A 
ATOM     13  C   UNL     1      10.350  46.638  52.280  1.00  0.00     0.088 A 
ATOM     14  C   UNL     1       8.197  46.430  52.735  1.00  0.00     0.022 A 
ATOM     15  N   UNL     1       9.771  46.118  51.172  1.00  0.00    -0.346 N 
ATOM     16  C   UNL     1       6.908  46.374  53.257  1.00  0.00     0.027 A 
ATOM     17  C   UNL     1       8.466  45.999  51.470  1.00  0.00     0.137 A 
ATOM     18  N   UNL     1       7.505  45.495  50.658  1.00  0.00    -0.238 NA
ATOM     19  C   UNL     1       6.220  45.420  51.117  1.00  0.00     0.127 A 
ATOM     20  C   UNL     1       9.634  47.369  54.653  1.00  0.00     0.047 C 
ATOM     21  H   UNL     1      10.244  45.853  50.280  1.00  0.00     0.167 HD
ENDBRANCH   8  11
ENDBRANCH   1   7
BRANCH   4  22
ATOM     22  C   UNL     1      -1.804  43.923  53.892  1.00  0.00     0.253 C 
ATOM     23  O   UNL     1      -2.782  43.207  53.542  1.00  0.00    -0.269 OA
BRANCH  22  24
ATOM     24  C   UNL     1      -2.008  44.944  54.938  1.00  0.00     0.042 A 
ATOM     25  C   UNL     1      -3.275  45.568  55.076  1.00  0.00     0.016 A 
ATOM     26  C   UNL     1      -0.964  45.273  55.832  1.00  0.00     0.042 A 
ATOM     27  C   UNL     1      -3.494  46.538  56.073  1.00  0.00     0.031 A 
ATOM     28  C   UNL     1      -1.220  46.234  56.812  1.00  0.00     0.070 A 
ATOM     29  C   UNL     1      -2.436  46.847  56.921  1.00  0.00     0.091 A 
ATOM     30  N   UNL     1      -0.403  46.721  57.762  1.00  0.00    -0.314 N 
ATOM     31  N   UNL     1      -2.427  47.751  57.918  1.00  0.00    -0.213 NA
ATOM     32  C   UNL     1      -1.163  47.651  58.401  1.00  0.00     0.200 A 
ATOM     33  C   UNL     1       1.013  46.422  57.976  1.00  0.00     0.153 C 
BRANCH  32  34
ATOM     34  N   UNL     1      -0.683  48.478  59.462  1.00  0.00    -0.369 N 
ATOM     35  H   UNL     1      -1.245  48.636  60.326  1.00  0.00     0.159 HD
ATOM     36  H   UNL     1       0.257  48.925  59.389  1.00  0.00     0.159 HD
ENDBRANCH  32  34
ENDBRANCH  22  24
ENDBRANCH   4  22
TORSDOF 5
ENDMDL
MODEL 2
REMARK VINA RESULT:    -9.083      2.691     10.227
REMARK INTER + INTRA:         -12.238
REMARK INTER:                 -11.533
REMARK INTRA:                  -0.705
REMARK UNBOUND:                -0.766
REMARK SMILES Cc1c[nH]c2ncc(C(=O)N[C@H]3[C@@H]4CN(C(=O)c5ccc6nc(N)n(C)c6c5)C[C@@H]43)cc12
REMARK SMILES IDX 12 1 13 2 14 3 15 4 29 5 30 6 11 7 9 8 10 9 8 11 2 12 3 13
REMARK SMILES IDX 32 14 4 15 31 16 5 17 6 18 7 19 1 20 16 22 17 23 18 24 19 25
REMARK SMILES IDX 28 26 20 27 27 28 21 29 25 30 22 31 23 32 26 33 24 34
REMARK H PARENT 11 10 4 21 24 35 24 36
ROOT
ATOM      1  C   UNL     1       3.206  45.575  54.474  1.00  0.00     0.093 C 
ATOM      2  C   UNL     1       3.548  47.056  54.589  1.00  0.00     0.038 C 
ATOM      3  C   UNL     1       4.461  47.608  53.505  1.00  0.00     0.126 C 
ATOM      4  N   UNL     1       5.739  46.931  53.665  1.00  0.00    -0.338 N 
ATOM      5  C   UNL     1       5.739  45.973  54.762  1.00  0.00     0.126 C 
ATOM      6  C   UNL     1       4.347  46.025  55.374  1.00  0.00     0.038 C 
ENDROOT
BRANCH   1   7
ATOM      7  N   UNL     1       1.997  45.214  55.205  1.00  0.00    -0.349 N 
ATOM      8  C   UNL     1       0.743  45.036  54.529  1.00  0.00     0.253 C 
ATOM      9  O   UNL     1       0.705  45.083  53.269  1.00  0.00    -0.269 OA
ATOM     10  H   UNL     1       2.092  44.950  56.210  1.00  0.00     0.164 HD
BRANCH   8  11
ATOM     11  C   UNL     1      -0.507  44.784  55.286  1.00  0.00     0.058 A 
ATOM     12  C   UNL     1      -2.807  46.012  57.973  1.00  0.00    -0.024 A 
ATOM     13  C   UNL     1      -3.952  45.250  58.198  1.00  0.00     0.088 A 
ATOM     14  C   UNL     1      -2.121  45.368  56.965  1.00  0.00     0.022 A 
ATOM     15  N   UNL     1      -3.973  44.176  57.374  1.00  0.00    -0.346 N 
ATOM     16  C   UNL     1      -0.934  45.668  56.305  1.00  0.00     0.027 A 
ATOM     17  C   UNL     1      -2.855  44.267  56.634  1.00  0.00     0.137 A 
ATOM     18  N   UNL     1      -2.475  43.413  55.654  1.00  0.00    -0.238 NA
ATOM     19  C   UNL     1      -1.314  43.656  54.974  1.00  0.00     0.127 A 
ATOM     20  C   UNL     1      -2.435  47.293  58.646  1.00  0.00     0.047 C 
ATOM     21  H   UNL     1      -4.712  43.440  57.317  1.00  0.00     0.167 HD
ENDBRANCH   8  11
ENDBRANCH   1   7
BRANCH   4  22
ATOM     22  C   UNL     1       6.787  47.020  52.684  1.00  0.00     0.253 C 
ATOM     23  O   UNL     1       7.573  48.007  52.704  1.00  0.00    -0.269 OA
BRANCH  22  24
ATOM     24  C   UNL     1       6.963  45.991  51.640  1.00  0.00     0.042 A 
ATOM     25  C   UNL     1       8.093  46.043  50.782  1.00  0.00     0.016 A 
ATOM     26  C   UNL     1       6.039  44.928  51.519  1.00  0.00     0.042 A 
ATOM     27  C   UNL     1       8.284  45.066  49.787  1.00  0.00     0.031 A 
ATOM     28  C   UNL     1       6.266  43.974  50.525  1.00  0.00     0.070 A 
ATOM     29  C   UNL     1       7.343  44.047  49.687  1.00  0.00     0.091 A 
ATOM     30  N   UNL     1       5.540  42.889  50.204  1.00  0.00    -0.314 N 
ATOM     31  N   UNL     1       7.327  43.035  48.801  1.00  0.00    -0.213 NA
ATOM     32  C   UNL     1       6.203  42.354  49.144  1.00  0.00     0.200 A 
ATOM     33  C   UNL     1       4.263  42.455  50.772  1.00  0.00     0.153 C 
BRANCH  32  34
ATOM     34  N   UNL     1       5.757  41.204  48.423  1.00  0.00    -0.369 N 
ATOM     35  H   UNL     1       5.448  41.271  47.429  1.00  0.00     0.159 HD
ATOM     36  H   UNL     1       5.754  40.270  48.887  1.00  0.00     0.159 HD
ENDBRANCH  32  34
ENDBRANCH  22  24
ENDBRANCH   4  22
TORSDOF 5
ENDMDL
MODEL 3
REMARK VINA RESULT:    -8.933      2.065      9.483
REMARK INTER + INTRA:         -12.048
REMARK INTER:                 -11.359
REMARK INTRA:                  -0.689
REMARK UNBOUND:                -0.766
REMARK SMILES Cc1c[nH]c2ncc(C(=O)N[C@H]3[C@@H]4CN(C(=O)c5ccc6nc(N)n(C)c6c5)C[C@@H]43)cc12
REMARK SMILES IDX 12 1 13 2 14 3 15 4 29 5 30 6 11 7 9 8 10 9 8 11 2 12 3 13
REMARK SMILES IDX 32 14 4 15 31 16 5 17 6 18 7 19 1 20 16 22 17 23 18 24 19 25
REMARK SMILES IDX 28 26 20 27 27 28 21 29 25 30 22 31 23 32 26 33 24 34
REMARK H PARENT 11 10 4 21 24 35 24 36
ROOT
ATOM      1  C   UNL     1       1.519  44.847  53.574  1.00  0.00     0.093 C 
ATOM      2  C   UNL     1       1.204  43.512  52.913  1.00  0.00     0.038 C 
ATOM      3  C   UNL     1       2.408  42.682  52.493  1.00  0.00     0.126 C 
ATOM      4  N   UNL     1       3.086  43.445  51.456  1.00  0.00    -0.338 N 
ATOM      5  C   UNL     1       2.430  44.712  51.163  1.00  0.00     0.126 C 
ATOM      6  C   UNL     1       1.220  44.789  52.083  1.00  0.00     0.038 C 
ENDROOT
BRANCH   1   7
ATOM      7  N   UNL     1       0.410  45.363  54.369  1.00  0.00    -0.349 N 
ATOM      8  C   UNL     1       0.449  45.340  55.803  1.00  0.00     0.253 C 
ATOM      9  O   UNL     1       1.503  44.971  56.390  1.00  0.00    -0.269 OA
ATOM     10  H   UNL     1      -0.350  45.878  53.874  1.00  0.00     0.164 HD
BRANCH   8  11
ATOM     11  C   UNL     1      -0.724  45.755  56.609  1.00  0.00     0.058 A 
ATOM     12  C   UNL     1      -2.009  48.081  59.248  1.00  0.00    -0.024 A 
ATOM     13  C   UNL     1      -3.362  47.967  59.562  1.00  0.00     0.088 A 
ATOM     14  C   UNL     1      -1.769  47.131  58.277  1.00  0.00     0.022 A 
ATOM     15  N   UNL     1      -3.936  46.986  58.827  1.00  0.00    -0.346 N 
ATOM     16  C   UNL     1      -0.622  46.793  57.566  1.00  0.00     0.027 A 
ATOM     17  C   UNL     1      -2.954  46.493  58.054  1.00  0.00     0.137 A 
ATOM     18  N   UNL     1      -3.080  45.505  57.135  1.00  0.00    -0.238 NA
ATOM     19  C   UNL     1      -1.985  45.129  56.409  1.00  0.00     0.127 A 
ATOM     20  C   UNL     1      -1.037  49.069  59.806  1.00  0.00     0.047 C 
ATOM     21  H   UNL     1      -4.936  46.686  58.848  1.00  0.00     0.167 HD
ENDBRANCH   8  11
ENDBRANCH   1   7
BRANCH   4  22
ATOM     22  C   UNL     1       4.394  43.093  50.971  1.00  0.00     0.253 C 
ATOM     23  O   UNL     1       4.574  41.966  50.434  1.00  0.00    -0.269 OA
BRANCH  22  24
ATOM     24  C   UNL     1       5.541  44.013  51.095  1.00  0.00     0.042 A 
ATOM     25  C   UNL     1       6.461  44.142  50.022  1.00  0.00     0.016 A 
ATOM     26  C   UNL     1       5.704  44.802  52.257  1.00  0.00     0.042 A 
ATOM     27  C   UNL     1       7.556  45.022  50.116  1.00  0.00     0.031 A 
ATOM     28  C   UNL     1       6.798  45.669  52.311  1.00  0.00     0.070 A 
ATOM     29  C   UNL     1       7.693  45.767  51.283  1.00  0.00     0.091 A 
ATOM     30  N   UNL     1       7.175  46.505  53.294  1.00  0.00    -0.314 N 
ATOM     31  N   UNL     1       8.669  46.642  51.583  1.00  0.00    -0.213 NA
ATOM     32  C   UNL     1       8.322  47.065  52.825  1.00  0.00     0.200 A 
ATOM     33  C   UNL     1       6.570  46.677  54.615  1.00  0.00     0.153 C 
BRANCH  32  34
ATOM     34  N   UNL     1       9.120  47.987  53.568  1.00  0.00    -0.369 N 
ATOM     35  H   UNL     1       8.860  48.995  53.643  1.00  0.00     0.159 HD
ATOM     36  H   UNL     1       9.973  47.653  54.067  1.00  0.00     0.159 HD
ENDBRANCH  32  34
ENDBRANCH  22  24
ENDBRANCH   4  22
TORSDOF 5
ENDMDL
MODEL 4
REMARK VINA RESULT:    -8.653      6.478     10.317
REMARK INTER + INTRA:         -11.695
REMARK INTER:                 -11.117
REMARK INTRA:                  -0.578
REMARK UNBOUND:                -0.766
REMARK SMILES Cc1c[nH]c2ncc(C(=O)N[C@H]3[C@@H]4CN(C(=O)c5ccc6nc(N)n(C)c6c5)C[C@@H]43)cc12
REMARK SMILES IDX 12 1 13 2 14 3 15 4 29 5 30 6 11 7 9 8 10 9 8 11 2 12 3 13
REMARK SMILES IDX 32 14 4 15 31 16 5 17 6 18 7 19 1 20 16 22 17 23 18 24 19 25
REMARK SMILES IDX 28 26 20 27 27 28 21 29 25 30 22 31 23 32 26 33 24 34
REMARK H PARENT 11 10 4 21 24 35 24 36
ROOT
ATOM      1  C   UNL     1       3.854  41.307  48.910  1.00  0.00     0.093 C 
ATOM      2  C   UNL     1       3.907  41.170  50.426  1.00  0.00     0.038 C 
ATOM      3  C   UNL     1       3.528  42.415  51.214  1.00  0.00     0.126 C 
ATOM      4  N   UNL     1       4.539  43.414  50.908  1.00  0.00    -0.338 N 
ATOM      5  C   UNL     1       5.550  42.932  49.978  1.00  0.00     0.126 C 
ATOM      6  C   UNL     1       5.173  41.496  49.645  1.00  0.00     0.038 C 
ENDROOT
BRANCH   1   7
ATOM      7  N   UNL     1       3.748  40.021  48.228  1.00  0.00    -0.349 N 
ATOM      8  C   UNL     1       3.055  39.897  46.978  1.00  0.00     0.253 C 
ATOM      9  O   UNL     1       2.624  40.932  46.401  1.00  0.00    -0.269 OA
ATOM     10  H   UNL     1       4.309  39.223  48.598  1.00  0.00     0.164 HD
BRANCH   8  11
ATOM     11  C   UNL     1       2.848  38.572  46.345  1.00  0.00     0.058 A 
ATOM     12  C   UNL     1       0.935  35.354  46.438  1.00  0.00    -0.024 A 
ATOM     13  C   UNL     1       1.225  34.437  45.430  1.00  0.00     0.088 A 
ATOM     14  C   UNL     1       1.757  36.437  46.207  1.00  0.00     0.022 A 
ATOM     15  N   UNL     1       2.190  34.923  44.613  1.00  0.00    -0.346 N 
ATOM     16  C   UNL     1       1.900  37.657  46.860  1.00  0.00     0.027 A 
ATOM     17  C   UNL     1       2.498  36.136  45.101  1.00  0.00     0.137 A 
ATOM     18  N   UNL     1       3.402  37.000  44.581  1.00  0.00    -0.238 NA
ATOM     19  C   UNL     1       3.587  38.213  45.184  1.00  0.00     0.127 A 
ATOM     20  C   UNL     1      -0.096  35.214  47.510  1.00  0.00     0.047 C 
ATOM     21  H   UNL     1       2.597  34.457  43.773  1.00  0.00     0.167 HD
ENDBRANCH   8  11
ENDBRANCH   1   7
BRANCH   4  22
ATOM     22  C   UNL     1       4.398  44.796  51.287  1.00  0.00     0.253 C 
ATOM     23  O   UNL     1       3.494  45.496  50.754  1.00  0.00    -0.269 OA
BRANCH  22  24
ATOM     24  C   UNL     1       5.294  45.424  52.277  1.00  0.00     0.042 A 
ATOM     25  C   UNL     1       4.772  45.858  53.524  1.00  0.00     0.016 A 
ATOM     26  C   UNL     1       6.677  45.553  52.013  1.00  0.00     0.042 A 
ATOM     27  C   UNL     1       5.611  46.450  54.487  1.00  0.00     0.031 A 
ATOM     28  C   UNL     1       7.479  46.138  52.995  1.00  0.00     0.070 A 
ATOM     29  C   UNL     1       6.962  46.577  54.181  1.00  0.00     0.091 A 
ATOM     30  N   UNL     1       8.801  46.381  52.981  1.00  0.00    -0.314 N 
ATOM     31  N   UNL     1       7.924  47.127  54.945  1.00  0.00    -0.213 NA
ATOM     32  C   UNL     1       9.032  46.996  54.172  1.00  0.00     0.200 A 
ATOM     33  C   UNL     1       9.750  46.158  51.890  1.00  0.00     0.153 C 
BRANCH  32  34
ATOM     34  N   UNL     1      10.308  47.496  54.575  1.00  0.00    -0.369 N 
ATOM     35  H   UNL     1      11.091  47.603  53.895  1.00  0.00     0.159 HD
ATOM     36  H   UNL     1      10.464  47.782  55.566  1.00  0.00     0.159 HD
ENDBRANCH  32  34
ENDBRANCH  22  24
ENDBRANCH   4  22
TORSDOF 5
ENDMDL
MODEL 5
REMARK VINA RESULT:    -8.534      7.105     10.654
REMARK INTER + INTRA:         -11.545
REMARK INTER:                 -10.867
REMARK INTRA:                  -0.678
REMARK UNBOUND:                -0.766
REMARK SMILES Cc1c[nH]c2ncc(C(=O)N[C@H]3[C@@H]4CN(C(=O)c5ccc6nc(N)n(C)c6c5)C[C@@H]43)cc12
REMARK SMILES IDX 12 1 13 2 14 3 15 4 29 5 30 6 11 7 9 8 10 9 8 11 2 12 3 13
REMARK SMILES IDX 32 14 4 15 31 16 5 17 6 18 7 19 1 20 16 22 17 23 18 24 19 25
REMARK SMILES IDX 28 26 20 27 27 28 21 29 25 30 22 31 23 32 26 33 24 34
REMARK H PARENT 11 10 4 21 24 35 24 36
ROOT
ATOM      1  C   UNL     1       4.980  42.760  49.669  1.00  0.00     0.093 C 
ATOM      2  C   UNL     1       5.767  41.641  48.998  1.00  0.00     0.038 C 
ATOM      3  C   UNL     1       5.244  41.187  47.644  1.00  0.00     0.126 C 
ATOM      4  N   UNL     1       3.932  40.607  47.887  1.00  0.00    -0.338 N 
ATOM      5  C   UNL     1       3.546  40.647  49.291  1.00  0.00     0.126 C 
ATOM      6  C   UNL     1       4.699  41.309  50.032  1.00  0.00     0.038 C 
ENDROOT
BRANCH   1   7
ATOM      7  N   UNL     1       5.755  43.471  50.679  1.00  0.00    -0.349 N 
ATOM      8  C   UNL     1       5.335  44.752  51.173  1.00  0.00     0.253 C 
ATOM      9  O   UNL     1       4.222  45.223  50.811  1.00  0.00    -0.269 OA
ATOM     10  H   UNL     1       6.543  42.965  51.139  1.00  0.00     0.164 HD
BRANCH   8  11
ATOM     11  C   UNL     1       6.182  45.526  52.112  1.00  0.00     0.058 A 
ATOM     12  C   UNL     1       9.644  46.703  52.918  1.00  0.00    -0.024 A 
ATOM     13  C   UNL     1       9.772  47.514  54.044  1.00  0.00     0.088 A 
ATOM     14  C   UNL     1       8.304  46.390  52.832  1.00  0.00     0.022 A 
ATOM     15  N   UNL     1       8.567  47.692  54.636  1.00  0.00    -0.346 N 
ATOM     16  C   UNL     1       7.578  45.641  51.911  1.00  0.00     0.027 A 
ATOM     17  C   UNL     1       7.692  47.003  53.885  1.00  0.00     0.137 A 
ATOM     18  N   UNL     1       6.355  46.919  54.091  1.00  0.00    -0.238 NA
ATOM     19  C   UNL     1       5.592  46.193  53.221  1.00  0.00     0.127 A 
ATOM     20  C   UNL     1      10.729  46.305  51.970  1.00  0.00     0.047 C 
ATOM     21  H   UNL     1       8.362  48.257  55.489  1.00  0.00     0.167 HD
ENDBRANCH   8  11
ENDBRANCH   1   7
BRANCH   4  22
ATOM     22  C   UNL     1       3.027  40.271  46.820  1.00  0.00     0.253 C 
ATOM     23  O   UNL     1       2.247  41.153  46.368  1.00  0.00    -0.269 OA
BRANCH  22  24
ATOM     24  C   UNL     1       2.976  38.913  46.245  1.00  0.00     0.042 A 
ATOM     25  C   UNL     1       2.065  37.959  46.769  1.00  0.00     0.016 A 
ATOM     26  C   UNL     1       3.795  38.569  45.145  1.00  0.00     0.042 A 
ATOM     27  C   UNL     1       1.993  36.662  46.228  1.00  0.00     0.031 A 
ATOM     28  C   UNL     1       3.691  37.275  44.631  1.00  0.00     0.070 A 
ATOM     29  C   UNL     1       2.829  36.356  45.159  1.00  0.00     0.091 A 
ATOM     30  N   UNL     1       4.358  36.707  43.611  1.00  0.00    -0.314 N 
ATOM     31  N   UNL     1       2.933  35.179  44.515  1.00  0.00    -0.213 NA
ATOM     32  C   UNL     1       3.885  35.432  43.581  1.00  0.00     0.200 A 
ATOM     33  C   UNL     1       5.436  37.281  42.805  1.00  0.00     0.153 C 
BRANCH  32  34
ATOM     34  N   UNL     1       4.358  34.429  42.682  1.00  0.00    -0.369 N 
ATOM     35  H   UNL     1       4.886  34.677  41.817  1.00  0.00     0.159 HD
ATOM     36  H   UNL     1       4.192  33.421  42.894  1.00  0.00     0.159 HD
ENDBRANCH  32  34
ENDBRANCH  22  24
ENDBRANCH   4  22
TORSDOF 5
ENDMDL
