MODEL 1
REMARK VINA RESULT:    -7.691      0.000      0.000
REMARK INTER + INTRA:         -10.574
REMARK INTER:                  -9.939
REMARK INTRA:                  -0.635
REMARK UNBOUND:                -0.635
REMARK SMILES CC1(CC(=O)NCc2ccc(-n3cncn3)cc2)OCCO1
REMARK SMILES IDX 4 1 5 2 6 3 3 5 2 6 19 7 22 8 20 9 21 10 1 11 7 12 8 13 9 14
REMARK SMILES IDX 18 15 10 16 17 17 11 18 12 19 13 20 16 21 14 22 15 23
REMARK H PARENT 6 4
ROOT
ATOM      1  C   UNL     1       8.942  46.108  51.250  1.00  0.00     0.225 C 
ATOM      2  O   UNL     1       9.859  45.281  50.999  1.00  0.00    -0.275 OA
ATOM      3  N   UNL     1       7.627  45.916  50.707  1.00  0.00    -0.352 N 
ATOM      4  H   UNL     1       6.902  46.655  50.856  1.00  0.00     0.163 HD
ENDROOT
BRANCH   1   5
ATOM      5  C   UNL     1       9.224  47.275  52.153  1.00  0.00     0.165 C 
BRANCH   5   6
ATOM      6  C   UNL     1       8.766  47.023  53.606  1.00  0.00     0.174 C 
ATOM      7  O   UNL     1       7.749  47.945  53.943  1.00  0.00    -0.347 OA
ATOM      8  O   UNL     1       8.295  45.694  53.698  1.00  0.00    -0.347 OA
ATOM      9  C   UNL     1       6.670  47.186  54.385  1.00  0.00     0.192 C 
ATOM     10  C   UNL     1       6.925  45.786  53.922  1.00  0.00     0.192 C 
ATOM     11  C   UNL     1       9.931  47.187  54.591  1.00  0.00     0.076 C 
ENDBRANCH   5   6
ENDBRANCH   1   5
BRANCH   3  12
ATOM     12  C   UNL     1       7.228  44.678  50.045  1.00  0.00     0.151 C 
BRANCH  12  13
ATOM     13  C   UNL     1       5.842  44.287  50.483  1.00  0.00    -0.029 A 
ATOM     14  C   UNL     1       4.914  45.276  50.835  1.00  0.00     0.008 A 
ATOM     15  C   UNL     1       5.486  42.936  50.603  1.00  0.00     0.008 A 
ATOM     16  C   UNL     1       3.643  44.922  51.294  1.00  0.00     0.029 A 
ATOM     17  C   UNL     1       4.215  42.580  51.060  1.00  0.00     0.029 A 
ATOM     18  C   UNL     1       3.277  43.567  51.416  1.00  0.00     0.066 A 
BRANCH  18  19
ATOM     19  N   UNL     1       1.970  43.181  51.892  1.00  0.00    -0.221 N 
ATOM     20  C   UNL     1       0.802  43.185  51.220  1.00  0.00     0.225 A 
ATOM     21  N   UNL     1       1.725  42.756  53.120  1.00  0.00    -0.155 NA
ATOM     22  N   UNL     1      -0.214  42.764  51.997  1.00  0.00    -0.223 NA
ATOM     23  C   UNL     1       0.404  42.506  53.169  1.00  0.00     0.246 A 
ENDBRANCH  18  19
ENDBRANCH  12  13
ENDBRANCH   3  12
TORSDOF 5
ENDMDL
MODEL 2
REMARK VINA RESULT:    -7.588      3.710      7.584
REMARK INTER + INTRA:         -10.441
REMARK INTER:                  -9.628
REMARK INTRA:                  -0.813
REMARK UNBOUND:                -0.635
REMARK SMILES CC1(CC(=O)NCc2ccc(-n3cncn3)cc2)OCCO1
REMARK SMILES IDX 4 1 5 2 6 3 3 5 2 6 19 7 22 8 20 9 21 10 1 11 7 12 8 13 9 14
REMARK SMILES IDX 18 15 10 16 17 17 11 18 12 19 13 20 16 21 14 22 15 23
REMARK H PARENT 6 4
ROOT
ATOM      1  C   UNL     1       1.128  44.560  51.703  1.00  0.00     0.225 C 
ATOM      2  O   UNL     1       1.261  43.672  50.819  1.00  0.00    -0.275 OA
ATOM      3  N   UNL     1       2.089  45.620  51.814  1.00  0.00    -0.352 N 
ATOM      4  H   UNL     1       2.010  46.299  52.604  1.00  0.00     0.163 HD
ENDROOT
BRANCH   1   5
ATOM      5  C   UNL     1      -0.065  44.523  52.616  1.00  0.00     0.165 C 
BRANCH   5   6
ATOM      6  C   UNL     1       0.242  43.832  53.963  1.00  0.00     0.174 C 
ATOM      7  O   UNL     1       1.542  44.191  54.388  1.00  0.00    -0.347 OA
ATOM      8  O   UNL     1      -0.730  44.241  54.902  1.00  0.00    -0.347 OA
ATOM      9  C   UNL     1       1.399  44.708  55.673  1.00  0.00     0.192 C 
ATOM     10  C   UNL     1      -0.056  45.019  55.839  1.00  0.00     0.192 C 
ATOM     11  C   UNL     1       0.168  42.304  53.831  1.00  0.00     0.076 C 
ENDBRANCH   5   6
ENDBRANCH   1   5
BRANCH   3  12
ATOM     12  C   UNL     1       3.114  45.854  50.800  1.00  0.00     0.151 C 
BRANCH  12  13
ATOM     13  C   UNL     1       4.420  46.200  51.463  1.00  0.00    -0.029 A 
ATOM     14  C   UNL     1       5.627  45.741  50.916  1.00  0.00     0.008 A 
ATOM     15  C   UNL     1       4.441  46.927  52.662  1.00  0.00     0.008 A 
ATOM     16  C   UNL     1       6.840  46.012  51.554  1.00  0.00     0.029 A 
ATOM     17  C   UNL     1       5.654  47.199  53.300  1.00  0.00     0.029 A 
ATOM     18  C   UNL     1       6.869  46.743  52.758  1.00  0.00     0.066 A 
BRANCH  18  19
ATOM     19  N   UNL     1       8.113  47.029  53.434  1.00  0.00    -0.221 N 
ATOM     20  C   UNL     1       9.369  46.791  53.007  1.00  0.00     0.225 A 
ATOM     21  N   UNL     1       8.194  47.584  54.631  1.00  0.00    -0.155 NA
ATOM     22  N   UNL     1      10.279  47.188  53.916  1.00  0.00    -0.223 NA
ATOM     23  C   UNL     1       9.507  47.676  54.909  1.00  0.00     0.246 A 
ENDBRANCH  18  19
ENDBRANCH  12  13
ENDBRANCH   3  12
TORSDOF 5
ENDMDL
MODEL 3
REMARK VINA RESULT:    -7.538      3.671      7.433
REMARK INTER + INTRA:         -10.377
REMARK INTER:                  -9.439
REMARK INTRA:                  -0.937
REMARK UNBOUND:                -0.635
REMARK SMILES CC1(CC(=O)NCc2ccc(-n3cncn3)cc2)OCCO1
REMARK SMILES IDX 4 1 5 2 6 3 3 5 2 6 19 7 22 8 20 9 21 10 1 11 7 12 8 13 9 14
REMARK SMILES IDX 18 15 10 16 17 17 11 18 12 19 13 20 16 21 14 22 15 23
REMARK H PARENT 6 4
ROOT
ATOM      1  C   UNL     1       1.468  42.986  51.944  1.00  0.00     0.225 C 
ATOM      2  O   UNL     1       1.062  43.020  50.752  1.00  0.00    -0.275 OA
ATOM      3  N   UNL     1       2.871  43.078  52.234  1.00  0.00    -0.352 N 
ATOM      4  H   UNL     1       3.195  42.964  53.221  1.00  0.00     0.163 HD
ENDROOT
BRANCH   1   5
ATOM      5  C   UNL     1       0.470  42.888  53.063  1.00  0.00     0.165 C 
BRANCH   5   6
ATOM      6  C   UNL     1       0.098  44.268  53.647  1.00  0.00     0.174 C 
ATOM      7  O   UNL     1      -0.269  44.119  55.004  1.00  0.00    -0.347 OA
ATOM      8  O   UNL     1       1.216  45.121  53.514  1.00  0.00    -0.347 OA
ATOM      9  C   UNL     1       0.540  44.997  55.721  1.00  0.00     0.192 C 
ATOM     10  C   UNL     1       1.666  45.369  54.808  1.00  0.00     0.192 C 
ATOM     11  C   UNL     1      -1.076  44.895  52.882  1.00  0.00     0.076 C 
ENDBRANCH   5   6
ENDBRANCH   1   5
BRANCH   3  12
ATOM     12  C   UNL     1       3.857  43.434  51.218  1.00  0.00     0.151 C 
BRANCH  12  13
ATOM     13  C   UNL     1       4.936  44.287  51.828  1.00  0.00    -0.029 A 
ATOM     14  C   UNL     1       5.907  44.880  51.009  1.00  0.00     0.008 A 
ATOM     15  C   UNL     1       5.020  44.445  53.218  1.00  0.00     0.008 A 
ATOM     16  C   UNL     1       6.945  45.629  51.571  1.00  0.00     0.029 A 
ATOM     17  C   UNL     1       6.055  45.195  53.781  1.00  0.00     0.029 A 
ATOM     18  C   UNL     1       7.034  45.794  52.967  1.00  0.00     0.066 A 
BRANCH  18  19
ATOM     19  N   UNL     1       8.100  46.561  53.566  1.00  0.00    -0.221 N 
ATOM     20  C   UNL     1       9.392  46.632  53.188  1.00  0.00     0.225 A 
ATOM     21  N   UNL     1       7.950  47.331  54.630  1.00  0.00    -0.155 NA
ATOM     22  N   UNL     1      10.096  47.448  53.995  1.00  0.00    -0.223 NA
ATOM     23  C   UNL     1       9.162  47.862  54.877  1.00  0.00     0.246 A 
ENDBRANCH  18  19
ENDBRANCH  12  13
ENDBRANCH   3  12
TORSDOF 5
ENDMDL
MODEL 4
REMARK VINA RESULT:    -7.320      2.394      3.487
REMARK INTER + INTRA:         -10.095
REMARK INTER:                  -9.224
REMARK INTRA:                  -0.870
REMARK UNBOUND:                -0.635
REMARK SMILES CC1(CC(=O)NCc2ccc(-n3cncn3)cc2)OCCO1
REMARK SMILES IDX 4 1 5 2 6 3 3 5 2 6 19 7 22 8 20 9 21 10 1 11 7 12 8 13 9 14
REMARK SMILES IDX 18 15 10 16 17 17 11 18 12 19 13 20 16 21 14 22 15 23
REMARK H PARENT 6 4
ROOT
ATOM      1  C   UNL     1       6.341  46.042  53.292  1.00  0.00     0.225 C 
ATOM      2  O   UNL     1       6.302  45.103  54.133  1.00  0.00    -0.275 OA
ATOM      3  N   UNL     1       5.305  47.034  53.265  1.00  0.00    -0.352 N 
ATOM      4  H   UNL     1       5.310  47.755  52.509  1.00  0.00     0.163 HD
ENDROOT
BRANCH   1   5
ATOM      5  C   UNL     1       7.503  46.136  52.343  1.00  0.00     0.165 C 
BRANCH   5   6
ATOM      6  C   UNL     1       8.435  47.324  52.667  1.00  0.00     0.174 C 
ATOM      7  O   UNL     1       8.049  47.900  53.899  1.00  0.00    -0.347 OA
ATOM      8  O   UNL     1       9.762  46.843  52.726  1.00  0.00    -0.347 OA
ATOM      9  C   UNL     1       9.190  47.907  54.696  1.00  0.00     0.192 C 
ATOM     10  C   UNL     1      10.154  46.956  54.056  1.00  0.00     0.192 C 
ATOM     11  C   UNL     1       8.364  48.398  51.573  1.00  0.00     0.076 C 
ENDBRANCH   5   6
ENDBRANCH   1   5
BRANCH   3  12
ATOM     12  C   UNL     1       4.300  47.142  54.319  1.00  0.00     0.151 C 
BRANCH  12  13
ATOM     13  C   UNL     1       3.110  46.285  53.982  1.00  0.00    -0.029 A 
ATOM     14  C   UNL     1       2.707  45.269  54.860  1.00  0.00     0.008 A 
ATOM     15  C   UNL     1       2.434  46.449  52.765  1.00  0.00     0.008 A 
ATOM     16  C   UNL     1       1.638  44.432  54.530  1.00  0.00     0.029 A 
ATOM     17  C   UNL     1       1.363  45.615  52.435  1.00  0.00     0.029 A 
ATOM     18  C   UNL     1       0.952  44.593  53.310  1.00  0.00     0.066 A 
BRANCH  18  19
ATOM     19  N   UNL     1      -0.153  43.736  52.950  1.00  0.00    -0.221 N 
ATOM     20  C   UNL     1      -0.152  42.399  52.782  1.00  0.00     0.225 A 
ATOM     21  N   UNL     1      -1.379  44.170  52.715  1.00  0.00    -0.155 NA
ATOM     22  N   UNL     1      -1.373  41.947  52.439  1.00  0.00    -0.223 NA
ATOM     23  C   UNL     1      -2.106  43.079  52.409  1.00  0.00     0.246 A 
ENDBRANCH  18  19
ENDBRANCH  12  13
ENDBRANCH   3  12
TORSDOF 5
ENDMDL
MODEL 5
REMARK VINA RESULT:    -7.304      3.686      7.904
REMARK INTER + INTRA:         -10.074
REMARK INTER:                  -9.305
REMARK INTRA:                  -0.769
REMARK UNBOUND:                -0.635
REMARK SMILES CC1(CC(=O)NCc2ccc(-n3cncn3)cc2)OCCO1
REMARK SMILES IDX 4 1 5 2 6 3 3 5 2 6 19 7 22 8 20 9 21 10 1 11 7 12 8 13 9 14
REMARK SMILES IDX 18 15 10 16 17 17 11 18 12 19 13 20 16 21 14 22 15 23
REMARK H PARENT 6 4
ROOT
ATOM      1  C   UNL     1       1.781  44.052  53.039  1.00  0.00     0.225 C 
ATOM      2  O   UNL     1       2.390  43.087  52.504  1.00  0.00    -0.275 OA
ATOM      3  N   UNL     1       1.936  45.382  52.520  1.00  0.00    -0.352 N 
ATOM      4  H   UNL     1       1.491  46.180  53.027  1.00  0.00     0.163 HD
ENDROOT
BRANCH   1   5
ATOM      5  C   UNL     1       0.862  43.795  54.200  1.00  0.00     0.165 C 
BRANCH   5   6
ATOM      6  C   UNL     1      -0.627  43.814  53.791  1.00  0.00     0.174 C 
ATOM      7  O   UNL     1      -0.816  44.758  52.756  1.00  0.00    -0.347 OA
ATOM      8  O   UNL     1      -0.985  42.516  53.365  1.00  0.00    -0.347 OA
ATOM      9  C   UNL     1      -1.431  44.070  51.713  1.00  0.00     0.192 C 
ATOM     10  C   UNL     1      -1.234  42.614  51.999  1.00  0.00     0.192 C 
ATOM     11  C   UNL     1      -1.523  44.193  54.978  1.00  0.00     0.076 C 
ENDBRANCH   5   6
ENDBRANCH   1   5
BRANCH   3  12
ATOM     12  C   UNL     1       2.601  45.652  51.249  1.00  0.00     0.151 C 
BRANCH  12  13
ATOM     13  C   UNL     1       4.068  45.895  51.481  1.00  0.00    -0.029 A 
ATOM     14  C   UNL     1       5.021  45.191  50.732  1.00  0.00     0.008 A 
ATOM     15  C   UNL     1       4.496  46.775  52.484  1.00  0.00     0.008 A 
ATOM     16  C   UNL     1       6.385  45.369  50.977  1.00  0.00     0.029 A 
ATOM     17  C   UNL     1       5.859  46.956  52.729  1.00  0.00     0.029 A 
ATOM     18  C   UNL     1       6.823  46.254  51.982  1.00  0.00     0.066 A 
BRANCH  18  19
ATOM     19  N   UNL     1       8.228  46.449  52.253  1.00  0.00    -0.221 N 
ATOM     20  C   UNL     1       8.797  47.061  53.310  1.00  0.00     0.225 A 
ATOM     21  N   UNL     1       9.198  46.040  51.453  1.00  0.00    -0.155 NA
ATOM     22  N   UNL     1      10.140  47.057  53.214  1.00  0.00    -0.223 NA
ATOM     23  C   UNL     1      10.348  46.412  52.047  1.00  0.00     0.246 A 
ENDBRANCH  18  19
ENDBRANCH  12  13
ENDBRANCH   3  12
TORSDOF 5
ENDMDL
