ligand_76_conformer_5_docked
     RDKit          3D

 39 40  0  0  0  0  0  0  0  0999 V2000
   10.7390   47.5300   55.8220 C   0  0  0  0  0  0  0  0  0  0  0  0
    9.5400   48.3040   55.2690 C   0  0  0  0  0  0  0  0  0  0  0  0
    8.8530   47.6180   54.0560 C   0  0  2  0  0  0  0  0  0  0  0  0
    9.8870   46.8310   53.2180 C   0  0  0  0  0  0  0  0  0  0  0  0
    8.2730   48.6220   53.2550 O   0  0  0  0  0  0  0  0  0  0  0  0
    7.7210   46.6730   54.5520 C   0  0  0  0  0  0  0  0  0  0  0  0
    6.4420   46.7970   53.7730 C   0  0  0  0  0  0  0  0  0  0  0  0
    6.0510   46.0260   52.7000 C   0  0  0  0  0  0  0  0  0  0  0  0
    4.8610   46.5120   52.3120 N   0  0  0  0  0  0  0  0  0  0  0  0
    4.0070   45.9860   51.2530 C   0  0  0  0  0  0  0  0  0  0  0  0
    4.1210   44.4870   51.2010 C   0  0  0  0  0  0  0  0  0  0  0  0
    5.0860   43.8850   50.3820 C   0  0  0  0  0  0  0  0  0  0  0  0
    5.2150   42.4880   50.3700 C   0  0  0  0  0  0  0  0  0  0  0  0
    6.2420   41.8280   49.4980 C   0  0  0  0  0  0  0  0  0  0  0  0
    7.1520   41.1230   50.2660 F   0  0  0  0  0  0  0  0  0  0  0  0
    6.9190   42.7890   48.7710 F   0  0  0  0  0  0  0  0  0  0  0  0
    5.6190   40.9520   48.6270 F   0  0  0  0  0  0  0  0  0  0  0  0
    4.4090   41.7320   51.1680 N   0  0  0  0  0  0  0  0  0  0  0  0
    3.4750   42.2910   51.9820 C   0  0  0  0  0  0  0  0  0  0  0  0
    3.3180   43.6780   52.0200 C   0  0  0  0  0  0  0  0  0  0  0  0
    2.3930   44.2250   52.8500 F   0  0  0  0  0  0  0  0  0  0  0  0
    4.5310   47.5150   53.1120 N   0  0  0  0  0  0  0  0  0  0  0  0
    5.4840   47.7170   54.0100 N   0  0  0  0  0  0  0  0  0  0  0  0
   10.7114   47.5478   56.9215 H   0  0  0  0  0  0  0  0  0  0  0  0
   10.6965   46.4884   55.4710 H   0  0  0  0  0  0  0  0  0  0  0  0
   11.6708   47.9975   55.4710 H   0  0  0  0  0  0  0  0  0  0  0  0
    8.7967   48.4117   56.0727 H   0  0  0  0  0  0  0  0  0  0  0  0
    9.9215   49.2727   54.9140 H   0  0  0  0  0  0  0  0  0  0  0  0
   10.5795   46.3040   53.8908 H   0  0  0  0  0  0  0  0  0  0  0  0
    9.3646   46.0999   52.5835 H   0  0  0  0  0  0  0  0  0  0  0  0
   10.4525   47.5293   52.5835 H   0  0  0  0  0  0  0  0  0  0  0  0
    7.2910   48.6060   53.4020 H   0  0  0  0  0  0  0  0  0  0  0  0
    8.0762   45.6350   54.4724 H   0  0  0  0  0  0  0  0  0  0  0  0
    7.4938   46.9622   55.5887 H   0  0  0  0  0  0  0  0  0  0  0  0
    6.6010   45.1848   52.2529 H   0  0  0  0  0  0  0  0  0  0  0  0
    2.9623   46.2657   51.4541 H   0  0  0  0  0  0  0  0  0  0  0  0
    4.3253   46.4073   50.2880 H   0  0  0  0  0  0  0  0  0  0  0  0
    5.7396   44.5053   49.7512 H   0  0  0  0  0  0  0  0  0  0  0  0
    2.8415   41.6495   52.6121 H   0  0  0  0  0  0  0  0  0  0  0  0
  1  2  1  0
  2  3  1  0
  3  4  1  0
  3  5  1  6
  3  6  1  0
  6  7  1  0
  7  8  2  0
  8  9  1  0
  9 10  1  0
 10 11  1  0
 11 12  2  0
 12 13  1  0
 13 14  1  0
 14 15  1  0
 14 16  1  0
 14 17  1  0
 13 18  2  0
 18 19  1  0
 19 20  2  0
 20 21  1  0
  9 22  1  0
 22 23  2  0
 23  7  1  0
 20 11  1  0
  1 24  1  0
  1 25  1  0
  1 26  1  0
  2 27  1  0
  2 28  1  0
  4 29  1  0
  4 30  1  0
  4 31  1  0
  5 32  1  0
  6 33  1  0
  6 34  1  0
  8 35  1  0
 10 36  1  0
 10 37  1  0
 12 38  1  0
 19 39  1  0
M  END
>  <meeko>  (1) 
{"is_sidechain": [false], "free_energy": -8.319, "intermolecular_energy": -11.48, "internal_energy": -0.741}

$$$$
ligand_76_conformer_5_docked
     RDKit          3D

 39 40  0  0  0  0  0  0  0  0999 V2000
   10.1930   47.4650   55.3030 C   0  0  0  0  0  0  0  0  0  0  0  0
   10.2490   47.0700   53.8250 C   0  0  0  0  0  0  0  0  0  0  0  0
    8.9030   47.2570   53.0730 C   0  0  2  0  0  0  0  0  0  0  0  0
    9.0960   47.0520   51.5520 C   0  0  0  0  0  0  0  0  0  0  0  0
    8.4480   48.5690   53.3100 O   0  0  0  0  0  0  0  0  0  0  0  0
    7.8420   46.2630   53.6270 C   0  0  0  0  0  0  0  0  0  0  0  0
    6.4590   46.8420   53.7210 C   0  0  0  0  0  0  0  0  0  0  0  0
    5.4970   46.8460   52.7350 C   0  0  0  0  0  0  0  0  0  0  0  0
    4.4400   47.4900   53.2550 N   0  0  0  0  0  0  0  0  0  0  0  0
    3.1430   47.6950   52.6190 C   0  0  0  0  0  0  0  0  0  0  0  0
    2.4580   46.3720   52.4180 C   0  0  0  0  0  0  0  0  0  0  0  0
    1.6260   45.8530   53.4200 C   0  0  0  0  0  0  0  0  0  0  0  0
    0.9560   44.6380   53.2090 C   0  0  0  0  0  0  0  0  0  0  0  0
    0.0640   44.0700   54.2720 C   0  0  0  0  0  0  0  0  0  0  0  0
   -0.1130   42.7110   54.0840 F   0  0  0  0  0  0  0  0  0  0  0  0
   -1.1700   44.6930   54.2250 F   0  0  0  0  0  0  0  0  0  0  0  0
    0.6310   44.2790   55.5170 F   0  0  0  0  0  0  0  0  0  0  0  0
    1.1120   43.9820   52.0250 N   0  0  0  0  0  0  0  0  0  0  0  0
    1.9010   44.4690   51.0320 C   0  0  0  0  0  0  0  0  0  0  0  0
    2.5830   45.6750   51.2050 C   0  0  0  0  0  0  0  0  0  0  0  0
    3.3540   46.1590   50.1980 F   0  0  0  0  0  0  0  0  0  0  0  0
    4.7300   47.8470   54.4970 N   0  0  0  0  0  0  0  0  0  0  0  0
    5.9620   47.4700   54.8060 N   0  0  0  0  0  0  0  0  0  0  0  0
   10.3201   46.5683   55.9273 H   0  0  0  0  0  0  0  0  0  0  0  0
   10.9986   48.1814   55.5219 H   0  0  0  0  0  0  0  0  0  0  0  0
    9.2201   47.9292   55.5219 H   0  0  0  0  0  0  0  0  0  0  0  0
   11.0116   47.6889   53.3296 H   0  0  0  0  0  0  0  0  0  0  0  0
   10.4884   45.9969   53.7898 H   0  0  0  0  0  0  0  0  0  0  0  0
    9.8408   46.2609   51.3802 H   0  0  0  0  0  0  0  0  0  0  0  0
    8.1383   46.7590   51.0971 H   0  0  0  0  0  0  0  0  0  0  0  0
    9.4462   47.9903   51.0971 H   0  0  0  0  0  0  0  0  0  0  0  0
    9.2350   49.1350   53.5280 H   0  0  0  0  0  0  0  0  0  0  0  0
    7.8068   45.3873   52.9622 H   0  0  0  0  0  0  0  0  0  0  0  0
    8.1505   46.0029   54.6503 H   0  0  0  0  0  0  0  0  0  0  0  0
    5.5782   46.4108   51.7280 H   0  0  0  0  0  0  0  0  0  0  0  0
    2.5193   48.3352   53.2602 H   0  0  0  0  0  0  0  0  0  0  0  0
    3.2906   48.1790   51.6423 H   0  0  0  0  0  0  0  0  0  0  0  0
    1.4988   46.3961   54.3681 H   0  0  0  0  0  0  0  0  0  0  0  0
    2.0028   43.9117   50.0891 H   0  0  0  0  0  0  0  0  0  0  0  0
  1  2  1  0
  2  3  1  0
  3  4  1  0
  3  5  1  6
  3  6  1  0
  6  7  1  0
  7  8  2  0
  8  9  1  0
  9 10  1  0
 10 11  1  0
 11 12  2  0
 12 13  1  0
 13 14  1  0
 14 15  1  0
 14 16  1  0
 14 17  1  0
 13 18  2  0
 18 19  1  0
 19 20  2  0
 20 21  1  0
  9 22  1  0
 22 23  2  0
 23  7  1  0
 20 11  1  0
  1 24  1  0
  1 25  1  0
  1 26  1  0
  2 27  1  0
  2 28  1  0
  4 29  1  0
  4 30  1  0
  4 31  1  0
  5 32  1  0
  6 33  1  0
  6 34  1  0
  8 35  1  0
 10 36  1  0
 10 37  1  0
 12 38  1  0
 19 39  1  0
M  END
>  <meeko>  (2) 
{"is_sidechain": [false], "free_energy": -8.039, "intermolecular_energy": -10.942, "internal_energy": -0.893}

$$$$
ligand_76_conformer_5_docked
     RDKit          3D

 39 40  0  0  0  0  0  0  0  0999 V2000
    1.2540   44.4260   54.8080 C   0  0  0  0  0  0  0  0  0  0  0  0
    0.3950   44.1430   53.5720 C   0  0  0  0  0  0  0  0  0  0  0  0
    0.6820   42.7680   52.9080 C   0  0  2  0  0  0  0  0  0  0  0  0
   -0.6040   41.9120   52.8490 C   0  0  0  0  0  0  0  0  0  0  0  0
    1.6490   42.0990   53.6870 O   0  0  0  0  0  0  0  0  0  0  0  0
    1.2640   42.9780   51.4800 C   0  0  0  0  0  0  0  0  0  0  0  0
    2.6450   43.5690   51.4680 C   0  0  0  0  0  0  0  0  0  0  0  0
    2.9890   44.8560   51.1190 C   0  0  0  0  0  0  0  0  0  0  0  0
    4.3260   44.9230   51.2310 N   0  0  0  0  0  0  0  0  0  0  0  0
    5.1600   46.1030   51.0320 C   0  0  0  0  0  0  0  0  0  0  0  0
    5.9230   46.4080   52.2910 C   0  0  0  0  0  0  0  0  0  0  0  0
    7.3240   46.4730   52.2640 C   0  0  0  0  0  0  0  0  0  0  0  0
    8.0280   46.7990   53.4330 C   0  0  0  0  0  0  0  0  0  0  0  0
    9.5260   46.8710   53.4200 C   0  0  0  0  0  0  0  0  0  0  0  0
   10.0750   45.6390   53.7300 F   0  0  0  0  0  0  0  0  0  0  0  0
    9.9540   47.7990   54.3510 F   0  0  0  0  0  0  0  0  0  0  0  0
    9.9620   47.2530   52.1640 F   0  0  0  0  0  0  0  0  0  0  0  0
    7.3410   47.0620   54.5800 N   0  0  0  0  0  0  0  0  0  0  0  0
    5.9830   47.0200   54.6310 C   0  0  0  0  0  0  0  0  0  0  0  0
    5.2480   46.6990   53.4880 C   0  0  0  0  0  0  0  0  0  0  0  0
    3.8920   46.6770   53.5470 F   0  0  0  0  0  0  0  0  0  0  0  0
    4.7760   43.7480   51.6420 N   0  0  0  0  0  0  0  0  0  0  0  0
    3.7700   42.8970   51.7870 N   0  0  0  0  0  0  0  0  0  0  0  0
    0.6647   44.2319   55.7163 H   0  0  0  0  0  0  0  0  0  0  0  0
    2.1382   43.7717   54.7977 H   0  0  0  0  0  0  0  0  0  0  0  0
    1.5761   45.4777   54.7977 H   0  0  0  0  0  0  0  0  0  0  0  0
   -0.6630   44.1687   53.8721 H   0  0  0  0  0  0  0  0  0  0  0  0
    0.6415   44.9148   52.8280 H   0  0  0  0  0  0  0  0  0  0  0  0
   -0.9420   41.6870   53.8713 H   0  0  0  0  0  0  0  0  0  0  0  0
   -1.3902   42.4676   52.3168 H   0  0  0  0  0  0  0  0  0  0  0  0
   -0.3949   40.9723   52.3168 H   0  0  0  0  0  0  0  0  0  0  0  0
    1.4580   41.1250   53.6470 H   0  0  0  0  0  0  0  0  0  0  0  0
    1.3001   42.0022   50.9735 H   0  0  0  0  0  0  0  0  0  0  0  0
    0.6049   43.6946   50.9680 H   0  0  0  0  0  0  0  0  0  0  0  0
    2.3084   45.6636   50.8115 H   0  0  0  0  0  0  0  0  0  0  0  0
    5.8690   45.9146   50.2123 H   0  0  0  0  0  0  0  0  0  0  0  0
    4.5196   46.9610   50.7796 H   0  0  0  0  0  0  0  0  0  0  0  0
    7.8684   46.2692   51.3301 H   0  0  0  0  0  0  0  0  0  0  0  0
    5.4622   47.2394   55.5747 H   0  0  0  0  0  0  0  0  0  0  0  0
  1  2  1  0
  2  3  1  0
  3  4  1  0
  3  5  1  1
  3  6  1  0
  6  7  1  0
  7  8  2  0
  8  9  1  0
  9 10  1  0
 10 11  1  0
 11 12  2  0
 12 13  1  0
 13 14  1  0
 14 15  1  0
 14 16  1  0
 14 17  1  0
 13 18  2  0
 18 19  1  0
 19 20  2  0
 20 21  1  0
  9 22  1  0
 22 23  2  0
 23  7  1  0
 20 11  1  0
  1 24  1  0
  1 25  1  0
  1 26  1  0
  2 27  1  0
  2 28  1  0
  4 29  1  0
  4 30  1  0
  4 31  1  0
  5 32  1  0
  6 33  1  0
  6 34  1  0
  8 35  1  0
 10 36  1  0
 10 37  1  0
 12 38  1  0
 19 39  1  0
M  END
>  <meeko>  (3) 
{"is_sidechain": [false], "free_energy": -7.896, "intermolecular_energy": -10.715, "internal_energy": -0.923}

$$$$
ligand_76_conformer_5_docked
     RDKit          3D

 39 40  0  0  0  0  0  0  0  0999 V2000
   10.3490   46.2670   51.9860 C   0  0  0  0  0  0  0  0  0  0  0  0
    9.7150   47.1790   53.0400 C   0  0  0  0  0  0  0  0  0  0  0  0
    8.1720   47.3050   52.9160 C   0  0  2  0  0  0  0  0  0  0  0  0
    7.6410   46.3990   51.7820 C   0  0  0  0  0  0  0  0  0  0  0  0
    7.8650   48.6490   52.6190 O   0  0  0  0  0  0  0  0  0  0  0  0
    7.4980   46.9380   54.2690 C   0  0  0  0  0  0  0  0  0  0  0  0
    6.0160   46.7090   54.1670 C   0  0  0  0  0  0  0  0  0  0  0  0
    5.3410   45.5400   54.4400 C   0  0  0  0  0  0  0  0  0  0  0  0
    4.0470   45.7950   54.1850 N   0  0  0  0  0  0  0  0  0  0  0  0
    2.9230   44.8870   54.3870 C   0  0  0  0  0  0  0  0  0  0  0  0
    2.5570   44.2310   53.0840 C   0  0  0  0  0  0  0  0  0  0  0  0
    3.4360   43.3160   52.4870 C   0  0  0  0  0  0  0  0  0  0  0  0
    3.0690   42.6770   51.2930 C   0  0  0  0  0  0  0  0  0  0  0  0
    3.9990   41.6960   50.6430 C   0  0  0  0  0  0  0  0  0  0  0  0
    4.8790   42.3470   49.7960 F   0  0  0  0  0  0  0  0  0  0  0  0
    3.2690   40.7790   49.9100 F   0  0  0  0  0  0  0  0  0  0  0  0
    4.7250   41.0280   51.6130 F   0  0  0  0  0  0  0  0  0  0  0  0
    1.8560   42.9420   50.7340 N   0  0  0  0  0  0  0  0  0  0  0  0
    0.9800   43.8140   51.2980 C   0  0  0  0  0  0  0  0  0  0  0  0
    1.3090   44.4700   52.4860 C   0  0  0  0  0  0  0  0  0  0  0  0
    0.4170   45.3250   53.0490 F   0  0  0  0  0  0  0  0  0  0  0  0
    3.9320   47.0550   53.7940 N   0  0  0  0  0  0  0  0  0  0  0  0
    5.1230   47.6360   53.7660 N   0  0  0  0  0  0  0  0  0  0  0  0
   10.9083   45.4625   52.4859 H   0  0  0  0  0  0  0  0  0  0  0  0
    9.5596   45.8290   51.3575 H   0  0  0  0  0  0  0  0  0  0  0  0
   11.0345   46.8543   51.3575 H   0  0  0  0  0  0  0  0  0  0  0  0
    9.9507   46.7743   54.0353 H   0  0  0  0  0  0  0  0  0  0  0  0
   10.1314   48.1852   52.8842 H   0  0  0  0  0  0  0  0  0  0  0  0
    7.1303   45.5276   52.2176 H   0  0  0  0  0  0  0  0  0  0  0  0
    6.9325   46.9664   51.1606 H   0  0  0  0  0  0  0  0  0  0  0  0
    8.4823   46.0582   51.1606 H   0  0  0  0  0  0  0  0  0  0  0  0
    8.5450   48.9860   51.9760 H   0  0  0  0  0  0  0  0  0  0  0  0
    7.9654   46.0184   54.6509 H   0  0  0  0  0  0  0  0  0  0  0  0
    7.6437   47.7957   54.9421 H   0  0  0  0  0  0  0  0  0  0  0  0
    5.7728   44.5923   54.7941 H   0  0  0  0  0  0  0  0  0  0  0  0
    3.2043   44.1148   55.1182 H   0  0  0  0  0  0  0  0  0  0  0  0
    2.0595   45.4560   54.7621 H   0  0  0  0  0  0  0  0  0  0  0  0
    4.4089   43.1002   52.9527 H   0  0  0  0  0  0  0  0  0  0  0  0
    0.0089   44.0038   50.8175 H   0  0  0  0  0  0  0  0  0  0  0  0
  1  2  1  0
  2  3  1  0
  3  4  1  0
  3  5  1  6
  3  6  1  0
  6  7  1  0
  7  8  2  0
  8  9  1  0
  9 10  1  0
 10 11  1  0
 11 12  2  0
 12 13  1  0
 13 14  1  0
 14 15  1  0
 14 16  1  0
 14 17  1  0
 13 18  2  0
 18 19  1  0
 19 20  2  0
 20 21  1  0
  9 22  1  0
 22 23  2  0
 23  7  1  0
 20 11  1  0
  1 24  1  0
  1 25  1  0
  1 26  1  0
  2 27  1  0
  2 28  1  0
  4 29  1  0
  4 30  1  0
  4 31  1  0
  5 32  1  0
  6 33  1  0
  6 34  1  0
  8 35  1  0
 10 36  1  0
 10 37  1  0
 12 38  1  0
 19 39  1  0
M  END
>  <meeko>  (4) 
{"is_sidechain": [false], "free_energy": -7.849, "intermolecular_energy": -10.769, "internal_energy": -0.803}

$$$$
ligand_76_conformer_5_docked
     RDKit          3D

 39 40  0  0  0  0  0  0  0  0999 V2000
    2.6790   42.8110   51.1940 C   0  0  0  0  0  0  0  0  0  0  0  0
    2.3820   42.7100   52.6930 C   0  0  0  0  0  0  0  0  0  0  0  0
    0.9570   43.1900   53.0850 C   0  0  2  0  0  0  0  0  0  0  0  0
    0.0740   41.9900   53.4990 C   0  0  0  0  0  0  0  0  0  0  0  0
    0.3840   43.8230   51.9630 O   0  0  0  0  0  0  0  0  0  0  0  0
    1.0450   44.2280   54.2410 C   0  0  0  0  0  0  0  0  0  0  0  0
    2.3120   45.0360   54.2360 C   0  0  0  0  0  0  0  0  0  0  0  0
    2.6840   45.9810   53.3050 C   0  0  0  0  0  0  0  0  0  0  0  0
    3.8940   46.4190   53.6890 N   0  0  0  0  0  0  0  0  0  0  0  0
    4.6800   47.4740   53.0600 C   0  0  0  0  0  0  0  0  0  0  0  0
    5.8720   46.8790   52.3630 C   0  0  0  0  0  0  0  0  0  0  0  0
    7.1580   47.0690   52.8860 C   0  0  0  0  0  0  0  0  0  0  0  0
    8.2610   46.4760   52.2540 C   0  0  0  0  0  0  0  0  0  0  0  0
    9.6440   46.6710   52.8010 C   0  0  0  0  0  0  0  0  0  0  0  0
    9.9370   45.6980   53.7410 F   0  0  0  0  0  0  0  0  0  0  0  0
    9.7360   47.9130   53.4000 F   0  0  0  0  0  0  0  0  0  0  0  0
   10.5670   46.5920   51.7730 F   0  0  0  0  0  0  0  0  0  0  0  0
    8.0670   45.7080   51.1450 N   0  0  0  0  0  0  0  0  0  0  0  0
    6.8300   45.4960   50.6250 C   0  0  0  0  0  0  0  0  0  0  0  0
    5.7080   46.0700   51.2270 C   0  0  0  0  0  0  0  0  0  0  0  0
    4.4760   45.8360   50.7080 F   0  0  0  0  0  0  0  0  0  0  0  0
    4.2390   45.7900   54.8020 N   0  0  0  0  0  0  0  0  0  0  0  0
    3.2930   44.9310   55.1550 N   0  0  0  0  0  0  0  0  0  0  0  0
    3.7112   43.1620   51.0475 H   0  0  0  0  0  0  0  0  0  0  0  0
    2.5588   41.8214   50.7289 H   0  0  0  0  0  0  0  0  0  0  0  0
    1.9804   43.5221   50.7289 H   0  0  0  0  0  0  0  0  0  0  0  0
    2.4895   41.6585   52.9975 H   0  0  0  0  0  0  0  0  0  0  0  0
    3.0950   43.3725   53.2057 H   0  0  0  0  0  0  0  0  0  0  0  0
    0.0292   41.9291   54.5964 H   0  0  0  0  0  0  0  0  0  0  0  0
   -0.9411   42.1259   53.0976 H   0  0  0  0  0  0  0  0  0  0  0  0
    0.5057   41.0613   53.0976 H   0  0  0  0  0  0  0  0  0  0  0  0
    0.7310   43.3770   51.1460 H   0  0  0  0  0  0  0  0  0  0  0  0
    0.1932   44.9183   54.1527 H   0  0  0  0  0  0  0  0  0  0  0  0
    1.0311   43.6601   55.1830 H   0  0  0  0  0  0  0  0  0  0  0  0
    2.1080   46.3094   52.4272 H   0  0  0  0  0  0  0  0  0  0  0  0
    4.0561   48.0051   52.3261 H   0  0  0  0  0  0  0  0  0  0  0  0
    5.0261   48.1767   53.8323 H   0  0  0  0  0  0  0  0  0  0  0  0
    7.3020   47.6808   53.7887 H   0  0  0  0  0  0  0  0  0  0  0  0
    6.7118   44.8708   49.7277 H   0  0  0  0  0  0  0  0  0  0  0  0
  1  2  1  0
  2  3  1  0
  3  4  1  0
  3  5  1  6
  3  6  1  0
  6  7  1  0
  7  8  2  0
  8  9  1  0
  9 10  1  0
 10 11  1  0
 11 12  2  0
 12 13  1  0
 13 14  1  0
 14 15  1  0
 14 16  1  0
 14 17  1  0
 13 18  2  0
 18 19  1  0
 19 20  2  0
 20 21  1  0
  9 22  1  0
 22 23  2  0
 23  7  1  0
 20 11  1  0
  1 24  1  0
  1 25  1  0
  1 26  1  0
  2 27  1  0
  2 28  1  0
  4 29  1  0
  4 30  1  0
  4 31  1  0
  5 32  1  0
  6 33  1  0
  6 34  1  0
  8 35  1  0
 10 36  1  0
 10 37  1  0
 12 38  1  0
 19 39  1  0
M  END
>  <meeko>  (5) 
{"is_sidechain": [false], "free_energy": -7.49, "intermolecular_energy": -10.5, "internal_energy": -0.576}

$$$$
