ligand_64_conformer_2_docked
     RDKit          3D

 40 42  0  0  0  0  0  0  0  0999 V2000
    8.1230   47.4500   55.0510 O   0  0  0  0  0  0  0  0  0  0  0  0
    8.5470   47.1230   53.9090 C   0  0  0  0  0  0  0  0  0  0  0  0
    9.9560   47.3400   53.4680 C   0  0  0  0  0  0  0  0  0  0  0  0
   10.0170   46.6750   52.0800 C   0  0  0  0  0  0  0  0  0  0  0  0
    8.6300   46.1680   51.8630 C   0  0  0  0  0  0  0  0  0  0  0  0
    8.2690   45.5620   50.8190 O   0  0  0  0  0  0  0  0  0  0  0  0
    7.7530   46.4520   52.9410 N   0  0  0  0  0  0  0  0  0  0  0  0
    6.3850   46.0210   53.0620 C   0  0  0  0  0  0  0  0  0  0  0  0
    5.3550   46.6570   52.3490 C   0  0  0  0  0  0  0  0  0  0  0  0
    4.0420   46.2060   52.4900 C   0  0  0  0  0  0  0  0  0  0  0  0
    3.7580   45.1280   53.3330 C   0  0  0  0  0  0  0  0  0  0  0  0
    2.1020   44.5560   53.5130 S   0  0  0  0  0  0  0  0  0  0  0  0
    1.7450   44.5510   54.9720 O   0  0  0  0  0  0  0  0  0  0  0  0
    1.1580   45.4680   52.7790 O   0  0  0  0  0  0  0  0  0  0  0  0
    1.9570   42.9430   52.8820 N   0  0  0  0  0  0  0  0  0  0  0  0
    2.3030   42.9340   51.4580 C   0  0  0  0  0  0  0  0  0  0  0  0
    3.5950   42.1310   51.2280 C   0  0  1  0  0  0  0  0  0  0  0  0
    3.5120   41.1680   50.0760 C   0  0  0  0  0  0  0  0  0  0  0  0
    4.9460   41.1120   49.5830 C   0  0  0  0  0  0  0  0  0  0  0  0
    5.6440   42.2560   50.0220 O   0  0  0  0  0  0  0  0  0  0  0  0
    4.7690   43.0080   50.8300 C   0  0  0  0  0  0  0  0  0  0  0  0
    4.8110   44.5050   54.0130 C   0  0  0  0  0  0  0  0  0  0  0  0
    6.0830   44.9610   53.8620 N   0  0  0  0  0  0  0  0  0  0  0  0
   10.1829   48.4140   53.3976 H   0  0  0  0  0  0  0  0  0  0  0  0
   10.6899   46.9204   54.1718 H   0  0  0  0  0  0  0  0  0  0  0  0
   10.2912   47.4078   51.3068 H   0  0  0  0  0  0  0  0  0  0  0  0
   10.7733   45.8781   52.0245 H   0  0  0  0  0  0  0  0  0  0  0  0
    5.5818   47.5039   51.6847 H   0  0  0  0  0  0  0  0  0  0  0  0
    3.2293   46.6996   51.9369 H   0  0  0  0  0  0  0  0  0  0  0  0
    0.9500   42.6760   52.9760 H   0  0  0  0  0  0  0  0  0  0  0  0
    1.4828   42.4730   50.8881 H   0  0  0  0  0  0  0  0  0  0  0  0
    2.4602   43.9693   51.1212 H   0  0  0  0  0  0  0  0  0  0  0  0
    3.7292   41.6254   52.1957 H   0  0  0  0  0  0  0  0  0  0  0  0
    3.1688   40.1780   50.4107 H   0  0  0  0  0  0  0  0  0  0  0  0
    2.7958   41.4766   49.3002 H   0  0  0  0  0  0  0  0  0  0  0  0
    5.4346   40.2104   49.9809 H   0  0  0  0  0  0  0  0  0  0  0  0
    4.9525   41.0806   48.4835 H   0  0  0  0  0  0  0  0  0  0  0  0
    5.2990   43.3480   51.7320 H   0  0  0  0  0  0  0  0  0  0  0  0
    4.4081   43.8857   50.2738 H   0  0  0  0  0  0  0  0  0  0  0  0
    4.6093   43.6460   54.6699 H   0  0  0  0  0  0  0  0  0  0  0  0
  1  2  2  0
  2  3  1  0
  3  4  1  0
  4  5  1  0
  5  6  2  0
  5  7  1  0
  7  8  1  0
  8  9  2  0
  9 10  1  0
 10 11  2  0
 11 12  1  0
 12 13  2  0
 12 14  2  0
 12 15  1  0
 15 16  1  0
 16 17  1  0
 17 18  1  0
 18 19  1  0
 19 20  1  0
 20 21  1  0
 11 22  1  0
 22 23  2  0
  7  2  1  0
 23  8  1  0
 21 17  1  0
  3 24  1  0
  3 25  1  0
  4 26  1  0
  4 27  1  0
  9 28  1  0
 10 29  1  0
 15 30  1  0
 16 31  1  0
 16 32  1  0
 17 33  1  1
 18 34  1  0
 18 35  1  0
 19 36  1  0
 19 37  1  0
 21 38  1  0
 21 39  1  0
 22 40  1  0
M  END
>  <meeko>  (1) 
{"is_sidechain": [false], "free_energy": -8.317, "intermolecular_energy": -10.748, "internal_energy": -0.793}

$$$$
ligand_64_conformer_2_docked
     RDKit          3D

 40 42  0  0  0  0  0  0  0  0999 V2000
    8.4360   45.5820   50.8530 O   0  0  0  0  0  0  0  0  0  0  0  0
    8.7290   46.1400   51.9440 C   0  0  0  0  0  0  0  0  0  0  0  0
   10.0740   46.7200   52.2300 C   0  0  0  0  0  0  0  0  0  0  0  0
    9.9060   47.3870   53.6080 C   0  0  0  0  0  0  0  0  0  0  0  0
    8.4890   47.1000   53.9750 C   0  0  0  0  0  0  0  0  0  0  0  0
    7.9620   47.4780   55.0560 O   0  0  0  0  0  0  0  0  0  0  0  0
    7.7960   46.3420   52.9970 N   0  0  0  0  0  0  0  0  0  0  0  0
    6.4030   45.9830   53.0260 C   0  0  0  0  0  0  0  0  0  0  0  0
    5.9060   45.0710   53.9710 C   0  0  0  0  0  0  0  0  0  0  0  0
    4.5480   44.7520   53.9710 C   0  0  0  0  0  0  0  0  0  0  0  0
    3.6910   45.3400   53.0360 C   0  0  0  0  0  0  0  0  0  0  0  0
    1.9750   44.9400   53.0310 S   0  0  0  0  0  0  0  0  0  0  0  0
    1.5290   44.6900   54.4430 O   0  0  0  0  0  0  0  0  0  0  0  0
    1.1810   46.0820   52.4600 O   0  0  0  0  0  0  0  0  0  0  0  0
    1.7000   43.5110   52.0810 N   0  0  0  0  0  0  0  0  0  0  0  0
    2.8600   42.6200   52.1750 C   0  0  0  0  0  0  0  0  0  0  0  0
    3.5830   42.5410   50.8200 C   0  0  1  0  0  0  0  0  0  0  0  0
    5.0620   42.8000   50.9060 C   0  0  0  0  0  0  0  0  0  0  0  0
    5.6150   41.9650   49.7670 C   0  0  0  0  0  0  0  0  0  0  0  0
    4.6850   40.9630   49.4170 O   0  0  0  0  0  0  0  0  0  0  0  0
    3.5360   41.1510   50.2100 C   0  0  0  0  0  0  0  0  0  0  0  0
    4.2150   46.2590   52.1210 C   0  0  0  0  0  0  0  0  0  0  0  0
    5.5420   46.5550   52.1380 N   0  0  0  0  0  0  0  0  0  0  0  0
   10.8400   45.9314   52.2680 H   0  0  0  0  0  0  0  0  0  0  0  0
   10.4041   47.4269   51.4546 H   0  0  0  0  0  0  0  0  0  0  0  0
   10.5972   46.9477   54.3423 H   0  0  0  0  0  0  0  0  0  0  0  0
   10.1293   48.4639   53.5881 H   0  0  0  0  0  0  0  0  0  0  0  0
    6.5829   44.6113   54.7062 H   0  0  0  0  0  0  0  0  0  0  0  0
    4.1512   44.0374   54.7071 H   0  0  0  0  0  0  0  0  0  0  0  0
    1.6090   43.8260   51.0880 H   0  0  0  0  0  0  0  0  0  0  0  0
    3.5546   43.0074   52.9349 H   0  0  0  0  0  0  0  0  0  0  0  0
    2.5165   41.6137   52.4567 H   0  0  0  0  0  0  0  0  0  0  0  0
    3.0522   43.3022   50.2294 H   0  0  0  0  0  0  0  0  0  0  0  0
    5.2867   43.8670   50.7608 H   0  0  0  0  0  0  0  0  0  0  0  0
    5.4934   42.5427   51.8846 H   0  0  0  0  0  0  0  0  0  0  0  0
    5.8011   42.6113   48.8966 H   0  0  0  0  0  0  0  0  0  0  0  0
    6.5566   41.4933   50.0847 H   0  0  0  0  0  0  0  0  0  0  0  0
    2.6358   41.0517   49.5856 H   0  0  0  0  0  0  0  0  0  0  0  0
    3.5051   40.3942   51.0077 H   0  0  0  0  0  0  0  0  0  0  0  0
    3.5533   46.7425   51.3873 H   0  0  0  0  0  0  0  0  0  0  0  0
  1  2  2  0
  2  3  1  0
  3  4  1  0
  4  5  1  0
  5  6  2  0
  5  7  1  0
  7  8  1  0
  8  9  2  0
  9 10  1  0
 10 11  2  0
 11 12  1  0
 12 13  2  0
 12 14  2  0
 12 15  1  0
 15 16  1  0
 16 17  1  0
 17 18  1  0
 18 19  1  0
 19 20  1  0
 20 21  1  0
 11 22  1  0
 22 23  2  0
  7  2  1  0
 23  8  1  0
 21 17  1  0
  3 24  1  0
  3 25  1  0
  4 26  1  0
  4 27  1  0
  9 28  1  0
 10 29  1  0
 15 30  1  0
 16 31  1  0
 16 32  1  0
 17 33  1  6
 18 34  1  0
 18 35  1  0
 19 36  1  0
 19 37  1  0
 21 38  1  0
 21 39  1  0
 22 40  1  0
M  END
>  <meeko>  (2) 
{"is_sidechain": [false], "free_energy": -8.258, "intermolecular_energy": -10.803, "internal_energy": -0.662}

$$$$
ligand_64_conformer_2_docked
     RDKit          3D

 40 42  0  0  0  0  0  0  0  0999 V2000
    7.5780   47.3590   54.9140 O   0  0  0  0  0  0  0  0  0  0  0  0
    8.1300   47.1040   53.8100 C   0  0  0  0  0  0  0  0  0  0  0  0
    9.5740   47.3650   53.5390 C   0  0  0  0  0  0  0  0  0  0  0  0
    9.8000   46.7820   52.1310 C   0  0  0  0  0  0  0  0  0  0  0  0
    8.4560   46.2670   51.7360 C   0  0  0  0  0  0  0  0  0  0  0  0
    8.2220   45.7170   50.6270 O   0  0  0  0  0  0  0  0  0  0  0  0
    7.4600   46.4780   52.7240 N   0  0  0  0  0  0  0  0  0  0  0  0
    6.0970   46.0200   52.6700 C   0  0  0  0  0  0  0  0  0  0  0  0
    5.0350   46.9170   52.4660 C   0  0  0  0  0  0  0  0  0  0  0  0
    3.7270   46.4340   52.4150 C   0  0  0  0  0  0  0  0  0  0  0  0
    3.4790   45.0670   52.5640 C   0  0  0  0  0  0  0  0  0  0  0  0
    1.8290   44.4530   52.5010 S   0  0  0  0  0  0  0  0  0  0  0  0
    0.8910   45.6020   52.2630 O   0  0  0  0  0  0  0  0  0  0  0  0
    1.6900   43.4630   51.3780 O   0  0  0  0  0  0  0  0  0  0  0  0
    1.4230   43.6830   54.0050 N   0  0  0  0  0  0  0  0  0  0  0  0
    1.7140   44.5870   55.1210 C   0  0  0  0  0  0  0  0  0  0  0  0
    0.4150   45.2200   55.6480 C   0  0  1  0  0  0  0  0  0  0  0  0
   -0.8180   44.4120   55.3450 C   0  0  0  0  0  0  0  0  0  0  0  0
   -1.7310   44.7450   56.5090 C   0  0  0  0  0  0  0  0  0  0  0  0
   -0.9650   45.2340   57.5890 O   0  0  0  0  0  0  0  0  0  0  0  0
    0.3760   45.3070   57.1630 C   0  0  0  0  0  0  0  0  0  0  0  0
    4.5610   44.1990   52.7470 C   0  0  0  0  0  0  0  0  0  0  0  0
    5.8280   44.6900   52.7950 N   0  0  0  0  0  0  0  0  0  0  0  0
    9.7858   48.4443   53.5540 H   0  0  0  0  0  0  0  0  0  0  0  0
   10.2347   46.9151   54.2947 H   0  0  0  0  0  0  0  0  0  0  0  0
   10.1404   47.5622   51.4343 H   0  0  0  0  0  0  0  0  0  0  0  0
   10.5751   46.0017   52.1143 H   0  0  0  0  0  0  0  0  0  0  0  0
    5.2333   47.9924   52.3473 H   0  0  0  0  0  0  0  0  0  0  0  0
    2.8901   47.1302   52.2573 H   0  0  0  0  0  0  0  0  0  0  0  0
    2.0460   42.8470   54.0900 H   0  0  0  0  0  0  0  0  0  0  0  0
    2.1960   44.0200   55.9311 H   0  0  0  0  0  0  0  0  0  0  0  0
    2.3840   45.3854   54.7694 H   0  0  0  0  0  0  0  0  0  0  0  0
    0.4155   46.2001   55.1486 H   0  0  0  0  0  0  0  0  0  0  0  0
   -1.2673   44.7179   54.3887 H   0  0  0  0  0  0  0  0  0  0  0  0
   -0.6189   43.3351   55.2414 H   0  0  0  0  0  0  0  0  0  0  0  0
   -2.4556   45.5118   56.1977 H   0  0  0  0  0  0  0  0  0  0  0  0
   -2.2666   43.8371   56.8235 H   0  0  0  0  0  0  0  0  0  0  0  0
    0.8160   46.2607   57.4897 H   0  0  0  0  0  0  0  0  0  0  0  0
    0.9518   44.4775   57.5993 H   0  0  0  0  0  0  0  0  0  0  0  0
    4.3864   43.1180   52.8522 H   0  0  0  0  0  0  0  0  0  0  0  0
  1  2  2  0
  2  3  1  0
  3  4  1  0
  4  5  1  0
  5  6  2  0
  5  7  1  0
  7  8  1  0
  8  9  2  0
  9 10  1  0
 10 11  2  0
 11 12  1  0
 12 13  2  0
 12 14  2  0
 12 15  1  0
 15 16  1  0
 16 17  1  0
 17 18  1  0
 18 19  1  0
 19 20  1  0
 20 21  1  0
 11 22  1  0
 22 23  2  0
  7  2  1  0
 23  8  1  0
 21 17  1  0
  3 24  1  0
  3 25  1  0
  4 26  1  0
  4 27  1  0
  9 28  1  0
 10 29  1  0
 15 30  1  0
 16 31  1  0
 16 32  1  0
 17 33  1  6
 18 34  1  0
 18 35  1  0
 19 36  1  0
 19 37  1  0
 21 38  1  0
 21 39  1  0
 22 40  1  0
M  END
>  <meeko>  (3) 
{"is_sidechain": [false], "free_energy": -7.992, "intermolecular_energy": -10.404, "internal_energy": -0.716}

$$$$
ligand_64_conformer_2_docked
     RDKit          3D

 40 42  0  0  0  0  0  0  0  0999 V2000
    8.1970   45.6150   50.7720 O   0  0  0  0  0  0  0  0  0  0  0  0
    8.4400   46.1810   51.8720 C   0  0  0  0  0  0  0  0  0  0  0  0
    9.7610   46.7890   52.2040 C   0  0  0  0  0  0  0  0  0  0  0  0
    9.5310   47.4540   53.5740 C   0  0  0  0  0  0  0  0  0  0  0  0
    8.1080   47.1370   53.8930 C   0  0  0  0  0  0  0  0  0  0  0  0
    7.5370   47.5040   54.9540 O   0  0  0  0  0  0  0  0  0  0  0  0
    7.4670   46.3630   52.8920 N   0  0  0  0  0  0  0  0  0  0  0  0
    6.0810   45.9740   52.8740 C   0  0  0  0  0  0  0  0  0  0  0  0
    5.1060   46.7810   52.2670 C   0  0  0  0  0  0  0  0  0  0  0  0
    3.7740   46.3670   52.2660 C   0  0  0  0  0  0  0  0  0  0  0  0
    3.4170   45.1550   52.8640 C   0  0  0  0  0  0  0  0  0  0  0  0
    1.7360   44.6280   52.8650 S   0  0  0  0  0  0  0  0  0  0  0  0
    1.2010   44.7020   51.4640 O   0  0  0  0  0  0  0  0  0  0  0  0
    1.6410   43.2080   53.3530 O   0  0  0  0  0  0  0  0  0  0  0  0
    0.7900   45.6590   53.8960 N   0  0  0  0  0  0  0  0  0  0  0  0
   -0.2150   44.8640   54.6070 C   0  0  0  0  0  0  0  0  0  0  0  0
   -0.0050   44.9740   56.1270 C   0  0  1  0  0  0  0  0  0  0  0  0
    1.2640   45.6830   56.5120 C   0  0  0  0  0  0  0  0  0  0  0  0
    0.9010   46.3230   57.8390 C   0  0  0  0  0  0  0  0  0  0  0  0
   -0.5030   46.4250   57.9480 O   0  0  0  0  0  0  0  0  0  0  0  0
   -1.0660   45.8220   56.8060 C   0  0  0  0  0  0  0  0  0  0  0  0
    4.4170   44.3660   53.4420 C   0  0  0  0  0  0  0  0  0  0  0  0
    5.7090   44.7880   53.4330 N   0  0  0  0  0  0  0  0  0  0  0  0
   10.5414   46.0166   52.2703 H   0  0  0  0  0  0  0  0  0  0  0  0
   10.1032   47.5019   51.4394 H   0  0  0  0  0  0  0  0  0  0  0  0
   10.2057   47.0307   54.3326 H   0  0  0  0  0  0  0  0  0  0  0  0
    9.7315   48.5355   53.5594 H   0  0  0  0  0  0  0  0  0  0  0  0
    5.3904   47.7332   51.7954 H   0  0  0  0  0  0  0  0  0  0  0  0
    3.0038   46.9948   51.7942 H   0  0  0  0  0  0  0  0  0  0  0  0
    0.2920   46.3310   53.2690 H   0  0  0  0  0  0  0  0  0  0  0  0
   -1.2185   45.2351   54.3515 H   0  0  0  0  0  0  0  0  0  0  0  0
   -0.1154   43.8103   54.3073 H   0  0  0  0  0  0  0  0  0  0  0  0
   -0.0145   43.9196   56.4404 H   0  0  0  0  0  0  0  0  0  0  0  0
    2.0953   44.9722   56.6290 H   0  0  0  0  0  0  0  0  0  0  0  0
    1.6047   46.4073   55.7575 H   0  0  0  0  0  0  0  0  0  0  0  0
    1.2879   45.7040   58.6619 H   0  0  0  0  0  0  0  0  0  0  0  0
    1.3453   47.3278   57.8933 H   0  0  0  0  0  0  0  0  0  0  0  0
   -1.9130   45.1862   57.1032 H   0  0  0  0  0  0  0  0  0  0  0  0
   -1.4251   46.5969   56.1128 H   0  0  0  0  0  0  0  0  0  0  0  0
    4.1573   43.4024   53.9046 H   0  0  0  0  0  0  0  0  0  0  0  0
  1  2  2  0
  2  3  1  0
  3  4  1  0
  4  5  1  0
  5  6  2  0
  5  7  1  0
  7  8  1  0
  8  9  2  0
  9 10  1  0
 10 11  2  0
 11 12  1  0
 12 13  2  0
 12 14  2  0
 12 15  1  0
 15 16  1  0
 16 17  1  0
 17 18  1  0
 18 19  1  0
 19 20  1  0
 20 21  1  0
 11 22  1  0
 22 23  2  0
  7  2  1  0
 23  8  1  0
 21 17  1  0
  3 24  1  0
  3 25  1  0
  4 26  1  0
  4 27  1  0
  9 28  1  0
 10 29  1  0
 15 30  1  0
 16 31  1  0
 16 32  1  0
 17 33  1  1
 18 34  1  0
 18 35  1  0
 19 36  1  0
 19 37  1  0
 21 38  1  0
 21 39  1  0
 22 40  1  0
M  END
>  <meeko>  (4) 
{"is_sidechain": [false], "free_energy": -7.978, "intermolecular_energy": -10.405, "internal_energy": -0.699}

$$$$
ligand_64_conformer_2_docked
     RDKit          3D

 40 42  0  0  0  0  0  0  0  0999 V2000
    8.0050   47.3660   54.9570 O   0  0  0  0  0  0  0  0  0  0  0  0
    8.5680   47.0100   53.8870 C   0  0  0  0  0  0  0  0  0  0  0  0
   10.0360   47.1380   53.6550 C   0  0  0  0  0  0  0  0  0  0  0  0
   10.2550   46.4670   52.2850 C   0  0  0  0  0  0  0  0  0  0  0  0
    8.8860   46.0460   51.8680 C   0  0  0  0  0  0  0  0  0  0  0  0
    8.6420   45.4610   50.7790 O   0  0  0  0  0  0  0  0  0  0  0  0
    7.8810   46.3870   52.8100 N   0  0  0  0  0  0  0  0  0  0  0  0
    6.4860   46.0420   52.7300 C   0  0  0  0  0  0  0  0  0  0  0  0
    5.6040   46.7630   51.9100 C   0  0  0  0  0  0  0  0  0  0  0  0
    4.2590   46.3940   51.8560 C   0  0  0  0  0  0  0  0  0  0  0  0
    3.7980   45.3130   52.6120 C   0  0  0  0  0  0  0  0  0  0  0  0
    2.1020   44.8440   52.5470 S   0  0  0  0  0  0  0  0  0  0  0  0
    1.2520   46.0800   52.6240 O   0  0  0  0  0  0  0  0  0  0  0  0
    1.8130   44.1290   51.2570 O   0  0  0  0  0  0  0  0  0  0  0  0
    1.7210   43.8020   53.8850 N   0  0  0  0  0  0  0  0  0  0  0  0
    0.4720   44.2380   54.5150 C   0  0  0  0  0  0  0  0  0  0  0  0
   -0.7010   43.3680   54.0330 C   0  0  1  0  0  0  0  0  0  0  0  0
   -1.5380   44.0180   52.9650 C   0  0  0  0  0  0  0  0  0  0  0  0
   -2.0440   42.8310   52.1670 C   0  0  0  0  0  0  0  0  0  0  0  0
   -1.2090   41.7160   52.3950 O   0  0  0  0  0  0  0  0  0  0  0  0
   -0.2430   42.0910   53.3490 C   0  0  0  0  0  0  0  0  0  0  0  0
    4.7090   44.6040   53.4040 C   0  0  0  0  0  0  0  0  0  0  0  0
    6.0150   44.9810   53.4430 N   0  0  0  0  0  0  0  0  0  0  0  0
   10.3367   48.1957   53.6252 H   0  0  0  0  0  0  0  0  0  0  0  0
   10.6336   46.6753   54.4542 H   0  0  0  0  0  0  0  0  0  0  0  0
   10.6818   47.1798   51.5640 H   0  0  0  0  0  0  0  0  0  0  0  0
   10.9612   45.6250   52.3334 H   0  0  0  0  0  0  0  0  0  0  0  0
    5.9700   47.6124   51.3145 H   0  0  0  0  0  0  0  0  0  0  0  0
    3.5608   46.9550   51.2174 H   0  0  0  0  0  0  0  0  0  0  0  0
    2.4940   43.9130   54.5800 H   0  0  0  0  0  0  0  0  0  0  0  0
    0.5658   44.1479   55.6073 H   0  0  0  0  0  0  0  0  0  0  0  0
    0.2782   45.2849   54.2385 H   0  0  0  0  0  0  0  0  0  0  0  0
   -1.2598   43.1950   54.9646 H   0  0  0  0  0  0  0  0  0  0  0  0
   -2.3720   44.5844   53.4050 H   0  0  0  0  0  0  0  0  0  0  0  0
   -0.9807   44.7461   52.3573 H   0  0  0  0  0  0  0  0  0  0  0  0
   -3.0704   42.5898   52.4807 H   0  0  0  0  0  0  0  0  0  0  0  0
   -2.0352   43.0808   51.0958 H   0  0  0  0  0  0  0  0  0  0  0  0
   -0.1309   41.2912   54.0958 H   0  0  0  0  0  0  0  0  0  0  0  0
    0.7254   42.2581   52.8548 H   0  0  0  0  0  0  0  0  0  0  0  0
    4.3681   43.7413   53.9952 H   0  0  0  0  0  0  0  0  0  0  0  0
  1  2  2  0
  2  3  1  0
  3  4  1  0
  4  5  1  0
  5  6  2  0
  5  7  1  0
  7  8  1  0
  8  9  2  0
  9 10  1  0
 10 11  2  0
 11 12  1  0
 12 13  2  0
 12 14  2  0
 12 15  1  0
 15 16  1  0
 16 17  1  0
 17 18  1  0
 18 19  1  0
 19 20  1  0
 20 21  1  0
 11 22  1  0
 22 23  2  0
  7  2  1  0
 23  8  1  0
 21 17  1  0
  3 24  1  0
  3 25  1  0
  4 26  1  0
  4 27  1  0
  9 28  1  0
 10 29  1  0
 15 30  1  0
 16 31  1  0
 16 32  1  0
 17 33  1  1
 18 34  1  0
 18 35  1  0
 19 36  1  0
 19 37  1  0
 21 38  1  0
 21 39  1  0
 22 40  1  0
M  END
>  <meeko>  (5) 
{"is_sidechain": [false], "free_energy": -7.71, "intermolecular_energy": -10.041, "internal_energy": -0.716}

$$$$
