ligand_27_conformer_3_docked
     RDKit          3D

 46 47  0  0  0  0  0  0  0  0999 V2000
   -1.5210   43.1520   50.4470 C   0  0  0  0  0  0  0  0  0  0  0  0
   -2.4100   42.7830   51.6240 C   0  0  0  0  0  0  0  0  0  0  0  0
   -1.9010   43.3850   52.8100 O   0  0  0  0  0  0  0  0  0  0  0  0
   -0.6280   43.1070   53.3130 C   0  0  0  0  0  0  0  0  0  0  0  0
   -0.3180   41.9250   53.6330 O   0  0  0  0  0  0  0  0  0  0  0  0
    0.3650   44.1880   53.4770 C   0  0  0  0  0  0  0  0  0  0  0  0
    1.2000   44.6410   52.4690 C   0  0  0  0  0  0  0  0  0  0  0  0
    1.9710   45.6340   53.0350 C   0  0  0  0  0  0  0  0  0  0  0  0
    3.2610   46.5250   52.2500 S   0  0  0  0  0  0  0  0  0  0  0  0
    3.1220   46.4340   50.7560 O   0  0  0  0  0  0  0  0  0  0  0  0
    3.1780   47.9660   52.6680 O   0  0  0  0  0  0  0  0  0  0  0  0
    4.7950   45.8710   52.7250 N   0  0  0  0  0  0  0  0  0  0  0  0
    5.7590   45.4010   51.7660 C   0  0  0  0  0  0  0  0  0  0  0  0
    5.5260   44.1970   51.0770 C   0  0  0  0  0  0  0  0  0  0  0  0
    6.4450   43.7200   50.1420 C   0  0  0  0  0  0  0  0  0  0  0  0
    7.6080   44.4410   49.8760 C   0  0  0  0  0  0  0  0  0  0  0  0
    8.4990   43.9770   48.9650 F   0  0  0  0  0  0  0  0  0  0  0  0
    7.8570   45.6390   50.5460 C   0  0  0  0  0  0  0  0  0  0  0  0
    6.9450   46.1330   51.4970 C   0  0  0  0  0  0  0  0  0  0  0  0
    7.2790   47.4260   52.2040 C   0  0  0  0  0  0  0  0  0  0  0  0
    8.1690   47.1150   53.7240 S   0  0  0  0  0  0  0  0  0  0  0  0
    9.5760   46.0590   53.4490 C   0  0  0  0  0  0  0  0  0  0  0  0
    7.2510   46.4600   54.7170 O   0  0  0  0  0  0  0  0  0  0  0  0
    8.6450   48.4240   54.2850 O   0  0  0  0  0  0  0  0  0  0  0  0
    1.5930   45.7550   54.3540 C   0  0  0  0  0  0  0  0  0  0  0  0
    0.6100   44.8730   54.6220 N   0  0  0  0  0  0  0  0  0  0  0  0
   -0.0290   44.7010   55.9250 C   0  0  0  0  0  0  0  0  0  0  0  0
   -0.5651   43.5488   50.8197 H   0  0  0  0  0  0  0  0  0  0  0  0
   -1.3330   42.2576   49.8349 H   0  0  0  0  0  0  0  0  0  0  0  0
   -2.0217   43.9166   49.8349 H   0  0  0  0  0  0  0  0  0  0  0  0
   -3.4323   43.1445   51.4389 H   0  0  0  0  0  0  0  0  0  0  0  0
   -2.4240   41.6897   51.7445 H   0  0  0  0  0  0  0  0  0  0  0  0
    1.2398   44.2821   51.4300 H   0  0  0  0  0  0  0  0  0  0  0  0
    4.9540   45.7330   53.7460 H   0  0  0  0  0  0  0  0  0  0  0  0
    4.6083   43.6248   51.2778 H   0  0  0  0  0  0  0  0  0  0  0  0
    6.2517   42.7744   49.6143 H   0  0  0  0  0  0  0  0  0  0  0  0
    8.7758   46.2034   50.3286 H   0  0  0  0  0  0  0  0  0  0  0  0
    7.9019   48.0467   51.5431 H   0  0  0  0  0  0  0  0  0  0  0  0
    6.3400   47.9444   52.4479 H   0  0  0  0  0  0  0  0  0  0  0  0
    9.9938   45.7454   54.4170 H   0  0  0  0  0  0  0  0  0  0  0  0
    9.2626   45.1713   52.8800 H   0  0  0  0  0  0  0  0  0  0  0  0
   10.3408   46.6079   52.8800 H   0  0  0  0  0  0  0  0  0  0  0  0
    2.0264   46.4621   55.0767 H   0  0  0  0  0  0  0  0  0  0  0  0
    0.7036   44.8982   56.7215 H   0  0  0  0  0  0  0  0  0  0  0  0
   -0.8692   45.4049   56.0171 H   0  0  0  0  0  0  0  0  0  0  0  0
   -0.4023   43.6704   56.0171 H   0  0  0  0  0  0  0  0  0  0  0  0
  1  2  1  0
  2  3  1  0
  3  4  1  0
  4  5  2  0
  4  6  1  0
  6  7  2  0
  7  8  1  0
  8  9  1  0
  9 10  2  0
  9 11  2  0
  9 12  1  0
 12 13  1  0
 13 14  2  0
 14 15  1  0
 15 16  2  0
 16 17  1  0
 16 18  1  0
 18 19  2  0
 19 20  1  0
 20 21  1  0
 21 22  1  0
 21 23  2  0
 21 24  2  0
  8 25  2  0
 25 26  1  0
 26 27  1  0
 26  6  1  0
 19 13  1  0
  1 28  1  0
  1 29  1  0
  1 30  1  0
  2 31  1  0
  2 32  1  0
  7 33  1  0
 12 34  1  0
 14 35  1  0
 15 36  1  0
 18 37  1  0
 20 38  1  0
 20 39  1  0
 22 40  1  0
 22 41  1  0
 22 42  1  0
 25 43  1  0
 27 44  1  0
 27 45  1  0
 27 46  1  0
M  END
>  <meeko>  (1) 
{"is_sidechain": [false], "free_energy": -7.985, "intermolecular_energy": -11.719, "internal_energy": -1.011}

$$$$
ligand_27_conformer_3_docked
     RDKit          3D

 46 47  0  0  0  0  0  0  0  0999 V2000
   -1.0850   44.7180   56.7750 C   0  0  0  0  0  0  0  0  0  0  0  0
   -1.5890   44.5740   55.3480 C   0  0  0  0  0  0  0  0  0  0  0  0
   -1.3610   43.2420   54.8970 O   0  0  0  0  0  0  0  0  0  0  0  0
   -0.4150   42.9250   53.9190 C   0  0  0  0  0  0  0  0  0  0  0  0
   -0.4620   41.8090   53.3310 O   0  0  0  0  0  0  0  0  0  0  0  0
    0.6480   43.8880   53.5660 C   0  0  0  0  0  0  0  0  0  0  0  0
    1.8690   43.9760   54.2150 C   0  0  0  0  0  0  0  0  0  0  0  0
    2.5540   44.9990   53.5940 C   0  0  0  0  0  0  0  0  0  0  0  0
    4.1350   45.6140   54.0380 S   0  0  0  0  0  0  0  0  0  0  0  0
    4.0220   46.5310   55.2230 O   0  0  0  0  0  0  0  0  0  0  0  0
    5.0230   44.4540   54.3920 O   0  0  0  0  0  0  0  0  0  0  0  0
    4.8200   46.4820   52.7020 N   0  0  0  0  0  0  0  0  0  0  0  0
    5.7710   45.8820   51.8050 C   0  0  0  0  0  0  0  0  0  0  0  0
    5.4260   44.7120   51.1050 C   0  0  0  0  0  0  0  0  0  0  0  0
    6.3300   44.1120   50.2280 C   0  0  0  0  0  0  0  0  0  0  0  0
    7.5910   44.6730   50.0330 C   0  0  0  0  0  0  0  0  0  0  0  0
    8.4680   44.0890   49.1790 F   0  0  0  0  0  0  0  0  0  0  0  0
    7.9530   45.8350   50.7160 C   0  0  0  0  0  0  0  0  0  0  0  0
    7.0570   46.4520   51.6080 C   0  0  0  0  0  0  0  0  0  0  0  0
    7.5120   47.6970   52.3320 C   0  0  0  0  0  0  0  0  0  0  0  0
    8.3750   47.2820   53.8420 S   0  0  0  0  0  0  0  0  0  0  0  0
    9.8160   46.2890   53.5150 C   0  0  0  0  0  0  0  0  0  0  0  0
    7.4540   46.5230   54.7550 O   0  0  0  0  0  0  0  0  0  0  0  0
    8.8030   48.5510   54.5230 O   0  0  0  0  0  0  0  0  0  0  0  0
    1.7420   45.5020   52.6010 C   0  0  0  0  0  0  0  0  0  0  0  0
    0.5790   44.8210   52.5840 N   0  0  0  0  0  0  0  0  0  0  0  0
   -0.5340   45.0860   51.6750 C   0  0  0  0  0  0  0  0  0  0  0  0
   -1.8995   44.4853   57.4768 H   0  0  0  0  0  0  0  0  0  0  0  0
   -0.2487   44.0229   56.9404 H   0  0  0  0  0  0  0  0  0  0  0  0
   -0.7422   45.7500   56.9404 H   0  0  0  0  0  0  0  0  0  0  0  0
   -2.6665   44.7929   55.3157 H   0  0  0  0  0  0  0  0  0  0  0  0
   -1.0524   45.2792   54.6962 H   0  0  0  0  0  0  0  0  0  0  0  0
    2.2199   43.3568   55.0537 H   0  0  0  0  0  0  0  0  0  0  0  0
    4.5950   47.4970   52.6340 H   0  0  0  0  0  0  0  0  0  0  0  0
    4.4317   44.2647   51.2507 H   0  0  0  0  0  0  0  0  0  0  0  0
    6.0473   43.1952   49.6898 H   0  0  0  0  0  0  0  0  0  0  0  0
    8.9492   46.2729   50.5552 H   0  0  0  0  0  0  0  0  0  0  0  0
    8.1872   48.2673   51.6771 H   0  0  0  0  0  0  0  0  0  0  0  0
    6.6260   48.2964   52.5885 H   0  0  0  0  0  0  0  0  0  0  0  0
   10.2696   45.9764   54.4671 H   0  0  0  0  0  0  0  0  0  0  0  0
    9.5247   45.3990   52.9379 H   0  0  0  0  0  0  0  0  0  0  0  0
   10.5440   46.8781   52.9379 H   0  0  0  0  0  0  0  0  0  0  0  0
    2.0025   46.3310   51.9265 H   0  0  0  0  0  0  0  0  0  0  0  0
   -1.4409   45.3019   52.2589 H   0  0  0  0  0  0  0  0  0  0  0  0
   -0.2915   45.9515   51.0409 H   0  0  0  0  0  0  0  0  0  0  0  0
   -0.7075   44.2041   51.0409 H   0  0  0  0  0  0  0  0  0  0  0  0
  1  2  1  0
  2  3  1  0
  3  4  1  0
  4  5  2  0
  4  6  1  0
  6  7  2  0
  7  8  1  0
  8  9  1  0
  9 10  2  0
  9 11  2  0
  9 12  1  0
 12 13  1  0
 13 14  2  0
 14 15  1  0
 15 16  2  0
 16 17  1  0
 16 18  1  0
 18 19  2  0
 19 20  1  0
 20 21  1  0
 21 22  1  0
 21 23  2  0
 21 24  2  0
  8 25  2  0
 25 26  1  0
 26 27  1  0
 26  6  1  0
 19 13  1  0
  1 28  1  0
  1 29  1  0
  1 30  1  0
  2 31  1  0
  2 32  1  0
  7 33  1  0
 12 34  1  0
 14 35  1  0
 15 36  1  0
 18 37  1  0
 20 38  1  0
 20 39  1  0
 22 40  1  0
 22 41  1  0
 22 42  1  0
 25 43  1  0
 27 44  1  0
 27 45  1  0
 27 46  1  0
M  END
>  <meeko>  (2) 
{"is_sidechain": [false], "free_energy": -7.95, "intermolecular_energy": -11.63, "internal_energy": -1.049}

$$$$
ligand_27_conformer_3_docked
     RDKit          3D

 46 47  0  0  0  0  0  0  0  0999 V2000
   11.0440   47.6750   56.4680 C   0  0  0  0  0  0  0  0  0  0  0  0
   10.0540   47.6620   55.3140 C   0  0  0  0  0  0  0  0  0  0  0  0
   10.5190   46.7780   54.3000 O   0  0  0  0  0  0  0  0  0  0  0  0
    9.7720   46.4730   53.1590 C   0  0  0  0  0  0  0  0  0  0  0  0
   10.3400   45.9940   52.1390 O   0  0  0  0  0  0  0  0  0  0  0  0
    8.3140   46.7080   53.1350 C   0  0  0  0  0  0  0  0  0  0  0  0
    7.3840   45.9190   53.7940 C   0  0  0  0  0  0  0  0  0  0  0  0
    6.1520   46.4670   53.5050 C   0  0  0  0  0  0  0  0  0  0  0  0
    4.5920   45.8440   54.0100 S   0  0  0  0  0  0  0  0  0  0  0  0
    4.7730   44.7400   55.0130 O   0  0  0  0  0  0  0  0  0  0  0  0
    3.8070   46.9600   54.6390 O   0  0  0  0  0  0  0  0  0  0  0  0
    3.7330   45.2360   52.6320 N   0  0  0  0  0  0  0  0  0  0  0  0
    4.2320   44.1440   51.8390 C   0  0  0  0  0  0  0  0  0  0  0  0
    5.3700   44.3320   51.0340 C   0  0  0  0  0  0  0  0  0  0  0  0
    5.8740   43.2890   50.2550 C   0  0  0  0  0  0  0  0  0  0  0  0
    5.2510   42.0420   50.2720 C   0  0  0  0  0  0  0  0  0  0  0  0
    5.7440   41.0290   49.5160 F   0  0  0  0  0  0  0  0  0  0  0  0
    4.1230   41.8340   51.0660 C   0  0  0  0  0  0  0  0  0  0  0  0
    3.5970   42.8750   51.8530 C   0  0  0  0  0  0  0  0  0  0  0  0
    2.3620   42.5950   52.6770 C   0  0  0  0  0  0  0  0  0  0  0  0
    0.8910   43.1860   51.8490 S   0  0  0  0  0  0  0  0  0  0  0  0
   -0.5680   42.3600   52.4470 C   0  0  0  0  0  0  0  0  0  0  0  0
    1.0170   42.9490   50.3710 O   0  0  0  0  0  0  0  0  0  0  0  0
    0.7520   44.6610   52.0980 O   0  0  0  0  0  0  0  0  0  0  0  0
    6.3600   47.5560   52.6880 C   0  0  0  0  0  0  0  0  0  0  0  0
    7.6820   47.7030   52.4650 N   0  0  0  0  0  0  0  0  0  0  0  0
    8.2790   48.7430   51.6290 C   0  0  0  0  0  0  0  0  0  0  0  0
   10.4957   47.6678   57.4216 H   0  0  0  0  0  0  0  0  0  0  0  0
   11.6880   46.7852   56.4086 H   0  0  0  0  0  0  0  0  0  0  0  0
   11.6645   48.5814   56.4086 H   0  0  0  0  0  0  0  0  0  0  0  0
    9.0730   47.3208   55.6763 H   0  0  0  0  0  0  0  0  0  0  0  0
    9.9594   48.6769   54.9005 H   0  0  0  0  0  0  0  0  0  0  0  0
    7.5871   45.0369   54.4191 H   0  0  0  0  0  0  0  0  0  0  0  0
    2.8850   45.7630   52.3340 H   0  0  0  0  0  0  0  0  0  0  0  0
    5.8687   45.3124   51.0181 H   0  0  0  0  0  0  0  0  0  0  0  0
    6.7629   43.4511   49.6276 H   0  0  0  0  0  0  0  0  0  0  0  0
    3.6398   40.8459   51.0769 H   0  0  0  0  0  0  0  0  0  0  0  0
    2.2740   41.5101   52.8359 H   0  0  0  0  0  0  0  0  0  0  0  0
    2.4568   43.1191   53.6394 H   0  0  0  0  0  0  0  0  0  0  0  0
   -0.5653   42.3615   53.5470 H   0  0  0  0  0  0  0  0  0  0  0  0
   -1.4626   42.8856   52.0818 H   0  0  0  0  0  0  0  0  0  0  0  0
   -0.5776   41.3224   52.0818 H   0  0  0  0  0  0  0  0  0  0  0  0
    5.5707   48.2050   52.2807 H   0  0  0  0  0  0  0  0  0  0  0  0
    8.7240   49.5182   52.2701 H   0  0  0  0  0  0  0  0  0  0  0  0
    9.0600   48.2995   50.9939 H   0  0  0  0  0  0  0  0  0  0  0  0
    7.5022   49.1938   50.9939 H   0  0  0  0  0  0  0  0  0  0  0  0
  1  2  1  0
  2  3  1  0
  3  4  1  0
  4  5  2  0
  4  6  1  0
  6  7  2  0
  7  8  1  0
  8  9  1  0
  9 10  2  0
  9 11  2  0
  9 12  1  0
 12 13  1  0
 13 14  2  0
 14 15  1  0
 15 16  2  0
 16 17  1  0
 16 18  1  0
 18 19  2  0
 19 20  1  0
 20 21  1  0
 21 22  1  0
 21 23  2  0
 21 24  2  0
  8 25  2  0
 25 26  1  0
 26 27  1  0
 26  6  1  0
 19 13  1  0
  1 28  1  0
  1 29  1  0
  1 30  1  0
  2 31  1  0
  2 32  1  0
  7 33  1  0
 12 34  1  0
 14 35  1  0
 15 36  1  0
 18 37  1  0
 20 38  1  0
 20 39  1  0
 22 40  1  0
 22 41  1  0
 22 42  1  0
 25 43  1  0
 27 44  1  0
 27 45  1  0
 27 46  1  0
M  END
>  <meeko>  (3) 
{"is_sidechain": [false], "free_energy": -7.817, "intermolecular_energy": -11.35, "internal_energy": -1.133}

$$$$
ligand_27_conformer_3_docked
     RDKit          3D

 46 47  0  0  0  0  0  0  0  0999 V2000
   10.3210   46.4610   52.3060 C   0  0  0  0  0  0  0  0  0  0  0  0
    9.8530   47.0430   53.6300 C   0  0  0  0  0  0  0  0  0  0  0  0
    8.4340   46.9560   53.7110 O   0  0  0  0  0  0  0  0  0  0  0  0
    7.5850   47.5220   52.7570 C   0  0  0  0  0  0  0  0  0  0  0  0
    7.7960   48.6940   52.3380 O   0  0  0  0  0  0  0  0  0  0  0  0
    6.4350   46.7590   52.2320 C   0  0  0  0  0  0  0  0  0  0  0  0
    5.1450   46.8500   52.7290 C   0  0  0  0  0  0  0  0  0  0  0  0
    4.3880   45.9750   51.9790 C   0  0  0  0  0  0  0  0  0  0  0  0
    2.6870   45.6130   52.2030 S   0  0  0  0  0  0  0  0  0  0  0  0
    1.9260   46.8680   52.5230 O   0  0  0  0  0  0  0  0  0  0  0  0
    2.1480   45.0170   50.9330 O   0  0  0  0  0  0  0  0  0  0  0  0
    2.4980   44.4780   53.5010 N   0  0  0  0  0  0  0  0  0  0  0  0
    1.4700   44.6170   54.4970 C   0  0  0  0  0  0  0  0  0  0  0  0
    1.7420   45.3200   55.6850 C   0  0  0  0  0  0  0  0  0  0  0  0
    0.7620   45.4690   56.6670 C   0  0  0  0  0  0  0  0  0  0  0  0
   -0.5060   44.9230   56.4760 C   0  0  0  0  0  0  0  0  0  0  0  0
   -1.4580   45.0710   57.4300 F   0  0  0  0  0  0  0  0  0  0  0  0
   -0.7970   44.2250   55.3030 C   0  0  0  0  0  0  0  0  0  0  0  0
    0.1790   44.0590   54.3050 C   0  0  0  0  0  0  0  0  0  0  0  0
   -0.1900   43.2770   53.0660 C   0  0  0  0  0  0  0  0  0  0  0  0
   -1.3590   44.1830   52.0600 S   0  0  0  0  0  0  0  0  0  0  0  0
   -1.3590   43.5990   50.3780 C   0  0  0  0  0  0  0  0  0  0  0  0
   -1.0050   45.6430   52.0720 O   0  0  0  0  0  0  0  0  0  0  0  0
   -2.7350   44.0080   52.6360 O   0  0  0  0  0  0  0  0  0  0  0  0
    5.2250   45.3810   51.0600 C   0  0  0  0  0  0  0  0  0  0  0  0
    6.4750   45.8630   51.2150 N   0  0  0  0  0  0  0  0  0  0  0  0
    7.6350   45.4510   50.4280 C   0  0  0  0  0  0  0  0  0  0  0  0
   10.9999   45.6167   52.4962 H   0  0  0  0  0  0  0  0  0  0  0  0
    9.4509   46.1098   51.7319 H   0  0  0  0  0  0  0  0  0  0  0  0
   10.8508   47.2354   51.7319 H   0  0  0  0  0  0  0  0  0  0  0  0
   10.3031   46.4771   54.4590 H   0  0  0  0  0  0  0  0  0  0  0  0
   10.1604   48.0971   53.6966 H   0  0  0  0  0  0  0  0  0  0  0  0
    4.7961   47.4894   53.5532 H   0  0  0  0  0  0  0  0  0  0  0  0
    3.2290   43.7410   53.5930 H   0  0  0  0  0  0  0  0  0  0  0  0
    2.7391   45.7574   55.8415 H   0  0  0  0  0  0  0  0  0  0  0  0
    0.9904   46.0178   57.5926 H   0  0  0  0  0  0  0  0  0  0  0  0
   -1.8012   43.8001   55.1578 H   0  0  0  0  0  0  0  0  0  0  0  0
    0.7193   43.0862   52.4771 H   0  0  0  0  0  0  0  0  0  0  0  0
   -0.6549   42.3293   53.3755 H   0  0  0  0  0  0  0  0  0  0  0  0
   -0.3219   43.4787   50.0316 H   0  0  0  0  0  0  0  0  0  0  0  0
   -1.8775   42.6303   50.3262 H   0  0  0  0  0  0  0  0  0  0  0  0
   -1.8775   44.3272   49.7370 H   0  0  0  0  0  0  0  0  0  0  0  0
    4.9210   44.6304   50.3156 H   0  0  0  0  0  0  0  0  0  0  0  0
    8.4525   45.1606   51.1043 H   0  0  0  0  0  0  0  0  0  0  0  0
    7.3623   44.5947   49.7936 H   0  0  0  0  0  0  0  0  0  0  0  0
    7.9635   46.2874   49.7936 H   0  0  0  0  0  0  0  0  0  0  0  0
  1  2  1  0
  2  3  1  0
  3  4  1  0
  4  5  2  0
  4  6  1  0
  6  7  2  0
  7  8  1  0
  8  9  1  0
  9 10  2  0
  9 11  2  0
  9 12  1  0
 12 13  1  0
 13 14  2  0
 14 15  1  0
 15 16  2  0
 16 17  1  0
 16 18  1  0
 18 19  2  0
 19 20  1  0
 20 21  1  0
 21 22  1  0
 21 23  2  0
 21 24  2  0
  8 25  2  0
 25 26  1  0
 26 27  1  0
 26  6  1  0
 19 13  1  0
  1 28  1  0
  1 29  1  0
  1 30  1  0
  2 31  1  0
  2 32  1  0
  7 33  1  0
 12 34  1  0
 14 35  1  0
 15 36  1  0
 18 37  1  0
 20 38  1  0
 20 39  1  0
 22 40  1  0
 22 41  1  0
 22 42  1  0
 25 43  1  0
 27 44  1  0
 27 45  1  0
 27 46  1  0
M  END
>  <meeko>  (4) 
{"is_sidechain": [false], "free_energy": -7.547, "intermolecular_energy": -11.139, "internal_energy": -0.948}

$$$$
ligand_27_conformer_3_docked
     RDKit          3D

 46 47  0  0  0  0  0  0  0  0999 V2000
   -1.2070   47.8720   58.7130 C   0  0  0  0  0  0  0  0  0  0  0  0
   -1.5220   46.8550   57.6280 C   0  0  0  0  0  0  0  0  0  0  0  0
   -0.3960   46.7160   56.7670 O   0  0  0  0  0  0  0  0  0  0  0  0
    0.2700   45.5020   56.5830 C   0  0  0  0  0  0  0  0  0  0  0  0
    0.7880   44.9080   57.5700 O   0  0  0  0  0  0  0  0  0  0  0  0
    0.3760   44.9030   55.2370 C   0  0  0  0  0  0  0  0  0  0  0  0
    1.5230   44.9290   54.4590 C   0  0  0  0  0  0  0  0  0  0  0  0
    1.1980   44.2810   53.2870 C   0  0  0  0  0  0  0  0  0  0  0  0
    2.2390   44.0700   51.8910 S   0  0  0  0  0  0  0  0  0  0  0  0
    1.8090   42.8670   51.0990 O   0  0  0  0  0  0  0  0  0  0  0  0
    2.1400   45.2940   51.0250 O   0  0  0  0  0  0  0  0  0  0  0  0
    3.8790   43.8590   52.4120 N   0  0  0  0  0  0  0  0  0  0  0  0
    4.9860   43.8920   51.4940 C   0  0  0  0  0  0  0  0  0  0  0  0
    5.3040   42.7440   50.7450 C   0  0  0  0  0  0  0  0  0  0  0  0
    6.3720   42.7500   49.8480 C   0  0  0  0  0  0  0  0  0  0  0  0
    7.1360   43.9040   49.6800 C   0  0  0  0  0  0  0  0  0  0  0  0
    8.1730   43.9080   48.8050 F   0  0  0  0  0  0  0  0  0  0  0  0
    6.8360   45.0540   50.4100 C   0  0  0  0  0  0  0  0  0  0  0  0
    5.7660   45.0650   51.3240 C   0  0  0  0  0  0  0  0  0  0  0  0
    5.5020   46.3350   52.1000 C   0  0  0  0  0  0  0  0  0  0  0  0
    6.3390   46.3070   53.6800 S   0  0  0  0  0  0  0  0  0  0  0  0
    8.0970   46.5080   53.4880 C   0  0  0  0  0  0  0  0  0  0  0  0
    6.0670   45.0000   54.3690 O   0  0  0  0  0  0  0  0  0  0  0  0
    5.8110   47.4270   54.5300 O   0  0  0  0  0  0  0  0  0  0  0  0
   -0.1190   43.8870   53.3780 C   0  0  0  0  0  0  0  0  0  0  0  0
   -0.6180   44.2660   54.5710 N   0  0  0  0  0  0  0  0  0  0  0  0
   -1.9920   44.0350   55.0160 C   0  0  0  0  0  0  0  0  0  0  0  0
   -1.3500   47.4102   59.7011 H   0  0  0  0  0  0  0  0  0  0  0  0
   -0.1636   48.2051   58.6115 H   0  0  0  0  0  0  0  0  0  0  0  0
   -1.8794   48.7366   58.6115 H   0  0  0  0  0  0  0  0  0  0  0  0
   -1.7518   45.8840   58.0910 H   0  0  0  0  0  0  0  0  0  0  0  0
   -2.3897   47.1974   57.0449 H   0  0  0  0  0  0  0  0  0  0  0  0
    2.4932   45.3752   54.7229 H   0  0  0  0  0  0  0  0  0  0  0  0
    4.0270   43.6020   53.4110 H   0  0  0  0  0  0  0  0  0  0  0  0
    4.7031   41.8309   50.8684 H   0  0  0  0  0  0  0  0  0  0  0  0
    6.6117   41.8436   49.2727 H   0  0  0  0  0  0  0  0  0  0  0  0
    7.4418   45.9614   50.2699 H   0  0  0  0  0  0  0  0  0  0  0  0
    5.8636   47.1946   51.5167 H   0  0  0  0  0  0  0  0  0  0  0  0
    4.4197   46.4179   52.2784 H   0  0  0  0  0  0  0  0  0  0  0  0
    8.5703   46.5621   54.4795 H   0  0  0  0  0  0  0  0  0  0  0  0
    8.5056   45.6507   52.9329 H   0  0  0  0  0  0  0  0  0  0  0  0
    8.3016   47.4354   52.9329 H   0  0  0  0  0  0  0  0  0  0  0  0
   -0.6764   43.3472   52.5983 H   0  0  0  0  0  0  0  0  0  0  0  0
   -2.0253   44.0294   56.1155 H   0  0  0  0  0  0  0  0  0  0  0  0
   -2.6409   44.8366   54.6336 H   0  0  0  0  0  0  0  0  0  0  0  0
   -2.3431   43.0652   54.6336 H   0  0  0  0  0  0  0  0  0  0  0  0
  1  2  1  0
  2  3  1  0
  3  4  1  0
  4  5  2  0
  4  6  1  0
  6  7  2  0
  7  8  1  0
  8  9  1  0
  9 10  2  0
  9 11  2  0
  9 12  1  0
 12 13  1  0
 13 14  2  0
 14 15  1  0
 15 16  2  0
 16 17  1  0
 16 18  1  0
 18 19  2  0
 19 20  1  0
 20 21  1  0
 21 22  1  0
 21 23  2  0
 21 24  2  0
  8 25  2  0
 25 26  1  0
 26 27  1  0
 26  6  1  0
 19 13  1  0
  1 28  1  0
  1 29  1  0
  1 30  1  0
  2 31  1  0
  2 32  1  0
  7 33  1  0
 12 34  1  0
 14 35  1  0
 15 36  1  0
 18 37  1  0
 20 38  1  0
 20 39  1  0
 22 40  1  0
 22 41  1  0
 22 42  1  0
 25 43  1  0
 27 44  1  0
 27 45  1  0
 27 46  1  0
M  END
>  <meeko>  (5) 
{"is_sidechain": [false], "free_energy": -7.451, "intermolecular_energy": -10.866, "internal_energy": -1.08}

$$$$
