ligand_52_conformer_1_docked
     RDKit          3D

 43 46  0  0  0  0  0  0  0  0999 V2000
   -3.2080   45.0740   54.9040 C   0  0  0  0  0  0  0  0  0  0  0  0
   -1.9610   44.4640   55.5670 C   0  0  0  0  0  0  0  0  0  0  0  0
   -1.0960   43.5930   54.6280 C   0  0  0  0  0  0  0  0  0  0  0  0
   -0.2880   44.4190   53.7330 N   0  0  0  0  0  0  0  0  0  0  0  0
    0.9780   44.8230   53.9310 C   0  0  0  0  0  0  0  0  0  0  0  0
    1.3020   45.6070   52.8430 C   0  0  0  0  0  0  0  0  0  0  0  0
    2.5780   46.2890   52.5710 C   0  0  0  0  0  0  0  0  0  0  0  0
    2.6290   47.5460   52.6540 O   0  0  0  0  0  0  0  0  0  0  0  0
    3.7530   45.5480   52.2150 N   0  0  0  0  0  0  0  0  0  0  0  0
    5.0240   46.2190   51.9560 C   0  0  2  0  0  0  0  0  0  0  0  0
    5.7680   45.6360   50.7570 C   0  0  0  0  0  0  0  0  0  0  0  0
    6.2430   45.3300   52.1740 C   0  0  1  0  0  0  0  0  0  0  0  0
    7.5250   46.0080   52.6230 C   0  0  0  0  0  0  0  0  0  0  0  0
    7.4890   46.7550   53.8130 C   0  0  0  0  0  0  0  0  0  0  0  0
    8.6320   47.4070   54.2830 C   0  0  0  0  0  0  0  0  0  0  0  0
    9.8300   47.3200   53.5700 C   0  0  0  0  0  0  0  0  0  0  0  0
    9.8850   46.5820   52.3860 C   0  0  0  0  0  0  0  0  0  0  0  0
   11.0500   46.4980   51.6960 F   0  0  0  0  0  0  0  0  0  0  0  0
    8.7440   45.9280   51.9110 C   0  0  0  0  0  0  0  0  0  0  0  0
    0.2310   45.6550   52.0230 N   0  0  0  0  0  0  0  0  0  0  0  0
   -0.7200   44.9270   52.5910 N   0  0  0  0  0  0  0  0  0  0  0  0
   -1.1790   45.4390   56.4290 C   0  0  0  0  0  0  0  0  0  0  0  0
   -1.5110   44.7610   57.6180 O   0  0  0  0  0  0  0  0  0  0  0  0
   -2.2530   43.8020   56.9020 C   0  0  0  0  0  0  0  0  0  0  0  0
   -3.9067   45.4158   55.6818 H   0  0  0  0  0  0  0  0  0  0  0  0
   -2.9098   45.9280   54.2781 H   0  0  0  0  0  0  0  0  0  0  0  0
   -3.6991   44.3144   54.2781 H   0  0  0  0  0  0  0  0  0  0  0  0
   -0.4285   42.9645   55.2359 H   0  0  0  0  0  0  0  0  0  0  0  0
   -1.7658   42.9707   54.0164 H   0  0  0  0  0  0  0  0  0  0  0  0
    1.6247   44.5784   54.7866 H   0  0  0  0  0  0  0  0  0  0  0  0
    3.7420   44.5040   52.2390 H   0  0  0  0  0  0  0  0  0  0  0  0
    4.7293   47.2265   52.2849 H   0  0  0  0  0  0  0  0  0  0  0  0
    5.3009   44.8460   50.1506 H   0  0  0  0  0  0  0  0  0  0  0  0
    6.2350   46.0535   49.8528 H   0  0  0  0  0  0  0  0  0  0  0  0
    6.4413   44.4149   52.7513 H   0  0  0  0  0  0  0  0  0  0  0  0
    6.5498   46.8272   54.3811 H   0  0  0  0  0  0  0  0  0  0  0  0
    8.5884   47.9893   55.2152 H   0  0  0  0  0  0  0  0  0  0  0  0
   10.7297   47.8327   53.9411 H   0  0  0  0  0  0  0  0  0  0  0  0
    8.7950   45.3478   50.9778 H   0  0  0  0  0  0  0  0  0  0  0  0
   -0.1001   45.4450   56.2149 H   0  0  0  0  0  0  0  0  0  0  0  0
   -1.4001   46.5137   56.3504 H   0  0  0  0  0  0  0  0  0  0  0  0
   -1.8464   42.7832   56.9839 H   0  0  0  0  0  0  0  0  0  0  0  0
   -3.2996   43.6186   57.1868 H   0  0  0  0  0  0  0  0  0  0  0  0
  1  2  1  0
  2  3  1  0
  3  4  1  0
  4  5  1  0
  5  6  2  0
  6  7  1  0
  7  8  2  0
  7  9  1  0
  9 10  1  0
 10 11  1  0
 11 12  1  0
 12 13  1  0
 13 14  2  0
 14 15  1  0
 15 16  2  0
 16 17  1  0
 17 18  1  0
 17 19  2  0
  6 20  1  0
 20 21  2  0
  2 22  1  0
 22 23  1  0
 23 24  1  0
 24  2  1  0
 21  4  1  0
 12 10  1  0
 19 13  1  0
  1 25  1  0
  1 26  1  0
  1 27  1  0
  3 28  1  0
  3 29  1  0
  5 30  1  0
  9 31  1  0
 10 32  1  6
 11 33  1  0
 11 34  1  0
 12 35  1  1
 14 36  1  0
 15 37  1  0
 16 38  1  0
 19 39  1  0
 22 40  1  0
 22 41  1  0
 24 42  1  0
 24 43  1  0
M  END
>  <meeko>  (1) 
{"is_sidechain": [false], "free_energy": -8.291, "intermolecular_energy": -10.714, "internal_energy": -0.305}

$$$$
ligand_52_conformer_1_docked
     RDKit          3D

 43 46  0  0  0  0  0  0  0  0999 V2000
   -1.1860   45.0110   52.2160 C   0  0  0  0  0  0  0  0  0  0  0  0
   -1.5570   43.7390   52.9980 C   0  0  0  0  0  0  0  0  0  0  0  0
   -0.8430   42.4570   52.5130 C   0  0  0  0  0  0  0  0  0  0  0  0
    0.5310   42.7380   52.1040 N   0  0  0  0  0  0  0  0  0  0  0  0
    1.5490   43.1130   52.8970 C   0  0  0  0  0  0  0  0  0  0  0  0
    2.6340   43.2960   52.0630 C   0  0  0  0  0  0  0  0  0  0  0  0
    3.9980   43.7040   52.4350 C   0  0  0  0  0  0  0  0  0  0  0  0
    4.9460   43.4650   51.6400 O   0  0  0  0  0  0  0  0  0  0  0  0
    4.2600   44.3650   53.6810 N   0  0  0  0  0  0  0  0  0  0  0  0
    5.6090   44.7830   54.0510 C   0  0  2  0  0  0  0  0  0  0  0  0
    5.6210   45.9890   54.9860 C   0  0  0  0  0  0  0  0  0  0  0  0
    5.9940   46.1580   53.5170 C   0  0  1  0  0  0  0  0  0  0  0  0
    7.4610   46.3980   53.2100 C   0  0  0  0  0  0  0  0  0  0  0  0
    7.9000   46.1800   51.8930 C   0  0  0  0  0  0  0  0  0  0  0  0
    9.2380   46.3790   51.5420 C   0  0  0  0  0  0  0  0  0  0  0  0
   10.1580   46.8010   52.5040 C   0  0  0  0  0  0  0  0  0  0  0  0
    9.7400   47.0240   53.8180 C   0  0  0  0  0  0  0  0  0  0  0  0
   10.6350   47.4350   54.7510 F   0  0  0  0  0  0  0  0  0  0  0  0
    8.4030   46.8250   54.1740 C   0  0  0  0  0  0  0  0  0  0  0  0
    2.2450   43.0290   50.7990 N   0  0  0  0  0  0  0  0  0  0  0  0
    0.9630   42.6960   50.8540 N   0  0  0  0  0  0  0  0  0  0  0  0
   -1.5790   43.9250   54.5050 C   0  0  0  0  0  0  0  0  0  0  0  0
   -2.9760   43.7550   54.5740 O   0  0  0  0  0  0  0  0  0  0  0  0
   -3.0540   43.5620   53.1810 C   0  0  0  0  0  0  0  0  0  0  0  0
   -0.9500   45.8202   52.9228 H   0  0  0  0  0  0  0  0  0  0  0  0
   -0.3092   44.8096   51.5831 H   0  0  0  0  0  0  0  0  0  0  0  0
   -2.0336   45.3126   51.5831 H   0  0  0  0  0  0  0  0  0  0  0  0
   -0.8302   41.7223   53.3316 H   0  0  0  0  0  0  0  0  0  0  0  0
   -1.3902   42.0618   51.6444 H   0  0  0  0  0  0  0  0  0  0  0  0
    1.5231   43.2469   53.9885 H   0  0  0  0  0  0  0  0  0  0  0  0
    3.4680   44.6520   54.2990 H   0  0  0  0  0  0  0  0  0  0  0  0
    6.0785   43.7883   54.0446 H   0  0  0  0  0  0  0  0  0  0  0  0
    4.6739   46.4014   55.3641 H   0  0  0  0  0  0  0  0  0  0  0  0
    6.1064   46.2258   55.9443 H   0  0  0  0  0  0  0  0  0  0  0  0
    5.6448   46.7939   52.6901 H   0  0  0  0  0  0  0  0  0  0  0  0
    7.1815   45.8486   51.1288 H   0  0  0  0  0  0  0  0  0  0  0  0
    9.5667   46.2031   50.5071 H   0  0  0  0  0  0  0  0  0  0  0  0
   11.2110   46.9577   52.2272 H   0  0  0  0  0  0  0  0  0  0  0  0
    8.0816   47.0018   55.2110 H   0  0  0  0  0  0  0  0  0  0  0  0
   -1.0162   43.1528   55.0500 H   0  0  0  0  0  0  0  0  0  0  0  0
   -1.1318   44.8332   54.9354 H   0  0  0  0  0  0  0  0  0  0  0  0
   -3.4149   42.5625   52.8968 H   0  0  0  0  0  0  0  0  0  0  0  0
   -3.7394   44.1916   52.5946 H   0  0  0  0  0  0  0  0  0  0  0  0
  1  2  1  0
  2  3  1  0
  3  4  1  0
  4  5  1  0
  5  6  2  0
  6  7  1  0
  7  8  2  0
  7  9  1  0
  9 10  1  0
 10 11  1  0
 11 12  1  0
 12 13  1  0
 13 14  2  0
 14 15  1  0
 15 16  2  0
 16 17  1  0
 17 18  1  0
 17 19  2  0
  6 20  1  0
 20 21  2  0
  2 22  1  0
 22 23  1  0
 23 24  1  0
 24  2  1  0
 21  4  1  0
 12 10  1  0
 19 13  1  0
  1 25  1  0
  1 26  1  0
  1 27  1  0
  3 28  1  0
  3 29  1  0
  5 30  1  0
  9 31  1  0
 10 32  1  1
 11 33  1  0
 11 34  1  0
 12 35  1  6
 14 36  1  0
 15 37  1  0
 16 38  1  0
 19 39  1  0
 22 40  1  0
 22 41  1  0
 24 42  1  0
 24 43  1  0
M  END
>  <meeko>  (2) 
{"is_sidechain": [false], "free_energy": -8.174, "intermolecular_energy": -10.454, "internal_energy": -0.414}

$$$$
ligand_52_conformer_1_docked
     RDKit          3D

 43 46  0  0  0  0  0  0  0  0999 V2000
   -3.2920   45.7710   55.2850 C   0  0  0  0  0  0  0  0  0  0  0  0
   -2.2050   44.7320   55.6080 C   0  0  0  0  0  0  0  0  0  0  0  0
   -1.7990   43.8370   54.4160 C   0  0  0  0  0  0  0  0  0  0  0  0
   -0.6220   44.3670   53.7320 N   0  0  0  0  0  0  0  0  0  0  0  0
    0.6630   44.0700   53.9880 C   0  0  0  0  0  0  0  0  0  0  0  0
    1.4120   44.8360   53.1180 C   0  0  0  0  0  0  0  0  0  0  0  0
    2.8770   44.8810   52.9880 C   0  0  0  0  0  0  0  0  0  0  0  0
    3.3840   45.1990   51.8790 O   0  0  0  0  0  0  0  0  0  0  0  0
    3.7300   44.5680   54.0990 N   0  0  0  0  0  0  0  0  0  0  0  0
    5.1840   44.6210   53.9800 C   0  0  2  0  0  0  0  0  0  0  0  0
    5.8780   44.8960   55.3110 C   0  0  0  0  0  0  0  0  0  0  0  0
    5.7730   45.9980   54.2620 C   0  0  1  0  0  0  0  0  0  0  0  0
    7.0520   46.3690   53.5330 C   0  0  0  0  0  0  0  0  0  0  0  0
    7.0520   46.2940   52.1300 C   0  0  0  0  0  0  0  0  0  0  0  0
    8.1960   46.6190   51.3960 C   0  0  0  0  0  0  0  0  0  0  0  0
    9.3590   47.0240   52.0560 C   0  0  0  0  0  0  0  0  0  0  0  0
    9.3770   47.1050   53.4500 C   0  0  0  0  0  0  0  0  0  0  0  0
   10.5070   47.5010   54.0880 F   0  0  0  0  0  0  0  0  0  0  0  0
    8.2350   46.7810   54.1880 C   0  0  0  0  0  0  0  0  0  0  0  0
    0.5660   45.5700   52.3660 N   0  0  0  0  0  0  0  0  0  0  0  0
   -0.6620   45.2660   52.7630 N   0  0  0  0  0  0  0  0  0  0  0  0
   -1.0430   45.2840   56.4150 C   0  0  0  0  0  0  0  0  0  0  0  0
   -1.3820   44.5240   57.5520 O   0  0  0  0  0  0  0  0  0  0  0  0
   -2.4800   43.9510   56.8810 C   0  0  0  0  0  0  0  0  0  0  0  0
   -3.7086   46.1692   56.2220 H   0  0  0  0  0  0  0  0  0  0  0  0
   -2.8518   46.5927   54.7010 H   0  0  0  0  0  0  0  0  0  0  0  0
   -4.0930   45.2942   54.7010 H   0  0  0  0  0  0  0  0  0  0  0  0
   -1.5732   42.8264   54.7871 H   0  0  0  0  0  0  0  0  0  0  0  0
   -2.6343   43.8109   53.7007 H   0  0  0  0  0  0  0  0  0  0  0  0
    1.0413   43.3604   54.7386 H   0  0  0  0  0  0  0  0  0  0  0  0
    3.3180   44.3980   55.0440 H   0  0  0  0  0  0  0  0  0  0  0  0
    5.2935   43.8800   53.1744 H   0  0  0  0  0  0  0  0  0  0  0  0
    5.2872   44.9595   56.2367 H   0  0  0  0  0  0  0  0  0  0  0  0
    6.7027   44.4294   55.8696 H   0  0  0  0  0  0  0  0  0  0  0  0
    5.3825   47.0262   54.2452 H   0  0  0  0  0  0  0  0  0  0  0  0
    6.1405   45.9756   51.6029 H   0  0  0  0  0  0  0  0  0  0  0  0
    8.1808   46.5559   50.2979 H   0  0  0  0  0  0  0  0  0  0  0  0
   10.2596   47.2788   51.4781 H   0  0  0  0  0  0  0  0  0  0  0  0
    8.2570   46.8471   55.2858 H   0  0  0  0  0  0  0  0  0  0  0  0
   -0.0584   45.0295   55.9956 H   0  0  0  0  0  0  0  0  0  0  0  0
   -0.9366   46.3741   56.5166 H   0  0  0  0  0  0  0  0  0  0  0  0
   -2.3954   42.8617   56.7534 H   0  0  0  0  0  0  0  0  0  0  0  0
   -3.4773   44.0175   57.3404 H   0  0  0  0  0  0  0  0  0  0  0  0
  1  2  1  0
  2  3  1  0
  3  4  1  0
  4  5  1  0
  5  6  2  0
  6  7  1  0
  7  8  2  0
  7  9  1  0
  9 10  1  0
 10 11  1  0
 11 12  1  0
 12 13  1  0
 13 14  2  0
 14 15  1  0
 15 16  2  0
 16 17  1  0
 17 18  1  0
 17 19  2  0
  6 20  1  0
 20 21  2  0
  2 22  1  0
 22 23  1  0
 23 24  1  0
 24  2  1  0
 21  4  1  0
 12 10  1  0
 19 13  1  0
  1 25  1  0
  1 26  1  0
  1 27  1  0
  3 28  1  0
  3 29  1  0
  5 30  1  0
  9 31  1  0
 10 32  1  6
 11 33  1  0
 11 34  1  0
 12 35  1  1
 14 36  1  0
 15 37  1  0
 16 38  1  0
 19 39  1  0
 22 40  1  0
 22 41  1  0
 24 42  1  0
 24 43  1  0
M  END
>  <meeko>  (3) 
{"is_sidechain": [false], "free_energy": -8.014, "intermolecular_energy": -10.265, "internal_energy": -0.397}

$$$$
ligand_52_conformer_1_docked
     RDKit          3D

 43 46  0  0  0  0  0  0  0  0999 V2000
    4.5590   41.6710   44.9410 C   0  0  0  0  0  0  0  0  0  0  0  0
    3.3930   40.7330   45.2950 C   0  0  0  0  0  0  0  0  0  0  0  0
    3.7310   39.6610   46.3560 C   0  0  0  0  0  0  0  0  0  0  0  0
    3.9030   40.2590   47.6780 N   0  0  0  0  0  0  0  0  0  0  0  0
    4.8160   41.1780   48.0350 C   0  0  0  0  0  0  0  0  0  0  0  0
    4.6180   41.4080   49.3820 C   0  0  0  0  0  0  0  0  0  0  0  0
    5.3550   42.3340   50.2560 C   0  0  0  0  0  0  0  0  0  0  0  0
    6.5920   42.1600   50.4270 O   0  0  0  0  0  0  0  0  0  0  0  0
    4.6890   43.4220   50.9130 N   0  0  0  0  0  0  0  0  0  0  0  0
    5.4170   44.3500   51.7720 C   0  0  2  0  0  0  0  0  0  0  0  0
    4.8040   45.7480   51.7890 C   0  0  0  0  0  0  0  0  0  0  0  0
    6.0920   45.4880   51.0140 C   0  0  1  0  0  0  0  0  0  0  0  0
    7.3690   46.0560   51.6070 C   0  0  0  0  0  0  0  0  0  0  0  0
    7.2480   46.9920   52.6500 C   0  0  0  0  0  0  0  0  0  0  0  0
    8.3820   47.5560   53.2390 C   0  0  0  0  0  0  0  0  0  0  0  0
    9.6560   47.1930   52.7950 C   0  0  0  0  0  0  0  0  0  0  0  0
    9.7950   46.2640   51.7610 C   0  0  0  0  0  0  0  0  0  0  0  0
   11.0330   45.9120   51.3320 F   0  0  0  0  0  0  0  0  0  0  0  0
    8.6630   45.6970   51.1680 C   0  0  0  0  0  0  0  0  0  0  0  0
    3.5990   40.6260   49.7980 N   0  0  0  0  0  0  0  0  0  0  0  0
    3.1870   39.9380   48.7430 N   0  0  0  0  0  0  0  0  0  0  0  0
    2.0690   41.4460   45.5100 C   0  0  0  0  0  0  0  0  0  0  0  0
    1.4980   40.8800   44.3540 O   0  0  0  0  0  0  0  0  0  0  0  0
    2.6830   40.1710   44.0760 C   0  0  0  0  0  0  0  0  0  0  0  0
    5.0230   42.0443   45.8658 H   0  0  0  0  0  0  0  0  0  0  0  0
    5.3070   41.1200   44.3520 H   0  0  0  0  0  0  0  0  0  0  0  0
    4.1810   42.5196   44.3520 H   0  0  0  0  0  0  0  0  0  0  0  0
    2.9122   38.9277   46.3981 H   0  0  0  0  0  0  0  0  0  0  0  0
    4.6748   39.1740   46.0695 H   0  0  0  0  0  0  0  0  0  0  0  0
    5.5680   41.6508   47.3862 H   0  0  0  0  0  0  0  0  0  0  0  0
    3.6880   43.6280   50.7000 H   0  0  0  0  0  0  0  0  0  0  0  0
    5.7409   43.6241   52.5323 H   0  0  0  0  0  0  0  0  0  0  0  0
    3.8665   45.9443   51.2480 H   0  0  0  0  0  0  0  0  0  0  0  0
    4.4979   46.4539   52.5751 H   0  0  0  0  0  0  0  0  0  0  0  0
    6.4236   45.6380   49.9760 H   0  0  0  0  0  0  0  0  0  0  0  0
    6.2487   47.2832   53.0059 H   0  0  0  0  0  0  0  0  0  0  0  0
    8.2719   48.2870   54.0536 H   0  0  0  0  0  0  0  0  0  0  0  0
   10.5485   47.6382   53.2590 H   0  0  0  0  0  0  0  0  0  0  0  0
    8.7806   44.9664   50.3541 H   0  0  0  0  0  0  0  0  0  0  0  0
    1.5591   41.1521   46.4393 H   0  0  0  0  0  0  0  0  0  0  0  0
    2.0666   42.5402   45.6231 H   0  0  0  0  0  0  0  0  0  0  0  0
    2.5574   39.0786   44.1071 H   0  0  0  0  0  0  0  0  0  0  0  0
    3.1519   40.2860   43.0876 H   0  0  0  0  0  0  0  0  0  0  0  0
  1  2  1  0
  2  3  1  0
  3  4  1  0
  4  5  1  0
  5  6  2  0
  6  7  1  0
  7  8  2  0
  7  9  1  0
  9 10  1  0
 10 11  1  0
 11 12  1  0
 12 13  1  0
 13 14  2  0
 14 15  1  0
 15 16  2  0
 16 17  1  0
 17 18  1  0
 17 19  2  0
  6 20  1  0
 20 21  2  0
  2 22  1  0
 22 23  1  0
 23 24  1  0
 24  2  1  0
 21  4  1  0
 12 10  1  0
 19 13  1  0
  1 25  1  0
  1 26  1  0
  1 27  1  0
  3 28  1  0
  3 29  1  0
  5 30  1  0
  9 31  1  0
 10 32  1  1
 11 33  1  0
 11 34  1  0
 12 35  1  6
 14 36  1  0
 15 37  1  0
 16 38  1  0
 19 39  1  0
 22 40  1  0
 22 41  1  0
 24 42  1  0
 24 43  1  0
M  END
>  <meeko>  (4) 
{"is_sidechain": [false], "free_energy": -7.858, "intermolecular_energy": -10.204, "internal_energy": -0.257}

$$$$
ligand_52_conformer_1_docked
     RDKit          3D

 43 46  0  0  0  0  0  0  0  0999 V2000
   -3.9100   43.8390   52.4280 C   0  0  0  0  0  0  0  0  0  0  0  0
   -2.9190   44.9500   52.8170 C   0  0  0  0  0  0  0  0  0  0  0  0
   -2.1470   44.6900   54.1300 C   0  0  0  0  0  0  0  0  0  0  0  0
   -0.8820   44.0040   53.8750 N   0  0  0  0  0  0  0  0  0  0  0  0
    0.3390   44.5600   53.8120 C   0  0  0  0  0  0  0  0  0  0  0  0
    1.2110   43.5320   53.5140 C   0  0  0  0  0  0  0  0  0  0  0  0
    2.6700   43.6090   53.3390 C   0  0  0  0  0  0  0  0  0  0  0  0
    3.2100   42.9600   52.4030 O   0  0  0  0  0  0  0  0  0  0  0  0
    3.4800   44.4070   54.2140 N   0  0  0  0  0  0  0  0  0  0  0  0
    4.9270   44.4970   54.0390 C   0  0  2  0  0  0  0  0  0  0  0  0
    5.6570   44.8720   55.3250 C   0  0  0  0  0  0  0  0  0  0  0  0
    5.4810   45.9060   54.2180 C   0  0  1  0  0  0  0  0  0  0  0  0
    6.7220   46.2700   53.4220 C   0  0  0  0  0  0  0  0  0  0  0  0
    7.7300   46.9980   54.0780 C   0  0  0  0  0  0  0  0  0  0  0  0
    8.8970   47.3680   53.4040 C   0  0  0  0  0  0  0  0  0  0  0  0
    9.0740   47.0160   52.0650 C   0  0  0  0  0  0  0  0  0  0  0  0
    8.0830   46.2920   51.3970 C   0  0  0  0  0  0  0  0  0  0  0  0
    8.2580   45.9500   50.0970 F   0  0  0  0  0  0  0  0  0  0  0  0
    6.9140   45.9190   52.0660 C   0  0  0  0  0  0  0  0  0  0  0  0
    0.4980   42.3920   53.4050 N   0  0  0  0  0  0  0  0  0  0  0  0
   -0.7700   42.7090   53.6260 N   0  0  0  0  0  0  0  0  0  0  0  0
   -2.0650   45.4470   51.6640 C   0  0  0  0  0  0  0  0  0  0  0  0
   -2.6840   46.7110   51.6590 O   0  0  0  0  0  0  0  0  0  0  0  0
   -3.5160   46.3430   52.7350 C   0  0  0  0  0  0  0  0  0  0  0  0
   -4.3207   43.3786   53.3387 H   0  0  0  0  0  0  0  0  0  0  0  0
   -4.7291   44.2699   51.8336 H   0  0  0  0  0  0  0  0  0  0  0  0
   -3.3886   43.0742   51.8336 H   0  0  0  0  0  0  0  0  0  0  0  0
   -1.9401   45.6525   54.6207 H   0  0  0  0  0  0  0  0  0  0  0  0
   -2.7656   44.0492   54.7755 H   0  0  0  0  0  0  0  0  0  0  0  0
    0.5926   45.6192   53.9664 H   0  0  0  0  0  0  0  0  0  0  0  0
    3.0310   45.0220   54.9280 H   0  0  0  0  0  0  0  0  0  0  0  0
    5.0324   43.7129   53.2748 H   0  0  0  0  0  0  0  0  0  0  0  0
    5.0967   44.9730   56.2662 H   0  0  0  0  0  0  0  0  0  0  0  0
    6.5150   44.4645   55.8797 H   0  0  0  0  0  0  0  0  0  0  0  0
    5.0577   46.9193   54.1553 H   0  0  0  0  0  0  0  0  0  0  0  0
    7.5987   47.2795   55.1332 H   0  0  0  0  0  0  0  0  0  0  0  0
    9.6775   47.9377   53.9297 H   0  0  0  0  0  0  0  0  0  0  0  0
    9.9930   47.3083   51.5359 H   0  0  0  0  0  0  0  0  0  0  0  0
    6.1383   45.3486   51.5341 H   0  0  0  0  0  0  0  0  0  0  0  0
   -0.9912   45.4862   51.8996 H   0  0  0  0  0  0  0  0  0  0  0  0
   -2.0399   44.8640   50.7315 H   0  0  0  0  0  0  0  0  0  0  0  0
   -3.3514   46.9441   53.6414 H   0  0  0  0  0  0  0  0  0  0  0  0
   -4.6054   46.4489   52.6250 H   0  0  0  0  0  0  0  0  0  0  0  0
  1  2  1  0
  2  3  1  0
  3  4  1  0
  4  5  1  0
  5  6  2  0
  6  7  1  0
  7  8  2  0
  7  9  1  0
  9 10  1  0
 10 11  1  0
 11 12  1  0
 12 13  1  0
 13 14  2  0
 14 15  1  0
 15 16  2  0
 16 17  1  0
 17 18  1  0
 17 19  2  0
  6 20  1  0
 20 21  2  0
  2 22  1  0
 22 23  1  0
 23 24  1  0
 24  2  1  0
 21  4  1  0
 12 10  1  0
 19 13  1  0
  1 25  1  0
  1 26  1  0
  1 27  1  0
  3 28  1  0
  3 29  1  0
  5 30  1  0
  9 31  1  0
 10 32  1  6
 11 33  1  0
 11 34  1  0
 12 35  1  1
 14 36  1  0
 15 37  1  0
 16 38  1  0
 19 39  1  0
 22 40  1  0
 22 41  1  0
 24 42  1  0
 24 43  1  0
M  END
>  <meeko>  (5) 
{"is_sidechain": [false], "free_energy": -7.664, "intermolecular_energy": -9.789, "internal_energy": -0.42}

$$$$
