MODEL 1
REMARK VINA RESULT:    -7.928      0.000      0.000
REMARK INTER + INTRA:         -12.685
REMARK INTER:                 -11.636
REMARK INTRA:                  -1.049
REMARK UNBOUND:                -1.049
REMARK SMILES CCOC(=O)c1cc(S(=O)(=O)Nc2ccc(F)cc2CS(C)(=O)=O)cn1C
REMARK SMILES IDX 9 1 10 2 11 3 8 4 6 5 7 6 26 7 25 8 27 9 4 10 5 11 3 12 2 13
REMARK SMILES IDX 1 14 12 15 13 17 14 18 19 19 15 20 18 21 16 22 17 23 20 24
REMARK SMILES IDX 21 25 23 26 24 27 22 28
REMARK H PARENT 12 16
ROOT
ATOM      1  S   UNL     1       4.078  45.700  54.148  1.00  0.00     0.263 S 
ATOM      2  O   UNL     1       4.975  44.557  54.529  1.00  0.00    -0.201 OA
ATOM      3  O   UNL     1       3.920  46.620  55.325  1.00  0.00    -0.201 OA
ENDROOT
BRANCH   1   4
ATOM      4  C   UNL     1       2.496  45.102  53.682  1.00  0.00     0.106 A 
ATOM      5  C   UNL     1       0.615  43.954  53.612  1.00  0.00     0.128 A 
ATOM      6  C   UNL     1       1.846  44.022  54.241  1.00  0.00     0.057 A 
ATOM      7  N   UNL     1       0.506  44.952  52.699  1.00  0.00    -0.344 N 
ATOM      8  C   UNL     1       1.654  45.657  52.742  1.00  0.00     0.108 A 
ATOM      9  C   UNL     1      -0.630  45.251  51.830  1.00  0.00     0.150 C 
BRANCH   5  10
ATOM     10  C   UNL     1      -0.417  42.944  53.923  1.00  0.00     0.354 C 
ATOM     11  O   UNL     1      -0.326  41.774  53.464  1.00  0.00    -0.244 OA
BRANCH  10  12
ATOM     12  O   UNL     1      -1.502  43.305  54.730  1.00  0.00    -0.461 OA
BRANCH  12  13
ATOM     13  C   UNL     1      -1.632  44.584  55.348  1.00  0.00     0.230 C 
ATOM     14  C   UNL     1      -1.273  44.505  56.827  1.00  0.00     0.049 C 
ENDBRANCH  12  13
ENDBRANCH  10  12
ENDBRANCH   5  10
ENDBRANCH   1   4
BRANCH   1  15
ATOM     15  N   UNL     1       4.783  46.569  52.824  1.00  0.00    -0.279 N 
ATOM     16  H   UNL     1       4.442  47.541  52.661  1.00  0.00     0.180 HD
BRANCH  15  17
ATOM     17  C   UNL     1       5.683  45.946  51.891  1.00  0.00     0.053 A 
ATOM     18  C   UNL     1       5.277  44.792  51.196  1.00  0.00     0.030 A 
ATOM     19  C   UNL     1       6.981  46.471  51.659  1.00  0.00    -0.006 A 
ATOM     20  C   UNL     1       6.131  44.168  50.287  1.00  0.00     0.041 A 
ATOM     21  C   UNL     1       7.831  45.824  50.743  1.00  0.00     0.046 A 
ATOM     22  C   UNL     1       7.406  44.682  50.061  1.00  0.00     0.123 A 
ATOM     23  F   UNL     1       8.236  44.072  49.178  1.00  0.00    -0.207 F 
BRANCH  19  24
ATOM     24  C   UNL     1       7.487  47.716  52.349  1.00  0.00     0.174 C 
BRANCH  24  25
ATOM     25  S   UNL     1       8.375  47.304  53.846  1.00  0.00     0.151 S 
ATOM     26  O   UNL     1       8.758  48.566  54.567  1.00  0.00    -0.229 OA
ATOM     27  O   UNL     1       7.480  46.486  54.733  1.00  0.00    -0.229 OA
ATOM     28  C   UNL     1       9.847  46.366  53.493  1.00  0.00     0.158 C 
ENDBRANCH  24  25
ENDBRANCH  19  24
ENDBRANCH  15  17
ENDBRANCH   1  15
TORSDOF 8
ENDMDL
MODEL 2
REMARK VINA RESULT:    -7.876      1.595      2.302
REMARK INTER + INTRA:         -12.608
REMARK INTER:                 -11.464
REMARK INTRA:                  -1.144
REMARK UNBOUND:                -1.049
REMARK SMILES CCOC(=O)c1cc(S(=O)(=O)Nc2ccc(F)cc2CS(C)(=O)=O)cn1C
REMARK SMILES IDX 9 1 10 2 11 3 8 4 6 5 7 6 26 7 25 8 27 9 4 10 5 11 3 12 2 13
REMARK SMILES IDX 1 14 12 15 13 17 14 18 19 19 15 20 18 21 16 22 17 23 20 24
REMARK SMILES IDX 21 25 23 26 24 27 22 28
REMARK H PARENT 12 16
ROOT
ATOM      1  S   UNL     1       3.248  46.473  52.119  1.00  0.00     0.263 S 
ATOM      2  O   UNL     1       3.166  47.868  52.670  1.00  0.00    -0.201 OA
ATOM      3  O   UNL     1       3.130  46.523  50.622  1.00  0.00    -0.201 OA
ENDROOT
BRANCH   1   4
ATOM      4  C   UNL     1       1.941  45.491  52.756  1.00  0.00     0.106 A 
ATOM      5  C   UNL     1       0.457  43.885  53.037  1.00  0.00     0.128 A 
ATOM      6  C   UNL     1       1.416  44.364  52.161  1.00  0.00     0.057 A 
ATOM      7  N   UNL     1       0.390  44.683  54.132  1.00  0.00    -0.344 N 
ATOM      8  C   UNL     1       1.300  45.664  53.964  1.00  0.00     0.108 A 
ATOM      9  C   UNL     1      -0.474  44.530  55.300  1.00  0.00     0.150 C 
BRANCH   5  10
ATOM     10  C   UNL     1      -0.347  42.669  52.796  1.00  0.00     0.354 C 
ATOM     11  O   UNL     1      -0.185  41.644  53.510  1.00  0.00    -0.244 OA
BRANCH  10  12
ATOM     12  O   UNL     1      -1.286  42.668  51.758  1.00  0.00    -0.461 OA
BRANCH  12  13
ATOM     13  C   UNL     1      -2.373  43.589  51.679  1.00  0.00     0.230 C 
ATOM     14  C   UNL     1      -2.207  44.513  50.478  1.00  0.00     0.049 C 
ENDBRANCH  12  13
ENDBRANCH  10  12
ENDBRANCH   5  10
ENDBRANCH   1   4
BRANCH   1  15
ATOM     15  N   UNL     1       4.770  45.769  52.557  1.00  0.00    -0.279 N 
ATOM     16  H   UNL     1       5.073  45.876  53.550  1.00  0.00     0.180 HD
BRANCH  15  17
ATOM     17  C   UNL     1       5.658  45.194  51.582  1.00  0.00     0.053 A 
ATOM     18  C   UNL     1       5.337  43.957  50.994  1.00  0.00     0.030 A 
ATOM     19  C   UNL     1       6.857  45.850  51.201  1.00  0.00    -0.006 A 
ATOM     20  C   UNL     1       6.182  43.377  50.047  1.00  0.00     0.041 A 
ATOM     21  C   UNL     1       7.698  45.246  50.249  1.00  0.00     0.046 A 
ATOM     22  C   UNL     1       7.360  44.019  49.675  1.00  0.00     0.123 A 
ATOM     23  F   UNL     1       8.180  43.452  48.756  1.00  0.00    -0.207 F 
BRANCH  19  24
ATOM     24  C   UNL     1       7.264  47.189  51.770  1.00  0.00     0.174 C 
BRANCH  24  25
ATOM     25  S   UNL     1       8.224  46.986  53.265  1.00  0.00     0.151 S 
ATOM     26  O   UNL     1       8.401  48.321  53.934  1.00  0.00    -0.229 OA
ATOM     27  O   UNL     1       7.486  46.066  54.197  1.00  0.00    -0.229 OA
ATOM     28  C   UNL     1       9.827  46.291  52.921  1.00  0.00     0.158 C 
ENDBRANCH  24  25
ENDBRANCH  19  24
ENDBRANCH  15  17
ENDBRANCH   1  15
TORSDOF 8
ENDMDL
MODEL 3
REMARK VINA RESULT:    -7.802      2.632      7.515
REMARK INTER + INTRA:         -12.500
REMARK INTER:                 -11.342
REMARK INTRA:                  -1.158
REMARK UNBOUND:                -1.049
REMARK SMILES CCOC(=O)c1cc(S(=O)(=O)Nc2ccc(F)cc2CS(C)(=O)=O)cn1C
REMARK SMILES IDX 9 1 10 2 11 3 8 4 6 5 7 6 26 7 25 8 27 9 4 10 5 11 3 12 2 13
REMARK SMILES IDX 1 14 12 15 13 17 14 18 19 19 15 20 18 21 16 22 17 23 20 24
REMARK SMILES IDX 21 25 23 26 24 27 22 28
REMARK H PARENT 12 16
ROOT
ATOM      1  S   UNL     1       4.600  45.698  54.072  1.00  0.00     0.263 S 
ATOM      2  O   UNL     1       3.769  46.722  54.793  1.00  0.00    -0.201 OA
ATOM      3  O   UNL     1       4.882  44.548  54.997  1.00  0.00    -0.201 OA
ENDROOT
BRANCH   1   4
ATOM      4  C   UNL     1       6.124  46.402  53.564  1.00  0.00     0.106 A 
ATOM      5  C   UNL     1       8.270  46.722  53.172  1.00  0.00     0.128 A 
ATOM      6  C   UNL     1       7.375  45.873  53.799  1.00  0.00     0.057 A 
ATOM      7  N   UNL     1       7.601  47.738  52.571  1.00  0.00    -0.344 N 
ATOM      8  C   UNL     1       6.288  47.542  52.806  1.00  0.00     0.108 A 
ATOM      9  C   UNL     1       8.159  48.840  51.790  1.00  0.00     0.150 C 
BRANCH   5  10
ATOM     10  C   UNL     1       9.732  46.516  53.159  1.00  0.00     0.354 C 
ATOM     11  O   UNL     1      10.257  45.704  52.351  1.00  0.00    -0.244 OA
BRANCH  10  12
ATOM     12  O   UNL     1      10.529  47.229  54.062  1.00  0.00    -0.461 OA
BRANCH  12  13
ATOM     13  C   UNL     1      10.061  47.694  55.328  1.00  0.00     0.230 C 
ATOM     14  C   UNL     1      11.124  47.489  56.401  1.00  0.00     0.049 C 
ENDBRANCH  12  13
ENDBRANCH  10  12
ENDBRANCH   5  10
ENDBRANCH   1   4
BRANCH   1  15
ATOM     15  N   UNL     1       3.733  45.126  52.685  1.00  0.00    -0.279 N 
ATOM     16  H   UNL     1       2.773  45.506  52.537  1.00  0.00     0.180 HD
BRANCH  15  17
ATOM     17  C   UNL     1       4.235  44.067  51.851  1.00  0.00     0.053 A 
ATOM     18  C   UNL     1       5.400  44.273  51.090  1.00  0.00     0.030 A 
ATOM     19  C   UNL     1       3.574  42.813  51.777  1.00  0.00    -0.006 A 
ATOM     20  C   UNL     1       5.906  43.263  50.272  1.00  0.00     0.041 A 
ATOM     21  C   UNL     1       4.097  41.809  50.941  1.00  0.00     0.046 A 
ATOM     22  C   UNL     1       5.256  42.033  50.197  1.00  0.00     0.123 A 
ATOM     23  F   UNL     1       5.749  41.053  49.400  1.00  0.00    -0.207 F 
BRANCH  19  24
ATOM     24  C   UNL     1       2.329  42.505  52.575  1.00  0.00     0.174 C 
BRANCH  24  25
ATOM     25  S   UNL     1       0.874  43.174  51.781  1.00  0.00     0.151 S 
ATOM     26  O   UNL     1       0.794  44.653  52.043  1.00  0.00    -0.229 OA
ATOM     27  O   UNL     1       0.978  42.944  50.300  1.00  0.00    -0.229 OA
ATOM     28  C   UNL     1      -0.611  42.398  52.382  1.00  0.00     0.158 C 
ENDBRANCH  24  25
ENDBRANCH  19  24
ENDBRANCH  15  17
ENDBRANCH   1  15
TORSDOF 8
ENDMDL
MODEL 4
REMARK VINA RESULT:    -7.616      1.000      1.865
REMARK INTER + INTRA:         -12.227
REMARK INTER:                 -11.012
REMARK INTRA:                  -1.215
REMARK UNBOUND:                -1.049
REMARK SMILES CCOC(=O)c1cc(S(=O)(=O)Nc2ccc(F)cc2CS(C)(=O)=O)cn1C
REMARK SMILES IDX 9 1 10 2 11 3 8 4 6 5 7 6 26 7 25 8 27 9 4 10 5 11 3 12 2 13
REMARK SMILES IDX 1 14 12 15 13 17 14 18 19 19 15 20 18 21 16 22 17 23 20 24
REMARK SMILES IDX 21 25 23 26 24 27 22 28
REMARK H PARENT 12 16
ROOT
ATOM      1  S   UNL     1       4.333  45.407  54.107  1.00  0.00     0.263 S 
ATOM      2  O   UNL     1       5.254  44.242  54.334  1.00  0.00    -0.201 OA
ATOM      3  O   UNL     1       4.664  46.499  55.085  1.00  0.00    -0.201 OA
ENDROOT
BRANCH   1   4
ATOM      4  C   UNL     1       2.665  44.918  54.349  1.00  0.00     0.106 A 
ATOM      5  C   UNL     1       0.726  43.884  54.170  1.00  0.00     0.128 A 
ATOM      6  C   UNL     1       1.976  44.000  53.586  1.00  0.00     0.057 A 
ATOM      7  N   UNL     1       0.644  44.699  55.252  1.00  0.00    -0.344 N 
ATOM      8  C   UNL     1       1.830  45.330  55.365  1.00  0.00     0.108 A 
ATOM      9  C   UNL     1      -0.489  44.872  56.159  1.00  0.00     0.150 C 
BRANCH   5  10
ATOM     10  C   UNL     1      -0.335  42.984  53.676  1.00  0.00     0.354 C 
ATOM     11  O   UNL     1      -0.227  41.735  53.808  1.00  0.00    -0.244 OA
BRANCH  10  12
ATOM     12  O   UNL     1      -1.460  43.535  53.052  1.00  0.00    -0.461 OA
BRANCH  12  13
ATOM     13  C   UNL     1      -1.391  44.355  51.886  1.00  0.00     0.230 C 
ATOM     14  C   UNL     1      -0.865  43.557  50.699  1.00  0.00     0.049 C 
ENDBRANCH  12  13
ENDBRANCH  10  12
ENDBRANCH   5  10
ENDBRANCH   1   4
BRANCH   1  15
ATOM     15  N   UNL     1       4.536  45.996  52.490  1.00  0.00    -0.279 N 
ATOM     16  H   UNL     1       3.795  46.630  52.120  1.00  0.00     0.180 HD
BRANCH  15  17
ATOM     17  C   UNL     1       5.588  45.524  51.629  1.00  0.00     0.053 A 
ATOM     18  C   UNL     1       5.368  44.398  50.815  1.00  0.00     0.030 A 
ATOM     19  C   UNL     1       6.850  46.172  51.585  1.00  0.00    -0.006 A 
ATOM     20  C   UNL     1       6.371  43.920  49.972  1.00  0.00     0.041 A 
ATOM     21  C   UNL     1       7.851  45.671  50.734  1.00  0.00     0.046 A 
ATOM     22  C   UNL     1       7.611  44.554  49.931  1.00  0.00     0.123 A 
ATOM     23  F   UNL     1       8.585  44.086  49.113  1.00  0.00    -0.207 F 
BRANCH  19  24
ATOM     24  C   UNL     1       7.160  47.397  52.413  1.00  0.00     0.174 C 
BRANCH  24  25
ATOM     25  S   UNL     1       8.207  46.985  53.802  1.00  0.00     0.151 S 
ATOM     26  O   UNL     1       7.886  47.891  54.959  1.00  0.00    -0.229 OA
ATOM     27  O   UNL     1       7.941  45.563  54.207  1.00  0.00    -0.229 OA
ATOM     28  C   UNL     1       9.931  47.155  53.392  1.00  0.00     0.158 C 
ENDBRANCH  24  25
ENDBRANCH  19  24
ENDBRANCH  15  17
ENDBRANCH   1  15
TORSDOF 8
ENDMDL
MODEL 5
REMARK VINA RESULT:    -7.595      3.134      7.613
REMARK INTER + INTRA:         -12.195
REMARK INTER:                 -11.005
REMARK INTRA:                  -1.190
REMARK UNBOUND:                -1.049
REMARK SMILES CCOC(=O)c1cc(S(=O)(=O)Nc2ccc(F)cc2CS(C)(=O)=O)cn1C
REMARK SMILES IDX 9 1 10 2 11 3 8 4 6 5 7 6 26 7 25 8 27 9 4 10 5 11 3 12 2 13
REMARK SMILES IDX 1 14 12 15 13 17 14 18 19 19 15 20 18 21 16 22 17 23 20 24
REMARK SMILES IDX 21 25 23 26 24 27 22 28
REMARK H PARENT 12 16
ROOT
ATOM      1  S   UNL     1       3.504  45.889  53.835  1.00  0.00     0.263 S 
ATOM      2  O   UNL     1       2.362  46.654  53.226  1.00  0.00    -0.201 OA
ATOM      3  O   UNL     1       3.675  46.310  55.267  1.00  0.00    -0.201 OA
ENDROOT
BRANCH   1   4
ATOM      4  C   UNL     1       4.991  46.224  52.966  1.00  0.00     0.106 A 
ATOM      5  C   UNL     1       6.927  47.085  52.359  1.00  0.00     0.128 A 
ATOM      6  C   UNL     1       5.881  47.236  53.253  1.00  0.00     0.057 A 
ATOM      7  N   UNL     1       6.694  46.022  51.549  1.00  0.00    -0.344 N 
ATOM      8  C   UNL     1       5.511  45.491  51.921  1.00  0.00     0.108 A 
ATOM      9  C   UNL     1       7.546  45.505  50.481  1.00  0.00     0.150 C 
BRANCH   5  10
ATOM     10  C   UNL     1       8.118  47.958  52.327  1.00  0.00     0.354 C 
ATOM     11  O   UNL     1       7.993  49.207  52.222  1.00  0.00    -0.244 OA
BRANCH  10  12
ATOM     12  O   UNL     1       9.390  47.378  52.406  1.00  0.00    -0.461 OA
BRANCH  12  13
ATOM     13  C   UNL     1       9.787  46.493  53.452  1.00  0.00     0.230 C 
ATOM     14  C   UNL     1      10.049  47.266  54.740  1.00  0.00     0.049 C 
ENDBRANCH  12  13
ENDBRANCH  10  12
ENDBRANCH   5  10
ENDBRANCH   1   4
BRANCH   1  15
ATOM     15  N   UNL     1       3.161  44.192  53.766  1.00  0.00    -0.279 N 
ATOM     16  H   UNL     1       3.946  43.541  53.988  1.00  0.00     0.180 HD
BRANCH  15  17
ATOM     17  C   UNL     1       1.906  43.682  53.281  1.00  0.00     0.053 A 
ATOM     18  C   UNL     1       0.839  43.492  54.179  1.00  0.00     0.030 A 
ATOM     19  C   UNL     1       1.722  43.362  51.911  1.00  0.00    -0.006 A 
ATOM     20  C   UNL     1      -0.388  42.998  53.734  1.00  0.00     0.041 A 
ATOM     21  C   UNL     1       0.480  42.859  51.484  1.00  0.00     0.046 A 
ATOM     22  C   UNL     1      -0.568  42.681  52.390  1.00  0.00     0.123 A 
ATOM     23  F   UNL     1      -1.760  42.199  51.961  1.00  0.00    -0.207 F 
BRANCH  19  24
ATOM     24  C   UNL     1       2.810  43.555  50.881  1.00  0.00     0.174 C 
BRANCH  24  25
ATOM     25  S   UNL     1       3.849  42.105  50.766  1.00  0.00     0.151 S 
ATOM     26  O   UNL     1       4.109  41.562  52.143  1.00  0.00    -0.229 OA
ATOM     27  O   UNL     1       3.138  41.059  49.954  1.00  0.00    -0.229 OA
ATOM     28  C   UNL     1       5.405  42.479  49.985  1.00  0.00     0.158 C 
ENDBRANCH  24  25
ENDBRANCH  19  24
ENDBRANCH  15  17
ENDBRANCH   1  15
TORSDOF 8
ENDMDL
