ligand_26_conformer_3_docked
     RDKit          3D

 42 44  0  0  0  0  0  0  0  0999 V2000
    9.2230   47.9610   54.8090 C   0  0  0  0  0  0  0  0  0  0  0  0
    8.8990   47.1640   53.5800 C   0  0  0  0  0  0  0  0  0  0  0  0
    9.8990   46.8660   52.6480 C   0  0  0  0  0  0  0  0  0  0  0  0
    9.5880   46.1610   51.4840 C   0  0  0  0  0  0  0  0  0  0  0  0
    8.2710   45.7500   51.2240 C   0  0  0  0  0  0  0  0  0  0  0  0
    7.9850   44.9880   49.9570 C   0  0  0  0  0  0  0  0  0  0  0  0
    7.2560   46.0360   52.1710 C   0  0  0  0  0  0  0  0  0  0  0  0
    5.5750   45.5250   51.9300 S   0  0  0  0  0  0  0  0  0  0  0  0
    4.7060   46.2370   52.9290 O   0  0  0  0  0  0  0  0  0  0  0  0
    5.1040   45.8610   50.5420 O   0  0  0  0  0  0  0  0  0  0  0  0
    5.4110   43.8130   52.1690 N   0  0  0  0  0  0  0  0  0  0  0  0
    4.9250   42.8990   51.1680 C   0  0  0  0  0  0  0  0  0  0  0  0
    5.8050   42.4450   50.1750 C   0  0  0  0  0  0  0  0  0  0  0  0
    5.3640   41.5680   49.1800 C   0  0  0  0  0  0  0  0  0  0  0  0
    4.0310   41.1280   49.1550 C   0  0  0  0  0  0  0  0  0  0  0  0
    3.5860   40.2020   48.0900 C   0  0  0  0  0  0  0  0  0  0  0  0
    3.7220   40.3500   46.7220 C   0  0  0  0  0  0  0  0  0  0  0  0
    3.1790   39.2800   46.1100 N   0  0  0  0  0  0  0  0  0  0  0  0
    2.7390   38.5220   47.1360 C   0  0  0  0  0  0  0  0  0  0  0  0
    2.0310   37.2230   46.9540 C   0  0  0  0  0  0  0  0  0  0  0  0
    2.9720   39.0650   48.3090 O   0  0  0  0  0  0  0  0  0  0  0  0
    3.1480   41.5830   50.1490 C   0  0  0  0  0  0  0  0  0  0  0  0
    3.5890   42.4580   51.1460 C   0  0  0  0  0  0  0  0  0  0  0  0
    7.5800   46.7660   53.3270 C   0  0  0  0  0  0  0  0  0  0  0  0
    8.9822   47.3687   55.7041 H   0  0  0  0  0  0  0  0  0  0  0  0
   10.2942   48.2111   54.8120 H   0  0  0  0  0  0  0  0  0  0  0  0
    8.6301   48.8876   54.8120 H   0  0  0  0  0  0  0  0  0  0  0  0
   10.9342   47.1885   52.8332 H   0  0  0  0  0  0  0  0  0  0  0  0
   10.3838   45.9248   50.7623 H   0  0  0  0  0  0  0  0  0  0  0  0
    7.6088   43.9855   50.2090 H   0  0  0  0  0  0  0  0  0  0  0  0
    7.2278   45.5265   49.3682 H   0  0  0  0  0  0  0  0  0  0  0  0
    8.9095   44.8953   49.3682 H   0  0  0  0  0  0  0  0  0  0  0  0
    5.6860   43.4390   53.1050 H   0  0  0  0  0  0  0  0  0  0  0  0
    6.8520   42.7822   50.1792 H   0  0  0  0  0  0  0  0  0  0  0  0
    6.0676   41.2194   48.4097 H   0  0  0  0  0  0  0  0  0  0  0  0
    4.1967   41.2033   46.2155 H   0  0  0  0  0  0  0  0  0  0  0  0
    1.7962   36.7923   47.9386 H   0  0  0  0  0  0  0  0  0  0  0  0
    1.0985   37.3889   46.3946 H   0  0  0  0  0  0  0  0  0  0  0  0
    2.6758   36.5292   46.3946 H   0  0  0  0  0  0  0  0  0  0  0  0
    2.1004   41.2476   50.1425 H   0  0  0  0  0  0  0  0  0  0  0  0
    2.8867   42.8042   51.9187 H   0  0  0  0  0  0  0  0  0  0  0  0
    6.7872   47.0285   54.0430 H   0  0  0  0  0  0  0  0  0  0  0  0
  1  2  1  0
  2  3  2  0
  3  4  1  0
  4  5  2  0
  5  6  1  0
  5  7  1  0
  7  8  1  0
  8  9  2  0
  8 10  2  0
  8 11  1  0
 11 12  1  0
 12 13  2  0
 13 14  1  0
 14 15  2  0
 15 16  1  0
 16 17  2  0
 17 18  1  0
 18 19  2  0
 19 20  1  0
 19 21  1  0
 15 22  1  0
 22 23  2  0
  7 24  2  0
 24  2  1  0
 23 12  1  0
 21 16  1  0
  1 25  1  0
  1 26  1  0
  1 27  1  0
  3 28  1  0
  4 29  1  0
  6 30  1  0
  6 31  1  0
  6 32  1  0
 11 33  1  0
 13 34  1  0
 14 35  1  0
 17 36  1  0
 20 37  1  0
 20 38  1  0
 20 39  1  0
 22 40  1  0
 23 41  1  0
 24 42  1  0
M  END
>  <meeko>  (1) 
{"is_sidechain": [false], "free_energy": -9.185, "intermolecular_energy": -11.333, "internal_energy": -0.28}

$$$$
ligand_26_conformer_3_docked
     RDKit          3D

 42 44  0  0  0  0  0  0  0  0999 V2000
   10.3060   47.5310   55.2930 C   0  0  0  0  0  0  0  0  0  0  0  0
    9.5180   47.0480   54.1110 C   0  0  0  0  0  0  0  0  0  0  0  0
   10.1760   46.6240   52.9500 C   0  0  0  0  0  0  0  0  0  0  0  0
    9.4410   46.2160   51.8360 C   0  0  0  0  0  0  0  0  0  0  0  0
    8.0370   46.2340   51.8540 C   0  0  0  0  0  0  0  0  0  0  0  0
    7.2890   45.7810   50.6290 C   0  0  0  0  0  0  0  0  0  0  0  0
    7.3650   46.6500   53.0310 C   0  0  0  0  0  0  0  0  0  0  0  0
    5.5970   46.6720   53.1450 S   0  0  0  0  0  0  0  0  0  0  0  0
    5.1820   47.8450   53.9880 O   0  0  0  0  0  0  0  0  0  0  0  0
    4.9710   46.8010   51.7840 O   0  0  0  0  0  0  0  0  0  0  0  0
    5.0070   45.2160   53.8870 N   0  0  0  0  0  0  0  0  0  0  0  0
    3.6150   44.9300   54.1150 C   0  0  0  0  0  0  0  0  0  0  0  0
    3.0180   45.3540   55.3110 C   0  0  0  0  0  0  0  0  0  0  0  0
    1.6720   45.0820   55.5710 C   0  0  0  0  0  0  0  0  0  0  0  0
    0.8940   44.3750   54.6400 C   0  0  0  0  0  0  0  0  0  0  0  0
   -0.5280   44.0960   54.9390 C   0  0  0  0  0  0  0  0  0  0  0  0
   -1.5310   43.7420   54.0550 C   0  0  0  0  0  0  0  0  0  0  0  0
   -2.6800   43.5820   54.7380 N   0  0  0  0  0  0  0  0  0  0  0  0
   -2.3260   43.8410   56.0130 C   0  0  0  0  0  0  0  0  0  0  0  0
   -3.2850   43.8140   57.1540 C   0  0  0  0  0  0  0  0  0  0  0  0
   -1.0560   44.1510   56.1380 O   0  0  0  0  0  0  0  0  0  0  0  0
    1.4900   43.9490   53.4410 C   0  0  0  0  0  0  0  0  0  0  0  0
    2.8360   44.2230   53.1800 C   0  0  0  0  0  0  0  0  0  0  0  0
    8.1180   47.0790   54.1370 C   0  0  0  0  0  0  0  0  0  0  0  0
    9.8020   47.2221   56.2207 H   0  0  0  0  0  0  0  0  0  0  0  0
   11.3162   47.0968   55.2624 H   0  0  0  0  0  0  0  0  0  0  0  0
   10.3775   48.6282   55.2624 H   0  0  0  0  0  0  0  0  0  0  0  0
   11.2754   46.6125   52.9159 H   0  0  0  0  0  0  0  0  0  0  0  0
    9.9682   45.8760   50.9324 H   0  0  0  0  0  0  0  0  0  0  0  0
    6.3848   45.2334   50.9331 H   0  0  0  0  0  0  0  0  0  0  0  0
    7.0025   46.6575   50.0293 H   0  0  0  0  0  0  0  0  0  0  0  0
    7.9330   45.1210   50.0293 H   0  0  0  0  0  0  0  0  0  0  0  0
    5.7240   44.5140   54.1810 H   0  0  0  0  0  0  0  0  0  0  0  0
    3.6150   45.9061   56.0518 H   0  0  0  0  0  0  0  0  0  0  0  0
    1.2183   45.4246   56.5127 H   0  0  0  0  0  0  0  0  0  0  0  0
   -1.4095   43.6122   52.9695 H   0  0  0  0  0  0  0  0  0  0  0  0
   -2.7274   43.8297   58.1021 H   0  0  0  0  0  0  0  0  0  0  0  0
   -3.9429   44.6940   57.1009 H   0  0  0  0  0  0  0  0  0  0  0  0
   -3.8923   42.8984   57.1009 H   0  0  0  0  0  0  0  0  0  0  0  0
    0.8927   43.3954   52.7016 H   0  0  0  0  0  0  0  0  0  0  0  0
    3.2894   43.8835   52.2370 H   0  0  0  0  0  0  0  0  0  0  0  0
    7.6005   47.4445   55.0362 H   0  0  0  0  0  0  0  0  0  0  0  0
  1  2  1  0
  2  3  2  0
  3  4  1  0
  4  5  2  0
  5  6  1  0
  5  7  1  0
  7  8  1  0
  8  9  2  0
  8 10  2  0
  8 11  1  0
 11 12  1  0
 12 13  2  0
 13 14  1  0
 14 15  2  0
 15 16  1  0
 16 17  2  0
 17 18  1  0
 18 19  2  0
 19 20  1  0
 19 21  1  0
 15 22  1  0
 22 23  2  0
  7 24  2  0
 24  2  1  0
 23 12  1  0
 21 16  1  0
  1 25  1  0
  1 26  1  0
  1 27  1  0
  3 28  1  0
  4 29  1  0
  6 30  1  0
  6 31  1  0
  6 32  1  0
 11 33  1  0
 13 34  1  0
 14 35  1  0
 17 36  1  0
 20 37  1  0
 20 38  1  0
 20 39  1  0
 22 40  1  0
 23 41  1  0
 24 42  1  0
M  END
>  <meeko>  (2) 
{"is_sidechain": [false], "free_energy": -8.959, "intermolecular_energy": -11.41, "internal_energy": 0.076}

$$$$
ligand_26_conformer_3_docked
     RDKit          3D

 42 44  0  0  0  0  0  0  0  0999 V2000
   10.5620   47.5710   55.4850 C   0  0  0  0  0  0  0  0  0  0  0  0
    9.7050   47.1030   54.3470 C   0  0  0  0  0  0  0  0  0  0  0  0
   10.2890   46.7100   53.1380 C   0  0  0  0  0  0  0  0  0  0  0  0
    9.4880   46.3160   52.0650 C   0  0  0  0  0  0  0  0  0  0  0  0
    8.0880   46.3170   52.1750 C   0  0  0  0  0  0  0  0  0  0  0  0
    7.2660   45.8790   50.9930 C   0  0  0  0  0  0  0  0  0  0  0  0
    7.4900   46.7000   53.4020 C   0  0  0  0  0  0  0  0  0  0  0  0
    5.7330   46.6990   53.6320 S   0  0  0  0  0  0  0  0  0  0  0  0
    5.4030   47.5220   54.8450 O   0  0  0  0  0  0  0  0  0  0  0  0
    5.0330   47.2850   52.4370 O   0  0  0  0  0  0  0  0  0  0  0  0
    5.1430   45.0830   53.8780 N   0  0  0  0  0  0  0  0  0  0  0  0
    3.7770   44.6800   53.6730 C   0  0  0  0  0  0  0  0  0  0  0  0
    3.4550   43.9050   52.5490 C   0  0  0  0  0  0  0  0  0  0  0  0
    2.1370   43.5070   52.3120 C   0  0  0  0  0  0  0  0  0  0  0  0
    1.1090   43.8800   53.1930 C   0  0  0  0  0  0  0  0  0  0  0  0
   -0.2800   43.4490   52.9190 C   0  0  0  0  0  0  0  0  0  0  0  0
   -1.3960   43.6140   53.7190 C   0  0  0  0  0  0  0  0  0  0  0  0
   -2.4630   43.0760   53.0980 N   0  0  0  0  0  0  0  0  0  0  0  0
   -1.9500   42.6090   51.9410 C   0  0  0  0  0  0  0  0  0  0  0  0
   -2.7580   41.8940   50.9120 C   0  0  0  0  0  0  0  0  0  0  0  0
   -0.6580   42.8220   51.8320 O   0  0  0  0  0  0  0  0  0  0  0  0
    1.4290   44.6570   54.3190 C   0  0  0  0  0  0  0  0  0  0  0  0
    2.7480   45.0530   54.5580 C   0  0  0  0  0  0  0  0  0  0  0  0
    8.3090   47.1160   54.4660 C   0  0  0  0  0  0  0  0  0  0  0  0
   10.0808   47.3082   56.4386 H   0  0  0  0  0  0  0  0  0  0  0  0
   11.5474   47.0858   55.4256 H   0  0  0  0  0  0  0  0  0  0  0  0
   10.6865   48.6623   55.4256 H   0  0  0  0  0  0  0  0  0  0  0  0
   11.3839   46.7115   53.0326 H   0  0  0  0  0  0  0  0  0  0  0  0
    9.9589   46.0010   51.1221 H   0  0  0  0  0  0  0  0  0  0  0  0
    6.3468   45.3892   51.3469 H   0  0  0  0  0  0  0  0  0  0  0  0
    7.0028   46.7565   50.3841 H   0  0  0  0  0  0  0  0  0  0  0  0
    7.8475   45.1712   50.3841 H   0  0  0  0  0  0  0  0  0  0  0  0
    5.8390   44.3710   54.1950 H   0  0  0  0  0  0  0  0  0  0  0  0
    4.2482   43.6077   51.8472 H   0  0  0  0  0  0  0  0  0  0  0  0
    1.9025   42.8962   51.4277 H   0  0  0  0  0  0  0  0  0  0  0  0
   -1.4098   44.1051   54.7032 H   0  0  0  0  0  0  0  0  0  0  0  0
   -3.4927   41.2438   51.4094 H   0  0  0  0  0  0  0  0  0  0  0  0
   -3.2839   42.6279   50.2837 H   0  0  0  0  0  0  0  0  0  0  0  0
   -2.0935   41.2827   50.2837 H   0  0  0  0  0  0  0  0  0  0  0  0
    0.6346   44.9563   55.0186 H   0  0  0  0  0  0  0  0  0  0  0  0
    2.9836   45.6606   55.4442 H   0  0  0  0  0  0  0  0  0  0  0  0
    7.8477   47.4564   55.4048 H   0  0  0  0  0  0  0  0  0  0  0  0
  1  2  1  0
  2  3  2  0
  3  4  1  0
  4  5  2  0
  5  6  1  0
  5  7  1  0
  7  8  1  0
  8  9  2  0
  8 10  2  0
  8 11  1  0
 11 12  1  0
 12 13  2  0
 13 14  1  0
 14 15  2  0
 15 16  1  0
 16 17  2  0
 17 18  1  0
 18 19  2  0
 19 20  1  0
 19 21  1  0
 15 22  1  0
 22 23  2  0
  7 24  2  0
 24  2  1  0
 23 12  1  0
 21 16  1  0
  1 25  1  0
  1 26  1  0
  1 27  1  0
  3 28  1  0
  4 29  1  0
  6 30  1  0
  6 31  1  0
  6 32  1  0
 11 33  1  0
 13 34  1  0
 14 35  1  0
 17 36  1  0
 20 37  1  0
 20 38  1  0
 20 39  1  0
 22 40  1  0
 23 41  1  0
 24 42  1  0
M  END
>  <meeko>  (3) 
{"is_sidechain": [false], "free_energy": -8.902, "intermolecular_energy": -11.005, "internal_energy": -0.258}

$$$$
ligand_26_conformer_3_docked
     RDKit          3D

 42 44  0  0  0  0  0  0  0  0999 V2000
    0.6990   46.1240   57.5830 C   0  0  0  0  0  0  0  0  0  0  0  0
    0.2070   45.3710   56.3820 C   0  0  0  0  0  0  0  0  0  0  0  0
   -0.9560   44.5980   56.4610 C   0  0  0  0  0  0  0  0  0  0  0  0
   -1.3890   43.8630   55.3560 C   0  0  0  0  0  0  0  0  0  0  0  0
   -0.6620   43.8780   54.1540 C   0  0  0  0  0  0  0  0  0  0  0  0
   -1.1710   43.0730   52.9890 C   0  0  0  0  0  0  0  0  0  0  0  0
    0.5100   44.6700   54.0640 C   0  0  0  0  0  0  0  0  0  0  0  0
    1.4650   44.7660   52.5740 S   0  0  0  0  0  0  0  0  0  0  0  0
    2.4770   43.6550   52.5760 O   0  0  0  0  0  0  0  0  0  0  0  0
    0.5870   44.6270   51.3610 O   0  0  0  0  0  0  0  0  0  0  0  0
    2.3050   46.2840   52.4760 N   0  0  0  0  0  0  0  0  0  0  0  0
    3.7000   46.4580   52.7840 C   0  0  0  0  0  0  0  0  0  0  0  0
    4.6460   46.3410   51.7550 C   0  0  0  0  0  0  0  0  0  0  0  0
    6.0100   46.4910   52.0200 C   0  0  0  0  0  0  0  0  0  0  0  0
    6.4580   46.7590   53.3230 C   0  0  0  0  0  0  0  0  0  0  0  0
    7.9070   46.9110   53.5810 C   0  0  0  0  0  0  0  0  0  0  0  0
    8.9500   46.7930   52.6800 C   0  0  0  0  0  0  0  0  0  0  0  0
   10.1120   47.0050   53.3250 N   0  0  0  0  0  0  0  0  0  0  0  0
    9.7270   47.2480   54.5950 C   0  0  0  0  0  0  0  0  0  0  0  0
   10.6820   47.5190   55.7070 C   0  0  0  0  0  0  0  0  0  0  0  0
    8.4240   47.1890   54.7530 O   0  0  0  0  0  0  0  0  0  0  0  0
    5.5120   46.8770   54.3560 C   0  0  0  0  0  0  0  0  0  0  0  0
    4.1480   46.7290   54.0900 C   0  0  0  0  0  0  0  0  0  0  0  0
    0.9450   45.3860   55.1910 C   0  0  0  0  0  0  0  0  0  0  0  0
    0.3652   45.6131   58.4982 H   0  0  0  0  0  0  0  0  0  0  0  0
    1.7981   46.1642   57.5656 H   0  0  0  0  0  0  0  0  0  0  0  0
    0.2944   47.1467   57.5656 H   0  0  0  0  0  0  0  0  0  0  0  0
   -1.5319   44.5691   57.3978 H   0  0  0  0  0  0  0  0  0  0  0  0
   -2.3098   43.2654   55.4273 H   0  0  0  0  0  0  0  0  0  0  0  0
   -1.7241   42.1982   53.3615 H   0  0  0  0  0  0  0  0  0  0  0  0
   -1.8396   43.6962   52.3769 H   0  0  0  0  0  0  0  0  0  0  0  0
   -0.3214   42.7362   52.3769 H   0  0  0  0  0  0  0  0  0  0  0  0
    1.7450   47.1130   52.1730 H   0  0  0  0  0  0  0  0  0  0  0  0
    4.3109   46.1290   50.7290 H   0  0  0  0  0  0  0  0  0  0  0  0
    6.7383   46.3983   51.2009 H   0  0  0  0  0  0  0  0  0  0  0  0
    8.8464   46.5630   51.6093 H   0  0  0  0  0  0  0  0  0  0  0  0
   10.1726   47.3745   56.6712 H   0  0  0  0  0  0  0  0  0  0  0  0
   11.5342   46.8272   55.6352 H   0  0  0  0  0  0  0  0  0  0  0  0
   11.0439   48.5553   55.6352 H   0  0  0  0  0  0  0  0  0  0  0  0
    5.8480   47.0875   55.3820 H   0  0  0  0  0  0  0  0  0  0  0  0
    3.4189   46.8251   54.9081 H   0  0  0  0  0  0  0  0  0  0  0  0
    1.8778   45.9666   55.1381 H   0  0  0  0  0  0  0  0  0  0  0  0
  1  2  1  0
  2  3  2  0
  3  4  1  0
  4  5  2  0
  5  6  1  0
  5  7  1  0
  7  8  1  0
  8  9  2  0
  8 10  2  0
  8 11  1  0
 11 12  1  0
 12 13  2  0
 13 14  1  0
 14 15  2  0
 15 16  1  0
 16 17  2  0
 17 18  1  0
 18 19  2  0
 19 20  1  0
 19 21  1  0
 15 22  1  0
 22 23  2  0
  7 24  2  0
 24  2  1  0
 23 12  1  0
 21 16  1  0
  1 25  1  0
  1 26  1  0
  1 27  1  0
  3 28  1  0
  4 29  1  0
  6 30  1  0
  6 31  1  0
  6 32  1  0
 11 33  1  0
 13 34  1  0
 14 35  1  0
 17 36  1  0
 20 37  1  0
 20 38  1  0
 20 39  1  0
 22 40  1  0
 23 41  1  0
 24 42  1  0
M  END
>  <meeko>  (4) 
{"is_sidechain": [false], "free_energy": -8.42, "intermolecular_energy": -10.466, "internal_energy": -0.203}

$$$$
ligand_26_conformer_3_docked
     RDKit          3D

 42 44  0  0  0  0  0  0  0  0999 V2000
    5.0900   42.9520   50.7390 C   0  0  0  0  0  0  0  0  0  0  0  0
    5.8070   44.1900   51.1910 C   0  0  0  0  0  0  0  0  0  0  0  0
    6.7200   44.8260   50.3420 C   0  0  0  0  0  0  0  0  0  0  0  0
    7.4180   45.9540   50.7790 C   0  0  0  0  0  0  0  0  0  0  0  0
    7.2260   46.4600   52.0750 C   0  0  0  0  0  0  0  0  0  0  0  0
    7.9990   47.6800   52.5000 C   0  0  0  0  0  0  0  0  0  0  0  0
    6.2930   45.8280   52.9350 C   0  0  0  0  0  0  0  0  0  0  0  0
    5.9710   46.4230   54.5730 S   0  0  0  0  0  0  0  0  0  0  0  0
    6.1790   45.2970   55.5460 O   0  0  0  0  0  0  0  0  0  0  0  0
    6.8980   47.5540   54.9260 O   0  0  0  0  0  0  0  0  0  0  0  0
    4.3340   46.9870   54.7150 N   0  0  0  0  0  0  0  0  0  0  0  0
    3.1810   46.2400   54.2890 C   0  0  0  0  0  0  0  0  0  0  0  0
    2.6540   45.2550   55.1390 C   0  0  0  0  0  0  0  0  0  0  0  0
    1.5430   44.5010   54.7520 C   0  0  0  0  0  0  0  0  0  0  0  0
    0.9350   44.7130   53.5040 C   0  0  0  0  0  0  0  0  0  0  0  0
   -0.2380   43.9000   53.1160 C   0  0  0  0  0  0  0  0  0  0  0  0
   -0.2620   42.5800   52.7030 C   0  0  0  0  0  0  0  0  0  0  0  0
   -1.5340   42.2250   52.4430 N   0  0  0  0  0  0  0  0  0  0  0  0
   -2.2340   43.3460   52.7140 C   0  0  0  0  0  0  0  0  0  0  0  0
   -3.7120   43.4520   52.5480 C   0  0  0  0  0  0  0  0  0  0  0  0
   -1.4730   44.3410   53.1070 O   0  0  0  0  0  0  0  0  0  0  0  0
    1.4610   45.6980   52.6520 C   0  0  0  0  0  0  0  0  0  0  0  0
    2.5710   46.4540   53.0390 C   0  0  0  0  0  0  0  0  0  0  0  0
    5.6140   44.6810   52.4890 C   0  0  0  0  0  0  0  0  0  0  0  0
    4.7582   42.3791   51.6174 H   0  0  0  0  0  0  0  0  0  0  0  0
    4.2159   43.2348   50.1341 H   0  0  0  0  0  0  0  0  0  0  0  0
    5.7703   42.3345   50.1341 H   0  0  0  0  0  0  0  0  0  0  0  0
    6.8884   44.4362   49.3273 H   0  0  0  0  0  0  0  0  0  0  0  0
    8.1263   46.4518   50.1004 H   0  0  0  0  0  0  0  0  0  0  0  0
    8.0306   47.7298   53.5984 H   0  0  0  0  0  0  0  0  0  0  0  0
    9.0243   47.6201   52.1061 H   0  0  0  0  0  0  0  0  0  0  0  0
    7.5069   48.5815   52.1061 H   0  0  0  0  0  0  0  0  0  0  0  0
    4.1980   47.9330   55.1380 H   0  0  0  0  0  0  0  0  0  0  0  0
    3.1200   45.0750   56.1190 H   0  0  0  0  0  0  0  0  0  0  0  0
    1.1411   43.7345   55.4310 H   0  0  0  0  0  0  0  0  0  0  0  0
    0.6168   41.9259   52.6032 H   0  0  0  0  0  0  0  0  0  0  0  0
   -4.1906   43.4863   53.5378 H   0  0  0  0  0  0  0  0  0  0  0  0
   -3.9536   44.3698   51.9919 H   0  0  0  0  0  0  0  0  0  0  0  0
   -4.0821   42.5781   51.9919 H   0  0  0  0  0  0  0  0  0  0  0  0
    0.9952   45.8760   51.6715 H   0  0  0  0  0  0  0  0  0  0  0  0
    2.9710   47.2224   52.3611 H   0  0  0  0  0  0  0  0  0  0  0  0
    4.9218   44.1618   53.1681 H   0  0  0  0  0  0  0  0  0  0  0  0
  1  2  1  0
  2  3  2  0
  3  4  1  0
  4  5  2  0
  5  6  1  0
  5  7  1  0
  7  8  1  0
  8  9  2  0
  8 10  2  0
  8 11  1  0
 11 12  1  0
 12 13  2  0
 13 14  1  0
 14 15  2  0
 15 16  1  0
 16 17  2  0
 17 18  1  0
 18 19  2  0
 19 20  1  0
 19 21  1  0
 15 22  1  0
 22 23  2  0
  7 24  2  0
 24  2  1  0
 23 12  1  0
 21 16  1  0
  1 25  1  0
  1 26  1  0
  1 27  1  0
  3 28  1  0
  4 29  1  0
  6 30  1  0
  6 31  1  0
  6 32  1  0
 11 33  1  0
 13 34  1  0
 14 35  1  0
 17 36  1  0
 20 37  1  0
 20 38  1  0
 20 39  1  0
 22 40  1  0
 23 41  1  0
 24 42  1  0
M  END
>  <meeko>  (5) 
{"is_sidechain": [false], "free_energy": -8.352, "intermolecular_energy": -10.588, "internal_energy": 0.004}

$$$$
