MODEL 1
REMARK VINA RESULT:    -7.707      0.000      0.000
REMARK INTER + INTRA:         -11.637
REMARK INTER:                 -10.860
REMARK INTRA:                  -0.777
REMARK UNBOUND:                -0.777
REMARK SMILES O=C(Nc1cccc(OCCF)c1)c1ccc(Nc2ncccn2)cc1
REMARK SMILES IDX 4 1 5 2 6 3 7 4 8 5 13 6 3 7 1 8 2 9 14 11 15 12 26 13 16 14
REMARK SMILES IDX 25 15 17 16 18 17 19 19 20 20 24 21 21 22 23 23 22 24 9 25
REMARK SMILES IDX 10 26 11 27 12 28
REMARK H PARENT 3 10 18 18
ROOT
ATOM      1  C   UNL     1      -0.091  44.436  54.949  1.00  0.00     0.045 A 
ATOM      2  C   UNL     1      -1.264  43.737  54.631  1.00  0.00     0.026 A 
ATOM      3  C   UNL     1      -2.401  43.868  55.429  1.00  0.00     0.006 A 
ATOM      4  C   UNL     1      -2.374  44.687  56.560  1.00  0.00     0.046 A 
ATOM      5  C   UNL     1      -1.208  45.374  56.912  1.00  0.00     0.121 A 
ATOM      6  C   UNL     1      -0.062  45.244  56.102  1.00  0.00     0.072 A 
ENDROOT
BRANCH   1   7
ATOM      7  N   UNL     1       1.074  44.271  54.122  1.00  0.00    -0.322 N 
ATOM      8  O   UNL     1       0.434  45.718  52.404  1.00  0.00    -0.269 OA
ATOM      9  C   UNL     1       1.368  45.097  52.983  1.00  0.00     0.255 C 
ATOM     10  H   UNL     1       1.679  43.435  54.291  1.00  0.00     0.170 HD
BRANCH   9  11
ATOM     11  C   UNL     1       2.749  45.192  52.447  1.00  0.00     0.040 A 
ATOM     12  C   UNL     1       3.766  44.341  52.915  1.00  0.00     0.016 A 
ATOM     13  C   UNL     1       3.064  46.152  51.470  1.00  0.00     0.016 A 
ATOM     14  C   UNL     1       5.066  44.444  52.410  1.00  0.00     0.027 A 
ATOM     15  C   UNL     1       4.363  46.251  50.964  1.00  0.00     0.027 A 
ATOM     16  C   UNL     1       5.378  45.413  51.442  1.00  0.00     0.041 A 
BRANCH  16  17
ATOM     17  N   UNL     1       6.702  45.522  50.890  1.00  0.00    -0.324 N 
ATOM     18  H   UNL     1       6.839  45.265  49.886  1.00  0.00     0.170 HD
BRANCH  17  19
ATOM     19  C   UNL     1       7.828  46.065  51.594  1.00  0.00     0.227 A 
ATOM     20  N   UNL     1       9.098  45.692  51.274  1.00  0.00    -0.221 NA
ATOM     21  N   UNL     1       7.621  46.925  52.628  1.00  0.00    -0.221 NA
ATOM     22  C   UNL     1      10.166  46.181  51.957  1.00  0.00     0.117 A 
ATOM     23  C   UNL     1       8.663  47.436  53.334  1.00  0.00     0.117 A 
ATOM     24  C   UNL     1       9.968  47.073  53.009  1.00  0.00     0.040 A 
ENDBRANCH  17  19
ENDBRANCH  16  17
ENDBRANCH   9  11
ENDBRANCH   1   7
BRANCH   5  25
ATOM     25  O   UNL     1      -1.236  46.172  58.068  1.00  0.00    -0.491 OA
BRANCH  25  26
ATOM     26  C   UNL     1      -0.697  47.490  58.183  1.00  0.00     0.263 C 
BRANCH  26  27
ATOM     27  C   UNL     1       0.459  47.519  59.179  1.00  0.00     0.256 C 
ATOM     28  F   UNL     1       1.470  46.677  58.753  1.00  0.00    -0.247 F 
ENDBRANCH  26  27
ENDBRANCH  25  26
ENDBRANCH   5  25
TORSDOF 7
ENDMDL
MODEL 2
REMARK VINA RESULT:    -7.607      3.286      9.013
REMARK INTER + INTRA:         -11.497
REMARK INTER:                 -11.232
REMARK INTRA:                  -0.265
REMARK UNBOUND:                -0.777
REMARK SMILES O=C(Nc1cccc(OCCF)c1)c1ccc(Nc2ncccn2)cc1
REMARK SMILES IDX 4 1 5 2 6 3 7 4 8 5 13 6 3 7 1 8 2 9 14 11 15 12 26 13 16 14
REMARK SMILES IDX 25 15 17 16 18 17 19 19 20 20 24 21 21 22 23 23 22 24 9 25
REMARK SMILES IDX 10 26 11 27 12 28
REMARK H PARENT 3 10 18 18
ROOT
ATOM      1  C   UNL     1       5.408  45.517  51.680  1.00  0.00     0.045 A 
ATOM      2  C   UNL     1       5.652  44.658  50.599  1.00  0.00     0.026 A 
ATOM      3  C   UNL     1       6.914  44.617  50.002  1.00  0.00     0.006 A 
ATOM      4  C   UNL     1       7.938  45.443  50.469  1.00  0.00     0.046 A 
ATOM      5  C   UNL     1       7.710  46.327  51.529  1.00  0.00     0.121 A 
ATOM      6  C   UNL     1       6.438  46.363  52.133  1.00  0.00     0.072 A 
ENDROOT
BRANCH   1   7
ATOM      7  N   UNL     1       4.095  45.555  52.267  1.00  0.00    -0.322 N 
ATOM      8  O   UNL     1       3.922  43.281  52.770  1.00  0.00    -0.269 OA
ATOM      9  C   UNL     1       3.508  44.454  52.981  1.00  0.00     0.255 C 
ATOM     10  H   UNL     1       3.494  46.386  52.065  1.00  0.00     0.170 HD
BRANCH   9  11
ATOM     11  C   UNL     1       2.387  44.673  53.928  1.00  0.00     0.040 A 
ATOM     12  C   UNL     1       1.067  44.333  53.579  1.00  0.00     0.016 A 
ATOM     13  C   UNL     1       2.629  45.242  55.190  1.00  0.00     0.016 A 
ATOM     14  C   UNL     1       0.017  44.551  54.475  1.00  0.00     0.027 A 
ATOM     15  C   UNL     1       1.577  45.457  56.087  1.00  0.00     0.027 A 
ATOM     16  C   UNL     1       0.262  45.132  55.731  1.00  0.00     0.041 A 
BRANCH  16  17
ATOM     17  N   UNL     1      -0.798  45.343  56.679  1.00  0.00    -0.324 N 
ATOM     18  H   UNL     1      -1.466  44.558  56.854  1.00  0.00     0.170 HD
BRANCH  17  19
ATOM     19  C   UNL     1      -0.937  46.521  57.486  1.00  0.00     0.227 A 
ATOM     20  N   UNL     1      -0.063  46.781  58.497  1.00  0.00    -0.221 NA
ATOM     21  N   UNL     1      -1.984  47.362  57.271  1.00  0.00    -0.221 NA
ATOM     22  C   UNL     1      -0.206  47.881  59.283  1.00  0.00     0.117 A 
ATOM     23  C   UNL     1      -2.162  48.471  58.035  1.00  0.00     0.117 A 
ATOM     24  C   UNL     1      -1.268  48.757  59.064  1.00  0.00     0.040 A 
ENDBRANCH  17  19
ENDBRANCH  16  17
ENDBRANCH   9  11
ENDBRANCH   1   7
BRANCH   5  25
ATOM     25  O   UNL     1       8.775  47.143  51.946  1.00  0.00    -0.491 OA
BRANCH  25  26
ATOM     26  C   UNL     1       9.940  46.700  52.644  1.00  0.00     0.263 C 
BRANCH  26  27
ATOM     27  C   UNL     1       9.922  47.181  54.092  1.00  0.00     0.256 C 
ATOM     28  F   UNL     1       9.150  48.322  54.201  1.00  0.00    -0.247 F 
ENDBRANCH  26  27
ENDBRANCH  25  26
ENDBRANCH   5  25
TORSDOF 7
ENDMDL
MODEL 3
REMARK VINA RESULT:    -7.498      6.525      9.199
REMARK INTER + INTRA:         -11.344
REMARK INTER:                 -10.979
REMARK INTRA:                  -0.365
REMARK UNBOUND:                -0.777
REMARK SMILES O=C(Nc1cccc(OCCF)c1)c1ccc(Nc2ncccn2)cc1
REMARK SMILES IDX 4 1 5 2 6 3 7 4 8 5 13 6 3 7 1 8 2 9 14 11 15 12 26 13 16 14
REMARK SMILES IDX 25 15 17 16 18 17 19 19 20 20 24 21 21 22 23 23 22 24 9 25
REMARK SMILES IDX 10 26 11 27 12 28
REMARK H PARENT 3 10 18 18
ROOT
ATOM      1  C   UNL     1       3.628  40.332  47.868  1.00  0.00     0.045 A 
ATOM      2  C   UNL     1       3.098  39.064  48.145  1.00  0.00     0.026 A 
ATOM      3  C   UNL     1       2.784  38.187  47.106  1.00  0.00     0.006 A 
ATOM      4  C   UNL     1       2.982  38.573  45.779  1.00  0.00     0.046 A 
ATOM      5  C   UNL     1       3.485  39.843  45.476  1.00  0.00     0.121 A 
ATOM      6  C   UNL     1       3.806  40.724  46.527  1.00  0.00     0.072 A 
ENDROOT
BRANCH   1   7
ATOM      7  N   UNL     1       3.927  41.225  48.955  1.00  0.00    -0.322 N 
ATOM      8  O   UNL     1       6.224  40.817  49.059  1.00  0.00    -0.269 OA
ATOM      9  C   UNL     1       5.262  41.579  49.353  1.00  0.00     0.255 C 
ATOM     10  H   UNL     1       3.135  41.542  49.558  1.00  0.00     0.170 HD
BRANCH   9  11
ATOM     11  C   UNL     1       5.520  42.806  50.147  1.00  0.00     0.040 A 
ATOM     12  C   UNL     1       4.764  43.094  51.297  1.00  0.00     0.016 A 
ATOM     13  C   UNL     1       6.519  43.710  49.747  1.00  0.00     0.016 A 
ATOM     14  C   UNL     1       5.009  44.257  52.034  1.00  0.00     0.027 A 
ATOM     15  C   UNL     1       6.764  44.871  50.486  1.00  0.00     0.027 A 
ATOM     16  C   UNL     1       6.000  45.164  51.623  1.00  0.00     0.041 A 
BRANCH  16  17
ATOM     17  N   UNL     1       6.286  46.354  52.378  1.00  0.00    -0.324 N 
ATOM     18  H   UNL     1       5.489  46.981  52.631  1.00  0.00     0.170 HD
BRANCH  17  19
ATOM     19  C   UNL     1       7.579  46.684  52.905  1.00  0.00     0.227 A 
ATOM     20  N   UNL     1       8.713  46.394  52.208  1.00  0.00    -0.221 NA
ATOM     21  N   UNL     1       7.677  47.245  54.140  1.00  0.00    -0.221 NA
ATOM     22  C   UNL     1       9.941  46.678  52.715  1.00  0.00     0.117 A 
ATOM     23  C   UNL     1       8.887  47.544  54.682  1.00  0.00     0.117 A 
ATOM     24  C   UNL     1      10.054  47.266  53.973  1.00  0.00     0.040 A 
ENDBRANCH  17  19
ENDBRANCH  16  17
ENDBRANCH   9  11
ENDBRANCH   1   7
BRANCH   5  25
ATOM     25  O   UNL     1       3.651  40.180  44.122  1.00  0.00    -0.491 OA
BRANCH  25  26
ATOM     26  C   UNL     1       4.430  39.451  43.171  1.00  0.00     0.263 C 
BRANCH  26  27
ATOM     27  C   UNL     1       5.766  40.142  42.919  1.00  0.00     0.256 C 
ATOM     28  F   UNL     1       5.788  41.372  43.551  1.00  0.00    -0.247 F 
ENDBRANCH  26  27
ENDBRANCH  25  26
ENDBRANCH   5  25
TORSDOF 7
ENDMDL
MODEL 4
REMARK VINA RESULT:    -7.392      3.526      9.455
REMARK INTER + INTRA:         -11.195
REMARK INTER:                 -10.915
REMARK INTRA:                  -0.280
REMARK UNBOUND:                -0.777
REMARK SMILES O=C(Nc1cccc(OCCF)c1)c1ccc(Nc2ncccn2)cc1
REMARK SMILES IDX 4 1 5 2 6 3 7 4 8 5 13 6 3 7 1 8 2 9 14 11 15 12 26 13 16 14
REMARK SMILES IDX 25 15 17 16 18 17 19 19 20 20 24 21 21 22 23 23 22 24 9 25
REMARK SMILES IDX 10 26 11 27 12 28
REMARK H PARENT 3 10 18 18
ROOT
ATOM      1  C   UNL     1       5.599  43.821  50.820  1.00  0.00     0.045 A 
ATOM      2  C   UNL     1       6.225  42.965  49.904  1.00  0.00     0.026 A 
ATOM      3  C   UNL     1       7.451  43.314  49.335  1.00  0.00     0.006 A 
ATOM      4  C   UNL     1       8.057  44.528  49.665  1.00  0.00     0.046 A 
ATOM      5  C   UNL     1       7.439  45.412  50.556  1.00  0.00     0.121 A 
ATOM      6  C   UNL     1       6.203  45.054  51.133  1.00  0.00     0.072 A 
ENDROOT
BRANCH   1   7
ATOM      7  N   UNL     1       4.328  43.449  51.379  1.00  0.00    -0.322 N 
ATOM      8  O   UNL     1       4.750  44.129  53.573  1.00  0.00    -0.269 OA
ATOM      9  C   UNL     1       3.894  43.825  52.697  1.00  0.00     0.255 C 
ATOM     10  H   UNL     1       3.737  42.774  50.842  1.00  0.00     0.170 HD
BRANCH   9  11
ATOM     11  C   UNL     1       2.454  43.814  53.056  1.00  0.00     0.040 A 
ATOM     12  C   UNL     1       1.893  44.849  53.824  1.00  0.00     0.016 A 
ATOM     13  C   UNL     1       1.631  42.751  52.644  1.00  0.00     0.016 A 
ATOM     14  C   UNL     1       0.537  44.826  54.165  1.00  0.00     0.027 A 
ATOM     15  C   UNL     1       0.275  42.731  52.984  1.00  0.00     0.027 A 
ATOM     16  C   UNL     1      -0.279  43.756  53.761  1.00  0.00     0.041 A 
BRANCH  16  17
ATOM     17  N   UNL     1      -1.682  43.721  54.078  1.00  0.00    -0.324 N 
ATOM     18  H   UNL     1      -2.344  43.381  53.345  1.00  0.00     0.170 HD
BRANCH  17  19
ATOM     19  C   UNL     1      -2.224  44.018  55.373  1.00  0.00     0.227 A 
ATOM     20  N   UNL     1      -2.535  45.296  55.724  1.00  0.00    -0.221 NA
ATOM     21  N   UNL     1      -2.381  43.016  56.280  1.00  0.00    -0.221 NA
ATOM     22  C   UNL     1      -3.022  45.587  56.959  1.00  0.00     0.117 A 
ATOM     23  C   UNL     1      -2.864  43.266  57.524  1.00  0.00     0.117 A 
ATOM     24  C   UNL     1      -3.200  44.567  57.892  1.00  0.00     0.040 A 
ENDBRANCH  17  19
ENDBRANCH  16  17
ENDBRANCH   9  11
ENDBRANCH   1   7
BRANCH   5  25
ATOM     25  O   UNL     1       8.089  46.625  50.839  1.00  0.00    -0.491 OA
BRANCH  25  26
ATOM     26  C   UNL     1       8.471  47.081  52.138  1.00  0.00     0.263 C 
BRANCH  26  27
ATOM     27  C   UNL     1       9.902  46.663  52.462  1.00  0.00     0.256 C 
ATOM     28  F   UNL     1      10.291  47.212  53.670  1.00  0.00    -0.247 F 
ENDBRANCH  26  27
ENDBRANCH  25  26
ENDBRANCH   5  25
TORSDOF 7
ENDMDL
MODEL 5
REMARK VINA RESULT:    -7.265      3.722      9.727
REMARK INTER + INTRA:         -11.015
REMARK INTER:                 -10.630
REMARK INTRA:                  -0.384
REMARK UNBOUND:                -0.777
REMARK SMILES O=C(Nc1cccc(OCCF)c1)c1ccc(Nc2ncccn2)cc1
REMARK SMILES IDX 4 1 5 2 6 3 7 4 8 5 13 6 3 7 1 8 2 9 14 11 15 12 26 13 16 14
REMARK SMILES IDX 25 15 17 16 18 17 19 19 20 20 24 21 21 22 23 23 22 24 9 25
REMARK SMILES IDX 10 26 11 27 12 28
REMARK H PARENT 3 10 18 18
ROOT
ATOM      1  C   UNL     1       7.294  46.440  53.764  1.00  0.00     0.045 A 
ATOM      2  C   UNL     1       8.108  47.202  54.613  1.00  0.00     0.026 A 
ATOM      3  C   UNL     1       9.401  47.554  54.223  1.00  0.00     0.006 A 
ATOM      4  C   UNL     1       9.898  47.137  52.986  1.00  0.00     0.046 A 
ATOM      5  C   UNL     1       9.114  46.354  52.133  1.00  0.00     0.121 A 
ATOM      6  C   UNL     1       7.807  46.004  52.528  1.00  0.00     0.072 A 
ENDROOT
BRANCH   1   7
ATOM      7  N   UNL     1       5.972  46.074  54.195  1.00  0.00    -0.322 N 
ATOM      8  O   UNL     1       4.888  48.041  53.558  1.00  0.00    -0.269 OA
ATOM      9  C   UNL     1       4.789  46.823  53.869  1.00  0.00     0.255 C 
ATOM     10  H   UNL     1       5.881  45.286  54.877  1.00  0.00     0.170 HD
BRANCH   9  11
ATOM     11  C   UNL     1       3.446  46.195  53.940  1.00  0.00     0.040 A 
ATOM     12  C   UNL     1       2.522  46.343  52.890  1.00  0.00     0.016 A 
ATOM     13  C   UNL     1       3.072  45.452  55.073  1.00  0.00     0.016 A 
ATOM     14  C   UNL     1       1.256  45.754  52.970  1.00  0.00     0.027 A 
ATOM     15  C   UNL     1       1.807  44.862  55.151  1.00  0.00     0.027 A 
ATOM     16  C   UNL     1       0.883  45.023  54.111  1.00  0.00     0.041 A 
BRANCH  16  17
ATOM     17  N   UNL     1      -0.404  44.388  54.206  1.00  0.00    -0.324 N 
ATOM     18  H   UNL     1      -0.695  43.748  53.432  1.00  0.00     0.170 HD
BRANCH  17  19
ATOM     19  C   UNL     1      -1.270  44.486  55.345  1.00  0.00     0.227 A 
ATOM     20  N   UNL     1      -1.342  45.636  56.071  1.00  0.00    -0.221 NA
ATOM     21  N   UNL     1      -1.990  43.400  55.736  1.00  0.00    -0.221 NA
ATOM     22  C   UNL     1      -2.138  45.725  57.169  1.00  0.00     0.117 A 
ATOM     23  C   UNL     1      -2.798  43.448  56.826  1.00  0.00     0.117 A 
ATOM     24  C   UNL     1      -2.891  44.623  57.571  1.00  0.00     0.040 A 
ENDBRANCH  17  19
ENDBRANCH  16  17
ENDBRANCH   9  11
ENDBRANCH   1   7
BRANCH   5  25
ATOM     25  O   UNL     1       9.673  45.953  50.908  1.00  0.00    -0.491 OA
BRANCH  25  26
ATOM     26  C   UNL     1       9.587  44.644  50.342  1.00  0.00     0.263 C 
BRANCH  26  27
ATOM     27  C   UNL     1       8.258  44.450  49.619  1.00  0.00     0.256 C 
ATOM     28  F   UNL     1       8.438  43.649  48.506  1.00  0.00    -0.247 F 
ENDBRANCH  26  27
ENDBRANCH  25  26
ENDBRANCH   5  25
TORSDOF 7
ENDMDL
