ligand_74_conformer_4_docked
     RDKit          3D

 46 49  0  0  0  0  0  0  0  0999 V2000
   -3.2440   42.2740   60.0010 C   0  0  0  0  0  0  0  0  0  0  0  0
   -3.9600   43.2780   59.1000 C   0  0  2  0  0  0  0  0  0  0  0  0
   -3.5990   43.1080   57.6120 C   0  0  0  0  0  0  0  0  0  0  0  0
   -3.0040   44.4420   57.2860 C   0  0  0  0  0  0  0  0  0  0  0  0
   -2.5160   44.8990   55.9340 C   0  0  0  0  0  0  0  0  0  0  0  0
   -1.7770   43.8940   55.0980 C   0  0  0  0  0  0  0  0  0  0  0  0
   -0.4710   44.5740   55.1590 N   0  0  0  0  0  0  0  0  0  0  0  0
    0.8460   44.3660   54.6530 C   0  0  0  0  0  0  0  0  0  0  0  0
    1.0820   43.3460   53.9550 O   0  0  0  0  0  0  0  0  0  0  0  0
    1.8860   45.3020   54.9710 N   0  0  0  0  0  0  0  0  0  0  0  0
    3.2000   45.2980   54.3910 C   0  0  0  0  0  0  0  0  0  0  0  0
    3.5480   44.8720   53.1200 C   0  0  0  0  0  0  0  0  0  0  0  0
    4.9070   45.1140   53.0460 C   0  0  0  0  0  0  0  0  0  0  0  0
    5.7580   44.8370   51.8680 C   0  0  0  0  0  0  0  0  0  0  0  0
    5.5810   43.6460   51.1400 C   0  0  0  0  0  0  0  0  0  0  0  0
    6.3910   43.3660   50.0360 C   0  0  0  0  0  0  0  0  0  0  0  0
    7.3900   44.2650   49.6530 C   0  0  0  0  0  0  0  0  0  0  0  0
    8.1750   43.9920   48.5810 F   0  0  0  0  0  0  0  0  0  0  0  0
    7.5860   45.4430   50.3800 C   0  0  0  0  0  0  0  0  0  0  0  0
    6.7770   45.7260   51.4850 C   0  0  0  0  0  0  0  0  0  0  0  0
    5.3100   45.6820   54.2090 N   0  0  0  0  0  0  0  0  0  0  0  0
    6.6480   46.1530   54.5560 C   0  0  0  0  0  0  0  0  0  0  0  0
    4.2780   45.7940   55.0280 N   0  0  0  0  0  0  0  0  0  0  0  0
   -1.1760   45.5700   55.9860 C   0  0  0  0  0  0  0  0  0  0  0  0
   -2.9890   45.2300   58.3040 N   0  0  0  0  0  0  0  0  0  0  0  0
   -3.5230   44.5940   59.3930 O   0  0  0  0  0  0  0  0  0  0  0  0
   -3.4273   42.5311   61.0547 H   0  0  0  0  0  0  0  0  0  0  0  0
   -3.6257   41.2624   59.7986 H   0  0  0  0  0  0  0  0  0  0  0  0
   -2.1632   42.3054   59.7986 H   0  0  0  0  0  0  0  0  0  0  0  0
   -5.0318   43.1076   59.2793 H   0  0  0  0  0  0  0  0  0  0  0  0
   -2.8691   42.2979   57.4671 H   0  0  0  0  0  0  0  0  0  0  0  0
   -4.4531   42.8340   56.9753 H   0  0  0  0  0  0  0  0  0  0  0  0
   -3.4564   45.3636   55.6026 H   0  0  0  0  0  0  0  0  0  0  0  0
   -1.7570   42.8936   55.5549 H   0  0  0  0  0  0  0  0  0  0  0  0
   -2.1833   43.6760   54.0993 H   0  0  0  0  0  0  0  0  0  0  0  0
    1.6880   46.0200   55.7040 H   0  0  0  0  0  0  0  0  0  0  0  0
    2.8941   44.4407   52.3478 H   0  0  0  0  0  0  0  0  0  0  0  0
    4.8009   42.9314   51.4414 H   0  0  0  0  0  0  0  0  0  0  0  0
    6.2419   42.4362   49.4675 H   0  0  0  0  0  0  0  0  0  0  0  0
    8.3768   46.1474   50.0827 H   0  0  0  0  0  0  0  0  0  0  0  0
    6.9393   46.6507   52.0583 H   0  0  0  0  0  0  0  0  0  0  0  0
    6.7515   46.1894   55.6505 H   0  0  0  0  0  0  0  0  0  0  0  0
    7.3984   45.4650   54.1394 H   0  0  0  0  0  0  0  0  0  0  0  0
    6.8020   47.1594   54.1394 H   0  0  0  0  0  0  0  0  0  0  0  0
   -0.7732   45.6355   57.0075 H   0  0  0  0  0  0  0  0  0  0  0  0
   -1.1275   46.6187   55.6577 H   0  0  0  0  0  0  0  0  0  0  0  0
  1  2  1  0
  2  3  1  0
  3  4  1  0
  4  5  1  0
  5  6  1  0
  6  7  1  0
  7  8  1  0
  8  9  2  0
  8 10  1  0
 10 11  1  0
 11 12  1  0
 12 13  2  0
 13 14  1  0
 14 15  2  0
 15 16  1  0
 16 17  2  0
 17 18  1  0
 17 19  1  0
 19 20  2  0
 13 21  1  0
 21 22  1  0
 21 23  1  0
  7 24  1  0
  4 25  2  0
 25 26  1  0
 26  2  1  0
 24  5  1  0
 23 11  2  0
 20 14  1  0
  1 27  1  0
  1 28  1  0
  1 29  1  0
  2 30  1  6
  3 31  1  0
  3 32  1  0
  5 33  1  0
  6 34  1  0
  6 35  1  0
 10 36  1  0
 12 37  1  0
 15 38  1  0
 16 39  1  0
 19 40  1  0
 20 41  1  0
 22 42  1  0
 22 43  1  0
 22 44  1  0
 24 45  1  0
 24 46  1  0
M  END
>  <meeko>  (1) 
{"is_sidechain": [false], "free_energy": -8.574, "intermolecular_energy": -10.078, "internal_energy": 0.17}

$$$$
ligand_74_conformer_4_docked
     RDKit          3D

 46 49  0  0  0  0  0  0  0  0999 V2000
   -3.2300   42.1990   59.7360 C   0  0  0  0  0  0  0  0  0  0  0  0
   -3.7460   43.1520   58.6600 C   0  0  2  0  0  0  0  0  0  0  0  0
   -2.7150   43.4050   57.5440 C   0  0  0  0  0  0  0  0  0  0  0  0
   -2.5190   44.8860   57.6380 C   0  0  0  0  0  0  0  0  0  0  0  0
   -1.6520   45.7330   56.7390 C   0  0  0  0  0  0  0  0  0  0  0  0
   -1.8280   45.5600   55.2580 C   0  0  0  0  0  0  0  0  0  0  0  0
   -0.5020   44.9660   55.0130 N   0  0  0  0  0  0  0  0  0  0  0  0
    0.2410   44.4780   53.8980 C   0  0  0  0  0  0  0  0  0  0  0  0
   -0.2830   44.5000   52.7540 O   0  0  0  0  0  0  0  0  0  0  0  0
    1.5560   43.9410   54.0990 N   0  0  0  0  0  0  0  0  0  0  0  0
    2.4640   43.5770   53.0480 C   0  0  0  0  0  0  0  0  0  0  0  0
    3.6220   44.2410   52.6800 C   0  0  0  0  0  0  0  0  0  0  0  0
    4.1420   43.4690   51.6590 C   0  0  0  0  0  0  0  0  0  0  0  0
    5.3980   43.7550   50.9290 C   0  0  0  0  0  0  0  0  0  0  0  0
    5.9290   42.7980   50.0470 C   0  0  0  0  0  0  0  0  0  0  0  0
    7.1230   43.0510   49.3650 C   0  0  0  0  0  0  0  0  0  0  0  0
    7.8020   44.2570   49.5650 C   0  0  0  0  0  0  0  0  0  0  0  0
    8.9600   44.5010   48.9030 F   0  0  0  0  0  0  0  0  0  0  0  0
    7.2910   45.2070   50.4530 C   0  0  0  0  0  0  0  0  0  0  0  0
    6.0970   44.9570   51.1360 C   0  0  0  0  0  0  0  0  0  0  0  0
    3.3360   42.3960   51.4740 N   0  0  0  0  0  0  0  0  0  0  0  0
    3.5230   41.2890   50.5400 C   0  0  0  0  0  0  0  0  0  0  0  0
    2.3160   42.4580   52.3140 N   0  0  0  0  0  0  0  0  0  0  0  0
   -0.3100   45.1220   56.4660 C   0  0  0  0  0  0  0  0  0  0  0  0
   -3.2300   45.4140   58.5720 N   0  0  0  0  0  0  0  0  0  0  0  0
   -3.9550   44.4430   59.2090 O   0  0  0  0  0  0  0  0  0  0  0  0
   -3.4540   42.6128   60.7303 H   0  0  0  0  0  0  0  0  0  0  0  0
   -3.7220   41.2213   59.6264 H   0  0  0  0  0  0  0  0  0  0  0  0
   -2.1423   42.0765   59.6264 H   0  0  0  0  0  0  0  0  0  0  0  0
   -4.6574   42.6746   58.2709 H   0  0  0  0  0  0  0  0  0  0  0  0
   -1.7766   42.8639   57.7355 H   0  0  0  0  0  0  0  0  0  0  0  0
   -3.0400   43.0609   56.5510 H   0  0  0  0  0  0  0  0  0  0  0  0
   -1.8318   46.6925   57.2460 H   0  0  0  0  0  0  0  0  0  0  0  0
   -2.6526   44.8774   55.0050 H   0  0  0  0  0  0  0  0  0  0  0  0
   -2.0917   46.4556   54.6762 H   0  0  0  0  0  0  0  0  0  0  0  0
    1.8670   43.7690   55.0820 H   0  0  0  0  0  0  0  0  0  0  0  0
    4.0332   45.1694   53.1031 H   0  0  0  0  0  0  0  0  0  0  0  0
    5.4022   41.8448   49.8925 H   0  0  0  0  0  0  0  0  0  0  0  0
    7.5287   42.3007   48.6704 H   0  0  0  0  0  0  0  0  0  0  0  0
    7.8288   46.1528   50.6149 H   0  0  0  0  0  0  0  0  0  0  0  0
    5.7023   45.7050   51.8393 H   0  0  0  0  0  0  0  0  0  0  0  0
    3.6804   40.3571   51.1028 H   0  0  0  0  0  0  0  0  0  0  0  0
    2.6291   41.1885   49.9069 H   0  0  0  0  0  0  0  0  0  0  0  0
    4.4003   41.4877   49.9069 H   0  0  0  0  0  0  0  0  0  0  0  0
   -0.1685   44.1605   56.9812 H   0  0  0  0  0  0  0  0  0  0  0  0
    0.5742   45.6866   56.7968 H   0  0  0  0  0  0  0  0  0  0  0  0
  1  2  1  0
  2  3  1  0
  3  4  1  0
  4  5  1  0
  5  6  1  0
  6  7  1  0
  7  8  1  0
  8  9  2  0
  8 10  1  0
 10 11  1  0
 11 12  1  0
 12 13  2  0
 13 14  1  0
 14 15  2  0
 15 16  1  0
 16 17  2  0
 17 18  1  0
 17 19  1  0
 19 20  2  0
 13 21  1  0
 21 22  1  0
 21 23  1  0
  7 24  1  0
  4 25  2  0
 25 26  1  0
 26  2  1  0
 24  5  1  0
 23 11  2  0
 20 14  1  0
  1 27  1  0
  1 28  1  0
  1 29  1  0
  2 30  1  6
  3 31  1  0
  3 32  1  0
  5 33  1  0
  6 34  1  0
  6 35  1  0
 10 36  1  0
 12 37  1  0
 15 38  1  0
 16 39  1  0
 19 40  1  0
 20 41  1  0
 22 42  1  0
 22 43  1  0
 22 44  1  0
 24 45  1  0
 24 46  1  0
M  END
>  <meeko>  (2) 
{"is_sidechain": [false], "free_energy": -8.321, "intermolecular_energy": -9.781, "internal_energy": 0.171}

$$$$
ligand_74_conformer_4_docked
     RDKit          3D

 46 49  0  0  0  0  0  0  0  0999 V2000
   -3.5340   45.7030   47.6860 C   0  0  0  0  0  0  0  0  0  0  0  0
   -3.7440   44.8230   48.9160 C   0  0  2  0  0  0  0  0  0  0  0  0
   -2.9660   45.3240   50.1480 C   0  0  0  0  0  0  0  0  0  0  0  0
   -2.0780   44.1560   50.4460 C   0  0  0  0  0  0  0  0  0  0  0  0
   -1.1170   44.0340   51.6020 C   0  0  0  0  0  0  0  0  0  0  0  0
   -0.4130   45.2860   52.0410 C   0  0  0  0  0  0  0  0  0  0  0  0
    0.9350   44.8590   51.6230 N   0  0  0  0  0  0  0  0  0  0  0  0
    2.2590   45.3900   51.6440 C   0  0  0  0  0  0  0  0  0  0  0  0
    2.4520   46.5400   52.1180 O   0  0  0  0  0  0  0  0  0  0  0  0
    3.3420   44.6220   51.0990 N   0  0  0  0  0  0  0  0  0  0  0  0
    4.7310   44.9680   51.2110 C   0  0  0  0  0  0  0  0  0  0  0  0
    5.3570   45.5630   52.2940 C   0  0  0  0  0  0  0  0  0  0  0  0
    6.6840   45.6380   51.9140 C   0  0  0  0  0  0  0  0  0  0  0  0
    7.7760   46.1940   52.7440 C   0  0  0  0  0  0  0  0  0  0  0  0
    7.4880   46.7450   54.0050 C   0  0  0  0  0  0  0  0  0  0  0  0
    8.5090   47.2870   54.7900 C   0  0  0  0  0  0  0  0  0  0  0  0
    9.8250   47.2950   54.3190 C   0  0  0  0  0  0  0  0  0  0  0  0
   10.8160   47.8230   55.0810 F   0  0  0  0  0  0  0  0  0  0  0  0
   10.1190   46.7670   53.0590 C   0  0  0  0  0  0  0  0  0  0  0  0
    9.1000   46.2220   52.2720 C   0  0  0  0  0  0  0  0  0  0  0  0
    6.8150   45.0830   50.6850 N   0  0  0  0  0  0  0  0  0  0  0  0
    8.0420   44.8970   49.9160 C   0  0  0  0  0  0  0  0  0  0  0  0
    5.6320   44.6770   50.2540 N   0  0  0  0  0  0  0  0  0  0  0  0
    0.2630   43.6240   51.1810 C   0  0  0  0  0  0  0  0  0  0  0  0
   -2.2500   43.1890   49.6140 N   0  0  0  0  0  0  0  0  0  0  0  0
   -3.2020   43.5320   48.6920 O   0  0  0  0  0  0  0  0  0  0  0  0
   -3.2896   46.7269   48.0051 H   0  0  0  0  0  0  0  0  0  0  0  0
   -2.7069   45.2995   47.0834 H   0  0  0  0  0  0  0  0  0  0  0  0
   -4.4541   45.7165   47.0834 H   0  0  0  0  0  0  0  0  0  0  0  0
   -4.8301   44.8325   49.0898 H   0  0  0  0  0  0  0  0  0  0  0  0
   -2.3786   46.2236   49.9120 H   0  0  0  0  0  0  0  0  0  0  0  0
   -3.6087   45.6209   50.9899 H   0  0  0  0  0  0  0  0  0  0  0  0
   -1.7820   43.4668   52.2699 H   0  0  0  0  0  0  0  0  0  0  0  0
   -0.7613   46.1802   51.5034 H   0  0  0  0  0  0  0  0  0  0  0  0
   -0.5399   45.5917   53.0900 H   0  0  0  0  0  0  0  0  0  0  0  0
    3.1030   43.7660   50.5500 H   0  0  0  0  0  0  0  0  0  0  0  0
    4.9031   45.8983   53.2382 H   0  0  0  0  0  0  0  0  0  0  0  0
    6.4524   46.7494   54.3759 H   0  0  0  0  0  0  0  0  0  0  0  0
    8.2769   47.7077   55.7795 H   0  0  0  0  0  0  0  0  0  0  0  0
   11.1537   46.7802   52.6858 H   0  0  0  0  0  0  0  0  0  0  0  0
    9.3354   45.8130   51.2784 H   0  0  0  0  0  0  0  0  0  0  0  0
    8.8902   44.7684   50.6044 H   0  0  0  0  0  0  0  0  0  0  0  0
    7.9455   44.0032   49.2821 H   0  0  0  0  0  0  0  0  0  0  0  0
    8.2147   45.7792   49.2821 H   0  0  0  0  0  0  0  0  0  0  0  0
    0.3451   43.4609   50.0963 H   0  0  0  0  0  0  0  0  0  0  0  0
    0.6472   42.6741   51.5810 H   0  0  0  0  0  0  0  0  0  0  0  0
  1  2  1  0
  2  3  1  0
  3  4  1  0
  4  5  1  0
  5  6  1  0
  6  7  1  0
  7  8  1  0
  8  9  2  0
  8 10  1  0
 10 11  1  0
 11 12  1  0
 12 13  2  0
 13 14  1  0
 14 15  2  0
 15 16  1  0
 16 17  2  0
 17 18  1  0
 17 19  1  0
 19 20  2  0
 13 21  1  0
 21 22  1  0
 21 23  1  0
  7 24  1  0
  4 25  2  0
 25 26  1  0
 26  2  1  0
 24  5  1  0
 23 11  2  0
 20 14  1  0
  1 27  1  0
  1 28  1  0
  1 29  1  0
  2 30  1  1
  3 31  1  0
  3 32  1  0
  5 33  1  0
  6 34  1  0
  6 35  1  0
 10 36  1  0
 12 37  1  0
 15 38  1  0
 16 39  1  0
 19 40  1  0
 20 41  1  0
 22 42  1  0
 22 43  1  0
 22 44  1  0
 24 45  1  0
 24 46  1  0
M  END
>  <meeko>  (3) 
{"is_sidechain": [false], "free_energy": -8.241, "intermolecular_energy": -9.904, "internal_energy": 0.387}

$$$$
ligand_74_conformer_4_docked
     RDKit          3D

 46 49  0  0  0  0  0  0  0  0999 V2000
    9.8960   47.2160   54.1370 C   0  0  0  0  0  0  0  0  0  0  0  0
    9.2660   47.4380   52.7630 C   0  0  2  0  0  0  0  0  0  0  0  0
    7.7780   47.0430   52.7200 C   0  0  0  0  0  0  0  0  0  0  0  0
    7.7740   45.9770   51.6690 C   0  0  0  0  0  0  0  0  0  0  0  0
    6.5660   45.2460   51.1390 C   0  0  0  0  0  0  0  0  0  0  0  0
    5.3270   46.0590   50.8950 C   0  0  0  0  0  0  0  0  0  0  0  0
    4.5210   45.4350   51.9600 N   0  0  0  0  0  0  0  0  0  0  0  0
    3.2000   45.5540   52.4830 C   0  0  0  0  0  0  0  0  0  0  0  0
    2.4150   46.4020   51.9840 O   0  0  0  0  0  0  0  0  0  0  0  0
    2.7950   44.7320   53.5880 N   0  0  0  0  0  0  0  0  0  0  0  0
    1.4550   44.6360   54.0920 C   0  0  0  0  0  0  0  0  0  0  0  0
    0.9820   45.1210   55.3000 C   0  0  0  0  0  0  0  0  0  0  0  0
   -0.3640   44.8110   55.2830 C   0  0  0  0  0  0  0  0  0  0  0  0
   -1.3270   45.1350   56.3600 C   0  0  0  0  0  0  0  0  0  0  0  0
   -1.3540   46.4290   56.9090 C   0  0  0  0  0  0  0  0  0  0  0  0
   -2.2480   46.7410   57.9380 C   0  0  0  0  0  0  0  0  0  0  0  0
   -3.1140   45.7630   58.4350 C   0  0  0  0  0  0  0  0  0  0  0  0
   -3.9800   46.0670   59.4340 F   0  0  0  0  0  0  0  0  0  0  0  0
   -3.0810   44.4690   57.9080 C   0  0  0  0  0  0  0  0  0  0  0  0
   -2.1890   44.1540   56.8780 C   0  0  0  0  0  0  0  0  0  0  0  0
   -0.6540   44.2050   54.1060 N   0  0  0  0  0  0  0  0  0  0  0  0
   -1.9590   43.7530   53.6330 C   0  0  0  0  0  0  0  0  0  0  0  0
    0.4470   44.0960   53.3810 N   0  0  0  0  0  0  0  0  0  0  0  0
    5.7280   44.6300   52.2200 C   0  0  0  0  0  0  0  0  0  0  0  0
    8.9500   45.7580   51.1930 N   0  0  0  0  0  0  0  0  0  0  0  0
    9.8600   46.5760   51.8080 O   0  0  0  0  0  0  0  0  0  0  0  0
    9.1675   47.4727   54.9202 H   0  0  0  0  0  0  0  0  0  0  0  0
   10.1886   46.1606   54.2400 H   0  0  0  0  0  0  0  0  0  0  0  0
   10.7855   47.8548   54.2400 H   0  0  0  0  0  0  0  0  0  0  0  0
    9.4086   48.5084   52.5537 H   0  0  0  0  0  0  0  0  0  0  0  0
    7.4398   46.6501   53.6902 H   0  0  0  0  0  0  0  0  0  0  0  0
    7.1004   47.8825   52.5053 H   0  0  0  0  0  0  0  0  0  0  0  0
    7.0815   44.7015   50.3342 H   0  0  0  0  0  0  0  0  0  0  0  0
    5.4860   47.1352   51.0577 H   0  0  0  0  0  0  0  0  0  0  0  0
    4.9103   46.0454   49.8771 H   0  0  0  0  0  0  0  0  0  0  0  0
    3.5350   44.1870   54.0860 H   0  0  0  0  0  0  0  0  0  0  0  0
    1.5480   45.6348   56.0910 H   0  0  0  0  0  0  0  0  0  0  0  0
   -0.6684   47.1999   56.5272 H   0  0  0  0  0  0  0  0  0  0  0  0
   -2.2697   47.7578   58.3570 H   0  0  0  0  0  0  0  0  0  0  0  0
   -3.7575   43.6973   58.3039 H   0  0  0  0  0  0  0  0  0  0  0  0
   -2.1622   43.1324   56.4711 H   0  0  0  0  0  0  0  0  0  0  0  0
   -2.6043   43.5295   54.4953 H   0  0  0  0  0  0  0  0  0  0  0  0
   -2.4220   44.5431   53.0236 H   0  0  0  0  0  0  0  0  0  0  0  0
   -1.8341   42.8458   53.0236 H   0  0  0  0  0  0  0  0  0  0  0  0
    6.1417   44.7976   53.2254 H   0  0  0  0  0  0  0  0  0  0  0  0
    5.6138   43.5361   52.2033 H   0  0  0  0  0  0  0  0  0  0  0  0
  1  2  1  0
  2  3  1  0
  3  4  1  0
  4  5  1  0
  5  6  1  0
  6  7  1  0
  7  8  1  0
  8  9  2  0
  8 10  1  0
 10 11  1  0
 11 12  1  0
 12 13  2  0
 13 14  1  0
 14 15  2  0
 15 16  1  0
 16 17  2  0
 17 18  1  0
 17 19  1  0
 19 20  2  0
 13 21  1  0
 21 22  1  0
 21 23  1  0
  7 24  1  0
  4 25  2  0
 25 26  1  0
 26  2  1  0
 24  5  1  0
 23 11  2  0
 20 14  1  0
  1 27  1  0
  1 28  1  0
  1 29  1  0
  2 30  1  6
  3 31  1  0
  3 32  1  0
  5 33  1  0
  6 34  1  0
  6 35  1  0
 10 36  1  0
 12 37  1  0
 15 38  1  0
 16 39  1  0
 19 40  1  0
 20 41  1  0
 22 42  1  0
 22 43  1  0
 22 44  1  0
 24 45  1  0
 24 46  1  0
M  END
>  <meeko>  (4) 
{"is_sidechain": [false], "free_energy": -8.23, "intermolecular_energy": -9.19, "internal_energy": -0.314}

$$$$
ligand_74_conformer_4_docked
     RDKit          3D

 46 49  0  0  0  0  0  0  0  0999 V2000
   11.3890   47.8710   56.3090 C   0  0  0  0  0  0  0  0  0  0  0  0
   10.0870   47.3360   55.7160 C   0  0  2  0  0  0  0  0  0  0  0  0
   10.2730   46.7450   54.3060 C   0  0  0  0  0  0  0  0  0  0  0  0
    9.3640   47.6070   53.4890 C   0  0  0  0  0  0  0  0  0  0  0  0
    9.0750   47.4610   52.0150 C   0  0  0  0  0  0  0  0  0  0  0  0
    7.6360   47.5150   51.5910 C   0  0  0  0  0  0  0  0  0  0  0  0
    7.5500   46.1090   51.1600 N   0  0  0  0  0  0  0  0  0  0  0  0
    6.5660   45.2390   50.6020 C   0  0  0  0  0  0  0  0  0  0  0  0
    5.4090   45.6820   50.3820 O   0  0  0  0  0  0  0  0  0  0  0  0
    6.8990   43.8700   50.3310 N   0  0  0  0  0  0  0  0  0  0  0  0
    6.0590   42.9470   49.6210 C   0  0  0  0  0  0  0  0  0  0  0  0
    6.0880   42.6670   48.2650 C   0  0  0  0  0  0  0  0  0  0  0  0
    5.1220   41.6920   48.1020 C   0  0  0  0  0  0  0  0  0  0  0  0
    4.7720   41.0460   46.8170 C   0  0  0  0  0  0  0  0  0  0  0  0
    5.4580   41.4040   45.6430 C   0  0  0  0  0  0  0  0  0  0  0  0
    5.1250   40.8120   44.4220 C   0  0  0  0  0  0  0  0  0  0  0  0
    4.0970   39.8670   44.3580 C   0  0  0  0  0  0  0  0  0  0  0  0
    3.7740   39.2940   43.1720 F   0  0  0  0  0  0  0  0  0  0  0  0
    3.3970   39.5180   45.5170 C   0  0  0  0  0  0  0  0  0  0  0  0
    3.7290   40.1070   46.7400 C   0  0  0  0  0  0  0  0  0  0  0  0
    4.5880   41.4050   49.3140 N   0  0  0  0  0  0  0  0  0  0  0  0
    3.5750   40.4020   49.6280 C   0  0  0  0  0  0  0  0  0  0  0  0
    5.1530   42.1650   50.2380 N   0  0  0  0  0  0  0  0  0  0  0  0
    8.9620   46.0320   51.5760 C   0  0  0  0  0  0  0  0  0  0  0  0
    8.7760   48.5050   54.1990 N   0  0  0  0  0  0  0  0  0  0  0  0
    9.1740   48.4000   55.5050 O   0  0  0  0  0  0  0  0  0  0  0  0
   11.3291   47.8464   57.4071 H   0  0  0  0  0  0  0  0  0  0  0  0
   12.2291   47.2452   55.9735 H   0  0  0  0  0  0  0  0  0  0  0  0
   11.5464   48.9067   55.9735 H   0  0  0  0  0  0  0  0  0  0  0  0
    9.7385   46.5769   56.4318 H   0  0  0  0  0  0  0  0  0  0  0  0
   11.3167   46.8325   53.9698 H   0  0  0  0  0  0  0  0  0  0  0  0
   10.0454   45.6708   54.2403 H   0  0  0  0  0  0  0  0  0  0  0  0
    9.8208   48.1873   51.6596 H   0  0  0  0  0  0  0  0  0  0  0  0
    6.9559   47.7466   52.4240 H   0  0  0  0  0  0  0  0  0  0  0  0
    7.3582   48.2836   50.8547 H   0  0  0  0  0  0  0  0  0  0  0  0
    7.8030   43.5050   50.7060 H   0  0  0  0  0  0  0  0  0  0  0  0
    6.7317   43.1170   47.4949 H   0  0  0  0  0  0  0  0  0  0  0  0
    6.2613   42.1543   45.6861 H   0  0  0  0  0  0  0  0  0  0  0  0
    5.6728   41.0901   43.5095 H   0  0  0  0  0  0  0  0  0  0  0  0
    2.5839   38.7789   45.4660 H   0  0  0  0  0  0  0  0  0  0  0  0
    3.1708   39.8341   47.6477 H   0  0  0  0  0  0  0  0  0  0  0  0
    3.4791   40.3070   50.7197 H   0  0  0  0  0  0  0  0  0  0  0  0
    2.6094   40.7098   49.2005 H   0  0  0  0  0  0  0  0  0  0  0  0
    3.8732   39.4333   49.2005 H   0  0  0  0  0  0  0  0  0  0  0  0
    9.1242   45.3206   52.3992 H   0  0  0  0  0  0  0  0  0  0  0  0
    9.6867   45.6784   50.8278 H   0  0  0  0  0  0  0  0  0  0  0  0
  1  2  1  0
  2  3  1  0
  3  4  1  0
  4  5  1  0
  5  6  1  0
  6  7  1  0
  7  8  1  0
  8  9  2  0
  8 10  1  0
 10 11  1  0
 11 12  1  0
 12 13  2  0
 13 14  1  0
 14 15  2  0
 15 16  1  0
 16 17  2  0
 17 18  1  0
 17 19  1  0
 19 20  2  0
 13 21  1  0
 21 22  1  0
 21 23  1  0
  7 24  1  0
  4 25  2  0
 25 26  1  0
 26  2  1  0
 24  5  1  0
 23 11  2  0
 20 14  1  0
  1 27  1  0
  1 28  1  0
  1 29  1  0
  2 30  1  1
  3 31  1  0
  3 32  1  0
  5 33  1  0
  6 34  1  0
  6 35  1  0
 10 36  1  0
 12 37  1  0
 15 38  1  0
 16 39  1  0
 19 40  1  0
 20 41  1  0
 22 42  1  0
 22 43  1  0
 22 44  1  0
 24 45  1  0
 24 46  1  0
M  END
>  <meeko>  (5) 
{"is_sidechain": [false], "free_energy": -8.159, "intermolecular_energy": -9.535, "internal_energy": 0.115}

$$$$
