MODEL 1
REMARK VINA RESULT:    -8.284      0.000      0.000
REMARK INTER + INTRA:         -10.176
REMARK INTER:                  -9.737
REMARK INTRA:                  -0.439
REMARK UNBOUND:                -0.439
REMARK SMILES C[C@@H]1OCC[C@]1(C)NC(=O)C1CCN(c2ccc(C#N)cc2F)CC1
REMARK SMILES IDX 11 1 12 2 13 3 14 4 24 5 25 6 9 7 8 8 10 9 6 11 2 12 3 13
REMARK SMILES IDX 4 14 5 15 1 16 7 17 15 18 16 19 22 20 17 21 21 22 18 23
REMARK SMILES IDX 19 24 20 25 23 26
REMARK H PARENT 8 10
ROOT
ATOM      1  C   UNL     1       4.613  46.027  52.809  1.00  0.00     0.082 C 
ATOM      2  C   UNL     1       5.068  44.560  52.715  1.00  0.00     0.035 C 
ATOM      3  C   UNL     1       3.879  43.659  52.354  1.00  0.00     0.117 C 
ATOM      4  N   UNL     1       2.666  44.048  53.087  1.00  0.00    -0.369 N 
ATOM      5  C   UNL     1       2.768  44.939  54.251  1.00  0.00     0.117 C 
ATOM      6  C   UNL     1       3.528  46.230  53.897  1.00  0.00     0.035 C 
ENDROOT
BRANCH   1   7
ATOM      7  C   UNL     1       5.791  46.939  53.054  1.00  0.00     0.223 C 
ATOM      8  N   UNL     1       7.057  46.672  52.414  1.00  0.00    -0.348 N 
ATOM      9  O   UNL     1       5.644  47.938  53.809  1.00  0.00    -0.275 OA
ATOM     10  H   UNL     1       7.099  45.807  51.823  1.00  0.00     0.164 HD
BRANCH   8  11
ATOM     11  C   UNL     1       8.298  47.478  52.520  1.00  0.00     0.065 C 
ATOM     12  C   UNL     1       9.513  46.843  51.780  1.00  0.00     0.140 C 
ATOM     13  O   UNL     1      10.615  46.822  52.661  1.00  0.00    -0.376 OA
ATOM     14  C   UNL     1      10.102  46.852  53.971  1.00  0.00     0.163 C 
ATOM     15  C   UNL     1       8.790  47.614  53.961  1.00  0.00     0.059 C 
ATOM     16  C   UNL     1       9.296  45.436  51.204  1.00  0.00     0.041 C 
ATOM     17  C   UNL     1       8.013  48.887  51.947  1.00  0.00     0.037 C 
ENDBRANCH   8  11
ENDBRANCH   1   7
BRANCH   4  18
ATOM     18  C   UNL     1       1.395  43.485  52.715  1.00  0.00     0.073 A 
ATOM     19  C   UNL     1       0.827  42.454  53.481  1.00  0.00     0.030 A 
ATOM     20  C   UNL     1       0.706  43.965  51.588  1.00  0.00     0.147 A 
ATOM     21  C   UNL     1      -0.418  41.922  53.135  1.00  0.00     0.022 A 
ATOM     22  C   UNL     1      -0.541  43.430  51.244  1.00  0.00     0.061 A 
ATOM     23  C   UNL     1      -1.105  42.409  52.016  1.00  0.00     0.055 A 
ATOM     24  C   UNL     1      -2.391  41.870  51.664  1.00  0.00     0.099 C 
ATOM     25  N   UNL     1      -3.429  41.439  51.380  1.00  0.00    -0.192 NA
ATOM     26  F   UNL     1       1.243  44.943  50.816  1.00  0.00    -0.205 F 
ENDBRANCH   4  18
TORSDOF 3
ENDMDL
MODEL 2
REMARK VINA RESULT:    -8.280      2.528      2.933
REMARK INTER + INTRA:         -10.170
REMARK INTER:                  -9.824
REMARK INTRA:                  -0.347
REMARK UNBOUND:                -0.439
REMARK SMILES C[C@@H]1OCC[C@]1(C)NC(=O)C1CCN(c2ccc(C#N)cc2F)CC1
REMARK SMILES IDX 11 1 12 2 13 3 14 4 24 5 25 6 9 7 8 8 10 9 6 11 2 12 3 13
REMARK SMILES IDX 4 14 5 15 1 16 7 17 15 18 16 19 22 20 17 21 21 22 18 23
REMARK SMILES IDX 19 24 20 25 23 26
REMARK H PARENT 8 10
ROOT
ATOM      1  C   UNL     1       4.722  46.605  54.241  1.00  0.00     0.082 C 
ATOM      2  C   UNL     1       3.882  46.829  52.971  1.00  0.00     0.035 C 
ATOM      3  C   UNL     1       2.412  46.480  53.242  1.00  0.00     0.117 C 
ATOM      4  N   UNL     1       2.287  45.258  54.048  1.00  0.00    -0.369 N 
ATOM      5  C   UNL     1       3.442  44.363  54.206  1.00  0.00     0.117 C 
ATOM      6  C   UNL     1       4.674  45.131  54.719  1.00  0.00     0.035 C 
ENDROOT
BRANCH   1   7
ATOM      7  C   UNL     1       6.150  47.048  54.024  1.00  0.00     0.223 C 
ATOM      8  N   UNL     1       6.738  46.970  52.709  1.00  0.00    -0.348 N 
ATOM      9  O   UNL     1       6.806  47.497  55.003  1.00  0.00    -0.275 OA
ATOM     10  H   UNL     1       6.132  46.561  51.958  1.00  0.00     0.164 HD
BRANCH   8  11
ATOM     11  C   UNL     1       8.106  47.389  52.318  1.00  0.00     0.065 C 
ATOM     12  C   UNL     1       8.671  46.598  51.100  1.00  0.00     0.140 C 
ATOM     13  O   UNL     1       9.963  46.132  51.426  1.00  0.00    -0.376 OA
ATOM     14  C   UNL     1      10.039  46.065  52.830  1.00  0.00     0.163 C 
ATOM     15  C   UNL     1       9.137  47.135  53.417  1.00  0.00     0.059 C 
ATOM     16  C   UNL     1       7.818  45.422  50.601  1.00  0.00     0.041 C 
ATOM     17  C   UNL     1       8.077  48.902  51.991  1.00  0.00     0.037 C 
ENDBRANCH   8  11
ENDBRANCH   1   7
BRANCH   4  18
ATOM     18  C   UNL     1       1.010  44.898  54.607  1.00  0.00     0.073 A 
ATOM     19  C   UNL     1       0.073  44.195  53.834  1.00  0.00     0.030 A 
ATOM     20  C   UNL     1       0.691  45.239  55.933  1.00  0.00     0.147 A 
ATOM     21  C   UNL     1      -1.158  43.824  54.382  1.00  0.00     0.022 A 
ATOM     22  C   UNL     1      -0.542  44.867  56.479  1.00  0.00     0.061 A 
ATOM     23  C   UNL     1      -1.468  44.159  55.706  1.00  0.00     0.055 A 
ATOM     24  C   UNL     1      -2.730  43.769  56.275  1.00  0.00     0.099 C 
ATOM     25  N   UNL     1      -3.746  43.454  56.737  1.00  0.00    -0.192 NA
ATOM     26  F   UNL     1       1.569  45.940  56.694  1.00  0.00    -0.205 F 
ENDBRANCH   4  18
TORSDOF 3
ENDMDL
MODEL 3
REMARK VINA RESULT:    -8.104      4.173      8.768
REMARK INTER + INTRA:          -9.964
REMARK INTER:                  -9.684
REMARK INTRA:                  -0.280
REMARK UNBOUND:                -0.439
REMARK SMILES C[C@@H]1OCC[C@]1(C)NC(=O)C1CCN(c2ccc(C#N)cc2F)CC1
REMARK SMILES IDX 11 1 12 2 13 3 14 4 24 5 25 6 9 7 8 8 10 9 6 11 2 12 3 13
REMARK SMILES IDX 4 14 5 15 1 16 7 17 15 18 16 19 22 20 17 21 21 22 18 23
REMARK SMILES IDX 19 24 20 25 23 26
REMARK H PARENT 8 10
ROOT
ATOM      1  C   UNL     1       0.683  44.231  53.249  1.00  0.00     0.082 C 
ATOM      2  C   UNL     1       0.755  45.574  52.502  1.00  0.00     0.035 C 
ATOM      3  C   UNL     1       2.036  45.640  51.657  1.00  0.00     0.117 C 
ATOM      4  N   UNL     1       3.191  45.095  52.383  1.00  0.00    -0.369 N 
ATOM      5  C   UNL     1       3.111  44.887  53.835  1.00  0.00     0.117 C 
ATOM      6  C   UNL     1       1.885  44.034  54.208  1.00  0.00     0.035 C 
ENDROOT
BRANCH   1   7
ATOM      7  C   UNL     1      -0.622  44.104  53.998  1.00  0.00     0.223 C 
ATOM      8  N   UNL     1      -1.064  45.169  54.865  1.00  0.00    -0.348 N 
ATOM      9  O   UNL     1      -1.319  43.065  53.840  1.00  0.00    -0.275 OA
ATOM     10  H   UNL     1      -0.412  45.985  54.959  1.00  0.00     0.164 HD
BRANCH   8  11
ATOM     11  C   UNL     1      -2.325  45.220  55.644  1.00  0.00     0.065 C 
ATOM     12  C   UNL     1      -2.210  46.055  56.955  1.00  0.00     0.140 C 
ATOM     13  O   UNL     1      -2.726  45.291  58.023  1.00  0.00    -0.376 OA
ATOM     14  C   UNL     1      -2.637  43.938  57.647  1.00  0.00     0.163 C 
ATOM     15  C   UNL     1      -2.768  43.843  56.139  1.00  0.00     0.059 C 
ATOM     16  C   UNL     1      -0.803  46.553  57.319  1.00  0.00     0.041 C 
ATOM     17  C   UNL     1      -3.432  45.814  54.741  1.00  0.00     0.037 C 
ENDBRANCH   8  11
ENDBRANCH   1   7
BRANCH   4  18
ATOM     18  C   UNL     1       4.423  44.849  51.683  1.00  0.00     0.073 A 
ATOM     19  C   UNL     1       4.640  43.618  51.043  1.00  0.00     0.030 A 
ATOM     20  C   UNL     1       5.419  45.840  51.624  1.00  0.00     0.147 A 
ATOM     21  C   UNL     1       5.827  43.386  50.343  1.00  0.00     0.022 A 
ATOM     22  C   UNL     1       6.606  45.604  50.921  1.00  0.00     0.061 A 
ATOM     23  C   UNL     1       6.812  44.379  50.279  1.00  0.00     0.055 A 
ATOM     24  C   UNL     1       8.030  44.145  49.550  1.00  0.00     0.099 C 
ATOM     25  N   UNL     1       9.011  43.961  48.961  1.00  0.00    -0.192 NA
ATOM     26  F   UNL     1       5.246  47.029  52.254  1.00  0.00    -0.205 F 
ENDBRANCH   4  18
TORSDOF 3
ENDMDL
MODEL 4
REMARK VINA RESULT:    -7.883      6.660      9.746
REMARK INTER + INTRA:          -9.704
REMARK INTER:                  -9.980
REMARK INTRA:                   0.276
REMARK UNBOUND:                -0.439
REMARK SMILES C[C@@H]1OCC[C@]1(C)NC(=O)C1CCN(c2ccc(C#N)cc2F)CC1
REMARK SMILES IDX 11 1 12 2 13 3 14 4 24 5 25 6 9 7 8 8 10 9 6 11 2 12 3 13
REMARK SMILES IDX 4 14 5 15 1 16 7 17 15 18 16 19 22 20 17 21 21 22 18 23
REMARK SMILES IDX 19 24 20 25 23 26
REMARK H PARENT 8 10
ROOT
ATOM      1  C   UNL     1       4.031  41.036  48.262  1.00  0.00     0.082 C 
ATOM      2  C   UNL     1       3.587  40.790  49.715  1.00  0.00     0.035 C 
ATOM      3  C   UNL     1       4.010  41.969  50.604  1.00  0.00     0.117 C 
ATOM      4  N   UNL     1       5.365  42.434  50.276  1.00  0.00    -0.369 N 
ATOM      5  C   UNL     1       6.250  41.592  49.461  1.00  0.00     0.117 C 
ATOM      6  C   UNL     1       5.570  41.183  48.142  1.00  0.00     0.035 C 
ENDROOT
BRANCH   1   7
ATOM      7  C   UNL     1       3.528  39.939  47.355  1.00  0.00     0.223 C 
ATOM      8  N   UNL     1       3.910  39.920  45.964  1.00  0.00    -0.348 N 
ATOM      9  O   UNL     1       2.787  39.040  47.836  1.00  0.00    -0.275 OA
ATOM     10  H   UNL     1       4.507  40.718  45.641  1.00  0.00     0.164 HD
BRANCH   8  11
ATOM     11  C   UNL     1       3.533  38.905  44.949  1.00  0.00     0.065 C 
ATOM     12  C   UNL     1       4.411  38.962  43.662  1.00  0.00     0.140 C 
ATOM     13  O   UNL     1       3.559  38.980  42.538  1.00  0.00    -0.376 OA
ATOM     14  C   UNL     1       2.316  39.481  42.965  1.00  0.00     0.163 C 
ATOM     15  C   UNL     1       2.113  39.101  44.420  1.00  0.00     0.059 C 
ATOM     16  C   UNL     1       5.401  40.132  43.569  1.00  0.00     0.041 C 
ATOM     17  C   UNL     1       3.644  37.504  45.597  1.00  0.00     0.037 C 
ENDBRANCH   8  11
ENDBRANCH   1   7
BRANCH   4  18
ATOM     18  C   UNL     1       5.848  43.671  50.828  1.00  0.00     0.073 A 
ATOM     19  C   UNL     1       6.808  44.427  50.136  1.00  0.00     0.030 A 
ATOM     20  C   UNL     1       5.358  44.142  52.059  1.00  0.00     0.147 A 
ATOM     21  C   UNL     1       7.262  45.641  50.659  1.00  0.00     0.022 A 
ATOM     22  C   UNL     1       5.814  45.358  52.579  1.00  0.00     0.061 A 
ATOM     23  C   UNL     1       6.765  46.110  51.881  1.00  0.00     0.055 A 
ATOM     24  C   UNL     1       7.222  47.365  52.416  1.00  0.00     0.099 C 
ATOM     25  N   UNL     1       7.588  48.376  52.848  1.00  0.00    -0.192 NA
ATOM     26  F   UNL     1       4.448  43.420  52.760  1.00  0.00    -0.205 F 
ENDBRANCH   4  18
TORSDOF 3
ENDMDL
MODEL 5
REMARK VINA RESULT:    -7.766      3.963      9.078
REMARK INTER + INTRA:          -9.567
REMARK INTER:                  -9.153
REMARK INTRA:                  -0.414
REMARK UNBOUND:                -0.439
REMARK SMILES C[C@@H]1OCC[C@]1(C)NC(=O)C1CCN(c2ccc(C#N)cc2F)CC1
REMARK SMILES IDX 11 1 12 2 13 3 14 4 24 5 25 6 9 7 8 8 10 9 6 11 2 12 3 13
REMARK SMILES IDX 4 14 5 15 1 16 7 17 15 18 16 19 22 20 17 21 21 22 18 23
REMARK SMILES IDX 19 24 20 25 23 26
REMARK H PARENT 8 10
ROOT
ATOM      1  C   UNL     1       1.435  44.309  53.855  1.00  0.00     0.082 C 
ATOM      2  C   UNL     1       1.840  43.297  52.770  1.00  0.00     0.035 C 
ATOM      3  C   UNL     1       3.322  43.472  52.409  1.00  0.00     0.117 C 
ATOM      4  N   UNL     1       3.691  44.892  52.320  1.00  0.00    -0.369 N 
ATOM      5  C   UNL     1       2.642  45.917  52.235  1.00  0.00     0.117 C 
ATOM      6  C   UNL     1       1.630  45.774  53.385  1.00  0.00     0.035 C 
ENDROOT
BRANCH   1   7
ATOM      7  C   UNL     1       0.011  44.077  54.300  1.00  0.00     0.223 C 
ATOM      8  N   UNL     1      -0.692  45.102  55.034  1.00  0.00    -0.348 N 
ATOM      9  O   UNL     1      -0.551  42.987  54.008  1.00  0.00    -0.275 OA
ATOM     10  H   UNL     1      -0.143  45.966  55.257  1.00  0.00     0.164 HD
BRANCH   8  11
ATOM     11  C   UNL     1      -2.095  45.050  55.516  1.00  0.00     0.065 C 
ATOM     12  C   UNL     1      -2.394  46.066  56.659  1.00  0.00     0.140 C 
ATOM     13  O   UNL     1      -3.036  45.382  57.712  1.00  0.00    -0.376 OA
ATOM     14  C   UNL     1      -2.688  44.024  57.601  1.00  0.00     0.163 C 
ATOM     15  C   UNL     1      -2.455  43.701  56.136  1.00  0.00     0.059 C 
ATOM     16  C   UNL     1      -1.186  46.836  57.215  1.00  0.00     0.041 C 
ATOM     17  C   UNL     1      -3.032  45.322  54.315  1.00  0.00     0.037 C 
ENDBRANCH   8  11
ENDBRANCH   1   7
BRANCH   4  18
ATOM     18  C   UNL     1       5.078  45.265  52.229  1.00  0.00     0.073 A 
ATOM     19  C   UNL     1       5.733  45.252  50.987  1.00  0.00     0.030 A 
ATOM     20  C   UNL     1       5.788  45.654  53.378  1.00  0.00     0.147 A 
ATOM     21  C   UNL     1       7.074  45.636  50.893  1.00  0.00     0.022 A 
ATOM     22  C   UNL     1       7.130  46.039  53.280  1.00  0.00     0.061 A 
ATOM     23  C   UNL     1       7.775  46.031  52.039  1.00  0.00     0.055 A 
ATOM     24  C   UNL     1       9.151  46.437  51.942  1.00  0.00     0.099 C 
ATOM     25  N   UNL     1      10.260  46.767  51.867  1.00  0.00    -0.192 NA
ATOM     26  F   UNL     1       5.186  45.653  54.594  1.00  0.00    -0.205 F 
ENDBRANCH   4  18
TORSDOF 3
ENDMDL
