ligand_41_conformer_4_docked
     RDKit          3D

 43 45  0  0  0  0  0  0  0  0999 V2000
    9.9040   47.2040   53.5560 C   0  0  0  0  0  0  0  0  0  0  0  0
    8.4650   47.0660   53.7570 N   0  0  0  0  0  0  0  0  0  0  0  0
    7.9130   46.8960   54.9480 N   0  0  0  0  0  0  0  0  0  0  0  0
    6.5800   46.8060   54.7780 C   0  0  0  0  0  0  0  0  0  0  0  0
    6.2770   46.9240   53.4320 C   0  0  0  0  0  0  0  0  0  0  0  0
    4.9390   46.8290   52.8150 C   0  0  0  0  0  0  0  0  0  0  0  0
    4.0400   47.6360   53.1750 O   0  0  0  0  0  0  0  0  0  0  0  0
    4.6430   45.8320   51.8160 N   0  0  0  0  0  0  0  0  0  0  0  0
    3.5490   46.0440   50.8600 C   0  0  0  0  0  0  0  0  0  0  0  0
    2.3670   45.1060   51.1690 C   0  0  0  0  0  0  0  0  0  0  0  0
    2.7900   43.8070   51.8940 C   0  0  0  0  0  0  0  0  0  0  0  0
    2.7190   44.0270   53.3070 O   0  0  0  0  0  0  0  0  0  0  0  0
    1.5450   44.1890   54.0570 C   0  0  0  0  0  0  0  0  0  0  0  0
    1.5750   45.0750   55.1420 C   0  0  0  0  0  0  0  0  0  0  0  0
    0.4370   45.2760   55.9280 C   0  0  0  0  0  0  0  0  0  0  0  0
   -0.7470   44.5940   55.6320 C   0  0  0  0  0  0  0  0  0  0  0  0
   -2.1770   44.8460   56.6180 Cl  0  0  0  0  0  0  0  0  0  0  0  0
   -0.7920   43.7130   54.5470 C   0  0  0  0  0  0  0  0  0  0  0  0
    0.3460   43.5100   53.7600 C   0  0  0  0  0  0  0  0  0  0  0  0
    4.2210   43.4050   51.4860 C   0  0  0  0  0  0  0  0  0  0  0  0
    5.2310   44.4850   51.9140 C   0  0  0  0  0  0  0  0  0  0  0  0
    7.5040   47.0920   52.8070 C   0  0  0  0  0  0  0  0  0  0  0  0
    7.7480   47.2600   51.3320 C   0  0  0  0  0  0  0  0  0  0  0  0
    8.3590   46.1290   50.8220 F   0  0  0  0  0  0  0  0  0  0  0  0
    8.5560   48.3600   51.1170 F   0  0  0  0  0  0  0  0  0  0  0  0
   10.4077   47.2523   54.5327 H   0  0  0  0  0  0  0  0  0  0  0  0
   10.2802   46.3378   52.9919 H   0  0  0  0  0  0  0  0  0  0  0  0
   10.1087   48.1259   52.9919 H   0  0  0  0  0  0  0  0  0  0  0  0
    5.8455   46.6611   55.5839 H   0  0  0  0  0  0  0  0  0  0  0  0
    3.2086   47.0879   50.9264 H   0  0  0  0  0  0  0  0  0  0  0  0
    3.9176   45.8267   49.8466 H   0  0  0  0  0  0  0  0  0  0  0  0
    1.6513   45.6449   51.8073 H   0  0  0  0  0  0  0  0  0  0  0  0
    1.9240   44.8121   50.2060 H   0  0  0  0  0  0  0  0  0  0  0  0
    2.1131   42.9876   51.6106 H   0  0  0  0  0  0  0  0  0  0  0  0
    2.5026   45.6173   55.3773 H   0  0  0  0  0  0  0  0  0  0  0  0
    0.4729   45.9710   56.7798 H   0  0  0  0  0  0  0  0  0  0  0  0
   -1.7243   43.1786   54.3121 H   0  0  0  0  0  0  0  0  0  0  0  0
    0.3053   42.8179   52.9060 H   0  0  0  0  0  0  0  0  0  0  0  0
    4.4816   42.4535   51.9725 H   0  0  0  0  0  0  0  0  0  0  0  0
    4.2603   43.2969   50.3920 H   0  0  0  0  0  0  0  0  0  0  0  0
    5.5341   44.3005   52.9552 H   0  0  0  0  0  0  0  0  0  0  0  0
    6.1008   44.4346   51.2425 H   0  0  0  0  0  0  0  0  0  0  0  0
    6.7840   47.4087   50.8234 H   0  0  0  0  0  0  0  0  0  0  0  0
  1  2  1  0
  2  3  1  0
  3  4  2  0
  4  5  1  0
  5  6  1  0
  6  7  2  0
  6  8  1  0
  8  9  1  0
  9 10  1  0
 10 11  1  0
 11 12  1  0
 12 13  1  0
 13 14  2  0
 14 15  1  0
 15 16  2  0
 16 17  1  0
 16 18  1  0
 18 19  2  0
 11 20  1  0
 20 21  1  0
  5 22  2  0
 22 23  1  0
 23 24  1  0
 23 25  1  0
 22  2  1  0
 21  8  1  0
 19 13  1  0
  1 26  1  0
  1 27  1  0
  1 28  1  0
  4 29  1  0
  9 30  1  0
  9 31  1  0
 10 32  1  0
 10 33  1  0
 11 34  1  0
 14 35  1  0
 15 36  1  0
 18 37  1  0
 19 38  1  0
 20 39  1  0
 20 40  1  0
 21 41  1  0
 21 42  1  0
 23 43  1  0
M  END
>  <meeko>  (1) 
{"is_sidechain": [false], "free_energy": -8.44, "intermolecular_energy": -10.414, "internal_energy": -0.764}

$$$$
ligand_41_conformer_4_docked
     RDKit          3D

 43 45  0  0  0  0  0  0  0  0999 V2000
    5.7830   41.1210   49.3250 C   0  0  0  0  0  0  0  0  0  0  0  0
    5.7120   42.4980   49.8040 N   0  0  0  0  0  0  0  0  0  0  0  0
    6.6040   43.4230   49.4840 N   0  0  0  0  0  0  0  0  0  0  0  0
    6.2440   44.5720   50.0880 C   0  0  0  0  0  0  0  0  0  0  0  0
    5.0840   44.3670   50.8150 C   0  0  0  0  0  0  0  0  0  0  0  0
    4.3860   45.3550   51.6620 C   0  0  0  0  0  0  0  0  0  0  0  0
    3.7700   46.3070   51.1130 O   0  0  0  0  0  0  0  0  0  0  0  0
    4.4010   45.2520   53.1010 N   0  0  0  0  0  0  0  0  0  0  0  0
    3.3370   45.8750   53.8990 C   0  0  0  0  0  0  0  0  0  0  0  0
    3.8760   47.1010   54.6600 C   0  0  0  0  0  0  0  0  0  0  0  0
    5.3930   47.0230   54.9490 C   0  0  0  0  0  0  0  0  0  0  0  0
    6.0990   47.6420   53.8670 O   0  0  0  0  0  0  0  0  0  0  0  0
    7.3740   47.2830   53.4040 C   0  0  0  0  0  0  0  0  0  0  0  0
    7.5300   47.0390   52.0340 C   0  0  0  0  0  0  0  0  0  0  0  0
    8.7760   46.6750   51.5140 C   0  0  0  0  0  0  0  0  0  0  0  0
    9.8810   46.5560   52.3620 C   0  0  0  0  0  0  0  0  0  0  0  0
   11.4450   46.1000   51.7110 Cl  0  0  0  0  0  0  0  0  0  0  0  0
    9.7380   46.8050   53.7310 C   0  0  0  0  0  0  0  0  0  0  0  0
    8.4930   47.1690   54.2530 C   0  0  0  0  0  0  0  0  0  0  0  0
    5.8370   45.5550   55.1070 C   0  0  0  0  0  0  0  0  0  0  0  0
    5.6070   44.7760   53.7990 C   0  0  0  0  0  0  0  0  0  0  0  0
    4.7680   43.0320   50.6090 C   0  0  0  0  0  0  0  0  0  0  0  0
    3.5950   42.2860   51.1850 C   0  0  0  0  0  0  0  0  0  0  0  0
    2.4160   42.9260   50.8500 F   0  0  0  0  0  0  0  0  0  0  0  0
    3.7140   42.2240   52.5600 F   0  0  0  0  0  0  0  0  0  0  0  0
    5.8184   40.4352   50.1843 H   0  0  0  0  0  0  0  0  0  0  0  0
    4.8951   40.8988   48.7148 H   0  0  0  0  0  0  0  0  0  0  0  0
    6.6890   40.9913   48.7148 H   0  0  0  0  0  0  0  0  0  0  0  0
    6.7876   45.5255   50.0148 H   0  0  0  0  0  0  0  0  0  0  0  0
    2.5235   46.1935   53.2306 H   0  0  0  0  0  0  0  0  0  0  0  0
    2.9652   45.1405   54.6286 H   0  0  0  0  0  0  0  0  0  0  0  0
    3.6813   47.9999   54.0566 H   0  0  0  0  0  0  0  0  0  0  0  0
    3.3606   47.1342   55.6312 H   0  0  0  0  0  0  0  0  0  0  0  0
    5.6172   47.5486   55.8889 H   0  0  0  0  0  0  0  0  0  0  0  0
    6.6651   47.1345   51.3611 H   0  0  0  0  0  0  0  0  0  0  0  0
    8.8868   46.4821   50.4367 H   0  0  0  0  0  0  0  0  0  0  0  0
   10.6074   46.7142   54.3987 H   0  0  0  0  0  0  0  0  0  0  0  0
    8.3866   47.3670   55.3298 H   0  0  0  0  0  0  0  0  0  0  0  0
    6.9067   45.5262   55.3617 H   0  0  0  0  0  0  0  0  0  0  0  0
    5.2429   45.0887   55.9068 H   0  0  0  0  0  0  0  0  0  0  0  0
    6.4789   44.9120   53.1423 H   0  0  0  0  0  0  0  0  0  0  0  0
    5.4698   43.7129   54.0461 H   0  0  0  0  0  0  0  0  0  0  0  0
    3.5805   41.2666   50.7720 H   0  0  0  0  0  0  0  0  0  0  0  0
  1  2  1  0
  2  3  1  0
  3  4  2  0
  4  5  1  0
  5  6  1  0
  6  7  2  0
  6  8  1  0
  8  9  1  0
  9 10  1  0
 10 11  1  0
 11 12  1  0
 12 13  1  0
 13 14  2  0
 14 15  1  0
 15 16  2  0
 16 17  1  0
 16 18  1  0
 18 19  2  0
 11 20  1  0
 20 21  1  0
  5 22  2  0
 22 23  1  0
 23 24  1  0
 23 25  1  0
 22  2  1  0
 21  8  1  0
 19 13  1  0
  1 26  1  0
  1 27  1  0
  1 28  1  0
  4 29  1  0
  9 30  1  0
  9 31  1  0
 10 32  1  0
 10 33  1  0
 11 34  1  0
 14 35  1  0
 15 36  1  0
 18 37  1  0
 19 38  1  0
 20 39  1  0
 20 40  1  0
 21 41  1  0
 21 42  1  0
 23 43  1  0
M  END
>  <meeko>  (2) 
{"is_sidechain": [false], "free_energy": -8.422, "intermolecular_energy": -10.664, "internal_energy": -0.492}

$$$$
ligand_41_conformer_4_docked
     RDKit          3D

 43 45  0  0  0  0  0  0  0  0999 V2000
   -1.2600   44.4400   55.5530 C   0  0  0  0  0  0  0  0  0  0  0  0
    0.1510   44.7360   55.3300 N   0  0  0  0  0  0  0  0  0  0  0  0
    0.7970   45.7000   55.9670 N   0  0  0  0  0  0  0  0  0  0  0  0
    2.0720   45.7020   55.5310 C   0  0  0  0  0  0  0  0  0  0  0  0
    2.2370   44.7050   54.5850 C   0  0  0  0  0  0  0  0  0  0  0  0
    3.4670   44.4050   53.8230 C   0  0  0  0  0  0  0  0  0  0  0  0
    4.5140   44.0900   54.4490 O   0  0  0  0  0  0  0  0  0  0  0  0
    3.4900   44.4680   52.3820 N   0  0  0  0  0  0  0  0  0  0  0  0
    4.4870   43.7030   51.6230 C   0  0  0  0  0  0  0  0  0  0  0  0
    5.5390   44.6440   51.0040 C   0  0  0  0  0  0  0  0  0  0  0  0
    5.0050   46.0740   50.7500 C   0  0  0  0  0  0  0  0  0  0  0  0
    5.2690   46.8750   51.9070 O   0  0  0  0  0  0  0  0  0  0  0  0
    6.5060   46.9980   52.5580 C   0  0  0  0  0  0  0  0  0  0  0  0
    6.5530   46.7400   53.9340 C   0  0  0  0  0  0  0  0  0  0  0  0
    7.7560   46.8510   54.6380 C   0  0  0  0  0  0  0  0  0  0  0  0
    8.9270   47.2160   53.9680 C   0  0  0  0  0  0  0  0  0  0  0  0
   10.4380   47.3540   54.8500 Cl  0  0  0  0  0  0  0  0  0  0  0  0
    8.8940   47.4680   52.5930 C   0  0  0  0  0  0  0  0  0  0  0  0
    7.6920   47.3600   51.8870 C   0  0  0  0  0  0  0  0  0  0  0  0
    3.4920   46.0390   50.4560 C   0  0  0  0  0  0  0  0  0  0  0  0
    2.7160   45.5010   51.6720 C   0  0  0  0  0  0  0  0  0  0  0  0
    0.9910   44.1040   54.4820 C   0  0  0  0  0  0  0  0  0  0  0  0
    0.6150   42.9590   53.5810 C   0  0  0  0  0  0  0  0  0  0  0  0
    1.6480   42.0410   53.5260 F   0  0  0  0  0  0  0  0  0  0  0  0
    0.3520   43.4360   52.3110 F   0  0  0  0  0  0  0  0  0  0  0  0
   -1.4595   44.3982   56.6340 H   0  0  0  0  0  0  0  0  0  0  0  0
   -1.8766   45.2283   55.0966 H   0  0  0  0  0  0  0  0  0  0  0  0
   -1.5078   43.4703   55.0966 H   0  0  0  0  0  0  0  0  0  0  0  0
    2.8595   46.3893   55.8737 H   0  0  0  0  0  0  0  0  0  0  0  0
    4.9890   42.9943   52.2981 H   0  0  0  0  0  0  0  0  0  0  0  0
    3.9762   43.1616   50.8131 H   0  0  0  0  0  0  0  0  0  0  0  0
    6.3970   44.7080   51.6894 H   0  0  0  0  0  0  0  0  0  0  0  0
    5.8200   44.2223   50.0277 H   0  0  0  0  0  0  0  0  0  0  0  0
    5.5110   46.5077   49.8749 H   0  0  0  0  0  0  0  0  0  0  0  0
    5.6354   46.4475   54.4654 H   0  0  0  0  0  0  0  0  0  0  0  0
    7.7808   46.6510   55.7194 H   0  0  0  0  0  0  0  0  0  0  0  0
    9.8164   47.7520   52.0652 H   0  0  0  0  0  0  0  0  0  0  0  0
    7.6716   47.5580   50.8052 H   0  0  0  0  0  0  0  0  0  0  0  0
    3.1446   47.0573   50.2271 H   0  0  0  0  0  0  0  0  0  0  0  0
    3.3127   45.3740   49.5983 H   0  0  0  0  0  0  0  0  0  0  0  0
    2.5089   46.3322   52.3621 H   0  0  0  0  0  0  0  0  0  0  0  0
    1.7778   45.0506   51.3157 H   0  0  0  0  0  0  0  0  0  0  0  0
   -0.2831   42.4664   53.9819 H   0  0  0  0  0  0  0  0  0  0  0  0
  1  2  1  0
  2  3  1  0
  3  4  2  0
  4  5  1  0
  5  6  1  0
  6  7  2  0
  6  8  1  0
  8  9  1  0
  9 10  1  0
 10 11  1  0
 11 12  1  0
 12 13  1  0
 13 14  2  0
 14 15  1  0
 15 16  2  0
 16 17  1  0
 16 18  1  0
 18 19  2  0
 11 20  1  0
 20 21  1  0
  5 22  2  0
 22 23  1  0
 23 24  1  0
 23 25  1  0
 22  2  1  0
 21  8  1  0
 19 13  1  0
  1 26  1  0
  1 27  1  0
  1 28  1  0
  4 29  1  0
  9 30  1  0
  9 31  1  0
 10 32  1  0
 10 33  1  0
 11 34  1  0
 14 35  1  0
 15 36  1  0
 18 37  1  0
 19 38  1  0
 20 39  1  0
 20 40  1  0
 21 41  1  0
 21 42  1  0
 23 43  1  0
M  END
>  <meeko>  (3) 
{"is_sidechain": [false], "free_energy": -8.109, "intermolecular_energy": -9.787, "internal_energy": -0.982}

$$$$
ligand_41_conformer_4_docked
     RDKit          3D

 43 45  0  0  0  0  0  0  0  0999 V2000
    9.9060   46.9810   54.3830 C   0  0  0  0  0  0  0  0  0  0  0  0
    8.8270   47.0830   53.4070 N   0  0  0  0  0  0  0  0  0  0  0  0
    8.9970   47.5650   52.1860 N   0  0  0  0  0  0  0  0  0  0  0  0
    7.8100   47.5160   51.5510 C   0  0  0  0  0  0  0  0  0  0  0  0
    6.8550   46.9850   52.4010 C   0  0  0  0  0  0  0  0  0  0  0  0
    5.4160   46.8080   52.1140 C   0  0  0  0  0  0  0  0  0  0  0  0
    4.5800   47.5500   52.6950 O   0  0  0  0  0  0  0  0  0  0  0  0
    4.9550   45.8040   51.1860 N   0  0  0  0  0  0  0  0  0  0  0  0
    3.6550   45.9530   50.5200 C   0  0  0  0  0  0  0  0  0  0  0  0
    2.6400   44.9360   51.0740 C   0  0  0  0  0  0  0  0  0  0  0  0
    3.3020   43.6610   51.6450 C   0  0  0  0  0  0  0  0  0  0  0  0
    3.5540   43.8600   53.0410 O   0  0  0  0  0  0  0  0  0  0  0  0
    2.6320   44.3400   53.9830 C   0  0  0  0  0  0  0  0  0  0  0  0
    3.0780   45.2830   54.9170 C   0  0  0  0  0  0  0  0  0  0  0  0
    2.2060   45.7960   55.8830 C   0  0  0  0  0  0  0  0  0  0  0  0
    0.8750   45.3710   55.9190 C   0  0  0  0  0  0  0  0  0  0  0  0
   -0.2210   46.0130   57.1300 Cl  0  0  0  0  0  0  0  0  0  0  0  0
    0.4160   44.4350   54.9870 C   0  0  0  0  0  0  0  0  0  0  0  0
    1.2870   43.9210   54.0210 C   0  0  0  0  0  0  0  0  0  0  0  0
    4.6180   43.3580   50.9020 C   0  0  0  0  0  0  0  0  0  0  0  0
    5.6320   44.4980   51.1090 C   0  0  0  0  0  0  0  0  0  0  0  0
    7.5380   46.7150   53.5780 C   0  0  0  0  0  0  0  0  0  0  0  0
    6.9620   46.1310   54.8390 C   0  0  0  0  0  0  0  0  0  0  0  0
    6.4310   44.8800   54.5820 F   0  0  0  0  0  0  0  0  0  0  0  0
    5.9720   46.9640   55.3260 F   0  0  0  0  0  0  0  0  0  0  0  0
    9.4863   47.0207   55.3990 H   0  0  0  0  0  0  0  0  0  0  0  0
   10.4382   46.0285   54.2430 H   0  0  0  0  0  0  0  0  0  0  0  0
   10.6073   47.8169   54.2430 H   0  0  0  0  0  0  0  0  0  0  0  0
    7.6279   47.8465   50.5178 H   0  0  0  0  0  0  0  0  0  0  0  0
    3.2761   46.9713   50.6914 H   0  0  0  0  0  0  0  0  0  0  0  0
    3.7863   45.7709   49.4432 H   0  0  0  0  0  0  0  0  0  0  0  0
    2.0637   45.4196   51.8765 H   0  0  0  0  0  0  0  0  0  0  0  0
    2.0006   44.6236   50.2352 H   0  0  0  0  0  0  0  0  0  0  0  0
    2.6286   42.8022   51.5071 H   0  0  0  0  0  0  0  0  0  0  0  0
    4.1236   45.6235   54.8909 H   0  0  0  0  0  0  0  0  0  0  0  0
    2.5678   46.5338   56.6142 H   0  0  0  0  0  0  0  0  0  0  0  0
   -0.6322   44.1023   55.0137 H   0  0  0  0  0  0  0  0  0  0  0  0
    0.9209   43.1869   53.2881 H   0  0  0  0  0  0  0  0  0  0  0  0
    5.0440   42.4206   51.2889 H   0  0  0  0  0  0  0  0  0  0  0  0
    4.4048   43.2639   49.8270 H   0  0  0  0  0  0  0  0  0  0  0  0
    6.1825   44.3232   52.0451 H   0  0  0  0  0  0  0  0  0  0  0  0
    6.3209   44.5122   50.2515 H   0  0  0  0  0  0  0  0  0  0  0  0
    7.7617   46.0348   55.5881 H   0  0  0  0  0  0  0  0  0  0  0  0
  1  2  1  0
  2  3  1  0
  3  4  2  0
  4  5  1  0
  5  6  1  0
  6  7  2  0
  6  8  1  0
  8  9  1  0
  9 10  1  0
 10 11  1  0
 11 12  1  0
 12 13  1  0
 13 14  2  0
 14 15  1  0
 15 16  2  0
 16 17  1  0
 16 18  1  0
 18 19  2  0
 11 20  1  0
 20 21  1  0
  5 22  2  0
 22 23  1  0
 23 24  1  0
 23 25  1  0
 22  2  1  0
 21  8  1  0
 19 13  1  0
  1 26  1  0
  1 27  1  0
  1 28  1  0
  4 29  1  0
  9 30  1  0
  9 31  1  0
 10 32  1  0
 10 33  1  0
 11 34  1  0
 14 35  1  0
 15 36  1  0
 18 37  1  0
 19 38  1  0
 20 39  1  0
 20 40  1  0
 21 41  1  0
 21 42  1  0
 23 43  1  0
M  END
>  <meeko>  (4) 
{"is_sidechain": [false], "free_energy": -7.982, "intermolecular_energy": -9.242, "internal_energy": -1.371}

$$$$
ligand_41_conformer_4_docked
     RDKit          3D

 43 45  0  0  0  0  0  0  0  0999 V2000
    1.0700   46.5230   58.0840 C   0  0  0  0  0  0  0  0  0  0  0  0
    0.7770   45.7570   56.8770 N   0  0  0  0  0  0  0  0  0  0  0  0
   -0.4370   45.3290   56.5670 N   0  0  0  0  0  0  0  0  0  0  0  0
   -0.3560   44.6630   55.3990 C   0  0  0  0  0  0  0  0  0  0  0  0
    0.9550   44.6700   54.9530 C   0  0  0  0  0  0  0  0  0  0  0  0
    1.4800   44.0100   53.7410 C   0  0  0  0  0  0  0  0  0  0  0  0
    1.8520   42.8080   53.8110 O   0  0  0  0  0  0  0  0  0  0  0  0
    1.5770   44.7140   52.4860 N   0  0  0  0  0  0  0  0  0  0  0  0
    1.5930   43.9710   51.2190 C   0  0  0  0  0  0  0  0  0  0  0  0
    2.9930   44.0190   50.5780 C   0  0  0  0  0  0  0  0  0  0  0  0
    3.8100   45.2670   50.9870 C   0  0  0  0  0  0  0  0  0  0  0  0
    4.5800   44.9500   52.1520 O   0  0  0  0  0  0  0  0  0  0  0  0
    5.8470   45.4640   52.4650 C   0  0  0  0  0  0  0  0  0  0  0  0
    6.6920   45.8210   51.4070 C   0  0  0  0  0  0  0  0  0  0  0  0
    7.9680   46.3360   51.6570 C   0  0  0  0  0  0  0  0  0  0  0  0
    8.4090   46.5020   52.9730 C   0  0  0  0  0  0  0  0  0  0  0  0
   10.0100   47.1480   53.2890 Cl  0  0  0  0  0  0  0  0  0  0  0  0
    7.5720   46.1560   54.0380 C   0  0  0  0  0  0  0  0  0  0  0  0
    6.2960   45.6400   53.7900 C   0  0  0  0  0  0  0  0  0  0  0  0
    2.8700   46.4560   51.2730 C   0  0  0  0  0  0  0  0  0  0  0  0
    1.9440   46.1410   52.4610 C   0  0  0  0  0  0  0  0  0  0  0  0
    1.6530   45.3810   55.9190 C   0  0  0  0  0  0  0  0  0  0  0  0
    3.1280   45.6780   55.9270 C   0  0  0  0  0  0  0  0  0  0  0  0
    3.3980   46.7520   55.0990 F   0  0  0  0  0  0  0  0  0  0  0  0
    3.8270   44.5690   55.4910 F   0  0  0  0  0  0  0  0  0  0  0  0
    0.8372   45.9143   58.9701 H   0  0  0  0  0  0  0  0  0  0  0  0
    2.1357   46.7952   58.0959 H   0  0  0  0  0  0  0  0  0  0  0  0
    0.4580   47.4369   58.0959 H   0  0  0  0  0  0  0  0  0  0  0  0
   -1.2008   44.1870   54.8796 H   0  0  0  0  0  0  0  0  0  0  0  0
    1.3195   42.9230   51.4113 H   0  0  0  0  0  0  0  0  0  0  0  0
    0.8717   44.4328   50.5288 H   0  0  0  0  0  0  0  0  0  0  0  0
    3.5491   43.1212   50.8859 H   0  0  0  0  0  0  0  0  0  0  0  0
    2.8512   44.0649   49.4881 H   0  0  0  0  0  0  0  0  0  0  0  0
    4.4815   45.5551   50.1648 H   0  0  0  0  0  0  0  0  0  0  0  0
    6.3489   45.6952   50.3695 H   0  0  0  0  0  0  0  0  0  0  0  0
    8.6245   46.6104   50.8181 H   0  0  0  0  0  0  0  0  0  0  0  0
    7.9179   46.2899   55.0736 H   0  0  0  0  0  0  0  0  0  0  0  0
    5.6406   45.3706   54.6313 H   0  0  0  0  0  0  0  0  0  0  0  0
    3.4732   47.3447   51.5106 H   0  0  0  0  0  0  0  0  0  0  0  0
    2.2526   46.6422   50.3819 H   0  0  0  0  0  0  0  0  0  0  0  0
    2.4625   46.3947   53.3974 H   0  0  0  0  0  0  0  0  0  0  0  0
    1.0248   46.7355   52.3537 H   0  0  0  0  0  0  0  0  0  0  0  0
    3.4391   45.9271   56.9523 H   0  0  0  0  0  0  0  0  0  0  0  0
  1  2  1  0
  2  3  1  0
  3  4  2  0
  4  5  1  0
  5  6  1  0
  6  7  2  0
  6  8  1  0
  8  9  1  0
  9 10  1  0
 10 11  1  0
 11 12  1  0
 12 13  1  0
 13 14  2  0
 14 15  1  0
 15 16  2  0
 16 17  1  0
 16 18  1  0
 18 19  2  0
 11 20  1  0
 20 21  1  0
  5 22  2  0
 22 23  1  0
 23 24  1  0
 23 25  1  0
 22  2  1  0
 21  8  1  0
 19 13  1  0
  1 26  1  0
  1 27  1  0
  1 28  1  0
  4 29  1  0
  9 30  1  0
  9 31  1  0
 10 32  1  0
 10 33  1  0
 11 34  1  0
 14 35  1  0
 15 36  1  0
 18 37  1  0
 19 38  1  0
 20 39  1  0
 20 40  1  0
 21 41  1  0
 21 42  1  0
 23 43  1  0
M  END
>  <meeko>  (5) 
{"is_sidechain": [false], "free_energy": -7.836, "intermolecular_energy": -9.324, "internal_energy": -1.109}

$$$$
