ligand_88_conformer_2_docked
     RDKit          3D

 47 49  0  0  0  0  0  0  0  0999 V2000
    5.9650   41.4510   49.2490 C   0  0  0  0  0  0  0  0  0  0  0  0
    6.4810   42.8120   49.6100 C   0  0  0  0  0  0  0  0  0  0  0  0
    5.6750   43.7050   50.3300 C   0  0  0  0  0  0  0  0  0  0  0  0
    6.1670   44.9590   50.7000 C   0  0  0  0  0  0  0  0  0  0  0  0
    7.4850   45.3300   50.3810 C   0  0  0  0  0  0  0  0  0  0  0  0
    8.0290   46.6810   50.7970 C   0  0  0  0  0  0  0  0  0  0  0  0
    7.7600   47.0460   52.2910 C   0  0  0  0  0  0  0  0  0  0  0  0
    8.0000   48.5590   52.4610 C   0  0  0  0  0  0  0  0  0  0  0  0
    8.7330   46.2690   53.2070 C   0  0  0  0  0  0  0  0  0  0  0  0
    6.3590   46.7360   52.6400 N   0  0  0  0  0  0  0  0  0  0  0  0
    5.8190   46.7330   53.9740 C   0  0  0  0  0  0  0  0  0  0  0  0
    6.4280   47.3100   54.9130 O   0  0  0  0  0  0  0  0  0  0  0  0
    4.5390   46.0650   54.2620 C   0  0  0  0  0  0  0  0  0  0  0  0
    3.7380   45.3870   53.3630 C   0  0  0  0  0  0  0  0  0  0  0  0
    2.6920   44.9380   54.1410 C   0  0  0  0  0  0  0  0  0  0  0  0
    1.5450   44.1480   53.6830 C   0  0  0  0  0  0  0  0  0  0  0  0
    1.6080   42.9050   53.0810 C   0  0  0  0  0  0  0  0  0  0  0  0
    0.2910   42.5720   52.8470 C   0  0  0  0  0  0  0  0  0  0  0  0
   -0.4870   43.5810   53.2830 N   0  0  0  0  0  0  0  0  0  0  0  0
   -1.9430   43.5970   53.2810 C   0  0  0  0  0  0  0  0  0  0  0  0
    0.2620   44.5390   53.8050 N   0  0  0  0  0  0  0  0  0  0  0  0
    2.8840   45.3270   55.3800 O   0  0  0  0  0  0  0  0  0  0  0  0
    3.9880   46.0050   55.4920 N   0  0  0  0  0  0  0  0  0  0  0  0
    8.2890   44.4330   49.6570 C   0  0  0  0  0  0  0  0  0  0  0  0
    7.7940   43.1800   49.2850 C   0  0  0  0  0  0  0  0  0  0  0  0
    5.7503   40.8848   50.1673 H   0  0  0  0  0  0  0  0  0  0  0  0
    5.0433   41.5533   48.6574 H   0  0  0  0  0  0  0  0  0  0  0  0
    6.7229   40.9165   48.6574 H   0  0  0  0  0  0  0  0  0  0  0  0
    4.6497   43.4167   50.6050 H   0  0  0  0  0  0  0  0  0  0  0  0
    5.5186   45.6611   51.2447 H   0  0  0  0  0  0  0  0  0  0  0  0
    9.1166   46.6807   50.6323 H   0  0  0  0  0  0  0  0  0  0  0  0
    7.5063   47.4336   50.1884 H   0  0  0  0  0  0  0  0  0  0  0  0
    8.0392   48.8060   53.5322 H   0  0  0  0  0  0  0  0  0  0  0  0
    8.9531   48.8347   51.9861 H   0  0  0  0  0  0  0  0  0  0  0  0
    7.1790   49.1161   51.9861 H   0  0  0  0  0  0  0  0  0  0  0  0
    8.4836   46.4682   54.2597 H   0  0  0  0  0  0  0  0  0  0  0  0
    8.6435   45.1911   53.0066 H   0  0  0  0  0  0  0  0  0  0  0  0
    9.7644   46.5948   53.0066 H   0  0  0  0  0  0  0  0  0  0  0  0
    5.6900   46.5370   51.8650 H   0  0  0  0  0  0  0  0  0  0  0  0
    3.8969   45.2405   52.2844 H   0  0  0  0  0  0  0  0  0  0  0  0
    2.5056   42.3154   52.8428 H   0  0  0  0  0  0  0  0  0  0  0  0
   -0.0642   41.6401   52.3828 H   0  0  0  0  0  0  0  0  0  0  0  0
   -2.3111   43.6010   54.3176 H   0  0  0  0  0  0  0  0  0  0  0  0
   -2.2991   44.4991   52.7619 H   0  0  0  0  0  0  0  0  0  0  0  0
   -2.3188   42.7029   52.7619 H   0  0  0  0  0  0  0  0  0  0  0  0
    9.3148   44.7190   49.3813 H   0  0  0  0  0  0  0  0  0  0  0  0
    8.4382   42.4788   48.7342 H   0  0  0  0  0  0  0  0  0  0  0  0
  1  2  1  0
  2  3  2  0
  3  4  1  0
  4  5  2  0
  5  6  1  0
  6  7  1  0
  7  8  1  0
  7  9  1  0
  7 10  1  0
 10 11  1  0
 11 12  2  0
 11 13  1  0
 13 14  1  0
 14 15  2  0
 15 16  1  0
 16 17  1  0
 17 18  2  0
 18 19  1  0
 19 20  1  0
 19 21  1  0
 15 22  1  0
 22 23  1  0
  5 24  1  0
 24 25  2  0
 25  2  1  0
 23 13  2  0
 21 16  2  0
  1 26  1  0
  1 27  1  0
  1 28  1  0
  3 29  1  0
  4 30  1  0
  6 31  1  0
  6 32  1  0
  8 33  1  0
  8 34  1  0
  8 35  1  0
  9 36  1  0
  9 37  1  0
  9 38  1  0
 10 39  1  0
 14 40  1  0
 17 41  1  0
 18 42  1  0
 20 43  1  0
 20 44  1  0
 20 45  1  0
 24 46  1  0
 25 47  1  0
M  END
>  <meeko>  (1) 
{"is_sidechain": [false], "free_energy": -9.101, "intermolecular_energy": -11.761, "internal_energy": 0.233}

$$$$
ligand_88_conformer_2_docked
     RDKit          3D

 47 49  0  0  0  0  0  0  0  0999 V2000
    6.6960   41.3870   50.0120 C   0  0  0  0  0  0  0  0  0  0  0  0
    5.3900   42.0270   50.3800 C   0  0  0  0  0  0  0  0  0  0  0  0
    5.3180   43.4090   50.6040 C   0  0  0  0  0  0  0  0  0  0  0  0
    4.0950   44.0120   50.9090 C   0  0  0  0  0  0  0  0  0  0  0  0
    2.9180   43.2460   50.9690 C   0  0  0  0  0  0  0  0  0  0  0  0
    1.5870   43.8990   51.2810 C   0  0  0  0  0  0  0  0  0  0  0  0
    1.3030   44.0720   52.8070 C   0  0  0  0  0  0  0  0  0  0  0  0
    1.1190   42.6690   53.4180 C   0  0  0  0  0  0  0  0  0  0  0  0
    0.0100   44.8930   53.0130 C   0  0  0  0  0  0  0  0  0  0  0  0
    2.4500   44.7370   53.4590 N   0  0  0  0  0  0  0  0  0  0  0  0
    2.8390   46.1070   53.2530 C   0  0  0  0  0  0  0  0  0  0  0  0
    2.0340   46.9320   52.7440 O   0  0  0  0  0  0  0  0  0  0  0  0
    4.1800   46.5730   53.6440 C   0  0  0  0  0  0  0  0  0  0  0  0
    5.3820   46.2150   53.0620 C   0  0  0  0  0  0  0  0  0  0  0  0
    6.3110   46.9430   53.7750 C   0  0  0  0  0  0  0  0  0  0  0  0
    7.7620   46.9420   53.5660 C   0  0  0  0  0  0  0  0  0  0  0  0
    8.7010   47.5040   54.4100 C   0  0  0  0  0  0  0  0  0  0  0  0
    9.9090   47.2420   53.8010 C   0  0  0  0  0  0  0  0  0  0  0  0
    9.6720   46.5720   52.6570 N   0  0  0  0  0  0  0  0  0  0  0  0
   10.6840   46.0490   51.7500 C   0  0  0  0  0  0  0  0  0  0  0  0
    8.3720   46.3720   52.5080 N   0  0  0  0  0  0  0  0  0  0  0  0
    5.6890   47.6560   54.6850 O   0  0  0  0  0  0  0  0  0  0  0  0
    4.4040   47.4610   54.6330 N   0  0  0  0  0  0  0  0  0  0  0  0
    2.9950   41.8600   50.7470 C   0  0  0  0  0  0  0  0  0  0  0  0
    4.2190   41.2580   50.4440 C   0  0  0  0  0  0  0  0  0  0  0  0
    7.2436   41.1186   50.9275 H   0  0  0  0  0  0  0  0  0  0  0  0
    6.5058   40.4800   49.4194 H   0  0  0  0  0  0  0  0  0  0  0  0
    7.2962   42.0931   49.4194 H   0  0  0  0  0  0  0  0  0  0  0  0
    6.2291   44.0219   50.5393 H   0  0  0  0  0  0  0  0  0  0  0  0
    4.0530   45.0938   51.1035 H   0  0  0  0  0  0  0  0  0  0  0  0
    1.5721   44.8939   50.8120 H   0  0  0  0  0  0  0  0  0  0  0  0
    0.8065   43.2315   50.8871 H   0  0  0  0  0  0  0  0  0  0  0  0
    1.1287   42.7429   54.5155 H   0  0  0  0  0  0  0  0  0  0  0  0
    0.1580   42.2482   53.0873 H   0  0  0  0  0  0  0  0  0  0  0  0
    1.9390   42.0146   53.0873 H   0  0  0  0  0  0  0  0  0  0  0  0
   -0.1801   45.0137   54.0897 H   0  0  0  0  0  0  0  0  0  0  0  0
    0.1263   45.8831   52.5480 H   0  0  0  0  0  0  0  0  0  0  0  0
   -0.8366   44.3666   52.5480 H   0  0  0  0  0  0  0  0  0  0  0  0
    3.0070   44.1940   54.1520 H   0  0  0  0  0  0  0  0  0  0  0  0
    5.5556   45.5169   52.2298 H   0  0  0  0  0  0  0  0  0  0  0  0
    8.5241   48.0394   55.3545 H   0  0  0  0  0  0  0  0  0  0  0  0
   10.8988   47.5310   54.1841 H   0  0  0  0  0  0  0  0  0  0  0  0
   11.5127   45.6207   52.3329 H   0  0  0  0  0  0  0  0  0  0  0  0
   10.2395   45.2677   51.1159 H   0  0  0  0  0  0  0  0  0  0  0  0
   11.0642   46.8635   51.1159 H   0  0  0  0  0  0  0  0  0  0  0  0
    2.0853   41.2451   50.8123 H   0  0  0  0  0  0  0  0  0  0  0  0
    4.2643   40.1754   50.2547 H   0  0  0  0  0  0  0  0  0  0  0  0
  1  2  1  0
  2  3  2  0
  3  4  1  0
  4  5  2  0
  5  6  1  0
  6  7  1  0
  7  8  1  0
  7  9  1  0
  7 10  1  0
 10 11  1  0
 11 12  2  0
 11 13  1  0
 13 14  1  0
 14 15  2  0
 15 16  1  0
 16 17  1  0
 17 18  2  0
 18 19  1  0
 19 20  1  0
 19 21  1  0
 15 22  1  0
 22 23  1  0
  5 24  1  0
 24 25  2  0
 25  2  1  0
 23 13  2  0
 21 16  2  0
  1 26  1  0
  1 27  1  0
  1 28  1  0
  3 29  1  0
  4 30  1  0
  6 31  1  0
  6 32  1  0
  8 33  1  0
  8 34  1  0
  8 35  1  0
  9 36  1  0
  9 37  1  0
  9 38  1  0
 10 39  1  0
 14 40  1  0
 17 41  1  0
 18 42  1  0
 20 43  1  0
 20 44  1  0
 20 45  1  0
 24 46  1  0
 25 47  1  0
M  END
>  <meeko>  (2) 
{"is_sidechain": [false], "free_energy": -9.086, "intermolecular_energy": -11.535, "internal_energy": 0.026}

$$$$
ligand_88_conformer_2_docked
     RDKit          3D

 47 49  0  0  0  0  0  0  0  0999 V2000
   10.6440   46.2870   51.8490 C   0  0  0  0  0  0  0  0  0  0  0  0
    9.1720   46.4290   52.0980 C   0  0  0  0  0  0  0  0  0  0  0  0
    8.2470   45.9830   51.1430 C   0  0  0  0  0  0  0  0  0  0  0  0
    6.8750   46.0800   51.3890 C   0  0  0  0  0  0  0  0  0  0  0  0
    6.4050   46.5990   52.6080 C   0  0  0  0  0  0  0  0  0  0  0  0
    4.9190   46.6890   52.8870 C   0  0  0  0  0  0  0  0  0  0  0  0
    4.2480   45.3200   53.2240 C   0  0  0  0  0  0  0  0  0  0  0  0
    2.8090   45.6010   53.7000 C   0  0  0  0  0  0  0  0  0  0  0  0
    5.0300   44.6140   54.3550 C   0  0  0  0  0  0  0  0  0  0  0  0
    4.2020   44.4720   52.0160 N   0  0  0  0  0  0  0  0  0  0  0  0
    3.7460   43.1080   51.9790 C   0  0  0  0  0  0  0  0  0  0  0  0
    3.0490   42.6390   52.9180 O   0  0  0  0  0  0  0  0  0  0  0  0
    4.0750   42.2380   50.8380 C   0  0  0  0  0  0  0  0  0  0  0  0
    3.1810   41.5990   49.9990 C   0  0  0  0  0  0  0  0  0  0  0  0
    3.9960   40.9490   49.0980 C   0  0  0  0  0  0  0  0  0  0  0  0
    3.5580   40.1130   47.9750 C   0  0  0  0  0  0  0  0  0  0  0  0
    3.7440   40.3970   46.6360 C   0  0  0  0  0  0  0  0  0  0  0  0
    3.1780   39.3270   45.9770 C   0  0  0  0  0  0  0  0  0  0  0  0
    2.6810   38.4770   46.8960 N   0  0  0  0  0  0  0  0  0  0  0  0
    2.0590   37.1900   46.6190 C   0  0  0  0  0  0  0  0  0  0  0  0
    2.9160   38.9370   48.1150 N   0  0  0  0  0  0  0  0  0  0  0  0
    5.2500   41.1990   49.3970 O   0  0  0  0  0  0  0  0  0  0  0  0
    5.3360   41.9750   50.4380 N   0  0  0  0  0  0  0  0  0  0  0  0
    7.3350   47.0480   53.5610 C   0  0  0  0  0  0  0  0  0  0  0  0
    8.7070   46.9520   53.3130 C   0  0  0  0  0  0  0  0  0  0  0  0
   11.1753   46.2357   52.8108 H   0  0  0  0  0  0  0  0  0  0  0  0
   10.8320   45.3666   51.2768 H   0  0  0  0  0  0  0  0  0  0  0  0
   11.0044   47.1545   51.2768 H   0  0  0  0  0  0  0  0  0  0  0  0
    8.6036   45.5543   50.1948 H   0  0  0  0  0  0  0  0  0  0  0  0
    6.1579   45.7481   50.6238 H   0  0  0  0  0  0  0  0  0  0  0  0
    4.7685   47.3665   53.7404 H   0  0  0  0  0  0  0  0  0  0  0  0
    4.4453   47.0550   51.9642 H   0  0  0  0  0  0  0  0  0  0  0  0
    2.7810   45.6065   54.7996 H   0  0  0  0  0  0  0  0  0  0  0  0
    2.4817   46.5800   53.3200 H   0  0  0  0  0  0  0  0  0  0  0  0
    2.1374   44.8170   53.3200 H   0  0  0  0  0  0  0  0  0  0  0  0
    4.6522   44.9550   55.3302 H   0  0  0  0  0  0  0  0  0  0  0  0
    4.8953   43.5256   54.2699 H   0  0  0  0  0  0  0  0  0  0  0  0
    6.0990   44.8589   54.2699 H   0  0  0  0  0  0  0  0  0  0  0  0
    4.4860   44.8930   51.1060 H   0  0  0  0  0  0  0  0  0  0  0  0
    2.0818   41.6075   50.0408 H   0  0  0  0  0  0  0  0  0  0  0  0
    4.2333   41.2781   46.1953 H   0  0  0  0  0  0  0  0  0  0  0  0
    3.1388   39.1905   44.8862 H   0  0  0  0  0  0  0  0  0  0  0  0
    1.8165   36.6883   47.5674 H   0  0  0  0  0  0  0  0  0  0  0  0
    1.1366   37.3455   46.0402 H   0  0  0  0  0  0  0  0  0  0  0  0
    2.7539   36.5639   46.0402 H   0  0  0  0  0  0  0  0  0  0  0  0
    6.9804   47.4782   54.5093 H   0  0  0  0  0  0  0  0  0  0  0  0
    9.4257   47.2884   54.0748 H   0  0  0  0  0  0  0  0  0  0  0  0
  1  2  1  0
  2  3  2  0
  3  4  1  0
  4  5  2  0
  5  6  1  0
  6  7  1  0
  7  8  1  0
  7  9  1  0
  7 10  1  0
 10 11  1  0
 11 12  2  0
 11 13  1  0
 13 14  1  0
 14 15  2  0
 15 16  1  0
 16 17  1  0
 17 18  2  0
 18 19  1  0
 19 20  1  0
 19 21  1  0
 15 22  1  0
 22 23  1  0
  5 24  1  0
 24 25  2  0
 25  2  1  0
 23 13  2  0
 21 16  2  0
  1 26  1  0
  1 27  1  0
  1 28  1  0
  3 29  1  0
  4 30  1  0
  6 31  1  0
  6 32  1  0
  8 33  1  0
  8 34  1  0
  8 35  1  0
  9 36  1  0
  9 37  1  0
  9 38  1  0
 10 39  1  0
 14 40  1  0
 17 41  1  0
 18 42  1  0
 20 43  1  0
 20 44  1  0
 20 45  1  0
 24 46  1  0
 25 47  1  0
M  END
>  <meeko>  (3) 
{"is_sidechain": [false], "free_energy": -8.591, "intermolecular_energy": -10.825, "internal_energy": -0.044}

$$$$
ligand_88_conformer_2_docked
     RDKit          3D

 47 49  0  0  0  0  0  0  0  0999 V2000
    9.0430   47.2160   51.8370 C   0  0  0  0  0  0  0  0  0  0  0  0
    7.8310   46.3340   51.8680 C   0  0  0  0  0  0  0  0  0  0  0  0
    7.0870   46.1950   53.0490 C   0  0  0  0  0  0  0  0  0  0  0  0
    5.9360   45.4040   53.0690 C   0  0  0  0  0  0  0  0  0  0  0  0
    5.4930   44.7610   51.9010 C   0  0  0  0  0  0  0  0  0  0  0  0
    4.2340   43.9170   51.9140 C   0  0  0  0  0  0  0  0  0  0  0  0
    2.9140   44.7360   51.7590 C   0  0  0  0  0  0  0  0  0  0  0  0
    1.9000   43.8620   50.9950 C   0  0  0  0  0  0  0  0  0  0  0  0
    3.1850   46.0270   50.9540 C   0  0  0  0  0  0  0  0  0  0  0  0
    2.3660   45.0620   53.0920 N   0  0  0  0  0  0  0  0  0  0  0  0
    1.5510   44.1840   53.8890 C   0  0  0  0  0  0  0  0  0  0  0  0
    1.5120   42.9480   53.6450 O   0  0  0  0  0  0  0  0  0  0  0  0
    0.7570   44.7110   55.0110 C   0  0  0  0  0  0  0  0  0  0  0  0
    1.1800   45.6070   55.9750 C   0  0  0  0  0  0  0  0  0  0  0  0
    0.0600   45.7860   56.7580 C   0  0  0  0  0  0  0  0  0  0  0  0
   -0.0470   46.6520   57.9360 C   0  0  0  0  0  0  0  0  0  0  0  0
    0.9960   47.0230   58.7640 C   0  0  0  0  0  0  0  0  0  0  0  0
    0.4090   47.8370   59.7100 C   0  0  0  0  0  0  0  0  0  0  0  0
   -0.9080   47.9180   59.4420 N   0  0  0  0  0  0  0  0  0  0  0  0
   -1.8760   48.7320   60.1640 C   0  0  0  0  0  0  0  0  0  0  0  0
   -1.1970   47.2130   58.3600 N   0  0  0  0  0  0  0  0  0  0  0  0
   -0.9190   45.0550   56.2780 O   0  0  0  0  0  0  0  0  0  0  0  0
   -0.5370   44.3970   55.2240 N   0  0  0  0  0  0  0  0  0  0  0  0
    6.2420   44.9000   50.7200 C   0  0  0  0  0  0  0  0  0  0  0  0
    7.3950   45.6900   50.7010 C   0  0  0  0  0  0  0  0  0  0  0  0
    9.3567   47.4443   52.8663 H   0  0  0  0  0  0  0  0  0  0  0  0
    9.8592   46.6992   51.3110 H   0  0  0  0  0  0  0  0  0  0  0  0
    8.8023   48.1516   51.3110 H   0  0  0  0  0  0  0  0  0  0  0  0
    7.4117   46.7117   53.9642 H   0  0  0  0  0  0  0  0  0  0  0  0
    5.3723   45.2836   54.0059 H   0  0  0  0  0  0  0  0  0  0  0  0
    4.2927   43.1968   51.0846 H   0  0  0  0  0  0  0  0  0  0  0  0
    4.1901   43.4293   52.8990 H   0  0  0  0  0  0  0  0  0  0  0  0
    1.2694   43.3185   51.7140 H   0  0  0  0  0  0  0  0  0  0  0  0
    1.2671   44.5022   50.3629 H   0  0  0  0  0  0  0  0  0  0  0  0
    2.4399   43.1416   50.3629 H   0  0  0  0  0  0  0  0  0  0  0  0
    3.3603   46.8620   51.6483 H   0  0  0  0  0  0  0  0  0  0  0  0
    4.0728   45.8844   50.3204 H   0  0  0  0  0  0  0  0  0  0  0  0
    2.3148   46.2535   50.3204 H   0  0  0  0  0  0  0  0  0  0  0  0
    2.6120   45.9820   53.5160 H   0  0  0  0  0  0  0  0  0  0  0  0
    2.1726   46.0669   56.0897 H   0  0  0  0  0  0  0  0  0  0  0  0
    2.0546   46.7343   58.6860 H   0  0  0  0  0  0  0  0  0  0  0  0
    0.9284   48.3353   60.5419 H   0  0  0  0  0  0  0  0  0  0  0  0
   -1.7262   48.6060   61.2464 H   0  0  0  0  0  0  0  0  0  0  0  0
   -1.7384   49.7898   59.8954 H   0  0  0  0  0  0  0  0  0  0  0  0
   -2.8945   48.4150   59.8954 H   0  0  0  0  0  0  0  0  0  0  0  0
    5.9186   44.3835   49.8042 H   0  0  0  0  0  0  0  0  0  0  0  0
    7.9630   45.8071   49.7663 H   0  0  0  0  0  0  0  0  0  0  0  0
  1  2  1  0
  2  3  2  0
  3  4  1  0
  4  5  2  0
  5  6  1  0
  6  7  1  0
  7  8  1  0
  7  9  1  0
  7 10  1  0
 10 11  1  0
 11 12  2  0
 11 13  1  0
 13 14  1  0
 14 15  2  0
 15 16  1  0
 16 17  1  0
 17 18  2  0
 18 19  1  0
 19 20  1  0
 19 21  1  0
 15 22  1  0
 22 23  1  0
  5 24  1  0
 24 25  2  0
 25  2  1  0
 23 13  2  0
 21 16  2  0
  1 26  1  0
  1 27  1  0
  1 28  1  0
  3 29  1  0
  4 30  1  0
  6 31  1  0
  6 32  1  0
  8 33  1  0
  8 34  1  0
  8 35  1  0
  9 36  1  0
  9 37  1  0
  9 38  1  0
 10 39  1  0
 14 40  1  0
 17 41  1  0
 18 42  1  0
 20 43  1  0
 20 44  1  0
 20 45  1  0
 24 46  1  0
 25 47  1  0
M  END
>  <meeko>  (4) 
{"is_sidechain": [false], "free_energy": -8.469, "intermolecular_energy": -10.759, "internal_energy": 0.048}

$$$$
ligand_88_conformer_2_docked
     RDKit          3D

 47 49  0  0  0  0  0  0  0  0999 V2000
    9.7930   47.1910   52.6630 C   0  0  0  0  0  0  0  0  0  0  0  0
    8.4680   46.7030   52.1570 C   0  0  0  0  0  0  0  0  0  0  0  0
    8.4100   45.7820   51.1010 C   0  0  0  0  0  0  0  0  0  0  0  0
    7.1790   45.2970   50.6550 C   0  0  0  0  0  0  0  0  0  0  0  0
    5.9850   45.7030   51.2750 C   0  0  0  0  0  0  0  0  0  0  0  0
    4.6480   45.1660   50.8060 C   0  0  0  0  0  0  0  0  0  0  0  0
    3.9830   44.1570   51.7940 C   0  0  0  0  0  0  0  0  0  0  0  0
    2.7120   44.8180   52.3630 C   0  0  0  0  0  0  0  0  0  0  0  0
    4.9540   43.8350   52.9530 C   0  0  0  0  0  0  0  0  0  0  0  0
    3.6060   42.9230   51.0750 N   0  0  0  0  0  0  0  0  0  0  0  0
    4.5140   42.0840   50.3380 C   0  0  0  0  0  0  0  0  0  0  0  0
    5.7580   42.1700   50.5210 O   0  0  0  0  0  0  0  0  0  0  0  0
    4.0070   41.1040   49.3640 C   0  0  0  0  0  0  0  0  0  0  0  0
    4.2430   41.0910   48.0020 C   0  0  0  0  0  0  0  0  0  0  0  0
    3.5730   39.9660   47.5720 C   0  0  0  0  0  0  0  0  0  0  0  0
    3.4980   39.4730   46.1930 C   0  0  0  0  0  0  0  0  0  0  0  0
    3.7570   40.2140   45.0550 C   0  0  0  0  0  0  0  0  0  0  0  0
    3.5650   39.3250   44.0180 C   0  0  0  0  0  0  0  0  0  0  0  0
    3.2030   38.1370   44.5380 N   0  0  0  0  0  0  0  0  0  0  0  0
    2.9710   36.9130   43.7850 C   0  0  0  0  0  0  0  0  0  0  0  0
    3.1700   38.2100   45.8590 N   0  0  0  0  0  0  0  0  0  0  0  0
    3.0050   39.3850   48.6030 O   0  0  0  0  0  0  0  0  0  0  0  0
    3.2480   40.0410   49.7000 N   0  0  0  0  0  0  0  0  0  0  0  0
    6.0470   46.6290   52.3310 C   0  0  0  0  0  0  0  0  0  0  0  0
    7.2790   47.1150   52.7760 C   0  0  0  0  0  0  0  0  0  0  0  0
    9.7886   47.1894   53.7630 H   0  0  0  0  0  0  0  0  0  0  0  0
   10.5915   46.5280   52.2985 H   0  0  0  0  0  0  0  0  0  0  0  0
    9.9706   48.2136   52.2985 H   0  0  0  0  0  0  0  0  0  0  0  0
    9.3391   45.4399   50.6216 H   0  0  0  0  0  0  0  0  0  0  0  0
    7.1435   44.5916   49.8117 H   0  0  0  0  0  0  0  0  0  0  0  0
    3.9637   46.0161   50.6682 H   0  0  0  0  0  0  0  0  0  0  0  0
    4.8374   44.6165   49.8721 H   0  0  0  0  0  0  0  0  0  0  0  0
    2.7493   44.7986   53.4622 H   0  0  0  0  0  0  0  0  0  0  0  0
    2.6543   45.8604   52.0164 H   0  0  0  0  0  0  0  0  0  0  0  0
    1.8254   44.2667   52.0164 H   0  0  0  0  0  0  0  0  0  0  0  0
    4.4463   44.0034   53.9142 H   0  0  0  0  0  0  0  0  0  0  0  0
    5.2706   42.7838   52.8848 H   0  0  0  0  0  0  0  0  0  0  0  0
    5.8360   44.4887   52.8848 H   0  0  0  0  0  0  0  0  0  0  0  0
    2.6150   42.6040   51.1270 H   0  0  0  0  0  0  0  0  0  0  0  0
    4.8260   41.8072   47.4044 H   0  0  0  0  0  0  0  0  0  0  0  0
    4.0498   41.2724   44.9910 H   0  0  0  0  0  0  0  0  0  0  0  0
    3.6869   39.5486   42.9479 H   0  0  0  0  0  0  0  0  0  0  0  0
    2.8127   36.0776   44.4829 H   0  0  0  0  0  0  0  0  0  0  0  0
    2.0801   37.0355   43.1515 H   0  0  0  0  0  0  0  0  0  0  0  0
    3.8449   36.7010   43.1515 H   0  0  0  0  0  0  0  0  0  0  0  0
    5.1188   46.9734   52.8104 H   0  0  0  0  0  0  0  0  0  0  0  0
    7.3165   47.8243   53.6160 H   0  0  0  0  0  0  0  0  0  0  0  0
  1  2  1  0
  2  3  2  0
  3  4  1  0
  4  5  2  0
  5  6  1  0
  6  7  1  0
  7  8  1  0
  7  9  1  0
  7 10  1  0
 10 11  1  0
 11 12  2  0
 11 13  1  0
 13 14  1  0
 14 15  2  0
 15 16  1  0
 16 17  1  0
 17 18  2  0
 18 19  1  0
 19 20  1  0
 19 21  1  0
 15 22  1  0
 22 23  1  0
  5 24  1  0
 24 25  2  0
 25  2  1  0
 23 13  2  0
 21 16  2  0
  1 26  1  0
  1 27  1  0
  1 28  1  0
  3 29  1  0
  4 30  1  0
  6 31  1  0
  6 32  1  0
  8 33  1  0
  8 34  1  0
  8 35  1  0
  9 36  1  0
  9 37  1  0
  9 38  1  0
 10 39  1  0
 14 40  1  0
 17 41  1  0
 18 42  1  0
 20 43  1  0
 20 44  1  0
 20 45  1  0
 24 46  1  0
 25 47  1  0
M  END
>  <meeko>  (5) 
{"is_sidechain": [false], "free_energy": -7.71, "intermolecular_energy": -9.719, "internal_energy": -0.011}

$$$$
