ligand_16_conformer_1_docked
     RDKit          3D

 43 45  0  0  0  0  0  0  0  0999 V2000
    0.4320   45.7700   52.3270 O   0  0  0  0  0  0  0  0  0  0  0  0
    1.3500   45.1300   52.9110 C   0  0  0  0  0  0  0  0  0  0  0  0
    1.0250   44.2830   54.0270 N   0  0  0  0  0  0  0  0  0  0  0  0
   -0.1630   44.4310   54.8240 C   0  0  0  0  0  0  0  0  0  0  0  0
   -1.3930   43.8910   54.4100 C   0  0  0  0  0  0  0  0  0  0  0  0
   -2.5380   44.0670   55.1890 C   0  0  0  0  0  0  0  0  0  0  0  0
   -2.4700   44.7910   56.3810 C   0  0  0  0  0  0  0  0  0  0  0  0
   -1.2620   45.3600   56.8010 C   0  0  0  0  0  0  0  0  0  0  0  0
   -1.2560   46.0860   58.0030 O   0  0  0  0  0  0  0  0  0  0  0  0
   -0.8420   47.4450   58.1530 C   0  0  0  0  0  0  0  0  0  0  0  0
    0.3380   47.5460   59.1150 C   0  0  0  0  0  0  0  0  0  0  0  0
    1.3880   46.7790   58.6450 F   0  0  0  0  0  0  0  0  0  0  0  0
   -0.1080   45.1770   56.0120 C   0  0  0  0  0  0  0  0  0  0  0  0
    2.7400   45.2210   52.4050 C   0  0  0  0  0  0  0  0  0  0  0  0
    3.0350   46.0160   51.2830 C   0  0  0  0  0  0  0  0  0  0  0  0
    4.3450   46.1100   50.8040 C   0  0  0  0  0  0  0  0  0  0  0  0
    5.3840   45.4070   51.4270 C   0  0  0  0  0  0  0  0  0  0  0  0
    6.7250   45.5400   50.9290 N   0  0  0  0  0  0  0  0  0  0  0  0
    7.8240   46.0550   51.6950 C   0  0  0  0  0  0  0  0  0  0  0  0
    9.1100   45.8260   51.3110 N   0  0  0  0  0  0  0  0  0  0  0  0
   10.1540   46.3360   52.0160 C   0  0  0  0  0  0  0  0  0  0  0  0
    9.9140   47.1160   53.1460 C   0  0  0  0  0  0  0  0  0  0  0  0
    8.5920   47.3540   53.5200 C   0  0  0  0  0  0  0  0  0  0  0  0
    7.5760   46.8260   52.7890 N   0  0  0  0  0  0  0  0  0  0  0  0
    5.0990   44.6400   52.5700 C   0  0  0  0  0  0  0  0  0  0  0  0
    3.7910   44.5440   53.0510 C   0  0  0  0  0  0  0  0  0  0  0  0
    1.6280   43.4460   54.1990 H   0  0  0  0  0  0  0  0  0  0  0  0
   -1.4536   43.3270   53.4676 H   0  0  0  0  0  0  0  0  0  0  0  0
   -3.4955   43.6345   54.8632 H   0  0  0  0  0  0  0  0  0  0  0  0
   -3.3738   44.9153   56.9955 H   0  0  0  0  0  0  0  0  0  0  0  0
   -0.5429   47.8418   57.1716 H   0  0  0  0  0  0  0  0  0  0  0  0
   -1.6814   48.0276   58.5604 H   0  0  0  0  0  0  0  0  0  0  0  0
    0.6578   48.5956   59.1928 H   0  0  0  0  0  0  0  0  0  0  0  0
    0.0331   47.1789   60.1061 H   0  0  0  0  0  0  0  0  0  0  0  0
    0.8455   45.6234   56.3306 H   0  0  0  0  0  0  0  0  0  0  0  0
    2.2286   46.5682   50.7783 H   0  0  0  0  0  0  0  0  0  0  0  0
    4.5617   46.7417   49.9300 H   0  0  0  0  0  0  0  0  0  0  0  0
    6.9370   45.1650   49.9760 H   0  0  0  0  0  0  0  0  0  0  0  0
   11.1866   46.1336   51.6954 H   0  0  0  0  0  0  0  0  0  0  0  0
   10.7479   47.5340   53.7290 H   0  0  0  0  0  0  0  0  0  0  0  0
    8.3721   47.9683   54.4056 H   0  0  0  0  0  0  0  0  0  0  0  0
    5.9119   44.1115   53.0895 H   0  0  0  0  0  0  0  0  0  0  0  0
    3.5809   43.9342   53.9420 H   0  0  0  0  0  0  0  0  0  0  0  0
  1  2  2  0
  2  3  1  0
  3  4  1  0
  4  5  2  0
  5  6  1  0
  6  7  2  0
  7  8  1  0
  8  9  1  0
  9 10  1  0
 10 11  1  0
 11 12  1  0
  8 13  2  0
  2 14  1  0
 14 15  2  0
 15 16  1  0
 16 17  2  0
 17 18  1  0
 18 19  1  0
 19 20  2  0
 20 21  1  0
 21 22  2  0
 22 23  1  0
 23 24  2  0
 17 25  1  0
 25 26  2  0
 13  4  1  0
 26 14  1  0
 24 19  1  0
  3 27  1  0
  5 28  1  0
  6 29  1  0
  7 30  1  0
 10 31  1  0
 10 32  1  0
 11 33  1  0
 11 34  1  0
 13 35  1  0
 15 36  1  0
 16 37  1  0
 18 38  1  0
 21 39  1  0
 22 40  1  0
 23 41  1  0
 25 42  1  0
 26 43  1  0
M  END
>  <meeko>  (1) 
{"is_sidechain": [false], "free_energy": -7.768, "intermolecular_energy": -10.946, "internal_energy": -0.621}

$$$$
ligand_16_conformer_1_docked
     RDKit          3D

 43 45  0  0  0  0  0  0  0  0999 V2000
    3.9250   43.3990   52.7890 O   0  0  0  0  0  0  0  0  0  0  0  0
    3.4910   44.5570   53.0440 C   0  0  0  0  0  0  0  0  0  0  0  0
    4.0640   45.6940   52.3760 N   0  0  0  0  0  0  0  0  0  0  0  0
    5.3730   45.6950   51.7800 C   0  0  0  0  0  0  0  0  0  0  0  0
    5.6790   44.8660   50.6860 C   0  0  0  0  0  0  0  0  0  0  0  0
    6.9630   44.8680   50.1380 C   0  0  0  0  0  0  0  0  0  0  0  0
    7.9560   45.6850   50.6820 C   0  0  0  0  0  0  0  0  0  0  0  0
    7.6820   46.4990   51.7870 C   0  0  0  0  0  0  0  0  0  0  0  0
    8.7220   47.2920   52.2970 O   0  0  0  0  0  0  0  0  0  0  0  0
    9.9100   46.8070   52.9240 C   0  0  0  0  0  0  0  0  0  0  0  0
    9.9370   47.1910   54.4010 C   0  0  0  0  0  0  0  0  0  0  0  0
    9.1730   48.3260   54.6000 F   0  0  0  0  0  0  0  0  0  0  0  0
    6.3830   46.4970   52.3350 C   0  0  0  0  0  0  0  0  0  0  0  0
    2.3620   44.7210   53.9910 C   0  0  0  0  0  0  0  0  0  0  0  0
    2.5920   45.1970   55.2930 C   0  0  0  0  0  0  0  0  0  0  0  0
    1.5310   45.3590   56.1890 C   0  0  0  0  0  0  0  0  0  0  0  0
    0.2220   45.0400   55.8070 C   0  0  0  0  0  0  0  0  0  0  0  0
   -0.8540   45.2380   56.7380 N   0  0  0  0  0  0  0  0  0  0  0  0
   -1.1610   46.4940   57.3610 C   0  0  0  0  0  0  0  0  0  0  0  0
   -2.1570   47.2880   56.8760 N   0  0  0  0  0  0  0  0  0  0  0  0
   -2.4720   48.4640   57.4800 C   0  0  0  0  0  0  0  0  0  0  0  0
   -1.7790   48.8680   58.6190 C   0  0  0  0  0  0  0  0  0  0  0  0
   -0.7720   48.0390   59.1130 C   0  0  0  0  0  0  0  0  0  0  0  0
   -0.4860   46.8710   58.4810 N   0  0  0  0  0  0  0  0  0  0  0  0
   -0.0170   44.5970   54.4950 C   0  0  0  0  0  0  0  0  0  0  0  0
    1.0420   44.4350   53.5980 C   0  0  0  0  0  0  0  0  0  0  0  0
    3.4540   46.5270   52.2160 H   0  0  0  0  0  0  0  0  0  0  0  0
    4.9030   44.2130   50.2601 H   0  0  0  0  0  0  0  0  0  0  0  0
    7.1929   44.2246   49.2759 H   0  0  0  0  0  0  0  0  0  0  0  0
    8.9625   45.6889   50.2382 H   0  0  0  0  0  0  0  0  0  0  0  0
    9.9433   45.7111   52.8354 H   0  0  0  0  0  0  0  0  0  0  0  0
   10.7813   47.2573   52.4260 H   0  0  0  0  0  0  0  0  0  0  0  0
    9.5283   46.3649   55.0014 H   0  0  0  0  0  0  0  0  0  0  0  0
   10.9744   47.3911   54.7071 H   0  0  0  0  0  0  0  0  0  0  0  0
    6.1585   47.1301   53.2061 H   0  0  0  0  0  0  0  0  0  0  0  0
    3.6159   45.4443   55.6101 H   0  0  0  0  0  0  0  0  0  0  0  0
    1.7260   45.7401   57.2023 H   0  0  0  0  0  0  0  0  0  0  0  0
   -1.5060   44.4400   56.9160 H   0  0  0  0  0  0  0  0  0  0  0  0
   -3.2733   49.0962   57.0699 H   0  0  0  0  0  0  0  0  0  0  0  0
   -2.0204   49.8186   59.1171 H   0  0  0  0  0  0  0  0  0  0  0  0
   -0.2104   48.3305   60.0128 H   0  0  0  0  0  0  0  0  0  0  0  0
   -1.0450   44.3762   54.1719 H   0  0  0  0  0  0  0  0  0  0  0  0
    0.8418   44.0809   52.5760 H   0  0  0  0  0  0  0  0  0  0  0  0
  1  2  2  0
  2  3  1  0
  3  4  1  0
  4  5  2  0
  5  6  1  0
  6  7  2  0
  7  8  1  0
  8  9  1  0
  9 10  1  0
 10 11  1  0
 11 12  1  0
  8 13  2  0
  2 14  1  0
 14 15  2  0
 15 16  1  0
 16 17  2  0
 17 18  1  0
 18 19  1  0
 19 20  2  0
 20 21  1  0
 21 22  2  0
 22 23  1  0
 23 24  2  0
 17 25  1  0
 25 26  2  0
 13  4  1  0
 26 14  1  0
 24 19  1  0
  3 27  1  0
  5 28  1  0
  6 29  1  0
  7 30  1  0
 10 31  1  0
 10 32  1  0
 11 33  1  0
 11 34  1  0
 13 35  1  0
 15 36  1  0
 16 37  1  0
 18 38  1  0
 21 39  1  0
 22 40  1  0
 23 41  1  0
 25 42  1  0
 26 43  1  0
M  END
>  <meeko>  (2) 
{"is_sidechain": [false], "free_energy": -7.664, "intermolecular_energy": -11.014, "internal_energy": -0.408}

$$$$
ligand_16_conformer_1_docked
     RDKit          3D

 43 45  0  0  0  0  0  0  0  0999 V2000
    6.1770   40.7880   48.9620 O   0  0  0  0  0  0  0  0  0  0  0  0
    5.2260   41.5460   49.3030 C   0  0  0  0  0  0  0  0  0  0  0  0
    3.8760   41.1910   48.9610 N   0  0  0  0  0  0  0  0  0  0  0  0
    3.5320   40.2910   47.8930 C   0  0  0  0  0  0  0  0  0  0  0  0
    3.0930   38.9810   48.1520 C   0  0  0  0  0  0  0  0  0  0  0  0
    2.7870   38.1190   47.0980 C   0  0  0  0  0  0  0  0  0  0  0  0
    2.9260   38.5500   45.7770 C   0  0  0  0  0  0  0  0  0  0  0  0
    3.3860   39.8410   45.4940 C   0  0  0  0  0  0  0  0  0  0  0  0
    3.5150   40.2160   44.1470 O   0  0  0  0  0  0  0  0  0  0  0  0
    4.3970   39.6180   43.1960 C   0  0  0  0  0  0  0  0  0  0  0  0
    5.8130   40.1630   43.3570 C   0  0  0  0  0  0  0  0  0  0  0  0
    5.7610   41.5060   43.6820 F   0  0  0  0  0  0  0  0  0  0  0  0
    3.6900   40.7100   46.5620 C   0  0  0  0  0  0  0  0  0  0  0  0
    5.5140   42.7660   50.0950 C   0  0  0  0  0  0  0  0  0  0  0  0
    6.5170   43.6610   49.6800 C   0  0  0  0  0  0  0  0  0  0  0  0
    6.7890   44.8150   50.4190 C   0  0  0  0  0  0  0  0  0  0  0  0
    6.0750   45.0950   51.5910 C   0  0  0  0  0  0  0  0  0  0  0  0
    6.3590   46.3010   52.3200 N   0  0  0  0  0  0  0  0  0  0  0  0
    7.6270   46.6040   52.9180 C   0  0  0  0  0  0  0  0  0  0  0  0
    8.7910   46.3300   52.2640 N   0  0  0  0  0  0  0  0  0  0  0  0
    9.9940   46.6420   52.8130 C   0  0  0  0  0  0  0  0  0  0  0  0
   10.0490   47.2600   54.0610 C   0  0  0  0  0  0  0  0  0  0  0  0
    8.8500   47.5470   54.7130 C   0  0  0  0  0  0  0  0  0  0  0  0
    7.6670   47.2190   54.1310 N   0  0  0  0  0  0  0  0  0  0  0  0
    5.0490   44.2220   51.9900 C   0  0  0  0  0  0  0  0  0  0  0  0
    4.7740   43.0680   51.2520 C   0  0  0  0  0  0  0  0  0  0  0  0
    3.1090   41.5140   49.5940 H   0  0  0  0  0  0  0  0  0  0  0  0
    2.9901   38.6336   49.1906 H   0  0  0  0  0  0  0  0  0  0  0  0
    2.4356   37.0980   47.3082 H   0  0  0  0  0  0  0  0  0  0  0  0
    2.6717   37.8687   44.9516 H   0  0  0  0  0  0  0  0  0  0  0  0
    4.4095   38.5289   43.3501 H   0  0  0  0  0  0  0  0  0  0  0  0
    4.0394   39.8560   42.1834 H   0  0  0  0  0  0  0  0  0  0  0  0
    6.3278   39.6125   44.1582 H   0  0  0  0  0  0  0  0  0  0  0  0
    6.3613   40.0378   42.4117 H   0  0  0  0  0  0  0  0  0  0  0  0
    4.0545   41.7261   46.3505 H   0  0  0  0  0  0  0  0  0  0  0  0
    7.0918   43.4504   48.7661 H   0  0  0  0  0  0  0  0  0  0  0  0
    7.5706   45.5096   50.0775 H   0  0  0  0  0  0  0  0  0  0  0  0
    5.6230   47.0430   52.3500 H   0  0  0  0  0  0  0  0  0  0  0  0
   10.9233   46.4072   52.2733 H   0  0  0  0  0  0  0  0  0  0  0  0
   11.0151   47.5153   54.5208 H   0  0  0  0  0  0  0  0  0  0  0  0
    8.8621   48.0383   55.6971 H   0  0  0  0  0  0  0  0  0  0  0  0
    4.4581   44.4487   52.8897 H   0  0  0  0  0  0  0  0  0  0  0  0
    3.9718   42.3899   51.5788 H   0  0  0  0  0  0  0  0  0  0  0  0
  1  2  2  0
  2  3  1  0
  3  4  1  0
  4  5  2  0
  5  6  1  0
  6  7  2  0
  7  8  1  0
  8  9  1  0
  9 10  1  0
 10 11  1  0
 11 12  1  0
  8 13  2  0
  2 14  1  0
 14 15  2  0
 15 16  1  0
 16 17  2  0
 17 18  1  0
 18 19  1  0
 19 20  2  0
 20 21  1  0
 21 22  2  0
 22 23  1  0
 23 24  2  0
 17 25  1  0
 25 26  2  0
 13  4  1  0
 26 14  1  0
 24 19  1  0
  3 27  1  0
  5 28  1  0
  6 29  1  0
  7 30  1  0
 10 31  1  0
 10 32  1  0
 11 33  1  0
 11 34  1  0
 13 35  1  0
 15 36  1  0
 16 37  1  0
 18 38  1  0
 21 39  1  0
 22 40  1  0
 23 41  1  0
 25 42  1  0
 26 43  1  0
M  END
>  <meeko>  (3) 
{"is_sidechain": [false], "free_energy": -7.542, "intermolecular_energy": -10.765, "internal_energy": -0.485}

$$$$
ligand_16_conformer_1_docked
     RDKit          3D

 43 45  0  0  0  0  0  0  0  0999 V2000
    4.9550   48.0250   53.6350 O   0  0  0  0  0  0  0  0  0  0  0  0
    4.8230   46.8020   53.9190 C   0  0  0  0  0  0  0  0  0  0  0  0
    5.9890   46.0090   54.2010 N   0  0  0  0  0  0  0  0  0  0  0  0
    7.3140   46.3520   53.7620 C   0  0  0  0  0  0  0  0  0  0  0  0
    8.1570   47.1640   54.5430 C   0  0  0  0  0  0  0  0  0  0  0  0
    9.4310   47.5020   54.0850 C   0  0  0  0  0  0  0  0  0  0  0  0
    9.8740   47.0450   52.8420 C   0  0  0  0  0  0  0  0  0  0  0  0
    9.0440   46.2580   52.0360 C   0  0  0  0  0  0  0  0  0  0  0  0
    9.5400   45.8350   50.7910 O   0  0  0  0  0  0  0  0  0  0  0  0
    9.6210   44.4820   50.3430 C   0  0  0  0  0  0  0  0  0  0  0  0
    8.5260   44.1840   49.3230 C   0  0  0  0  0  0  0  0  0  0  0  0
    7.9870   42.9360   49.5700 F   0  0  0  0  0  0  0  0  0  0  0  0
    7.7590   45.9150   52.5030 C   0  0  0  0  0  0  0  0  0  0  0  0
    3.4640   46.2160   54.0080 C   0  0  0  0  0  0  0  0  0  0  0  0
    2.5580   46.3630   52.9440 C   0  0  0  0  0  0  0  0  0  0  0  0
    1.2770   45.8080   53.0200 C   0  0  0  0  0  0  0  0  0  0  0  0
    0.8720   45.1050   54.1620 C   0  0  0  0  0  0  0  0  0  0  0  0
   -0.4410   44.5240   54.2040 N   0  0  0  0  0  0  0  0  0  0  0  0
   -1.2830   44.5140   55.3670 C   0  0  0  0  0  0  0  0  0  0  0  0
   -1.4650   45.6440   56.1060 N   0  0  0  0  0  0  0  0  0  0  0  0
   -2.2840   45.6470   57.1910 C   0  0  0  0  0  0  0  0  0  0  0  0
   -2.9600   44.4840   57.5550 C   0  0  0  0  0  0  0  0  0  0  0  0
   -2.7740   43.3380   56.7810 C   0  0  0  0  0  0  0  0  0  0  0  0
   -1.9470   43.3750   55.7040 N   0  0  0  0  0  0  0  0  0  0  0  0
    1.7870   44.9250   55.2130 C   0  0  0  0  0  0  0  0  0  0  0  0
    3.0680   45.4790   55.1390 C   0  0  0  0  0  0  0  0  0  0  0  0
    5.8850   45.2000   54.8540 H   0  0  0  0  0  0  0  0  0  0  0  0
    7.8101   47.5340   55.5191 H   0  0  0  0  0  0  0  0  0  0  0  0
   10.0880   48.1300   54.7046 H   0  0  0  0  0  0  0  0  0  0  0  0
   10.8842   47.3060   52.4935 H   0  0  0  0  0  0  0  0  0  0  0  0
   10.6033   44.3142   49.8773 H   0  0  0  0  0  0  0  0  0  0  0  0
    9.4891   43.8151   51.2078 H   0  0  0  0  0  0  0  0  0  0  0  0
    7.7361   44.9455   49.4014 H   0  0  0  0  0  0  0  0  0  0  0  0
    8.9564   44.2012   48.3108 H   0  0  0  0  0  0  0  0  0  0  0  0
    7.0980   45.2991   51.8755 H   0  0  0  0  0  0  0  0  0  0  0  0
    2.8591   46.9192   52.0440 H   0  0  0  0  0  0  0  0  0  0  0  0
    0.5813   45.9243   52.1759 H   0  0  0  0  0  0  0  0  0  0  0  0
   -0.8470   44.1560   53.3130 H   0  0  0  0  0  0  0  0  0  0  0  0
   -2.4130   46.5664   57.7810 H   0  0  0  0  0  0  0  0  0  0  0  0
   -3.6244   44.4698   58.4316 H   0  0  0  0  0  0  0  0  0  0  0  0
   -3.2963   42.4059   57.0426 H   0  0  0  0  0  0  0  0  0  0  0  0
    1.4932   44.3443   56.0998 H   0  0  0  0  0  0  0  0  0  0  0  0
    3.7724   45.3376   55.9720 H   0  0  0  0  0  0  0  0  0  0  0  0
  1  2  2  0
  2  3  1  0
  3  4  1  0
  4  5  2  0
  5  6  1  0
  6  7  2  0
  7  8  1  0
  8  9  1  0
  9 10  1  0
 10 11  1  0
 11 12  1  0
  8 13  2  0
  2 14  1  0
 14 15  2  0
 15 16  1  0
 16 17  2  0
 17 18  1  0
 18 19  1  0
 19 20  2  0
 20 21  1  0
 21 22  2  0
 22 23  1  0
 23 24  2  0
 17 25  1  0
 25 26  2  0
 13  4  1  0
 26 14  1  0
 24 19  1  0
  3 27  1  0
  5 28  1  0
  6 29  1  0
  7 30  1  0
 10 31  1  0
 10 32  1  0
 11 33  1  0
 11 34  1  0
 13 35  1  0
 15 36  1  0
 16 37  1  0
 18 38  1  0
 21 39  1  0
 22 40  1  0
 23 41  1  0
 25 42  1  0
 26 43  1  0
M  END
>  <meeko>  (4) 
{"is_sidechain": [false], "free_energy": -7.48, "intermolecular_energy": -10.535, "internal_energy": -0.627}

$$$$
ligand_16_conformer_1_docked
     RDKit          3D

 43 45  0  0  0  0  0  0  0  0999 V2000
    4.7630   44.2420   53.5720 O   0  0  0  0  0  0  0  0  0  0  0  0
    3.8940   44.4000   52.6700 C   0  0  0  0  0  0  0  0  0  0  0  0
    4.2800   44.3120   51.2880 N   0  0  0  0  0  0  0  0  0  0  0  0
    5.6270   44.5020   50.8210 C   0  0  0  0  0  0  0  0  0  0  0  0
    6.2730   43.5320   50.0340 C   0  0  0  0  0  0  0  0  0  0  0  0
    7.5880   43.7290   49.6120 C   0  0  0  0  0  0  0  0  0  0  0  0
    8.2760   44.8880   49.9780 C   0  0  0  0  0  0  0  0  0  0  0  0
    7.6630   45.8560   50.7810 C   0  0  0  0  0  0  0  0  0  0  0  0
    8.4060   46.9960   51.1260 O   0  0  0  0  0  0  0  0  0  0  0  0
    8.2900   47.7300   52.3450 C   0  0  0  0  0  0  0  0  0  0  0  0
    9.3530   47.2860   53.3460 C   0  0  0  0  0  0  0  0  0  0  0  0
   10.4780   46.8540   52.6680 F   0  0  0  0  0  0  0  0  0  0  0  0
    6.3330   45.6540   51.2030 C   0  0  0  0  0  0  0  0  0  0  0  0
    2.4790   44.6220   53.0520 C   0  0  0  0  0  0  0  0  0  0  0  0
    2.1010   44.6190   54.4060 C   0  0  0  0  0  0  0  0  0  0  0  0
    0.7690   44.8330   54.7730 C   0  0  0  0  0  0  0  0  0  0  0  0
   -0.2130   45.0440   53.7960 C   0  0  0  0  0  0  0  0  0  0  0  0
   -1.5700   45.2850   54.2010 N   0  0  0  0  0  0  0  0  0  0  0  0
   -2.1280   44.8600   55.4530 C   0  0  0  0  0  0  0  0  0  0  0  0
   -2.3320   43.5380   55.7130 N   0  0  0  0  0  0  0  0  0  0  0  0
   -2.8320   43.1270   56.9080 C   0  0  0  0  0  0  0  0  0  0  0  0
   -3.1350   44.0650   57.8930 C   0  0  0  0  0  0  0  0  0  0  0  0
   -2.9080   45.4130   57.6190 C   0  0  0  0  0  0  0  0  0  0  0  0
   -2.4070   45.7840   56.4120 N   0  0  0  0  0  0  0  0  0  0  0  0
    0.1660   45.0830   52.4440 C   0  0  0  0  0  0  0  0  0  0  0  0
    1.4970   44.8690   52.0750 C   0  0  0  0  0  0  0  0  0  0  0  0
    3.5660   43.9810   50.6000 H   0  0  0  0  0  0  0  0  0  0  0  0
    5.7388   42.6134   49.7498 H   0  0  0  0  0  0  0  0  0  0  0  0
    8.0841   42.9698   48.9896 H   0  0  0  0  0  0  0  0  0  0  0  0
    9.3088   45.0411   49.6319 H   0  0  0  0  0  0  0  0  0  0  0  0
    8.4178   48.8021   52.1344 H   0  0  0  0  0  0  0  0  0  0  0  0
    7.2964   47.5416   52.7778 H   0  0  0  0  0  0  0  0  0  0  0  0
    9.6199   48.1324   53.9959 H   0  0  0  0  0  0  0  0  0  0  0  0
    8.9568   46.4622   53.9578 H   0  0  0  0  0  0  0  0  0  0  0  0
    5.8433   46.4068   51.8382 H   0  0  0  0  0  0  0  0  0  0  0  0
    2.8598   44.4468   55.1835 H   0  0  0  0  0  0  0  0  0  0  0  0
    0.4898   44.8357   55.8370 H   0  0  0  0  0  0  0  0  0  0  0  0
   -2.1720   45.8780   53.5830 H   0  0  0  0  0  0  0  0  0  0  0  0
   -2.9972   42.0561   57.0973 H   0  0  0  0  0  0  0  0  0  0  0  0
   -3.5438   43.7492   58.8642 H   0  0  0  0  0  0  0  0  0  0  0  0
   -3.1343   46.1752   58.3792 H   0  0  0  0  0  0  0  0  0  0  0  0
   -0.5899   45.2833   51.6704 H   0  0  0  0  0  0  0  0  0  0  0  0
    1.7791   44.8939   51.0121 H   0  0  0  0  0  0  0  0  0  0  0  0
  1  2  2  0
  2  3  1  0
  3  4  1  0
  4  5  2  0
  5  6  1  0
  6  7  2  0
  7  8  1  0
  8  9  1  0
  9 10  1  0
 10 11  1  0
 11 12  1  0
  8 13  2  0
  2 14  1  0
 14 15  2  0
 15 16  1  0
 16 17  2  0
 17 18  1  0
 18 19  1  0
 19 20  2  0
 20 21  1  0
 21 22  2  0
 22 23  1  0
 23 24  2  0
 17 25  1  0
 25 26  2  0
 13  4  1  0
 26 14  1  0
 24 19  1  0
  3 27  1  0
  5 28  1  0
  6 29  1  0
  7 30  1  0
 10 31  1  0
 10 32  1  0
 11 33  1  0
 11 34  1  0
 13 35  1  0
 15 36  1  0
 16 37  1  0
 18 38  1  0
 21 39  1  0
 22 40  1  0
 23 41  1  0
 25 42  1  0
 26 43  1  0
M  END
>  <meeko>  (5) 
{"is_sidechain": [false], "free_energy": -7.45, "intermolecular_energy": -10.527, "internal_energy": -0.592}

$$$$
