MODEL 1
REMARK VINA RESULT:    -8.461      0.000      0.000
REMARK INTER + INTRA:         -13.623
REMARK INTER:                 -11.676
REMARK INTRA:                  -1.947
REMARK UNBOUND:                -1.947
REMARK SMILES CC(C)(O)CONC(=O)c1cc(C2CC2)nc2onc(-c3ccccc3)c12
REMARK SMILES IDX 5 1 2 2 1 3 3 4 4 5 6 7 7 8 8 9 9 10 10 12 11 13 27 14 12 15
REMARK SMILES IDX 20 16 17 17 16 18 19 19 18 20 13 21 14 22 15 23 21 24 22 25
REMARK SMILES IDX 26 26 23 27 25 28 24 29
REMARK H PARENT 4 6 7 11
ROOT
ATOM      1  C   UNL     1       1.945  46.078  54.761  1.00  0.00     0.228 C 
ENDROOT
BRANCH   1   2
ATOM      2  C   UNL     1       1.186  44.760  55.005  1.00  0.00     0.085 C 
ATOM      3  C   UNL     1       0.870  44.606  56.507  1.00  0.00     0.044 C 
ATOM      4  C   UNL     1      -0.124  44.770  54.194  1.00  0.00     0.044 C 
BRANCH   2   5
ATOM      5  O   UNL     1       2.000  43.694  54.576  1.00  0.00    -0.388 OA
ATOM      6  H   UNL     1       1.458  42.863  54.605  1.00  0.00     0.211 HD
ENDBRANCH   2   5
ENDBRANCH   1   2
BRANCH   1   7
ATOM      7  O   UNL     1       3.185  46.047  55.426  1.00  0.00    -0.270 OA
BRANCH   7   8
ATOM      8  N   UNL     1       4.134  46.360  54.505  1.00  0.00    -0.231 N 
ATOM      9  C   UNL     1       5.150  45.414  54.153  1.00  0.00     0.275 C 
ATOM     10  O   UNL     1       5.020  44.205  54.483  1.00  0.00    -0.267 OA
ATOM     11  H   UNL     1       4.179  47.336  54.133  1.00  0.00     0.199 HD
BRANCH   9  12
ATOM     12  C   UNL     1       6.325  45.833  53.368  1.00  0.00     0.058 A 
ATOM     13  C   UNL     1       7.361  46.562  53.991  1.00  0.00     0.039 A 
ATOM     14  C   UNL     1       6.518  45.479  52.025  1.00  0.00     0.082 A 
ATOM     15  C   UNL     1       8.562  46.864  53.282  1.00  0.00     0.048 A 
ATOM     16  C   UNL     1       5.771  44.832  51.047  1.00  0.00     0.124 A 
ATOM     17  C   UNL     1       7.690  45.764  51.392  1.00  0.00     0.259 A 
ATOM     18  N   UNL     1       8.699  46.440  51.989  1.00  0.00    -0.215 NA
ATOM     19  N   UNL     1       6.525  44.735  49.924  1.00  0.00    -0.076 NA
ATOM     20  O   UNL     1       7.673  45.307  50.167  1.00  0.00    -0.335 OA
BRANCH  15  21
ATOM     21  C   UNL     1       9.726  47.623  53.884  1.00  0.00     0.038 C 
ATOM     22  C   UNL     1      10.327  47.073  55.171  1.00  0.00     0.010 C 
ATOM     23  C   UNL     1       9.487  48.344  55.204  1.00  0.00     0.010 C 
ENDBRANCH  15  21
BRANCH  16  24
ATOM     24  C   UNL     1       4.361  44.409  51.100  1.00  0.00     0.004 A 
ATOM     25  C   UNL     1       3.341  45.373  51.092  1.00  0.00     0.010 A 
ATOM     26  C   UNL     1       4.023  43.049  51.197  1.00  0.00     0.010 A 
ATOM     27  C   UNL     1       1.999  44.978  51.135  1.00  0.00     0.001 A 
ATOM     28  C   UNL     1       2.681  42.658  51.240  1.00  0.00     0.001 A 
ATOM     29  C   UNL     1       1.670  43.622  51.204  1.00  0.00     0.000 A 
ENDBRANCH  16  24
ENDBRANCH   9  12
ENDBRANCH   7   8
ENDBRANCH   1   7
TORSDOF 7
ENDMDL
MODEL 2
REMARK VINA RESULT:    -8.246      2.303      4.795
REMARK INTER + INTRA:         -13.327
REMARK INTER:                 -12.600
REMARK INTRA:                  -0.727
REMARK UNBOUND:                -1.947
REMARK SMILES CC(C)(O)CONC(=O)c1cc(C2CC2)nc2onc(-c3ccccc3)c12
REMARK SMILES IDX 5 1 2 2 1 3 3 4 4 5 6 7 7 8 8 9 9 10 10 12 11 13 27 14 12 15
REMARK SMILES IDX 20 16 17 17 16 18 19 19 18 20 13 21 14 22 15 23 21 24 22 25
REMARK SMILES IDX 26 26 23 27 25 28 24 29
REMARK H PARENT 4 6 7 11
ROOT
ATOM      1  C   UNL     1       4.968  41.629  50.539  1.00  0.00     0.228 C 
ENDROOT
BRANCH   1   2
ATOM      2  C   UNL     1       6.041  41.629  49.434  1.00  0.00     0.085 C 
ATOM      3  C   UNL     1       5.419  41.179  48.097  1.00  0.00     0.044 C 
ATOM      4  C   UNL     1       6.621  43.049  49.289  1.00  0.00     0.044 C 
BRANCH   2   5
ATOM      5  O   UNL     1       7.064  40.737  49.811  1.00  0.00    -0.388 OA
ATOM      6  H   UNL     1       7.565  40.482  48.992  1.00  0.00     0.211 HD
ENDBRANCH   2   5
ENDBRANCH   1   2
BRANCH   1   7
ATOM      7  O   UNL     1       4.225  42.824  50.486  1.00  0.00    -0.270 OA
BRANCH   7   8
ATOM      8  N   UNL     1       4.734  43.645  51.442  1.00  0.00    -0.231 N 
ATOM      9  C   UNL     1       4.804  45.059  51.227  1.00  0.00     0.275 C 
ATOM     10  O   UNL     1       4.156  45.581  50.281  1.00  0.00    -0.267 OA
ATOM     11  H   UNL     1       5.172  43.226  52.293  1.00  0.00     0.199 HD
BRANCH   9  12
ATOM     12  C   UNL     1       5.590  45.917  52.131  1.00  0.00     0.058 A 
ATOM     13  C   UNL     1       6.963  46.132  51.878  1.00  0.00     0.039 A 
ATOM     14  C   UNL     1       5.030  46.612  53.213  1.00  0.00     0.082 A 
ATOM     15  C   UNL     1       7.708  47.059  52.665  1.00  0.00     0.048 A 
ATOM     16  C   UNL     1       3.784  46.661  53.828  1.00  0.00     0.124 A 
ATOM     17  C   UNL     1       5.771  47.507  53.923  1.00  0.00     0.259 A 
ATOM     18  N   UNL     1       7.080  47.739  53.671  1.00  0.00    -0.215 NA
ATOM     19  N   UNL     1       3.833  47.582  54.823  1.00  0.00    -0.076 NA
ATOM     20  O   UNL     1       5.043  48.070  54.852  1.00  0.00    -0.335 OA
BRANCH  15  21
ATOM     21  C   UNL     1       9.177  47.360  52.444  1.00  0.00     0.038 C 
ATOM     22  C   UNL     1      10.104  46.174  52.214  1.00  0.00     0.010 C 
ATOM     23  C   UNL     1      10.152  46.936  53.533  1.00  0.00     0.010 C 
ENDBRANCH  15  21
BRANCH  16  24
ATOM     24  C   UNL     1       2.607  45.809  53.586  1.00  0.00     0.004 A 
ATOM     25  C   UNL     1       1.677  46.166  52.597  1.00  0.00     0.010 A 
ATOM     26  C   UNL     1       2.380  44.661  54.362  1.00  0.00     0.010 A 
ATOM     27  C   UNL     1       0.561  45.359  52.356  1.00  0.00     0.001 A 
ATOM     28  C   UNL     1       1.262  43.856  54.120  1.00  0.00     0.001 A 
ATOM     29  C   UNL     1       0.356  44.202  53.114  1.00  0.00     0.000 A 
ENDBRANCH  16  24
ENDBRANCH   9  12
ENDBRANCH   7   8
ENDBRANCH   1   7
TORSDOF 7
ENDMDL
MODEL 3
REMARK VINA RESULT:    -8.152      2.198      6.362
REMARK INTER + INTRA:         -13.197
REMARK INTER:                 -12.140
REMARK INTRA:                  -1.058
REMARK UNBOUND:                -1.947
REMARK SMILES CC(C)(O)CONC(=O)c1cc(C2CC2)nc2onc(-c3ccccc3)c12
REMARK SMILES IDX 5 1 2 2 1 3 3 4 4 5 6 7 7 8 8 9 9 10 10 12 11 13 27 14 12 15
REMARK SMILES IDX 20 16 17 17 16 18 19 19 18 20 13 21 14 22 15 23 21 24 22 25
REMARK SMILES IDX 26 26 23 27 25 28 24 29
REMARK H PARENT 4 6 7 11
ROOT
ATOM      1  C   UNL     1       6.943  47.049  53.332  1.00  0.00     0.228 C 
ENDROOT
BRANCH   1   2
ATOM      2  C   UNL     1       8.360  47.618  53.127  1.00  0.00     0.085 C 
ATOM      3  C   UNL     1       9.373  46.464  52.979  1.00  0.00     0.044 C 
ATOM      4  C   UNL     1       8.377  48.494  51.861  1.00  0.00     0.044 C 
BRANCH   2   5
ATOM      5  O   UNL     1       8.688  48.401  54.250  1.00  0.00    -0.388 OA
ATOM      6  H   UNL     1       8.680  49.355  53.972  1.00  0.00     0.211 HD
ENDBRANCH   2   5
ENDBRANCH   1   2
BRANCH   1   7
ATOM      7  O   UNL     1       6.792  46.605  54.660  1.00  0.00    -0.270 OA
BRANCH   7   8
ATOM      8  N   UNL     1       5.460  46.445  54.871  1.00  0.00    -0.231 N 
ATOM      9  C   UNL     1       4.812  45.211  54.540  1.00  0.00     0.275 C 
ATOM     10  O   UNL     1       5.503  44.184  54.307  1.00  0.00    -0.267 OA
ATOM     11  H   UNL     1       4.891  47.265  55.180  1.00  0.00     0.199 HD
BRANCH   9  12
ATOM     12  C   UNL     1       3.341  45.121  54.512  1.00  0.00     0.058 A 
ATOM     13  C   UNL     1       2.609  45.222  55.716  1.00  0.00     0.039 A 
ATOM     14  C   UNL     1       2.599  45.012  53.327  1.00  0.00     0.082 A 
ATOM     15  C   UNL     1       1.183  45.267  55.695  1.00  0.00     0.048 A 
ATOM     16  C   UNL     1       2.893  44.845  51.979  1.00  0.00     0.124 A 
ATOM     17  C   UNL     1       1.239  45.083  53.349  1.00  0.00     0.259 A 
ATOM     18  N   UNL     1       0.530  45.207  54.495  1.00  0.00    -0.215 NA
ATOM     19  N   UNL     1       1.731  44.862  51.281  1.00  0.00    -0.076 NA
ATOM     20  O   UNL     1       0.756  45.005  52.137  1.00  0.00    -0.335 OA
BRANCH  15  21
ATOM     21  C   UNL     1       0.328  45.394  56.939  1.00  0.00     0.038 C 
ATOM     22  C   UNL     1      -1.088  44.837  56.872  1.00  0.00     0.010 C 
ATOM     23  C   UNL     1      -0.861  46.344  56.879  1.00  0.00     0.010 C 
ENDBRANCH  15  21
BRANCH  16  24
ATOM     24  C   UNL     1       4.197  44.569  51.351  1.00  0.00     0.004 A 
ATOM     25  C   UNL     1       5.025  45.634  50.961  1.00  0.00     0.010 A 
ATOM     26  C   UNL     1       4.608  43.249  51.101  1.00  0.00     0.010 A 
ATOM     27  C   UNL     1       6.267  45.379  50.371  1.00  0.00     0.001 A 
ATOM     28  C   UNL     1       5.850  42.999  50.510  1.00  0.00     0.001 A 
ATOM     29  C   UNL     1       6.681  44.062  50.150  1.00  0.00     0.000 A 
ENDBRANCH  16  24
ENDBRANCH   9  12
ENDBRANCH   7   8
ENDBRANCH   1   7
TORSDOF 7
ENDMDL
MODEL 4
REMARK VINA RESULT:    -7.571      1.561      2.239
REMARK INTER + INTRA:         -12.396
REMARK INTER:                 -11.267
REMARK INTRA:                  -1.128
REMARK UNBOUND:                -1.947
REMARK SMILES CC(C)(O)CONC(=O)c1cc(C2CC2)nc2onc(-c3ccccc3)c12
REMARK SMILES IDX 5 1 2 2 1 3 3 4 4 5 6 7 7 8 8 9 9 10 10 12 11 13 27 14 12 15
REMARK SMILES IDX 20 16 17 17 16 18 19 19 18 20 13 21 14 22 15 23 21 24 22 25
REMARK SMILES IDX 26 26 23 27 25 28 24 29
REMARK H PARENT 4 6 7 11
ROOT
ATOM      1  C   UNL     1       1.642  44.699  55.156  1.00  0.00     0.228 C 
ENDROOT
BRANCH   1   2
ATOM      2  C   UNL     1       0.180  44.781  55.633  1.00  0.00     0.085 C 
ATOM      3  C   UNL     1      -0.555  43.466  55.301  1.00  0.00     0.044 C 
ATOM      4  C   UNL     1       0.153  45.025  57.153  1.00  0.00     0.044 C 
BRANCH   2   5
ATOM      5  O   UNL     1      -0.442  45.856  54.969  1.00  0.00    -0.388 OA
ATOM      6  H   UNL     1       0.256  46.532  54.759  1.00  0.00     0.211 HD
ENDBRANCH   2   5
ENDBRANCH   1   2
BRANCH   1   7
ATOM      7  O   UNL     1       2.159  45.995  54.970  1.00  0.00    -0.270 OA
BRANCH   7   8
ATOM      8  N   UNL     1       3.399  45.851  54.434  1.00  0.00    -0.231 N 
ATOM      9  C   UNL     1       3.806  46.642  53.313  1.00  0.00     0.275 C 
ATOM     10  O   UNL     1       3.133  47.656  52.986  1.00  0.00    -0.267 OA
ATOM     11  H   UNL     1       4.016  45.082  54.781  1.00  0.00     0.199 HD
BRANCH   9  12
ATOM     12  C   UNL     1       5.031  46.309  52.565  1.00  0.00     0.058 A 
ATOM     13  C   UNL     1       6.174  47.128  52.689  1.00  0.00     0.039 A 
ATOM     14  C   UNL     1       5.161  45.157  51.774  1.00  0.00     0.082 A 
ATOM     15  C   UNL     1       7.406  46.751  52.076  1.00  0.00     0.048 A 
ATOM     16  C   UNL     1       4.315  44.137  51.354  1.00  0.00     0.124 A 
ATOM     17  C   UNL     1       6.362  44.820  51.228  1.00  0.00     0.259 A 
ATOM     18  N   UNL     1       7.469  45.586  51.363  1.00  0.00    -0.215 NA
ATOM     19  N   UNL     1       5.040  43.250  50.629  1.00  0.00    -0.076 NA
ATOM     20  O   UNL     1       6.267  43.693  50.572  1.00  0.00    -0.335 OA
BRANCH  15  21
ATOM     21  C   UNL     1       8.681  47.564  52.179  1.00  0.00     0.038 C 
ATOM     22  C   UNL     1       9.991  46.796  52.294  1.00  0.00     0.010 C 
ATOM     23  C   UNL     1       9.429  47.532  53.504  1.00  0.00     0.010 C 
ENDBRANCH  15  21
BRANCH  16  24
ATOM     24  C   UNL     1       2.855  44.029  51.518  1.00  0.00     0.004 A 
ATOM     25  C   UNL     1       2.291  42.831  51.985  1.00  0.00     0.010 A 
ATOM     26  C   UNL     1       2.013  45.099  51.174  1.00  0.00     0.010 A 
ATOM     27  C   UNL     1       0.906  42.723  52.150  1.00  0.00     0.001 A 
ATOM     28  C   UNL     1       0.629  44.987  51.340  1.00  0.00     0.001 A 
ATOM     29  C   UNL     1       0.076  43.802  51.833  1.00  0.00     0.000 A 
ENDBRANCH  16  24
ENDBRANCH   9  12
ENDBRANCH   7   8
ENDBRANCH   1   7
TORSDOF 7
ENDMDL
MODEL 5
REMARK VINA RESULT:    -7.266      2.163      6.873
REMARK INTER + INTRA:         -11.975
REMARK INTER:                 -11.267
REMARK INTRA:                  -0.707
REMARK UNBOUND:                -1.947
REMARK SMILES CC(C)(O)CONC(=O)c1cc(C2CC2)nc2onc(-c3ccccc3)c12
REMARK SMILES IDX 5 1 2 2 1 3 3 4 4 5 6 7 7 8 8 9 9 10 10 12 11 13 27 14 12 15
REMARK SMILES IDX 20 16 17 17 16 18 19 19 18 20 13 21 14 22 15 23 21 24 22 25
REMARK SMILES IDX 26 26 23 27 25 28 24 29
REMARK H PARENT 4 6 7 11
ROOT
ATOM      1  C   UNL     1       6.372  42.931  48.794  1.00  0.00     0.228 C 
ENDROOT
BRANCH   1   2
ATOM      2  C   UNL     1       5.852  41.563  49.275  1.00  0.00     0.085 C 
ATOM      3  C   UNL     1       4.848  41.759  50.429  1.00  0.00     0.044 C 
ATOM      4  C   UNL     1       5.165  40.839  48.102  1.00  0.00     0.044 C 
BRANCH   2   5
ATOM      5  O   UNL     1       6.952  40.804  49.721  1.00  0.00    -0.388 OA
ATOM      6  H   UNL     1       7.257  40.234  48.968  1.00  0.00     0.211 HD
ENDBRANCH   2   5
ENDBRANCH   1   2
BRANCH   1   7
ATOM      7  O   UNL     1       6.941  43.634  49.873  1.00  0.00    -0.270 OA
BRANCH   7   8
ATOM      8  N   UNL     1       6.025  44.557  50.267  1.00  0.00    -0.231 N 
ATOM      9  C   UNL     1       5.667  44.687  51.647  1.00  0.00     0.275 C 
ATOM     10  O   UNL     1       6.383  44.147  52.532  1.00  0.00    -0.267 OA
ATOM     11  H   UNL     1       5.504  45.100  49.541  1.00  0.00     0.199 HD
BRANCH   9  12
ATOM     12  C   UNL     1       4.495  45.486  52.046  1.00  0.00     0.058 A 
ATOM     13  C   UNL     1       3.200  45.072  51.664  1.00  0.00     0.039 A 
ATOM     14  C   UNL     1       4.580  46.621  52.866  1.00  0.00     0.082 A 
ATOM     15  C   UNL     1       2.047  45.759  52.148  1.00  0.00     0.048 A 
ATOM     16  C   UNL     1       5.608  47.377  53.417  1.00  0.00     0.124 A 
ATOM     17  C   UNL     1       3.454  47.232  53.327  1.00  0.00     0.259 A 
ATOM     18  N   UNL     1       2.208  46.826  52.987  1.00  0.00    -0.215 NA
ATOM     19  N   UNL     1       5.060  48.352  54.184  1.00  0.00    -0.076 NA
ATOM     20  O   UNL     1       3.763  48.235  54.106  1.00  0.00    -0.335 OA
BRANCH  15  21
ATOM     21  C   UNL     1       0.626  45.365  51.800  1.00  0.00     0.038 C 
ATOM     22  C   UNL     1       0.006  44.221  52.593  1.00  0.00     0.010 C 
ATOM     23  C   UNL     1       0.414  44.010  51.139  1.00  0.00     0.010 C 
ENDBRANCH  15  21
BRANCH  16  24
ATOM     24  C   UNL     1       7.056  47.282  53.162  1.00  0.00     0.004 A 
ATOM     25  C   UNL     1       7.924  46.898  54.197  1.00  0.00     0.010 A 
ATOM     26  C   UNL     1       7.587  47.608  51.903  1.00  0.00     0.010 A 
ATOM     27  C   UNL     1       9.299  46.799  53.961  1.00  0.00     0.001 A 
ATOM     28  C   UNL     1       8.962  47.507  51.672  1.00  0.00     0.001 A 
ATOM     29  C   UNL     1       9.817  47.098  52.698  1.00  0.00     0.000 A 
ENDBRANCH  16  24
ENDBRANCH   9  12
ENDBRANCH   7   8
ENDBRANCH   1   7
TORSDOF 7
ENDMDL
