ligand_25_conformer_4_docked
     RDKit          3D

 34 35  0  0  0  0  0  0  0  0999 V2000
   10.1570   47.4820   54.7240 N   0  0  0  0  0  0  0  0  0  0  0  0
    8.9630   47.0600   54.0660 C   0  0  0  0  0  0  0  0  0  0  0  0
    8.9990   46.6310   52.7350 C   0  0  0  0  0  0  0  0  0  0  0  0
    7.8170   46.2240   52.1150 C   0  0  0  0  0  0  0  0  0  0  0  0
    6.6000   46.2540   52.8170 C   0  0  0  0  0  0  0  0  0  0  0  0
    5.3490   45.8150   52.1520 C   0  0  0  0  0  0  0  0  0  0  0  0
    5.1450   46.1520   50.9540 O   0  0  0  0  0  0  0  0  0  0  0  0
    4.3790   45.0100   52.8470 N   0  0  0  0  0  0  0  0  0  0  0  0
    3.1390   44.5770   52.2610 C   0  0  0  0  0  0  0  0  0  0  0  0
    1.9870   45.3800   52.3400 C   0  0  0  0  0  0  0  0  0  0  0  0
    0.7800   44.9410   51.7940 C   0  0  0  0  0  0  0  0  0  0  0  0
    0.7050   43.6920   51.1740 C   0  0  0  0  0  0  0  0  0  0  0  0
   -0.8150   43.1440   50.4910 Cl  0  0  0  0  0  0  0  0  0  0  0  0
    1.8380   42.8760   51.1060 C   0  0  0  0  0  0  0  0  0  0  0  0
    3.0620   43.3090   51.6530 C   0  0  0  0  0  0  0  0  0  0  0  0
    4.2200   42.5160   51.6030 O   0  0  0  0  0  0  0  0  0  0  0  0
    4.4950   41.5450   50.5970 C   0  0  0  0  0  0  0  0  0  0  0  0
    5.7930   41.9000   49.8850 C   0  0  0  0  0  0  0  0  0  0  0  0
    6.8290   41.1300   50.3840 F   0  0  0  0  0  0  0  0  0  0  0  0
    5.6610   41.6580   48.5300 F   0  0  0  0  0  0  0  0  0  0  0  0
    6.0850   43.2380   50.0800 F   0  0  0  0  0  0  0  0  0  0  0  0
    6.6160   46.6810   54.1560 C   0  0  0  0  0  0  0  0  0  0  0  0
    7.7820   47.0690   54.7390 N   0  0  0  0  0  0  0  0  0  0  0  0
   11.0970   47.2640   54.3230 H   0  0  0  0  0  0  0  0  0  0  0  0
   10.1050   48.0170   55.6190 H   0  0  0  0  0  0  0  0  0  0  0  0
    9.9500   46.6147   52.1824 H   0  0  0  0  0  0  0  0  0  0  0  0
    7.8380   45.8778   51.0711 H   0  0  0  0  0  0  0  0  0  0  0  0
    4.5900   44.6770   53.8140 H   0  0  0  0  0  0  0  0  0  0  0  0
    2.0377   46.3608   52.8355 H   0  0  0  0  0  0  0  0  0  0  0  0
   -0.1136   45.5798   51.8521 H   0  0  0  0  0  0  0  0  0  0  0  0
    1.7735   41.8900   50.6226 H   0  0  0  0  0  0  0  0  0  0  0  0
    4.5924   40.5531   51.0626 H   0  0  0  0  0  0  0  0  0  0  0  0
    3.6710   41.5308   49.8684 H   0  0  0  0  0  0  0  0  0  0  0  0
    5.6811   46.7015   54.7352 H   0  0  0  0  0  0  0  0  0  0  0  0
  1  2  1  0
  2  3  2  0
  3  4  1  0
  4  5  2  0
  5  6  1  0
  6  7  2  0
  6  8  1  0
  8  9  1  0
  9 10  2  0
 10 11  1  0
 11 12  2  0
 12 13  1  0
 12 14  1  0
 14 15  2  0
 15 16  1  0
 16 17  1  0
 17 18  1  0
 18 19  1  0
 18 20  1  0
 18 21  1  0
  5 22  1  0
 22 23  2  0
 23  2  1  0
 15  9  1  0
  1 24  1  0
  1 25  1  0
  3 26  1  0
  4 27  1  0
  8 28  1  0
 10 29  1  0
 11 30  1  0
 14 31  1  0
 17 32  1  0
 17 33  1  0
 22 34  1  0
M  END
>  <meeko>  (1) 
{"is_sidechain": [false], "free_energy": -7.84, "intermolecular_energy": -10.361, "internal_energy": -0.9}

$$$$
ligand_25_conformer_4_docked
     RDKit          3D

 34 35  0  0  0  0  0  0  0  0999 V2000
   -2.0470   42.4100   51.8090 N   0  0  0  0  0  0  0  0  0  0  0  0
   -0.6910   42.8310   51.9570 C   0  0  0  0  0  0  0  0  0  0  0  0
    0.0670   42.4150   53.0560 C   0  0  0  0  0  0  0  0  0  0  0  0
    1.3910   42.8400   53.1760 C   0  0  0  0  0  0  0  0  0  0  0  0
    1.9540   43.6880   52.2070 C   0  0  0  0  0  0  0  0  0  0  0  0
    3.3630   44.1320   52.3400 C   0  0  0  0  0  0  0  0  0  0  0  0
    4.0950   43.5840   53.2080 O   0  0  0  0  0  0  0  0  0  0  0  0
    3.9020   45.1630   51.4920 N   0  0  0  0  0  0  0  0  0  0  0  0
    5.2510   45.6500   51.5930 C   0  0  0  0  0  0  0  0  0  0  0  0
    5.5650   46.7310   52.4360 C   0  0  0  0  0  0  0  0  0  0  0  0
    6.8710   47.2170   52.5080 C   0  0  0  0  0  0  0  0  0  0  0  0
    7.8760   46.6390   51.7300 C   0  0  0  0  0  0  0  0  0  0  0  0
    9.5170   47.2540   51.8210 Cl  0  0  0  0  0  0  0  0  0  0  0  0
    7.5740   45.5770   50.8720 C   0  0  0  0  0  0  0  0  0  0  0  0
    6.2590   45.0780   50.7930 C   0  0  0  0  0  0  0  0  0  0  0  0
    5.9190   44.0130   49.9420 O   0  0  0  0  0  0  0  0  0  0  0  0
    6.8380   43.0380   49.4570 C   0  0  0  0  0  0  0  0  0  0  0  0
    6.3550   41.6460   49.8400 C   0  0  0  0  0  0  0  0  0  0  0  0
    5.7730   41.0320   48.7450 F   0  0  0  0  0  0  0  0  0  0  0  0
    7.4260   40.8840   50.2690 F   0  0  0  0  0  0  0  0  0  0  0  0
    5.4250   41.7350   50.8600 F   0  0  0  0  0  0  0  0  0  0  0  0
    1.1570   44.0690   51.1130 C   0  0  0  0  0  0  0  0  0  0  0  0
   -0.1290   43.6380   51.0170 N   0  0  0  0  0  0  0  0  0  0  0  0
   -2.3140   41.4080   51.9310 H   0  0  0  0  0  0  0  0  0  0  0  0
   -2.7920   43.1040   51.5780 H   0  0  0  0  0  0  0  0  0  0  0  0
   -0.3763   41.7586   53.8192 H   0  0  0  0  0  0  0  0  0  0  0  0
    1.9965   42.5097   54.0329 H   0  0  0  0  0  0  0  0  0  0  0  0
    3.3090   45.5590   50.7300 H   0  0  0  0  0  0  0  0  0  0  0  0
    4.7750   47.1970   53.0433 H   0  0  0  0  0  0  0  0  0  0  0  0
    7.1090   48.0562   53.1782 H   0  0  0  0  0  0  0  0  0  0  0  0
    8.3673   45.1289   50.2556 H   0  0  0  0  0  0  0  0  0  0  0  0
    6.9072   43.1130   48.3617 H   0  0  0  0  0  0  0  0  0  0  0  0
    7.8282   43.2163   49.9016 H   0  0  0  0  0  0  0  0  0  0  0  0
    1.5760   44.7191   50.3308 H   0  0  0  0  0  0  0  0  0  0  0  0
  1  2  1  0
  2  3  2  0
  3  4  1  0
  4  5  2  0
  5  6  1  0
  6  7  2  0
  6  8  1  0
  8  9  1  0
  9 10  2  0
 10 11  1  0
 11 12  2  0
 12 13  1  0
 12 14  1  0
 14 15  2  0
 15 16  1  0
 16 17  1  0
 17 18  1  0
 18 19  1  0
 18 20  1  0
 18 21  1  0
  5 22  1  0
 22 23  2  0
 23  2  1  0
 15  9  1  0
  1 24  1  0
  1 25  1  0
  3 26  1  0
  4 27  1  0
  8 28  1  0
 10 29  1  0
 11 30  1  0
 14 31  1  0
 17 32  1  0
 17 33  1  0
 22 34  1  0
M  END
>  <meeko>  (2) 
{"is_sidechain": [false], "free_energy": -7.772, "intermolecular_energy": -10.319, "internal_energy": -0.852}

$$$$
ligand_25_conformer_4_docked
     RDKit          3D

 34 35  0  0  0  0  0  0  0  0999 V2000
   -0.4360   45.3600   57.0350 N   0  0  0  0  0  0  0  0  0  0  0  0
    0.4670   45.2900   55.9310 C   0  0  0  0  0  0  0  0  0  0  0  0
    0.0110   44.9140   54.6630 C   0  0  0  0  0  0  0  0  0  0  0  0
    0.9140   44.8550   53.6010 C   0  0  0  0  0  0  0  0  0  0  0  0
    2.2710   45.1580   53.8050 C   0  0  0  0  0  0  0  0  0  0  0  0
    3.2230   45.0960   52.6690 C   0  0  0  0  0  0  0  0  0  0  0  0
    2.8380   45.4730   51.5290 O   0  0  0  0  0  0  0  0  0  0  0  0
    4.5710   44.6240   52.8520 N   0  0  0  0  0  0  0  0  0  0  0  0
    5.5280   44.5190   51.7840 C   0  0  0  0  0  0  0  0  0  0  0  0
    5.4960   43.4310   50.8940 C   0  0  0  0  0  0  0  0  0  0  0  0
    6.4450   43.3200   49.8770 C   0  0  0  0  0  0  0  0  0  0  0  0
    7.4450   44.2870   49.7440 C   0  0  0  0  0  0  0  0  0  0  0  0
    8.6370   44.1430   48.4660 Cl  0  0  0  0  0  0  0  0  0  0  0  0
    7.5000   45.3630   50.6350 C   0  0  0  0  0  0  0  0  0  0  0  0
    6.5460   45.4850   51.6650 C   0  0  0  0  0  0  0  0  0  0  0  0
    6.5710   46.5520   52.5770 O   0  0  0  0  0  0  0  0  0  0  0  0
    7.5530   46.7260   53.5960 C   0  0  0  0  0  0  0  0  0  0  0  0
    8.5900   47.7410   53.1380 C   0  0  0  0  0  0  0  0  0  0  0  0
    8.0130   48.6390   52.2580 F   0  0  0  0  0  0  0  0  0  0  0  0
    9.0800   48.4310   54.2320 F   0  0  0  0  0  0  0  0  0  0  0  0
    9.6360   47.0930   52.5070 F   0  0  0  0  0  0  0  0  0  0  0  0
    2.6800   45.5430   55.0930 C   0  0  0  0  0  0  0  0  0  0  0  0
    1.7790   45.5980   56.1110 N   0  0  0  0  0  0  0  0  0  0  0  0
   -0.2020   45.9220   57.8840 H   0  0  0  0  0  0  0  0  0  0  0  0
   -1.3450   44.8480   57.0050 H   0  0  0  0  0  0  0  0  0  0  0  0
   -1.0492   44.6673   54.5048 H   0  0  0  0  0  0  0  0  0  0  0  0
    0.5618   44.5698   52.5987 H   0  0  0  0  0  0  0  0  0  0  0  0
    4.9010   44.3820   53.8130 H   0  0  0  0  0  0  0  0  0  0  0  0
    4.7171   42.6616   51.0002 H   0  0  0  0  0  0  0  0  0  0  0  0
    6.4059   42.4705   49.1793 H   0  0  0  0  0  0  0  0  0  0  0  0
    8.2925   46.1187   50.5314 H   0  0  0  0  0  0  0  0  0  0  0  0
    7.0674   47.0878   54.5143 H   0  0  0  0  0  0  0  0  0  0  0  0
    8.0471   45.7636   53.7951 H   0  0  0  0  0  0  0  0  0  0  0  0
    3.7330   45.8010   55.2790 H   0  0  0  0  0  0  0  0  0  0  0  0
  1  2  1  0
  2  3  2  0
  3  4  1  0
  4  5  2  0
  5  6  1  0
  6  7  2  0
  6  8  1  0
  8  9  1  0
  9 10  2  0
 10 11  1  0
 11 12  2  0
 12 13  1  0
 12 14  1  0
 14 15  2  0
 15 16  1  0
 16 17  1  0
 17 18  1  0
 18 19  1  0
 18 20  1  0
 18 21  1  0
  5 22  1  0
 22 23  2  0
 23  2  1  0
 15  9  1  0
  1 24  1  0
  1 25  1  0
  3 26  1  0
  4 27  1  0
  8 28  1  0
 10 29  1  0
 11 30  1  0
 14 31  1  0
 17 32  1  0
 17 33  1  0
 22 34  1  0
M  END
>  <meeko>  (3) 
{"is_sidechain": [false], "free_energy": -7.638, "intermolecular_energy": -10.223, "internal_energy": -0.771}

$$$$
ligand_25_conformer_4_docked
     RDKit          3D

 34 35  0  0  0  0  0  0  0  0999 V2000
    9.0600   48.3740   54.3950 N   0  0  0  0  0  0  0  0  0  0  0  0
    8.3350   47.4910   53.5380 C   0  0  0  0  0  0  0  0  0  0  0  0
    8.9440   46.9440   52.4040 C   0  0  0  0  0  0  0  0  0  0  0  0
    8.2140   46.0840   51.5820 C   0  0  0  0  0  0  0  0  0  0  0  0
    6.8770   45.7780   51.8850 C   0  0  0  0  0  0  0  0  0  0  0  0
    6.1100   44.8600   51.0100 C   0  0  0  0  0  0  0  0  0  0  0  0
    5.2210   45.3380   50.2540 O   0  0  0  0  0  0  0  0  0  0  0  0
    6.3700   43.4430   51.0060 N   0  0  0  0  0  0  0  0  0  0  0  0
    5.6410   42.5040   50.1970 C   0  0  0  0  0  0  0  0  0  0  0  0
    6.0830   42.1720   48.9040 C   0  0  0  0  0  0  0  0  0  0  0  0
    5.3550   41.2810   48.1140 C   0  0  0  0  0  0  0  0  0  0  0  0
    4.1720   40.7210   48.5990 C   0  0  0  0  0  0  0  0  0  0  0  0
    3.2580   39.6040   47.6020 Cl  0  0  0  0  0  0  0  0  0  0  0  0
    3.7100   41.0580   49.8750 C   0  0  0  0  0  0  0  0  0  0  0  0
    4.4380   41.9560   50.6820 C   0  0  0  0  0  0  0  0  0  0  0  0
    4.0040   42.3170   51.9680 O   0  0  0  0  0  0  0  0  0  0  0  0
    2.8230   43.0650   52.2450 C   0  0  0  0  0  0  0  0  0  0  0  0
    3.1470   44.1890   53.2200 C   0  0  0  0  0  0  0  0  0  0  0  0
    3.0940   45.4080   52.5660 F   0  0  0  0  0  0  0  0  0  0  0  0
    2.2270   44.1890   54.2520 F   0  0  0  0  0  0  0  0  0  0  0  0
    4.4150   44.0070   53.7430 F   0  0  0  0  0  0  0  0  0  0  0  0
    6.3120   46.3420   53.0430 C   0  0  0  0  0  0  0  0  0  0  0  0
    7.0460   47.1740   53.8290 N   0  0  0  0  0  0  0  0  0  0  0  0
    8.5910   49.1930   54.8410 H   0  0  0  0  0  0  0  0  0  0  0  0
   10.0720   48.2080   54.5880 H   0  0  0  0  0  0  0  0  0  0  0  0
    9.9887   47.1893   52.1621 H   0  0  0  0  0  0  0  0  0  0  0  0
    8.6881   45.6437   50.6924 H   0  0  0  0  0  0  0  0  0  0  0  0
    7.1550   43.0670   51.5820 H   0  0  0  0  0  0  0  0  0  0  0  0
    7.0092   42.6178   48.5123 H   0  0  0  0  0  0  0  0  0  0  0  0
    5.7141   41.0197   47.1076 H   0  0  0  0  0  0  0  0  0  0  0  0
    2.7736   40.6202   50.2511 H   0  0  0  0  0  0  0  0  0  0  0  0
    2.4329   43.4928   51.3097 H   0  0  0  0  0  0  0  0  0  0  0  0
    2.0667   42.4019   52.6903 H   0  0  0  0  0  0  0  0  0  0  0  0
    5.2717   46.1090   53.3140 H   0  0  0  0  0  0  0  0  0  0  0  0
  1  2  1  0
  2  3  2  0
  3  4  1  0
  4  5  2  0
  5  6  1  0
  6  7  2  0
  6  8  1  0
  8  9  1  0
  9 10  2  0
 10 11  1  0
 11 12  2  0
 12 13  1  0
 12 14  1  0
 14 15  2  0
 15 16  1  0
 16 17  1  0
 17 18  1  0
 18 19  1  0
 18 20  1  0
 18 21  1  0
  5 22  1  0
 22 23  2  0
 23  2  1  0
 15  9  1  0
  1 24  1  0
  1 25  1  0
  3 26  1  0
  4 27  1  0
  8 28  1  0
 10 29  1  0
 11 30  1  0
 14 31  1  0
 17 32  1  0
 17 33  1  0
 22 34  1  0
M  END
>  <meeko>  (4) 
{"is_sidechain": [false], "free_energy": -7.371, "intermolecular_energy": -9.548, "internal_energy": -1.093}

$$$$
ligand_25_conformer_4_docked
     RDKit          3D

 34 35  0  0  0  0  0  0  0  0999 V2000
   -2.3840   44.5840   53.9470 N   0  0  0  0  0  0  0  0  0  0  0  0
   -0.9680   44.7350   53.8390 C   0  0  0  0  0  0  0  0  0  0  0  0
   -0.1380   44.4410   54.9250 C   0  0  0  0  0  0  0  0  0  0  0  0
    1.2430   44.5960   54.7930 C   0  0  0  0  0  0  0  0  0  0  0  0
    1.7930   45.0540   53.5840 C   0  0  0  0  0  0  0  0  0  0  0  0
    3.2620   45.2120   53.4510 C   0  0  0  0  0  0  0  0  0  0  0  0
    4.0140   44.6570   54.2970 O   0  0  0  0  0  0  0  0  0  0  0  0
    3.8340   45.9770   52.3730 N   0  0  0  0  0  0  0  0  0  0  0  0
    5.2470   46.1850   52.2090 C   0  0  0  0  0  0  0  0  0  0  0  0
    5.9130   47.2000   52.9190 C   0  0  0  0  0  0  0  0  0  0  0  0
    7.2800   47.4140   52.7340 C   0  0  0  0  0  0  0  0  0  0  0  0
    7.9950   46.6270   51.8290 C   0  0  0  0  0  0  0  0  0  0  0  0
    9.7120   46.9010   51.5970 Cl  0  0  0  0  0  0  0  0  0  0  0  0
    7.3410   45.6280   51.1010 C   0  0  0  0  0  0  0  0  0  0  0  0
    5.9620   45.4020   51.2820 C   0  0  0  0  0  0  0  0  0  0  0  0
    5.2730   44.4080   50.5680 O   0  0  0  0  0  0  0  0  0  0  0  0
    5.4160   43.0060   50.7870 C   0  0  0  0  0  0  0  0  0  0  0  0
    4.0550   42.3960   51.0940 C   0  0  0  0  0  0  0  0  0  0  0  0
    3.8930   41.2240   50.3770 F   0  0  0  0  0  0  0  0  0  0  0  0
    3.9660   42.1160   52.4450 F   0  0  0  0  0  0  0  0  0  0  0  0
    3.0530   43.2850   50.7490 F   0  0  0  0  0  0  0  0  0  0  0  0
    0.9190   45.3250   52.5170 C   0  0  0  0  0  0  0  0  0  0  0  0
   -0.4220   45.1610   52.6700 N   0  0  0  0  0  0  0  0  0  0  0  0
   -2.8000   43.8060   54.5060 H   0  0  0  0  0  0  0  0  0  0  0  0
   -3.0230   45.2550   53.4670 H   0  0  0  0  0  0  0  0  0  0  0  0
   -0.5691   44.0909   55.8745 H   0  0  0  0  0  0  0  0  0  0  0  0
    1.9038   44.3584   55.6397 H   0  0  0  0  0  0  0  0  0  0  0  0
    3.2060   46.3730   51.6380 H   0  0  0  0  0  0  0  0  0  0  0  0
    5.3525   47.8300   53.6254 H   0  0  0  0  0  0  0  0  0  0  0  0
    7.7944   48.2034   53.3017 H   0  0  0  0  0  0  0  0  0  0  0  0
    7.9062   45.0153   50.3832 H   0  0  0  0  0  0  0  0  0  0  0  0
    5.8332   42.5351   49.8847 H   0  0  0  0  0  0  0  0  0  0  0  0
    6.0929   42.8360   51.6372 H   0  0  0  0  0  0  0  0  0  0  0  0
    1.3218   45.6714   51.5538 H   0  0  0  0  0  0  0  0  0  0  0  0
  1  2  1  0
  2  3  2  0
  3  4  1  0
  4  5  2  0
  5  6  1  0
  6  7  2  0
  6  8  1  0
  8  9  1  0
  9 10  2  0
 10 11  1  0
 11 12  2  0
 12 13  1  0
 12 14  1  0
 14 15  2  0
 15 16  1  0
 16 17  1  0
 17 18  1  0
 18 19  1  0
 18 20  1  0
 18 21  1  0
  5 22  1  0
 22 23  2  0
 23  2  1  0
 15  9  1  0
  1 24  1  0
  1 25  1  0
  3 26  1  0
  4 27  1  0
  8 28  1  0
 10 29  1  0
 11 30  1  0
 14 31  1  0
 17 32  1  0
 17 33  1  0
 22 34  1  0
M  END
>  <meeko>  (5) 
{"is_sidechain": [false], "free_energy": -7.299, "intermolecular_energy": -9.383, "internal_energy": -1.163}

$$$$
