ligand_20_conformer_2_docked
     RDKit          3D

 52 56  0  0  0  0  0  0  0  0999 V2000
    4.5570   44.5570   55.3340 O   0  0  0  0  0  0  0  0  0  0  0  0
    3.8290   45.4270   54.7840 C   0  0  0  0  0  0  0  0  0  0  0  0
    4.4150   46.5190   54.0540 N   0  0  0  0  0  0  0  0  0  0  0  0
    5.8220   46.6450   53.7860 C   0  0  0  0  0  0  0  0  0  0  0  0
    6.6790   47.2460   54.6530 N   0  0  0  0  0  0  0  0  0  0  0  0
    7.8670   47.1280   54.0390 C   0  0  0  0  0  0  0  0  0  0  0  0
    9.1010   47.5790   54.5030 C   0  0  0  0  0  0  0  0  0  0  0  0
   10.2290   47.3440   53.6980 C   0  0  0  0  0  0  0  0  0  0  0  0
   10.0980   46.6710   52.4630 C   0  0  0  0  0  0  0  0  0  0  0  0
    8.8380   46.2280   52.0230 C   0  0  0  0  0  0  0  0  0  0  0  0
    7.7320   46.4790   52.8450 C   0  0  0  0  0  0  0  0  0  0  0  0
    6.4320   46.1620   52.6600 N   0  0  0  0  0  0  0  0  0  0  0  0
    5.8480   45.4470   51.5050 C   0  0  0  0  0  0  0  0  0  0  0  0
    5.4960   43.9980   51.8350 C   0  0  0  0  0  0  0  0  0  0  0  0
    4.2540   43.6880   51.0180 C   0  0  0  0  0  0  0  0  0  0  0  0
    3.5300   45.0130   50.8190 C   0  0  0  0  0  0  0  0  0  0  0  0
    4.5750   46.1160   50.9740 C   0  0  0  0  0  0  0  0  0  0  0  0
    2.3660   45.3230   54.8970 C   0  0  0  0  0  0  0  0  0  0  0  0
    1.6200   45.4670   56.0470 C   0  0  0  0  0  0  0  0  0  0  0  0
    0.3630   45.2910   55.7220 O   0  0  0  0  0  0  0  0  0  0  0  0
    0.3230   45.0520   54.4290 C   0  0  0  0  0  0  0  0  0  0  0  0
   -0.9550   44.7640   53.6820 C   0  0  0  0  0  0  0  0  0  0  0  0
   -1.3210   43.2720   53.7710 C   0  0  0  0  0  0  0  0  0  0  0  0
   -0.5090   42.4450   52.7670 C   0  0  0  0  0  0  0  0  0  0  0  0
   -0.7150   42.9170   51.4500 O   0  0  0  0  0  0  0  0  0  0  0  0
   -0.1670   44.2150   51.3150 C   0  0  0  0  0  0  0  0  0  0  0  0
   -0.9030   45.2260   52.2110 C   0  0  0  0  0  0  0  0  0  0  0  0
    1.5480   45.0550   53.8630 N   0  0  0  0  0  0  0  0  0  0  0  0
    3.7670   47.2470   53.6930 H   0  0  0  0  0  0  0  0  0  0  0  0
    9.1895   48.1014   55.4670 H   0  0  0  0  0  0  0  0  0  0  0  0
   11.2197   47.6862   54.0317 H   0  0  0  0  0  0  0  0  0  0  0  0
   10.9876   46.4922   51.8412 H   0  0  0  0  0  0  0  0  0  0  0  0
    8.7246   45.7012   51.0640 H   0  0  0  0  0  0  0  0  0  0  0  0
    6.6343   45.4810   50.7365 H   0  0  0  0  0  0  0  0  0  0  0  0
    6.3205   43.3275   51.5511 H   0  0  0  0  0  0  0  0  0  0  0  0
    5.3234   43.8542   52.9118 H   0  0  0  0  0  0  0  0  0  0  0  0
    4.5356   43.2583   50.0454 H   0  0  0  0  0  0  0  0  0  0  0  0
    3.6124   42.9552   51.5293 H   0  0  0  0  0  0  0  0  0  0  0  0
    3.0835   45.0532   49.8145 H   0  0  0  0  0  0  0  0  0  0  0  0
    2.7187   45.1328   51.5521 H   0  0  0  0  0  0  0  0  0  0  0  0
    4.7734   46.5894   50.0011 H   0  0  0  0  0  0  0  0  0  0  0  0
    4.2238   46.8992   51.6619 H   0  0  0  0  0  0  0  0  0  0  0  0
    2.0083   45.6887   57.0520 H   0  0  0  0  0  0  0  0  0  0  0  0
   -1.7444   45.3519   54.1732 H   0  0  0  0  0  0  0  0  0  0  0  0
   -1.1105   42.9103   54.7883 H   0  0  0  0  0  0  0  0  0  0  0  0
   -2.3893   43.1590   53.5345 H   0  0  0  0  0  0  0  0  0  0  0  0
    0.5597   42.5226   53.0156 H   0  0  0  0  0  0  0  0  0  0  0  0
   -0.8382   41.3969   52.8232 H   0  0  0  0  0  0  0  0  0  0  0  0
    0.8946   44.1878   51.6018 H   0  0  0  0  0  0  0  0  0  0  0  0
   -0.2780   44.5326   50.2677 H   0  0  0  0  0  0  0  0  0  0  0  0
   -0.3796   46.1922   52.1605 H   0  0  0  0  0  0  0  0  0  0  0  0
   -1.9369   45.3140   51.8458 H   0  0  0  0  0  0  0  0  0  0  0  0
  1  2  2  0
  2  3  1  0
  3  4  1  0
  4  5  2  0
  5  6  1  0
  6  7  2  0
  7  8  1  0
  8  9  2  0
  9 10  1  0
 10 11  2  0
 11 12  1  0
 12 13  1  0
 13 14  1  0
 14 15  1  0
 15 16  1  0
 16 17  1  0
  2 18  1  0
 18 19  2  0
 19 20  1  0
 20 21  1  0
 21 22  1  0
 22 23  1  0
 23 24  1  0
 24 25  1  0
 25 26  1  0
 26 27  1  0
 21 28  2  0
 12  4  1  0
 17 13  1  0
 28 18  1  0
 11  6  1  0
 27 22  1  0
  3 29  1  0
  7 30  1  0
  8 31  1  0
  9 32  1  0
 10 33  1  0
 13 34  1  0
 14 35  1  0
 14 36  1  0
 15 37  1  0
 15 38  1  0
 16 39  1  0
 16 40  1  0
 17 41  1  0
 17 42  1  0
 19 43  1  0
 22 44  1  0
 23 45  1  0
 23 46  1  0
 24 47  1  0
 24 48  1  0
 26 49  1  0
 26 50  1  0
 27 51  1  0
 27 52  1  0
M  END
>  <meeko>  (1) 
{"is_sidechain": [false], "free_energy": -9.414, "intermolecular_energy": -11.616, "internal_energy": -0.844}

$$$$
ligand_20_conformer_2_docked
     RDKit          3D

 52 56  0  0  0  0  0  0  0  0999 V2000
    3.3900   47.4480   53.0220 O   0  0  0  0  0  0  0  0  0  0  0  0
    3.2400   46.2200   53.2660 C   0  0  0  0  0  0  0  0  0  0  0  0
    4.3750   45.3390   53.3290 N   0  0  0  0  0  0  0  0  0  0  0  0
    5.7410   45.7810   53.2510 C   0  0  0  0  0  0  0  0  0  0  0  0
    6.3710   46.3910   54.2900 N   0  0  0  0  0  0  0  0  0  0  0  0
    7.6060   46.6100   53.8120 C   0  0  0  0  0  0  0  0  0  0  0  0
    8.6700   47.2140   54.4790 C   0  0  0  0  0  0  0  0  0  0  0  0
    9.8890   47.3390   53.7900 C   0  0  0  0  0  0  0  0  0  0  0  0
   10.0130   46.8620   52.4670 C   0  0  0  0  0  0  0  0  0  0  0  0
    8.9200   46.2570   51.8210 C   0  0  0  0  0  0  0  0  0  0  0  0
    7.7180   46.1490   52.5320 C   0  0  0  0  0  0  0  0  0  0  0  0
    6.5370   45.6160   52.1490 N   0  0  0  0  0  0  0  0  0  0  0  0
    6.2230   44.9970   50.8450 C   0  0  0  0  0  0  0  0  0  0  0  0
    7.4750   44.7160   50.0180 C   0  0  0  0  0  0  0  0  0  0  0  0
    7.1710   43.4430   49.2460 C   0  0  0  0  0  0  0  0  0  0  0  0
    6.1680   42.6620   50.0840 C   0  0  0  0  0  0  0  0  0  0  0  0
    5.4600   43.6740   50.9830 C   0  0  0  0  0  0  0  0  0  0  0  0
    1.8860   45.6860   53.4800 C   0  0  0  0  0  0  0  0  0  0  0  0
    0.8750   45.6130   52.5470 C   0  0  0  0  0  0  0  0  0  0  0  0
   -0.1670   45.0860   53.1400 O   0  0  0  0  0  0  0  0  0  0  0  0
    0.1750   44.8360   54.3860 C   0  0  0  0  0  0  0  0  0  0  0  0
   -0.7740   44.2520   55.4020 C   0  0  0  0  0  0  0  0  0  0  0  0
   -2.2230   44.2870   54.8870 C   0  0  0  0  0  0  0  0  0  0  0  0
   -2.8370   45.6810   55.0660 C   0  0  0  0  0  0  0  0  0  0  0  0
   -2.7950   46.0740   56.4230 O   0  0  0  0  0  0  0  0  0  0  0  0
   -1.4510   46.2610   56.8270 C   0  0  0  0  0  0  0  0  0  0  0  0
   -0.6670   44.9380   56.7790 C   0  0  0  0  0  0  0  0  0  0  0  0
    1.4480   45.1960   54.6550 N   0  0  0  0  0  0  0  0  0  0  0  0
    4.1800   44.3260   53.4510 H   0  0  0  0  0  0  0  0  0  0  0  0
    8.5598   47.5807   55.5102 H   0  0  0  0  0  0  0  0  0  0  0  0
   10.7509   47.8110   54.2844 H   0  0  0  0  0  0  0  0  0  0  0  0
   10.9717   46.9643   51.9375 H   0  0  0  0  0  0  0  0  0  0  0  0
    9.0063   45.8809   50.7909 H   0  0  0  0  0  0  0  0  0  0  0  0
    5.5905   45.7390   50.3356 H   0  0  0  0  0  0  0  0  0  0  0  0
    7.6739   45.5476   49.3260 H   0  0  0  0  0  0  0  0  0  0  0  0
    8.3678   44.6072   50.6513 H   0  0  0  0  0  0  0  0  0  0  0  0
    6.7385   43.6872   48.2645 H   0  0  0  0  0  0  0  0  0  0  0  0
    8.0845   42.8566   49.0678 H   0  0  0  0  0  0  0  0  0  0  0  0
    5.4386   42.1602   49.4312 H   0  0  0  0  0  0  0  0  0  0  0  0
    6.6715   41.8879   50.6817 H   0  0  0  0  0  0  0  0  0  0  0  0
    4.4164   43.8029   50.6599 H   0  0  0  0  0  0  0  0  0  0  0  0
    5.4467   43.3326   52.0286 H   0  0  0  0  0  0  0  0  0  0  0  0
    0.9324   45.9375   51.4975 H   0  0  0  0  0  0  0  0  0  0  0  0
   -0.4754   43.2029   55.5439 H   0  0  0  0  0  0  0  0  0  0  0  0
   -2.2314   44.0248   53.8187 H   0  0  0  0  0  0  0  0  0  0  0  0
   -2.8180   43.5653   55.4659 H   0  0  0  0  0  0  0  0  0  0  0  0
   -2.2706   46.4055   54.4624 H   0  0  0  0  0  0  0  0  0  0  0  0
   -3.8867   45.6502   54.7387 H   0  0  0  0  0  0  0  0  0  0  0  0
   -0.9716   46.9869   56.1538 H   0  0  0  0  0  0  0  0  0  0  0  0
   -1.4467   46.6314   57.8628 H   0  0  0  0  0  0  0  0  0  0  0  0
    0.3923   45.1452   56.9911 H   0  0  0  0  0  0  0  0  0  0  0  0
   -1.0984   44.2603   57.5304 H   0  0  0  0  0  0  0  0  0  0  0  0
  1  2  2  0
  2  3  1  0
  3  4  1  0
  4  5  2  0
  5  6  1  0
  6  7  2  0
  7  8  1  0
  8  9  2  0
  9 10  1  0
 10 11  2  0
 11 12  1  0
 12 13  1  0
 13 14  1  0
 14 15  1  0
 15 16  1  0
 16 17  1  0
  2 18  1  0
 18 19  2  0
 19 20  1  0
 20 21  1  0
 21 22  1  0
 22 23  1  0
 23 24  1  0
 24 25  1  0
 25 26  1  0
 26 27  1  0
 21 28  2  0
 12  4  1  0
 17 13  1  0
 28 18  1  0
 11  6  1  0
 27 22  1  0
  3 29  1  0
  7 30  1  0
  8 31  1  0
  9 32  1  0
 10 33  1  0
 13 34  1  0
 14 35  1  0
 14 36  1  0
 15 37  1  0
 15 38  1  0
 16 39  1  0
 16 40  1  0
 17 41  1  0
 17 42  1  0
 19 43  1  0
 22 44  1  0
 23 45  1  0
 23 46  1  0
 24 47  1  0
 24 48  1  0
 26 49  1  0
 26 50  1  0
 27 51  1  0
 27 52  1  0
M  END
>  <meeko>  (2) 
{"is_sidechain": [false], "free_energy": -9.35, "intermolecular_energy": -12.595, "internal_energy": 0.215}

$$$$
ligand_20_conformer_2_docked
     RDKit          3D

 52 56  0  0  0  0  0  0  0  0999 V2000
    4.7160   43.2670   52.1590 O   0  0  0  0  0  0  0  0  0  0  0  0
    4.7910   44.3220   51.4720 C   0  0  0  0  0  0  0  0  0  0  0  0
    3.6020   45.0260   51.0760 N   0  0  0  0  0  0  0  0  0  0  0  0
    2.2770   44.6790   51.5160 C   0  0  0  0  0  0  0  0  0  0  0  0
    1.4700   43.8420   50.8120 N   0  0  0  0  0  0  0  0  0  0  0  0
    0.3640   43.7740   51.5690 C   0  0  0  0  0  0  0  0  0  0  0  0
   -0.7910   43.0400   51.3070 C   0  0  0  0  0  0  0  0  0  0  0  0
   -1.8360   43.1060   52.2450 C   0  0  0  0  0  0  0  0  0  0  0  0
   -1.7020   43.8950   53.4090 C   0  0  0  0  0  0  0  0  0  0  0  0
   -0.5230   44.6240   53.6450 C   0  0  0  0  0  0  0  0  0  0  0  0
    0.5000   44.5410   52.6910 C   0  0  0  0  0  0  0  0  0  0  0  0
    1.7140   45.1320   52.6780 N   0  0  0  0  0  0  0  0  0  0  0  0
    2.2720   46.0370   53.7050 C   0  0  0  0  0  0  0  0  0  0  0  0
    3.1680   45.3040   54.7010 C   0  0  0  0  0  0  0  0  0  0  0  0
    4.2540   46.2990   55.0760 C   0  0  0  0  0  0  0  0  0  0  0  0
    4.4130   47.2300   53.8800 C   0  0  0  0  0  0  0  0  0  0  0  0
    3.0990   47.1800   53.1030 C   0  0  0  0  0  0  0  0  0  0  0  0
    6.1110   44.8300   51.0690 C   0  0  0  0  0  0  0  0  0  0  0  0
    6.9400   44.2910   50.1090 C   0  0  0  0  0  0  0  0  0  0  0  0
    8.0190   45.0330   50.0630 O   0  0  0  0  0  0  0  0  0  0  0  0
    7.8720   45.9940   50.9500 C   0  0  0  0  0  0  0  0  0  0  0  0
    8.9260   47.0380   51.2180 C   0  0  0  0  0  0  0  0  0  0  0  0
   10.1480   46.4210   51.9210 C   0  0  0  0  0  0  0  0  0  0  0  0
    9.8900   46.2480   53.4230 C   0  0  0  0  0  0  0  0  0  0  0  0
    9.5630   47.4890   54.0180 O   0  0  0  0  0  0  0  0  0  0  0  0
    8.3150   47.9420   53.5280 C   0  0  0  0  0  0  0  0  0  0  0  0
    8.3850   48.2390   52.0200 C   0  0  0  0  0  0  0  0  0  0  0  0
    6.6990   45.9120   51.6120 N   0  0  0  0  0  0  0  0  0  0  0  0
    3.7240   45.8400   50.4430 H   0  0  0  0  0  0  0  0  0  0  0  0
   -0.8821   42.4293   50.3966 H   0  0  0  0  0  0  0  0  0  0  0  0
   -2.7632   42.5401   52.0716 H   0  0  0  0  0  0  0  0  0  0  0  0
   -2.5261   43.9394   54.1362 H   0  0  0  0  0  0  0  0  0  0  0  0
   -0.4075   45.2396   54.5493 H   0  0  0  0  0  0  0  0  0  0  0  0
    1.3893   46.4463   54.2181 H   0  0  0  0  0  0  0  0  0  0  0  0
    2.5929   45.0086   55.5909 H   0  0  0  0  0  0  0  0  0  0  0  0
    3.5883   44.3826   54.2717 H   0  0  0  0  0  0  0  0  0  0  0  0
    3.9553   46.8710   55.9668 H   0  0  0  0  0  0  0  0  0  0  0  0
    5.1990   45.7886   55.3136 H   0  0  0  0  0  0  0  0  0  0  0  0
    4.6112   48.2562   54.2229 H   0  0  0  0  0  0  0  0  0  0  0  0
    5.2573   46.9186   53.2474 H   0  0  0  0  0  0  0  0  0  0  0  0
    2.5604   48.1333   53.2080 H   0  0  0  0  0  0  0  0  0  0  0  0
    3.2803   47.0141   52.0308 H   0  0  0  0  0  0  0  0  0  0  0  0
    6.7339   43.4020   49.4948 H   0  0  0  0  0  0  0  0  0  0  0  0
    9.2401   47.4243   50.2371 H   0  0  0  0  0  0  0  0  0  0  0  0
   10.3595   45.4371   51.4769 H   0  0  0  0  0  0  0  0  0  0  0  0
   11.0060   47.0966   51.7887 H   0  0  0  0  0  0  0  0  0  0  0  0
    9.0553   45.5464   53.5680 H   0  0  0  0  0  0  0  0  0  0  0  0
   10.8024   45.8569   53.8969 H   0  0  0  0  0  0  0  0  0  0  0  0
    7.5562   47.1658   53.7061 H   0  0  0  0  0  0  0  0  0  0  0  0
    8.0500   48.8708   54.0544 H   0  0  0  0  0  0  0  0  0  0  0  0
    7.3746   48.4809   51.6586 H   0  0  0  0  0  0  0  0  0  0  0  0
    9.0739   49.0837   51.8722 H   0  0  0  0  0  0  0  0  0  0  0  0
  1  2  2  0
  2  3  1  0
  3  4  1  0
  4  5  2  0
  5  6  1  0
  6  7  2  0
  7  8  1  0
  8  9  2  0
  9 10  1  0
 10 11  2  0
 11 12  1  0
 12 13  1  0
 13 14  1  0
 14 15  1  0
 15 16  1  0
 16 17  1  0
  2 18  1  0
 18 19  2  0
 19 20  1  0
 20 21  1  0
 21 22  1  0
 22 23  1  0
 23 24  1  0
 24 25  1  0
 25 26  1  0
 26 27  1  0
 21 28  2  0
 12  4  1  0
 17 13  1  0
 28 18  1  0
 11  6  1  0
 27 22  1  0
  3 29  1  0
  7 30  1  0
  8 31  1  0
  9 32  1  0
 10 33  1  0
 13 34  1  0
 14 35  1  0
 14 36  1  0
 15 37  1  0
 15 38  1  0
 16 39  1  0
 16 40  1  0
 17 41  1  0
 17 42  1  0
 19 43  1  0
 22 44  1  0
 23 45  1  0
 23 46  1  0
 24 47  1  0
 24 48  1  0
 26 49  1  0
 26 50  1  0
 27 51  1  0
 27 52  1  0
M  END
>  <meeko>  (3) 
{"is_sidechain": [false], "free_energy": -9.099, "intermolecular_energy": -11.255, "internal_energy": -0.815}

$$$$
ligand_20_conformer_2_docked
     RDKit          3D

 52 56  0  0  0  0  0  0  0  0999 V2000
    2.8230   47.0870   53.0750 O   0  0  0  0  0  0  0  0  0  0  0  0
    3.5970   46.1330   53.3600 C   0  0  0  0  0  0  0  0  0  0  0  0
    3.1910   45.1110   54.2860 N   0  0  0  0  0  0  0  0  0  0  0  0
    1.8730   45.0140   54.8510 C   0  0  0  0  0  0  0  0  0  0  0  0
    1.5300   45.6290   56.0140 N   0  0  0  0  0  0  0  0  0  0  0  0
    0.2360   45.3060   56.1620 C   0  0  0  0  0  0  0  0  0  0  0  0
   -0.6120   45.6850   57.2000 C   0  0  0  0  0  0  0  0  0  0  0  0
   -1.9440   45.2390   57.1550 C   0  0  0  0  0  0  0  0  0  0  0  0
   -2.3910   44.4330   56.0840 C   0  0  0  0  0  0  0  0  0  0  0  0
   -1.5100   44.0670   55.0500 C   0  0  0  0  0  0  0  0  0  0  0  0
   -0.1880   44.5250   55.1240 C   0  0  0  0  0  0  0  0  0  0  0  0
    0.8420   44.3230   54.2740 N   0  0  0  0  0  0  0  0  0  0  0  0
    0.8170   43.5430   53.0190 C   0  0  0  0  0  0  0  0  0  0  0  0
    0.8030   44.4350   51.7800 C   0  0  0  0  0  0  0  0  0  0  0  0
    1.5970   43.6790   50.7280 C   0  0  0  0  0  0  0  0  0  0  0  0
    2.5890   42.8070   51.4860 C   0  0  0  0  0  0  0  0  0  0  0  0
    2.0150   42.5950   52.8850 C   0  0  0  0  0  0  0  0  0  0  0  0
    4.9300   46.0740   52.7410 C   0  0  0  0  0  0  0  0  0  0  0  0
    5.5200   44.9690   52.1670 C   0  0  0  0  0  0  0  0  0  0  0  0
    6.7050   45.3330   51.7450 O   0  0  0  0  0  0  0  0  0  0  0  0
    6.8500   46.6070   52.0370 C   0  0  0  0  0  0  0  0  0  0  0  0
    8.1070   47.3850   51.7360 C   0  0  0  0  0  0  0  0  0  0  0  0
    9.3180   46.4470   51.6050 C   0  0  0  0  0  0  0  0  0  0  0  0
    9.8570   46.0470   52.9840 C   0  0  0  0  0  0  0  0  0  0  0  0
   10.2090   47.1930   53.7340 O   0  0  0  0  0  0  0  0  0  0  0  0
    9.0480   47.9380   54.0460 C   0  0  0  0  0  0  0  0  0  0  0  0
    8.3840   48.4930   52.7740 C   0  0  0  0  0  0  0  0  0  0  0  0
    5.7720   47.1210   52.6660 N   0  0  0  0  0  0  0  0  0  0  0  0
    3.9020   44.3980   54.5430 H   0  0  0  0  0  0  0  0  0  0  0  0
   -0.2509   46.3129   58.0279 H   0  0  0  0  0  0  0  0  0  0  0  0
   -2.6421   45.5188   57.9577 H   0  0  0  0  0  0  0  0  0  0  0  0
   -3.4356   44.0891   56.0585 H   0  0  0  0  0  0  0  0  0  0  0  0
   -1.8481   43.4415   54.2107 H   0  0  0  0  0  0  0  0  0  0  0  0
   -0.1140   42.9602   53.0777 H   0  0  0  0  0  0  0  0  0  0  0  0
   -0.2290   44.6011   51.4373 H   0  0  0  0  0  0  0  0  0  0  0  0
    1.2355   45.4255   51.9847 H   0  0  0  0  0  0  0  0  0  0  0  0
    0.9260   43.0533   50.1211 H   0  0  0  0  0  0  0  0  0  0  0  0
    2.1126   44.3690   50.0439 H   0  0  0  0  0  0  0  0  0  0  0  0
    2.7092   41.8398   50.9759 H   0  0  0  0  0  0  0  0  0  0  0  0
    3.5777   43.2867   51.5347 H   0  0  0  0  0  0  0  0  0  0  0  0
    1.6881   41.5517   53.0064 H   0  0  0  0  0  0  0  0  0  0  0  0
    2.7704   42.8009   53.6576 H   0  0  0  0  0  0  0  0  0  0  0  0
    5.0772   43.9659   52.0794 H   0  0  0  0  0  0  0  0  0  0  0  0
    7.9426   47.8855   50.7704 H   0  0  0  0  0  0  0  0  0  0  0  0
    9.0134   45.5405   51.0614 H   0  0  0  0  0  0  0  0  0  0  0  0
   10.1128   46.9761   51.0588 H   0  0  0  0  0  0  0  0  0  0  0  0
    9.0820   45.4849   53.5256 H   0  0  0  0  0  0  0  0  0  0  0  0
   10.7536   45.4247   52.8467 H   0  0  0  0  0  0  0  0  0  0  0  0
    8.3329   47.2857   54.5686 H   0  0  0  0  0  0  0  0  0  0  0  0
    9.3391   48.7850   54.6847 H   0  0  0  0  0  0  0  0  0  0  0  0
    7.4308   48.9681   53.0493 H   0  0  0  0  0  0  0  0  0  0  0  0
    9.0740   49.2194   52.3198 H   0  0  0  0  0  0  0  0  0  0  0  0
  1  2  2  0
  2  3  1  0
  3  4  1  0
  4  5  2  0
  5  6  1  0
  6  7  2  0
  7  8  1  0
  8  9  2  0
  9 10  1  0
 10 11  2  0
 11 12  1  0
 12 13  1  0
 13 14  1  0
 14 15  1  0
 15 16  1  0
 16 17  1  0
  2 18  1  0
 18 19  2  0
 19 20  1  0
 20 21  1  0
 21 22  1  0
 22 23  1  0
 23 24  1  0
 24 25  1  0
 25 26  1  0
 26 27  1  0
 21 28  2  0
 12  4  1  0
 17 13  1  0
 28 18  1  0
 11  6  1  0
 27 22  1  0
  3 29  1  0
  7 30  1  0
  8 31  1  0
  9 32  1  0
 10 33  1  0
 13 34  1  0
 14 35  1  0
 14 36  1  0
 15 37  1  0
 15 38  1  0
 16 39  1  0
 16 40  1  0
 17 41  1  0
 17 42  1  0
 19 43  1  0
 22 44  1  0
 23 45  1  0
 23 46  1  0
 24 47  1  0
 24 48  1  0
 26 49  1  0
 26 50  1  0
 27 51  1  0
 27 52  1  0
M  END
>  <meeko>  (4) 
{"is_sidechain": [false], "free_energy": -9.055, "intermolecular_energy": -11.098, "internal_energy": -0.919}

$$$$
ligand_20_conformer_2_docked
     RDKit          3D

 52 56  0  0  0  0  0  0  0  0999 V2000
    2.0440   45.0520   51.8190 O   0  0  0  0  0  0  0  0  0  0  0  0
    2.3270   44.4470   52.8880 C   0  0  0  0  0  0  0  0  0  0  0  0
    3.5640   43.7240   53.0160 N   0  0  0  0  0  0  0  0  0  0  0  0
    4.6060   43.7310   52.0250 C   0  0  0  0  0  0  0  0  0  0  0  0
    4.6740   42.8080   51.0300 N   0  0  0  0  0  0  0  0  0  0  0  0
    5.7580   43.1860   50.3350 C   0  0  0  0  0  0  0  0  0  0  0  0
    6.2810   42.5770   49.1960 C   0  0  0  0  0  0  0  0  0  0  0  0
    7.4290   43.1450   48.6180 C   0  0  0  0  0  0  0  0  0  0  0  0
    8.0190   44.2970   49.1850 C   0  0  0  0  0  0  0  0  0  0  0  0
    7.4660   44.8890   50.3350 C   0  0  0  0  0  0  0  0  0  0  0  0
    6.3240   44.2980   50.8900 C   0  0  0  0  0  0  0  0  0  0  0  0
    5.6070   44.6640   51.9750 N   0  0  0  0  0  0  0  0  0  0  0  0
    5.8650   45.8170   52.8630 C   0  0  0  0  0  0  0  0  0  0  0  0
    4.8420   46.9350   52.6780 C   0  0  0  0  0  0  0  0  0  0  0  0
    4.6670   47.5530   54.0550 C   0  0  0  0  0  0  0  0  0  0  0  0
    4.9730   46.4520   55.0620 C   0  0  0  0  0  0  0  0  0  0  0  0
    5.8610   45.4350   54.3480 C   0  0  0  0  0  0  0  0  0  0  0  0
    1.3770   44.4770   54.0100 C   0  0  0  0  0  0  0  0  0  0  0  0
    1.6170   44.9660   55.2760 C   0  0  0  0  0  0  0  0  0  0  0  0
    0.5220   44.7990   55.9740 O   0  0  0  0  0  0  0  0  0  0  0  0
   -0.3650   44.2340   55.1830 C   0  0  0  0  0  0  0  0  0  0  0  0
   -1.7500   43.8490   55.6370 C   0  0  0  0  0  0  0  0  0  0  0  0
   -2.7940   44.1680   54.5530 C   0  0  0  0  0  0  0  0  0  0  0  0
   -3.1670   45.6550   54.5680 C   0  0  0  0  0  0  0  0  0  0  0  0
   -3.6570   46.0340   55.8390 O   0  0  0  0  0  0  0  0  0  0  0  0
   -2.6180   45.9530   56.7970 C   0  0  0  0  0  0  0  0  0  0  0  0
   -2.1400   44.5020   56.9790 C   0  0  0  0  0  0  0  0  0  0  0  0
    0.1190   44.0050   53.9430 N   0  0  0  0  0  0  0  0  0  0  0  0
    3.7030   43.1780   53.8890 H   0  0  0  0  0  0  0  0  0  0  0  0
    5.8108   41.6814   48.7637 H   0  0  0  0  0  0  0  0  0  0  0  0
    7.8708   42.6903   47.7191 H   0  0  0  0  0  0  0  0  0  0  0  0
    8.9170   44.7339   48.7239 H   0  0  0  0  0  0  0  0  0  0  0  0
    7.9159   45.7869   50.7838 H   0  0  0  0  0  0  0  0  0  0  0  0
    6.8661   46.1678   52.5718 H   0  0  0  0  0  0  0  0  0  0  0  0
    5.2154   47.6843   51.9644 H   0  0  0  0  0  0  0  0  0  0  0  0
    3.8908   46.5569   52.2752 H   0  0  0  0  0  0  0  0  0  0  0  0
    5.3645   48.3934   54.1864 H   0  0  0  0  0  0  0  0  0  0  0  0
    3.6481   47.9450   54.1898 H   0  0  0  0  0  0  0  0  0  0  0  0
    5.5004   46.8704   55.9319 H   0  0  0  0  0  0  0  0  0  0  0  0
    4.0476   45.9814   55.4255 H   0  0  0  0  0  0  0  0  0  0  0  0
    6.8833   45.4749   54.7522 H   0  0  0  0  0  0  0  0  0  0  0  0
    5.4839   44.4117   54.4916 H   0  0  0  0  0  0  0  0  0  0  0  0
    2.5556   45.4141   55.6340 H   0  0  0  0  0  0  0  0  0  0  0  0
   -1.7344   42.7618   55.8036 H   0  0  0  0  0  0  0  0  0  0  0  0
   -2.3786   43.9115   53.5673 H   0  0  0  0  0  0  0  0  0  0  0  0
   -3.7000   43.5780   54.7555 H   0  0  0  0  0  0  0  0  0  0  0  0
   -2.2749   46.2536   54.3316 H   0  0  0  0  0  0  0  0  0  0  0  0
   -3.9533   45.8302   53.8189 H   0  0  0  0  0  0  0  0  0  0  0  0
   -1.7715   46.5700   56.4612 H   0  0  0  0  0  0  0  0  0  0  0  0
   -3.0044   46.3156   57.7610 H   0  0  0  0  0  0  0  0  0  0  0  0
   -1.2637   44.4976   57.6439 H   0  0  0  0  0  0  0  0  0  0  0  0
   -2.9698   43.9227   57.4101 H   0  0  0  0  0  0  0  0  0  0  0  0
  1  2  2  0
  2  3  1  0
  3  4  1  0
  4  5  2  0
  5  6  1  0
  6  7  2  0
  7  8  1  0
  8  9  2  0
  9 10  1  0
 10 11  2  0
 11 12  1  0
 12 13  1  0
 13 14  1  0
 14 15  1  0
 15 16  1  0
 16 17  1  0
  2 18  1  0
 18 19  2  0
 19 20  1  0
 20 21  1  0
 21 22  1  0
 22 23  1  0
 23 24  1  0
 24 25  1  0
 25 26  1  0
 26 27  1  0
 21 28  2  0
 12  4  1  0
 17 13  1  0
 28 18  1  0
 11  6  1  0
 27 22  1  0
  3 29  1  0
  7 30  1  0
  8 31  1  0
  9 32  1  0
 10 33  1  0
 13 34  1  0
 14 35  1  0
 14 36  1  0
 15 37  1  0
 15 38  1  0
 16 39  1  0
 16 40  1  0
 17 41  1  0
 17 42  1  0
 19 43  1  0
 22 44  1  0
 23 45  1  0
 23 46  1  0
 24 47  1  0
 24 48  1  0
 26 49  1  0
 26 50  1  0
 27 51  1  0
 27 52  1  0
M  END
>  <meeko>  (5) 
{"is_sidechain": [false], "free_energy": -8.58, "intermolecular_energy": -10.532, "internal_energy": -0.899}

$$$$
