ligand_66_conformer_2_docked
     RDKit          3D

 42 43  0  0  0  0  0  0  0  0999 V2000
    5.0300   42.0960   44.8870 C   0  0  0  0  0  0  0  0  0  0  0  0
    4.0540   40.9220   44.8190 C   0  0  0  0  0  0  0  0  0  0  0  0
    3.6590   40.4190   46.2140 C   0  0  0  0  0  0  0  0  0  0  0  0
    4.6340   40.8200   47.2290 N   0  0  0  0  0  0  0  0  0  0  0  0
    4.2970   40.8320   48.6230 C   0  0  0  0  0  0  0  0  0  0  0  0
    3.1280   40.5290   48.9920 O   0  0  0  0  0  0  0  0  0  0  0  0
    5.3210   41.2550   49.6490 C   0  0  0  0  0  0  0  0  0  0  0  0
    4.6440   41.7820   50.9420 C   0  0  0  0  0  0  0  0  0  0  0  0
    4.5560   43.3120   50.9810 C   0  0  0  0  0  0  0  0  0  0  0  0
    5.8820   43.9200   50.7910 N   0  0  0  0  0  0  0  0  0  0  0  0
    6.0760   45.3010   51.1530 C   0  0  0  0  0  0  0  0  0  0  0  0
    5.0980   46.0980   51.1010 O   0  0  0  0  0  0  0  0  0  0  0  0
    7.3950   45.8140   51.5860 C   0  0  0  0  0  0  0  0  0  0  0  0
    8.5430   45.5960   50.8030 C   0  0  0  0  0  0  0  0  0  0  0  0
    9.7870   46.0740   51.2250 C   0  0  0  0  0  0  0  0  0  0  0  0
    9.8990   46.7640   52.4340 C   0  0  0  0  0  0  0  0  0  0  0  0
    8.7680   46.9700   53.2300 C   0  0  0  0  0  0  0  0  0  0  0  0
    8.9120   47.8270   54.7540 Cl  0  0  0  0  0  0  0  0  0  0  0  0
    7.5210   46.4930   52.8110 C   0  0  0  0  0  0  0  0  0  0  0  0
    6.9350   43.1780   50.0790 C   0  0  0  0  0  0  0  0  0  0  0  0
    6.3100   42.2650   49.0220 C   0  0  0  0  0  0  0  0  0  0  0  0
    5.2347   42.3422   45.9394 H   0  0  0  0  0  0  0  0  0  0  0  0
    5.9696   41.8213   44.3853 H   0  0  0  0  0  0  0  0  0  0  0  0
    4.5883   42.9696   44.3853 H   0  0  0  0  0  0  0  0  0  0  0  0
    3.1464   41.2454   44.2883 H   0  0  0  0  0  0  0  0  0  0  0  0
    4.5527   40.0967   44.2897 H   0  0  0  0  0  0  0  0  0  0  0  0
    2.6764   40.8366   46.4787 H   0  0  0  0  0  0  0  0  0  0  0  0
    3.6250   39.3199   46.1858 H   0  0  0  0  0  0  0  0  0  0  0  0
    5.5920   41.1240   46.9420 H   0  0  0  0  0  0  0  0  0  0  0  0
    5.9062   40.3768   49.9591 H   0  0  0  0  0  0  0  0  0  0  0  0
    3.6261   41.3692   50.9999 H   0  0  0  0  0  0  0  0  0  0  0  0
    5.2611   41.4624   51.7947 H   0  0  0  0  0  0  0  0  0  0  0  0
    3.8848   43.6545   50.1797 H   0  0  0  0  0  0  0  0  0  0  0  0
    4.1679   43.6164   51.9642 H   0  0  0  0  0  0  0  0  0  0  0  0
    8.4614   45.0465   49.8536 H   0  0  0  0  0  0  0  0  0  0  0  0
   10.6792   45.9064   50.6038 H   0  0  0  0  0  0  0  0  0  0  0  0
   10.8777   47.1457   52.7603 H   0  0  0  0  0  0  0  0  0  0  0  0
    6.6346   46.6500   53.4432 H   0  0  0  0  0  0  0  0  0  0  0  0
    7.6145   43.8906   49.5887 H   0  0  0  0  0  0  0  0  0  0  0  0
    7.4944   42.5643   50.8004 H   0  0  0  0  0  0  0  0  0  0  0  0
    5.7706   42.8844   48.2903 H   0  0  0  0  0  0  0  0  0  0  0  0
    7.1187   41.6971   48.5388 H   0  0  0  0  0  0  0  0  0  0  0  0
  1  2  1  0
  2  3  1  0
  3  4  1  0
  4  5  1  0
  5  6  2  0
  5  7  1  0
  7  8  1  0
  8  9  1  0
  9 10  1  0
 10 11  1  0
 11 12  2  0
 11 13  1  0
 13 14  2  0
 14 15  1  0
 15 16  2  0
 16 17  1  0
 17 18  1  0
 17 19  2  0
 10 20  1  0
 20 21  1  0
 21  7  1  0
 19 13  1  0
  1 22  1  0
  1 23  1  0
  1 24  1  0
  2 25  1  0
  2 26  1  0
  3 27  1  0
  3 28  1  0
  4 29  1  0
  7 30  1  0
  8 31  1  0
  8 32  1  0
  9 33  1  0
  9 34  1  0
 14 35  1  0
 15 36  1  0
 16 37  1  0
 19 38  1  0
 20 39  1  0
 20 40  1  0
 21 41  1  0
 21 42  1  0
M  END
>  <meeko>  (1) 
{"is_sidechain": [false], "free_energy": -8.402, "intermolecular_energy": -10.367, "internal_energy": 0.017}

$$$$
ligand_66_conformer_2_docked
     RDKit          3D

 42 43  0  0  0  0  0  0  0  0999 V2000
   -0.9640   43.7990   54.4910 C   0  0  0  0  0  0  0  0  0  0  0  0
   -1.4500   43.6140   53.0550 C   0  0  0  0  0  0  0  0  0  0  0  0
   -0.4880   42.7520   52.2260 C   0  0  0  0  0  0  0  0  0  0  0  0
    0.8730   42.7960   52.7610 N   0  0  0  0  0  0  0  0  0  0  0  0
    1.8920   43.5920   52.1430 C   0  0  0  0  0  0  0  0  0  0  0  0
    1.6330   44.2430   51.0920 O   0  0  0  0  0  0  0  0  0  0  0  0
    3.2900   43.6150   52.7130 C   0  0  0  0  0  0  0  0  0  0  0  0
    3.3560   44.4490   54.0200 C   0  0  0  0  0  0  0  0  0  0  0  0
    3.8550   45.8790   53.7830 C   0  0  0  0  0  0  0  0  0  0  0  0
    5.1530   45.8760   53.0920 N   0  0  0  0  0  0  0  0  0  0  0  0
    5.9540   47.0740   53.1020 C   0  0  0  0  0  0  0  0  0  0  0  0
    5.3860   48.1970   53.1890 O   0  0  0  0  0  0  0  0  0  0  0  0
    7.4310   47.0230   53.0120 C   0  0  0  0  0  0  0  0  0  0  0  0
    8.0670   46.7550   51.7870 C   0  0  0  0  0  0  0  0  0  0  0  0
    9.4620   46.6980   51.7130 C   0  0  0  0  0  0  0  0  0  0  0  0
   10.2330   46.8960   52.8600 C   0  0  0  0  0  0  0  0  0  0  0  0
    9.6110   47.1450   54.0870 C   0  0  0  0  0  0  0  0  0  0  0  0
   10.5800   47.3830   55.5300 Cl  0  0  0  0  0  0  0  0  0  0  0  0
    8.2140   47.2020   54.1650 C   0  0  0  0  0  0  0  0  0  0  0  0
    5.5370   44.7260   52.2570 C   0  0  0  0  0  0  0  0  0  0  0  0
    4.2920   44.0900   51.6340 C   0  0  0  0  0  0  0  0  0  0  0  0
   -1.7586   43.4965   55.1889 H   0  0  0  0  0  0  0  0  0  0  0  0
   -0.0721   43.1775   54.6592 H   0  0  0  0  0  0  0  0  0  0  0  0
   -0.7112   44.8563   54.6592 H   0  0  0  0  0  0  0  0  0  0  0  0
   -2.4359   43.1266   53.0743 H   0  0  0  0  0  0  0  0  0  0  0  0
   -1.5048   44.6073   52.5855 H   0  0  0  0  0  0  0  0  0  0  0  0
   -0.8423   41.7107   52.2371 H   0  0  0  0  0  0  0  0  0  0  0  0
   -0.4672   43.1495   51.2005 H   0  0  0  0  0  0  0  0  0  0  0  0
    1.1230   42.2250   53.6010 H   0  0  0  0  0  0  0  0  0  0  0  0
    3.5804   42.5935   52.9996 H   0  0  0  0  0  0  0  0  0  0  0  0
    2.3486   44.4958   54.4592 H   0  0  0  0  0  0  0  0  0  0  0  0
    4.0705   43.9546   54.6946 H   0  0  0  0  0  0  0  0  0  0  0  0
    3.1207   46.4189   53.1670 H   0  0  0  0  0  0  0  0  0  0  0  0
    3.9779   46.3736   54.7578 H   0  0  0  0  0  0  0  0  0  0  0  0
    7.4639   46.5893   50.8821 H   0  0  0  0  0  0  0  0  0  0  0  0
    9.9529   46.4968   50.7494 H   0  0  0  0  0  0  0  0  0  0  0  0
   11.3305   46.8561   52.7982 H   0  0  0  0  0  0  0  0  0  0  0  0
    7.7271   47.3878   55.1337 H   0  0  0  0  0  0  0  0  0  0  0  0
    6.2110   45.0661   51.4570 H   0  0  0  0  0  0  0  0  0  0  0  0
    6.0472   43.9800   52.8840 H   0  0  0  0  0  0  0  0  0  0  0  0
    3.7971   44.8320   50.9902 H   0  0  0  0  0  0  0  0  0  0  0  0
    4.6104   43.2124   51.0522 H   0  0  0  0  0  0  0  0  0  0  0  0
  1  2  1  0
  2  3  1  0
  3  4  1  0
  4  5  1  0
  5  6  2  0
  5  7  1  0
  7  8  1  0
  8  9  1  0
  9 10  1  0
 10 11  1  0
 11 12  2  0
 11 13  1  0
 13 14  2  0
 14 15  1  0
 15 16  2  0
 16 17  1  0
 17 18  1  0
 17 19  2  0
 10 20  1  0
 20 21  1  0
 21  7  1  0
 19 13  1  0
  1 22  1  0
  1 23  1  0
  1 24  1  0
  2 25  1  0
  2 26  1  0
  3 27  1  0
  3 28  1  0
  4 29  1  0
  7 30  1  0
  8 31  1  0
  8 32  1  0
  9 33  1  0
  9 34  1  0
 14 35  1  0
 15 36  1  0
 16 37  1  0
 19 38  1  0
 20 39  1  0
 20 40  1  0
 21 41  1  0
 21 42  1  0
M  END
>  <meeko>  (2) 
{"is_sidechain": [false], "free_energy": -8.163, "intermolecular_energy": -9.736, "internal_energy": -0.318}

$$$$
ligand_66_conformer_2_docked
     RDKit          3D

 42 43  0  0  0  0  0  0  0  0999 V2000
    1.2050   43.0760   51.3240 C   0  0  0  0  0  0  0  0  0  0  0  0
    0.2700   42.3400   52.2830 C   0  0  0  0  0  0  0  0  0  0  0  0
    0.6120   42.6200   53.7520 C   0  0  0  0  0  0  0  0  0  0  0  0
    1.7780   43.4960   53.8770 N   0  0  0  0  0  0  0  0  0  0  0  0
    1.6420   44.8640   54.2850 C   0  0  0  0  0  0  0  0  0  0  0  0
    0.4970   45.3450   54.5070 O   0  0  0  0  0  0  0  0  0  0  0  0
    2.8620   45.7470   54.4020 C   0  0  0  0  0  0  0  0  0  0  0  0
    2.9200   46.7890   53.2540 C   0  0  0  0  0  0  0  0  0  0  0  0
    3.8360   46.3510   52.1050 C   0  0  0  0  0  0  0  0  0  0  0  0
    5.1850   46.0330   52.6000 N   0  0  0  0  0  0  0  0  0  0  0  0
    6.2750   45.9580   51.6610 C   0  0  0  0  0  0  0  0  0  0  0  0
    6.0410   45.6280   50.4660 O   0  0  0  0  0  0  0  0  0  0  0  0
    7.6680   46.2600   52.0610 C   0  0  0  0  0  0  0  0  0  0  0  0
    8.7510   45.8170   51.2820 C   0  0  0  0  0  0  0  0  0  0  0  0
   10.0640   46.0980   51.6720 C   0  0  0  0  0  0  0  0  0  0  0  0
   10.3080   46.8120   52.8470 C   0  0  0  0  0  0  0  0  0  0  0  0
    9.2390   47.2420   53.6400 C   0  0  0  0  0  0  0  0  0  0  0  0
    9.5470   48.1290   55.1210 Cl  0  0  0  0  0  0  0  0  0  0  0  0
    7.9230   46.9630   53.2520 C   0  0  0  0  0  0  0  0  0  0  0  0
    5.3740   45.6230   54.0010 C   0  0  0  0  0  0  0  0  0  0  0  0
    4.1360   44.8760   54.5020 C   0  0  0  0  0  0  0  0  0  0  0  0
    1.9407   43.6551   51.9014 H   0  0  0  0  0  0  0  0  0  0  0  0
    1.7292   42.3456   50.6902 H   0  0  0  0  0  0  0  0  0  0  0  0
    0.6181   43.7571   50.6902 H   0  0  0  0  0  0  0  0  0  0  0  0
   -0.7629   42.6659   52.0911 H   0  0  0  0  0  0  0  0  0  0  0  0
    0.3872   41.2603   52.1081 H   0  0  0  0  0  0  0  0  0  0  0  0
   -0.2508   43.1035   54.2334 H   0  0  0  0  0  0  0  0  0  0  0  0
    0.8480   41.6621   54.2386 H   0  0  0  0  0  0  0  0  0  0  0  0
    2.7320   43.1320   53.6500 H   0  0  0  0  0  0  0  0  0  0  0  0
    2.7960   46.3340   55.3300 H   0  0  0  0  0  0  0  0  0  0  0  0
    1.9039   46.9343   52.8585 H   0  0  0  0  0  0  0  0  0  0  0  0
    3.3306   47.7206   53.6705 H   0  0  0  0  0  0  0  0  0  0  0  0
    3.4091   45.4583   51.6245 H   0  0  0  0  0  0  0  0  0  0  0  0
    3.9127   47.1770   51.3826 H   0  0  0  0  0  0  0  0  0  0  0  0
    8.5645   45.2461   50.3604 H   0  0  0  0  0  0  0  0  0  0  0  0
   10.9060   45.7561   51.0523 H   0  0  0  0  0  0  0  0  0  0  0  0
   11.3416   47.0364   53.1492 H   0  0  0  0  0  0  0  0  0  0  0  0
    7.0845   47.2953   53.8817 H   0  0  0  0  0  0  0  0  0  0  0  0
    6.2508   44.9625   54.0717 H   0  0  0  0  0  0  0  0  0  0  0  0
    5.5292   46.5187   54.6204 H   0  0  0  0  0  0  0  0  0  0  0  0
    3.9966   43.9696   53.8945 H   0  0  0  0  0  0  0  0  0  0  0  0
    4.2946   44.6212   55.5603 H   0  0  0  0  0  0  0  0  0  0  0  0
  1  2  1  0
  2  3  1  0
  3  4  1  0
  4  5  1  0
  5  6  2  0
  5  7  1  0
  7  8  1  0
  8  9  1  0
  9 10  1  0
 10 11  1  0
 11 12  2  0
 11 13  1  0
 13 14  2  0
 14 15  1  0
 15 16  2  0
 16 17  1  0
 17 18  1  0
 17 19  2  0
 10 20  1  0
 20 21  1  0
 21  7  1  0
 19 13  1  0
  1 22  1  0
  1 23  1  0
  1 24  1  0
  2 25  1  0
  2 26  1  0
  3 27  1  0
  3 28  1  0
  4 29  1  0
  7 30  1  0
  8 31  1  0
  8 32  1  0
  9 33  1  0
  9 34  1  0
 14 35  1  0
 15 36  1  0
 16 37  1  0
 19 38  1  0
 20 39  1  0
 20 40  1  0
 21 41  1  0
 21 42  1  0
M  END
>  <meeko>  (3) 
{"is_sidechain": [false], "free_energy": -7.956, "intermolecular_energy": -9.79, "internal_energy": -0.01}

$$$$
ligand_66_conformer_2_docked
     RDKit          3D

 42 43  0  0  0  0  0  0  0  0999 V2000
    0.5920   45.5180   56.5470 C   0  0  0  0  0  0  0  0  0  0  0  0
   -0.7890   44.9750   56.1820 C   0  0  0  0  0  0  0  0  0  0  0  0
   -0.9000   44.6360   54.6900 C   0  0  0  0  0  0  0  0  0  0  0  0
    0.3610   44.8740   53.9870 N   0  0  0  0  0  0  0  0  0  0  0  0
    0.3830   45.3710   52.6420 C   0  0  0  0  0  0  0  0  0  0  0  0
   -0.7010   45.5750   52.0280 O   0  0  0  0  0  0  0  0  0  0  0  0
    1.6980   45.6040   51.9390 C   0  0  0  0  0  0  0  0  0  0  0  0
    2.4870   44.2810   51.7550 C   0  0  0  0  0  0  0  0  0  0  0  0
    3.5540   44.0740   52.8360 C   0  0  0  0  0  0  0  0  0  0  0  0
    4.4650   45.2280   52.9030 N   0  0  0  0  0  0  0  0  0  0  0  0
    5.7290   45.0830   53.5780 C   0  0  0  0  0  0  0  0  0  0  0  0
    5.8350   44.2500   54.5200 O   0  0  0  0  0  0  0  0  0  0  0  0
    6.9120   45.8880   53.1970 C   0  0  0  0  0  0  0  0  0  0  0  0
    7.2430   46.0810   51.8440 C   0  0  0  0  0  0  0  0  0  0  0  0
    8.3680   46.8330   51.4930 C   0  0  0  0  0  0  0  0  0  0  0  0
    9.1770   47.3890   52.4870 C   0  0  0  0  0  0  0  0  0  0  0  0
    8.8680   47.1880   53.8350 C   0  0  0  0  0  0  0  0  0  0  0  0
    9.8910   47.8770   55.0820 Cl  0  0  0  0  0  0  0  0  0  0  0  0
    7.7420   46.4350   54.1910 C   0  0  0  0  0  0  0  0  0  0  0  0
    4.0100   46.5500   52.4420 C   0  0  0  0  0  0  0  0  0  0  0  0
    2.5040   46.6990   52.6770 C   0  0  0  0  0  0  0  0  0  0  0  0
    0.6928   45.5576   57.6417 H   0  0  0  0  0  0  0  0  0  0  0  0
    1.3673   44.8578   56.1310 H   0  0  0  0  0  0  0  0  0  0  0  0
    0.7100   46.5295   56.1310 H   0  0  0  0  0  0  0  0  0  0  0  0
   -0.9779   44.0634   56.7679 H   0  0  0  0  0  0  0  0  0  0  0  0
   -1.5304   45.7555   56.4081 H   0  0  0  0  0  0  0  0  0  0  0  0
   -1.1726   43.5756   54.5844 H   0  0  0  0  0  0  0  0  0  0  0  0
   -1.6686   45.2860   54.2463 H   0  0  0  0  0  0  0  0  0  0  0  0
    1.2700   44.6650   54.4590 H   0  0  0  0  0  0  0  0  0  0  0  0
    1.5026   45.9736   50.9215 H   0  0  0  0  0  0  0  0  0  0  0  0
    1.7786   43.4403   51.7940 H   0  0  0  0  0  0  0  0  0  0  0  0
    3.0025   44.3335   50.7847 H   0  0  0  0  0  0  0  0  0  0  0  0
    3.0596   43.9485   53.8106 H   0  0  0  0  0  0  0  0  0  0  0  0
    4.1401   43.1779   52.5841 H   0  0  0  0  0  0  0  0  0  0  0  0
    6.6137   45.6381   51.0580 H   0  0  0  0  0  0  0  0  0  0  0  0
    8.6166   46.9871   50.4326 H   0  0  0  0  0  0  0  0  0  0  0  0
   10.0581   47.9856   52.2083 H   0  0  0  0  0  0  0  0  0  0  0  0
    7.5061   46.2709   55.2528 H   0  0  0  0  0  0  0  0  0  0  0  0
    4.5445   47.3335   52.9991 H   0  0  0  0  0  0  0  0  0  0  0  0
    4.2182   46.6478   51.3663 H   0  0  0  0  0  0  0  0  0  0  0  0
    2.3025   46.6238   53.7558 H   0  0  0  0  0  0  0  0  0  0  0  0
    2.1912   47.6778   52.2846 H   0  0  0  0  0  0  0  0  0  0  0  0
  1  2  1  0
  2  3  1  0
  3  4  1  0
  4  5  1  0
  5  6  2  0
  5  7  1  0
  7  8  1  0
  8  9  1  0
  9 10  1  0
 10 11  1  0
 11 12  2  0
 11 13  1  0
 13 14  2  0
 14 15  1  0
 15 16  2  0
 16 17  1  0
 17 18  1  0
 17 19  2  0
 10 20  1  0
 20 21  1  0
 21  7  1  0
 19 13  1  0
  1 22  1  0
  1 23  1  0
  1 24  1  0
  2 25  1  0
  2 26  1  0
  3 27  1  0
  3 28  1  0
  4 29  1  0
  7 30  1  0
  8 31  1  0
  8 32  1  0
  9 33  1  0
  9 34  1  0
 14 35  1  0
 15 36  1  0
 16 37  1  0
 19 38  1  0
 20 39  1  0
 20 40  1  0
 21 41  1  0
 21 42  1  0
M  END
>  <meeko>  (4) 
{"is_sidechain": [false], "free_energy": -7.945, "intermolecular_energy": -9.478, "internal_energy": -0.308}

$$$$
ligand_66_conformer_2_docked
     RDKit          3D

 42 43  0  0  0  0  0  0  0  0999 V2000
    9.9090   46.8600   53.8530 C   0  0  0  0  0  0  0  0  0  0  0  0
   10.0820   46.2660   52.4560 C   0  0  0  0  0  0  0  0  0  0  0  0
    8.8890   46.5800   51.5440 C   0  0  0  0  0  0  0  0  0  0  0  0
    7.6190   46.2070   52.1680 N   0  0  0  0  0  0  0  0  0  0  0  0
    6.7340   47.1980   52.7070 C   0  0  0  0  0  0  0  0  0  0  0  0
    7.0610   48.4160   52.6830 O   0  0  0  0  0  0  0  0  0  0  0  0
    5.4310   46.7840   53.3490 C   0  0  0  0  0  0  0  0  0  0  0  0
    5.5920   45.4790   54.1710 C   0  0  0  0  0  0  0  0  0  0  0  0
    5.1470   44.2330   53.3960 C   0  0  0  0  0  0  0  0  0  0  0  0
    3.7680   44.3840   52.9070 N   0  0  0  0  0  0  0  0  0  0  0  0
    3.0440   43.2120   52.4820 C   0  0  0  0  0  0  0  0  0  0  0  0
    3.6810   42.2250   52.0220 O   0  0  0  0  0  0  0  0  0  0  0  0
    1.5690   43.1340   52.5720 C   0  0  0  0  0  0  0  0  0  0  0  0
    0.9310   42.9910   53.8170 C   0  0  0  0  0  0  0  0  0  0  0  0
   -0.4630   42.9070   53.8910 C   0  0  0  0  0  0  0  0  0  0  0  0
   -1.2300   42.9550   52.7260 C   0  0  0  0  0  0  0  0  0  0  0  0
   -0.6060   43.0780   51.4810 C   0  0  0  0  0  0  0  0  0  0  0  0
   -1.5710   43.1270   50.0170 Cl  0  0  0  0  0  0  0  0  0  0  0  0
    0.7890   43.1620   51.4020 C   0  0  0  0  0  0  0  0  0  0  0  0
    3.2090   45.7280   52.6890 C   0  0  0  0  0  0  0  0  0  0  0  0
    4.3190   46.6990   52.2780 C   0  0  0  0  0  0  0  0  0  0  0  0
   10.1326   46.0921   54.6082 H   0  0  0  0  0  0  0  0  0  0  0  0
   10.5972   47.7089   53.9783 H   0  0  0  0  0  0  0  0  0  0  0  0
    8.8726   47.2066   53.9783 H   0  0  0  0  0  0  0  0  0  0  0  0
   10.9938   46.6830   52.0036 H   0  0  0  0  0  0  0  0  0  0  0  0
   10.1516   45.1730   52.5587 H   0  0  0  0  0  0  0  0  0  0  0  0
    8.8779   47.6589   51.3300 H   0  0  0  0  0  0  0  0  0  0  0  0
    9.0013   45.9962   50.6185 H   0  0  0  0  0  0  0  0  0  0  0  0
    7.3500   45.1990   52.2430 H   0  0  0  0  0  0  0  0  0  0  0  0
    5.1257   47.5524   54.0744 H   0  0  0  0  0  0  0  0  0  0  0  0
    6.6512   45.3637   54.4445 H   0  0  0  0  0  0  0  0  0  0  0  0
    4.9495   45.5646   55.0597 H   0  0  0  0  0  0  0  0  0  0  0  0
    5.8190   44.0833   52.5381 H   0  0  0  0  0  0  0  0  0  0  0  0
    5.1875   43.3658   54.0715 H   0  0  0  0  0  0  0  0  0  0  0  0
    1.5315   42.9450   54.7375 H   0  0  0  0  0  0  0  0  0  0  0  0
   -0.9557   42.8029   54.8690 H   0  0  0  0  0  0  0  0  0  0  0  0
   -2.3267   42.8960   52.7874 H   0  0  0  0  0  0  0  0  0  0  0  0
    1.2774   43.2503   50.4204 H   0  0  0  0  0  0  0  0  0  0  0  0
    2.4520   45.6824   51.8922 H   0  0  0  0  0  0  0  0  0  0  0  0
    2.7483   46.0822   53.6230 H   0  0  0  0  0  0  0  0  0  0  0  0
    4.7614   46.3546   51.3316 H   0  0  0  0  0  0  0  0  0  0  0  0
    3.8749   47.6990   52.1651 H   0  0  0  0  0  0  0  0  0  0  0  0
  1  2  1  0
  2  3  1  0
  3  4  1  0
  4  5  1  0
  5  6  2  0
  5  7  1  0
  7  8  1  0
  8  9  1  0
  9 10  1  0
 10 11  1  0
 11 12  2  0
 11 13  1  0
 13 14  2  0
 14 15  1  0
 15 16  2  0
 16 17  1  0
 17 18  1  0
 17 19  2  0
 10 20  1  0
 20 21  1  0
 21  7  1  0
 19 13  1  0
  1 22  1  0
  1 23  1  0
  1 24  1  0
  2 25  1  0
  2 26  1  0
  3 27  1  0
  3 28  1  0
  4 29  1  0
  7 30  1  0
  8 31  1  0
  8 32  1  0
  9 33  1  0
  9 34  1  0
 14 35  1  0
 15 36  1  0
 16 37  1  0
 19 38  1  0
 20 39  1  0
 20 40  1  0
 21 41  1  0
 21 42  1  0
M  END
>  <meeko>  (5) 
{"is_sidechain": [false], "free_energy": -7.813, "intermolecular_energy": -9.279, "internal_energy": -0.344}

$$$$
