ligand_43_conformer_3_docked
     RDKit          3D

 55 58  0  0  0  0  0  0  0  0999 V2000
    7.0550   42.8270   49.4050 C   0  0  0  0  0  0  0  0  0  0  0  0
    6.4640   41.4850   49.8200 C   0  0  0  0  0  0  0  0  0  0  0  0
    4.9890   41.6060   50.0420 C   0  0  0  0  0  0  0  0  0  0  0  0
    4.0750   40.8310   49.4270 N   0  0  0  0  0  0  0  0  0  0  0  0
    2.9370   41.2060   49.9230 O   0  0  0  0  0  0  0  0  0  0  0  0
    3.1290   42.1570   50.8070 C   0  0  0  0  0  0  0  0  0  0  0  0
    2.0490   42.8130   51.5700 C   0  0  0  0  0  0  0  0  0  0  0  0
    0.8130   43.0830   50.9670 C   0  0  0  0  0  0  0  0  0  0  0  0
   -0.2040   43.7050   51.6910 C   0  0  0  0  0  0  0  0  0  0  0  0
   -0.0110   44.0620   53.0350 C   0  0  0  0  0  0  0  0  0  0  0  0
   -1.1420   44.7030   53.7950 C   0  0  0  0  0  0  0  0  0  0  0  0
    1.2320   43.7940   53.6570 C   0  0  0  0  0  0  0  0  0  0  0  0
    1.4520   44.1450   55.0390 N   0  0  0  0  0  0  0  0  0  0  0  0
    2.1630   45.3520   55.4630 C   0  0  0  0  0  0  0  0  0  0  0  0
    3.3750   45.5780   54.5990 C   0  0  0  0  0  0  0  0  0  0  0  0
    4.5260   44.7990   54.7910 C   0  0  0  0  0  0  0  0  0  0  0  0
    5.6440   44.9750   53.9720 C   0  0  0  0  0  0  0  0  0  0  0  0
    5.6330   45.9440   52.9560 C   0  0  0  0  0  0  0  0  0  0  0  0
    6.8020   46.1180   52.0700 C   0  0  0  0  0  0  0  0  0  0  0  0
    6.6270   46.0950   50.8220 O   0  0  0  0  0  0  0  0  0  0  0  0
    8.1260   46.3140   52.5970 N   0  0  0  0  0  0  0  0  0  0  0  0
    8.4030   46.9960   53.8530 C   0  0  0  0  0  0  0  0  0  0  0  0
    9.9200   47.0450   53.9690 C   0  0  0  0  0  0  0  0  0  0  0  0
   10.4590   46.7640   52.5680 C   0  0  0  0  0  0  0  0  0  0  0  0
    9.3240   46.0890   51.8070 C   0  0  0  0  0  0  0  0  0  0  0  0
    4.4750   46.7100   52.7510 C   0  0  0  0  0  0  0  0  0  0  0  0
    3.3550   46.5330   53.5700 C   0  0  0  0  0  0  0  0  0  0  0  0
    2.2520   43.1780   52.9090 C   0  0  0  0  0  0  0  0  0  0  0  0
    4.4370   42.4550   50.9330 N   0  0  0  0  0  0  0  0  0  0  0  0
    7.3110   43.4083   50.3030 H   0  0  0  0  0  0  0  0  0  0  0  0
    7.9623   42.6587   48.8062 H   0  0  0  0  0  0  0  0  0  0  0  0
    6.3183   43.3826   48.8062 H   0  0  0  0  0  0  0  0  0  0  0  0
    6.6509   40.7466   49.0264 H   0  0  0  0  0  0  0  0  0  0  0  0
    6.9390   41.1629   50.7584 H   0  0  0  0  0  0  0  0  0  0  0  0
    0.6440   42.8028   49.9168 H   0  0  0  0  0  0  0  0  0  0  0  0
   -1.1671   43.9180   51.2040 H   0  0  0  0  0  0  0  0  0  0  0  0
   -0.9620   44.6010   54.8754 H   0  0  0  0  0  0  0  0  0  0  0  0
   -1.2022   45.7695   53.5324 H   0  0  0  0  0  0  0  0  0  0  0  0
   -2.0879   44.2067   53.5324 H   0  0  0  0  0  0  0  0  0  0  0  0
    1.1930   43.4650   55.7890 H   0  0  0  0  0  0  0  0  0  0  0  0
    1.4902   46.2180   55.3772 H   0  0  0  0  0  0  0  0  0  0  0  0
    2.4871   45.2271   56.5067 H   0  0  0  0  0  0  0  0  0  0  0  0
    4.5482   44.0449   55.5915 H   0  0  0  0  0  0  0  0  0  0  0  0
    6.5373   44.3513   54.1239 H   0  0  0  0  0  0  0  0  0  0  0  0
    7.9865   48.0140   53.8367 H   0  0  0  0  0  0  0  0  0  0  0  0
    7.9470   46.4745   54.7074 H   0  0  0  0  0  0  0  0  0  0  0  0
   10.2452   48.0385   54.3114 H   0  0  0  0  0  0  0  0  0  0  0  0
   10.2921   46.3105   54.6985 H   0  0  0  0  0  0  0  0  0  0  0  0
   10.7447   47.7039   52.0731 H   0  0  0  0  0  0  0  0  0  0  0  0
   11.3551   46.1270   52.6021 H   0  0  0  0  0  0  0  0  0  0  0  0
    9.2135   46.5368   50.8083 H   0  0  0  0  0  0  0  0  0  0  0  0
    9.5168   45.0157   51.6625 H   0  0  0  0  0  0  0  0  0  0  0  0
    4.4480   47.4541   51.9413 H   0  0  0  0  0  0  0  0  0  0  0  0
    2.4551   47.1443   53.4073 H   0  0  0  0  0  0  0  0  0  0  0  0
    3.2249   42.9793   53.3822 H   0  0  0  0  0  0  0  0  0  0  0  0
  1  2  1  0
  2  3  1  0
  3  4  2  0
  4  5  1  0
  5  6  1  0
  6  7  1  0
  7  8  2  0
  8  9  1  0
  9 10  2  0
 10 11  1  0
 10 12  1  0
 12 13  1  0
 13 14  1  0
 14 15  1  0
 15 16  2  0
 16 17  1  0
 17 18  2  0
 18 19  1  0
 19 20  2  0
 19 21  1  0
 21 22  1  0
 22 23  1  0
 23 24  1  0
 24 25  1  0
 18 26  1  0
 26 27  2  0
 12 28  2  0
  6 29  2  0
 29  3  1  0
 28  7  1  0
 27 15  1  0
 25 21  1  0
  1 30  1  0
  1 31  1  0
  1 32  1  0
  2 33  1  0
  2 34  1  0
  8 35  1  0
  9 36  1  0
 11 37  1  0
 11 38  1  0
 11 39  1  0
 13 40  1  0
 14 41  1  0
 14 42  1  0
 16 43  1  0
 17 44  1  0
 22 45  1  0
 22 46  1  0
 23 47  1  0
 23 48  1  0
 24 49  1  0
 24 50  1  0
 25 51  1  0
 25 52  1  0
 26 53  1  0
 27 54  1  0
 28 55  1  0
M  END
>  <meeko>  (1) 
{"is_sidechain": [false], "free_energy": -9.626, "intermolecular_energy": -13.002, "internal_energy": -1.052}

$$$$
ligand_43_conformer_3_docked
     RDKit          3D

 55 58  0  0  0  0  0  0  0  0999 V2000
   -1.4290   49.8570   59.7290 C   0  0  0  0  0  0  0  0  0  0  0  0
   -0.9970   48.4970   60.2660 C   0  0  0  0  0  0  0  0  0  0  0  0
   -0.4100   47.6630   59.1720 C   0  0  0  0  0  0  0  0  0  0  0  0
    0.9130   47.4700   59.0090 N   0  0  0  0  0  0  0  0  0  0  0  0
    1.0060   46.6570   58.0020 O   0  0  0  0  0  0  0  0  0  0  0  0
   -0.1930   46.3500   57.5660 C   0  0  0  0  0  0  0  0  0  0  0  0
   -0.4580   45.4420   56.4330 C   0  0  0  0  0  0  0  0  0  0  0  0
   -1.7260   44.8750   56.2550 C   0  0  0  0  0  0  0  0  0  0  0  0
   -1.9720   44.0160   55.1840 C   0  0  0  0  0  0  0  0  0  0  0  0
   -0.9570   43.7130   54.2620 C   0  0  0  0  0  0  0  0  0  0  0  0
   -1.2670   42.8080   53.1000 C   0  0  0  0  0  0  0  0  0  0  0  0
    0.3290   44.2800   54.4280 C   0  0  0  0  0  0  0  0  0  0  0  0
    1.3860   43.9900   53.4900 N   0  0  0  0  0  0  0  0  0  0  0  0
    1.5590   44.7040   52.2230 C   0  0  0  0  0  0  0  0  0  0  0  0
    3.0220   44.9170   51.9370 C   0  0  0  0  0  0  0  0  0  0  0  0
    3.4160   45.8530   50.9690 C   0  0  0  0  0  0  0  0  0  0  0  0
    4.7710   46.0840   50.7210 C   0  0  0  0  0  0  0  0  0  0  0  0
    5.7540   45.3720   51.4280 C   0  0  0  0  0  0  0  0  0  0  0  0
    7.1880   45.6310   51.1890 C   0  0  0  0  0  0  0  0  0  0  0  0
    7.6780   45.3460   50.0630 O   0  0  0  0  0  0  0  0  0  0  0  0
    8.0320   46.1980   52.2060 N   0  0  0  0  0  0  0  0  0  0  0  0
    7.5630   47.1380   53.2140 C   0  0  0  0  0  0  0  0  0  0  0  0
    8.7960   47.5320   54.0150 C   0  0  0  0  0  0  0  0  0  0  0  0
    9.9980   47.1250   53.1660 C   0  0  0  0  0  0  0  0  0  0  0  0
    9.4810   46.0980   52.1670 C   0  0  0  0  0  0  0  0  0  0  0  0
    5.3590   44.4500   52.4100 C   0  0  0  0  0  0  0  0  0  0  0  0
    4.0030   44.2190   52.6590 C   0  0  0  0  0  0  0  0  0  0  0  0
    0.5630   45.1350   55.5220 C   0  0  0  0  0  0  0  0  0  0  0  0
   -1.1510   46.9650   58.2870 N   0  0  0  0  0  0  0  0  0  0  0  0
   -1.6435   50.5322   60.5705 H   0  0  0  0  0  0  0  0  0  0  0  0
   -0.6216   50.2819   59.1145 H   0  0  0  0  0  0  0  0  0  0  0  0
   -2.3336   49.7381   59.1145 H   0  0  0  0  0  0  0  0  0  0  0  0
   -0.2436   48.6420   61.0543 H   0  0  0  0  0  0  0  0  0  0  0  0
   -1.8782   47.9796   60.6733 H   0  0  0  0  0  0  0  0  0  0  0  0
   -2.5334   45.1086   56.9646 H   0  0  0  0  0  0  0  0  0  0  0  0
   -2.9706   43.5716   55.0604 H   0  0  0  0  0  0  0  0  0  0  0  0
   -1.6020   41.8301   53.4761 H   0  0  0  0  0  0  0  0  0  0  0  0
   -2.0625   43.2573   52.4873 H   0  0  0  0  0  0  0  0  0  0  0  0
   -0.3631   42.6752   52.4873 H   0  0  0  0  0  0  0  0  0  0  0  0
    2.0040   43.1640   53.6520 H   0  0  0  0  0  0  0  0  0  0  0  0
    1.1129   44.1127   51.4097 H   0  0  0  0  0  0  0  0  0  0  0  0
    1.0627   45.6831   52.2941 H   0  0  0  0  0  0  0  0  0  0  0  0
    2.6538   46.4079   50.4024 H   0  0  0  0  0  0  0  0  0  0  0  0
    5.0700   46.8277   49.9677 H   0  0  0  0  0  0  0  0  0  0  0  0
    7.1175   48.0227   52.7357 H   0  0  0  0  0  0  0  0  0  0  0  0
    6.7876   46.6929   53.8548 H   0  0  0  0  0  0  0  0  0  0  0  0
    8.8046   48.6173   54.1940 H   0  0  0  0  0  0  0  0  0  0  0  0
    8.8120   47.0388   54.9981 H   0  0  0  0  0  0  0  0  0  0  0  0
   10.4061   47.9994   52.6380 H   0  0  0  0  0  0  0  0  0  0  0  0
   10.8064   46.7107   53.7863 H   0  0  0  0  0  0  0  0  0  0  0  0
    9.8531   46.3257   51.1572 H   0  0  0  0  0  0  0  0  0  0  0  0
    9.8224   45.0830   52.4184 H   0  0  0  0  0  0  0  0  0  0  0  0
    6.1212   43.9059   52.9871 H   0  0  0  0  0  0  0  0  0  0  0  0
    3.7034   43.4873   53.4238 H   0  0  0  0  0  0  0  0  0  0  0  0
    1.5635   45.5694   55.6645 H   0  0  0  0  0  0  0  0  0  0  0  0
  1  2  1  0
  2  3  1  0
  3  4  2  0
  4  5  1  0
  5  6  1  0
  6  7  1  0
  7  8  2  0
  8  9  1  0
  9 10  2  0
 10 11  1  0
 10 12  1  0
 12 13  1  0
 13 14  1  0
 14 15  1  0
 15 16  2  0
 16 17  1  0
 17 18  2  0
 18 19  1  0
 19 20  2  0
 19 21  1  0
 21 22  1  0
 22 23  1  0
 23 24  1  0
 24 25  1  0
 18 26  1  0
 26 27  2  0
 12 28  2  0
  6 29  2  0
 29  3  1  0
 28  7  1  0
 27 15  1  0
 25 21  1  0
  1 30  1  0
  1 31  1  0
  1 32  1  0
  2 33  1  0
  2 34  1  0
  8 35  1  0
  9 36  1  0
 11 37  1  0
 11 38  1  0
 11 39  1  0
 13 40  1  0
 14 41  1  0
 14 42  1  0
 16 43  1  0
 17 44  1  0
 22 45  1  0
 22 46  1  0
 23 47  1  0
 23 48  1  0
 24 49  1  0
 24 50  1  0
 25 51  1  0
 25 52  1  0
 26 53  1  0
 27 54  1  0
 28 55  1  0
M  END
>  <meeko>  (2) 
{"is_sidechain": [false], "free_energy": -8.823, "intermolecular_energy": -12.262, "internal_energy": -0.708}

$$$$
ligand_43_conformer_3_docked
     RDKit          3D

 55 58  0  0  0  0  0  0  0  0999 V2000
    3.6140   39.9030   48.4690 C   0  0  0  0  0  0  0  0  0  0  0  0
    3.6750   40.7160   49.7570 C   0  0  0  0  0  0  0  0  0  0  0  0
    4.8160   41.6830   49.7140 C   0  0  0  0  0  0  0  0  0  0  0  0
    5.7630   41.6790   48.7570 N   0  0  0  0  0  0  0  0  0  0  0  0
    6.5260   42.6890   49.0420 O   0  0  0  0  0  0  0  0  0  0  0  0
    6.0750   43.2980   50.1140 C   0  0  0  0  0  0  0  0  0  0  0  0
    6.7000   44.4910   50.7170 C   0  0  0  0  0  0  0  0  0  0  0  0
    7.9060   44.9960   50.2120 C   0  0  0  0  0  0  0  0  0  0  0  0
    8.4950   46.1220   50.7860 C   0  0  0  0  0  0  0  0  0  0  0  0
    7.8850   46.7750   51.8710 C   0  0  0  0  0  0  0  0  0  0  0  0
    8.5320   48.0070   52.4450 C   0  0  0  0  0  0  0  0  0  0  0  0
    6.6670   46.2760   52.3900 C   0  0  0  0  0  0  0  0  0  0  0  0
    6.0180   46.9330   53.4980 N   0  0  0  0  0  0  0  0  0  0  0  0
    4.7560   47.6660   53.3770 C   0  0  0  0  0  0  0  0  0  0  0  0
    3.5910   46.7580   53.6700 C   0  0  0  0  0  0  0  0  0  0  0  0
    2.5520   46.6300   52.7370 C   0  0  0  0  0  0  0  0  0  0  0  0
    1.4850   45.7630   52.9830 C   0  0  0  0  0  0  0  0  0  0  0  0
    1.4320   45.0220   54.1740 C   0  0  0  0  0  0  0  0  0  0  0  0
    0.3200   44.0850   54.4290 C   0  0  0  0  0  0  0  0  0  0  0  0
    0.3400   42.9520   53.8770 O   0  0  0  0  0  0  0  0  0  0  0  0
   -0.7790   44.4340   55.2900 N   0  0  0  0  0  0  0  0  0  0  0  0
   -0.6550   45.3160   56.4410 C   0  0  0  0  0  0  0  0  0  0  0  0
   -2.0290   45.3340   57.0950 C   0  0  0  0  0  0  0  0  0  0  0  0
   -2.7790   44.1280   56.5360 C   0  0  0  0  0  0  0  0  0  0  0  0
   -2.0540   43.7380   55.2530 C   0  0  0  0  0  0  0  0  0  0  0  0
    2.4820   45.1360   55.0990 C   0  0  0  0  0  0  0  0  0  0  0  0
    3.5510   46.0020   54.8520 C   0  0  0  0  0  0  0  0  0  0  0  0
    6.0930   45.1310   51.8070 C   0  0  0  0  0  0  0  0  0  0  0  0
    4.9670   42.6970   50.5910 N   0  0  0  0  0  0  0  0  0  0  0  0
    3.5338   38.8336   48.7139 H   0  0  0  0  0  0  0  0  0  0  0  0
    2.7365   40.2116   47.8818 H   0  0  0  0  0  0  0  0  0  0  0  0
    4.5277   40.0772   47.8818 H   0  0  0  0  0  0  0  0  0  0  0  0
    2.7338   41.2722   49.8787 H   0  0  0  0  0  0  0  0  0  0  0  0
    3.8227   40.0296   50.6038 H   0  0  0  0  0  0  0  0  0  0  0  0
    8.3908   44.5010   49.3576 H   0  0  0  0  0  0  0  0  0  0  0  0
    9.4462   46.5029   50.3859 H   0  0  0  0  0  0  0  0  0  0  0  0
    8.5057   47.9570   53.5435 H   0  0  0  0  0  0  0  0  0  0  0  0
    9.5767   48.0646   52.1055 H   0  0  0  0  0  0  0  0  0  0  0  0
    7.9864   48.8997   52.1055 H   0  0  0  0  0  0  0  0  0  0  0  0
    6.5090   46.9920   54.4190 H   0  0  0  0  0  0  0  0  0  0  0  0
    4.7526   48.5021   54.0918 H   0  0  0  0  0  0  0  0  0  0  0  0
    4.6618   48.0468   52.3493 H   0  0  0  0  0  0  0  0  0  0  0  0
    2.5775   47.2157   51.8062 H   0  0  0  0  0  0  0  0  0  0  0  0
    0.6814   45.6602   52.2390 H   0  0  0  0  0  0  0  0  0  0  0  0
    0.0986   44.9281   57.1422 H   0  0  0  0  0  0  0  0  0  0  0  0
   -0.3320   46.3254   56.1464 H   0  0  0  0  0  0  0  0  0  0  0  0
   -1.9329   45.2511   58.1877 H   0  0  0  0  0  0  0  0  0  0  0  0
   -2.5625   46.2725   56.8839 H   0  0  0  0  0  0  0  0  0  0  0  0
   -2.7556   43.2965   57.2558 H   0  0  0  0  0  0  0  0  0  0  0  0
   -3.8360   44.3650   56.3446 H   0  0  0  0  0  0  0  0  0  0  0  0
   -1.8954   42.6500   55.2185 H   0  0  0  0  0  0  0  0  0  0  0  0
   -2.6371   44.0095   54.3606 H   0  0  0  0  0  0  0  0  0  0  0  0
    2.4633   44.5403   56.0235 H   0  0  0  0  0  0  0  0  0  0  0  0
    4.3644   46.0915   55.5871 H   0  0  0  0  0  0  0  0  0  0  0  0
    5.1522   44.7313   52.2133 H   0  0  0  0  0  0  0  0  0  0  0  0
  1  2  1  0
  2  3  1  0
  3  4  2  0
  4  5  1  0
  5  6  1  0
  6  7  1  0
  7  8  2  0
  8  9  1  0
  9 10  2  0
 10 11  1  0
 10 12  1  0
 12 13  1  0
 13 14  1  0
 14 15  1  0
 15 16  2  0
 16 17  1  0
 17 18  2  0
 18 19  1  0
 19 20  2  0
 19 21  1  0
 21 22  1  0
 22 23  1  0
 23 24  1  0
 24 25  1  0
 18 26  1  0
 26 27  2  0
 12 28  2  0
  6 29  2  0
 29  3  1  0
 28  7  1  0
 27 15  1  0
 25 21  1  0
  1 30  1  0
  1 31  1  0
  1 32  1  0
  2 33  1  0
  2 34  1  0
  8 35  1  0
  9 36  1  0
 11 37  1  0
 11 38  1  0
 11 39  1  0
 13 40  1  0
 14 41  1  0
 14 42  1  0
 16 43  1  0
 17 44  1  0
 22 45  1  0
 22 46  1  0
 23 47  1  0
 23 48  1  0
 24 49  1  0
 24 50  1  0
 25 51  1  0
 25 52  1  0
 26 53  1  0
 27 54  1  0
 28 55  1  0
M  END
>  <meeko>  (3) 
{"is_sidechain": [false], "free_energy": -8.818, "intermolecular_energy": -11.962, "internal_energy": -1.001}

$$$$
ligand_43_conformer_3_docked
     RDKit          3D

 55 58  0  0  0  0  0  0  0  0999 V2000
   10.1260   47.1480   54.6220 C   0  0  0  0  0  0  0  0  0  0  0  0
    9.8570   47.1700   53.1220 C   0  0  0  0  0  0  0  0  0  0  0  0
    8.3880   47.1110   52.8500 C   0  0  0  0  0  0  0  0  0  0  0  0
    7.5880   48.1940   52.8270 N   0  0  0  0  0  0  0  0  0  0  0  0
    6.4180   47.7340   52.5070 O   0  0  0  0  0  0  0  0  0  0  0  0
    6.4840   46.4350   52.3300 C   0  0  0  0  0  0  0  0  0  0  0  0
    5.3350   45.5890   51.9530 C   0  0  0  0  0  0  0  0  0  0  0  0
    4.0420   46.1240   51.9000 C   0  0  0  0  0  0  0  0  0  0  0  0
    2.9580   45.3200   51.5460 C   0  0  0  0  0  0  0  0  0  0  0  0
    3.1460   43.9650   51.2280 C   0  0  0  0  0  0  0  0  0  0  0  0
    1.9590   43.1350   50.8190 C   0  0  0  0  0  0  0  0  0  0  0  0
    4.4480   43.4110   51.2770 C   0  0  0  0  0  0  0  0  0  0  0  0
    4.6670   42.0240   50.9480 N   0  0  0  0  0  0  0  0  0  0  0  0
    5.7180   41.5670   50.0360 C   0  0  0  0  0  0  0  0  0  0  0  0
    5.1570   41.3490   48.6560 C   0  0  0  0  0  0  0  0  0  0  0  0
    5.7840   41.9340   47.5450 C   0  0  0  0  0  0  0  0  0  0  0  0
    5.2930   41.7100   46.2570 C   0  0  0  0  0  0  0  0  0  0  0  0
    4.1570   40.9090   46.0600 C   0  0  0  0  0  0  0  0  0  0  0  0
    3.6470   40.6470   44.6990 C   0  0  0  0  0  0  0  0  0  0  0  0
    2.5030   41.0720   44.3860 O   0  0  0  0  0  0  0  0  0  0  0  0
    4.4260   39.9250   43.7290 N   0  0  0  0  0  0  0  0  0  0  0  0
    5.8790   39.9590   43.6710 C   0  0  0  0  0  0  0  0  0  0  0  0
    6.2630   39.1290   42.4530 C   0  0  0  0  0  0  0  0  0  0  0  0
    4.9940   38.9990   41.6150 C   0  0  0  0  0  0  0  0  0  0  0  0
    3.8340   39.3060   42.5540 C   0  0  0  0  0  0  0  0  0  0  0  0
    3.5400   40.3090   47.1690 C   0  0  0  0  0  0  0  0  0  0  0  0
    4.0330   40.5320   48.4590 C   0  0  0  0  0  0  0  0  0  0  0  0
    5.5280   44.2340   51.6490 C   0  0  0  0  0  0  0  0  0  0  0  0
    7.7340   45.9740   52.5320 N   0  0  0  0  0  0  0  0  0  0  0  0
    9.1734   47.2259   55.1665 H   0  0  0  0  0  0  0  0  0  0  0  0
   10.6262   46.2060   54.8910 H   0  0  0  0  0  0  0  0  0  0  0  0
   10.7726   47.9963   54.8910 H   0  0  0  0  0  0  0  0  0  0  0  0
   10.2668   48.0971   52.6948 H   0  0  0  0  0  0  0  0  0  0  0  0
   10.3382   46.2941   52.6625 H   0  0  0  0  0  0  0  0  0  0  0  0
    3.8798   47.1854   52.1391 H   0  0  0  0  0  0  0  0  0  0  0  0
    1.9466   45.7515   51.5157 H   0  0  0  0  0  0  0  0  0  0  0  0
    1.4389   42.7713   51.7174 H   0  0  0  0  0  0  0  0  0  0  0  0
    1.2706   43.7496   50.2203 H   0  0  0  0  0  0  0  0  0  0  0  0
    2.3000   42.2775   50.2203 H   0  0  0  0  0  0  0  0  0  0  0  0
    3.9880   41.3030   51.2800 H   0  0  0  0  0  0  0  0  0  0  0  0
    6.5122   42.3266   49.9886 H   0  0  0  0  0  0  0  0  0  0  0  0
    6.1261   40.6163   50.4096 H   0  0  0  0  0  0  0  0  0  0  0  0
    6.6677   42.5729   47.6897 H   0  0  0  0  0  0  0  0  0  0  0  0
    5.7991   42.1636   45.3921 H   0  0  0  0  0  0  0  0  0  0  0  0
    6.2341   40.9939   43.5572 H   0  0  0  0  0  0  0  0  0  0  0  0
    6.3312   39.5617   44.5917 H   0  0  0  0  0  0  0  0  0  0  0  0
    7.0507   39.6370   41.8773 H   0  0  0  0  0  0  0  0  0  0  0  0
    6.6558   38.1438   42.7446 H   0  0  0  0  0  0  0  0  0  0  0  0
    5.0113   39.7173   40.7821 H   0  0  0  0  0  0  0  0  0  0  0  0
    4.9021   37.9936   41.1783 H   0  0  0  0  0  0  0  0  0  0  0  0
    3.1253   39.9967   42.0737 H   0  0  0  0  0  0  0  0  0  0  0  0
    3.2742   38.3959   42.8155 H   0  0  0  0  0  0  0  0  0  0  0  0
    2.6640   39.6599   47.0228 H   0  0  0  0  0  0  0  0  0  0  0  0
    3.5375   40.0649   49.3229 H   0  0  0  0  0  0  0  0  0  0  0  0
    6.5402   43.8068   51.7020 H   0  0  0  0  0  0  0  0  0  0  0  0
  1  2  1  0
  2  3  1  0
  3  4  2  0
  4  5  1  0
  5  6  1  0
  6  7  1  0
  7  8  2  0
  8  9  1  0
  9 10  2  0
 10 11  1  0
 10 12  1  0
 12 13  1  0
 13 14  1  0
 14 15  1  0
 15 16  2  0
 16 17  1  0
 17 18  2  0
 18 19  1  0
 19 20  2  0
 19 21  1  0
 21 22  1  0
 22 23  1  0
 23 24  1  0
 24 25  1  0
 18 26  1  0
 26 27  2  0
 12 28  2  0
  6 29  2  0
 29  3  1  0
 28  7  1  0
 27 15  1  0
 25 21  1  0
  1 30  1  0
  1 31  1  0
  1 32  1  0
  2 33  1  0
  2 34  1  0
  8 35  1  0
  9 36  1  0
 11 37  1  0
 11 38  1  0
 11 39  1  0
 13 40  1  0
 14 41  1  0
 14 42  1  0
 16 43  1  0
 17 44  1  0
 22 45  1  0
 22 46  1  0
 23 47  1  0
 23 48  1  0
 24 49  1  0
 24 50  1  0
 25 51  1  0
 25 52  1  0
 26 53  1  0
 27 54  1  0
 28 55  1  0
M  END
>  <meeko>  (4) 
{"is_sidechain": [false], "free_energy": -8.763, "intermolecular_energy": -12.181, "internal_energy": -0.708}

$$$$
ligand_43_conformer_3_docked
     RDKit          3D

 55 58  0  0  0  0  0  0  0  0999 V2000
   -1.0850   35.1480   47.5840 C   0  0  0  0  0  0  0  0  0  0  0  0
   -0.9870   36.3230   46.6170 C   0  0  0  0  0  0  0  0  0  0  0  0
    0.3950   36.8950   46.6230 C   0  0  0  0  0  0  0  0  0  0  0  0
    1.4810   36.2200   47.0460 N   0  0  0  0  0  0  0  0  0  0  0  0
    2.4740   37.0290   46.8420 O   0  0  0  0  0  0  0  0  0  0  0  0
    2.0350   38.1460   46.3110 C   0  0  0  0  0  0  0  0  0  0  0  0
    2.8960   39.2880   45.9440 C   0  0  0  0  0  0  0  0  0  0  0  0
    2.8020   39.8730   44.6750 C   0  0  0  0  0  0  0  0  0  0  0  0
    3.6200   40.9500   44.3320 C   0  0  0  0  0  0  0  0  0  0  0  0
    4.5420   41.4700   45.2540 C   0  0  0  0  0  0  0  0  0  0  0  0
    5.3860   42.6540   44.8610 C   0  0  0  0  0  0  0  0  0  0  0  0
    4.6470   40.8900   46.5410 C   0  0  0  0  0  0  0  0  0  0  0  0
    5.5820   41.4110   47.5080 N   0  0  0  0  0  0  0  0  0  0  0  0
    5.5020   41.1290   48.9420 C   0  0  0  0  0  0  0  0  0  0  0  0
    5.7070   42.3900   49.7380 C   0  0  0  0  0  0  0  0  0  0  0  0
    6.7300   43.2820   49.3840 C   0  0  0  0  0  0  0  0  0  0  0  0
    6.9060   44.4730   50.0930 C   0  0  0  0  0  0  0  0  0  0  0  0
    6.0710   44.7830   51.1780 C   0  0  0  0  0  0  0  0  0  0  0  0
    6.2350   46.0520   51.9150 C   0  0  0  0  0  0  0  0  0  0  0  0
    5.2130   46.7450   52.1680 O   0  0  0  0  0  0  0  0  0  0  0  0
    7.5280   46.5090   52.3510 N   0  0  0  0  0  0  0  0  0  0  0  0
    8.6140   45.6190   52.7310 C   0  0  0  0  0  0  0  0  0  0  0  0
    9.7460   46.5250   53.1970 C   0  0  0  0  0  0  0  0  0  0  0  0
    9.1120   47.8870   53.4630 C   0  0  0  0  0  0  0  0  0  0  0  0
    7.7900   47.8940   52.7060 C   0  0  0  0  0  0  0  0  0  0  0  0
    5.0350   43.9000   51.5190 C   0  0  0  0  0  0  0  0  0  0  0  0
    4.8570   42.7080   50.8090 C   0  0  0  0  0  0  0  0  0  0  0  0
    3.8230   39.7950   46.8660 C   0  0  0  0  0  0  0  0  0  0  0  0
    0.6980   38.1170   46.1390 N   0  0  0  0  0  0  0  0  0  0  0  0
   -1.0539   35.5209   48.6184 H   0  0  0  0  0  0  0  0  0  0  0  0
   -2.0309   34.6124   47.4156 H   0  0  0  0  0  0  0  0  0  0  0  0
   -0.2409   34.4631   47.4156 H   0  0  0  0  0  0  0  0  0  0  0  0
   -1.2308   35.9771   45.6017 H   0  0  0  0  0  0  0  0  0  0  0  0
   -1.6953   37.1029   46.9332 H   0  0  0  0  0  0  0  0  0  0  0  0
    2.0790   39.4811   43.9444 H   0  0  0  0  0  0  0  0  0  0  0  0
    3.5417   41.3959   43.3295 H   0  0  0  0  0  0  0  0  0  0  0  0
    5.7485   43.1626   45.7665 H   0  0  0  0  0  0  0  0  0  0  0  0
    6.2443   42.3107   44.2647 H   0  0  0  0  0  0  0  0  0  0  0  0
    4.7816   43.3534   44.2647 H   0  0  0  0  0  0  0  0  0  0  0  0
    6.2940   42.1140   47.2060 H   0  0  0  0  0  0  0  0  0  0  0  0
    4.5114   40.7110   49.1743 H   0  0  0  0  0  0  0  0  0  0  0  0
    6.2889   40.4078   49.2078 H   0  0  0  0  0  0  0  0  0  0  0  0
    7.3976   43.0424   48.5432 H   0  0  0  0  0  0  0  0  0  0  0  0
    7.7033   45.1716   49.7993 H   0  0  0  0  0  0  0  0  0  0  0  0
    8.2961   44.9524   53.5462 H   0  0  0  0  0  0  0  0  0  0  0  0
    8.9258   44.9783   51.8929 H   0  0  0  0  0  0  0  0  0  0  0  0
   10.1991   46.1280   54.1174 H   0  0  0  0  0  0  0  0  0  0  0  0
   10.5444   46.5925   52.4433 H   0  0  0  0  0  0  0  0  0  0  0  0
    8.9355   48.0219   54.5403 H   0  0  0  0  0  0  0  0  0  0  0  0
    9.7677   48.7063   53.1332 H   0  0  0  0  0  0  0  0  0  0  0  0
    6.9847   48.2841   53.3457 H   0  0  0  0  0  0  0  0  0  0  0  0
    7.8376   48.5376   51.8152 H   0  0  0  0  0  0  0  0  0  0  0  0
    4.3583   44.1469   52.3503 H   0  0  0  0  0  0  0  0  0  0  0  0
    4.0484   42.0176   51.0908 H   0  0  0  0  0  0  0  0  0  0  0  0
    3.9080   39.3299   47.8592 H   0  0  0  0  0  0  0  0  0  0  0  0
  1  2  1  0
  2  3  1  0
  3  4  2  0
  4  5  1  0
  5  6  1  0
  6  7  1  0
  7  8  2  0
  8  9  1  0
  9 10  2  0
 10 11  1  0
 10 12  1  0
 12 13  1  0
 13 14  1  0
 14 15  1  0
 15 16  2  0
 16 17  1  0
 17 18  2  0
 18 19  1  0
 19 20  2  0
 19 21  1  0
 21 22  1  0
 22 23  1  0
 23 24  1  0
 24 25  1  0
 18 26  1  0
 26 27  2  0
 12 28  2  0
  6 29  2  0
 29  3  1  0
 28  7  1  0
 27 15  1  0
 25 21  1  0
  1 30  1  0
  1 31  1  0
  1 32  1  0
  2 33  1  0
  2 34  1  0
  8 35  1  0
  9 36  1  0
 11 37  1  0
 11 38  1  0
 11 39  1  0
 13 40  1  0
 14 41  1  0
 14 42  1  0
 16 43  1  0
 17 44  1  0
 22 45  1  0
 22 46  1  0
 23 47  1  0
 23 48  1  0
 24 49  1  0
 24 50  1  0
 25 51  1  0
 25 52  1  0
 26 53  1  0
 27 54  1  0
 28 55  1  0
M  END
>  <meeko>  (5) 
{"is_sidechain": [false], "free_energy": -8.434, "intermolecular_energy": -11.841, "internal_energy": -0.603}

$$$$
