MODEL 1
REMARK VINA RESULT:    -7.168      0.000      0.000
REMARK INTER + INTRA:         -12.368
REMARK INTER:                 -11.358
REMARK INTRA:                  -1.010
REMARK UNBOUND:                -1.010
REMARK SMILES c1ccc(-c2noc(C3CCN(C[C@H]4CCCCNC4)CC3)n2)cc1
REMARK SMILES IDX 13 1 12 2 9 3 10 4 22 5 11 6 21 7 8 8 5 9 6 10 23 11 7 12
REMARK SMILES IDX 4 13 1 14 2 15 25 16 3 17 24 18 14 19 15 20 16 21 17 22
REMARK SMILES IDX 20 24 19 25 18 27
REMARK H PARENT 19 26
REMARK Flexibility Score:   65.900
ROOT
ATOM      1  C   UNL     1       2.675  42.817  51.321  1.00  0.00     0.089 C 
ENDROOT
BRANCH   1   2
ATOM      2  N   UNL     1       2.575  43.982  52.233  1.00  0.00    -0.303 NA
ATOM      3  C   UNL     1       2.375  46.112  53.914  1.00  0.00     0.081 C 
ATOM      4  C   UNL     1       1.596  44.866  54.377  1.00  0.00     0.029 C 
ATOM      5  C   UNL     1       2.070  46.416  52.432  1.00  0.00     0.029 C 
ATOM      6  C   UNL     1       1.793  43.646  53.447  1.00  0.00     0.085 C 
ATOM      7  C   UNL     1       1.985  45.150  51.551  1.00  0.00     0.085 C 
BRANCH   3   8
ATOM      8  C   UNL     1       3.861  45.986  54.149  1.00  0.00     0.230 A 
ATOM      9  C   UNL     1       5.941  46.134  53.995  1.00  0.00     0.202 A 
ATOM     10  N   UNL     1       5.680  45.450  55.127  1.00  0.00    -0.057 NA
ATOM     11  N   UNL     1       4.815  46.493  53.343  1.00  0.00    -0.191 NA
ATOM     12  O   UNL     1       4.385  45.379  55.185  1.00  0.00    -0.339 OA
BRANCH   9  13
ATOM     13  C   UNL     1       7.302  46.482  53.534  1.00  0.00     0.023 A 
ATOM     14  C   UNL     1       9.878  47.177  52.654  1.00  0.00     0.000 A 
ATOM     15  C   UNL     1       9.588  47.161  54.020  1.00  0.00     0.001 A 
ATOM     16  C   UNL     1       8.889  46.845  51.725  1.00  0.00     0.001 A 
ATOM     17  C   UNL     1       8.307  46.816  54.461  1.00  0.00     0.012 A 
ATOM     18  C   UNL     1       7.607  46.498  52.161  1.00  0.00     0.012 A 
ENDBRANCH   9  13
ENDBRANCH   3   8
ENDBRANCH   1   2
BRANCH   1  19
ATOM     19  C   UNL     1       4.086  42.195  51.395  1.00  0.00     0.017 C 
BRANCH  19  20
ATOM     20  C   UNL     1       4.449  41.441  50.090  1.00  0.00     0.006 C 
BRANCH  20  21
ATOM     21  C   UNL     1       5.941  41.432  49.703  1.00  0.00     0.002 C 
BRANCH  21  22
ATOM     22  C   UNL     1       6.481  42.711  49.039  1.00  0.00     0.015 CG0
ATOM     23  G   UNL     1       6.609  43.937  49.969  1.00  0.00     0.000 G0
ENDBRANCH  21  22
ENDBRANCH  20  21
ENDBRANCH  19  20
BRANCH  19  24
ATOM     24  C   UNL     1       5.154  43.234  51.834  1.00  0.00     0.085 C 
BRANCH  24  25
ATOM     25  N   UNL     1       5.405  44.221  50.773  1.00  0.00    -0.316 NA
ATOM     26  H   UNL     1       4.586  44.225  50.122  1.00  0.00     0.122 HD
BRANCH  25  27
ATOM     27  C   UNL     1       6.613  43.932  49.975  1.00  0.00     0.081 CG0
ATOM     28  G   UNL     1       6.490  42.717  49.030  1.00  0.00     0.000 G0
ENDBRANCH  25  27
ENDBRANCH  24  25
ENDBRANCH  19  24
ENDBRANCH   1  19
TORSDOF 4
ENDMDL
MODEL 2
REMARK VINA RESULT:    -6.620      1.520      5.155
REMARK INTER + INTRA:         -11.500
REMARK INTER:                 -10.988
REMARK INTRA:                  -0.512
REMARK UNBOUND:                -1.010
REMARK SMILES c1ccc(-c2noc(C3CCN(C[C@H]4CCCCNC4)CC3)n2)cc1
REMARK SMILES IDX 13 1 12 2 9 3 10 4 22 5 11 6 21 7 8 8 5 9 6 10 23 11 7 12
REMARK SMILES IDX 4 13 1 14 2 15 25 16 3 17 24 18 14 19 15 20 16 21 17 22
REMARK SMILES IDX 20 24 19 25 18 27
REMARK H PARENT 19 26
REMARK Flexibility Score:   65.900
ROOT
ATOM      1  C   UNL     1       8.857  45.066  50.387  1.00  0.00     0.089 C 
ENDROOT
BRANCH   1   2
ATOM      2  N   UNL     1       8.766  46.073  51.471  1.00  0.00    -0.303 NA
ATOM      3  C   UNL     1       8.601  47.936  53.446  1.00  0.00     0.081 C 
ATOM      4  C   UNL     1       8.402  48.502  52.027  1.00  0.00     0.029 C 
ATOM      5  C   UNL     1       9.855  47.038  53.496  1.00  0.00     0.029 C 
ATOM      6  C   UNL     1       8.419  47.410  50.931  1.00  0.00     0.085 C 
ATOM      7  C   UNL     1      10.019  46.144  52.247  1.00  0.00     0.085 C 
BRANCH   3   8
ATOM      8  C   UNL     1       7.384  47.201  53.953  1.00  0.00     0.230 A 
ATOM      9  C   UNL     1       5.448  46.456  54.211  1.00  0.00     0.202 A 
ATOM     10  N   UNL     1       6.221  45.868  55.145  1.00  0.00    -0.057 NA
ATOM     11  N   UNL     1       6.145  47.311  53.434  1.00  0.00    -0.191 NA
ATOM     12  O   UNL     1       7.409  46.355  54.953  1.00  0.00    -0.339 OA
BRANCH   9  13
ATOM     13  C   UNL     1       4.006  46.176  54.035  1.00  0.00     0.023 A 
ATOM     14  C   UNL     1       1.276  45.615  53.680  1.00  0.00     0.000 A 
ATOM     15  C   UNL     1       1.952  45.116  54.796  1.00  0.00     0.001 A 
ATOM     16  C   UNL     1       1.957  46.395  52.741  1.00  0.00     0.001 A 
ATOM     17  C   UNL     1       3.311  45.394  54.975  1.00  0.00     0.012 A 
ATOM     18  C   UNL     1       3.315  46.675  52.917  1.00  0.00     0.012 A 
ENDBRANCH   9  13
ENDBRANCH   3   8
ENDBRANCH   1   2
BRANCH   1  19
ATOM     19  C   UNL     1       7.454  44.531  50.030  1.00  0.00     0.017 C 
BRANCH  19  20
ATOM     20  C   UNL     1       7.527  43.136  49.356  1.00  0.00     0.006 C 
BRANCH  20  21
ATOM     21  C   UNL     1       6.179  42.509  48.945  1.00  0.00     0.002 C 
BRANCH  21  22
ATOM     22  C   UNL     1       5.345  41.883  50.076  1.00  0.00     0.015 CG0
ATOM     23  G   UNL     1       4.700  42.886  51.057  1.00  0.00     0.000 G0
ENDBRANCH  21  22
ENDBRANCH  20  21
ENDBRANCH  19  20
BRANCH  19  24
ATOM     24  C   UNL     1       6.486  44.589  51.243  1.00  0.00     0.085 C 
BRANCH  24  25
ATOM     25  N   UNL     1       5.102  44.306  50.835  1.00  0.00    -0.316 NA
ATOM     26  H   UNL     1       4.460  44.914  51.394  1.00  0.00     0.122 HD
BRANCH  25  27
ATOM     27  C   UNL     1       4.699  42.903  51.054  1.00  0.00     0.081 CG0
ATOM     28  G   UNL     1       5.334  41.886  50.081  1.00  0.00     0.000 G0
ENDBRANCH  25  27
ENDBRANCH  24  25
ENDBRANCH  19  24
ENDBRANCH   1  19
TORSDOF 4
ENDMDL
MODEL 3
REMARK VINA RESULT:    -6.281      2.393      4.656
REMARK INTER + INTRA:         -10.963
REMARK INTER:                 -10.200
REMARK INTRA:                  -0.763
REMARK UNBOUND:                -1.010
REMARK SMILES c1ccc(-c2noc(C3CCN(C[C@H]4CCCCNC4)CC3)n2)cc1
REMARK SMILES IDX 13 1 12 2 9 3 10 4 22 5 11 6 21 7 8 8 5 9 6 10 23 11 7 12
REMARK SMILES IDX 4 13 1 14 2 15 25 16 3 17 24 18 14 19 15 20 16 21 17 22
REMARK SMILES IDX 20 24 19 25 18 27
REMARK H PARENT 19 26
REMARK Flexibility Score:   65.900
ROOT
ATOM      1  C   UNL     1       2.224  45.675  54.959  1.00  0.00     0.089 C 
ENDROOT
BRANCH   1   2
ATOM      2  N   UNL     1       1.820  44.847  53.797  1.00  0.00    -0.303 NA
ATOM      3  C   UNL     1       1.066  43.343  51.660  1.00  0.00     0.081 C 
ATOM      4  C   UNL     1       0.734  44.841  51.526  1.00  0.00     0.029 C 
ATOM      5  C   UNL     1       0.604  42.809  53.032  1.00  0.00     0.029 C 
ATOM      6  C   UNL     1       1.246  45.684  52.717  1.00  0.00     0.085 C 
ATOM      7  C   UNL     1       0.864  43.795  54.192  1.00  0.00     0.085 C 
BRANCH   3   8
ATOM      8  C   UNL     1       2.530  43.050  51.428  1.00  0.00     0.230 A 
ATOM      9  C   UNL     1       4.550  43.189  50.909  1.00  0.00     0.202 A 
ATOM     10  N   UNL     1       4.372  41.975  51.464  1.00  0.00    -0.057 NA
ATOM     11  N   UNL     1       3.407  43.905  50.864  1.00  0.00    -0.191 NA
ATOM     12  O   UNL     1       3.111  41.927  51.770  1.00  0.00    -0.339 OA
BRANCH   9  13
ATOM     13  C   UNL     1       5.854  43.696  50.431  1.00  0.00     0.023 A 
ATOM     14  C   UNL     1       8.348  44.646  49.552  1.00  0.00     0.000 A 
ATOM     15  C   UNL     1       7.890  43.395  49.132  1.00  0.00     0.001 A 
ATOM     16  C   UNL     1       7.566  45.426  50.407  1.00  0.00     0.001 A 
ATOM     17  C   UNL     1       6.650  42.920  49.568  1.00  0.00     0.012 A 
ATOM     18  C   UNL     1       6.324  44.955  50.845  1.00  0.00     0.012 A 
ENDBRANCH   9  13
ENDBRANCH   3   8
ENDBRANCH   1   2
BRANCH   1  19
ATOM     19  C   UNL     1       3.737  45.980  54.902  1.00  0.00     0.017 C 
BRANCH  19  20
ATOM     20  C   UNL     1       4.513  44.889  54.119  1.00  0.00     0.006 C 
BRANCH  20  21
ATOM     21  C   UNL     1       5.959  44.620  54.582  1.00  0.00     0.002 C 
BRANCH  21  22
ATOM     22  C   UNL     1       6.983  45.732  54.300  1.00  0.00     0.015 CG0
ATOM     23  G   UNL     1       6.456  47.175  54.460  1.00  0.00     0.000 G0
ENDBRANCH  21  22
ENDBRANCH  20  21
ENDBRANCH  19  20
BRANCH  19  24
ATOM     24  C   UNL     1       4.018  47.425  54.405  1.00  0.00     0.085 C 
BRANCH  24  25
ATOM     25  N   UNL     1       5.274  47.491  53.645  1.00  0.00    -0.316 NA
ATOM     26  H   UNL     1       5.228  46.797  52.863  1.00  0.00     0.122 HD
BRANCH  25  27
ATOM     27  C   UNL     1       6.469  47.179  54.453  1.00  0.00     0.081 CG0
ATOM     28  G   UNL     1       6.988  45.732  54.312  1.00  0.00     0.000 G0
ENDBRANCH  25  27
ENDBRANCH  24  25
ENDBRANCH  19  24
ENDBRANCH   1  19
TORSDOF 4
ENDMDL
MODEL 4
REMARK VINA RESULT:    -6.175      3.741      5.802
REMARK INTER + INTRA:         -10.795
REMARK INTER:                 -10.880
REMARK INTRA:                   0.085
REMARK UNBOUND:                -1.010
REMARK SMILES c1ccc(-c2noc(C3CCN(C[C@H]4CCCCNC4)CC3)n2)cc1
REMARK SMILES IDX 13 1 12 2 9 3 10 4 22 5 11 6 21 7 8 8 5 9 6 10 23 11 7 12
REMARK SMILES IDX 4 13 1 14 2 15 25 16 3 17 24 18 14 19 15 20 16 21 17 22
REMARK SMILES IDX 20 24 19 25 18 27
REMARK H PARENT 19 26
REMARK Flexibility Score:   65.900
ROOT
ATOM      1  C   UNL     1       2.426  44.621  54.844  1.00  0.00     0.089 C 
ENDROOT
BRANCH   1   2
ATOM      2  N   UNL     1       2.721  45.078  53.465  1.00  0.00    -0.303 NA
ATOM      3  C   UNL     1       3.249  45.933  50.937  1.00  0.00     0.081 C 
ATOM      4  C   UNL     1       2.648  47.013  51.856  1.00  0.00     0.029 C 
ATOM      5  C   UNL     1       2.427  44.630  51.030  1.00  0.00     0.029 C 
ATOM      6  C   UNL     1       2.434  46.524  53.308  1.00  0.00     0.085 C 
ATOM      7  C   UNL     1       1.968  44.296  52.466  1.00  0.00     0.085 C 
BRANCH   3   8
ATOM      8  C   UNL     1       4.710  45.677  51.222  1.00  0.00     0.230 A 
ATOM      9  C   UNL     1       6.677  45.813  51.916  1.00  0.00     0.202 A 
ATOM     10  N   UNL     1       6.586  44.661  51.224  1.00  0.00    -0.057 NA
ATOM     11  N   UNL     1       5.510  46.490  51.939  1.00  0.00    -0.191 NA
ATOM     12  O   UNL     1       5.356  44.614  50.810  1.00  0.00    -0.339 OA
BRANCH   9  13
ATOM     13  C   UNL     1       7.905  46.272  52.600  1.00  0.00     0.023 A 
ATOM     14  C   UNL     1      10.236  47.175  53.882  1.00  0.00     0.000 A 
ATOM     15  C   UNL     1       8.996  47.311  54.510  1.00  0.00     0.001 A 
ATOM     16  C   UNL     1      10.318  46.588  52.617  1.00  0.00     0.001 A 
ATOM     17  C   UNL     1       7.834  46.863  53.875  1.00  0.00     0.012 A 
ATOM     18  C   UNL     1       9.159  46.137  51.978  1.00  0.00     0.012 A 
ENDBRANCH   9  13
ENDBRANCH   3   8
ENDBRANCH   1   2
BRANCH   1  19
ATOM     19  C   UNL     1       1.038  45.126  55.293  1.00  0.00     0.017 C 
BRANCH  19  20
ATOM     20  C   UNL     1      -0.087  44.133  54.903  1.00  0.00     0.006 C 
BRANCH  20  21
ATOM     21  C   UNL     1      -1.470  44.752  54.616  1.00  0.00     0.002 C 
BRANCH  21  22
ATOM     22  C   UNL     1      -2.247  45.280  55.834  1.00  0.00     0.015 CG0
ATOM     23  G   UNL     1      -1.393  45.986  56.910  1.00  0.00     0.000 G0
ENDBRANCH  21  22
ENDBRANCH  20  21
ENDBRANCH  19  20
BRANCH  19  24
ATOM     24  C   UNL     1       1.025  45.526  56.794  1.00  0.00     0.085 C 
BRANCH  24  25
ATOM     25  N   UNL     1      -0.261  45.192  57.424  1.00  0.00    -0.316 NA
ATOM     26  H   UNL     1      -0.473  44.185  57.235  1.00  0.00     0.122 HD
BRANCH  25  27
ATOM     27  C   UNL     1      -1.391  45.993  56.913  1.00  0.00     0.081 CG0
ATOM     28  G   UNL     1      -2.254  45.288  55.844  1.00  0.00     0.000 G0
ENDBRANCH  25  27
ENDBRANCH  24  25
ENDBRANCH  19  24
ENDBRANCH   1  19
TORSDOF 4
ENDMDL
MODEL 5
REMARK VINA RESULT:    -6.101      2.095      5.126
REMARK INTER + INTRA:         -10.678
REMARK INTER:                 -10.905
REMARK INTRA:                   0.228
REMARK UNBOUND:                -1.010
REMARK SMILES c1ccc(-c2noc(C3CCN(C[C@H]4CCCCNC4)CC3)n2)cc1
REMARK SMILES IDX 13 1 12 2 9 3 10 4 22 5 11 6 21 7 8 8 5 9 6 10 23 11 7 12
REMARK SMILES IDX 4 13 1 14 2 15 25 16 3 17 24 18 14 19 15 20 16 21 17 22
REMARK SMILES IDX 20 24 19 25 18 27
REMARK H PARENT 19 26
REMARK Flexibility Score:   65.900
ROOT
ATOM      1  C   UNL     1       5.149  47.525  53.549  1.00  0.00     0.089 C 
ENDROOT
BRANCH   1   2
ATOM      2  N   UNL     1       4.012  46.574  53.591  1.00  0.00    -0.303 NA
ATOM      3  C   UNL     1       1.914  44.845  53.663  1.00  0.00     0.081 C 
ATOM      4  C   UNL     1       1.613  46.172  52.941  1.00  0.00     0.029 C 
ATOM      5  C   UNL     1       2.589  45.113  55.024  1.00  0.00     0.029 C 
ATOM      6  C   UNL     1       2.846  47.102  52.843  1.00  0.00     0.085 C 
ATOM      7  C   UNL     1       3.629  46.254  54.979  1.00  0.00     0.085 C 
BRANCH   3   8
ATOM      8  C   UNL     1       2.741  43.902  52.821  1.00  0.00     0.230 A 
ATOM      9  C   UNL     1       4.158  43.089  51.516  1.00  0.00     0.202 A 
ATOM     10  N   UNL     1       3.446  42.058  52.013  1.00  0.00    -0.057 NA
ATOM     11  N   UNL     1       3.743  44.278  52.001  1.00  0.00    -0.191 NA
ATOM     12  O   UNL     1       2.581  42.602  52.814  1.00  0.00    -0.339 OA
BRANCH   9  13
ATOM     13  C   UNL     1       5.285  42.937  50.572  1.00  0.00     0.023 A 
ATOM     14  C   UNL     1       7.405  42.656  48.749  1.00  0.00     0.000 A 
ATOM     15  C   UNL     1       7.220  43.865  49.424  1.00  0.00     0.001 A 
ATOM     16  C   UNL     1       6.537  41.586  48.981  1.00  0.00     0.001 A 
ATOM     17  C   UNL     1       6.165  44.007  50.331  1.00  0.00     0.012 A 
ATOM     18  C   UNL     1       5.483  41.723  49.889  1.00  0.00     0.012 A 
ENDBRANCH   9  13
ENDBRANCH   3   8
ENDBRANCH   1   2
BRANCH   1  19
ATOM     19  C   UNL     1       6.487  46.760  53.450  1.00  0.00     0.017 C 
BRANCH  19  20
ATOM     20  C   UNL     1       7.314  47.208  52.217  1.00  0.00     0.006 C 
BRANCH  20  21
ATOM     21  C   UNL     1       8.627  46.441  51.965  1.00  0.00     0.002 C 
BRANCH  21  22
ATOM     22  C   UNL     1       9.866  46.942  52.727  1.00  0.00     0.015 CG0
ATOM     23  G   UNL     1       9.698  47.064  54.258  1.00  0.00     0.000 G0
ENDBRANCH  21  22
ENDBRANCH  20  21
ENDBRANCH  19  20
BRANCH  19  24
ATOM     24  C   UNL     1       7.280  46.807  54.785  1.00  0.00     0.085 C 
BRANCH  24  25
ATOM     25  N   UNL     1       8.425  47.726  54.692  1.00  0.00    -0.316 NA
ATOM     26  H   UNL     1       8.198  48.470  53.992  1.00  0.00     0.122 HD
BRANCH  25  27
ATOM     27  C   UNL     1       9.674  47.068  54.262  1.00  0.00     0.081 CG0
ATOM     28  G   UNL     1       9.848  46.943  52.733  1.00  0.00     0.000 G0
ENDBRANCH  25  27
ENDBRANCH  24  25
ENDBRANCH  19  24
ENDBRANCH   1  19
TORSDOF 4
ENDMDL
