ligand_54_conformer_1_docked
     RDKit          3D

 43 45  0  0  0  0  0  0  0  0999 V2000
    5.7120   43.9220   50.9030 C   0  0  0  0  0  0  0  0  0  0  0  0
    5.3760   45.7100   50.9240 S   0  0  0  0  0  0  0  0  0  0  0  0
    6.7650   46.0810   52.0110 C   0  0  0  0  0  0  0  0  0  0  0  0
    8.0590   46.0240   51.4780 C   0  0  0  0  0  0  0  0  0  0  0  0
    9.1720   46.3620   52.2610 C   0  0  0  0  0  0  0  0  0  0  0  0
   10.5480   46.3420   51.6660 C   0  0  0  0  0  0  0  0  0  0  0  0
    8.9790   46.7950   53.5800 C   0  0  0  0  0  0  0  0  0  0  0  0
    7.6930   46.8480   54.1220 C   0  0  0  0  0  0  0  0  0  0  0  0
    6.5780   46.4740   53.3560 C   0  0  0  0  0  0  0  0  0  0  0  0
    5.2410   46.5340   53.9760 C   0  0  0  0  0  0  0  0  0  0  0  0
    4.6810   47.6550   54.1180 O   0  0  0  0  0  0  0  0  0  0  0  0
    4.5920   45.3360   54.4290 N   0  0  0  0  0  0  0  0  0  0  0  0
    3.2910   45.3350   55.0280 C   0  0  0  0  0  0  0  0  0  0  0  0
    2.9840   45.9910   56.1560 N   0  0  0  0  0  0  0  0  0  0  0  0
    1.7070   45.7650   56.4110 N   0  0  0  0  0  0  0  0  0  0  0  0
    1.1690   44.9950   55.4730 N   0  0  0  0  0  0  0  0  0  0  0  0
    2.1430   44.7050   54.5850 C   0  0  0  0  0  0  0  0  0  0  0  0
    1.9330   43.9900   53.3070 C   0  0  0  0  0  0  0  0  0  0  0  0
    2.8150   43.1790   52.9150 O   0  0  0  0  0  0  0  0  0  0  0  0
    0.7580   44.1920   52.4960 N   0  0  0  0  0  0  0  0  0  0  0  0
   -0.3500   45.0700   52.8380 C   0  0  0  0  0  0  0  0  0  0  0  0
   -1.3530   44.9390   51.6980 C   0  0  0  0  0  0  0  0  0  0  0  0
   -0.9450   43.6930   50.9180 C   0  0  0  0  0  0  0  0  0  0  0  0
    0.5060   43.4210   51.2920 C   0  0  0  0  0  0  0  0  0  0  0  0
    5.7819   43.5499   51.9358 H   0  0  0  0  0  0  0  0  0  0  0  0
    4.8959   43.4017   50.3803 H   0  0  0  0  0  0  0  0  0  0  0  0
    6.6613   43.7334   50.3803 H   0  0  0  0  0  0  0  0  0  0  0  0
    8.2037   45.7106   50.4336 H   0  0  0  0  0  0  0  0  0  0  0  0
   11.2961   46.3311   52.4724 H   0  0  0  0  0  0  0  0  0  0  0  0
   10.6657   45.4420   51.0445 H   0  0  0  0  0  0  0  0  0  0  0  0
   10.6918   47.2381   51.0445 H   0  0  0  0  0  0  0  0  0  0  0  0
    9.8437   47.0942   54.1906 H   0  0  0  0  0  0  0  0  0  0  0  0
    7.5526   47.1861   55.1593 H   0  0  0  0  0  0  0  0  0  0  0  0
    5.0180   44.4100   54.2030 H   0  0  0  0  0  0  0  0  0  0  0  0
    3.6230   46.5670   56.7470 H   0  0  0  0  0  0  0  0  0  0  0  0
   -0.8074   44.7568   53.7881 H   0  0  0  0  0  0  0  0  0  0  0  0
   -0.0167   46.1105   52.9655 H   0  0  0  0  0  0  0  0  0  0  0  0
   -2.3716   44.8234   52.0969 H   0  0  0  0  0  0  0  0  0  0  0  0
   -1.3525   45.8330   51.0570 H   0  0  0  0  0  0  0  0  0  0  0  0
   -1.5792   42.8400   51.2011 H   0  0  0  0  0  0  0  0  0  0  0  0
   -1.0613   43.8398   49.8341 H   0  0  0  0  0  0  0  0  0  0  0  0
    0.6566   42.3487   51.4858 H   0  0  0  0  0  0  0  0  0  0  0  0
    1.1921   43.7042   50.4802 H   0  0  0  0  0  0  0  0  0  0  0  0
  1  2  1  0
  2  3  1  0
  3  4  2  0
  4  5  1  0
  5  6  1  0
  5  7  2  0
  7  8  1  0
  8  9  2  0
  9 10  1  0
 10 11  2  0
 10 12  1  0
 12 13  1  0
 13 14  1  0
 14 15  1  0
 15 16  2  0
 16 17  1  0
 17 18  1  0
 18 19  2  0
 18 20  1  0
 20 21  1  0
 21 22  1  0
 22 23  1  0
 23 24  1  0
  9  3  1  0
 17 13  2  0
 24 20  1  0
  1 25  1  0
  1 26  1  0
  1 27  1  0
  4 28  1  0
  6 29  1  0
  6 30  1  0
  6 31  1  0
  7 32  1  0
  8 33  1  0
 12 34  1  0
 14 35  1  0
 21 36  1  0
 21 37  1  0
 22 38  1  0
 22 39  1  0
 23 40  1  0
 23 41  1  0
 24 42  1  0
 24 43  1  0
M  END
>  <meeko>  (1) 
{"is_sidechain": [false], "free_energy": -8.495, "intermolecular_energy": -10.482, "internal_energy": -0.794}

$$$$
ligand_54_conformer_1_docked
     RDKit          3D

 43 45  0  0  0  0  0  0  0  0999 V2000
    4.9150   46.3270   54.9340 C   0  0  0  0  0  0  0  0  0  0  0  0
    4.5720   47.5520   53.6330 S   0  0  0  0  0  0  0  0  0  0  0  0
    5.7190   46.8070   52.4600 C   0  0  0  0  0  0  0  0  0  0  0  0
    7.0870   47.0540   52.6220 C   0  0  0  0  0  0  0  0  0  0  0  0
    8.0290   46.4520   51.7750 C   0  0  0  0  0  0  0  0  0  0  0  0
    9.4950   46.6870   51.9860 C   0  0  0  0  0  0  0  0  0  0  0  0
    7.5920   45.5640   50.7820 C   0  0  0  0  0  0  0  0  0  0  0  0
    6.2290   45.3170   50.6090 C   0  0  0  0  0  0  0  0  0  0  0  0
    5.2790   45.9470   51.4280 C   0  0  0  0  0  0  0  0  0  0  0  0
    3.8490   45.6640   51.2000 C   0  0  0  0  0  0  0  0  0  0  0  0
    3.1830   46.4320   50.4530 O   0  0  0  0  0  0  0  0  0  0  0  0
    3.2170   44.5410   51.8330 N   0  0  0  0  0  0  0  0  0  0  0  0
    1.8370   44.2140   51.6380 C   0  0  0  0  0  0  0  0  0  0  0  0
    1.3680   43.5450   50.5750 N   0  0  0  0  0  0  0  0  0  0  0  0
    0.0590   43.4280   50.7250 N   0  0  0  0  0  0  0  0  0  0  0  0
   -0.3340   43.9860   51.8640 N   0  0  0  0  0  0  0  0  0  0  0  0
    0.7640   44.4920   52.4640 C   0  0  0  0  0  0  0  0  0  0  0  0
    0.7890   45.0730   53.8250 C   0  0  0  0  0  0  0  0  0  0  0  0
    1.6710   45.9310   54.1000 O   0  0  0  0  0  0  0  0  0  0  0  0
   -0.1560   44.6870   54.8430 N   0  0  0  0  0  0  0  0  0  0  0  0
   -1.2400   43.7360   54.6580 C   0  0  0  0  0  0  0  0  0  0  0  0
   -1.9690   43.6710   55.9940 C   0  0  0  0  0  0  0  0  0  0  0  0
   -1.4960   44.8800   56.7930 C   0  0  0  0  0  0  0  0  0  0  0  0
   -0.1910   45.3250   56.1470 C   0  0  0  0  0  0  0  0  0  0  0  0
    4.7842   46.7942   55.9212 H   0  0  0  0  0  0  0  0  0  0  0  0
    4.2192   45.4810   54.8336 H   0  0  0  0  0  0  0  0  0  0  0  0
    5.9490   45.9653   54.8336 H   0  0  0  0  0  0  0  0  0  0  0  0
    7.4271   47.7276   53.4223 H   0  0  0  0  0  0  0  0  0  0  0  0
    9.7094   46.7214   53.0644 H   0  0  0  0  0  0  0  0  0  0  0  0
   10.0676   45.8692   51.5242 H   0  0  0  0  0  0  0  0  0  0  0  0
    9.7833   47.6428   51.5242 H   0  0  0  0  0  0  0  0  0  0  0  0
    8.3262   45.0598   50.1365 H   0  0  0  0  0  0  0  0  0  0  0  0
    5.8964   44.6223   49.8237 H   0  0  0  0  0  0  0  0  0  0  0  0
    3.8060   43.8540   52.3550 H   0  0  0  0  0  0  0  0  0  0  0  0
    1.9140   43.1870   49.7610 H   0  0  0  0  0  0  0  0  0  0  0  0
   -1.9213   44.0813   53.8665 H   0  0  0  0  0  0  0  0  0  0  0  0
   -0.8638   42.7480   54.3541 H   0  0  0  0  0  0  0  0  0  0  0  0
   -3.0569   43.7184   55.8380 H   0  0  0  0  0  0  0  0  0  0  0  0
   -1.7549   42.7308   56.5233 H   0  0  0  0  0  0  0  0  0  0  0  0
   -2.2419   45.6869   56.7430 H   0  0  0  0  0  0  0  0  0  0  0  0
   -1.3556   44.6313   57.8553 H   0  0  0  0  0  0  0  0  0  0  0  0
   -0.1713   46.4194   56.0384 H   0  0  0  0  0  0  0  0  0  0  0  0
    0.6793   45.0438   56.7582 H   0  0  0  0  0  0  0  0  0  0  0  0
  1  2  1  0
  2  3  1  0
  3  4  2  0
  4  5  1  0
  5  6  1  0
  5  7  2  0
  7  8  1  0
  8  9  2  0
  9 10  1  0
 10 11  2  0
 10 12  1  0
 12 13  1  0
 13 14  1  0
 14 15  1  0
 15 16  2  0
 16 17  1  0
 17 18  1  0
 18 19  2  0
 18 20  1  0
 20 21  1  0
 21 22  1  0
 22 23  1  0
 23 24  1  0
  9  3  1  0
 17 13  2  0
 24 20  1  0
  1 25  1  0
  1 26  1  0
  1 27  1  0
  4 28  1  0
  6 29  1  0
  6 30  1  0
  6 31  1  0
  7 32  1  0
  8 33  1  0
 12 34  1  0
 14 35  1  0
 21 36  1  0
 21 37  1  0
 22 38  1  0
 22 39  1  0
 23 40  1  0
 23 41  1  0
 24 42  1  0
 24 43  1  0
M  END
>  <meeko>  (2) 
{"is_sidechain": [false], "free_energy": -8.162, "intermolecular_energy": -10.35, "internal_energy": -0.514}

$$$$
ligand_54_conformer_1_docked
     RDKit          3D

 43 45  0  0  0  0  0  0  0  0999 V2000
    4.3730   41.1800   49.8300 C   0  0  0  0  0  0  0  0  0  0  0  0
    3.7560   42.2120   51.1960 S   0  0  0  0  0  0  0  0  0  0  0  0
    5.0370   43.4620   50.9900 C   0  0  0  0  0  0  0  0  0  0  0  0
    6.1230   43.1690   50.1550 C   0  0  0  0  0  0  0  0  0  0  0  0
    7.1170   44.1270   49.9110 C   0  0  0  0  0  0  0  0  0  0  0  0
    8.2510   43.8180   48.9800 C   0  0  0  0  0  0  0  0  0  0  0  0
    6.9990   45.4020   50.4800 C   0  0  0  0  0  0  0  0  0  0  0  0
    5.9230   45.7010   51.3190 C   0  0  0  0  0  0  0  0  0  0  0  0
    4.9450   44.7340   51.5990 C   0  0  0  0  0  0  0  0  0  0  0  0
    3.8340   45.0930   52.5010 C   0  0  0  0  0  0  0  0  0  0  0  0
    2.9780   45.9340   52.1150 O   0  0  0  0  0  0  0  0  0  0  0  0
    3.7370   44.5060   53.8090 N   0  0  0  0  0  0  0  0  0  0  0  0
    2.6740   44.8100   54.7190 C   0  0  0  0  0  0  0  0  0  0  0  0
    2.7780   45.6880   55.7260 N   0  0  0  0  0  0  0  0  0  0  0  0
    1.6150   45.7100   56.3550 N   0  0  0  0  0  0  0  0  0  0  0  0
    0.7530   44.8830   55.7760 N   0  0  0  0  0  0  0  0  0  0  0  0
    1.3900   44.2980   54.7410 C   0  0  0  0  0  0  0  0  0  0  0  0
    0.7450   43.4160   53.7430 C   0  0  0  0  0  0  0  0  0  0  0  0
    1.0830   42.2020   53.7010 O   0  0  0  0  0  0  0  0  0  0  0  0
   -0.2500   43.8990   52.8180 N   0  0  0  0  0  0  0  0  0  0  0  0
   -0.7550   45.2620   52.7730 C   0  0  0  0  0  0  0  0  0  0  0  0
   -1.7920   45.2850   51.6570 C   0  0  0  0  0  0  0  0  0  0  0  0
   -2.1130   43.8260   51.3490 C   0  0  0  0  0  0  0  0  0  0  0  0
   -0.9520   43.0140   51.9050 C   0  0  0  0  0  0  0  0  0  0  0  0
    4.8968   40.3039   50.2400 H   0  0  0  0  0  0  0  0  0  0  0  0
    3.5267   40.8453   49.2122 H   0  0  0  0  0  0  0  0  0  0  0  0
    5.0685   41.7670   49.2122 H   0  0  0  0  0  0  0  0  0  0  0  0
    6.1966   42.1768   49.6859 H   0  0  0  0  0  0  0  0  0  0  0  0
    9.1496   43.5731   49.5653 H   0  0  0  0  0  0  0  0  0  0  0  0
    7.9815   42.9605   48.3459 H   0  0  0  0  0  0  0  0  0  0  0  0
    8.4538   44.6936   48.3459 H   0  0  0  0  0  0  0  0  0  0  0  0
    7.7564   46.1702   50.2652 H   0  0  0  0  0  0  0  0  0  0  0  0
    5.8414   46.7035   51.7644 H   0  0  0  0  0  0  0  0  0  0  0  0
    4.3870   43.7310   54.0680 H   0  0  0  0  0  0  0  0  0  0  0  0
    3.6150   46.2510   55.9920 H   0  0  0  0  0  0  0  0  0  0  0  0
   -1.2199   45.5299   53.7332 H   0  0  0  0  0  0  0  0  0  0  0  0
    0.0522   45.9865   52.5900 H   0  0  0  0  0  0  0  0  0  0  0  0
   -2.6980   45.8137   51.9883 H   0  0  0  0  0  0  0  0  0  0  0  0
   -1.4140   45.8102   50.7674 H   0  0  0  0  0  0  0  0  0  0  0  0
   -3.0539   43.5306   51.8364 H   0  0  0  0  0  0  0  0  0  0  0  0
   -2.2391   43.6608   50.2688 H   0  0  0  0  0  0  0  0  0  0  0  0
   -1.3257   42.1291   52.4410 H   0  0  0  0  0  0  0  0  0  0  0  0
   -0.2908   42.6527   51.1036 H   0  0  0  0  0  0  0  0  0  0  0  0
  1  2  1  0
  2  3  1  0
  3  4  2  0
  4  5  1  0
  5  6  1  0
  5  7  2  0
  7  8  1  0
  8  9  2  0
  9 10  1  0
 10 11  2  0
 10 12  1  0
 12 13  1  0
 13 14  1  0
 14 15  1  0
 15 16  2  0
 16 17  1  0
 17 18  1  0
 18 19  2  0
 18 20  1  0
 20 21  1  0
 21 22  1  0
 22 23  1  0
 23 24  1  0
  9  3  1  0
 17 13  2  0
 24 20  1  0
  1 25  1  0
  1 26  1  0
  1 27  1  0
  4 28  1  0
  6 29  1  0
  6 30  1  0
  6 31  1  0
  7 32  1  0
  8 33  1  0
 12 34  1  0
 14 35  1  0
 21 36  1  0
 21 37  1  0
 22 38  1  0
 22 39  1  0
 23 40  1  0
 23 41  1  0
 24 42  1  0
 24 43  1  0
M  END
>  <meeko>  (3) 
{"is_sidechain": [false], "free_energy": -7.993, "intermolecular_energy": -9.878, "internal_energy": -0.778}

$$$$
ligand_54_conformer_1_docked
     RDKit          3D

 43 45  0  0  0  0  0  0  0  0999 V2000
    4.7770   45.1770   55.4060 C   0  0  0  0  0  0  0  0  0  0  0  0
    3.7870   46.4410   54.5490 S   0  0  0  0  0  0  0  0  0  0  0  0
    2.3590   45.3610   54.3480 C   0  0  0  0  0  0  0  0  0  0  0  0
    1.3990   45.3340   55.3660 C   0  0  0  0  0  0  0  0  0  0  0  0
    0.2380   44.5590   55.2360 C   0  0  0  0  0  0  0  0  0  0  0  0
   -0.8060   44.5730   56.3130 C   0  0  0  0  0  0  0  0  0  0  0  0
    0.0240   43.8340   54.0560 C   0  0  0  0  0  0  0  0  0  0  0  0
    0.9790   43.8490   53.0370 C   0  0  0  0  0  0  0  0  0  0  0  0
    2.1620   44.5920   53.1780 C   0  0  0  0  0  0  0  0  0  0  0  0
    3.1470   44.5670   52.0810 C   0  0  0  0  0  0  0  0  0  0  0  0
    2.8950   45.1920   51.0150 O   0  0  0  0  0  0  0  0  0  0  0  0
    4.3710   43.8270   52.2160 N   0  0  0  0  0  0  0  0  0  0  0  0
    5.3670   43.7780   51.1870 C   0  0  0  0  0  0  0  0  0  0  0  0
    5.4560   42.7990   50.2770 N   0  0  0  0  0  0  0  0  0  0  0  0
    6.4860   43.0760   49.4950 N   0  0  0  0  0  0  0  0  0  0  0  0
    7.0590   44.2170   49.8610 N   0  0  0  0  0  0  0  0  0  0  0  0
    6.3770   44.6850   50.9270 C   0  0  0  0  0  0  0  0  0  0  0  0
    6.5970   46.0060   51.5560 C   0  0  0  0  0  0  0  0  0  0  0  0
    5.6110   46.7780   51.7040 O   0  0  0  0  0  0  0  0  0  0  0  0
    7.8990   46.4390   51.9990 N   0  0  0  0  0  0  0  0  0  0  0  0
    9.1150   45.6450   51.9180 C   0  0  0  0  0  0  0  0  0  0  0  0
   10.2170   46.5090   52.5190 C   0  0  0  0  0  0  0  0  0  0  0  0
    9.5110   47.6340   53.2690 C   0  0  0  0  0  0  0  0  0  0  0  0
    8.1000   47.6940   52.7020 C   0  0  0  0  0  0  0  0  0  0  0  0
    4.6753   45.3068   56.4936 H   0  0  0  0  0  0  0  0  0  0  0  0
    4.4199   44.1763   55.1212 H   0  0  0  0  0  0  0  0  0  0  0  0
    5.8341   45.2839   55.1212 H   0  0  0  0  0  0  0  0  0  0  0  0
    1.5572   45.9276   56.2785 H   0  0  0  0  0  0  0  0  0  0  0  0
   -0.3166   44.5664   57.2981 H   0  0  0  0  0  0  0  0  0  0  0  0
   -1.4214   45.4795   56.2153 H   0  0  0  0  0  0  0  0  0  0  0  0
   -1.4455   43.6834   56.2153 H   0  0  0  0  0  0  0  0  0  0  0  0
   -0.9002   43.2505   53.9318 H   0  0  0  0  0  0  0  0  0  0  0  0
    0.8028   43.2738   52.1161 H   0  0  0  0  0  0  0  0  0  0  0  0
    4.6140   43.4100   53.1420 H   0  0  0  0  0  0  0  0  0  0  0  0
    4.8460   41.9570   50.1900 H   0  0  0  0  0  0  0  0  0  0  0  0
    9.0029   44.7134   52.4920 H   0  0  0  0  0  0  0  0  0  0  0  0
    9.3443   45.3611   50.8803 H   0  0  0  0  0  0  0  0  0  0  0  0
   10.8322   45.9158   53.2115 H   0  0  0  0  0  0  0  0  0  0  0  0
   10.8875   46.9034   51.7413 H   0  0  0  0  0  0  0  0  0  0  0  0
    9.4811   47.4152   54.3466 H   0  0  0  0  0  0  0  0  0  0  0  0
   10.0363   48.5926   53.1457 H   0  0  0  0  0  0  0  0  0  0  0  0
    7.3656   47.7994   53.5141 H   0  0  0  0  0  0  0  0  0  0  0  0
    7.9706   48.5569   52.0322 H   0  0  0  0  0  0  0  0  0  0  0  0
  1  2  1  0
  2  3  1  0
  3  4  2  0
  4  5  1  0
  5  6  1  0
  5  7  2  0
  7  8  1  0
  8  9  2  0
  9 10  1  0
 10 11  2  0
 10 12  1  0
 12 13  1  0
 13 14  1  0
 14 15  1  0
 15 16  2  0
 16 17  1  0
 17 18  1  0
 18 19  2  0
 18 20  1  0
 20 21  1  0
 21 22  1  0
 22 23  1  0
 23 24  1  0
  9  3  1  0
 17 13  2  0
 24 20  1  0
  1 25  1  0
  1 26  1  0
  1 27  1  0
  4 28  1  0
  6 29  1  0
  6 30  1  0
  6 31  1  0
  7 32  1  0
  8 33  1  0
 12 34  1  0
 14 35  1  0
 21 36  1  0
 21 37  1  0
 22 38  1  0
 22 39  1  0
 23 40  1  0
 23 41  1  0
 24 42  1  0
 24 43  1  0
M  END
>  <meeko>  (4) 
{"is_sidechain": [false], "free_energy": -7.769, "intermolecular_energy": -9.711, "internal_energy": -0.668}

$$$$
ligand_54_conformer_1_docked
     RDKit          3D

 43 45  0  0  0  0  0  0  0  0999 V2000
    3.7120   46.8770   53.6380 C   0  0  0  0  0  0  0  0  0  0  0  0
    4.6800   45.5680   54.4500 S   0  0  0  0  0  0  0  0  0  0  0  0
    6.2240   46.0490   53.6550 C   0  0  0  0  0  0  0  0  0  0  0  0
    7.1380   46.8130   54.3890 C   0  0  0  0  0  0  0  0  0  0  0  0
    8.3810   47.1640   53.8420 C   0  0  0  0  0  0  0  0  0  0  0  0
    9.3710   47.9440   54.6540 C   0  0  0  0  0  0  0  0  0  0  0  0
    8.7210   46.7100   52.5610 C   0  0  0  0  0  0  0  0  0  0  0  0
    7.8120   45.9530   51.8180 C   0  0  0  0  0  0  0  0  0  0  0  0
    6.5520   45.6320   52.3450 C   0  0  0  0  0  0  0  0  0  0  0  0
    5.6210   44.8400   51.5180 C   0  0  0  0  0  0  0  0  0  0  0  0
    5.2890   45.2730   50.3810 O   0  0  0  0  0  0  0  0  0  0  0  0
    5.0840   43.6010   52.0080 N   0  0  0  0  0  0  0  0  0  0  0  0
    4.1860   42.7880   51.2440 C   0  0  0  0  0  0  0  0  0  0  0  0
    4.5110   41.5950   50.7260 N   0  0  0  0  0  0  0  0  0  0  0  0
    3.4490   41.1370   50.0860 N   0  0  0  0  0  0  0  0  0  0  0  0
    2.4360   41.9900   50.1870 N   0  0  0  0  0  0  0  0  0  0  0  0
    2.8680   43.0430   50.9110 C   0  0  0  0  0  0  0  0  0  0  0  0
    2.0110   44.1540   51.3800 C   0  0  0  0  0  0  0  0  0  0  0  0
    2.1160   45.2780   50.8190 O   0  0  0  0  0  0  0  0  0  0  0  0
    1.0650   43.9930   52.4560 N   0  0  0  0  0  0  0  0  0  0  0  0
    0.8180   42.7510   53.1710 C   0  0  0  0  0  0  0  0  0  0  0  0
   -0.2660   43.0670   54.1940 C   0  0  0  0  0  0  0  0  0  0  0  0
   -0.8690   44.4030   53.7710 C   0  0  0  0  0  0  0  0  0  0  0  0
    0.1550   45.0540   52.8530 C   0  0  0  0  0  0  0  0  0  0  0  0
    3.2417   47.5130   54.4024 H   0  0  0  0  0  0  0  0  0  0  0  0
    4.3767   47.4888   53.0103 H   0  0  0  0  0  0  0  0  0  0  0  0
    2.9324   46.4207   53.0103 H   0  0  0  0  0  0  0  0  0  0  0  0
    6.8789   47.1420   55.4062 H   0  0  0  0  0  0  0  0  0  0  0  0
    9.1719   47.7871   55.7244 H   0  0  0  0  0  0  0  0  0  0  0  0
   10.3896   47.6031   54.4167 H   0  0  0  0  0  0  0  0  0  0  0  0
    9.2779   49.0140   54.4167 H   0  0  0  0  0  0  0  0  0  0  0  0
    9.7077   46.9506   52.1386 H   0  0  0  0  0  0  0  0  0  0  0  0
    8.0865   45.6056   50.8110 H   0  0  0  0  0  0  0  0  0  0  0  0
    5.4540   43.2030   52.8990 H   0  0  0  0  0  0  0  0  0  0  0  0
    5.4310   41.1060   50.7900 H   0  0  0  0  0  0  0  0  0  0  0  0
    0.4727   41.9715   52.4760 H   0  0  0  0  0  0  0  0  0  0  0  0
    1.7317   42.3742   53.6539 H   0  0  0  0  0  0  0  0  0  0  0  0
   -1.0363   42.2817   54.1892 H   0  0  0  0  0  0  0  0  0  0  0  0
    0.1447   43.1158   55.2133 H   0  0  0  0  0  0  0  0  0  0  0  0
   -1.8156   44.2422   53.2343 H   0  0  0  0  0  0  0  0  0  0  0  0
   -1.0910   45.0382   54.6412 H   0  0  0  0  0  0  0  0  0  0  0  0
   -0.3409   45.4832   51.9699 H   0  0  0  0  0  0  0  0  0  0  0  0
    0.6865   45.8742   53.3579 H   0  0  0  0  0  0  0  0  0  0  0  0
  1  2  1  0
  2  3  1  0
  3  4  2  0
  4  5  1  0
  5  6  1  0
  5  7  2  0
  7  8  1  0
  8  9  2  0
  9 10  1  0
 10 11  2  0
 10 12  1  0
 12 13  1  0
 13 14  1  0
 14 15  1  0
 15 16  2  0
 16 17  1  0
 17 18  1  0
 18 19  2  0
 18 20  1  0
 20 21  1  0
 21 22  1  0
 22 23  1  0
 23 24  1  0
  9  3  1  0
 17 13  2  0
 24 20  1  0
  1 25  1  0
  1 26  1  0
  1 27  1  0
  4 28  1  0
  6 29  1  0
  6 30  1  0
  6 31  1  0
  7 32  1  0
  8 33  1  0
 12 34  1  0
 14 35  1  0
 21 36  1  0
 21 37  1  0
 22 38  1  0
 22 39  1  0
 23 40  1  0
 23 41  1  0
 24 42  1  0
 24 43  1  0
M  END
>  <meeko>  (5) 
{"is_sidechain": [false], "free_energy": -7.741, "intermolecular_energy": -9.853, "internal_energy": -0.492}

$$$$
