MODEL 1
REMARK VINA RESULT:    -8.448      0.000      0.000
REMARK INTER + INTRA:         -13.165
REMARK INTER:                 -12.894
REMARK INTRA:                  -0.271
REMARK UNBOUND:                -0.271
REMARK SMILES COc1cc(OC)cc(S(=O)(=O)Nc2cc(S(=O)(=O)NC(C)(C)C)ccc2OC)c1
REMARK SMILES IDX 14 1 15 2 16 3 25 4 26 5 27 6 13 7 10 9 11 10 12 11 9 12
REMARK SMILES IDX 3 13 4 14 30 15 5 16 8 17 2 18 1 19 6 20 7 21 28 22 29 23
REMARK SMILES IDX 17 24 18 25 19 26 20 27 21 29 22 30 23 31 24 32
REMARK H PARENT 13 8 20 28
ROOT
ATOM      1  C   UNL     1       4.001  42.666  51.455  1.00  0.00     0.092 A 
ATOM      2  C   UNL     1       4.602  43.899  51.776  1.00  0.00     0.052 A 
ATOM      3  C   UNL     1       5.767  44.320  51.124  1.00  0.00     0.084 A 
ATOM      4  C   UNL     1       6.347  43.507  50.148  1.00  0.00     0.026 A 
ATOM      5  C   UNL     1       5.769  42.280  49.823  1.00  0.00     0.050 A 
ATOM      6  C   UNL     1       4.593  41.848  50.469  1.00  0.00     0.143 A 
ENDROOT
BRANCH   1   7
ATOM      7  N   UNL     1       2.797  42.226  52.119  1.00  0.00    -0.276 N 
ATOM      8  H   UNL     1       2.754  41.266  52.528  1.00  0.00     0.180 HD
BRANCH   7   9
ATOM      9  S   UNL     1       1.350  43.176  52.243  1.00  0.00     0.262 S 
ATOM     10  O   UNL     1       1.272  44.118  51.075  1.00  0.00    -0.201 OA
ATOM     11  O   UNL     1       0.158  42.260  52.212  1.00  0.00    -0.201 OA
BRANCH   9  12
ATOM     12  C   UNL     1       1.377  44.120  53.731  1.00  0.00     0.095 A 
ATOM     13  C   UNL     1       0.255  44.953  55.720  1.00  0.00     0.123 A 
ATOM     14  C   UNL     1       1.453  45.575  56.124  1.00  0.00     0.092 A 
ATOM     15  C   UNL     1       0.227  44.231  54.523  1.00  0.00     0.069 A 
ATOM     16  C   UNL     1       2.612  45.474  55.328  1.00  0.00     0.123 A 
ATOM     17  C   UNL     1       2.563  44.746  54.136  1.00  0.00     0.069 A 
BRANCH  13  18
ATOM     18  O   UNL     1      -0.925  45.029  56.476  1.00  0.00    -0.497 OA
ATOM     19  C   UNL     1      -1.465  46.234  57.008  1.00  0.00     0.278 C 
ENDBRANCH  13  18
BRANCH  16  20
ATOM     20  O   UNL     1       3.826  46.080  55.688  1.00  0.00    -0.497 OA
ATOM     21  C   UNL     1       5.111  45.595  55.313  1.00  0.00     0.278 C 
ENDBRANCH  16  20
ENDBRANCH   9  12
ENDBRANCH   7   9
ENDBRANCH   1   7
BRANCH   6  22
ATOM     22  O   UNL     1       3.991  40.618  50.154  1.00  0.00    -0.495 OA
ATOM     23  C   UNL     1       3.555  40.240  48.851  1.00  0.00     0.278 C 
ENDBRANCH   6  22
BRANCH   3  24
ATOM     24  S   UNL     1       6.511  45.866  51.525  1.00  0.00     0.241 S 
ATOM     25  O   UNL     1       7.173  46.383  50.279  1.00  0.00    -0.207 OA
ATOM     26  O   UNL     1       5.461  46.864  51.930  1.00  0.00    -0.207 OA
BRANCH  24  27
ATOM     27  N   UNL     1       7.730  45.731  52.773  1.00  0.00    -0.206 NA
ATOM     28  H   UNL     1       8.119  44.763  52.682  1.00  0.00     0.141 HD
BRANCH  27  29
ATOM     29  C   UNL     1       8.848  46.710  52.741  1.00  0.00     0.025 C 
ATOM     30  C   UNL     1       8.330  48.117  52.376  1.00  0.00     0.028 C 
ATOM     31  C   UNL     1       9.440  46.790  54.167  1.00  0.00     0.028 C 
ATOM     32  C   UNL     1       9.980  46.293  51.776  1.00  0.00     0.028 C 
ENDBRANCH  27  29
ENDBRANCH  24  27
ENDBRANCH   3  24
TORSDOF 9
ENDMDL
MODEL 2
REMARK VINA RESULT:    -8.427      1.567      2.922
REMARK INTER + INTRA:         -13.133
REMARK INTER:                 -12.745
REMARK INTRA:                  -0.388
REMARK UNBOUND:                -0.271
REMARK SMILES COc1cc(OC)cc(S(=O)(=O)Nc2cc(S(=O)(=O)NC(C)(C)C)ccc2OC)c1
REMARK SMILES IDX 14 1 15 2 16 3 25 4 26 5 27 6 13 7 10 9 11 10 12 11 9 12
REMARK SMILES IDX 3 13 4 14 30 15 5 16 8 17 2 18 1 19 6 20 7 21 28 22 29 23
REMARK SMILES IDX 17 24 18 25 19 26 20 27 21 29 22 30 23 31 24 32
REMARK H PARENT 13 8 20 28
ROOT
ATOM      1  C   UNL     1       3.466  43.217  52.489  1.00  0.00     0.092 A 
ATOM      2  C   UNL     1       4.232  44.183  53.172  1.00  0.00     0.052 A 
ATOM      3  C   UNL     1       5.365  44.751  52.576  1.00  0.00     0.084 A 
ATOM      4  C   UNL     1       5.748  44.351  51.294  1.00  0.00     0.026 A 
ATOM      5  C   UNL     1       5.004  43.391  50.607  1.00  0.00     0.050 A 
ATOM      6  C   UNL     1       3.859  42.817  51.194  1.00  0.00     0.143 A 
ENDROOT
BRANCH   1   7
ATOM      7  N   UNL     1       2.294  42.630  53.093  1.00  0.00    -0.276 N 
ATOM      8  H   UNL     1       2.384  41.755  53.654  1.00  0.00     0.180 HD
BRANCH   7   9
ATOM      9  S   UNL     1       0.684  43.254  52.903  1.00  0.00     0.262 S 
ATOM     10  O   UNL     1       0.694  44.350  51.876  1.00  0.00    -0.201 OA
ATOM     11  O   UNL     1      -0.216  42.148  52.428  1.00  0.00    -0.201 OA
BRANCH   9  12
ATOM     12  C   UNL     1       0.112  43.916  54.432  1.00  0.00     0.095 A 
ATOM     13  C   UNL     1       0.473  45.303  56.396  1.00  0.00     0.123 A 
ATOM     14  C   UNL     1      -0.833  45.008  56.833  1.00  0.00     0.092 A 
ATOM     15  C   UNL     1       0.936  44.751  55.197  1.00  0.00     0.069 A 
ATOM     16  C   UNL     1      -1.665  44.161  56.073  1.00  0.00     0.123 A 
ATOM     17  C   UNL     1      -1.183  43.621  54.876  1.00  0.00     0.069 A 
BRANCH  13  18
ATOM     18  O   UNL     1       1.339  46.136  57.120  1.00  0.00    -0.497 OA
ATOM     19  C   UNL     1       0.999  46.787  58.340  1.00  0.00     0.278 C 
ENDBRANCH  13  18
BRANCH  16  20
ATOM     20  O   UNL     1      -2.972  43.835  56.470  1.00  0.00    -0.497 OA
ATOM     21  C   UNL     1      -3.298  42.820  57.413  1.00  0.00     0.278 C 
ENDBRANCH  16  20
ENDBRANCH   9  12
ENDBRANCH   7   9
ENDBRANCH   1   7
BRANCH   6  22
ATOM     22  O   UNL     1       3.092  41.852  50.519  1.00  0.00    -0.495 OA
ATOM     23  C   UNL     1       3.631  40.784  49.745  1.00  0.00     0.278 C 
ENDBRANCH   6  22
BRANCH   3  24
ATOM     24  S   UNL     1       6.315  45.962  53.432  1.00  0.00     0.241 S 
ATOM     25  O   UNL     1       5.782  47.311  53.039  1.00  0.00    -0.207 OA
ATOM     26  O   UNL     1       6.135  45.818  54.917  1.00  0.00    -0.207 OA
BRANCH  24  27
ATOM     27  N   UNL     1       8.015  45.909  53.021  1.00  0.00    -0.206 NA
ATOM     28  H   UNL     1       8.059  45.496  52.059  1.00  0.00     0.141 HD
BRANCH  27  29
ATOM     29  C   UNL     1       8.760  47.195  53.032  1.00  0.00     0.025 C 
ATOM     30  C   UNL     1       8.809  47.783  54.458  1.00  0.00     0.028 C 
ATOM     31  C   UNL     1      10.214  46.898  52.603  1.00  0.00     0.028 C 
ATOM     32  C   UNL     1       8.173  48.233  52.049  1.00  0.00     0.028 C 
ENDBRANCH  27  29
ENDBRANCH  24  27
ENDBRANCH   3  24
TORSDOF 9
ENDMDL
MODEL 3
REMARK VINA RESULT:    -8.362      1.784      2.612
REMARK INTER + INTRA:         -13.032
REMARK INTER:                 -12.910
REMARK INTRA:                  -0.123
REMARK UNBOUND:                -0.271
REMARK SMILES COc1cc(OC)cc(S(=O)(=O)Nc2cc(S(=O)(=O)NC(C)(C)C)ccc2OC)c1
REMARK SMILES IDX 14 1 15 2 16 3 25 4 26 5 27 6 13 7 10 9 11 10 12 11 9 12
REMARK SMILES IDX 3 13 4 14 30 15 5 16 8 17 2 18 1 19 6 20 7 21 28 22 29 23
REMARK SMILES IDX 17 24 18 25 19 26 20 27 21 29 22 30 23 31 24 32
REMARK H PARENT 13 8 20 28
ROOT
ATOM      1  C   UNL     1       3.390  43.676  52.696  1.00  0.00     0.092 A 
ATOM      2  C   UNL     1       4.193  44.589  53.407  1.00  0.00     0.052 A 
ATOM      3  C   UNL     1       5.421  45.019  52.890  1.00  0.00     0.084 A 
ATOM      4  C   UNL     1       5.862  44.533  51.657  1.00  0.00     0.026 A 
ATOM      5  C   UNL     1       5.082  43.623  50.942  1.00  0.00     0.050 A 
ATOM      6  C   UNL     1       3.842  43.188  51.450  1.00  0.00     0.143 A 
ENDROOT
BRANCH   1   7
ATOM      7  N   UNL     1       2.121  43.231  53.218  1.00  0.00    -0.276 N 
ATOM      8  H   UNL     1       2.061  42.321  53.726  1.00  0.00     0.180 HD
BRANCH   7   9
ATOM      9  S   UNL     1       0.627  44.091  53.012  1.00  0.00     0.262 S 
ATOM     10  O   UNL     1       0.912  45.458  52.458  1.00  0.00    -0.201 OA
ATOM     11  O   UNL     1      -0.240  43.340  52.040  1.00  0.00    -0.201 OA
BRANCH   9  12
ATOM     12  C   UNL     1      -0.183  44.268  54.567  1.00  0.00     0.095 A 
ATOM     13  C   UNL     1      -2.050  43.766  56.041  1.00  0.00     0.123 A 
ATOM     14  C   UNL     1      -1.431  44.511  57.064  1.00  0.00     0.092 A 
ATOM     15  C   UNL     1      -1.420  43.653  54.798  1.00  0.00     0.069 A 
ATOM     16  C   UNL     1      -0.190  45.140  56.836  1.00  0.00     0.123 A 
ATOM     17  C   UNL     1       0.423  45.012  55.586  1.00  0.00     0.069 A 
BRANCH  13  18
ATOM     18  O   UNL     1      -3.286  43.126  56.219  1.00  0.00    -0.497 OA
ATOM     19  C   UNL     1      -3.733  42.563  57.448  1.00  0.00     0.278 C 
ENDBRANCH  13  18
BRANCH  16  20
ATOM     20  O   UNL     1       0.463  45.896  57.823  1.00  0.00    -0.497 OA
ATOM     21  C   UNL     1       0.037  47.180  58.268  1.00  0.00     0.278 C 
ENDBRANCH  16  20
ENDBRANCH   9  12
ENDBRANCH   7   9
ENDBRANCH   1   7
BRANCH   6  22
ATOM     22  O   UNL     1       3.038  42.276  50.745  1.00  0.00    -0.495 OA
ATOM     23  C   UNL     1       3.531  41.159  50.012  1.00  0.00     0.278 C 
ENDBRANCH   6  22
BRANCH   3  24
ATOM     24  S   UNL     1       6.418  46.165  53.782  1.00  0.00     0.241 S 
ATOM     25  O   UNL     1       5.986  47.547  53.377  1.00  0.00    -0.207 OA
ATOM     26  O   UNL     1       6.179  46.029  55.260  1.00  0.00    -0.207 OA
BRANCH  24  27
ATOM     27  N   UNL     1       8.124  46.003  53.428  1.00  0.00    -0.206 NA
ATOM     28  H   UNL     1       8.177  45.400  52.573  1.00  0.00     0.141 HD
BRANCH  27  29
ATOM     29  C   UNL     1       8.892  47.254  53.190  1.00  0.00     0.025 C 
ATOM     30  C   UNL     1       9.195  47.969  54.523  1.00  0.00     0.028 C 
ATOM     31  C   UNL     1      10.245  46.859  52.557  1.00  0.00     0.028 C 
ATOM     32  C   UNL     1       8.174  48.219  52.220  1.00  0.00     0.028 C 
ENDBRANCH  27  29
ENDBRANCH  24  27
ENDBRANCH   3  24
TORSDOF 9
ENDMDL
MODEL 4
REMARK VINA RESULT:    -8.326      0.261      2.364
REMARK INTER + INTRA:         -12.977
REMARK INTER:                 -12.650
REMARK INTRA:                  -0.327
REMARK UNBOUND:                -0.271
REMARK SMILES COc1cc(OC)cc(S(=O)(=O)Nc2cc(S(=O)(=O)NC(C)(C)C)ccc2OC)c1
REMARK SMILES IDX 14 1 15 2 16 3 25 4 26 5 27 6 13 7 10 9 11 10 12 11 9 12
REMARK SMILES IDX 3 13 4 14 30 15 5 16 8 17 2 18 1 19 6 20 7 21 28 22 29 23
REMARK SMILES IDX 17 24 18 25 19 26 20 27 21 29 22 30 23 31 24 32
REMARK H PARENT 13 8 20 28
ROOT
ATOM      1  C   UNL     1       4.111  42.608  51.373  1.00  0.00     0.092 A 
ATOM      2  C   UNL     1       4.768  43.819  51.669  1.00  0.00     0.052 A 
ATOM      3  C   UNL     1       5.921  44.198  50.972  1.00  0.00     0.084 A 
ATOM      4  C   UNL     1       6.433  43.365  49.975  1.00  0.00     0.026 A 
ATOM      5  C   UNL     1       5.799  42.159  49.673  1.00  0.00     0.050 A 
ATOM      6  C   UNL     1       4.635  41.770  50.365  1.00  0.00     0.143 A 
ENDROOT
BRANCH   1   7
ATOM      7  N   UNL     1       2.919  42.211  52.083  1.00  0.00    -0.276 N 
ATOM      8  H   UNL     1       2.872  41.268  52.528  1.00  0.00     0.180 HD
BRANCH   7   9
ATOM      9  S   UNL     1       1.489  43.188  52.210  1.00  0.00     0.262 S 
ATOM     10  O   UNL     1       1.430  44.135  51.045  1.00  0.00    -0.201 OA
ATOM     11  O   UNL     1       0.281  42.294  52.174  1.00  0.00    -0.201 OA
BRANCH   9  12
ATOM     12  C   UNL     1       1.533  44.125  53.701  1.00  0.00     0.095 A 
ATOM     13  C   UNL     1       2.685  45.659  55.195  1.00  0.00     0.123 A 
ATOM     14  C   UNL     1       1.563  45.658  56.046  1.00  0.00     0.092 A 
ATOM     15  C   UNL     1       2.661  44.889  54.027  1.00  0.00     0.069 A 
ATOM     16  C   UNL     1       0.427  44.886  55.728  1.00  0.00     0.123 A 
ATOM     17  C   UNL     1       0.423  44.124  54.555  1.00  0.00     0.069 A 
BRANCH  13  18
ATOM     18  O   UNL     1       3.840  46.407  55.470  1.00  0.00    -0.497 OA
ATOM     19  C   UNL     1       5.141  46.088  54.988  1.00  0.00     0.278 C 
ENDBRANCH  13  18
BRANCH  16  20
ATOM     20  O   UNL     1      -0.712  44.850  56.548  1.00  0.00    -0.497 OA
ATOM     21  C   UNL     1      -1.525  45.979  56.847  1.00  0.00     0.278 C 
ENDBRANCH  16  20
ENDBRANCH   9  12
ENDBRANCH   7   9
ENDBRANCH   1   7
BRANCH   6  22
ATOM     22  O   UNL     1       3.976  40.563  50.074  1.00  0.00    -0.495 OA
ATOM     23  C   UNL     1       3.554  40.163  48.774  1.00  0.00     0.278 C 
ENDBRANCH   6  22
BRANCH   3  24
ATOM     24  S   UNL     1       6.735  45.715  51.343  1.00  0.00     0.241 S 
ATOM     25  O   UNL     1       7.508  46.121  50.119  1.00  0.00    -0.207 OA
ATOM     26  O   UNL     1       5.728  46.796  51.623  1.00  0.00    -0.207 OA
BRANCH  24  27
ATOM     27  N   UNL     1       7.860  45.576  52.675  1.00  0.00    -0.206 NA
ATOM     28  H   UNL     1       8.263  44.612  52.604  1.00  0.00     0.141 HD
BRANCH  27  29
ATOM     29  C   UNL     1       8.970  46.564  52.736  1.00  0.00     0.025 C 
ATOM     30  C   UNL     1       8.497  47.945  52.236  1.00  0.00     0.028 C 
ATOM     31  C   UNL     1       9.375  46.722  54.219  1.00  0.00     0.028 C 
ATOM     32  C   UNL     1      10.217  46.109  51.945  1.00  0.00     0.028 C 
ENDBRANCH  27  29
ENDBRANCH  24  27
ENDBRANCH   3  24
TORSDOF 9
ENDMDL
MODEL 5
REMARK VINA RESULT:    -8.251      2.399      7.686
REMARK INTER + INTRA:         -12.864
REMARK INTER:                 -12.319
REMARK INTRA:                  -0.545
REMARK UNBOUND:                -0.271
REMARK SMILES COc1cc(OC)cc(S(=O)(=O)Nc2cc(S(=O)(=O)NC(C)(C)C)ccc2OC)c1
REMARK SMILES IDX 14 1 15 2 16 3 25 4 26 5 27 6 13 7 10 9 11 10 12 11 9 12
REMARK SMILES IDX 3 13 4 14 30 15 5 16 8 17 2 18 1 19 6 20 7 21 28 22 29 23
REMARK SMILES IDX 17 24 18 25 19 26 20 27 21 29 22 30 23 31 24 32
REMARK H PARENT 13 8 20 28
ROOT
ATOM      1  C   UNL     1       2.839  45.114  52.731  1.00  0.00     0.092 A 
ATOM      2  C   UNL     1       1.531  45.258  53.236  1.00  0.00     0.052 A 
ATOM      3  C   UNL     1       0.717  44.138  53.447  1.00  0.00     0.084 A 
ATOM      4  C   UNL     1       1.201  42.863  53.148  1.00  0.00     0.026 A 
ATOM      5  C   UNL     1       2.491  42.704  52.641  1.00  0.00     0.050 A 
ATOM      6  C   UNL     1       3.322  43.822  52.429  1.00  0.00     0.143 A 
ENDROOT
BRANCH   1   7
ATOM      7  N   UNL     1       3.687  46.262  52.515  1.00  0.00    -0.276 N 
ATOM      8  H   UNL     1       3.599  46.810  51.631  1.00  0.00     0.180 HD
BRANCH   7   9
ATOM      9  S   UNL     1       4.921  46.783  53.619  1.00  0.00     0.262 S 
ATOM     10  O   UNL     1       4.704  48.230  53.959  1.00  0.00    -0.201 OA
ATOM     11  O   UNL     1       4.829  45.966  54.878  1.00  0.00    -0.201 OA
BRANCH   9  12
ATOM     12  C   UNL     1       6.507  46.608  52.872  1.00  0.00     0.095 A 
ATOM     13  C   UNL     1       8.928  46.811  52.991  1.00  0.00     0.123 A 
ATOM     14  C   UNL     1       9.027  46.268  51.694  1.00  0.00     0.092 A 
ATOM     15  C   UNL     1       7.665  46.978  53.569  1.00  0.00     0.069 A 
ATOM     16  C   UNL     1       7.866  45.901  50.984  1.00  0.00     0.123 A 
ATOM     17  C   UNL     1       6.613  46.075  51.582  1.00  0.00     0.069 A 
BRANCH  13  18
ATOM     18  O   UNL     1      10.053  47.196  53.734  1.00  0.00    -0.497 OA
ATOM     19  C   UNL     1      10.039  47.476  55.130  1.00  0.00     0.278 C 
ENDBRANCH  13  18
BRANCH  16  20
ATOM     20  O   UNL     1       7.915  45.361  49.689  1.00  0.00    -0.497 OA
ATOM     21  C   UNL     1       8.319  44.030  49.386  1.00  0.00     0.278 C 
ENDBRANCH  16  20
ENDBRANCH   9  12
ENDBRANCH   7   9
ENDBRANCH   1   7
BRANCH   6  22
ATOM     22  O   UNL     1       4.626  43.685  51.925  1.00  0.00    -0.495 OA
ATOM     23  C   UNL     1       4.992  42.829  50.847  1.00  0.00     0.278 C 
ENDBRANCH   6  22
BRANCH   3  24
ATOM     24  S   UNL     1      -0.915  44.324  54.084  1.00  0.00     0.241 S 
ATOM     25  O   UNL     1      -1.833  44.536  52.913  1.00  0.00    -0.207 OA
ATOM     26  O   UNL     1      -1.352  43.066  54.782  1.00  0.00    -0.207 OA
BRANCH  24  27
ATOM     27  N   UNL     1      -1.075  45.697  55.156  1.00  0.00    -0.206 NA
ATOM     28  H   UNL     1      -2.048  46.057  55.009  1.00  0.00     0.141 HD
BRANCH  27  29
ATOM     29  C   UNL     1      -0.858  45.458  56.607  1.00  0.00     0.025 C 
ATOM     30  C   UNL     1       0.581  44.965  56.869  1.00  0.00     0.028 C 
ATOM     31  C   UNL     1      -1.023  46.811  57.335  1.00  0.00     0.028 C 
ATOM     32  C   UNL     1      -1.878  44.464  57.207  1.00  0.00     0.028 C 
ENDBRANCH  27  29
ENDBRANCH  24  27
ENDBRANCH   3  24
TORSDOF 9
ENDMDL
