MODEL 1
REMARK VINA RESULT:    -8.551      0.000      0.000
REMARK INTER + INTRA:         -12.939
REMARK INTER:                 -11.550
REMARK INTRA:                  -1.389
REMARK UNBOUND:                -1.389
REMARK SMILES COc1ccc(-c2nc(CCNC(=O)c3cncc(F)c3)co2)cc1
REMARK SMILES IDX 10 1 9 2 7 3 8 4 23 5 22 6 6 7 3 8 4 9 25 10 5 11 24 12 2 13
REMARK SMILES IDX 1 14 11 15 12 16 13 17 14 18 15 20 16 21 21 22 17 23 19 24
REMARK SMILES IDX 18 25 20 26
REMARK H PARENT 12 19
ROOT
ATOM      1  C   UNL     1       0.979  44.042  54.211  1.00  0.00     0.081 C 
ENDROOT
BRANCH   1   2
ATOM      2  C   UNL     1       1.973  45.048  53.715  1.00  0.00     0.081 A 
ATOM      3  C   UNL     1       3.783  46.058  53.308  1.00  0.00     0.226 A 
ATOM      4  N   UNL     1       3.279  45.042  54.042  1.00  0.00    -0.214 NA
ATOM      5  O   UNL     1       2.868  46.652  52.570  1.00  0.00    -0.444 OA
ATOM      6  C   UNL     1       1.731  46.043  52.796  1.00  0.00     0.221 A 
BRANCH   3   7
ATOM      7  C   UNL     1       5.205  46.456  53.323  1.00  0.00     0.037 A 
ATOM      8  C   UNL     1       7.923  47.208  53.344  1.00  0.00     0.118 A 
ATOM      9  C   UNL     1       7.197  47.193  52.137  1.00  0.00     0.047 A 
ATOM     10  C   UNL     1       7.278  46.846  54.532  1.00  0.00     0.047 A 
ATOM     11  C   UNL     1       5.850  46.818  52.129  1.00  0.00     0.017 A 
ATOM     12  C   UNL     1       5.931  46.473  54.525  1.00  0.00     0.017 A 
BRANCH   8  13
ATOM     13  O   UNL     1       9.275  47.576  53.405  1.00  0.00    -0.497 OA
ATOM     14  C   UNL     1      10.152  47.240  54.475  1.00  0.00     0.278 C 
ENDBRANCH   8  13
ENDBRANCH   3   7
ENDBRANCH   1   2
BRANCH   1  15
ATOM     15  C   UNL     1       1.145  42.696  53.501  1.00  0.00     0.122 C 
BRANCH  15  16
ATOM     16  N   UNL     1       2.464  42.600  52.871  1.00  0.00    -0.352 N 
ATOM     17  C   UNL     1       2.649  42.683  51.448  1.00  0.00     0.252 C 
ATOM     18  O   UNL     1       1.651  42.861  50.696  1.00  0.00    -0.269 OA
ATOM     19  H   UNL     1       3.256  42.289  53.476  1.00  0.00     0.163 HD
BRANCH  17  20
ATOM     20  C   UNL     1       3.993  42.536  50.841  1.00  0.00     0.061 A 
ATOM     21  C   UNL     1       4.380  41.310  50.270  1.00  0.00     0.125 A 
ATOM     22  C   UNL     1       4.903  43.605  50.804  1.00  0.00     0.056 A 
ATOM     23  N   UNL     1       5.613  41.170  49.712  1.00  0.00    -0.261 NA
ATOM     24  C   UNL     1       6.162  43.434  50.225  1.00  0.00     0.142 A 
ATOM     25  C   UNL     1       6.503  42.195  49.680  1.00  0.00     0.150 A 
ATOM     26  F   UNL     1       7.043  44.463  50.185  1.00  0.00    -0.205 F 
ENDBRANCH  17  20
ENDBRANCH  15  16
ENDBRANCH   1  15
TORSDOF 6
ENDMDL
MODEL 2
REMARK VINA RESULT:    -7.891      2.798      6.476
REMARK INTER + INTRA:         -12.048
REMARK INTER:                 -11.198
REMARK INTRA:                  -0.850
REMARK UNBOUND:                -1.389
REMARK SMILES COc1ccc(-c2nc(CCNC(=O)c3cncc(F)c3)co2)cc1
REMARK SMILES IDX 10 1 9 2 7 3 8 4 23 5 22 6 6 7 3 8 4 9 25 10 5 11 24 12 2 13
REMARK SMILES IDX 1 14 11 15 12 16 13 17 14 18 15 20 16 21 21 22 17 23 19 24
REMARK SMILES IDX 18 25 20 26
REMARK H PARENT 12 19
ROOT
ATOM      1  C   UNL     1       6.514  43.055  48.773  1.00  0.00     0.081 C 
ENDROOT
BRANCH   1   2
ATOM      2  C   UNL     1       5.661  42.830  49.984  1.00  0.00     0.081 A 
ATOM      3  C   UNL     1       4.462  43.160  51.693  1.00  0.00     0.226 A 
ATOM      4  N   UNL     1       5.266  43.808  50.821  1.00  0.00    -0.214 NA
ATOM      5  O   UNL     1       4.353  41.876  51.421  1.00  0.00    -0.444 OA
ATOM      6  C   UNL     1       5.082  41.639  50.359  1.00  0.00     0.221 A 
BRANCH   3   7
ATOM      7  C   UNL     1       3.775  43.818  52.821  1.00  0.00     0.037 A 
ATOM      8  C   UNL     1       2.468  45.070  54.984  1.00  0.00     0.118 A 
ATOM      9  C   UNL     1       3.849  45.254  54.782  1.00  0.00     0.047 A 
ATOM     10  C   UNL     1       1.752  44.258  54.096  1.00  0.00     0.047 A 
ATOM     11  C   UNL     1       4.495  44.631  53.711  1.00  0.00     0.017 A 
ATOM     12  C   UNL     1       2.397  43.637  53.023  1.00  0.00     0.017 A 
BRANCH   8  13
ATOM     13  O   UNL     1       1.774  45.672  56.043  1.00  0.00    -0.497 OA
ATOM     14  C   UNL     1       0.619  45.118  56.666  1.00  0.00     0.278 C 
ENDBRANCH   8  13
ENDBRANCH   3   7
ENDBRANCH   1   2
BRANCH   1  15
ATOM     15  C   UNL     1       7.934  43.476  49.160  1.00  0.00     0.122 C 
BRANCH  15  16
ATOM     16  N   UNL     1       7.904  44.563  50.142  1.00  0.00    -0.352 N 
ATOM     17  C   UNL     1       9.097  45.103  50.735  1.00  0.00     0.252 C 
ATOM     18  O   UNL     1      10.225  44.648  50.397  1.00  0.00    -0.269 OA
ATOM     19  H   UNL     1       6.972  44.819  50.537  1.00  0.00     0.163 HD
BRANCH  17  20
ATOM     20  C   UNL     1       9.027  46.171  51.759  1.00  0.00     0.061 A 
ATOM     21  C   UNL     1       8.065  47.191  51.652  1.00  0.00     0.125 A 
ATOM     22  C   UNL     1       9.898  46.191  52.860  1.00  0.00     0.056 A 
ATOM     23  N   UNL     1       7.996  48.174  52.589  1.00  0.00    -0.261 NA
ATOM     24  C   UNL     1       9.807  47.212  53.809  1.00  0.00     0.142 A 
ATOM     25  C   UNL     1       8.840  48.207  53.653  1.00  0.00     0.150 A 
ATOM     26  F   UNL     1      10.643  47.234  54.875  1.00  0.00    -0.205 F 
ENDBRANCH  17  20
ENDBRANCH  15  16
ENDBRANCH   1  15
TORSDOF 6
ENDMDL
MODEL 3
REMARK VINA RESULT:    -7.703      2.368      5.479
REMARK INTER + INTRA:         -11.794
REMARK INTER:                 -10.589
REMARK INTRA:                  -1.205
REMARK UNBOUND:                -1.389
REMARK SMILES COc1ccc(-c2nc(CCNC(=O)c3cncc(F)c3)co2)cc1
REMARK SMILES IDX 10 1 9 2 7 3 8 4 23 5 22 6 6 7 3 8 4 9 25 10 5 11 24 12 2 13
REMARK SMILES IDX 1 14 11 15 12 16 13 17 14 18 15 20 16 21 21 22 17 23 19 24
REMARK SMILES IDX 18 25 20 26
REMARK H PARENT 12 19
ROOT
ATOM      1  C   UNL     1       8.020  47.506  51.914  1.00  0.00     0.081 C 
ENDROOT
BRANCH   1   2
ATOM      2  C   UNL     1       7.009  47.099  52.942  1.00  0.00     0.081 A 
ATOM      3  C   UNL     1       5.218  46.457  53.862  1.00  0.00     0.226 A 
ATOM      4  N   UNL     1       5.709  46.875  52.674  1.00  0.00    -0.214 NA
ATOM      5  O   UNL     1       6.140  46.413  54.802  1.00  0.00    -0.444 OA
ATOM      6  C   UNL     1       7.267  46.800  54.261  1.00  0.00     0.221 A 
BRANCH   3   7
ATOM      7  C   UNL     1       3.807  46.083  54.082  1.00  0.00     0.037 A 
ATOM      8  C   UNL     1       1.109  45.376  54.500  1.00  0.00     0.118 A 
ATOM      9  C   UNL     1       1.557  45.755  53.219  1.00  0.00     0.047 A 
ATOM     10  C   UNL     1       2.020  45.355  55.562  1.00  0.00     0.047 A 
ATOM     11  C   UNL     1       2.895  46.106  53.016  1.00  0.00     0.017 A 
ATOM     12  C   UNL     1       3.358  45.703  55.358  1.00  0.00     0.017 A 
BRANCH   8  13
ATOM     13  O   UNL     1      -0.222  45.016  54.756  1.00  0.00    -0.497 OA
ATOM     14  C   UNL     1      -0.807  43.776  54.369  1.00  0.00     0.278 C 
ENDBRANCH   8  13
ENDBRANCH   3   7
ENDBRANCH   1   2
BRANCH   1  15
ATOM     15  C   UNL     1       8.299  46.371  50.924  1.00  0.00     0.122 C 
BRANCH  15  16
ATOM     16  N   UNL     1       7.258  45.345  51.004  1.00  0.00    -0.352 N 
ATOM     17  C   UNL     1       7.194  44.234  50.093  1.00  0.00     0.252 C 
ATOM     18  O   UNL     1       8.069  44.114  49.192  1.00  0.00    -0.269 OA
ATOM     19  H   UNL     1       6.450  45.537  51.638  1.00  0.00     0.163 HD
BRANCH  17  20
ATOM     20  C   UNL     1       6.100  43.239  50.174  1.00  0.00     0.061 A 
ATOM     21  C   UNL     1       6.088  42.129  49.311  1.00  0.00     0.125 A 
ATOM     22  C   UNL     1       5.062  43.363  51.113  1.00  0.00     0.056 A 
ATOM     23  N   UNL     1       5.086  41.213  49.381  1.00  0.00    -0.261 NA
ATOM     24  C   UNL     1       4.045  42.407  51.164  1.00  0.00     0.142 A 
ATOM     25  C   UNL     1       4.074  41.328  50.279  1.00  0.00     0.150 A 
ATOM     26  F   UNL     1       3.043  42.521  52.070  1.00  0.00    -0.205 F 
ENDBRANCH  17  20
ENDBRANCH  15  16
ENDBRANCH   1  15
TORSDOF 6
ENDMDL
MODEL 4
REMARK VINA RESULT:    -7.690      2.220      4.477
REMARK INTER + INTRA:         -11.777
REMARK INTER:                 -10.509
REMARK INTRA:                  -1.268
REMARK UNBOUND:                -1.389
REMARK SMILES COc1ccc(-c2nc(CCNC(=O)c3cncc(F)c3)co2)cc1
REMARK SMILES IDX 10 1 9 2 7 3 8 4 23 5 22 6 6 7 3 8 4 9 25 10 5 11 24 12 2 13
REMARK SMILES IDX 1 14 11 15 12 16 13 17 14 18 15 20 16 21 21 22 17 23 19 24
REMARK SMILES IDX 18 25 20 26
REMARK H PARENT 12 19
ROOT
ATOM      1  C   UNL     1       4.405  41.220  50.089  1.00  0.00     0.081 C 
ENDROOT
BRANCH   1   2
ATOM      2  C   UNL     1       5.338  42.392  50.073  1.00  0.00     0.081 A 
ATOM      3  C   UNL     1       6.467  44.076  50.668  1.00  0.00     0.226 A 
ATOM      4  N   UNL     1       5.477  43.260  51.093  1.00  0.00    -0.214 NA
ATOM      5  O   UNL     1       6.921  43.743  49.478  1.00  0.00    -0.444 OA
ATOM      6  C   UNL     1       6.243  42.695  49.082  1.00  0.00     0.221 A 
BRANCH   3   7
ATOM      7  C   UNL     1       6.989  45.211  51.454  1.00  0.00     0.037 A 
ATOM      8  C   UNL     1       7.997  47.376  52.955  1.00  0.00     0.118 A 
ATOM      9  C   UNL     1       8.517  47.090  51.677  1.00  0.00     0.047 A 
ATOM     10  C   UNL     1       6.974  46.571  53.470  1.00  0.00     0.047 A 
ATOM     11  C   UNL     1       8.017  46.016  50.936  1.00  0.00     0.017 A 
ATOM     12  C   UNL     1       6.472  45.498  52.728  1.00  0.00     0.017 A 
BRANCH   8  13
ATOM     13  O   UNL     1       8.465  48.441  53.738  1.00  0.00    -0.497 OA
ATOM     14  C   UNL     1       9.205  48.287  54.945  1.00  0.00     0.278 C 
ENDBRANCH   8  13
ENDBRANCH   3   7
ENDBRANCH   1   2
BRANCH   1  15
ATOM     15  C   UNL     1       2.956  41.662  50.316  1.00  0.00     0.122 C 
BRANCH  15  16
ATOM     16  N   UNL     1       2.794  42.247  51.649  1.00  0.00    -0.352 N 
ATOM     17  C   UNL     1       2.103  43.488  51.870  1.00  0.00     0.252 C 
ATOM     18  O   UNL     1       1.595  44.104  50.893  1.00  0.00    -0.269 OA
ATOM     19  H   UNL     1       3.353  41.824  52.423  1.00  0.00     0.163 HD
BRANCH  17  20
ATOM     20  C   UNL     1       1.997  44.074  53.227  1.00  0.00     0.061 A 
ATOM     21  C   UNL     1       0.805  43.946  53.961  1.00  0.00     0.125 A 
ATOM     22  C   UNL     1       3.074  44.754  53.819  1.00  0.00     0.056 A 
ATOM     23  N   UNL     1       0.703  44.482  55.207  1.00  0.00    -0.261 NA
ATOM     24  C   UNL     1       2.943  45.295  55.100  1.00  0.00     0.142 A 
ATOM     25  C   UNL     1       1.736  45.149  55.784  1.00  0.00     0.150 A 
ATOM     26  F   UNL     1       3.980  45.950  55.676  1.00  0.00    -0.205 F 
ENDBRANCH  17  20
ENDBRANCH  15  16
ENDBRANCH   1  15
TORSDOF 6
ENDMDL
MODEL 5
REMARK VINA RESULT:    -7.651      2.319      6.803
REMARK INTER + INTRA:         -11.724
REMARK INTER:                 -10.934
REMARK INTRA:                  -0.790
REMARK UNBOUND:                -1.389
REMARK SMILES COc1ccc(-c2nc(CCNC(=O)c3cncc(F)c3)co2)cc1
REMARK SMILES IDX 10 1 9 2 7 3 8 4 23 5 22 6 6 7 3 8 4 9 25 10 5 11 24 12 2 13
REMARK SMILES IDX 1 14 11 15 12 16 13 17 14 18 15 20 16 21 21 22 17 23 19 24
REMARK SMILES IDX 18 25 20 26
REMARK H PARENT 12 19
ROOT
ATOM      1  C   UNL     1       7.775  43.499  48.938  1.00  0.00     0.081 C 
ENDROOT
BRANCH   1   2
ATOM      2  C   UNL     1       6.634  42.896  49.699  1.00  0.00     0.081 A 
ATOM      3  C   UNL     1       4.815  42.657  50.747  1.00  0.00     0.226 A 
ATOM      4  N   UNL     1       5.636  43.610  50.254  1.00  0.00    -0.214 NA
ATOM      5  O   UNL     1       5.257  41.438  50.514  1.00  0.00    -0.444 OA
ATOM      6  C   UNL     1       6.384  41.552  49.858  1.00  0.00     0.221 A 
BRANCH   3   7
ATOM      7  C   UNL     1       3.556  42.947  51.461  1.00  0.00     0.037 A 
ATOM      8  C   UNL     1       1.147  43.505  52.818  1.00  0.00     0.118 A 
ATOM      9  C   UNL     1       1.137  42.756  51.625  1.00  0.00     0.047 A 
ATOM     10  C   UNL     1       2.368  43.968  53.321  1.00  0.00     0.047 A 
ATOM     11  C   UNL     1       2.332  42.482  50.954  1.00  0.00     0.017 A 
ATOM     12  C   UNL     1       3.563  43.692  52.652  1.00  0.00     0.017 A 
BRANCH   8  13
ATOM     13  O   UNL     1      -0.024  43.806  53.528  1.00  0.00    -0.497 OA
ATOM     14  C   UNL     1      -0.065  44.597  54.711  1.00  0.00     0.278 C 
ENDBRANCH   8  13
ENDBRANCH   3   7
ENDBRANCH   1   2
BRANCH   1  15
ATOM     15  C   UNL     1       8.368  44.701  49.679  1.00  0.00     0.122 C 
BRANCH  15  16
ATOM     16  N   UNL     1       7.385  45.285  50.593  1.00  0.00    -0.352 N 
ATOM     17  C   UNL     1       7.762  46.020  51.770  1.00  0.00     0.252 C 
ATOM     18  O   UNL     1       8.984  46.193  52.034  1.00  0.00    -0.269 OA
ATOM     19  H   UNL     1       6.388  45.000  50.462  1.00  0.00     0.163 HD
BRANCH  17  20
ATOM     20  C   UNL     1       6.740  46.559  52.697  1.00  0.00     0.061 A 
ATOM     21  C   UNL     1       7.088  46.883  54.020  1.00  0.00     0.125 A 
ATOM     22  C   UNL     1       5.415  46.772  52.285  1.00  0.00     0.056 A 
ATOM     23  N   UNL     1       6.153  47.377  54.876  1.00  0.00    -0.261 NA
ATOM     24  C   UNL     1       4.475  47.281  53.184  1.00  0.00     0.142 A 
ATOM     25  C   UNL     1       4.867  47.579  54.490  1.00  0.00     0.150 A 
ATOM     26  F   UNL     1       3.195  47.491  52.791  1.00  0.00    -0.205 F 
ENDBRANCH  17  20
ENDBRANCH  15  16
ENDBRANCH   1  15
TORSDOF 6
ENDMDL
