MODEL 1
REMARK VINA RESULT:    -7.870      0.000      0.000
REMARK INTER + INTRA:         -10.794
REMARK INTER:                 -10.171
REMARK INTRA:                  -0.623
REMARK UNBOUND:                -0.623
REMARK SMILES CO[C@@]1(c2nnc3n2CCN(C(=O)OC(C)(C)C)C3)CCOC1
REMARK SMILES IDX 4 1 5 2 6 3 7 4 19 5 11 6 10 7 9 8 8 9 3 10 20 11 23 12
REMARK SMILES IDX 21 13 22 14 2 15 1 16 12 17 13 18 14 19 15 20 16 21 17 22
REMARK SMILES IDX 18 23
REMARK H PARENT
ROOT
ATOM      1  C   UNL     1       2.023  45.501  53.530  1.00  0.00     0.167 A 
ATOM      2  N   UNL     1       1.625  46.525  52.741  1.00  0.00    -0.132 NA
ATOM      3  N   UNL     1       2.699  47.241  52.441  1.00  0.00    -0.133 NA
ATOM      4  C   UNL     1       3.741  46.637  53.037  1.00  0.00     0.152 A 
ATOM      5  C   UNL     1       5.155  47.122  52.973  1.00  0.00     0.200 C 
ATOM      6  N   UNL     1       6.051  46.259  53.761  1.00  0.00    -0.299 N 
ATOM      7  C   UNL     1       5.707  44.838  53.960  1.00  0.00     0.145 C 
ATOM      8  C   UNL     1       4.273  44.694  54.483  1.00  0.00     0.147 C 
ATOM      9  N   UNL     1       3.366  45.532  53.700  1.00  0.00    -0.309 N 
ENDROOT
BRANCH   1  10
ATOM     10  C   UNL     1       1.046  44.431  54.030  1.00  0.00     0.153 C 
ATOM     11  C   UNL     1       1.364  43.118  53.344  1.00  0.00     0.075 C 
ATOM     12  C   UNL     1      -0.413  44.597  53.575  1.00  0.00     0.204 C 
ATOM     13  C   UNL     1       0.038  42.385  53.349  1.00  0.00     0.164 C 
ATOM     14  O   UNL     1      -1.004  43.325  53.446  1.00  0.00    -0.378 OA
BRANCH  10  15
ATOM     15  O   UNL     1       1.147  44.198  55.434  1.00  0.00    -0.368 OA
ATOM     16  C   UNL     1       0.604  45.236  56.226  1.00  0.00     0.196 C 
ENDBRANCH  10  15
ENDBRANCH   1  10
BRANCH   6  17
ATOM     17  C   UNL     1       7.373  46.740  54.070  1.00  0.00     0.410 C 
ATOM     18  O   UNL     1       7.542  47.570  55.005  1.00  0.00    -0.224 OA
BRANCH  17  19
ATOM     19  O   UNL     1       8.468  46.277  53.322  1.00  0.00    -0.444 OA
BRANCH  19  20
ATOM     20  C   UNL     1       8.787  46.631  51.968  1.00  0.00     0.106 C 
ATOM     21  C   UNL     1       8.488  48.120  51.710  1.00  0.00     0.056 C 
ATOM     22  C   UNL     1       8.010  45.741  50.977  1.00  0.00     0.056 C 
ATOM     23  C   UNL     1      10.292  46.387  51.778  1.00  0.00     0.056 C 
ENDBRANCH  19  20
ENDBRANCH  17  19
ENDBRANCH   6  17
TORSDOF 5
ENDMDL
MODEL 2
REMARK VINA RESULT:    -7.564      1.124      1.937
REMARK INTER + INTRA:         -10.398
REMARK INTER:                  -9.904
REMARK INTRA:                  -0.494
REMARK UNBOUND:                -0.623
REMARK SMILES CO[C@@]1(c2nnc3n2CCN(C(=O)OC(C)(C)C)C3)CCOC1
REMARK SMILES IDX 4 1 5 2 6 3 7 4 19 5 11 6 10 7 9 8 8 9 3 10 20 11 23 12
REMARK SMILES IDX 21 13 22 14 2 15 1 16 12 17 13 18 14 19 15 20 16 21 17 22
REMARK SMILES IDX 18 23
REMARK H PARENT
ROOT
ATOM      1  C   UNL     1       1.849  45.085  52.763  1.00  0.00     0.167 A 
ATOM      2  N   UNL     1       1.351  46.276  52.362  1.00  0.00    -0.132 NA
ATOM      3  N   UNL     1       2.343  47.154  52.384  1.00  0.00    -0.133 NA
ATOM      4  C   UNL     1       3.438  46.485  52.784  1.00  0.00     0.152 A 
ATOM      5  C   UNL     1       4.791  47.099  52.963  1.00  0.00     0.200 C 
ATOM      6  N   UNL     1       5.767  46.106  53.446  1.00  0.00    -0.299 N 
ATOM      7  C   UNL     1       5.579  44.679  53.120  1.00  0.00     0.145 C 
ATOM      8  C   UNL     1       4.164  44.220  53.487  1.00  0.00     0.147 C 
ATOM      9  N   UNL     1       3.179  45.186  53.001  1.00  0.00    -0.309 N 
ENDROOT
BRANCH   1  10
ATOM     10  C   UNL     1       0.991  43.817  52.810  1.00  0.00     0.153 C 
ATOM     11  C   UNL     1      -0.273  44.049  52.006  1.00  0.00     0.075 C 
ATOM     12  C   UNL     1       0.356  43.492  54.172  1.00  0.00     0.204 C 
ATOM     13  C   UNL     1      -1.278  43.112  52.644  1.00  0.00     0.164 C 
ATOM     14  O   UNL     1      -0.876  42.841  53.965  1.00  0.00    -0.378 OA
BRANCH  10  15
ATOM     15  O   UNL     1       1.640  42.682  52.237  1.00  0.00    -0.368 OA
ATOM     16  C   UNL     1       1.795  42.761  50.833  1.00  0.00     0.196 C 
ENDBRANCH  10  15
ENDBRANCH   1  10
BRANCH   6  17
ATOM     17  C   UNL     1       7.024  46.576  53.969  1.00  0.00     0.410 C 
ATOM     18  O   UNL     1       7.048  47.311  54.993  1.00  0.00    -0.224 OA
BRANCH  17  19
ATOM     19  O   UNL     1       8.219  46.208  53.327  1.00  0.00    -0.444 OA
BRANCH  19  20
ATOM     20  C   UNL     1       8.709  46.719  52.078  1.00  0.00     0.106 C 
ATOM     21  C   UNL     1       8.046  45.990  50.894  1.00  0.00     0.056 C 
ATOM     22  C   UNL     1      10.243  46.592  52.006  1.00  0.00     0.056 C 
ATOM     23  C   UNL     1       8.331  48.207  52.019  1.00  0.00     0.056 C 
ENDBRANCH  19  20
ENDBRANCH  17  19
ENDBRANCH   6  17
TORSDOF 5
ENDMDL
MODEL 3
REMARK VINA RESULT:    -7.363      1.566      2.426
REMARK INTER + INTRA:         -10.138
REMARK INTER:                  -9.782
REMARK INTRA:                  -0.357
REMARK UNBOUND:                -0.623
REMARK SMILES CO[C@@]1(c2nnc3n2CCN(C(=O)OC(C)(C)C)C3)CCOC1
REMARK SMILES IDX 4 1 5 2 6 3 7 4 19 5 11 6 10 7 9 8 8 9 3 10 20 11 23 12
REMARK SMILES IDX 21 13 22 14 2 15 1 16 12 17 13 18 14 19 15 20 16 21 17 22
REMARK SMILES IDX 18 23
REMARK H PARENT
ROOT
ATOM      1  C   UNL     1       2.017  45.158  54.313  1.00  0.00     0.167 A 
ATOM      2  N   UNL     1       2.277  45.648  55.546  1.00  0.00    -0.132 NA
ATOM      3  N   UNL     1       3.534  46.065  55.556  1.00  0.00    -0.133 NA
ATOM      4  C   UNL     1       4.021  45.840  54.323  1.00  0.00     0.152 A 
ATOM      5  C   UNL     1       5.421  46.151  53.893  1.00  0.00     0.200 C 
ATOM      6  N   UNL     1       5.649  45.750  52.494  1.00  0.00    -0.299 N 
ATOM      7  C   UNL     1       4.517  45.719  51.549  1.00  0.00     0.145 C 
ATOM      8  C   UNL     1       3.351  44.907  52.125  1.00  0.00     0.147 C 
ATOM      9  N   UNL     1       3.099  45.303  53.510  1.00  0.00    -0.309 N 
ENDROOT
BRANCH   1  10
ATOM     10  C   UNL     1       0.633  44.631  53.921  1.00  0.00     0.153 C 
ATOM     11  C   UNL     1      -0.301  44.774  55.106  1.00  0.00     0.075 C 
ATOM     12  C   UNL     1       0.533  43.111  53.713  1.00  0.00     0.204 C 
ATOM     13  C   UNL     1      -1.325  43.679  54.885  1.00  0.00     0.164 C 
ATOM     14  O   UNL     1      -0.758  42.678  54.074  1.00  0.00    -0.378 OA
BRANCH  10  15
ATOM     15  O   UNL     1       0.044  45.359  52.843  1.00  0.00    -0.368 OA
ATOM     16  C   UNL     1      -0.003  44.640  51.626  1.00  0.00     0.196 C 
ENDBRANCH  10  15
ENDBRANCH   1  10
BRANCH   6  17
ATOM     17  C   UNL     1       7.005  45.683  52.010  1.00  0.00     0.410 C 
ATOM     18  O   UNL     1       7.235  45.331  50.821  1.00  0.00    -0.224 OA
BRANCH  17  19
ATOM     19  O   UNL     1       8.063  46.011  52.874  1.00  0.00    -0.444 OA
BRANCH  19  20
ATOM     20  C   UNL     1       9.033  47.050  52.678  1.00  0.00     0.106 C 
ATOM     21  C   UNL     1       8.408  48.244  51.931  1.00  0.00     0.056 C 
ATOM     22  C   UNL     1      10.258  46.511  51.913  1.00  0.00     0.056 C 
ATOM     23  C   UNL     1       9.485  47.518  54.070  1.00  0.00     0.056 C 
ENDBRANCH  19  20
ENDBRANCH  17  19
ENDBRANCH   6  17
TORSDOF 5
ENDMDL
MODEL 4
REMARK VINA RESULT:    -7.237      1.943      7.437
REMARK INTER + INTRA:          -9.975
REMARK INTER:                  -9.453
REMARK INTRA:                  -0.522
REMARK UNBOUND:                -0.623
REMARK SMILES CO[C@@]1(c2nnc3n2CCN(C(=O)OC(C)(C)C)C3)CCOC1
REMARK SMILES IDX 4 1 5 2 6 3 7 4 19 5 11 6 10 7 9 8 8 9 3 10 20 11 23 12
REMARK SMILES IDX 21 13 22 14 2 15 1 16 12 17 13 18 14 19 15 20 16 21 17 22
REMARK SMILES IDX 18 23
REMARK H PARENT
ROOT
ATOM      1  C   UNL     1       7.018  46.474  52.107  1.00  0.00     0.167 A 
ATOM      2  N   UNL     1       7.417  45.673  51.094  1.00  0.00    -0.132 NA
ATOM      3  N   UNL     1       6.333  45.123  50.566  1.00  0.00    -0.133 NA
ATOM      4  C   UNL     1       5.284  45.607  51.254  1.00  0.00     0.152 A 
ATOM      5  C   UNL     1       3.857  45.236  51.000  1.00  0.00     0.200 C 
ATOM      6  N   UNL     1       2.954  45.910  51.949  1.00  0.00    -0.299 N 
ATOM      7  C   UNL     1       3.346  47.207  52.534  1.00  0.00     0.145 C 
ATOM      8  C   UNL     1       4.752  47.127  53.140  1.00  0.00     0.147 C 
ATOM      9  N   UNL     1       5.666  46.475  52.203  1.00  0.00    -0.309 N 
ENDROOT
BRANCH   1  10
ATOM     10  C   UNL     1       8.008  47.318  52.917  1.00  0.00     0.153 C 
ATOM     11  C   UNL     1       9.414  46.823  52.643  1.00  0.00     0.075 C 
ATOM     12  C   UNL     1       7.969  47.111  54.439  1.00  0.00     0.204 C 
ATOM     13  C   UNL     1      10.172  47.192  53.901  1.00  0.00     0.164 C 
ATOM     14  O   UNL     1       9.260  47.311  54.967  1.00  0.00    -0.378 OA
BRANCH  10  15
ATOM     15  O   UNL     1       7.982  48.700  52.562  1.00  0.00    -0.368 OA
ATOM     16  C   UNL     1       8.367  48.954  51.225  1.00  0.00     0.196 C 
ENDBRANCH  10  15
ENDBRANCH   1  10
BRANCH   6  17
ATOM     17  C   UNL     1       1.597  45.440  52.060  1.00  0.00     0.410 C 
ATOM     18  O   UNL     1       1.028  44.911  51.066  1.00  0.00    -0.224 OA
BRANCH  17  19
ATOM     19  O   UNL     1       0.916  45.578  53.281  1.00  0.00    -0.444 OA
BRANCH  19  20
ATOM     20  C   UNL     1       0.925  44.646  54.372  1.00  0.00     0.106 C 
ATOM     21  C   UNL     1       2.022  45.010  55.390  1.00  0.00     0.056 C 
ATOM     22  C   UNL     1       1.118  43.207  53.854  1.00  0.00     0.056 C 
ATOM     23  C   UNL     1      -0.445  44.744  55.062  1.00  0.00     0.056 C 
ENDBRANCH  19  20
ENDBRANCH  17  19
ENDBRANCH   6  17
TORSDOF 5
ENDMDL
MODEL 5
REMARK VINA RESULT:    -7.137      1.802      2.246
REMARK INTER + INTRA:          -9.847
REMARK INTER:                  -9.668
REMARK INTRA:                  -0.179
REMARK UNBOUND:                -0.623
REMARK SMILES CO[C@@]1(c2nnc3n2CCN(C(=O)OC(C)(C)C)C3)CCOC1
REMARK SMILES IDX 4 1 5 2 6 3 7 4 19 5 11 6 10 7 9 8 8 9 3 10 20 11 23 12
REMARK SMILES IDX 21 13 22 14 2 15 1 16 12 17 13 18 14 19 15 20 16 21 17 22
REMARK SMILES IDX 18 23
REMARK H PARENT
ROOT
ATOM      1  C   UNL     1       2.341  43.867  52.172  1.00  0.00     0.167 A 
ATOM      2  N   UNL     1       2.892  43.053  51.244  1.00  0.00    -0.132 NA
ATOM      3  N   UNL     1       4.208  43.188  51.321  1.00  0.00    -0.133 NA
ATOM      4  C   UNL     1       4.445  44.071  52.306  1.00  0.00     0.152 A 
ATOM      5  C   UNL     1       5.806  44.531  52.726  1.00  0.00     0.200 C 
ATOM      6  N   UNL     1       5.721  45.529  53.806  1.00  0.00    -0.299 N 
ATOM      7  C   UNL     1       4.569  45.511  54.728  1.00  0.00     0.145 C 
ATOM      8  C   UNL     1       3.249  45.493  53.949  1.00  0.00     0.147 C 
ATOM      9  N   UNL     1       3.309  44.496  52.882  1.00  0.00    -0.309 N 
ENDROOT
BRANCH   1  10
ATOM     10  C   UNL     1       0.828  43.932  52.404  1.00  0.00     0.153 C 
ATOM     11  C   UNL     1       0.125  43.234  51.257  1.00  0.00     0.075 C 
ATOM     12  C   UNL     1       0.192  45.324  52.268  1.00  0.00     0.204 C 
ATOM     13  C   UNL     1      -1.229  43.911  51.205  1.00  0.00     0.164 C 
ATOM     14  O   UNL     1      -1.125  45.187  51.788  1.00  0.00    -0.378 OA
BRANCH  10  15
ATOM     15  O   UNL     1       0.419  43.270  53.601  1.00  0.00    -0.368 OA
ATOM     16  C   UNL     1       0.097  44.152  54.659  1.00  0.00     0.196 C 
ENDBRANCH  10  15
ENDBRANCH   1  10
BRANCH   6  17
ATOM     17  C   UNL     1       6.893  46.306  54.118  1.00  0.00     0.410 C 
ATOM     18  O   UNL     1       6.824  47.245  54.957  1.00  0.00    -0.224 OA
BRANCH  17  19
ATOM     19  O   UNL     1       8.108  46.009  53.480  1.00  0.00    -0.444 OA
BRANCH  19  20
ATOM     20  C   UNL     1       9.095  46.955  53.039  1.00  0.00     0.106 C 
ATOM     21  C   UNL     1       9.915  47.480  54.232  1.00  0.00     0.056 C 
ATOM     22  C   UNL     1       8.428  48.120  52.282  1.00  0.00     0.056 C 
ATOM     23  C   UNL     1      10.036  46.213  52.078  1.00  0.00     0.056 C 
ENDBRANCH  19  20
ENDBRANCH  17  19
ENDBRANCH   6  17
TORSDOF 5
ENDMDL
