MODEL 1
REMARK VINA RESULT:    -8.612      0.000      0.000
REMARK INTER + INTRA:         -10.712
REMARK INTER:                 -10.122
REMARK INTRA:                  -0.590
REMARK UNBOUND:                -0.590
REMARK SMILES CN1CCc2ccc(NC(=O)CN3CCCNC3=O)cc2C1=O
REMARK SMILES IDX 9 1 10 2 11 3 8 5 2 6 3 7 22 8 4 9 21 10 23 11 5 12 20 13
REMARK SMILES IDX 6 14 7 15 1 16 12 17 13 18 14 19 18 20 15 21 17 22 19 23
REMARK SMILES IDX 16 24
REMARK H PARENT 9 4 17 25
ROOT
ATOM      1  N   UNL     1       4.223  45.511  50.859  1.00  0.00    -0.325 N 
ATOM      2  C   UNL     1       3.453  44.356  51.223  1.00  0.00     0.244 C 
ATOM      3  O   UNL     1       4.023  43.264  51.496  1.00  0.00    -0.273 OA
ATOM      4  H   UNL     1       3.736  46.275  50.338  1.00  0.00     0.169 HD
ENDROOT
BRANCH   1   5
ATOM      5  C   UNL     1       5.633  45.651  51.103  1.00  0.00     0.042 A 
ATOM      6  N   UNL     1       9.321  47.234  54.001  1.00  0.00    -0.341 N 
ATOM      7  C   UNL     1      10.193  47.182  52.820  1.00  0.00     0.124 C 
ATOM      8  C   UNL     1       7.918  46.959  53.841  1.00  0.00     0.253 C 
ATOM      9  C   UNL     1       9.862  45.958  51.960  1.00  0.00     0.058 C 
ATOM     10  C   UNL     1       7.441  46.350  52.582  1.00  0.00     0.045 A 
ATOM     11  O   UNL     1       7.108  47.223  54.772  1.00  0.00    -0.269 OA
ATOM     12  C   UNL     1       8.387  45.896  51.643  1.00  0.00    -0.033 A 
ATOM     13  C   UNL     1       6.069  46.220  52.308  1.00  0.00     0.040 A 
ATOM     14  C   UNL     1       7.949  45.288  50.457  1.00  0.00     0.007 A 
ATOM     15  C   UNL     1       6.584  45.168  50.188  1.00  0.00     0.026 A 
ATOM     16  C   UNL     1       9.854  47.611  55.312  1.00  0.00     0.147 C 
ENDBRANCH   1   5
BRANCH   2  17
ATOM     17  C   UNL     1       1.957  44.430  51.240  1.00  0.00     0.221 C 
BRANCH  17  18
ATOM     18  N   UNL     1       1.472  44.484  52.624  1.00  0.00    -0.315 N 
ATOM     19  C   UNL     1       0.980  43.266  53.281  1.00  0.00     0.124 C 
ATOM     20  C   UNL     1       1.509  45.717  53.367  1.00  0.00     0.317 C 
ATOM     21  C   UNL     1      -0.168  43.596  54.238  1.00  0.00     0.043 C 
ATOM     22  N   UNL     1       0.866  45.799  54.643  1.00  0.00    -0.338 N 
ATOM     23  O   UNL     1       2.079  46.736  52.890  1.00  0.00    -0.249 OA
ATOM     24  C   UNL     1       0.290  44.618  55.283  1.00  0.00     0.119 C 
ATOM     25  H   UNL     1       0.920  46.690  55.187  1.00  0.00     0.165 HD
ENDBRANCH  17  18
ENDBRANCH   2  17
TORSDOF 3
ENDMDL
MODEL 2
REMARK VINA RESULT:    -8.353      1.193      1.467
REMARK INTER + INTRA:         -10.408
REMARK INTER:                  -9.946
REMARK INTRA:                  -0.463
REMARK UNBOUND:                -0.590
REMARK SMILES CN1CCc2ccc(NC(=O)CN3CCCNC3=O)cc2C1=O
REMARK SMILES IDX 9 1 10 2 11 3 8 5 2 6 3 7 22 8 4 9 21 10 23 11 5 12 20 13
REMARK SMILES IDX 6 14 7 15 1 16 12 17 13 18 14 19 18 20 15 21 17 22 19 23
REMARK SMILES IDX 16 24
REMARK H PARENT 9 4 17 25
ROOT
ATOM      1  N   UNL     1       3.748  45.622  51.209  1.00  0.00    -0.325 N 
ATOM      2  C   UNL     1       2.976  44.578  51.821  1.00  0.00     0.244 C 
ATOM      3  O   UNL     1       3.533  43.521  52.227  1.00  0.00    -0.273 OA
ATOM      4  H   UNL     1       3.243  46.311  50.607  1.00  0.00     0.169 HD
ENDROOT
BRANCH   1   5
ATOM      5  C   UNL     1       5.178  45.734  51.313  1.00  0.00     0.042 A 
ATOM      6  N   UNL     1       9.162  47.232  53.841  1.00  0.00    -0.341 N 
ATOM      7  C   UNL     1       9.913  47.173  52.579  1.00  0.00     0.124 C 
ATOM      8  C   UNL     1       7.745  46.983  53.819  1.00  0.00     0.253 C 
ATOM      9  C   UNL     1       9.476  45.961  51.750  1.00  0.00     0.058 C 
ATOM     10  C   UNL     1       7.135  46.391  52.610  1.00  0.00     0.045 A 
ATOM     11  O   UNL     1       7.036  47.254  54.826  1.00  0.00    -0.269 OA
ATOM     12  C   UNL     1       7.976  45.927  51.579  1.00  0.00    -0.033 A 
ATOM     13  C   UNL     1       5.741  46.287  52.472  1.00  0.00     0.040 A 
ATOM     14  C   UNL     1       7.412  45.336  50.440  1.00  0.00     0.007 A 
ATOM     15  C   UNL     1       6.025  45.242  50.306  1.00  0.00     0.026 A 
ATOM     16  C   UNL     1       9.828  47.590  55.095  1.00  0.00     0.147 C 
ENDBRANCH   1   5
BRANCH   2  17
ATOM     17  C   UNL     1       1.490  44.722  51.944  1.00  0.00     0.221 C 
BRANCH  17  18
ATOM     18  N   UNL     1       1.121  44.937  53.348  1.00  0.00    -0.315 N 
ATOM     19  C   UNL     1       1.980  45.749  54.219  1.00  0.00     0.124 C 
ATOM     20  C   UNL     1      -0.101  44.390  53.879  1.00  0.00     0.317 C 
ATOM     21  C   UNL     1       1.964  45.206  55.650  1.00  0.00     0.043 C 
ATOM     22  N   UNL     1      -0.354  44.448  55.286  1.00  0.00    -0.338 N 
ATOM     23  O   UNL     1      -0.937  43.834  53.117  1.00  0.00    -0.249 OA
ATOM     24  C   UNL     1       0.532  45.178  56.191  1.00  0.00     0.119 C 
ATOM     25  H   UNL     1      -1.256  44.072  55.659  1.00  0.00     0.165 HD
ENDBRANCH  17  18
ENDBRANCH   2  17
TORSDOF 3
ENDMDL
MODEL 3
REMARK VINA RESULT:    -8.126      2.119      3.075
REMARK INTER + INTRA:         -10.141
REMARK INTER:                  -9.827
REMARK INTRA:                  -0.314
REMARK UNBOUND:                -0.590
REMARK SMILES CN1CCc2ccc(NC(=O)CN3CCCNC3=O)cc2C1=O
REMARK SMILES IDX 9 1 10 2 11 3 8 5 2 6 3 7 22 8 4 9 21 10 23 11 5 12 20 13
REMARK SMILES IDX 6 14 7 15 1 16 12 17 13 18 14 19 18 20 15 21 17 22 19 23
REMARK SMILES IDX 16 24
REMARK H PARENT 9 4 17 25
ROOT
ATOM      1  N   UNL     1       2.979  43.986  53.427  1.00  0.00    -0.325 N 
ATOM      2  C   UNL     1       1.912  44.830  53.885  1.00  0.00     0.244 C 
ATOM      3  O   UNL     1       2.083  46.074  54.005  1.00  0.00    -0.273 OA
ATOM      4  H   UNL     1       2.918  42.965  53.644  1.00  0.00     0.169 HD
ENDROOT
BRANCH   1   5
ATOM      5  C   UNL     1       4.155  44.467  52.755  1.00  0.00     0.042 A 
ATOM      6  N   UNL     1       8.437  46.948  52.906  1.00  0.00    -0.341 N 
ATOM      7  C   UNL     1       8.341  47.087  51.447  1.00  0.00     0.124 C 
ATOM      8  C   UNL     1       7.346  46.339  53.620  1.00  0.00     0.253 C 
ATOM      9  C   UNL     1       7.786  45.803  50.819  1.00  0.00     0.058 C 
ATOM     10  C   UNL     1       6.307  45.609  52.863  1.00  0.00     0.045 A 
ATOM     11  O   UNL     1       7.287  46.415  54.877  1.00  0.00    -0.269 OA
ATOM     12  C   UNL     1       6.500  45.381  51.486  1.00  0.00    -0.033 A 
ATOM     13  C   UNL     1       5.138  45.146  53.490  1.00  0.00     0.040 A 
ATOM     14  C   UNL     1       5.536  44.664  50.762  1.00  0.00     0.007 A 
ATOM     15  C   UNL     1       4.372  44.212  51.390  1.00  0.00     0.026 A 
ATOM     16  C   UNL     1       9.596  47.465  53.636  1.00  0.00     0.147 C 
ENDBRANCH   1   5
BRANCH   2  17
ATOM     17  C   UNL     1       0.594  44.228  54.264  1.00  0.00     0.221 C 
BRANCH  17  18
ATOM     18  N   UNL     1      -0.181  43.915  53.057  1.00  0.00    -0.315 N 
ATOM     19  C   UNL     1      -0.439  44.959  52.057  1.00  0.00     0.124 C 
ATOM     20  C   UNL     1      -0.663  42.579  52.820  1.00  0.00     0.317 C 
ATOM     21  C   UNL     1      -1.816  44.764  51.417  1.00  0.00     0.043 C 
ATOM     22  N   UNL     1      -1.570  42.331  51.740  1.00  0.00    -0.338 N 
ATOM     23  O   UNL     1      -0.316  41.630  53.573  1.00  0.00    -0.249 OA
ATOM     24  C   UNL     1      -1.912  43.376  50.777  1.00  0.00     0.119 C 
ATOM     25  H   UNL     1      -1.894  41.354  51.560  1.00  0.00     0.165 HD
ENDBRANCH  17  18
ENDBRANCH   2  17
TORSDOF 3
ENDMDL
MODEL 4
REMARK VINA RESULT:    -8.049      1.953      2.780
REMARK INTER + INTRA:         -10.051
REMARK INTER:                  -9.808
REMARK INTRA:                  -0.243
REMARK UNBOUND:                -0.590
REMARK SMILES CN1CCc2ccc(NC(=O)CN3CCCNC3=O)cc2C1=O
REMARK SMILES IDX 9 1 10 2 11 3 8 5 2 6 3 7 22 8 4 9 21 10 23 11 5 12 20 13
REMARK SMILES IDX 6 14 7 15 1 16 12 17 13 18 14 19 18 20 15 21 17 22 19 23
REMARK SMILES IDX 16 24
REMARK H PARENT 9 4 17 25
ROOT
ATOM      1  N   UNL     1       3.014  43.846  53.456  1.00  0.00    -0.325 N 
ATOM      2  C   UNL     1       1.667  44.247  53.161  1.00  0.00     0.244 C 
ATOM      3  O   UNL     1       1.440  45.312  52.524  1.00  0.00    -0.273 OA
ATOM      4  H   UNL     1       3.158  43.166  54.238  1.00  0.00     0.169 HD
ENDROOT
BRANCH   1   5
ATOM      5  C   UNL     1       4.176  44.373  52.796  1.00  0.00     0.042 A 
ATOM      6  N   UNL     1       8.345  47.037  52.984  1.00  0.00    -0.341 N 
ATOM      7  C   UNL     1       8.260  47.165  51.523  1.00  0.00     0.124 C 
ATOM      8  C   UNL     1       7.272  46.385  53.688  1.00  0.00     0.253 C 
ATOM      9  C   UNL     1       7.769  45.856  50.896  1.00  0.00     0.058 C 
ATOM     10  C   UNL     1       6.275  45.608  52.923  1.00  0.00     0.045 A 
ATOM     11  O   UNL     1       7.195  46.465  54.944  1.00  0.00    -0.269 OA
ATOM     12  C   UNL     1       6.494  45.382  51.550  1.00  0.00    -0.033 A 
ATOM     13  C   UNL     1       5.119  45.098  53.538  1.00  0.00     0.040 A 
ATOM     14  C   UNL     1       5.571  44.620  50.819  1.00  0.00     0.007 A 
ATOM     15  C   UNL     1       4.420  44.122  51.435  1.00  0.00     0.026 A 
ATOM     16  C   UNL     1       9.472  47.608  53.724  1.00  0.00     0.147 C 
ENDBRANCH   1   5
BRANCH   2  17
ATOM     17  C   UNL     1       0.517  43.420  53.648  1.00  0.00     0.221 C 
BRANCH  17  18
ATOM     18  N   UNL     1      -0.244  44.164  54.658  1.00  0.00    -0.315 N 
ATOM     19  C   UNL     1       0.447  45.083  55.572  1.00  0.00     0.124 C 
ATOM     20  C   UNL     1      -1.676  44.034  54.741  1.00  0.00     0.317 C 
ATOM     21  C   UNL     1      -0.225  45.080  56.948  1.00  0.00     0.043 C 
ATOM     22  N   UNL     1      -2.381  44.616  55.843  1.00  0.00    -0.338 N 
ATOM     23  O   UNL     1      -2.312  43.387  53.867  1.00  0.00    -0.249 OA
ATOM     24  C   UNL     1      -1.701  45.466  56.818  1.00  0.00     0.119 C 
ATOM     25  H   UNL     1      -3.422  44.539  55.881  1.00  0.00     0.165 HD
ENDBRANCH  17  18
ENDBRANCH   2  17
TORSDOF 3
ENDMDL
MODEL 5
REMARK VINA RESULT:    -6.881      2.369      4.027
REMARK INTER + INTRA:          -8.677
REMARK INTER:                  -8.277
REMARK INTRA:                  -0.400
REMARK UNBOUND:                -0.590
REMARK SMILES CN1CCc2ccc(NC(=O)CN3CCCNC3=O)cc2C1=O
REMARK SMILES IDX 9 1 10 2 11 3 8 5 2 6 3 7 22 8 4 9 21 10 23 11 5 12 20 13
REMARK SMILES IDX 6 14 7 15 1 16 12 17 13 18 14 19 18 20 15 21 17 22 19 23
REMARK SMILES IDX 16 24
REMARK H PARENT 9 4 17 25
ROOT
ATOM      1  N   UNL     1       1.096  43.384  51.812  1.00  0.00    -0.325 N 
ATOM      2  C   UNL     1       0.622  42.846  53.055  1.00  0.00     0.244 C 
ATOM      3  O   UNL     1       1.312  42.007  53.696  1.00  0.00    -0.273 OA
ATOM      4  H   UNL     1       0.391  43.804  51.164  1.00  0.00     0.169 HD
ENDROOT
BRANCH   1   5
ATOM      5  C   UNL     1       2.462  43.316  51.372  1.00  0.00     0.042 A 
ATOM      6  N   UNL     1       6.883  45.482  50.846  1.00  0.00    -0.341 N 
ATOM      7  C   UNL     1       7.185  44.482  49.812  1.00  0.00     0.124 C 
ATOM      8  C   UNL     1       5.568  45.504  51.429  1.00  0.00     0.253 C 
ATOM      9  C   UNL     1       6.625  43.112  50.209  1.00  0.00     0.058 C 
ATOM     10  C   UNL     1       4.660  44.359  51.204  1.00  0.00     0.045 A 
ATOM     11  O   UNL     1       5.202  46.482  52.136  1.00  0.00    -0.269 OA
ATOM     12  C   UNL     1       5.162  43.205  50.572  1.00  0.00    -0.033 A 
ATOM     13  C   UNL     1       3.314  44.406  51.604  1.00  0.00     0.040 A 
ATOM     14  C   UNL     1       4.320  42.100  50.379  1.00  0.00     0.007 A 
ATOM     15  C   UNL     1       2.981  42.155  50.773  1.00  0.00     0.026 A 
ATOM     16  C   UNL     1       7.882  46.477  51.242  1.00  0.00     0.147 C 
ENDBRANCH   1   5
BRANCH   2  17
ATOM     17  C   UNL     1      -0.722  43.250  53.580  1.00  0.00     0.221 C 
BRANCH  17  18
ATOM     18  N   UNL     1      -0.562  44.097  54.769  1.00  0.00    -0.315 N 
ATOM     19  C   UNL     1       0.530  45.076  54.834  1.00  0.00     0.124 C 
ATOM     20  C   UNL     1      -1.492  44.007  55.865  1.00  0.00     0.317 C 
ATOM     21  C   UNL     1       1.050  45.209  56.267  1.00  0.00     0.043 C 
ATOM     22  N   UNL     1      -1.219  44.698  57.088  1.00  0.00    -0.338 N 
ATOM     23  O   UNL     1      -2.530  43.299  55.767  1.00  0.00    -0.249 OA
ATOM     24  C   UNL     1      -0.087  45.615  57.209  1.00  0.00     0.119 C 
ATOM     25  H   UNL     1      -1.912  44.648  57.869  1.00  0.00     0.165 HD
ENDBRANCH  17  18
ENDBRANCH   2  17
TORSDOF 3
ENDMDL
