ligand_32_conformer_4_docked
     RDKit          3D

 42 45  0  0  0  0  0  0  0  0999 V2000
    5.5850   44.1740   51.8030 O   0  0  0  0  0  0  0  0  0  0  0  0
    5.6070   45.3970   51.5010 C   0  0  0  0  0  0  0  0  0  0  0  0
    4.7660   46.3310   52.1970 N   0  0  0  0  0  0  0  0  0  0  0  0
    3.6300   45.9610   52.9980 C   0  0  0  0  0  0  0  0  0  0  0  0
    3.8150   45.6170   54.3420 C   0  0  0  0  0  0  0  0  0  0  0  0
    2.7230   45.2770   55.1430 C   0  0  0  0  0  0  0  0  0  0  0  0
    1.4300   45.2980   54.5940 C   0  0  0  0  0  0  0  0  0  0  0  0
    0.2660   44.9590   55.3730 N   0  0  0  0  0  0  0  0  0  0  0  0
   -0.0140   45.3210   56.6430 C   0  0  0  0  0  0  0  0  0  0  0  0
   -1.2290   44.7750   56.9940 C   0  0  0  0  0  0  0  0  0  0  0  0
   -1.6390   44.0800   55.8750 C   0  0  0  0  0  0  0  0  0  0  0  0
   -0.7160   44.2060   54.9040 N   0  0  0  0  0  0  0  0  0  0  0  0
    1.2710   45.6610   53.2910 N   0  0  0  0  0  0  0  0  0  0  0  0
    2.3200   45.9910   52.4920 C   0  0  0  0  0  0  0  0  0  0  0  0
    6.6310   45.8880   50.5190 C   0  0  2  0  0  0  0  0  0  0  0  0
    7.8560   44.9920   50.3360 C   0  0  0  0  0  0  0  0  0  0  0  0
    8.0080   46.3480   51.0160 C   0  0  2  0  0  0  0  0  0  0  0  0
    8.4260   46.3630   52.5160 C   0  0  0  0  0  0  0  0  0  0  0  0
    8.0240   47.5420   53.4120 C   0  0  0  0  0  0  0  0  0  0  0  0
    9.0670   47.5620   54.5140 C   0  0  0  0  0  0  0  0  0  0  0  0
   10.3510   47.0680   53.8650 C   0  0  0  0  0  0  0  0  0  0  0  0
    9.9330   46.1660   52.7060 C   0  0  0  0  0  0  0  0  0  0  0  0
    5.0450   47.3390   52.1800 H   0  0  0  0  0  0  0  0  0  0  0  0
    4.8281   45.6145   54.7704 H   0  0  0  0  0  0  0  0  0  0  0  0
    2.8739   44.9950   56.1955 H   0  0  0  0  0  0  0  0  0  0  0  0
    0.6206   45.9461   57.2883 H   0  0  0  0  0  0  0  0  0  0  0  0
   -1.7561   44.8718   57.9546 H   0  0  0  0  0  0  0  0  0  0  0  0
   -2.5762   43.5105   55.7897 H   0  0  0  0  0  0  0  0  0  0  0  0
    2.1425   46.2824   51.4462 H   0  0  0  0  0  0  0  0  0  0  0  0
    5.8677   46.3486   49.8746 H   0  0  0  0  0  0  0  0  0  0  0  0
    7.9536   44.0683   50.9252 H   0  0  0  0  0  0  0  0  0  0  0  0
    8.3336   44.4966   49.4778 H   0  0  0  0  0  0  0  0  0  0  0  0
    8.5805   47.2749   50.8641 H   0  0  0  0  0  0  0  0  0  0  0  0
    7.8156   45.5149   52.8596 H   0  0  0  0  0  0  0  0  0  0  0  0
    8.0414   48.4841   52.8444 H   0  0  0  0  0  0  0  0  0  0  0  0
    7.0031   47.4349   53.8073 H   0  0  0  0  0  0  0  0  0  0  0  0
    9.1993   48.5835   54.9000 H   0  0  0  0  0  0  0  0  0  0  0  0
    8.7722   46.9335   55.3673 H   0  0  0  0  0  0  0  0  0  0  0  0
   10.9393   47.9189   53.4910 H   0  0  0  0  0  0  0  0  0  0  0  0
   10.9770   46.5230   54.5869 H   0  0  0  0  0  0  0  0  0  0  0  0
   10.4711   46.4518   51.7901 H   0  0  0  0  0  0  0  0  0  0  0  0
   10.1706   45.1132   52.9185 H   0  0  0  0  0  0  0  0  0  0  0  0
  1  2  2  0
  2  3  1  0
  3  4  1  0
  4  5  2  0
  5  6  1  0
  6  7  2  0
  7  8  1  0
  8  9  1  0
  9 10  2  0
 10 11  1  0
 11 12  2  0
  7 13  1  0
 13 14  2  0
  2 15  1  0
 15 16  1  0
 16 17  1  0
 17 18  1  0
 18 19  1  0
 19 20  1  0
 20 21  1  0
 21 22  1  0
 14  4  1  0
 17 15  1  0
 22 18  1  0
 12  8  1  0
  3 23  1  0
  5 24  1  0
  6 25  1  0
  9 26  1  0
 10 27  1  0
 11 28  1  0
 14 29  1  0
 15 30  1  6
 16 31  1  0
 16 32  1  0
 17 33  1  6
 18 34  1  0
 19 35  1  0
 19 36  1  0
 20 37  1  0
 20 38  1  0
 21 39  1  0
 21 40  1  0
 22 41  1  0
 22 42  1  0
M  END
>  <meeko>  (1) 
{"is_sidechain": [false], "free_energy": -8.184, "intermolecular_energy": -10.098, "internal_energy": -0.72}

$$$$
ligand_32_conformer_4_docked
     RDKit          3D

 42 45  0  0  0  0  0  0  0  0999 V2000
    4.3150   45.7390   51.3950 O   0  0  0  0  0  0  0  0  0  0  0  0
    4.6730   45.1160   52.4290 C   0  0  0  0  0  0  0  0  0  0  0  0
    5.0020   43.7190   52.3590 N   0  0  0  0  0  0  0  0  0  0  0  0
    4.6380   42.8530   51.2680 C   0  0  0  0  0  0  0  0  0  0  0  0
    5.6270   42.4010   50.3870 C   0  0  0  0  0  0  0  0  0  0  0  0
    5.2990   41.5410   49.3360 C   0  0  0  0  0  0  0  0  0  0  0  0
    3.9690   41.1190   49.1780 C   0  0  0  0  0  0  0  0  0  0  0  0
    3.5730   40.2320   48.1140 N   0  0  0  0  0  0  0  0  0  0  0  0
    3.6570   40.4460   46.7840 C   0  0  0  0  0  0  0  0  0  0  0  0
    3.1640   39.3380   46.1310 C   0  0  0  0  0  0  0  0  0  0  0  0
    2.7890   38.4730   47.1400 C   0  0  0  0  0  0  0  0  0  0  0  0
    3.0460   39.0380   48.3350 N   0  0  0  0  0  0  0  0  0  0  0  0
    3.0280   41.5520   50.0620 N   0  0  0  0  0  0  0  0  0  0  0  0
    3.3240   42.3920   51.0890 C   0  0  0  0  0  0  0  0  0  0  0  0
    4.9020   45.8830   53.7000 C   0  0  2  0  0  0  0  0  0  0  0  0
    5.1740   47.3780   53.5310 C   0  0  0  0  0  0  0  0  0  0  0  0
    6.2920   46.4560   54.0060 C   0  0  2  0  0  0  0  0  0  0  0  0
    7.5270   46.2770   53.0740 C   0  0  0  0  0  0  0  0  0  0  0  0
    8.9440   46.3570   53.6560 C   0  0  0  0  0  0  0  0  0  0  0  0
    9.8180   46.7790   52.4880 C   0  0  0  0  0  0  0  0  0  0  0  0
    8.9360   47.6690   51.6260 C   0  0  0  0  0  0  0  0  0  0  0  0
    7.4960   47.2240   51.8700 C   0  0  0  0  0  0  0  0  0  0  0  0
    5.6090   43.3260   53.1140 H   0  0  0  0  0  0  0  0  0  0  0  0
    6.6694   42.7250   50.5229 H   0  0  0  0  0  0  0  0  0  0  0  0
    6.0764   41.1972   48.6378 H   0  0  0  0  0  0  0  0  0  0  0  0
    4.0525   41.3526   46.3027 H   0  0  0  0  0  0  0  0  0  0  0  0
    3.0862   39.1776   45.0455 H   0  0  0  0  0  0  0  0  0  0  0  0
    2.3483   37.4762   46.9906 H   0  0  0  0  0  0  0  0  0  0  0  0
    2.5316   42.7115   51.7819 H   0  0  0  0  0  0  0  0  0  0  0  0
    4.2029   45.2520   54.2684 H   0  0  0  0  0  0  0  0  0  0  0  0
    5.2159   47.8181   52.5237 H   0  0  0  0  0  0  0  0  0  0  0  0
    4.7118   48.2991   53.9156 H   0  0  0  0  0  0  0  0  0  0  0  0
    6.9568   46.3647   54.8776 H   0  0  0  0  0  0  0  0  0  0  0  0
    7.3779   45.2183   52.8152 H   0  0  0  0  0  0  0  0  0  0  0  0
    8.9899   47.1022   54.4638 H   0  0  0  0  0  0  0  0  0  0  0  0
    9.2682   45.4015   54.0941 H   0  0  0  0  0  0  0  0  0  0  0  0
   10.6957   47.3373   52.8458 H   0  0  0  0  0  0  0  0  0  0  0  0
   10.1982   45.9126   51.9270 H   0  0  0  0  0  0  0  0  0  0  0  0
    9.0618   48.7227   51.9156 H   0  0  0  0  0  0  0  0  0  0  0  0
    9.2033   47.5817   50.5626 H   0  0  0  0  0  0  0  0  0  0  0  0
    6.8617   48.0955   52.0892 H   0  0  0  0  0  0  0  0  0  0  0  0
    7.0804   46.7235   50.9830 H   0  0  0  0  0  0  0  0  0  0  0  0
  1  2  2  0
  2  3  1  0
  3  4  1  0
  4  5  2  0
  5  6  1  0
  6  7  2  0
  7  8  1  0
  8  9  1  0
  9 10  2  0
 10 11  1  0
 11 12  2  0
  7 13  1  0
 13 14  2  0
  2 15  1  0
 15 16  1  0
 16 17  1  0
 17 18  1  0
 18 19  1  0
 19 20  1  0
 20 21  1  0
 21 22  1  0
 14  4  1  0
 17 15  1  0
 22 18  1  0
 12  8  1  0
  3 23  1  0
  5 24  1  0
  6 25  1  0
  9 26  1  0
 10 27  1  0
 11 28  1  0
 14 29  1  0
 15 30  1  1
 16 31  1  0
 16 32  1  0
 17 33  1  1
 18 34  1  0
 19 35  1  0
 19 36  1  0
 20 37  1  0
 20 38  1  0
 21 39  1  0
 21 40  1  0
 22 41  1  0
 22 42  1  0
M  END
>  <meeko>  (2) 
{"is_sidechain": [false], "free_energy": -7.911, "intermolecular_energy": -9.861, "internal_energy": -0.62}

$$$$
ligand_32_conformer_4_docked
     RDKit          3D

 42 45  0  0  0  0  0  0  0  0999 V2000
    6.9930   46.5100   54.9190 O   0  0  0  0  0  0  0  0  0  0  0  0
    7.0430   47.1040   53.8100 C   0  0  0  0  0  0  0  0  0  0  0  0
    5.8770   47.1790   52.9730 N   0  0  0  0  0  0  0  0  0  0  0  0
    4.7160   46.3410   53.1210 C   0  0  0  0  0  0  0  0  0  0  0  0
    4.7670   45.0100   52.6920 C   0  0  0  0  0  0  0  0  0  0  0  0
    3.6580   44.1740   52.8470 C   0  0  0  0  0  0  0  0  0  0  0  0
    2.4940   44.6740   53.4520 C   0  0  0  0  0  0  0  0  0  0  0  0
    1.3220   43.8580   53.6400 N   0  0  0  0  0  0  0  0  0  0  0  0
    0.1870   44.1780   54.2970 C   0  0  0  0  0  0  0  0  0  0  0  0
   -0.6720   43.1030   54.2330 C   0  0  0  0  0  0  0  0  0  0  0  0
    0.0140   42.1470   53.5130 C   0  0  0  0  0  0  0  0  0  0  0  0
    1.2220   42.6270   53.1630 N   0  0  0  0  0  0  0  0  0  0  0  0
    2.4760   45.9660   53.8840 N   0  0  0  0  0  0  0  0  0  0  0  0
    3.5410   46.7980   53.7390 C   0  0  0  0  0  0  0  0  0  0  0  0
    8.2850   47.8640   53.4440 C   0  0  2  0  0  0  0  0  0  0  0  0
    8.3540   48.3620   51.9990 C   0  0  0  0  0  0  0  0  0  0  0  0
    9.2920   47.2520   52.4610 C   0  0  2  0  0  0  0  0  0  0  0  0
    9.1250   45.8460   51.8130 C   0  0  0  0  0  0  0  0  0  0  0  0
   10.3240   45.1640   51.1410 C   0  0  0  0  0  0  0  0  0  0  0  0
    9.7110   44.2200   50.1230 C   0  0  0  0  0  0  0  0  0  0  0  0
    8.4370   44.9050   49.6540 C   0  0  0  0  0  0  0  0  0  0  0  0
    7.9750   45.8000   50.8010 C   0  0  0  0  0  0  0  0  0  0  0  0
    5.8410   47.9420   52.2600 H   0  0  0  0  0  0  0  0  0  0  0  0
    5.6857   44.6194   52.2299 H   0  0  0  0  0  0  0  0  0  0  0  0
    3.6968   43.1317   52.4975 H   0  0  0  0  0  0  0  0  0  0  0  0
   -0.0174   45.1354   54.7987 H   0  0  0  0  0  0  0  0  0  0  0  0
   -1.6821   43.0243   54.6615 H   0  0  0  0  0  0  0  0  0  0  0  0
   -0.3676   41.1460   53.2632 H   0  0  0  0  0  0  0  0  0  0  0  0
    3.4821   47.8329   54.1071 H   0  0  0  0  0  0  0  0  0  0  0  0
    8.3795   48.2987   54.4500 H   0  0  0  0  0  0  0  0  0  0  0  0
    7.5358   48.1341   51.2999 H   0  0  0  0  0  0  0  0  0  0  0  0
    8.4894   49.3440   51.5223 H   0  0  0  0  0  0  0  0  0  0  0  0
   10.3761   47.0760   52.5228 H   0  0  0  0  0  0  0  0  0  0  0  0
    8.9389   45.2694   52.7311 H   0  0  0  0  0  0  0  0  0  0  0  0
   10.9644   45.9075   50.6439 H   0  0  0  0  0  0  0  0  0  0  0  0
   10.9621   44.6367   51.8654 H   0  0  0  0  0  0  0  0  0  0  0  0
   10.3985   44.0656   49.2783 H   0  0  0  0  0  0  0  0  0  0  0  0
    9.5078   43.2287   50.5543 H   0  0  0  0  0  0  0  0  0  0  0  0
    8.6394   45.5104   48.7581 H   0  0  0  0  0  0  0  0  0  0  0  0
    7.6644   44.1678   49.3903 H   0  0  0  0  0  0  0  0  0  0  0  0
    7.7569   46.8118   50.4284 H   0  0  0  0  0  0  0  0  0  0  0  0
    7.0563   45.4093   51.2629 H   0  0  0  0  0  0  0  0  0  0  0  0
  1  2  2  0
  2  3  1  0
  3  4  1  0
  4  5  2  0
  5  6  1  0
  6  7  2  0
  7  8  1  0
  8  9  1  0
  9 10  2  0
 10 11  1  0
 11 12  2  0
  7 13  1  0
 13 14  2  0
  2 15  1  0
 15 16  1  0
 16 17  1  0
 17 18  1  0
 18 19  1  0
 19 20  1  0
 20 21  1  0
 21 22  1  0
 14  4  1  0
 17 15  1  0
 22 18  1  0
 12  8  1  0
  3 23  1  0
  5 24  1  0
  6 25  1  0
  9 26  1  0
 10 27  1  0
 11 28  1  0
 14 29  1  0
 15 30  1  1
 16 31  1  0
 16 32  1  0
 17 33  1  1
 18 34  1  0
 19 35  1  0
 19 36  1  0
 20 37  1  0
 20 38  1  0
 21 39  1  0
 21 40  1  0
 22 41  1  0
 22 42  1  0
M  END
>  <meeko>  (3) 
{"is_sidechain": [false], "free_energy": -7.641, "intermolecular_energy": -9.566, "internal_energy": -0.581}

$$$$
ligand_32_conformer_4_docked
     RDKit          3D

 42 45  0  0  0  0  0  0  0  0999 V2000
    1.7550   46.3430   52.3530 O   0  0  0  0  0  0  0  0  0  0  0  0
    1.4450   45.7280   53.4080 C   0  0  0  0  0  0  0  0  0  0  0  0
    2.3650   45.6670   54.5100 N   0  0  0  0  0  0  0  0  0  0  0  0
    3.7700   45.9600   54.4120 C   0  0  0  0  0  0  0  0  0  0  0  0
    4.6630   44.9450   54.0500 C   0  0  0  0  0  0  0  0  0  0  0  0
    6.0280   45.2130   53.9270 C   0  0  0  0  0  0  0  0  0  0  0  0
    6.5000   46.5170   54.1550 C   0  0  0  0  0  0  0  0  0  0  0  0
    7.8950   46.8520   54.0410 N   0  0  0  0  0  0  0  0  0  0  0  0
    8.7430   46.5400   53.0380 C   0  0  0  0  0  0  0  0  0  0  0  0
    9.9840   47.0560   53.3380 C   0  0  0  0  0  0  0  0  0  0  0  0
    9.8210   47.6790   54.5580 C   0  0  0  0  0  0  0  0  0  0  0  0
    8.5450   47.5420   54.9660 N   0  0  0  0  0  0  0  0  0  0  0  0
    5.6090   47.4940   54.4820 N   0  0  0  0  0  0  0  0  0  0  0  0
    4.2770   47.2540   54.6120 C   0  0  0  0  0  0  0  0  0  0  0  0
    0.0490   45.1960   53.5580 C   0  0  2  0  0  0  0  0  0  0  0  0
   -0.1190   44.0540   54.5620 C   0  0  0  0  0  0  0  0  0  0  0  0
   -0.2840   43.7800   53.0710 C   0  0  2  0  0  0  0  0  0  0  0  0
    0.7480   42.8330   52.3910 C   0  0  0  0  0  0  0  0  0  0  0  0
    2.1290   42.6230   53.0250 C   0  0  0  0  0  0  0  0  0  0  0  0
    3.0280   42.2260   51.8680 C   0  0  0  0  0  0  0  0  0  0  0  0
    2.4800   42.9670   50.6580 C   0  0  0  0  0  0  0  0  0  0  0  0
    0.9930   43.1910   50.9220 C   0  0  0  0  0  0  0  0  0  0  0  0
    1.9710   45.4700   55.4580 H   0  0  0  0  0  0  0  0  0  0  0  0
    4.2869   43.9287   53.8610 H   0  0  0  0  0  0  0  0  0  0  0  0
    6.7282   44.4098   53.6538 H   0  0  0  0  0  0  0  0  0  0  0  0
    8.4859   45.9696   52.1333 H   0  0  0  0  0  0  0  0  0  0  0  0
   10.9028   46.9867   52.7372 H   0  0  0  0  0  0  0  0  0  0  0  0
   10.6115   48.2064   55.1121 H   0  0  0  0  0  0  0  0  0  0  0  0
    3.5947   48.0759   54.8746 H   0  0  0  0  0  0  0  0  0  0  0  0
   -0.4032   46.1826   53.3788 H   0  0  0  0  0  0  0  0  0  0  0  0
    0.7571   43.6614   55.0989 H   0  0  0  0  0  0  0  0  0  0  0  0
   -0.7407   43.8905   55.4546 H   0  0  0  0  0  0  0  0  0  0  0  0
   -1.0608   43.3912   52.3961 H   0  0  0  0  0  0  0  0  0  0  0  0
    0.2127   41.8833   52.5378 H   0  0  0  0  0  0  0  0  0  0  0  0
    2.4864   43.5522   53.4928 H   0  0  0  0  0  0  0  0  0  0  0  0
    2.1112   41.8614   53.8185 H   0  0  0  0  0  0  0  0  0  0  0  0
    4.0668   42.5284   52.0665 H   0  0  0  0  0  0  0  0  0  0  0  0
    3.0366   41.1372   51.7116 H   0  0  0  0  0  0  0  0  0  0  0  0
    2.9942   43.9321   50.5388 H   0  0  0  0  0  0  0  0  0  0  0  0
    2.6370   42.3905   49.7345 H   0  0  0  0  0  0  0  0  0  0  0  0
    0.7298   44.2433   50.7393 H   0  0  0  0  0  0  0  0  0  0  0  0
    0.3751   42.5715   50.2554 H   0  0  0  0  0  0  0  0  0  0  0  0
  1  2  2  0
  2  3  1  0
  3  4  1  0
  4  5  2  0
  5  6  1  0
  6  7  2  0
  7  8  1  0
  8  9  1  0
  9 10  2  0
 10 11  1  0
 11 12  2  0
  7 13  1  0
 13 14  2  0
  2 15  1  0
 15 16  1  0
 16 17  1  0
 17 18  1  0
 18 19  1  0
 19 20  1  0
 20 21  1  0
 21 22  1  0
 14  4  1  0
 17 15  1  0
 22 18  1  0
 12  8  1  0
  3 23  1  0
  5 24  1  0
  6 25  1  0
  9 26  1  0
 10 27  1  0
 11 28  1  0
 14 29  1  0
 15 30  1  1
 16 31  1  0
 16 32  1  0
 17 33  1  1
 18 34  1  0
 19 35  1  0
 19 36  1  0
 20 37  1  0
 20 38  1  0
 21 39  1  0
 21 40  1  0
 22 41  1  0
 22 42  1  0
M  END
>  <meeko>  (4) 
{"is_sidechain": [false], "free_energy": -7.533, "intermolecular_energy": -9.46, "internal_energy": -0.555}

$$$$
ligand_32_conformer_4_docked
     RDKit          3D

 42 45  0  0  0  0  0  0  0  0999 V2000
    1.3650   45.6740   53.1900 O   0  0  0  0  0  0  0  0  0  0  0  0
    1.4320   44.8160   54.1100 C   0  0  0  0  0  0  0  0  0  0  0  0
    2.6640   44.6060   54.8190 N   0  0  0  0  0  0  0  0  0  0  0  0
    3.9530   45.0490   54.3570 C   0  0  0  0  0  0  0  0  0  0  0  0
    4.6190   46.0700   55.0440 C   0  0  0  0  0  0  0  0  0  0  0  0
    5.8810   46.4980   54.6260 C   0  0  0  0  0  0  0  0  0  0  0  0
    6.4870   45.8850   53.5170 C   0  0  0  0  0  0  0  0  0  0  0  0
    7.7870   46.2840   53.0430 N   0  0  0  0  0  0  0  0  0  0  0  0
    8.8740   46.6040   53.7770 C   0  0  0  0  0  0  0  0  0  0  0  0
    9.9010   46.9280   52.9180 C   0  0  0  0  0  0  0  0  0  0  0  0
    9.3630   46.7840   51.6550 C   0  0  0  0  0  0  0  0  0  0  0  0
    8.0790   46.3920   51.7560 N   0  0  0  0  0  0  0  0  0  0  0  0
    5.8310   44.8760   52.8790 N   0  0  0  0  0  0  0  0  0  0  0  0
    4.6010   44.4470   53.2660 C   0  0  0  0  0  0  0  0  0  0  0  0
    0.1750   44.1300   54.5600 C   0  0  2  0  0  0  0  0  0  0  0  0
   -1.1280   44.8760   54.2650 C   0  0  0  0  0  0  0  0  0  0  0  0
   -0.6530   44.7270   55.7060 C   0  0  2  0  0  0  0  0  0  0  0  0
   -0.2580   46.0230   56.4750 C   0  0  0  0  0  0  0  0  0  0  0  0
    0.7700   45.9560   57.6120 C   0  0  0  0  0  0  0  0  0  0  0  0
    0.4420   47.1430   58.4990 C   0  0  0  0  0  0  0  0  0  0  0  0
   -1.0650   47.3200   58.3960 C   0  0  0  0  0  0  0  0  0  0  0  0
   -1.4760   46.7670   57.0330 C   0  0  0  0  0  0  0  0  0  0  0  0
    2.6080   44.1690   55.7670 H   0  0  0  0  0  0  0  0  0  0  0  0
    4.1454   46.5387   55.9192 H   0  0  0  0  0  0  0  0  0  0  0  0
    6.3965   47.3090   55.1612 H   0  0  0  0  0  0  0  0  0  0  0  0
    8.9301   46.6057   54.8756 H   0  0  0  0  0  0  0  0  0  0  0  0
   10.9244   47.2341   53.1807 H   0  0  0  0  0  0  0  0  0  0  0  0
    9.9003   46.9620   50.7118 H   0  0  0  0  0  0  0  0  0  0  0  0
    4.1112   43.6254   52.7229 H   0  0  0  0  0  0  0  0  0  0  0  0
    0.5904   43.1295   54.3693 H   0  0  0  0  0  0  0  0  0  0  0  0
   -1.0983   45.8609   53.7761 H   0  0  0  0  0  0  0  0  0  0  0  0
   -2.0552   44.6344   53.7247 H   0  0  0  0  0  0  0  0  0  0  0  0
   -1.0313   44.3022   56.6475 H   0  0  0  0  0  0  0  0  0  0  0  0
    0.2507   46.5475   55.6527 H   0  0  0  0  0  0  0  0  0  0  0  0
    0.6688   45.0142   58.1713 H   0  0  0  0  0  0  0  0  0  0  0  0
    1.8046   45.9881   57.2398 H   0  0  0  0  0  0  0  0  0  0  0  0
    0.7353   46.9387   59.5393 H   0  0  0  0  0  0  0  0  0  0  0  0
    0.9825   48.0487   58.1867 H   0  0  0  0  0  0  0  0  0  0  0  0
   -1.5686   46.7626   59.1995 H   0  0  0  0  0  0  0  0  0  0  0  0
   -1.3485   48.3780   58.4972 H   0  0  0  0  0  0  0  0  0  0  0  0
   -2.3244   46.0757   57.1444 H   0  0  0  0  0  0  0  0  0  0  0  0
   -1.7906   47.5751   56.3563 H   0  0  0  0  0  0  0  0  0  0  0  0
  1  2  2  0
  2  3  1  0
  3  4  1  0
  4  5  2  0
  5  6  1  0
  6  7  2  0
  7  8  1  0
  8  9  1  0
  9 10  2  0
 10 11  1  0
 11 12  2  0
  7 13  1  0
 13 14  2  0
  2 15  1  0
 15 16  1  0
 16 17  1  0
 17 18  1  0
 18 19  1  0
 19 20  1  0
 20 21  1  0
 21 22  1  0
 14  4  1  0
 17 15  1  0
 22 18  1  0
 12  8  1  0
  3 23  1  0
  5 24  1  0
  6 25  1  0
  9 26  1  0
 10 27  1  0
 11 28  1  0
 14 29  1  0
 15 30  1  1
 16 31  1  0
 16 32  1  0
 17 33  1  1
 18 34  1  0
 19 35  1  0
 19 36  1  0
 20 37  1  0
 20 38  1  0
 21 39  1  0
 21 40  1  0
 22 41  1  0
 22 42  1  0
M  END
>  <meeko>  (5) 
{"is_sidechain": [false], "free_energy": -7.308, "intermolecular_energy": -9.012, "internal_energy": -0.725}

$$$$
