MODEL 1
REMARK VINA RESULT:    -9.769      0.000      0.000
REMARK INTER + INTRA:         -12.896
REMARK INTER:                 -12.339
REMARK INTRA:                  -0.557
REMARK UNBOUND:                -0.557
REMARK SMILES Cc1cc(F)c2nc(O)cc(C(=O)N3CC[C@@H](Nc4ccccc4)C3)c2c1
REMARK SMILES IDX 12 1 13 2 11 3 2 4 3 5 27 6 4 7 26 8 6 9 7 10 10 11 8 12
REMARK SMILES IDX 1 13 5 14 9 15 14 17 15 18 25 19 16 20 17 21 18 22 19 24
REMARK SMILES IDX 20 25 24 26 21 27 23 28 22 29
REMARK H PARENT 9 16 18 23
ROOT
ATOM      1  C   UNL     1       5.100  45.370  50.985  1.00  0.00     0.254 C 
ATOM      2  O   UNL     1       4.648  46.118  50.075  1.00  0.00    -0.269 OA
ENDROOT
BRANCH   1   3
ATOM      3  C   UNL     1       5.509  45.973  52.269  1.00  0.00     0.054 A 
ATOM      4  C   UNL     1       9.232  46.358  51.985  1.00  0.00    -0.047 A 
ATOM      5  C   UNL     1       9.511  46.956  53.222  1.00  0.00     0.045 A 
ATOM      6  C   UNL     1       7.911  46.013  51.662  1.00  0.00     0.014 A 
ATOM      7  C   UNL     1       8.479  47.233  54.121  1.00  0.00     0.149 A 
ATOM      8  C   UNL     1       6.857  46.297  52.556  1.00  0.00     0.017 A 
ATOM      9  C   UNL     1       7.157  46.906  53.799  1.00  0.00     0.111 A 
ATOM     10  N   UNL     1       6.163  47.167  54.688  1.00  0.00    -0.210 NA
ATOM     11  C   UNL     1       4.519  46.262  53.217  1.00  0.00     0.082 A 
ATOM     12  C   UNL     1       4.866  46.862  54.430  1.00  0.00     0.212 A 
ATOM     13  C   UNL     1      10.349  46.019  51.042  1.00  0.00     0.044 C 
ATOM     14  F   UNL     1       8.769  47.812  55.314  1.00  0.00    -0.205 F 
BRANCH  12  15
ATOM     15  O   UNL     1       3.892  47.154  55.382  1.00  0.00    -0.493 OA
ATOM     16  H   UNL     1       3.019  47.602  55.127  1.00  0.00     0.295 HD
ENDBRANCH  12  15
ENDBRANCH   1   3
BRANCH   1  17
ATOM     17  N   UNL     1       5.193  43.952  50.764  1.00  0.00    -0.336 N 
ATOM     18  C   UNL     1       4.213  42.993  51.253  1.00  0.00     0.122 C 
ATOM     19  C   UNL     1       6.339  43.334  50.121  1.00  0.00     0.144 C 
ATOM     20  C   UNL     1       4.705  41.615  50.819  1.00  0.00     0.048 C 
ATOM     21  C   UNL     1       6.098  41.827  50.207  1.00  0.00     0.100 C 
BRANCH  21  22
ATOM     22  N   UNL     1       6.259  41.149  48.911  1.00  0.00    -0.380 N 
ATOM     23  H   UNL     1       7.142  40.600  48.797  1.00  0.00     0.160 HD
BRANCH  22  24
ATOM     24  C   UNL     1       5.340  41.156  47.794  1.00  0.00     0.034 A 
ATOM     25  C   UNL     1       4.101  40.482  47.818  1.00  0.00     0.025 A 
ATOM     26  C   UNL     1       5.694  41.868  46.633  1.00  0.00     0.025 A 
ATOM     27  C   UNL     1       3.249  40.523  46.712  1.00  0.00     0.002 A 
ATOM     28  C   UNL     1       4.838  41.905  45.528  1.00  0.00     0.002 A 
ATOM     29  C   UNL     1       3.616  41.233  45.568  1.00  0.00     0.000 A 
ENDBRANCH  22  24
ENDBRANCH  21  22
ENDBRANCH   1  17
TORSDOF 5
ENDMDL
MODEL 2
REMARK VINA RESULT:    -9.735      3.112      6.900
REMARK INTER + INTRA:         -12.853
REMARK INTER:                 -12.228
REMARK INTRA:                  -0.625
REMARK UNBOUND:                -0.557
REMARK SMILES Cc1cc(F)c2nc(O)cc(C(=O)N3CC[C@@H](Nc4ccccc4)C3)c2c1
REMARK SMILES IDX 12 1 13 2 11 3 2 4 3 5 27 6 4 7 26 8 6 9 7 10 10 11 8 12
REMARK SMILES IDX 1 13 5 14 9 15 14 17 15 18 25 19 16 20 17 21 18 22 19 24
REMARK SMILES IDX 20 25 24 26 21 27 23 28 22 29
REMARK H PARENT 9 16 18 23
ROOT
ATOM      1  C   UNL     1       3.504  45.802  52.145  1.00  0.00     0.254 C 
ATOM      2  O   UNL     1       3.126  46.838  51.534  1.00  0.00    -0.269 OA
ENDROOT
BRANCH   1   3
ATOM      3  C   UNL     1       2.978  44.488  51.721  1.00  0.00     0.054 A 
ATOM      4  C   UNL     1       5.889  42.801  50.057  1.00  0.00    -0.047 A 
ATOM      5  C   UNL     1       5.302  41.572  49.725  1.00  0.00     0.045 A 
ATOM      6  C   UNL     1       5.125  43.783  50.706  1.00  0.00     0.014 A 
ATOM      7  C   UNL     1       3.971  41.312  50.060  1.00  0.00     0.149 A 
ATOM      8  C   UNL     1       3.783  43.530  51.061  1.00  0.00     0.017 A 
ATOM      9  C   UNL     1       3.209  42.280  50.721  1.00  0.00     0.111 A 
ATOM     10  N   UNL     1       1.910  42.021  51.029  1.00  0.00    -0.210 NA
ATOM     11  C   UNL     1       1.645  44.175  52.019  1.00  0.00     0.082 A 
ATOM     12  C   UNL     1       1.124  42.929  51.661  1.00  0.00     0.212 A 
ATOM     13  C   UNL     1       7.304  43.094  49.653  1.00  0.00     0.044 C 
ATOM     14  F   UNL     1       3.420  40.116  49.729  1.00  0.00    -0.205 F 
BRANCH  12  15
ATOM     15  O   UNL     1      -0.199  42.604  51.950  1.00  0.00    -0.493 OA
ATOM     16  H   UNL     1      -0.971  43.027  51.447  1.00  0.00     0.295 HD
ENDBRANCH  12  15
ENDBRANCH   1   3
BRANCH   1  17
ATOM     17  N   UNL     1       4.447  45.913  53.225  1.00  0.00    -0.336 N 
ATOM     18  C   UNL     1       4.665  44.871  54.218  1.00  0.00     0.122 C 
ATOM     19  C   UNL     1       5.195  47.130  53.487  1.00  0.00     0.144 C 
ATOM     20  C   UNL     1       5.721  45.408  55.180  1.00  0.00     0.048 C 
ATOM     21  C   UNL     1       5.967  46.870  54.781  1.00  0.00     0.100 C 
BRANCH  21  22
ATOM     22  N   UNL     1       7.397  47.197  54.667  1.00  0.00    -0.380 N 
ATOM     23  H   UNL     1       7.799  47.742  55.464  1.00  0.00     0.160 HD
BRANCH  22  24
ATOM     24  C   UNL     1       8.296  46.847  53.588  1.00  0.00     0.034 A 
ATOM     25  C   UNL     1       7.842  46.432  52.319  1.00  0.00     0.025 A 
ATOM     26  C   UNL     1       9.682  46.925  53.813  1.00  0.00     0.025 A 
ATOM     27  C   UNL     1       8.753  46.107  51.311  1.00  0.00     0.002 A 
ATOM     28  C   UNL     1      10.590  46.598  52.802  1.00  0.00     0.002 A 
ATOM     29  C   UNL     1      10.125  46.189  51.552  1.00  0.00     0.000 A 
ENDBRANCH  22  24
ENDBRANCH  21  22
ENDBRANCH   1  17
TORSDOF 5
ENDMDL
MODEL 3
REMARK VINA RESULT:    -9.560      2.525      4.659
REMARK INTER + INTRA:         -12.631
REMARK INTER:                 -12.862
REMARK INTRA:                   0.231
REMARK UNBOUND:                -0.557
REMARK SMILES Cc1cc(F)c2nc(O)cc(C(=O)N3CC[C@@H](Nc4ccccc4)C3)c2c1
REMARK SMILES IDX 12 1 13 2 11 3 2 4 3 5 27 6 4 7 26 8 6 9 7 10 10 11 8 12
REMARK SMILES IDX 1 13 5 14 9 15 14 17 15 18 25 19 16 20 17 21 18 22 19 24
REMARK SMILES IDX 20 25 24 26 21 27 23 28 22 29
REMARK H PARENT 9 16 18 23
ROOT
ATOM      1  C   UNL     1       5.761  45.108  51.186  1.00  0.00     0.254 C 
ATOM      2  O   UNL     1       6.268  45.432  50.077  1.00  0.00    -0.269 OA
ENDROOT
BRANCH   1   3
ATOM      3  C   UNL     1       6.078  45.914  52.382  1.00  0.00     0.054 A 
ATOM      4  C   UNL     1       9.806  46.334  52.275  1.00  0.00    -0.047 A 
ATOM      5  C   UNL     1       9.995  47.125  53.416  1.00  0.00     0.045 A 
ATOM      6  C   UNL     1       8.513  45.913  51.929  1.00  0.00     0.014 A 
ATOM      7  C   UNL     1       8.903  47.517  54.194  1.00  0.00     0.149 A 
ATOM      8  C   UNL     1       7.399  46.310  52.698  1.00  0.00     0.017 A 
ATOM      9  C   UNL     1       7.610  47.114  53.845  1.00  0.00     0.111 A 
ATOM     10  N   UNL     1       6.556  47.490  54.617  1.00  0.00    -0.210 NA
ATOM     11  C   UNL     1       5.023  46.328  53.207  1.00  0.00     0.082 A 
ATOM     12  C   UNL     1       5.282  47.119  54.329  1.00  0.00     0.212 A 
ATOM     13  C   UNL     1      10.987  45.875  51.471  1.00  0.00     0.044 C 
ATOM     14  F   UNL     1       9.108  48.283  55.296  1.00  0.00    -0.205 F 
BRANCH  12  15
ATOM     15  O   UNL     1       4.245  47.536  55.159  1.00  0.00    -0.493 OA
ATOM     16  H   UNL     1       4.248  48.452  55.593  1.00  0.00     0.295 HD
ENDBRANCH  12  15
ENDBRANCH   1   3
BRANCH   1  17
ATOM     17  N   UNL     1       4.876  43.977  51.263  1.00  0.00    -0.336 N 
ATOM     18  C   UNL     1       5.250  42.630  50.858  1.00  0.00     0.122 C 
ATOM     19  C   UNL     1       3.483  44.100  51.654  1.00  0.00     0.144 C 
ATOM     20  C   UNL     1       4.020  41.755  51.084  1.00  0.00     0.048 C 
ATOM     21  C   UNL     1       2.880  42.706  51.477  1.00  0.00     0.100 C 
BRANCH  21  22
ATOM     22  N   UNL     1       2.141  42.249  52.665  1.00  0.00    -0.380 N 
ATOM     23  H   UNL     1       2.310  41.256  52.946  1.00  0.00     0.160 HD
BRANCH  22  24
ATOM     24  C   UNL     1       1.220  43.016  53.476  1.00  0.00     0.034 A 
ATOM     25  C   UNL     1       1.636  44.074  54.311  1.00  0.00     0.025 A 
ATOM     26  C   UNL     1      -0.148  42.694  53.431  1.00  0.00     0.025 A 
ATOM     27  C   UNL     1       0.705  44.784  55.073  1.00  0.00     0.002 A 
ATOM     28  C   UNL     1      -1.076  43.406  54.196  1.00  0.00     0.002 A 
ATOM     29  C   UNL     1      -0.650  44.451  55.017  1.00  0.00     0.000 A 
ENDBRANCH  22  24
ENDBRANCH  21  22
ENDBRANCH   1  17
TORSDOF 5
ENDMDL
MODEL 4
REMARK VINA RESULT:    -9.260      2.147      3.757
REMARK INTER + INTRA:         -12.254
REMARK INTER:                 -12.042
REMARK INTRA:                  -0.211
REMARK UNBOUND:                -0.557
REMARK SMILES Cc1cc(F)c2nc(O)cc(C(=O)N3CC[C@@H](Nc4ccccc4)C3)c2c1
REMARK SMILES IDX 12 1 13 2 11 3 2 4 3 5 27 6 4 7 26 8 6 9 7 10 10 11 8 12
REMARK SMILES IDX 1 13 5 14 9 15 14 17 15 18 25 19 16 20 17 21 18 22 19 24
REMARK SMILES IDX 20 25 24 26 21 27 23 28 22 29
REMARK H PARENT 9 16 18 23
ROOT
ATOM      1  C   UNL     1       5.346  46.231  52.114  1.00  0.00     0.254 C 
ATOM      2  O   UNL     1       5.127  47.343  52.669  1.00  0.00    -0.269 OA
ENDROOT
BRANCH   1   3
ATOM      3  C   UNL     1       6.693  45.952  51.577  1.00  0.00     0.054 A 
ATOM      4  C   UNL     1       9.039  47.511  54.057  1.00  0.00    -0.047 A 
ATOM      5  C   UNL     1      10.269  47.168  53.479  1.00  0.00     0.045 A 
ATOM      6  C   UNL     1       7.845  47.127  53.429  1.00  0.00     0.014 A 
ATOM      7  C   UNL     1      10.311  46.425  52.297  1.00  0.00     0.149 A 
ATOM      8  C   UNL     1       7.872  46.366  52.241  1.00  0.00     0.017 A 
ATOM      9  C   UNL     1       9.125  46.025  51.674  1.00  0.00     0.111 A 
ATOM     10  N   UNL     1       9.178  45.315  50.516  1.00  0.00    -0.210 NA
ATOM     11  C   UNL     1       6.798  45.220  50.387  1.00  0.00     0.082 A 
ATOM     12  C   UNL     1       8.058  44.909  49.866  1.00  0.00     0.212 A 
ATOM     13  C   UNL     1       8.999  48.350  55.301  1.00  0.00     0.044 C 
ATOM     14  F   UNL     1      11.513  46.103  51.752  1.00  0.00    -0.205 F 
BRANCH  12  15
ATOM     15  O   UNL     1       8.177  44.184  48.683  1.00  0.00    -0.493 OA
ATOM     16  H   UNL     1       8.265  43.175  48.687  1.00  0.00     0.295 HD
ENDBRANCH  12  15
ENDBRANCH   1   3
BRANCH   1  17
ATOM     17  N   UNL     1       4.293  45.255  52.030  1.00  0.00    -0.336 N 
ATOM     18  C   UNL     1       2.973  45.536  51.486  1.00  0.00     0.122 C 
ATOM     19  C   UNL     1       4.420  43.920  52.585  1.00  0.00     0.144 C 
ATOM     20  C   UNL     1       2.173  44.242  51.606  1.00  0.00     0.048 C 
ATOM     21  C   UNL     1       3.051  43.264  52.401  1.00  0.00     0.100 C 
BRANCH  21  22
ATOM     22  N   UNL     1       3.133  41.936  51.774  1.00  0.00    -0.380 N 
ATOM     23  H   UNL     1       2.624  41.170  52.272  1.00  0.00     0.160 HD
BRANCH  22  24
ATOM     24  C   UNL     1       3.832  41.580  50.558  1.00  0.00     0.034 A 
ATOM     25  C   UNL     1       5.170  41.949  50.308  1.00  0.00     0.025 A 
ATOM     26  C   UNL     1       3.149  40.832  49.581  1.00  0.00     0.025 A 
ATOM     27  C   UNL     1       5.799  41.578  49.116  1.00  0.00     0.002 A 
ATOM     28  C   UNL     1       3.781  40.464  48.390  1.00  0.00     0.002 A 
ATOM     29  C   UNL     1       5.105  40.837  48.158  1.00  0.00     0.000 A 
ENDBRANCH  22  24
ENDBRANCH  21  22
ENDBRANCH   1  17
TORSDOF 5
ENDMDL
MODEL 5
REMARK VINA RESULT:    -8.877      3.312      5.973
REMARK INTER + INTRA:         -11.769
REMARK INTER:                 -11.562
REMARK INTRA:                  -0.207
REMARK UNBOUND:                -0.557
REMARK SMILES Cc1cc(F)c2nc(O)cc(C(=O)N3CC[C@@H](Nc4ccccc4)C3)c2c1
REMARK SMILES IDX 12 1 13 2 11 3 2 4 3 5 27 6 4 7 26 8 6 9 7 10 10 11 8 12
REMARK SMILES IDX 1 13 5 14 9 15 14 17 15 18 25 19 16 20 17 21 18 22 19 24
REMARK SMILES IDX 20 25 24 26 21 27 23 28 22 29
REMARK H PARENT 9 16 18 23
ROOT
ATOM      1  C   UNL     1       5.053  45.889  51.753  1.00  0.00     0.254 C 
ATOM      2  O   UNL     1       4.809  47.086  52.068  1.00  0.00    -0.269 OA
ENDROOT
BRANCH   1   3
ATOM      3  C   UNL     1       6.397  45.540  51.251  1.00  0.00     0.054 A 
ATOM      4  C   UNL     1       8.758  47.317  53.565  1.00  0.00    -0.047 A 
ATOM      5  C   UNL     1       9.985  46.903  53.028  1.00  0.00     0.045 A 
ATOM      6  C   UNL     1       7.560  46.885  52.976  1.00  0.00     0.014 A 
ATOM      7  C   UNL     1      10.020  46.042  51.928  1.00  0.00     0.149 A 
ATOM      8  C   UNL     1       7.580  46.007  51.872  1.00  0.00     0.017 A 
ATOM      9  C   UNL     1       8.830  45.594  51.346  1.00  0.00     0.111 A 
ATOM     10  N   UNL     1       8.876  44.769  50.268  1.00  0.00    -0.210 NA
ATOM     11  C   UNL     1       6.496  44.689  50.142  1.00  0.00     0.082 A 
ATOM     12  C   UNL     1       7.752  44.312  49.659  1.00  0.00     0.212 A 
ATOM     13  C   UNL     1       8.726  48.279  54.716  1.00  0.00     0.044 C 
ATOM     14  F   UNL     1      11.218  45.652  51.423  1.00  0.00    -0.205 F 
BRANCH  12  15
ATOM     15  O   UNL     1       7.865  43.469  48.557  1.00  0.00    -0.493 OA
ATOM     16  H   UNL     1       8.654  43.526  47.924  1.00  0.00     0.295 HD
ENDBRANCH  12  15
ENDBRANCH   1   3
BRANCH   1  17
ATOM     17  N   UNL     1       4.032  44.887  51.905  1.00  0.00    -0.336 N 
ATOM     18  C   UNL     1       4.209  43.662  52.669  1.00  0.00     0.122 C 
ATOM     19  C   UNL     1       2.758  44.960  51.212  1.00  0.00     0.144 C 
ATOM     20  C   UNL     1       2.900  42.886  52.550  1.00  0.00     0.048 C 
ATOM     21  C   UNL     1       2.034  43.654  51.540  1.00  0.00     0.100 C 
BRANCH  21  22
ATOM     22  N   UNL     1       0.659  43.868  52.018  1.00  0.00    -0.380 N 
ATOM     23  H   UNL     1      -0.088  43.784  51.291  1.00  0.00     0.160 HD
BRANCH  22  24
ATOM     24  C   UNL     1       0.234  44.175  53.367  1.00  0.00     0.034 A 
ATOM     25  C   UNL     1       0.909  45.101  54.189  1.00  0.00     0.025 A 
ATOM     26  C   UNL     1      -0.902  43.524  53.881  1.00  0.00     0.025 A 
ATOM     27  C   UNL     1       0.456  45.362  55.485  1.00  0.00     0.002 A 
ATOM     28  C   UNL     1      -1.351  43.787  55.178  1.00  0.00     0.002 A 
ATOM     29  C   UNL     1      -0.672  44.706  55.979  1.00  0.00     0.000 A 
ENDBRANCH  22  24
ENDBRANCH  21  22
ENDBRANCH   1  17
TORSDOF 5
ENDMDL
