ligand_10_conformer_2_docked
     RDKit          3D

 50 53  0  0  0  0  0  0  0  0999 V2000
   -0.9700   48.8070   59.4020 C   0  0  0  0  0  0  0  0  0  0  0  0
   -1.5690   47.9720   58.3100 C   0  0  0  0  0  0  0  0  0  0  0  0
   -2.8480   48.2580   57.8070 C   0  0  0  0  0  0  0  0  0  0  0  0
   -3.4100   47.4520   56.8150 C   0  0  0  0  0  0  0  0  0  0  0  0
   -2.7020   46.3540   56.3180 C   0  0  0  0  0  0  0  0  0  0  0  0
   -1.4230   46.0590   56.8030 C   0  0  0  0  0  0  0  0  0  0  0  0
   -0.7520   44.9360   56.2940 O   0  0  0  0  0  0  0  0  0  0  0  0
    0.2880   44.9680   55.3550 C   0  0  0  0  0  0  0  0  0  0  0  0
    1.6360   45.0700   55.7340 C   0  0  0  0  0  0  0  0  0  0  0  0
    2.6340   45.1130   54.7590 C   0  0  0  0  0  0  0  0  0  0  0  0
    2.2790   45.0680   53.4010 C   0  0  0  0  0  0  0  0  0  0  0  0
    3.3110   45.1050   52.3400 C   0  0  0  0  0  0  0  0  0  0  0  0
    3.1040   45.7760   51.2920 O   0  0  0  0  0  0  0  0  0  0  0  0
    4.5260   44.3500   52.4830 N   0  0  0  0  0  0  0  0  0  0  0  0
    5.6840   44.5280   51.6490 C   0  0  0  0  0  0  0  0  0  0  0  0
    5.8800   43.7550   50.4910 C   0  0  0  0  0  0  0  0  0  0  0  0
    7.0010   43.9650   49.6840 C   0  0  0  0  0  0  0  0  0  0  0  0
    7.9310   44.9530   50.0170 C   0  0  0  0  0  0  0  0  0  0  0  0
    7.7470   45.7440   51.1620 C   0  0  0  0  0  0  0  0  0  0  0  0
    8.7420   46.8340   51.4980 C   0  0  1  0  0  0  0  0  0  0  0  0
    8.0530   48.0750   52.1250 C   0  0  0  0  0  0  0  0  0  0  0  0
    8.5830   48.2150   53.5610 C   0  0  0  0  0  0  0  0  0  0  0  0
    9.6030   47.1520   53.6540 C   0  0  0  0  0  0  0  0  0  0  0  0
   10.3110   46.9440   54.6730 O   0  0  0  0  0  0  0  0  0  0  0  0
    9.6940   46.3640   52.4880 N   0  0  0  0  0  0  0  0  0  0  0  0
    6.6110   45.5340   51.9640 C   0  0  0  0  0  0  0  0  0  0  0  0
    0.9640   44.9870   53.0610 N   0  0  0  0  0  0  0  0  0  0  0  0
   -0.0250   44.9440   53.9930 C   0  0  0  0  0  0  0  0  0  0  0  0
   -0.8660   46.8610   57.8160 C   0  0  0  0  0  0  0  0  0  0  0  0
   -1.2638   48.3975   60.3798 H   0  0  0  0  0  0  0  0  0  0  0  0
    0.1264   48.7945   59.3137 H   0  0  0  0  0  0  0  0  0  0  0  0
   -1.3332   49.8415   59.3137 H   0  0  0  0  0  0  0  0  0  0  0  0
   -3.4095   49.1203   58.1958 H   0  0  0  0  0  0  0  0  0  0  0  0
   -4.4121   47.6816   56.4237 H   0  0  0  0  0  0  0  0  0  0  0  0
   -3.1527   45.7184   55.5415 H   0  0  0  0  0  0  0  0  0  0  0  0
    1.9057   45.1160   56.7994 H   0  0  0  0  0  0  0  0  0  0  0  0
    3.6919   45.1817   55.0525 H   0  0  0  0  0  0  0  0  0  0  0  0
    4.5430   43.5640   53.1730 H   0  0  0  0  0  0  0  0  0  0  0  0
    5.1471   42.9811   50.2191 H   0  0  0  0  0  0  0  0  0  0  0  0
    7.1518   43.3508   48.7840 H   0  0  0  0  0  0  0  0  0  0  0  0
    8.8124   45.1120   49.3783 H   0  0  0  0  0  0  0  0  0  0  0  0
    9.2310   47.1019   50.5498 H   0  0  0  0  0  0  0  0  0  0  0  0
    8.2986   48.9759   51.5435 H   0  0  0  0  0  0  0  0  0  0  0  0
    6.9595   47.9558   52.1233 H   0  0  0  0  0  0  0  0  0  0  0  0
    9.0321   49.2065   53.7200 H   0  0  0  0  0  0  0  0  0  0  0  0
    7.7937   48.1207   54.3213 H   0  0  0  0  0  0  0  0  0  0  0  0
   10.3420   45.5550   52.3630 H   0  0  0  0  0  0  0  0  0  0  0  0
    6.4468   46.1660   52.8492 H   0  0  0  0  0  0  0  0  0  0  0  0
   -1.0763   44.8901   53.6737 H   0  0  0  0  0  0  0  0  0  0  0  0
    0.1260   46.6164   58.2235 H   0  0  0  0  0  0  0  0  0  0  0  0
  1  2  1  0
  2  3  2  0
  3  4  1  0
  4  5  2  0
  5  6  1  0
  6  7  1  0
  7  8  1  0
  8  9  2  0
  9 10  1  0
 10 11  2  0
 11 12  1  0
 12 13  2  0
 12 14  1  0
 14 15  1  0
 15 16  2  0
 16 17  1  0
 17 18  2  0
 18 19  1  0
 19 20  1  0
 20 21  1  0
 21 22  1  0
 22 23  1  0
 23 24  2  0
 23 25  1  0
 19 26  2  0
 11 27  1  0
 27 28  2  0
  6 29  2  0
 29  2  1  0
 28  8  1  0
 26 15  1  0
 25 20  1  0
  1 30  1  0
  1 31  1  0
  1 32  1  0
  3 33  1  0
  4 34  1  0
  5 35  1  0
  9 36  1  0
 10 37  1  0
 14 38  1  0
 16 39  1  0
 17 40  1  0
 18 41  1  0
 20 42  1  6
 21 43  1  0
 21 44  1  0
 22 45  1  0
 22 46  1  0
 25 47  1  0
 26 48  1  0
 28 49  1  0
 29 50  1  0
M  END
>  <meeko>  (1) 
{"is_sidechain": [false], "free_energy": -9.139, "intermolecular_energy": -11.811, "internal_energy": -0.939}

$$$$
ligand_10_conformer_2_docked
     RDKit          3D

 50 53  0  0  0  0  0  0  0  0999 V2000
   -3.9690   47.3610   55.7890 C   0  0  0  0  0  0  0  0  0  0  0  0
   -3.3860   46.0050   56.0580 C   0  0  0  0  0  0  0  0  0  0  0  0
   -3.5370   45.3950   57.3130 C   0  0  0  0  0  0  0  0  0  0  0  0
   -2.9590   44.1490   57.5630 C   0  0  0  0  0  0  0  0  0  0  0  0
   -2.2260   43.5020   56.5640 C   0  0  0  0  0  0  0  0  0  0  0  0
   -2.0730   44.0920   55.3040 C   0  0  0  0  0  0  0  0  0  0  0  0
   -1.3120   43.4220   54.3340 O   0  0  0  0  0  0  0  0  0  0  0  0
    0.0270   43.6950   54.0200 C   0  0  0  0  0  0  0  0  0  0  0  0
    0.6610   44.8830   54.4180 C   0  0  0  0  0  0  0  0  0  0  0  0
    1.9920   45.1150   54.0670 C   0  0  0  0  0  0  0  0  0  0  0  0
    2.6850   44.1600   53.3050 C   0  0  0  0  0  0  0  0  0  0  0  0
    4.0980   44.3690   52.9210 C   0  0  0  0  0  0  0  0  0  0  0  0
    5.0060   44.2470   53.7880 O   0  0  0  0  0  0  0  0  0  0  0  0
    4.4360   44.7470   51.5750 N   0  0  0  0  0  0  0  0  0  0  0  0
    5.7720   44.7110   51.0430 C   0  0  0  0  0  0  0  0  0  0  0  0
    6.1510   43.7630   50.0750 C   0  0  0  0  0  0  0  0  0  0  0  0
    7.4470   43.7660   49.5550 C   0  0  0  0  0  0  0  0  0  0  0  0
    8.3750   44.7170   49.9860 C   0  0  0  0  0  0  0  0  0  0  0  0
    8.0130   45.6790   50.9420 C   0  0  0  0  0  0  0  0  0  0  0  0
    9.0140   46.7270   51.3800 C   0  0  1  0  0  0  0  0  0  0  0  0
    8.3180   47.9900   51.9510 C   0  0  0  0  0  0  0  0  0  0  0  0
    8.7160   48.1010   53.4320 C   0  0  0  0  0  0  0  0  0  0  0  0
    9.6810   46.9980   53.6100 C   0  0  0  0  0  0  0  0  0  0  0  0
   10.2820   46.7560   54.6890 O   0  0  0  0  0  0  0  0  0  0  0  0
    9.8490   46.2140   52.4500 N   0  0  0  0  0  0  0  0  0  0  0  0
    6.7020   45.6770   51.4530 C   0  0  0  0  0  0  0  0  0  0  0  0
    2.0400   43.0250   52.9180 N   0  0  0  0  0  0  0  0  0  0  0  0
    0.7440   42.7790   53.2470 C   0  0  0  0  0  0  0  0  0  0  0  0
   -2.6400   45.3570   55.0610 C   0  0  0  0  0  0  0  0  0  0  0  0
   -4.1849   47.8632   56.7435 H   0  0  0  0  0  0  0  0  0  0  0  0
   -3.2496   47.9617   55.2131 H   0  0  0  0  0  0  0  0  0  0  0  0
   -4.8999   47.2522   55.2131 H   0  0  0  0  0  0  0  0  0  0  0  0
   -4.1128   45.9004   58.1023 H   0  0  0  0  0  0  0  0  0  0  0  0
   -3.0807   43.6754   58.5483 H   0  0  0  0  0  0  0  0  0  0  0  0
   -1.7668   42.5237   56.7692 H   0  0  0  0  0  0  0  0  0  0  0  0
    0.1089   45.6307   55.0063 H   0  0  0  0  0  0  0  0  0  0  0  0
    2.4950   46.0400   54.3852 H   0  0  0  0  0  0  0  0  0  0  0  0
    3.6860   45.1560   50.9730 H   0  0  0  0  0  0  0  0  0  0  0  0
    5.4230   43.0159   49.7261 H   0  0  0  0  0  0  0  0  0  0  0  0
    7.7380   43.0172   48.8036 H   0  0  0  0  0  0  0  0  0  0  0  0
    9.3949   44.7120   49.5740 H   0  0  0  0  0  0  0  0  0  0  0  0
    9.6003   46.9809   50.4846 H   0  0  0  0  0  0  0  0  0  0  0  0
    8.6518   48.8838   51.4035 H   0  0  0  0  0  0  0  0  0  0  0  0
    7.2257   47.9139   51.8459 H   0  0  0  0  0  0  0  0  0  0  0  0
    9.1862   49.0731   53.6415 H   0  0  0  0  0  0  0  0  0  0  0  0
    7.8558   48.0336   54.1143 H   0  0  0  0  0  0  0  0  0  0  0  0
   10.4750   45.3800   52.3780 H   0  0  0  0  0  0  0  0  0  0  0  0
    6.4028   46.4431   52.1835 H   0  0  0  0  0  0  0  0  0  0  0  0
    0.2579   41.8542   52.9028 H   0  0  0  0  0  0  0  0  0  0  0  0
   -2.4977   45.8410   54.0835 H   0  0  0  0  0  0  0  0  0  0  0  0
  1  2  1  0
  2  3  2  0
  3  4  1  0
  4  5  2  0
  5  6  1  0
  6  7  1  0
  7  8  1  0
  8  9  2  0
  9 10  1  0
 10 11  2  0
 11 12  1  0
 12 13  2  0
 12 14  1  0
 14 15  1  0
 15 16  2  0
 16 17  1  0
 17 18  2  0
 18 19  1  0
 19 20  1  0
 20 21  1  0
 21 22  1  0
 22 23  1  0
 23 24  2  0
 23 25  1  0
 19 26  2  0
 11 27  1  0
 27 28  2  0
  6 29  2  0
 29  2  1  0
 28  8  1  0
 26 15  1  0
 25 20  1  0
  1 30  1  0
  1 31  1  0
  1 32  1  0
  3 33  1  0
  4 34  1  0
  5 35  1  0
  9 36  1  0
 10 37  1  0
 14 38  1  0
 16 39  1  0
 17 40  1  0
 18 41  1  0
 20 42  1  6
 21 43  1  0
 21 44  1  0
 22 45  1  0
 22 46  1  0
 25 47  1  0
 26 48  1  0
 28 49  1  0
 29 50  1  0
M  END
>  <meeko>  (2) 
{"is_sidechain": [false], "free_energy": -8.995, "intermolecular_energy": -11.887, "internal_energy": -0.676}

$$$$
ligand_10_conformer_2_docked
     RDKit          3D

 50 53  0  0  0  0  0  0  0  0999 V2000
    8.7520   47.9530   54.4840 C   0  0  0  0  0  0  0  0  0  0  0  0
    9.0300   47.1090   53.2750 C   0  0  0  0  0  0  0  0  0  0  0  0
   10.3340   46.6810   52.9830 C   0  0  0  0  0  0  0  0  0  0  0  0
   10.5860   45.9270   51.8350 C   0  0  0  0  0  0  0  0  0  0  0  0
    9.5400   45.5950   50.9700 C   0  0  0  0  0  0  0  0  0  0  0  0
    8.2320   46.0060   51.2500 C   0  0  0  0  0  0  0  0  0  0  0  0
    7.2120   45.6720   50.3470 O   0  0  0  0  0  0  0  0  0  0  0  0
    5.9230   45.2450   50.6980 C   0  0  0  0  0  0  0  0  0  0  0  0
    4.7960   46.0680   50.5510 C   0  0  0  0  0  0  0  0  0  0  0  0
    3.5360   45.6020   50.9300 C   0  0  0  0  0  0  0  0  0  0  0  0
    3.4090   44.3120   51.4710 C   0  0  0  0  0  0  0  0  0  0  0  0
    2.0880   43.7810   51.8780 C   0  0  0  0  0  0  0  0  0  0  0  0
    2.0270   42.8010   52.6690 O   0  0  0  0  0  0  0  0  0  0  0  0
    0.8810   44.3530   51.3460 N   0  0  0  0  0  0  0  0  0  0  0  0
   -0.4310   44.0930   51.8740 C   0  0  0  0  0  0  0  0  0  0  0  0
   -1.2960   43.1650   51.2670 C   0  0  0  0  0  0  0  0  0  0  0  0
   -2.5550   42.9110   51.8140 C   0  0  0  0  0  0  0  0  0  0  0  0
   -2.9620   43.5700   52.9760 C   0  0  0  0  0  0  0  0  0  0  0  0
   -2.1090   44.4910   53.6050 C   0  0  0  0  0  0  0  0  0  0  0  0
   -2.5440   45.1770   54.8820 C   0  0  1  0  0  0  0  0  0  0  0  0
   -3.1350   44.1740   55.9070 C   0  0  0  0  0  0  0  0  0  0  0  0
   -2.2090   44.1750   57.1340 C   0  0  0  0  0  0  0  0  0  0  0  0
   -1.2230   45.2260   56.8160 C   0  0  0  0  0  0  0  0  0  0  0  0
   -0.2930   45.5750   57.5890 O   0  0  0  0  0  0  0  0  0  0  0  0
   -1.4070   45.7950   55.5390 N   0  0  0  0  0  0  0  0  0  0  0  0
   -0.8380   44.7340   53.0540 C   0  0  0  0  0  0  0  0  0  0  0  0
    4.5210   43.5410   51.6190 N   0  0  0  0  0  0  0  0  0  0  0  0
    5.7580   43.9750   51.2570 C   0  0  0  0  0  0  0  0  0  0  0  0
    7.9840   46.7830   52.3970 C   0  0  0  0  0  0  0  0  0  0  0  0
    8.9455   47.3655   55.3936 H   0  0  0  0  0  0  0  0  0  0  0  0
    9.4064   48.8371   54.4724 H   0  0  0  0  0  0  0  0  0  0  0  0
    7.7003   48.2751   54.4724 H   0  0  0  0  0  0  0  0  0  0  0  0
   11.1606   46.9403   53.6608 H   0  0  0  0  0  0  0  0  0  0  0  0
   11.6101   45.5937   51.6111 H   0  0  0  0  0  0  0  0  0  0  0  0
    9.7460   45.0070   50.0635 H   0  0  0  0  0  0  0  0  0  0  0  0
    4.9056   47.0811   50.1368 H   0  0  0  0  0  0  0  0  0  0  0  0
    2.6489   46.2404   50.8059 H   0  0  0  0  0  0  0  0  0  0  0  0
    0.9460   44.9210   50.4700 H   0  0  0  0  0  0  0  0  0  0  0  0
   -0.9787   42.6363   50.3561 H   0  0  0  0  0  0  0  0  0  0  0  0
   -3.2285   42.1896   51.3282 H   0  0  0  0  0  0  0  0  0  0  0  0
   -3.9561   43.3665   53.4008 H   0  0  0  0  0  0  0  0  0  0  0  0
   -3.3017   45.9174   54.5857 H   0  0  0  0  0  0  0  0  0  0  0  0
   -4.1479   44.4878   56.1996 H   0  0  0  0  0  0  0  0  0  0  0  0
   -3.2027   43.1663   55.4711 H   0  0  0  0  0  0  0  0  0  0  0  0
   -2.7675   44.4227   58.0487 H   0  0  0  0  0  0  0  0  0  0  0  0
   -1.7467   43.1952   57.3245 H   0  0  0  0  0  0  0  0  0  0  0  0
   -0.8060   46.5410   55.1250 H   0  0  0  0  0  0  0  0  0  0  0  0
   -0.1543   45.4355   53.5545 H   0  0  0  0  0  0  0  0  0  0  0  0
    6.6321   43.3237   51.4048 H   0  0  0  0  0  0  0  0  0  0  0  0
    6.9640   47.1372   52.6070 H   0  0  0  0  0  0  0  0  0  0  0  0
  1  2  1  0
  2  3  2  0
  3  4  1  0
  4  5  2  0
  5  6  1  0
  6  7  1  0
  7  8  1  0
  8  9  2  0
  9 10  1  0
 10 11  2  0
 11 12  1  0
 12 13  2  0
 12 14  1  0
 14 15  1  0
 15 16  2  0
 16 17  1  0
 17 18  2  0
 18 19  1  0
 19 20  1  0
 20 21  1  0
 21 22  1  0
 22 23  1  0
 23 24  2  0
 23 25  1  0
 19 26  2  0
 11 27  1  0
 27 28  2  0
  6 29  2  0
 29  2  1  0
 28  8  1  0
 26 15  1  0
 25 20  1  0
  1 30  1  0
  1 31  1  0
  1 32  1  0
  3 33  1  0
  4 34  1  0
  5 35  1  0
  9 36  1  0
 10 37  1  0
 14 38  1  0
 16 39  1  0
 17 40  1  0
 18 41  1  0
 20 42  1  6
 21 43  1  0
 21 44  1  0
 22 45  1  0
 22 46  1  0
 25 47  1  0
 26 48  1  0
 28 49  1  0
 29 50  1  0
M  END
>  <meeko>  (3) 
{"is_sidechain": [false], "free_energy": -8.99, "intermolecular_energy": -11.554, "internal_energy": -1.002}

$$$$
ligand_10_conformer_2_docked
     RDKit          3D

 50 53  0  0  0  0  0  0  0  0999 V2000
   -2.8770   42.7850   47.3310 C   0  0  0  0  0  0  0  0  0  0  0  0
   -2.8540   42.3710   48.7720 C   0  0  0  0  0  0  0  0  0  0  0  0
   -3.6210   41.2830   49.2180 C   0  0  0  0  0  0  0  0  0  0  0  0
   -3.6200   40.9290   50.5690 C   0  0  0  0  0  0  0  0  0  0  0  0
   -2.8550   41.6570   51.4840 C   0  0  0  0  0  0  0  0  0  0  0  0
   -2.0790   42.7400   51.0560 C   0  0  0  0  0  0  0  0  0  0  0  0
   -1.3420   43.4590   52.0080 O   0  0  0  0  0  0  0  0  0  0  0  0
    0.0510   43.6240   52.0020 C   0  0  0  0  0  0  0  0  0  0  0  0
    0.9280   42.5980   52.3880 C   0  0  0  0  0  0  0  0  0  0  0  0
    2.3070   42.8170   52.3800 C   0  0  0  0  0  0  0  0  0  0  0  0
    2.8060   44.0720   51.9970 C   0  0  0  0  0  0  0  0  0  0  0  0
    4.2620   44.3390   51.9690 C   0  0  0  0  0  0  0  0  0  0  0  0
    4.9390   44.2170   53.0260 O   0  0  0  0  0  0  0  0  0  0  0  0
    4.8960   44.7740   50.7550 N   0  0  0  0  0  0  0  0  0  0  0  0
    6.3220   44.7990   50.5590 C   0  0  0  0  0  0  0  0  0  0  0  0
    6.9660   43.8570   49.7370 C   0  0  0  0  0  0  0  0  0  0  0  0
    8.3480   43.9190   49.5430 C   0  0  0  0  0  0  0  0  0  0  0  0
    9.0990   44.9250   50.1560 C   0  0  0  0  0  0  0  0  0  0  0  0
    8.4730   45.8830   50.9700 C   0  0  0  0  0  0  0  0  0  0  0  0
    9.2880   46.9880   51.6040 C   0  0  1  0  0  0  0  0  0  0  0  0
    8.3890   48.0950   52.2150 C   0  0  0  0  0  0  0  0  0  0  0  0
    8.6330   48.0960   53.7330 C   0  0  0  0  0  0  0  0  0  0  0  0
    9.7090   47.1010   53.9060 C   0  0  0  0  0  0  0  0  0  0  0  0
   10.2350   46.8190   55.0140 O   0  0  0  0  0  0  0  0  0  0  0  0
   10.0810   46.4680   52.7030 N   0  0  0  0  0  0  0  0  0  0  0  0
    7.0790   45.8200   51.1520 C   0  0  0  0  0  0  0  0  0  0  0  0
    1.9330   45.0550   51.6450 N   0  0  0  0  0  0  0  0  0  0  0  0
    0.5870   44.8640   51.6460 C   0  0  0  0  0  0  0  0  0  0  0  0
   -2.0960   43.1070   49.6970 C   0  0  0  0  0  0  0  0  0  0  0  0
   -2.9379   43.8814   47.2654 H   0  0  0  0  0  0  0  0  0  0  0  0
   -1.9582   42.4385   46.8352 H   0  0  0  0  0  0  0  0  0  0  0  0
   -3.7517   42.3389   46.8352 H   0  0  0  0  0  0  0  0  0  0  0  0
   -4.2248   40.7074   48.5010 H   0  0  0  0  0  0  0  0  0  0  0  0
   -4.2225   40.0756   50.9134 H   0  0  0  0  0  0  0  0  0  0  0  0
   -2.8628   41.3770   52.5477 H   0  0  0  0  0  0  0  0  0  0  0  0
    0.5285   41.6208   52.6970 H   0  0  0  0  0  0  0  0  0  0  0  0
    2.9974   42.0119   52.6717 H   0  0  0  0  0  0  0  0  0  0  0  0
    4.2970   45.1790   50.0000 H   0  0  0  0  0  0  0  0  0  0  0  0
    6.3788   43.0678   49.2446 H   0  0  0  0  0  0  0  0  0  0  0  0
    8.8464   43.1736   48.9058 H   0  0  0  0  0  0  0  0  0  0  0  0
   10.1871   44.9670   50.0001 H   0  0  0  0  0  0  0  0  0  0  0  0
    9.9161   47.4002   50.8005 H   0  0  0  0  0  0  0  0  0  0  0  0
    8.6560   49.0739   51.7902 H   0  0  0  0  0  0  0  0  0  0  0  0
    7.3292   47.9037   51.9910 H   0  0  0  0  0  0  0  0  0  0  0  0
    8.9555   49.0890   54.0794 H   0  0  0  0  0  0  0  0  0  0  0  0
    7.7297   47.8577   54.3137 H   0  0  0  0  0  0  0  0  0  0  0  0
   10.8110   45.7250   52.6190 H   0  0  0  0  0  0  0  0  0  0  0  0
    6.5767   46.5811   51.7671 H   0  0  0  0  0  0  0  0  0  0  0  0
   -0.0832   45.6898   51.3652 H   0  0  0  0  0  0  0  0  0  0  0  0
   -1.5121   43.9753   49.3577 H   0  0  0  0  0  0  0  0  0  0  0  0
  1  2  1  0
  2  3  2  0
  3  4  1  0
  4  5  2  0
  5  6  1  0
  6  7  1  0
  7  8  1  0
  8  9  2  0
  9 10  1  0
 10 11  2  0
 11 12  1  0
 12 13  2  0
 12 14  1  0
 14 15  1  0
 15 16  2  0
 16 17  1  0
 17 18  2  0
 18 19  1  0
 19 20  1  0
 20 21  1  0
 21 22  1  0
 22 23  1  0
 23 24  2  0
 23 25  1  0
 19 26  2  0
 11 27  1  0
 27 28  2  0
  6 29  2  0
 29  2  1  0
 28  8  1  0
 26 15  1  0
 25 20  1  0
  1 30  1  0
  1 31  1  0
  1 32  1  0
  3 33  1  0
  4 34  1  0
  5 35  1  0
  9 36  1  0
 10 37  1  0
 14 38  1  0
 16 39  1  0
 17 40  1  0
 18 41  1  0
 20 42  1  6
 21 43  1  0
 21 44  1  0
 22 45  1  0
 22 46  1  0
 25 47  1  0
 26 48  1  0
 28 49  1  0
 29 50  1  0
M  END
>  <meeko>  (4) 
{"is_sidechain": [false], "free_energy": -8.575, "intermolecular_energy": -11.214, "internal_energy": -0.806}

$$$$
ligand_10_conformer_2_docked
     RDKit          3D

 50 53  0  0  0  0  0  0  0  0999 V2000
    8.0050   38.5820   42.3800 C   0  0  0  0  0  0  0  0  0  0  0  0
    6.6140   38.3310   42.8820 C   0  0  0  0  0  0  0  0  0  0  0  0
    5.9530   37.1280   42.5900 C   0  0  0  0  0  0  0  0  0  0  0  0
    4.6440   36.9200   43.0320 C   0  0  0  0  0  0  0  0  0  0  0  0
    3.9860   37.9100   43.7670 C   0  0  0  0  0  0  0  0  0  0  0  0
    4.6340   39.1120   44.0740 C   0  0  0  0  0  0  0  0  0  0  0  0
    3.9330   40.0900   44.7960 O   0  0  0  0  0  0  0  0  0  0  0  0
    4.3460   40.6530   46.0120 C   0  0  0  0  0  0  0  0  0  0  0  0
    5.3970   41.5790   46.0890 C   0  0  0  0  0  0  0  0  0  0  0  0
    5.7800   42.1000   47.3270 C   0  0  0  0  0  0  0  0  0  0  0  0
    5.1170   41.6810   48.4900 C   0  0  0  0  0  0  0  0  0  0  0  0
    5.4910   42.2160   49.8190 C   0  0  0  0  0  0  0  0  0  0  0  0
    6.4630   41.7110   50.4440 O   0  0  0  0  0  0  0  0  0  0  0  0
    4.7280   43.2790   50.4130 N   0  0  0  0  0  0  0  0  0  0  0  0
    5.1620   44.0370   51.5560 C   0  0  0  0  0  0  0  0  0  0  0  0
    4.6820   43.7580   52.8480 C   0  0  0  0  0  0  0  0  0  0  0  0
    5.1390   44.4920   53.9440 C   0  0  0  0  0  0  0  0  0  0  0  0
    6.0850   45.5030   53.7680 C   0  0  0  0  0  0  0  0  0  0  0  0
    6.5870   45.7900   52.4880 C   0  0  0  0  0  0  0  0  0  0  0  0
    7.6360   46.8660   52.3090 C   0  0  1  0  0  0  0  0  0  0  0  0
    8.3260   47.2320   53.6490 C   0  0  0  0  0  0  0  0  0  0  0  0
    9.8080   46.8470   53.5210 C   0  0  0  0  0  0  0  0  0  0  0  0
    9.9240   46.3960   52.1200 C   0  0  0  0  0  0  0  0  0  0  0  0
   11.0000   46.0210   51.5880 O   0  0  0  0  0  0  0  0  0  0  0  0
    8.6940   46.4030   51.4300 N   0  0  0  0  0  0  0  0  0  0  0  0
    6.1300   45.0400   51.3900 C   0  0  0  0  0  0  0  0  0  0  0  0
    4.1120   40.7680   48.3890 N   0  0  0  0  0  0  0  0  0  0  0  0
    3.7220   40.2470   47.1950 C   0  0  0  0  0  0  0  0  0  0  0  0
    5.9450   39.3270   43.6110 C   0  0  0  0  0  0  0  0  0  0  0  0
    8.6866   38.7050   43.2346 H   0  0  0  0  0  0  0  0  0  0  0  0
    8.3337   37.7287   41.7686 H   0  0  0  0  0  0  0  0  0  0  0  0
    8.0148   39.4964   41.7686 H   0  0  0  0  0  0  0  0  0  0  0  0
    6.4670   36.3464   42.0113 H   0  0  0  0  0  0  0  0  0  0  0  0
    4.1303   35.9751   42.8010 H   0  0  0  0  0  0  0  0  0  0  0  0
    2.9529   37.7436   44.1062 H   0  0  0  0  0  0  0  0  0  0  0  0
    5.9196   41.8949   45.1741 H   0  0  0  0  0  0  0  0  0  0  0  0
    6.5965   42.8344   47.3896 H   0  0  0  0  0  0  0  0  0  0  0  0
    3.7620   43.4570   50.0540 H   0  0  0  0  0  0  0  0  0  0  0  0
    3.9425   42.9572   52.9958 H   0  0  0  0  0  0  0  0  0  0  0  0
    4.7521   44.2727   54.9501 H   0  0  0  0  0  0  0  0  0  0  0  0
    6.4393   46.0780   54.6363 H   0  0  0  0  0  0  0  0  0  0  0  0
    7.1081   47.7380   51.8955 H   0  0  0  0  0  0  0  0  0  0  0  0
    8.2327   48.3117   53.8377 H   0  0  0  0  0  0  0  0  0  0  0  0
    7.8561   46.6970   54.4874 H   0  0  0  0  0  0  0  0  0  0  0  0
   10.4578   47.7141   53.7106 H   0  0  0  0  0  0  0  0  0  0  0  0
   10.1168   46.0798   54.2463 H   0  0  0  0  0  0  0  0  0  0  0  0
    8.5640   46.1050   50.4370 H   0  0  0  0  0  0  0  0  0  0  0  0
    6.5363   45.2418   50.3879 H   0  0  0  0  0  0  0  0  0  0  0  0
    2.9123   39.5032   47.1600 H   0  0  0  0  0  0  0  0  0  0  0  0
    6.4492   40.2817   43.8216 H   0  0  0  0  0  0  0  0  0  0  0  0
  1  2  1  0
  2  3  2  0
  3  4  1  0
  4  5  2  0
  5  6  1  0
  6  7  1  0
  7  8  1  0
  8  9  2  0
  9 10  1  0
 10 11  2  0
 11 12  1  0
 12 13  2  0
 12 14  1  0
 14 15  1  0
 15 16  2  0
 16 17  1  0
 17 18  2  0
 18 19  1  0
 19 20  1  0
 20 21  1  0
 21 22  1  0
 22 23  1  0
 23 24  2  0
 23 25  1  0
 19 26  2  0
 11 27  1  0
 27 28  2  0
  6 29  2  0
 29  2  1  0
 28  8  1  0
 26 15  1  0
 25 20  1  0
  1 30  1  0
  1 31  1  0
  1 32  1  0
  3 33  1  0
  4 34  1  0
  5 35  1  0
  9 36  1  0
 10 37  1  0
 14 38  1  0
 16 39  1  0
 17 40  1  0
 18 41  1  0
 20 42  1  6
 21 43  1  0
 21 44  1  0
 22 45  1  0
 22 46  1  0
 25 47  1  0
 26 48  1  0
 28 49  1  0
 29 50  1  0
M  END
>  <meeko>  (5) 
{"is_sidechain": [false], "free_energy": -8.215, "intermolecular_energy": -10.743, "internal_energy": -0.813}

$$$$
