MODEL 1
REMARK VINA RESULT:    -7.762      0.000      0.000
REMARK INTER + INTRA:         -11.921
REMARK INTER:                 -11.166
REMARK INTRA:                  -0.755
REMARK UNBOUND:                -0.755
REMARK SMILES CCN(Cc1cn(Cc2nccs2)nn1)c1cccc(CO)c1
REMARK SMILES IDX 3 1 2 2 1 3 4 4 5 5 6 6 15 7 7 8 14 9 8 10 9 11 10 12 13 13
REMARK SMILES IDX 11 14 12 15 16 16 17 17 23 18 18 19 20 20 19 21 21 22 22 23
REMARK H PARENT 22 24
ROOT
ATOM      1  N   UNL     1       6.028  46.517  52.100  1.00  0.00    -0.366 N 
ENDROOT
BRANCH   1   2
ATOM      2  C   UNL     1       5.478  45.634  51.059  1.00  0.00     0.113 C 
ATOM      3  C   UNL     1       5.442  44.188  51.543  1.00  0.00     0.027 C 
ENDBRANCH   1   2
BRANCH   1   4
ATOM      4  C   UNL     1       5.109  47.325  52.916  1.00  0.00     0.176 C 
BRANCH   4   5
ATOM      5  C   UNL     1       4.357  46.459  53.880  1.00  0.00     0.102 A 
ATOM      6  C   UNL     1       3.015  46.152  53.836  1.00  0.00     0.137 A 
ATOM      7  N   UNL     1       4.914  45.796  54.913  1.00  0.00    -0.134 NA
ATOM      8  N   UNL     1       2.797  45.305  54.855  1.00  0.00    -0.245 N 
ATOM      9  N   UNL     1       3.940  45.111  55.495  1.00  0.00    -0.067 NA
BRANCH   8  10
ATOM     10  C   UNL     1       1.516  44.745  55.266  1.00  0.00     0.213 C 
BRANCH  10  11
ATOM     11  C   UNL     1       0.869  44.061  54.107  1.00  0.00     0.114 A 
ATOM     12  N   UNL     1       1.412  43.003  53.468  1.00  0.00    -0.248 NA
ATOM     13  S   UNL     1      -0.663  44.417  53.515  1.00  0.00    -0.125 S 
ATOM     14  C   UNL     1       0.589  42.522  52.498  1.00  0.00     0.123 A 
ATOM     15  C   UNL     1      -0.625  43.187  52.370  1.00  0.00     0.087 A 
ENDBRANCH  10  11
ENDBRANCH   8  10
ENDBRANCH   4   5
ENDBRANCH   1   4
BRANCH   1  16
ATOM     16  C   UNL     1       7.454  46.595  52.320  1.00  0.00     0.037 A 
ATOM     17  C   UNL     1       8.357  46.201  51.316  1.00  0.00     0.026 A 
ATOM     18  C   UNL     1       7.961  47.058  53.547  1.00  0.00     0.032 A 
ATOM     19  C   UNL     1       9.734  46.262  51.538  1.00  0.00     0.003 A 
ATOM     20  C   UNL     1       9.345  47.135  53.769  1.00  0.00    -0.021 A 
ATOM     21  C   UNL     1      10.229  46.720  52.761  1.00  0.00     0.006 A 
BRANCH  20  22
ATOM     22  C   UNL     1       9.874  47.593  55.099  1.00  0.00     0.191 C 
BRANCH  22  23
ATOM     23  O   UNL     1       9.121  48.677  55.568  1.00  0.00    -0.392 OA
ATOM     24  H   UNL     1       8.178  48.498  55.317  1.00  0.00     0.211 HD
ENDBRANCH  22  23
ENDBRANCH  20  22
ENDBRANCH   1  16
TORSDOF 8
ENDMDL
MODEL 2
REMARK VINA RESULT:    -7.725      1.496      2.278
REMARK INTER + INTRA:         -11.867
REMARK INTER:                 -11.492
REMARK INTRA:                  -0.375
REMARK UNBOUND:                -0.755
REMARK SMILES CCN(Cc1cn(Cc2nccs2)nn1)c1cccc(CO)c1
REMARK SMILES IDX 3 1 2 2 1 3 4 4 5 5 6 6 15 7 7 8 14 9 8 10 9 11 10 12 13 13
REMARK SMILES IDX 11 14 12 15 16 16 17 17 23 18 18 19 20 20 19 21 21 22 22 23
REMARK H PARENT 22 24
ROOT
ATOM      1  N   UNL     1       6.015  46.672  52.231  1.00  0.00    -0.366 N 
ENDROOT
BRANCH   1   2
ATOM      2  C   UNL     1       5.417  45.871  51.150  1.00  0.00     0.113 C 
ATOM      3  C   UNL     1       5.611  44.380  51.413  1.00  0.00     0.027 C 
ENDBRANCH   1   2
BRANCH   1   4
ATOM      4  C   UNL     1       5.136  47.440  53.125  1.00  0.00     0.176 C 
BRANCH   4   5
ATOM      5  C   UNL     1       3.809  46.759  53.276  1.00  0.00     0.102 A 
ATOM      6  C   UNL     1       3.514  45.708  54.116  1.00  0.00     0.137 A 
ATOM      7  N   UNL     1       2.680  47.128  52.640  1.00  0.00    -0.134 NA
ATOM      8  N   UNL     1       2.201  45.470  53.960  1.00  0.00    -0.245 N 
ATOM      9  N   UNL     1       1.720  46.321  53.068  1.00  0.00    -0.067 NA
BRANCH   8  10
ATOM     10  C   UNL     1       1.427  44.407  54.588  1.00  0.00     0.213 C 
BRANCH  10  11
ATOM     11  C   UNL     1       0.495  44.991  55.598  1.00  0.00     0.114 A 
ATOM     12  N   UNL     1       0.899  45.771  56.623  1.00  0.00    -0.248 NA
ATOM     13  S   UNL     1      -1.181  44.870  55.540  1.00  0.00    -0.125 S 
ATOM     14  C   UNL     1      -0.152  46.232  57.352  1.00  0.00     0.123 A 
ATOM     15  C   UNL     1      -1.405  45.832  56.901  1.00  0.00     0.087 A 
ENDBRANCH  10  11
ENDBRANCH   8  10
ENDBRANCH   4   5
ENDBRANCH   1   4
BRANCH   1  16
ATOM     16  C   UNL     1       7.447  46.708  52.411  1.00  0.00     0.037 A 
ATOM     17  C   UNL     1       8.311  46.297  51.380  1.00  0.00     0.026 A 
ATOM     18  C   UNL     1       8.001  47.148  53.627  1.00  0.00     0.032 A 
ATOM     19  C   UNL     1       9.695  46.319  51.565  1.00  0.00     0.003 A 
ATOM     20  C   UNL     1       9.392  47.185  53.811  1.00  0.00    -0.021 A 
ATOM     21  C   UNL     1      10.236  46.754  52.777  1.00  0.00     0.006 A 
BRANCH  20  22
ATOM     22  C   UNL     1       9.969  47.619  55.130  1.00  0.00     0.191 C 
BRANCH  22  23
ATOM     23  O   UNL     1       9.200  48.655  55.673  1.00  0.00    -0.392 OA
ATOM     24  H   UNL     1       9.773  49.115  56.340  1.00  0.00     0.211 HD
ENDBRANCH  22  23
ENDBRANCH  20  22
ENDBRANCH   1  16
TORSDOF 8
ENDMDL
MODEL 3
REMARK VINA RESULT:    -7.686      3.078      4.080
REMARK INTER + INTRA:         -11.811
REMARK INTER:                 -11.056
REMARK INTRA:                  -0.755
REMARK UNBOUND:                -0.755
REMARK SMILES CCN(Cc1cn(Cc2nccs2)nn1)c1cccc(CO)c1
REMARK SMILES IDX 3 1 2 2 1 3 4 4 5 5 6 6 15 7 7 8 14 9 8 10 9 11 10 12 13 13
REMARK SMILES IDX 11 14 12 15 16 16 17 17 23 18 18 19 20 20 19 21 21 22 22 23
REMARK H PARENT 22 24
ROOT
ATOM      1  N   UNL     1       5.995  46.419  53.008  1.00  0.00    -0.366 N 
ENDROOT
BRANCH   1   2
ATOM      2  C   UNL     1       5.295  46.268  54.294  1.00  0.00     0.113 C 
ATOM      3  C   UNL     1       4.373  47.457  54.548  1.00  0.00     0.027 C 
ENDBRANCH   1   2
BRANCH   1   4
ATOM      4  C   UNL     1       5.214  46.431  51.762  1.00  0.00     0.176 C 
BRANCH   4   5
ATOM      5  C   UNL     1       4.528  45.116  51.555  1.00  0.00     0.102 A 
ATOM      6  C   UNL     1       5.118  43.871  51.550  1.00  0.00     0.137 A 
ATOM      7  N   UNL     1       3.198  44.959  51.399  1.00  0.00    -0.134 NA
ATOM      8  N   UNL     1       4.117  42.989  51.390  1.00  0.00    -0.245 N 
ATOM      9  N   UNL     1       2.978  43.656  51.292  1.00  0.00    -0.067 NA
BRANCH   8  10
ATOM     10  C   UNL     1       4.242  41.544  51.257  1.00  0.00     0.213 C 
BRANCH  10  11
ATOM     11  C   UNL     1       4.360  41.178  49.814  1.00  0.00     0.114 A 
ATOM     12  N   UNL     1       3.370  40.587  49.111  1.00  0.00    -0.248 NA
ATOM     13  S   UNL     1       5.672  41.554  48.832  1.00  0.00    -0.125 S 
ATOM     14  C   UNL     1       3.705  40.428  47.803  1.00  0.00     0.123 A 
ATOM     15  C   UNL     1       4.962  40.908  47.452  1.00  0.00     0.087 A 
ENDBRANCH  10  11
ENDBRANCH   8  10
ENDBRANCH   4   5
ENDBRANCH   1   4
BRANCH   1  16
ATOM     16  C   UNL     1       7.433  46.550  52.965  1.00  0.00     0.037 A 
ATOM     17  C   UNL     1       8.146  46.260  51.788  1.00  0.00     0.026 A 
ATOM     18  C   UNL     1       8.144  46.961  54.107  1.00  0.00     0.032 A 
ATOM     19  C   UNL     1       9.538  46.372  51.757  1.00  0.00     0.003 A 
ATOM     20  C   UNL     1       9.542  47.088  54.075  1.00  0.00    -0.021 A 
ATOM     21  C   UNL     1      10.236  46.777  52.896  1.00  0.00     0.006 A 
BRANCH  20  22
ATOM     22  C   UNL     1      10.294  47.489  55.314  1.00  0.00     0.191 C 
BRANCH  22  23
ATOM     23  O   UNL     1       9.614  48.520  55.976  1.00  0.00    -0.392 OA
ATOM     24  H   UNL     1       8.648  48.295  55.936  1.00  0.00     0.211 HD
ENDBRANCH  22  23
ENDBRANCH  20  22
ENDBRANCH   1  16
TORSDOF 8
ENDMDL
MODEL 4
REMARK VINA RESULT:    -7.608      3.321      6.329
REMARK INTER + INTRA:         -11.699
REMARK INTER:                 -10.838
REMARK INTRA:                  -0.861
REMARK UNBOUND:                -0.755
REMARK SMILES CCN(Cc1cn(Cc2nccs2)nn1)c1cccc(CO)c1
REMARK SMILES IDX 3 1 2 2 1 3 4 4 5 5 6 6 15 7 7 8 14 9 8 10 9 11 10 12 13 13
REMARK SMILES IDX 11 14 12 15 16 16 17 17 23 18 18 19 20 20 19 21 21 22 22 23
REMARK H PARENT 22 24
ROOT
ATOM      1  N   UNL     1       3.203  44.338  51.981  1.00  0.00    -0.366 N 
ENDROOT
BRANCH   1   2
ATOM      2  C   UNL     1       2.075  44.943  51.254  1.00  0.00     0.113 C 
ATOM      3  C   UNL     1       0.897  43.975  51.186  1.00  0.00     0.027 C 
ENDBRANCH   1   2
BRANCH   1   4
ATOM      4  C   UNL     1       3.311  44.535  53.433  1.00  0.00     0.176 C 
BRANCH   4   5
ATOM      5  C   UNL     1       4.277  45.637  53.747  1.00  0.00     0.102 A 
ATOM      6  C   UNL     1       5.593  45.494  54.126  1.00  0.00     0.137 A 
ATOM      7  N   UNL     1       4.002  46.953  53.642  1.00  0.00    -0.134 NA
ATOM      8  N   UNL     1       6.081  46.741  54.241  1.00  0.00    -0.245 N 
ATOM      9  N   UNL     1       5.115  47.600  53.958  1.00  0.00    -0.067 NA
BRANCH   8  10
ATOM     10  C   UNL     1       7.417  47.117  54.683  1.00  0.00     0.213 C 
BRANCH  10  11
ATOM     11  C   UNL     1       8.384  46.964  53.556  1.00  0.00     0.114 A 
ATOM     12  N   UNL     1       9.620  46.440  53.699  1.00  0.00    -0.248 NA
ATOM     13  S   UNL     1       8.041  47.297  51.944  1.00  0.00    -0.125 S 
ATOM     14  C   UNL     1      10.270  46.344  52.509  1.00  0.00     0.123 A 
ATOM     15  C   UNL     1       9.546  46.778  51.404  1.00  0.00     0.087 A 
ENDBRANCH  10  11
ENDBRANCH   8  10
ENDBRANCH   4   5
ENDBRANCH   1   4
BRANCH   1  16
ATOM     16  C   UNL     1       4.197  43.561  51.277  1.00  0.00     0.037 A 
ATOM     17  C   UNL     1       4.038  42.173  51.112  1.00  0.00     0.026 A 
ATOM     18  C   UNL     1       5.346  44.181  50.753  1.00  0.00     0.032 A 
ATOM     19  C   UNL     1       5.010  41.423  50.445  1.00  0.00     0.003 A 
ATOM     20  C   UNL     1       6.317  43.433  50.070  1.00  0.00    -0.021 A 
ATOM     21  C   UNL     1       6.149  42.047  49.932  1.00  0.00     0.006 A 
BRANCH  20  22
ATOM     22  C   UNL     1       7.560  44.101  49.551  1.00  0.00     0.191 C 
BRANCH  22  23
ATOM     23  O   UNL     1       8.383  43.160  48.918  1.00  0.00    -0.392 OA
ATOM     24  H   UNL     1       9.193  43.648  48.617  1.00  0.00     0.211 HD
ENDBRANCH  22  23
ENDBRANCH  20  22
ENDBRANCH   1  16
TORSDOF 8
ENDMDL
MODEL 5
REMARK VINA RESULT:    -7.512      1.761      2.546
REMARK INTER + INTRA:         -11.560
REMARK INTER:                 -10.860
REMARK INTRA:                  -0.700
REMARK UNBOUND:                -0.755
REMARK SMILES CCN(Cc1cn(Cc2nccs2)nn1)c1cccc(CO)c1
REMARK SMILES IDX 3 1 2 2 1 3 4 4 5 5 6 6 15 7 7 8 14 9 8 10 9 11 10 12 13 13
REMARK SMILES IDX 11 14 12 15 16 16 17 17 23 18 18 19 20 20 19 21 21 22 22 23
REMARK H PARENT 22 24
ROOT
ATOM      1  N   UNL     1       5.963  46.424  53.141  1.00  0.00    -0.366 N 
ENDROOT
BRANCH   1   2
ATOM      2  C   UNL     1       5.286  46.261  54.438  1.00  0.00     0.113 C 
ATOM      3  C   UNL     1       5.603  44.896  55.042  1.00  0.00     0.027 C 
ENDBRANCH   1   2
BRANCH   1   4
ATOM      4  C   UNL     1       5.160  46.444  51.909  1.00  0.00     0.176 C 
BRANCH   4   5
ATOM      5  C   UNL     1       4.581  45.089  51.635  1.00  0.00     0.102 A 
ATOM      6  C   UNL     1       3.260  44.796  51.379  1.00  0.00     0.137 A 
ATOM      7  N   UNL     1       5.298  43.952  51.539  1.00  0.00    -0.134 NA
ATOM      8  N   UNL     1       3.216  43.476  51.134  1.00  0.00    -0.245 N 
ATOM      9  N   UNL     1       4.441  42.985  51.243  1.00  0.00    -0.067 NA
BRANCH   8  10
ATOM     10  C   UNL     1       2.027  42.675  50.874  1.00  0.00     0.213 C 
BRANCH  10  11
ATOM     11  C   UNL     1       0.937  43.070  51.816  1.00  0.00     0.114 A 
ATOM     12  N   UNL     1      -0.194  43.696  51.428  1.00  0.00    -0.248 NA
ATOM     13  S   UNL     1       0.898  42.687  53.453  1.00  0.00    -0.125 S 
ATOM     14  C   UNL     1      -1.054  43.876  52.466  1.00  0.00     0.123 A 
ATOM     15  C   UNL     1      -0.617  43.377  53.688  1.00  0.00     0.087 A 
ENDBRANCH  10  11
ENDBRANCH   8  10
ENDBRANCH   4   5
ENDBRANCH   1   4
BRANCH   1  16
ATOM     16  C   UNL     1       7.400  46.561  53.075  1.00  0.00     0.037 A 
ATOM     17  C   UNL     1       8.096  46.257  51.890  1.00  0.00     0.026 A 
ATOM     18  C   UNL     1       8.126  46.994  54.199  1.00  0.00     0.032 A 
ATOM     19  C   UNL     1       9.486  46.375  51.836  1.00  0.00     0.003 A 
ATOM     20  C   UNL     1       9.523  47.127  54.143  1.00  0.00    -0.021 A 
ATOM     21  C   UNL     1      10.200  46.801  52.958  1.00  0.00     0.006 A 
BRANCH  20  22
ATOM     22  C   UNL     1      10.292  47.551  55.363  1.00  0.00     0.191 C 
BRANCH  22  23
ATOM     23  O   UNL     1       9.595  48.557  56.044  1.00  0.00    -0.392 OA
ATOM     24  H   UNL     1      10.083  49.405  55.876  1.00  0.00     0.211 HD
ENDBRANCH  22  23
ENDBRANCH  20  22
ENDBRANCH   1  16
TORSDOF 8
ENDMDL
