MODEL 1
REMARK VINA RESULT:    -9.032      0.000      0.000
REMARK INTER + INTRA:         -13.279
REMARK INTER:                 -12.728
REMARK INTRA:                  -0.551
REMARK UNBOUND:                -0.551
REMARK SMILES COc1ccnc(N(C)C(=O)c2ccc(Oc3ccc(C(F)(F)F)cn3)cc2)n1
REMARK SMILES IDX 12 1 13 2 14 3 15 4 27 5 28 6 10 7 11 8 8 9 9 10 7 11 3 12
REMARK SMILES IDX 4 13 29 14 5 15 6 16 2 17 1 18 16 19 17 20 18 21 26 22 19 23
REMARK SMILES IDX 25 24 20 25 21 26 22 27 23 28 24 29
REMARK H PARENT
ROOT
ATOM      1  C   UNL     1       5.437  44.678  51.510  1.00  0.00     0.040 A 
ATOM      2  C   UNL     1       4.570  43.582  51.651  1.00  0.00     0.018 A 
ATOM      3  C   UNL     1       4.704  42.465  50.822  1.00  0.00     0.048 A 
ATOM      4  C   UNL     1       5.702  42.422  49.843  1.00  0.00     0.129 A 
ATOM      5  C   UNL     1       6.537  43.539  49.664  1.00  0.00     0.048 A 
ATOM      6  C   UNL     1       6.405  44.658  50.492  1.00  0.00     0.018 A 
ENDROOT
BRANCH   1   7
ATOM      7  C   UNL     1       5.332  45.835  52.432  1.00  0.00     0.260 C 
ATOM      8  O   UNL     1       4.535  46.773  52.153  1.00  0.00    -0.269 OA
BRANCH   7   9
ATOM      9  N   UNL     1       6.121  45.913  53.636  1.00  0.00    -0.280 N 
ATOM     10  C   UNL     1       5.621  45.258  54.847  1.00  0.00     0.157 C 
BRANCH   9  11
ATOM     11  C   UNL     1       7.481  46.400  53.599  1.00  0.00     0.235 A 
ATOM     12  C   UNL     1       9.311  47.445  54.696  1.00  0.00     0.217 A 
ATOM     13  C   UNL     1      10.077  47.338  53.535  1.00  0.00     0.088 A 
ATOM     14  N   UNL     1       8.033  46.983  54.700  1.00  0.00    -0.177 NA
ATOM     15  C   UNL     1       9.500  46.753  52.409  1.00  0.00     0.121 A 
ATOM     16  N   UNL     1       8.223  46.295  52.462  1.00  0.00    -0.221 NA
BRANCH  12  17
ATOM     17  O   UNL     1       9.867  48.020  55.842  1.00  0.00    -0.481 OA
ATOM     18  C   UNL     1      11.072  47.543  56.430  1.00  0.00     0.280 C 
ENDBRANCH  12  17
ENDBRANCH   9  11
ENDBRANCH   7   9
ENDBRANCH   1   7
BRANCH   4  19
ATOM     19  O   UNL     1       5.809  41.273  49.044  1.00  0.00    -0.439 OA
BRANCH  19  20
ATOM     20  C   UNL     1       5.053  41.019  47.893  1.00  0.00     0.219 A 
ATOM     21  C   UNL     1       5.426  41.617  46.688  1.00  0.00     0.069 A 
ATOM     22  N   UNL     1       3.938  40.237  47.938  1.00  0.00    -0.221 NA
ATOM     23  C   UNL     1       4.662  41.391  45.541  1.00  0.00     0.020 A 
ATOM     24  C   UNL     1       3.180  39.997  46.836  1.00  0.00     0.128 A 
ATOM     25  C   UNL     1       3.533  40.559  45.598  1.00  0.00     0.074 A 
BRANCH  25  26
ATOM     26  C   UNL     1       2.687  40.352  44.367  1.00  0.00     0.417 C 
ATOM     27  F   UNL     1       3.512  40.138  43.279  1.00  0.00    -0.166 F 
ATOM     28  F   UNL     1       1.869  39.249  44.536  1.00  0.00    -0.166 F 
ATOM     29  F   UNL     1       1.887  41.452  44.115  1.00  0.00    -0.166 F 
ENDBRANCH  25  26
ENDBRANCH  19  20
ENDBRANCH   4  19
TORSDOF 7
ENDMDL
MODEL 2
REMARK VINA RESULT:    -8.882      0.973      1.781
REMARK INTER + INTRA:         -13.068
REMARK INTER:                 -12.253
REMARK INTRA:                  -0.815
REMARK UNBOUND:                -0.551
REMARK SMILES COc1ccnc(N(C)C(=O)c2ccc(Oc3ccc(C(F)(F)F)cn3)cc2)n1
REMARK SMILES IDX 12 1 13 2 14 3 15 4 27 5 28 6 10 7 11 8 8 9 9 10 7 11 3 12
REMARK SMILES IDX 4 13 29 14 5 15 6 16 2 17 1 18 16 19 17 20 18 21 26 22 19 23
REMARK SMILES IDX 25 24 20 25 21 26 22 27 23 28 24 29
REMARK H PARENT
ROOT
ATOM      1  C   UNL     1       5.437  44.708  51.596  1.00  0.00     0.040 A 
ATOM      2  C   UNL     1       4.569  43.606  51.675  1.00  0.00     0.018 A 
ATOM      3  C   UNL     1       4.736  42.512  50.821  1.00  0.00     0.048 A 
ATOM      4  C   UNL     1       5.770  42.498  49.879  1.00  0.00     0.129 A 
ATOM      5  C   UNL     1       6.607  43.622  49.761  1.00  0.00     0.048 A 
ATOM      6  C   UNL     1       6.442  44.717  50.614  1.00  0.00     0.018 A 
ENDROOT
BRANCH   1   7
ATOM      7  C   UNL     1       5.294  45.839  52.544  1.00  0.00     0.260 C 
ATOM      8  O   UNL     1       4.527  46.796  52.250  1.00  0.00    -0.269 OA
BRANCH   7   9
ATOM      9  N   UNL     1       6.015  45.870  53.793  1.00  0.00    -0.280 N 
ATOM     10  C   UNL     1       5.482  45.116  54.931  1.00  0.00     0.157 C 
BRANCH   9  11
ATOM     11  C   UNL     1       7.352  46.415  53.863  1.00  0.00     0.235 A 
ATOM     12  C   UNL     1       9.583  46.475  53.050  1.00  0.00     0.217 A 
ATOM     13  C   UNL     1       9.909  47.447  53.996  1.00  0.00     0.088 A 
ATOM     14  N   UNL     1       8.319  45.977  53.010  1.00  0.00    -0.177 NA
ATOM     15  C   UNL     1       8.917  47.878  54.875  1.00  0.00     0.121 A 
ATOM     16  N   UNL     1       7.664  47.361  54.792  1.00  0.00    -0.221 NA
BRANCH  12  17
ATOM     17  O   UNL     1      10.556  46.029  52.151  1.00  0.00    -0.481 OA
ATOM     18  C   UNL     1      10.242  45.223  51.022  1.00  0.00     0.280 C 
ENDBRANCH  12  17
ENDBRANCH   9  11
ENDBRANCH   7   9
ENDBRANCH   1   7
BRANCH   4  19
ATOM     19  O   UNL     1       5.910  41.372  49.053  1.00  0.00    -0.439 OA
BRANCH  19  20
ATOM     20  C   UNL     1       5.133  41.102  47.920  1.00  0.00     0.219 A 
ATOM     21  C   UNL     1       5.481  41.684  46.701  1.00  0.00     0.069 A 
ATOM     22  N   UNL     1       4.019  40.319  47.998  1.00  0.00    -0.221 NA
ATOM     23  C   UNL     1       4.696  41.442  45.572  1.00  0.00     0.020 A 
ATOM     24  C   UNL     1       3.240  40.064  46.914  1.00  0.00     0.128 A 
ATOM     25  C   UNL     1       3.569  40.610  45.662  1.00  0.00     0.074 A 
BRANCH  25  26
ATOM     26  C   UNL     1       2.700  40.385  44.450  1.00  0.00     0.417 C 
ATOM     27  F   UNL     1       1.832  39.339  44.700  1.00  0.00    -0.166 F 
ATOM     28  F   UNL     1       1.966  41.526  44.177  1.00  0.00    -0.166 F 
ATOM     29  F   UNL     1       3.460  40.080  43.335  1.00  0.00    -0.166 F 
ENDBRANCH  25  26
ENDBRANCH  19  20
ENDBRANCH   4  19
TORSDOF 7
ENDMDL
MODEL 3
REMARK VINA RESULT:    -8.863      6.526      9.197
REMARK INTER + INTRA:         -13.041
REMARK INTER:                 -12.098
REMARK INTRA:                  -0.943
REMARK UNBOUND:                -0.551
REMARK SMILES COc1ccnc(N(C)C(=O)c2ccc(Oc3ccc(C(F)(F)F)cn3)cc2)n1
REMARK SMILES IDX 12 1 13 2 14 3 15 4 27 5 28 6 10 7 11 8 8 9 9 10 7 11 3 12
REMARK SMILES IDX 4 13 29 14 5 15 6 16 2 17 1 18 16 19 17 20 18 21 26 22 19 23
REMARK SMILES IDX 25 24 20 25 21 26 22 27 23 28 24 29
REMARK H PARENT
ROOT
ATOM      1  C   UNL     1       1.309  43.616  52.712  1.00  0.00     0.040 A 
ATOM      2  C   UNL     1       1.195  44.990  52.446  1.00  0.00     0.018 A 
ATOM      3  C   UNL     1       2.216  45.667  51.772  1.00  0.00     0.048 A 
ATOM      4  C   UNL     1       3.362  44.985  51.351  1.00  0.00     0.129 A 
ATOM      5  C   UNL     1       3.503  43.621  51.662  1.00  0.00     0.048 A 
ATOM      6  C   UNL     1       2.483  42.942  52.336  1.00  0.00     0.018 A 
ENDROOT
BRANCH   1   7
ATOM      7  C   UNL     1       0.198  42.889  53.372  1.00  0.00     0.260 C 
ATOM      8  O   UNL     1       0.400  41.724  53.812  1.00  0.00    -0.269 OA
BRANCH   7   9
ATOM      9  N   UNL     1      -1.107  43.483  53.521  1.00  0.00    -0.280 N 
ATOM     10  C   UNL     1      -2.035  43.435  52.388  1.00  0.00     0.157 C 
BRANCH   9  11
ATOM     11  C   UNL     1      -1.591  43.893  54.820  1.00  0.00     0.235 A 
ATOM     12  C   UNL     1      -1.297  45.161  56.807  1.00  0.00     0.217 A 
ATOM     13  C   UNL     1      -2.505  44.673  57.305  1.00  0.00     0.088 A 
ATOM     14  N   UNL     1      -0.865  44.755  55.584  1.00  0.00    -0.177 NA
ATOM     15  C   UNL     1      -3.235  43.780  56.523  1.00  0.00     0.121 A 
ATOM     16  N   UNL     1      -2.770  43.410  55.301  1.00  0.00    -0.221 NA
BRANCH  12  17
ATOM     17  O   UNL     1      -0.548  46.064  57.567  1.00  0.00    -0.481 OA
ATOM     18  C   UNL     1       0.874  46.057  57.580  1.00  0.00     0.280 C 
ENDBRANCH  12  17
ENDBRANCH   9  11
ENDBRANCH   7   9
ENDBRANCH   1   7
BRANCH   4  19
ATOM     19  O   UNL     1       4.354  45.701  50.663  1.00  0.00    -0.439 OA
BRANCH  19  20
ATOM     20  C   UNL     1       5.634  45.982  51.157  1.00  0.00     0.219 A 
ATOM     21  C   UNL     1       6.745  45.425  50.523  1.00  0.00     0.069 A 
ATOM     22  N   UNL     1       5.809  46.750  52.270  1.00  0.00    -0.221 NA
ATOM     23  C   UNL     1       8.023  45.677  51.025  1.00  0.00     0.020 A 
ATOM     24  C   UNL     1       7.043  47.014  52.776  1.00  0.00     0.128 A 
ATOM     25  C   UNL     1       8.190  46.494  52.154  1.00  0.00     0.074 A 
BRANCH  25  26
ATOM     26  C   UNL     1       9.568  46.730  52.717  1.00  0.00     0.417 C 
ATOM     27  F   UNL     1       9.898  45.689  53.565  1.00  0.00    -0.166 F 
ATOM     28  F   UNL     1      10.495  46.786  51.691  1.00  0.00    -0.166 F 
ATOM     29  F   UNL     1       9.627  47.919  53.422  1.00  0.00    -0.166 F 
ENDBRANCH  25  26
ENDBRANCH  19  20
ENDBRANCH   4  19
TORSDOF 7
ENDMDL
MODEL 4
REMARK VINA RESULT:    -8.180      4.819      7.754
REMARK INTER + INTRA:         -12.079
REMARK INTER:                 -11.617
REMARK INTRA:                  -0.462
REMARK UNBOUND:                -0.551
REMARK SMILES COc1ccnc(N(C)C(=O)c2ccc(Oc3ccc(C(F)(F)F)cn3)cc2)n1
REMARK SMILES IDX 12 1 13 2 14 3 15 4 27 5 28 6 10 7 11 8 8 9 9 10 7 11 3 12
REMARK SMILES IDX 4 13 29 14 5 15 6 16 2 17 1 18 16 19 17 20 18 21 26 22 19 23
REMARK SMILES IDX 25 24 20 25 21 26 22 27 23 28 24 29
REMARK H PARENT
ROOT
ATOM      1  C   UNL     1       6.371  46.817  53.303  1.00  0.00     0.040 A 
ATOM      2  C   UNL     1       6.687  45.884  54.304  1.00  0.00     0.018 A 
ATOM      3  C   UNL     1       5.679  45.330  55.099  1.00  0.00     0.048 A 
ATOM      4  C   UNL     1       4.343  45.696  54.908  1.00  0.00     0.129 A 
ATOM      5  C   UNL     1       4.029  46.670  53.944  1.00  0.00     0.048 A 
ATOM      6  C   UNL     1       5.035  47.224  53.147  1.00  0.00     0.018 A 
ENDROOT
BRANCH   1   7
ATOM      7  C   UNL     1       7.434  47.355  52.421  1.00  0.00     0.260 C 
ATOM      8  O   UNL     1       7.568  48.605  52.311  1.00  0.00    -0.269 OA
BRANCH   7   9
ATOM      9  N   UNL     1       8.316  46.483  51.687  1.00  0.00    -0.280 N 
ATOM     10  C   UNL     1       9.754  46.545  51.960  1.00  0.00     0.157 C 
BRANCH   9  11
ATOM     11  C   UNL     1       7.790  45.400  50.887  1.00  0.00     0.235 A 
ATOM     12  C   UNL     1       6.025  43.887  50.399  1.00  0.00     0.217 A 
ATOM     13  C   UNL     1       6.780  43.327  49.369  1.00  0.00     0.088 A 
ATOM     14  N   UNL     1       6.547  44.901  51.137  1.00  0.00    -0.177 NA
ATOM     15  C   UNL     1       8.057  43.834  49.129  1.00  0.00     0.121 A 
ATOM     16  N   UNL     1       8.534  44.856  49.885  1.00  0.00    -0.221 NA
BRANCH  12  17
ATOM     17  O   UNL     1       4.739  43.403  50.656  1.00  0.00    -0.481 OA
ATOM     18  C   UNL     1       4.172  43.394  51.961  1.00  0.00     0.280 C 
ENDBRANCH  12  17
ENDBRANCH   9  11
ENDBRANCH   7   9
ENDBRANCH   1   7
BRANCH   4  19
ATOM     19  O   UNL     1       3.363  45.103  55.719  1.00  0.00    -0.439 OA
BRANCH  19  20
ATOM     20  C   UNL     1       2.026  44.908  55.354  1.00  0.00     0.219 A 
ATOM     21  C   UNL     1       1.016  45.446  56.153  1.00  0.00     0.069 A 
ATOM     22  N   UNL     1       1.693  44.165  54.260  1.00  0.00    -0.221 NA
ATOM     23  C   UNL     1      -0.321  45.233  55.811  1.00  0.00     0.020 A 
ATOM     24  C   UNL     1       0.400  43.946  53.904  1.00  0.00     0.128 A 
ATOM     25  C   UNL     1      -0.647  44.491  54.666  1.00  0.00     0.074 A 
BRANCH  25  26
ATOM     26  C   UNL     1      -2.092  44.227  54.324  1.00  0.00     0.417 C 
ATOM     27  F   UNL     1      -2.694  45.412  53.948  1.00  0.00    -0.166 F 
ATOM     28  F   UNL     1      -2.173  43.327  53.276  1.00  0.00    -0.166 F 
ATOM     29  F   UNL     1      -2.775  43.699  55.405  1.00  0.00    -0.166 F 
ENDBRANCH  25  26
ENDBRANCH  19  20
ENDBRANCH   4  19
TORSDOF 7
ENDMDL
MODEL 5
REMARK VINA RESULT:    -8.155      6.473      9.912
REMARK INTER + INTRA:         -12.043
REMARK INTER:                 -11.202
REMARK INTRA:                  -0.841
REMARK UNBOUND:                -0.551
REMARK SMILES COc1ccnc(N(C)C(=O)c2ccc(Oc3ccc(C(F)(F)F)cn3)cc2)n1
REMARK SMILES IDX 12 1 13 2 14 3 15 4 27 5 28 6 10 7 11 8 8 9 9 10 7 11 3 12
REMARK SMILES IDX 4 13 29 14 5 15 6 16 2 17 1 18 16 19 17 20 18 21 26 22 19 23
REMARK SMILES IDX 25 24 20 25 21 26 22 27 23 28 24 29
REMARK H PARENT
ROOT
ATOM      1  C   UNL     1       1.351  43.809  52.668  1.00  0.00     0.040 A 
ATOM      2  C   UNL     1       1.304  45.198  52.464  1.00  0.00     0.018 A 
ATOM      3  C   UNL     1       2.359  45.853  51.822  1.00  0.00     0.048 A 
ATOM      4  C   UNL     1       3.473  45.137  51.374  1.00  0.00     0.129 A 
ATOM      5  C   UNL     1       3.547  43.755  51.624  1.00  0.00     0.048 A 
ATOM      6  C   UNL     1       2.493  43.097  52.266  1.00  0.00     0.018 A 
ENDROOT
BRANCH   1   7
ATOM      7  C   UNL     1       0.203  43.108  53.293  1.00  0.00     0.260 C 
ATOM      8  O   UNL     1       0.405  42.023  53.905  1.00  0.00    -0.269 OA
BRANCH   7   9
ATOM      9  N   UNL     1      -1.135  43.637  53.216  1.00  0.00    -0.280 N 
ATOM     10  C   UNL     1      -1.762  44.146  54.438  1.00  0.00     0.157 C 
BRANCH   9  11
ATOM     11  C   UNL     1      -1.756  43.898  51.936  1.00  0.00     0.235 A 
ATOM     12  C   UNL     1      -2.377  43.143  49.771  1.00  0.00     0.217 A 
ATOM     13  C   UNL     1      -2.933  44.391  49.488  1.00  0.00     0.088 A 
ATOM     14  N   UNL     1      -1.796  42.928  50.981  1.00  0.00    -0.177 NA
ATOM     15  C   UNL     1      -2.874  45.383  50.466  1.00  0.00     0.121 A 
ATOM     16  N   UNL     1      -2.293  45.119  51.665  1.00  0.00    -0.221 NA
BRANCH  12  17
ATOM     17  O   UNL     1      -2.429  42.128  48.812  1.00  0.00    -0.481 OA
ATOM     18  C   UNL     1      -3.384  41.074  48.865  1.00  0.00     0.280 C 
ENDBRANCH  12  17
ENDBRANCH   9  11
ENDBRANCH   7   9
ENDBRANCH   1   7
BRANCH   4  19
ATOM     19  O   UNL     1       4.501  45.834  50.721  1.00  0.00    -0.439 OA
BRANCH  19  20
ATOM     20  C   UNL     1       5.781  46.058  51.243  1.00  0.00     0.219 A 
ATOM     21  C   UNL     1       6.894  45.606  50.534  1.00  0.00     0.069 A 
ATOM     22  N   UNL     1       5.955  46.668  52.450  1.00  0.00    -0.221 NA
ATOM     23  C   UNL     1       8.173  45.802  51.060  1.00  0.00     0.020 A 
ATOM     24  C   UNL     1       7.188  46.873  52.983  1.00  0.00     0.128 A 
ATOM     25  C   UNL     1       8.337  46.457  52.290  1.00  0.00     0.074 A 
BRANCH  25  26
ATOM     26  C   UNL     1       9.716  46.628  52.875  1.00  0.00     0.417 C 
ATOM     27  F   UNL     1      10.651  46.578  51.859  1.00  0.00    -0.166 F 
ATOM     28  F   UNL     1       9.810  47.852  53.514  1.00  0.00    -0.166 F 
ATOM     29  F   UNL     1       9.999  45.634  53.795  1.00  0.00    -0.166 F 
ENDBRANCH  25  26
ENDBRANCH  19  20
ENDBRANCH   4  19
TORSDOF 7
ENDMDL
