ligand_31_conformer_2_docked
     RDKit          3D

 48 51  0  0  0  0  0  0  0  0999 V2000
    4.1260   42.8610   50.9800 C   0  0  0  0  0  0  0  0  0  0  0  0
    4.3060   44.3650   51.1860 C   0  0  0  0  0  0  0  0  0  0  0  0
    5.5640   44.7100   52.0180 C   0  0  1  0  0  0  0  0  0  0  0  0
    6.6870   45.2880   51.1150 C   0  0  0  0  0  0  0  0  0  0  0  0
    7.7110   46.0320   51.9240 C   0  0  0  0  0  0  0  0  0  0  0  0
    9.0800   45.9510   51.6240 C   0  0  0  0  0  0  0  0  0  0  0  0
   10.0020   46.7050   52.3580 C   0  0  0  0  0  0  0  0  0  0  0  0
    9.5610   47.5530   53.3790 C   0  0  0  0  0  0  0  0  0  0  0  0
    8.1970   47.6490   53.6700 C   0  0  0  0  0  0  0  0  0  0  0  0
    7.2700   46.8840   52.9460 C   0  0  0  0  0  0  0  0  0  0  0  0
    5.7970   46.9740   53.2120 C   0  0  0  0  0  0  0  0  0  0  0  0
    5.1960   45.6320   53.1210 N   0  0  0  0  0  0  0  0  0  0  0  0
    4.3270   45.1430   54.1690 C   0  0  0  0  0  0  0  0  0  0  0  0
    4.8350   44.7840   55.2660 O   0  0  0  0  0  0  0  0  0  0  0  0
    2.8250   45.0100   54.0020 C   0  0  1  0  0  0  0  0  0  0  0  0
    2.1390   44.9290   55.3930 C   0  0  0  0  0  0  0  0  0  0  0  0
    0.6050   44.7480   55.3620 C   0  0  0  0  0  0  0  0  0  0  0  0
    0.1410   44.0090   54.1480 C   0  0  0  0  0  0  0  0  0  0  0  0
   -0.5250   42.8400   54.1980 N   0  0  0  0  0  0  0  0  0  0  0  0
   -0.7750   42.4850   52.9470 N   0  0  0  0  0  0  0  0  0  0  0  0
   -0.2560   43.4400   52.1520 C   0  0  0  0  0  0  0  0  0  0  0  0
    0.3380   44.4080   52.8740 N   0  0  0  0  0  0  0  0  0  0  0  0
    0.9480   45.6300   52.3320 C   0  0  0  0  0  0  0  0  0  0  0  0
    2.2210   46.0930   53.0720 C   0  0  0  0  0  0  0  0  0  0  0  0
    4.0662   42.3615   51.9582 H   0  0  0  0  0  0  0  0  0  0  0  0
    3.1993   42.6764   50.4168 H   0  0  0  0  0  0  0  0  0  0  0  0
    4.9829   42.4629   50.4168 H   0  0  0  0  0  0  0  0  0  0  0  0
    4.3932   44.8467   50.2009 H   0  0  0  0  0  0  0  0  0  0  0  0
    3.4304   44.7301   51.7428 H   0  0  0  0  0  0  0  0  0  0  0  0
    5.9672   43.7902   52.4669 H   0  0  0  0  0  0  0  0  0  0  0  0
    7.1816   44.4607   50.5849 H   0  0  0  0  0  0  0  0  0  0  0  0
    6.2312   45.9908   50.4020 H   0  0  0  0  0  0  0  0  0  0  0  0
    9.4276   45.2951   50.8123 H   0  0  0  0  0  0  0  0  0  0  0  0
   11.0759   46.6307   52.1316 H   0  0  0  0  0  0  0  0  0  0  0  0
   10.2883   48.1452   53.9538 H   0  0  0  0  0  0  0  0  0  0  0  0
    7.8506   48.3241   54.4664 H   0  0  0  0  0  0  0  0  0  0  0  0
    5.6312   47.3819   54.2200 H   0  0  0  0  0  0  0  0  0  0  0  0
    5.3306   47.6347   52.4664 H   0  0  0  0  0  0  0  0  0  0  0  0
    2.6206   44.0640   53.4792 H   0  0  0  0  0  0  0  0  0  0  0  0
    2.5712   44.0756   55.9361 H   0  0  0  0  0  0  0  0  0  0  0  0
    2.3216   45.8985   55.8796 H   0  0  0  0  0  0  0  0  0  0  0  0
    0.2978   44.1859   56.2562 H   0  0  0  0  0  0  0  0  0  0  0  0
    0.1503   45.7494   55.3383 H   0  0  0  0  0  0  0  0  0  0  0  0
   -0.3106   43.4301   51.0534 H   0  0  0  0  0  0  0  0  0  0  0  0
    1.2103   45.4454   51.2798 H   0  0  0  0  0  0  0  0  0  0  0  0
    0.2052   46.4318   52.4561 H   0  0  0  0  0  0  0  0  0  0  0  0
    2.9776   46.3699   52.3231 H   0  0  0  0  0  0  0  0  0  0  0  0
    1.9336   46.9424   53.7091 H   0  0  0  0  0  0  0  0  0  0  0  0
  1  2  1  0
  2  3  1  0
  3  4  1  0
  4  5  1  0
  5  6  2  0
  6  7  1  0
  7  8  2  0
  8  9  1  0
  9 10  2  0
 10 11  1  0
 11 12  1  0
 12 13  1  0
 13 14  2  0
 13 15  1  0
 15 16  1  0
 16 17  1  0
 17 18  1  0
 18 19  2  0
 19 20  1  0
 20 21  2  0
 21 22  1  0
 22 23  1  0
 23 24  1  0
 12  3  1  0
 24 15  1  0
 10  5  1  0
 22 18  1  0
  1 25  1  0
  1 26  1  0
  1 27  1  0
  2 28  1  0
  2 29  1  0
  3 30  1  1
  4 31  1  0
  4 32  1  0
  6 33  1  0
  7 34  1  0
  8 35  1  0
  9 36  1  0
 11 37  1  0
 11 38  1  0
 15 39  1  6
 16 40  1  0
 16 41  1  0
 17 42  1  0
 17 43  1  0
 21 44  1  0
 23 45  1  0
 23 46  1  0
 24 47  1  0
 24 48  1  0
M  END
>  <meeko>  (1) 
{"is_sidechain": [false], "free_energy": -7.456, "intermolecular_energy": -10.943, "internal_energy": 0.214}

$$$$
ligand_31_conformer_2_docked
     RDKit          3D

 48 51  0  0  0  0  0  0  0  0999 V2000
    6.1240   46.5820   54.5880 C   0  0  0  0  0  0  0  0  0  0  0  0
    5.2940   47.2230   53.4750 C   0  0  0  0  0  0  0  0  0  0  0  0
    5.3970   46.4590   52.1340 C   0  0  1  0  0  0  0  0  0  0  0  0
    6.8570   46.0120   51.8580 C   0  0  0  0  0  0  0  0  0  0  0  0
    6.9100   44.9150   50.8330 C   0  0  0  0  0  0  0  0  0  0  0  0
    7.9180   44.8730   49.8570 C   0  0  0  0  0  0  0  0  0  0  0  0
    7.9750   43.8040   48.9570 C   0  0  0  0  0  0  0  0  0  0  0  0
    7.0390   42.7690   49.0360 C   0  0  0  0  0  0  0  0  0  0  0  0
    6.0430   42.7980   50.0170 C   0  0  0  0  0  0  0  0  0  0  0  0
    5.9740   43.8750   50.9140 C   0  0  0  0  0  0  0  0  0  0  0  0
    4.9350   43.9350   51.9940 C   0  0  0  0  0  0  0  0  0  0  0  0
    4.4480   45.3180   52.1350 N   0  0  0  0  0  0  0  0  0  0  0  0
    3.0290   45.5990   52.1570 C   0  0  0  0  0  0  0  0  0  0  0  0
    2.5430   46.3590   51.2750 O   0  0  0  0  0  0  0  0  0  0  0  0
    2.0940   45.0450   53.2140 C   0  0  1  0  0  0  0  0  0  0  0  0
    2.3870   45.7100   54.5870 C   0  0  0  0  0  0  0  0  0  0  0  0
    1.8920   44.9100   55.8110 C   0  0  0  0  0  0  0  0  0  0  0  0
    0.4080   44.9850   55.9750 C   0  0  0  0  0  0  0  0  0  0  0  0
   -0.1950   45.4000   57.1060 N   0  0  0  0  0  0  0  0  0  0  0  0
   -1.5010   45.3400   56.8890 N   0  0  0  0  0  0  0  0  0  0  0  0
   -1.6750   44.8870   55.6330 C   0  0  0  0  0  0  0  0  0  0  0  0
   -0.4950   44.6420   55.0330 N   0  0  0  0  0  0  0  0  0  0  0  0
   -0.3150   44.2010   53.6440 C   0  0  0  0  0  0  0  0  0  0  0  0
    0.6020   45.1080   52.7970 C   0  0  0  0  0  0  0  0  0  0  0  0
    5.7256   46.8897   55.5661 H   0  0  0  0  0  0  0  0  0  0  0  0
    6.0727   45.4868   54.4993 H   0  0  0  0  0  0  0  0  0  0  0  0
    7.1707   46.9085   54.4993 H   0  0  0  0  0  0  0  0  0  0  0  0
    4.2399   47.2413   53.7889 H   0  0  0  0  0  0  0  0  0  0  0  0
    5.6885   48.2364   53.3097 H   0  0  0  0  0  0  0  0  0  0  0  0
    5.1164   47.1315   51.3100 H   0  0  0  0  0  0  0  0  0  0  0  0
    7.4317   46.8744   51.4892 H   0  0  0  0  0  0  0  0  0  0  0  0
    7.2853   45.6299   52.7964 H   0  0  0  0  0  0  0  0  0  0  0  0
    8.6628   45.6805   49.8001 H   0  0  0  0  0  0  0  0  0  0  0  0
    8.7583   43.7777   48.1852 H   0  0  0  0  0  0  0  0  0  0  0  0
    7.0859   41.9305   48.3255 H   0  0  0  0  0  0  0  0  0  0  0  0
    5.3140   41.9771   50.0856 H   0  0  0  0  0  0  0  0  0  0  0  0
    4.0946   43.2760   51.7305 H   0  0  0  0  0  0  0  0  0  0  0  0
    5.3776   43.6048   52.9454 H   0  0  0  0  0  0  0  0  0  0  0  0
    2.2965   43.9690   53.3202 H   0  0  0  0  0  0  0  0  0  0  0  0
    3.4755   45.8391   54.6797 H   0  0  0  0  0  0  0  0  0  0  0  0
    1.8356   46.6618   54.5947 H   0  0  0  0  0  0  0  0  0  0  0  0
    2.1813   43.8562   55.6854 H   0  0  0  0  0  0  0  0  0  0  0  0
    2.3525   45.3486   56.7085 H   0  0  0  0  0  0  0  0  0  0  0  0
   -2.6557   44.7364   55.1580 H   0  0  0  0  0  0  0  0  0  0  0  0
    0.1197   43.1907   53.6582 H   0  0  0  0  0  0  0  0  0  0  0  0
   -1.3089   44.2358   53.1740 H   0  0  0  0  0  0  0  0  0  0  0  0
    0.5217   44.7981   51.7446 H   0  0  0  0  0  0  0  0  0  0  0  0
    0.2664   46.1436   52.9550 H   0  0  0  0  0  0  0  0  0  0  0  0
  1  2  1  0
  2  3  1  0
  3  4  1  0
  4  5  1  0
  5  6  2  0
  6  7  1  0
  7  8  2  0
  8  9  1  0
  9 10  2  0
 10 11  1  0
 11 12  1  0
 12 13  1  0
 13 14  2  0
 13 15  1  0
 15 16  1  0
 16 17  1  0
 17 18  1  0
 18 19  2  0
 19 20  1  0
 20 21  2  0
 21 22  1  0
 22 23  1  0
 23 24  1  0
 12  3  1  0
 24 15  1  0
 10  5  1  0
 22 18  1  0
  1 25  1  0
  1 26  1  0
  1 27  1  0
  2 28  1  0
  2 29  1  0
  3 30  1  6
  4 31  1  0
  4 32  1  0
  6 33  1  0
  7 34  1  0
  8 35  1  0
  9 36  1  0
 11 37  1  0
 11 38  1  0
 15 39  1  1
 16 40  1  0
 16 41  1  0
 17 42  1  0
 17 43  1  0
 21 44  1  0
 23 45  1  0
 23 46  1  0
 24 47  1  0
 24 48  1  0
M  END
>  <meeko>  (2) 
{"is_sidechain": [false], "free_energy": -7.184, "intermolecular_energy": -10.089, "internal_energy": -0.241}

$$$$
ligand_31_conformer_2_docked
     RDKit          3D

 48 51  0  0  0  0  0  0  0  0999 V2000
    5.6060   43.3710   50.0960 C   0  0  0  0  0  0  0  0  0  0  0  0
    5.5050   44.8140   50.5910 C   0  0  0  0  0  0  0  0  0  0  0  0
    6.3890   45.0860   51.8310 C   0  0  1  0  0  0  0  0  0  0  0  0
    7.7100   45.7950   51.4270 C   0  0  0  0  0  0  0  0  0  0  0  0
    8.3570   46.4600   52.6090 C   0  0  0  0  0  0  0  0  0  0  0  0
    9.7500   46.4490   52.7830 C   0  0  0  0  0  0  0  0  0  0  0  0
   10.3260   47.1310   53.8600 C   0  0  0  0  0  0  0  0  0  0  0  0
    9.5170   47.8380   54.7560 C   0  0  0  0  0  0  0  0  0  0  0  0
    8.1310   47.8660   54.5760 C   0  0  0  0  0  0  0  0  0  0  0  0
    7.5490   47.1720   53.5050 C   0  0  0  0  0  0  0  0  0  0  0  0
    6.0680   47.1940   53.2650 C   0  0  0  0  0  0  0  0  0  0  0  0
    5.6170   45.8590   52.8360 N   0  0  0  0  0  0  0  0  0  0  0  0
    4.4820   45.2270   53.4700 C   0  0  0  0  0  0  0  0  0  0  0  0
    4.5640   44.9040   54.6870 O   0  0  0  0  0  0  0  0  0  0  0  0
    3.1980   44.9020   52.7310 C   0  0  1  0  0  0  0  0  0  0  0  0
    2.8440   43.4000   52.9110 C   0  0  0  0  0  0  0  0  0  0  0  0
    1.4750   42.9710   52.3420 C   0  0  0  0  0  0  0  0  0  0  0  0
    0.3560   43.2590   53.2920 C   0  0  0  0  0  0  0  0  0  0  0  0
   -0.7200   42.4630   53.4360 N   0  0  0  0  0  0  0  0  0  0  0  0
   -1.4920   43.0230   54.3560 N   0  0  0  0  0  0  0  0  0  0  0  0
   -0.8770   44.1520   54.7570 C   0  0  0  0  0  0  0  0  0  0  0  0
    0.2830   44.3370   54.1000 N   0  0  0  0  0  0  0  0  0  0  0  0
    1.2360   45.4300   54.3350 C   0  0  0  0  0  0  0  0  0  0  0  0
    2.0350   45.8630   53.0860 C   0  0  0  0  0  0  0  0  0  0  0  0
    5.6537   42.6900   50.9585 H   0  0  0  0  0  0  0  0  0  0  0  0
    4.7225   43.1297   49.4867 H   0  0  0  0  0  0  0  0  0  0  0  0
    6.5145   43.2551   49.4867 H   0  0  0  0  0  0  0  0  0  0  0  0
    5.8208   45.4866   49.7799 H   0  0  0  0  0  0  0  0  0  0  0  0
    4.4597   44.9909   50.8844 H   0  0  0  0  0  0  0  0  0  0  0  0
    6.6765   44.1288   52.2905 H   0  0  0  0  0  0  0  0  0  0  0  0
    8.4039   45.0496   51.0111 H   0  0  0  0  0  0  0  0  0  0  0  0
    7.4748   46.5675   50.6801 H   0  0  0  0  0  0  0  0  0  0  0  0
   10.3887   45.9040   52.0723 H   0  0  0  0  0  0  0  0  0  0  0  0
   11.4165   47.1114   54.0026 H   0  0  0  0  0  0  0  0  0  0  0  0
    9.9720   48.3724   55.6030 H   0  0  0  0  0  0  0  0  0  0  0  0
    7.4969   48.4322   55.2741 H   0  0  0  0  0  0  0  0  0  0  0  0
    5.5506   47.4740   54.1945 H   0  0  0  0  0  0  0  0  0  0  0  0
    5.8362   47.9279   52.4791 H   0  0  0  0  0  0  0  0  0  0  0  0
    3.3678   45.0728   51.6577 H   0  0  0  0  0  0  0  0  0  0  0  0
    3.6217   42.8053   52.4094 H   0  0  0  0  0  0  0  0  0  0  0  0
    2.7888   43.2290   53.9962 H   0  0  0  0  0  0  0  0  0  0  0  0
    1.2937   43.5169   51.4044 H   0  0  0  0  0  0  0  0  0  0  0  0
    1.5041   41.8846   52.1719 H   0  0  0  0  0  0  0  0  0  0  0  0
   -1.2720   44.8353   55.5232 H   0  0  0  0  0  0  0  0  0  0  0  0
    0.6751   46.3017   54.7032 H   0  0  0  0  0  0  0  0  0  0  0  0
    1.9711   45.0533   55.0614 H   0  0  0  0  0  0  0  0  0  0  0  0
    1.3458   45.9064   52.2298 H   0  0  0  0  0  0  0  0  0  0  0  0
    2.4825   46.8421   53.3121 H   0  0  0  0  0  0  0  0  0  0  0  0
  1  2  1  0
  2  3  1  0
  3  4  1  0
  4  5  1  0
  5  6  2  0
  6  7  1  0
  7  8  2  0
  8  9  1  0
  9 10  2  0
 10 11  1  0
 11 12  1  0
 12 13  1  0
 13 14  2  0
 13 15  1  0
 15 16  1  0
 16 17  1  0
 17 18  1  0
 18 19  2  0
 19 20  1  0
 20 21  2  0
 21 22  1  0
 22 23  1  0
 23 24  1  0
 12  3  1  0
 24 15  1  0
 10  5  1  0
 22 18  1  0
  1 25  1  0
  1 26  1  0
  1 27  1  0
  2 28  1  0
  2 29  1  0
  3 30  1  1
  4 31  1  0
  4 32  1  0
  6 33  1  0
  7 34  1  0
  8 35  1  0
  9 36  1  0
 11 37  1  0
 11 38  1  0
 15 39  1  6
 16 40  1  0
 16 41  1  0
 17 42  1  0
 17 43  1  0
 21 44  1  0
 23 45  1  0
 23 46  1  0
 24 47  1  0
 24 48  1  0
M  END
>  <meeko>  (3) 
{"is_sidechain": [false], "free_energy": -7.107, "intermolecular_energy": -10.761, "internal_energy": 0.544}

$$$$
ligand_31_conformer_2_docked
     RDKit          3D

 48 51  0  0  0  0  0  0  0  0999 V2000
    7.0760   43.2980   49.3450 C   0  0  0  0  0  0  0  0  0  0  0  0
    7.0300   44.7830   49.7060 C   0  0  0  0  0  0  0  0  0  0  0  0
    7.4630   45.0600   51.1640 C   0  0  1  0  0  0  0  0  0  0  0  0
    8.7180   45.9730   51.2080 C   0  0  0  0  0  0  0  0  0  0  0  0
    8.8840   46.6110   52.5580 C   0  0  0  0  0  0  0  0  0  0  0  0
   10.1510   46.7720   53.1410 C   0  0  0  0  0  0  0  0  0  0  0  0
   10.2770   47.4260   54.3710 C   0  0  0  0  0  0  0  0  0  0  0  0
    9.1450   47.9370   55.0130 C   0  0  0  0  0  0  0  0  0  0  0  0
    7.8830   47.7940   54.4280 C   0  0  0  0  0  0  0  0  0  0  0  0
    7.7500   47.1260   53.2010 C   0  0  0  0  0  0  0  0  0  0  0  0
    6.4190   46.9700   52.5300 C   0  0  0  0  0  0  0  0  0  0  0  0
    6.3230   45.6310   51.9250 N   0  0  0  0  0  0  0  0  0  0  0  0
    5.1650   44.7980   52.1610 C   0  0  0  0  0  0  0  0  0  0  0  0
    5.1140   44.1060   53.2150 O   0  0  0  0  0  0  0  0  0  0  0  0
    4.0120   44.6900   51.1810 C   0  0  1  0  0  0  0  0  0  0  0  0
    3.2230   43.3750   51.4290 C   0  0  0  0  0  0  0  0  0  0  0  0
    1.7340   43.5550   51.7840 C   0  0  0  0  0  0  0  0  0  0  0  0
    1.5720   44.2460   53.1000 C   0  0  0  0  0  0  0  0  0  0  0  0
    0.9750   43.6810   54.1670 N   0  0  0  0  0  0  0  0  0  0  0  0
    1.0160   44.5720   55.1470 N   0  0  0  0  0  0  0  0  0  0  0  0
    1.6330   45.6670   54.6620 C   0  0  0  0  0  0  0  0  0  0  0  0
    1.9860   45.5000   53.3740 N   0  0  0  0  0  0  0  0  0  0  0  0
    2.7310   46.4680   52.5580 C   0  0  0  0  0  0  0  0  0  0  0  0
    3.1190   45.9570   51.1540 C   0  0  0  0  0  0  0  0  0  0  0  0
    7.0946   42.6971   50.2662 H   0  0  0  0  0  0  0  0  0  0  0  0
    6.1855   43.0364   48.7545 H   0  0  0  0  0  0  0  0  0  0  0  0
    7.9810   43.0921   48.7545 H   0  0  0  0  0  0  0  0  0  0  0  0
    7.7034   45.3299   49.0297 H   0  0  0  0  0  0  0  0  0  0  0  0
    5.9870   45.1165   49.6018 H   0  0  0  0  0  0  0  0  0  0  0  0
    7.7490   44.1126   51.6443 H   0  0  0  0  0  0  0  0  0  0  0  0
    9.6092   45.3675   50.9862 H   0  0  0  0  0  0  0  0  0  0  0  0
    8.5925   46.7706   50.4610 H   0  0  0  0  0  0  0  0  0  0  0  0
   11.0447   46.3838   52.6304 H   0  0  0  0  0  0  0  0  0  0  0  0
   11.2685   47.5385   54.8340 H   0  0  0  0  0  0  0  0  0  0  0  0
    9.2473   48.4522   55.9795 H   0  0  0  0  0  0  0  0  0  0  0  0
    6.9945   48.2051   54.9296 H   0  0  0  0  0  0  0  0  0  0  0  0
    5.6178   47.0938   53.2735 H   0  0  0  0  0  0  0  0  0  0  0  0
    6.3148   47.7332   51.7447 H   0  0  0  0  0  0  0  0  0  0  0  0
    4.4296   44.6359   50.1648 H   0  0  0  0  0  0  0  0  0  0  0  0
    3.2828   42.7657   50.5151 H   0  0  0  0  0  0  0  0  0  0  0  0
    3.6890   42.9025   52.3063 H   0  0  0  0  0  0  0  0  0  0  0  0
    1.2485   44.1559   51.0010 H   0  0  0  0  0  0  0  0  0  0  0  0
    1.2695   42.5603   51.8532 H   0  0  0  0  0  0  0  0  0  0  0  0
    1.8238   46.5806   55.2441 H   0  0  0  0  0  0  0  0  0  0  0  0
    2.1081   47.3665   52.4366 H   0  0  0  0  0  0  0  0  0  0  0  0
    3.6730   46.6664   53.0902 H   0  0  0  0  0  0  0  0  0  0  0  0
    2.1970   45.7212   50.6024 H   0  0  0  0  0  0  0  0  0  0  0  0
    3.7030   46.7537   50.6701 H   0  0  0  0  0  0  0  0  0  0  0  0
  1  2  1  0
  2  3  1  0
  3  4  1  0
  4  5  1  0
  5  6  2  0
  6  7  1  0
  7  8  2  0
  8  9  1  0
  9 10  2  0
 10 11  1  0
 11 12  1  0
 12 13  1  0
 13 14  2  0
 13 15  1  0
 15 16  1  0
 16 17  1  0
 17 18  1  0
 18 19  2  0
 19 20  1  0
 20 21  2  0
 21 22  1  0
 22 23  1  0
 23 24  1  0
 12  3  1  0
 24 15  1  0
 10  5  1  0
 22 18  1  0
  1 25  1  0
  1 26  1  0
  1 27  1  0
  2 28  1  0
  2 29  1  0
  3 30  1  1
  4 31  1  0
  4 32  1  0
  6 33  1  0
  7 34  1  0
  8 35  1  0
  9 36  1  0
 11 37  1  0
 11 38  1  0
 15 39  1  6
 16 40  1  0
 16 41  1  0
 17 42  1  0
 17 43  1  0
 21 44  1  0
 23 45  1  0
 23 46  1  0
 24 47  1  0
 24 48  1  0
M  END
>  <meeko>  (4) 
{"is_sidechain": [false], "free_energy": -7.093, "intermolecular_energy": -10.436, "internal_energy": 0.239}

$$$$
ligand_31_conformer_2_docked
     RDKit          3D

 48 51  0  0  0  0  0  0  0  0999 V2000
    3.1610   42.5160   52.3150 C   0  0  0  0  0  0  0  0  0  0  0  0
    2.5570   43.7620   51.6690 C   0  0  0  0  0  0  0  0  0  0  0  0
    1.7710   44.6380   52.6730 C   0  0  1  0  0  0  0  0  0  0  0  0
    0.5760   43.8540   53.2790 C   0  0  0  0  0  0  0  0  0  0  0  0
    0.0870   44.4950   54.5470 C   0  0  0  0  0  0  0  0  0  0  0  0
   -1.2810   44.5690   54.8500 C   0  0  0  0  0  0  0  0  0  0  0  0
   -1.7000   45.1150   56.0680 C   0  0  0  0  0  0  0  0  0  0  0  0
   -0.7560   45.5730   56.9920 C   0  0  0  0  0  0  0  0  0  0  0  0
    0.6090   45.4860   56.7020 C   0  0  0  0  0  0  0  0  0  0  0  0
    1.0320   44.9510   55.4760 C   0  0  0  0  0  0  0  0  0  0  0  0
    2.4870   44.8200   55.1340 C   0  0  0  0  0  0  0  0  0  0  0  0
    2.6930   45.1550   53.7150 N   0  0  0  0  0  0  0  0  0  0  0  0
    3.7260   46.0870   53.3220 C   0  0  0  0  0  0  0  0  0  0  0  0
    3.4320   47.3080   53.1990 O   0  0  0  0  0  0  0  0  0  0  0  0
    5.1500   45.6630   53.0180 C   0  0  1  0  0  0  0  0  0  0  0  0
    5.7450   46.5570   51.8950 C   0  0  0  0  0  0  0  0  0  0  0  0
    7.0680   46.0410   51.3080 C   0  0  0  0  0  0  0  0  0  0  0  0
    8.2450   46.3880   52.1610 C   0  0  0  0  0  0  0  0  0  0  0  0
    9.5050   46.4700   51.6920 N   0  0  0  0  0  0  0  0  0  0  0  0
   10.2770   46.7990   52.7180 N   0  0  0  0  0  0  0  0  0  0  0  0
    9.4780   46.9100   53.7960 C   0  0  0  0  0  0  0  0  0  0  0  0
    8.1950   46.6470   53.4850 N   0  0  0  0  0  0  0  0  0  0  0  0
    7.0540   46.7370   54.4050 C   0  0  0  0  0  0  0  0  0  0  0  0
    6.0410   45.5790   54.2840 C   0  0  0  0  0  0  0  0  0  0  0  0
    3.1147   42.6116   53.4099 H   0  0  0  0  0  0  0  0  0  0  0  0
    2.5934   41.6279   52.0001 H   0  0  0  0  0  0  0  0  0  0  0  0
    4.2098   42.4115   52.0001 H   0  0  0  0  0  0  0  0  0  0  0  0
    3.3709   44.3645   51.2393 H   0  0  0  0  0  0  0  0  0  0  0  0
    1.8479   43.4245   50.8988 H   0  0  0  0  0  0  0  0  0  0  0  0
    1.3417   45.5014   52.1435 H   0  0  0  0  0  0  0  0  0  0  0  0
   -0.2460   43.8332   52.5483 H   0  0  0  0  0  0  0  0  0  0  0  0
    0.9144   42.8342   53.5145 H   0  0  0  0  0  0  0  0  0  0  0  0
   -2.0245   44.1975   54.1294 H   0  0  0  0  0  0  0  0  0  0  0  0
   -2.7733   45.1840   56.2989 H   0  0  0  0  0  0  0  0  0  0  0  0
   -1.0877   46.0025   57.9488 H   0  0  0  0  0  0  0  0  0  0  0  0
    1.3507   45.8368   57.4346 H   0  0  0  0  0  0  0  0  0  0  0  0
    3.0738   45.5071   55.7613 H   0  0  0  0  0  0  0  0  0  0  0  0
    2.8134   43.7855   55.3162 H   0  0  0  0  0  0  0  0  0  0  0  0
    5.1260   44.6308   52.6386 H   0  0  0  0  0  0  0  0  0  0  0  0
    5.0089   46.6216   51.0802 H   0  0  0  0  0  0  0  0  0  0  0  0
    5.9638   47.5329   52.3530 H   0  0  0  0  0  0  0  0  0  0  0  0
    7.0099   44.9465   51.2150 H   0  0  0  0  0  0  0  0  0  0  0  0
    7.2103   46.5224   50.3292 H   0  0  0  0  0  0  0  0  0  0  0  0
    9.8290   47.1811   54.8027 H   0  0  0  0  0  0  0  0  0  0  0  0
    7.4425   46.7474   55.4341 H   0  0  0  0  0  0  0  0  0  0  0  0
    6.5110   47.6564   54.1407 H   0  0  0  0  0  0  0  0  0  0  0  0
    6.5984   44.6311   54.2546 H   0  0  0  0  0  0  0  0  0  0  0  0
    5.3715   45.6441   55.1543 H   0  0  0  0  0  0  0  0  0  0  0  0
  1  2  1  0
  2  3  1  0
  3  4  1  0
  4  5  1  0
  5  6  2  0
  6  7  1  0
  7  8  2  0
  8  9  1  0
  9 10  2  0
 10 11  1  0
 11 12  1  0
 12 13  1  0
 13 14  2  0
 13 15  1  0
 15 16  1  0
 16 17  1  0
 17 18  1  0
 18 19  2  0
 19 20  1  0
 20 21  2  0
 21 22  1  0
 22 23  1  0
 23 24  1  0
 12  3  1  0
 24 15  1  0
 10  5  1  0
 22 18  1  0
  1 25  1  0
  1 26  1  0
  1 27  1  0
  2 28  1  0
  2 29  1  0
  3 30  1  6
  4 31  1  0
  4 32  1  0
  6 33  1  0
  7 34  1  0
  8 35  1  0
  9 36  1  0
 11 37  1  0
 11 38  1  0
 15 39  1  6
 16 40  1  0
 16 41  1  0
 17 42  1  0
 17 43  1  0
 21 44  1  0
 23 45  1  0
 23 46  1  0
 24 47  1  0
 24 48  1  0
M  END
>  <meeko>  (5) 
{"is_sidechain": [false], "free_energy": -6.532, "intermolecular_energy": -9.438, "internal_energy": 0.066}

$$$$
