ligand_62_conformer_2_docked
     RDKit          3D

 45 47  0  0  0  0  0  0  0  0999 V2000
   -3.3310   46.6500   51.5600 C   0  0  0  0  0  0  0  0  0  0  0  0
   -2.5230   45.4560   51.2740 N   0  0  0  0  0  0  0  0  0  0  0  0
   -3.3420   44.2370   51.1950 C   0  0  0  0  0  0  0  0  0  0  0  0
   -2.6340   43.1420   51.9910 C   0  0  0  0  0  0  0  0  0  0  0  0
   -1.2490   43.7110   52.3140 C   0  0  1  0  0  0  0  0  0  0  0  0
   -0.7520   43.2210   53.6900 C   0  0  0  0  0  0  0  0  0  0  0  0
   -0.2470   43.3140   51.1910 C   0  0  0  0  0  0  0  0  0  0  0  0
    0.6420   44.4190   50.8260 N   0  0  0  0  0  0  0  0  0  0  0  0
    1.9790   44.5510   51.3310 C   0  0  0  0  0  0  0  0  0  0  0  0
    2.4440   43.6890   52.1260 O   0  0  0  0  0  0  0  0  0  0  0  0
    2.7970   45.6450   50.8880 N   0  0  0  0  0  0  0  0  0  0  0  0
    4.0710   45.9840   51.4620 C   0  0  0  0  0  0  0  0  0  0  0  0
    4.1140   46.7380   52.6420 C   0  0  0  0  0  0  0  0  0  0  0  0
    5.3400   47.0650   53.2320 C   0  0  0  0  0  0  0  0  0  0  0  0
    6.5430   46.6280   52.6570 C   0  0  0  0  0  0  0  0  0  0  0  0
    7.8350   46.9760   53.2840 C   0  0  0  0  0  0  0  0  0  0  0  0
    7.9560   47.4620   54.5380 N   0  0  0  0  0  0  0  0  0  0  0  0
    9.2840   47.6290   54.6830 C   0  0  0  0  0  0  0  0  0  0  0  0
    9.9170   47.2400   53.5250 C   0  0  0  0  0  0  0  0  0  0  0  0
    8.9970   46.8430   52.6830 O   0  0  0  0  0  0  0  0  0  0  0  0
    6.5000   45.8530   51.4870 C   0  0  0  0  0  0  0  0  0  0  0  0
    5.2750   45.5270   50.8980 C   0  0  0  0  0  0  0  0  0  0  0  0
   -1.5210   45.2180   52.3180 C   0  0  0  0  0  0  0  0  0  0  0  0
   -3.4195   46.7807   52.6486 H   0  0  0  0  0  0  0  0  0  0  0  0
   -2.8453   47.5348   51.1227 H   0  0  0  0  0  0  0  0  0  0  0  0
   -4.3330   46.5281   51.1227 H   0  0  0  0  0  0  0  0  0  0  0  0
   -4.3369   44.4269   51.6242 H   0  0  0  0  0  0  0  0  0  0  0  0
   -3.4679   43.9277   50.1469 H   0  0  0  0  0  0  0  0  0  0  0  0
   -3.1853   42.9204   52.9167 H   0  0  0  0  0  0  0  0  0  0  0  0
   -2.5698   42.2000   51.4266 H   0  0  0  0  0  0  0  0  0  0  0  0
   -1.2925   43.7539   54.4861 H   0  0  0  0  0  0  0  0  0  0  0  0
   -0.9351   42.1403   53.7824 H   0  0  0  0  0  0  0  0  0  0  0  0
    0.3260   43.4194   53.7824 H   0  0  0  0  0  0  0  0  0  0  0  0
    0.3637   42.4698   51.5436 H   0  0  0  0  0  0  0  0  0  0  0  0
   -0.8304   43.0416   50.2991 H   0  0  0  0  0  0  0  0  0  0  0  0
    0.2840   45.1470   50.1680 H   0  0  0  0  0  0  0  0  0  0  0  0
    2.4870   46.1660   50.0370 H   0  0  0  0  0  0  0  0  0  0  0  0
    3.1767   47.0756   53.1083 H   0  0  0  0  0  0  0  0  0  0  0  0
    5.3608   47.6680   54.1517 H   0  0  0  0  0  0  0  0  0  0  0  0
    9.7834   48.0150   55.5839 H   0  0  0  0  0  0  0  0  0  0  0  0
   11.0012   47.2592   53.3401 H   0  0  0  0  0  0  0  0  0  0  0  0
    7.4366   45.5000   51.0308 H   0  0  0  0  0  0  0  0  0  0  0  0
    5.2529   44.9094   49.9880 H   0  0  0  0  0  0  0  0  0  0  0  0
   -1.9092   45.5327   53.2979 H   0  0  0  0  0  0  0  0  0  0  0  0
   -0.6016   45.7916   52.1292 H   0  0  0  0  0  0  0  0  0  0  0  0
  1  2  1  0
  2  3  1  0
  3  4  1  0
  4  5  1  0
  5  6  1  1
  5  7  1  0
  7  8  1  0
  8  9  1  0
  9 10  2  0
  9 11  1  0
 11 12  1  0
 12 13  2  0
 13 14  1  0
 14 15  2  0
 15 16  1  0
 16 17  2  0
 17 18  1  0
 18 19  2  0
 19 20  1  0
 15 21  1  0
 21 22  2  0
  5 23  1  0
 23  2  1  0
 22 12  1  0
 20 16  1  0
  1 24  1  0
  1 25  1  0
  1 26  1  0
  3 27  1  0
  3 28  1  0
  4 29  1  0
  4 30  1  0
  6 31  1  0
  6 32  1  0
  6 33  1  0
  7 34  1  0
  7 35  1  0
  8 36  1  0
 11 37  1  0
 13 38  1  0
 14 39  1  0
 18 40  1  0
 19 41  1  0
 21 42  1  0
 22 43  1  0
 23 44  1  0
 23 45  1  0
M  END
>  <meeko>  (1) 
{"is_sidechain": [false], "free_energy": -7.531, "intermolecular_energy": -9.292, "internal_energy": -0.768}

$$$$
ligand_62_conformer_2_docked
     RDKit          3D

 45 47  0  0  0  0  0  0  0  0999 V2000
   -1.3560   44.2500   55.7080 C   0  0  0  0  0  0  0  0  0  0  0  0
   -1.3260   44.5950   54.2800 N   0  0  0  0  0  0  0  0  0  0  0  0
   -2.6000   45.1710   53.8210 C   0  0  0  0  0  0  0  0  0  0  0  0
   -2.9670   44.5040   52.4960 C   0  0  0  0  0  0  0  0  0  0  0  0
   -1.7230   43.7080   52.0870 C   0  0  1  0  0  0  0  0  0  0  0  0
   -2.1100   42.4090   51.3510 C   0  0  0  0  0  0  0  0  0  0  0  0
   -0.8060   44.5960   51.1970 C   0  0  0  0  0  0  0  0  0  0  0  0
    0.5590   44.0720   51.1140 N   0  0  0  0  0  0  0  0  0  0  0  0
    1.6820   44.7000   51.7500 C   0  0  0  0  0  0  0  0  0  0  0  0
    1.5190   45.7540   52.4240 O   0  0  0  0  0  0  0  0  0  0  0  0
    2.9800   44.0960   51.6520 N   0  0  0  0  0  0  0  0  0  0  0  0
    4.1990   44.7260   52.0830 C   0  0  0  0  0  0  0  0  0  0  0  0
    4.6520   44.5220   53.3930 C   0  0  0  0  0  0  0  0  0  0  0  0
    5.8450   45.1060   53.8310 C   0  0  0  0  0  0  0  0  0  0  0  0
    6.6130   45.8930   52.9580 C   0  0  0  0  0  0  0  0  0  0  0  0
    7.8720   46.5070   53.4260 C   0  0  0  0  0  0  0  0  0  0  0  0
    7.9700   47.2740   54.5330 N   0  0  0  0  0  0  0  0  0  0  0  0
    9.2740   47.6080   54.5690 C   0  0  0  0  0  0  0  0  0  0  0  0
    9.9150   47.0380   53.4940 C   0  0  0  0  0  0  0  0  0  0  0  0
    9.0250   46.3670   52.8090 O   0  0  0  0  0  0  0  0  0  0  0  0
    6.1710   46.0780   51.6380 C   0  0  0  0  0  0  0  0  0  0  0  0
    4.9790   45.4950   51.2020 C   0  0  0  0  0  0  0  0  0  0  0  0
   -1.0770   43.4150   53.4440 C   0  0  0  0  0  0  0  0  0  0  0  0
   -1.2762   45.1680   56.3088 H   0  0  0  0  0  0  0  0  0  0  0  0
   -2.3019   43.7397   55.9421 H   0  0  0  0  0  0  0  0  0  0  0  0
   -0.5124   43.5841   55.9421 H   0  0  0  0  0  0  0  0  0  0  0  0
   -3.3864   44.9800   54.5660 H   0  0  0  0  0  0  0  0  0  0  0  0
   -2.5030   46.2587   53.6884 H   0  0  0  0  0  0  0  0  0  0  0  0
   -3.8282   43.8325   52.6280 H   0  0  0  0  0  0  0  0  0  0  0  0
   -3.2529   45.2408   51.7308 H   0  0  0  0  0  0  0  0  0  0  0  0
   -2.3433   41.6259   52.0874 H   0  0  0  0  0  0  0  0  0  0  0  0
   -2.9921   42.5938   50.7203 H   0  0  0  0  0  0  0  0  0  0  0  0
   -1.2706   42.0809   50.7203 H   0  0  0  0  0  0  0  0  0  0  0  0
   -1.2310   44.6398   50.1833 H   0  0  0  0  0  0  0  0  0  0  0  0
   -0.7570   45.5954   51.6539 H   0  0  0  0  0  0  0  0  0  0  0  0
    0.7230   43.1980   50.5640 H   0  0  0  0  0  0  0  0  0  0  0  0
    3.0270   43.1020   51.3340 H   0  0  0  0  0  0  0  0  0  0  0  0
    4.0648   43.8976   54.0824 H   0  0  0  0  0  0  0  0  0  0  0  0
    6.1836   44.9478   54.8656 H   0  0  0  0  0  0  0  0  0  0  0  0
    9.7505   48.2364   55.3358 H   0  0  0  0  0  0  0  0  0  0  0  0
   10.9844   47.1298   53.2533 H   0  0  0  0  0  0  0  0  0  0  0  0
    6.7678   46.6864   50.9425 H   0  0  0  0  0  0  0  0  0  0  0  0
    4.6485   45.6385   50.1627 H   0  0  0  0  0  0  0  0  0  0  0  0
   -1.5326   42.5229   53.8984 H   0  0  0  0  0  0  0  0  0  0  0  0
    0.0002   43.2175   53.3406 H   0  0  0  0  0  0  0  0  0  0  0  0
  1  2  1  0
  2  3  1  0
  3  4  1  0
  4  5  1  0
  5  6  1  6
  5  7  1  0
  7  8  1  0
  8  9  1  0
  9 10  2  0
  9 11  1  0
 11 12  1  0
 12 13  2  0
 13 14  1  0
 14 15  2  0
 15 16  1  0
 16 17  2  0
 17 18  1  0
 18 19  2  0
 19 20  1  0
 15 21  1  0
 21 22  2  0
  5 23  1  0
 23  2  1  0
 22 12  1  0
 20 16  1  0
  1 24  1  0
  1 25  1  0
  1 26  1  0
  3 27  1  0
  3 28  1  0
  4 29  1  0
  4 30  1  0
  6 31  1  0
  6 32  1  0
  6 33  1  0
  7 34  1  0
  7 35  1  0
  8 36  1  0
 11 37  1  0
 13 38  1  0
 14 39  1  0
 18 40  1  0
 19 41  1  0
 21 42  1  0
 22 43  1  0
 23 44  1  0
 23 45  1  0
M  END
>  <meeko>  (2) 
{"is_sidechain": [false], "free_energy": -7.11, "intermolecular_energy": -9.007, "internal_energy": -0.533}

$$$$
ligand_62_conformer_2_docked
     RDKit          3D

 45 47  0  0  0  0  0  0  0  0999 V2000
    8.5060   45.2950   50.4870 C   0  0  0  0  0  0  0  0  0  0  0  0
    7.9540   46.0300   51.6330 N   0  0  0  0  0  0  0  0  0  0  0  0
    7.8870   47.4790   51.3840 C   0  0  0  0  0  0  0  0  0  0  0  0
    8.4230   48.1950   52.6230 C   0  0  0  0  0  0  0  0  0  0  0  0
    8.5600   47.1040   53.6900 C   0  0  1  0  0  0  0  0  0  0  0  0
    9.7660   47.3760   54.6130 C   0  0  0  0  0  0  0  0  0  0  0  0
    7.2430   47.0140   54.5150 C   0  0  0  0  0  0  0  0  0  0  0  0
    6.5870   45.7130   54.3680 N   0  0  0  0  0  0  0  0  0  0  0  0
    5.3240   45.5400   53.7070 C   0  0  0  0  0  0  0  0  0  0  0  0
    4.7260   46.5350   53.2150 O   0  0  0  0  0  0  0  0  0  0  0  0
    4.7720   44.2220   53.5710 N   0  0  0  0  0  0  0  0  0  0  0  0
    3.4400   43.9490   53.1020 C   0  0  0  0  0  0  0  0  0  0  0  0
    3.2650   43.2700   51.8880 C   0  0  0  0  0  0  0  0  0  0  0  0
    1.9810   42.9730   51.4200 C   0  0  0  0  0  0  0  0  0  0  0  0
    0.8500   43.3390   52.1660 C   0  0  0  0  0  0  0  0  0  0  0  0
   -0.5040   43.0230   51.6670 C   0  0  0  0  0  0  0  0  0  0  0  0
   -1.4750   42.4690   52.4250 N   0  0  0  0  0  0  0  0  0  0  0  0
   -2.5140   42.3640   51.5750 C   0  0  0  0  0  0  0  0  0  0  0  0
   -2.1420   42.8540   50.3450 C   0  0  0  0  0  0  0  0  0  0  0  0
   -0.8980   43.2530   50.4340 O   0  0  0  0  0  0  0  0  0  0  0  0
    1.0250   43.9980   53.3940 C   0  0  0  0  0  0  0  0  0  0  0  0
    2.3090   44.2950   53.8620 C   0  0  0  0  0  0  0  0  0  0  0  0
    8.7750   45.8520   52.8360 C   0  0  0  0  0  0  0  0  0  0  0  0
    9.1296   44.4647   50.8499 H   0  0  0  0  0  0  0  0  0  0  0  0
    7.6827   44.8956   49.8765 H   0  0  0  0  0  0  0  0  0  0  0  0
    9.1190   45.9744   49.8765 H   0  0  0  0  0  0  0  0  0  0  0  0
    8.5015   47.7364   50.5087 H   0  0  0  0  0  0  0  0  0  0  0  0
    6.8496   47.7853   51.1838 H   0  0  0  0  0  0  0  0  0  0  0  0
    9.4007   48.6524   52.4114 H   0  0  0  0  0  0  0  0  0  0  0  0
    7.7566   49.0072   52.9489 H   0  0  0  0  0  0  0  0  0  0  0  0
    9.4474   47.3041   55.6634 H   0  0  0  0  0  0  0  0  0  0  0  0
   10.5528   46.6328   54.4168 H   0  0  0  0  0  0  0  0  0  0  0  0
   10.1576   48.3850   54.4168 H   0  0  0  0  0  0  0  0  0  0  0  0
    7.4787   47.1740   55.5775 H   0  0  0  0  0  0  0  0  0  0  0  0
    6.5544   47.7844   54.1377 H   0  0  0  0  0  0  0  0  0  0  0  0
    7.0600   44.8700   54.7650 H   0  0  0  0  0  0  0  0  0  0  0  0
    5.4100   43.4110   53.7360 H   0  0  0  0  0  0  0  0  0  0  0  0
    4.1440   42.9687   51.2993 H   0  0  0  0  0  0  0  0  0  0  0  0
    1.8567   42.4490   50.4608 H   0  0  0  0  0  0  0  0  0  0  0  0
   -3.5029   41.9519   51.8247 H   0  0  0  0  0  0  0  0  0  0  0  0
   -2.7759   42.9021   49.4473 H   0  0  0  0  0  0  0  0  0  0  0  0
    0.1463   44.2824   53.9916 H   0  0  0  0  0  0  0  0  0  0  0  0
    2.4347   44.8021   54.8300 H   0  0  0  0  0  0  0  0  0  0  0  0
    9.8360   45.7548   52.5624 H   0  0  0  0  0  0  0  0  0  0  0  0
    8.4917   44.9407   53.3830 H   0  0  0  0  0  0  0  0  0  0  0  0
  1  2  1  0
  2  3  1  0
  3  4  1  0
  4  5  1  0
  5  6  1  1
  5  7  1  0
  7  8  1  0
  8  9  1  0
  9 10  2  0
  9 11  1  0
 11 12  1  0
 12 13  2  0
 13 14  1  0
 14 15  2  0
 15 16  1  0
 16 17  2  0
 17 18  1  0
 18 19  2  0
 19 20  1  0
 15 21  1  0
 21 22  2  0
  5 23  1  0
 23  2  1  0
 22 12  1  0
 20 16  1  0
  1 24  1  0
  1 25  1  0
  1 26  1  0
  3 27  1  0
  3 28  1  0
  4 29  1  0
  4 30  1  0
  6 31  1  0
  6 32  1  0
  6 33  1  0
  7 34  1  0
  7 35  1  0
  8 36  1  0
 11 37  1  0
 13 38  1  0
 14 39  1  0
 18 40  1  0
 19 41  1  0
 21 42  1  0
 22 43  1  0
 23 44  1  0
 23 45  1  0
M  END
>  <meeko>  (3) 
{"is_sidechain": [false], "free_energy": -6.944, "intermolecular_energy": -8.599, "internal_energy": -0.737}

$$$$
ligand_62_conformer_2_docked
     RDKit          3D

 45 47  0  0  0  0  0  0  0  0999 V2000
    3.8190   36.1470   44.4470 C   0  0  0  0  0  0  0  0  0  0  0  0
    3.5240   37.0510   45.5670 N   0  0  0  0  0  0  0  0  0  0  0  0
    2.1870   36.8170   46.1340 C   0  0  0  0  0  0  0  0  0  0  0  0
    1.5160   38.1750   46.3350 C   0  0  0  0  0  0  0  0  0  0  0  0
    2.6230   39.2090   46.1020 C   0  0  1  0  0  0  0  0  0  0  0  0
    2.0610   40.4890   45.4500 C   0  0  0  0  0  0  0  0  0  0  0  0
    3.3230   39.5380   47.4530 C   0  0  0  0  0  0  0  0  0  0  0  0
    4.4730   40.4280   47.2780 N   0  0  0  0  0  0  0  0  0  0  0  0
    4.9880   41.2600   48.3260 C   0  0  0  0  0  0  0  0  0  0  0  0
    4.4510   41.2470   49.4670 O   0  0  0  0  0  0  0  0  0  0  0  0
    6.1460   42.0720   48.0810 N   0  0  0  0  0  0  0  0  0  0  0  0
    6.6350   43.0780   48.9850 C   0  0  0  0  0  0  0  0  0  0  0  0
    7.9590   43.5230   48.8670 C   0  0  0  0  0  0  0  0  0  0  0  0
    8.4530   44.5150   49.7200 C   0  0  0  0  0  0  0  0  0  0  0  0
    7.6240   45.0890   50.6970 C   0  0  0  0  0  0  0  0  0  0  0  0
    8.1510   46.1370   51.5950 C   0  0  0  0  0  0  0  0  0  0  0  0
    7.4290   47.1970   52.0190 N   0  0  0  0  0  0  0  0  0  0  0  0
    8.2930   47.8720   52.8010 C   0  0  0  0  0  0  0  0  0  0  0  0
    9.4950   47.2050   52.8250 C   0  0  0  0  0  0  0  0  0  0  0  0
    9.3760   46.1410   52.0730 O   0  0  0  0  0  0  0  0  0  0  0  0
    6.2910   44.6610   50.8000 C   0  0  0  0  0  0  0  0  0  0  0  0
    5.7980   43.6690   49.9470 C   0  0  0  0  0  0  0  0  0  0  0  0
    3.5600   38.4580   45.1520 C   0  0  0  0  0  0  0  0  0  0  0  0
    4.1379   35.1698   44.8387 H   0  0  0  0  0  0  0  0  0  0  0  0
    2.9162   36.0186   43.8319 H   0  0  0  0  0  0  0  0  0  0  0  0
    4.6238   36.5758   43.8319 H   0  0  0  0  0  0  0  0  0  0  0  0
    1.5901   36.2042   45.4425 H   0  0  0  0  0  0  0  0  0  0  0  0
    2.2662   36.2838   47.0929 H   0  0  0  0  0  0  0  0  0  0  0  0
    0.7003   38.3132   45.6100 H   0  0  0  0  0  0  0  0  0  0  0  0
    1.0700   38.2689   47.3361 H   0  0  0  0  0  0  0  0  0  0  0  0
    1.7512   41.1946   46.2349 H   0  0  0  0  0  0  0  0  0  0  0  0
    2.8379   40.9536   44.8251 H   0  0  0  0  0  0  0  0  0  0  0  0
    1.1932   40.2315   44.8251 H   0  0  0  0  0  0  0  0  0  0  0  0
    2.5960   40.0255   48.1192 H   0  0  0  0  0  0  0  0  0  0  0  0
    3.6891   38.5937   47.8824 H   0  0  0  0  0  0  0  0  0  0  0  0
    4.9400   40.4580   46.3430 H   0  0  0  0  0  0  0  0  0  0  0  0
    6.7200   41.8520   47.2350 H   0  0  0  0  0  0  0  0  0  0  0  0
    8.6143   43.0887   48.0977 H   0  0  0  0  0  0  0  0  0  0  0  0
    9.4972   44.8475   49.6249 H   0  0  0  0  0  0  0  0  0  0  0  0
    8.0722   48.8078   53.3353 H   0  0  0  0  0  0  0  0  0  0  0  0
   10.3955   47.5111   53.3775 H   0  0  0  0  0  0  0  0  0  0  0  0
    5.6301   45.1090   51.5567 H   0  0  0  0  0  0  0  0  0  0  0  0
    4.7487   43.3492   50.0293 H   0  0  0  0  0  0  0  0  0  0  0  0
    3.2105   38.5582   44.1138 H   0  0  0  0  0  0  0  0  0  0  0  0
    4.5821   38.8622   45.1954 H   0  0  0  0  0  0  0  0  0  0  0  0
  1  2  1  0
  2  3  1  0
  3  4  1  0
  4  5  1  0
  5  6  1  6
  5  7  1  0
  7  8  1  0
  8  9  1  0
  9 10  2  0
  9 11  1  0
 11 12  1  0
 12 13  2  0
 13 14  1  0
 14 15  2  0
 15 16  1  0
 16 17  2  0
 17 18  1  0
 18 19  2  0
 19 20  1  0
 15 21  1  0
 21 22  2  0
  5 23  1  0
 23  2  1  0
 22 12  1  0
 20 16  1  0
  1 24  1  0
  1 25  1  0
  1 26  1  0
  3 27  1  0
  3 28  1  0
  4 29  1  0
  4 30  1  0
  6 31  1  0
  6 32  1  0
  6 33  1  0
  7 34  1  0
  7 35  1  0
  8 36  1  0
 11 37  1  0
 13 38  1  0
 14 39  1  0
 18 40  1  0
 19 41  1  0
 21 42  1  0
 22 43  1  0
 23 44  1  0
 23 45  1  0
M  END
>  <meeko>  (4) 
{"is_sidechain": [false], "free_energy": -6.825, "intermolecular_energy": -9.287, "internal_energy": 0.098}

$$$$
ligand_62_conformer_2_docked
     RDKit          3D

 45 47  0  0  0  0  0  0  0  0999 V2000
   -3.3720   43.0550   57.1980 C   0  0  0  0  0  0  0  0  0  0  0  0
   -2.3430   43.2870   56.1750 N   0  0  0  0  0  0  0  0  0  0  0  0
   -1.4070   44.3560   56.5600 C   0  0  0  0  0  0  0  0  0  0  0  0
   -1.2120   45.2680   55.3500 C   0  0  0  0  0  0  0  0  0  0  0  0
   -1.8730   44.5320   54.1800 C   0  0  1  0  0  0  0  0  0  0  0  0
   -2.5100   45.5260   53.1850 C   0  0  0  0  0  0  0  0  0  0  0  0
   -0.8200   43.6350   53.4660 C   0  0  0  0  0  0  0  0  0  0  0  0
    0.1310   44.4200   52.6760 N   0  0  0  0  0  0  0  0  0  0  0  0
    1.5100   44.5820   53.0410 C   0  0  0  0  0  0  0  0  0  0  0  0
    1.9580   44.0310   54.0830 O   0  0  0  0  0  0  0  0  0  0  0  0
    2.3840   45.3340   52.1860 N   0  0  0  0  0  0  0  0  0  0  0  0
    3.7240   45.7190   52.5390 C   0  0  0  0  0  0  0  0  0  0  0  0
    4.8070   44.9990   52.0150 C   0  0  0  0  0  0  0  0  0  0  0  0
    6.1200   45.3650   52.3250 C   0  0  0  0  0  0  0  0  0  0  0  0
    6.3730   46.4690   53.1550 C   0  0  0  0  0  0  0  0  0  0  0  0
    7.7620   46.8520   53.4790 C   0  0  0  0  0  0  0  0  0  0  0  0
    8.1170   47.5190   54.5980 N   0  0  0  0  0  0  0  0  0  0  0  0
    9.4520   47.6480   54.4760 C   0  0  0  0  0  0  0  0  0  0  0  0
    9.8560   47.0600   53.3000 C   0  0  0  0  0  0  0  0  0  0  0  0
    8.7930   46.5790   52.7090 O   0  0  0  0  0  0  0  0  0  0  0  0
    5.2900   47.2050   53.6610 C   0  0  0  0  0  0  0  0  0  0  0  0
    3.9770   46.8390   53.3510 C   0  0  0  0  0  0  0  0  0  0  0  0
   -2.9340   43.6930   54.8950 C   0  0  0  0  0  0  0  0  0  0  0  0
   -2.9244   43.1559   58.1977 H   0  0  0  0  0  0  0  0  0  0  0  0
   -4.1785   43.7939   57.0810 H   0  0  0  0  0  0  0  0  0  0  0  0
   -3.7834   42.0416   57.0810 H   0  0  0  0  0  0  0  0  0  0  0  0
   -1.8230   44.9326   57.3993 H   0  0  0  0  0  0  0  0  0  0  0  0
   -0.4444   43.9271   56.8755 H   0  0  0  0  0  0  0  0  0  0  0  0
   -1.6981   46.2404   55.5178 H   0  0  0  0  0  0  0  0  0  0  0  0
   -0.1486   45.4734   55.1577 H   0  0  0  0  0  0  0  0  0  0  0  0
   -3.0219   46.3248   53.7417 H   0  0  0  0  0  0  0  0  0  0  0  0
   -1.7248   45.9653   52.5522 H   0  0  0  0  0  0  0  0  0  0  0  0
   -3.2372   44.9961   52.5522 H   0  0  0  0  0  0  0  0  0  0  0  0
   -0.2646   43.0668   54.2267 H   0  0  0  0  0  0  0  0  0  0  0  0
   -1.3575   42.9649   52.7790 H   0  0  0  0  0  0  0  0  0  0  0  0
   -0.2110   44.8860   51.8060 H   0  0  0  0  0  0  0  0  0  0  0  0
    2.0560   45.5330   51.2140 H   0  0  0  0  0  0  0  0  0  0  0  0
    4.6219   44.1390   51.3545 H   0  0  0  0  0  0  0  0  0  0  0  0
    6.9602   44.7846   51.9162 H   0  0  0  0  0  0  0  0  0  0  0  0
   10.1137   48.1444   55.2011 H   0  0  0  0  0  0  0  0  0  0  0  0
   10.8882   47.0043   52.9239 H   0  0  0  0  0  0  0  0  0  0  0  0
    5.4760   48.0762   54.3063 H   0  0  0  0  0  0  0  0  0  0  0  0
    3.1370   47.4303   53.7444 H   0  0  0  0  0  0  0  0  0  0  0  0
   -3.8409   44.2914   55.0668 H   0  0  0  0  0  0  0  0  0  0  0  0
   -3.2253   42.8192   54.2937 H   0  0  0  0  0  0  0  0  0  0  0  0
  1  2  1  0
  2  3  1  0
  3  4  1  0
  4  5  1  0
  5  6  1  6
  5  7  1  0
  7  8  1  0
  8  9  1  0
  9 10  2  0
  9 11  1  0
 11 12  1  0
 12 13  2  0
 13 14  1  0
 14 15  2  0
 15 16  1  0
 16 17  2  0
 17 18  1  0
 18 19  2  0
 19 20  1  0
 15 21  1  0
 21 22  2  0
  5 23  1  0
 23  2  1  0
 22 12  1  0
 20 16  1  0
  1 24  1  0
  1 25  1  0
  1 26  1  0
  3 27  1  0
  3 28  1  0
  4 29  1  0
  4 30  1  0
  6 31  1  0
  6 32  1  0
  6 33  1  0
  7 34  1  0
  7 35  1  0
  8 36  1  0
 11 37  1  0
 13 38  1  0
 14 39  1  0
 18 40  1  0
 19 41  1  0
 21 42  1  0
 22 43  1  0
 23 44  1  0
 23 45  1  0
M  END
>  <meeko>  (5) 
{"is_sidechain": [false], "free_energy": -6.573, "intermolecular_energy": -8.332, "internal_energy": -0.546}

$$$$
