ligand_50_conformer_4_docked
     RDKit          3D

 42 45  0  0  0  0  0  0  0  0999 V2000
    4.5780   42.4900   51.1130 C   0  0  0  0  0  0  0  0  0  0  0  0
    4.4190   43.5850   52.1140 C   0  0  0  0  0  0  0  0  0  0  0  0
    3.2120   43.7730   52.7330 N   0  0  0  0  0  0  0  0  0  0  0  0
    3.0030   44.7740   53.6420 C   0  0  0  0  0  0  0  0  0  0  0  0
    1.7090   44.9010   54.2680 N   0  0  0  0  0  0  0  0  0  0  0  0
    0.4790   44.5720   53.5620 C   0  0  0  0  0  0  0  0  0  0  0  0
   -0.6540   44.9170   54.5190 C   0  0  0  0  0  0  0  0  0  0  0  0
   -0.0110   44.9480   55.9060 C   0  0  2  0  0  0  0  0  0  0  0  0
   -0.6900   45.9530   56.8470 C   0  0  0  0  0  0  0  0  0  0  0  0
    0.1280   46.1860   57.9600 O   0  0  0  0  0  0  0  0  0  0  0  0
    1.4650   45.2630   55.6540 C   0  0  0  0  0  0  0  0  0  0  0  0
    4.0860   45.6300   53.8990 C   0  0  0  0  0  0  0  0  0  0  0  0
    4.3140   46.7230   54.7210 C   0  0  0  0  0  0  0  0  0  0  0  0
    5.5930   47.1360   54.5490 N   0  0  0  0  0  0  0  0  0  0  0  0
    6.1740   46.3550   53.6450 N   0  0  0  0  0  0  0  0  0  0  0  0
    7.5440   46.5000   53.2260 C   0  0  0  0  0  0  0  0  0  0  0  0
    7.9250   46.2950   51.8870 C   0  0  0  0  0  0  0  0  0  0  0  0
    9.2600   46.4510   51.5000 C   0  0  0  0  0  0  0  0  0  0  0  0
   10.2250   46.8200   52.4400 C   0  0  0  0  0  0  0  0  0  0  0  0
    9.8560   47.0400   53.7690 C   0  0  0  0  0  0  0  0  0  0  0  0
    8.5220   46.8870   54.1610 C   0  0  0  0  0  0  0  0  0  0  0  0
    5.2700   45.4400   53.2480 C   0  0  0  0  0  0  0  0  0  0  0  0
    5.4600   44.4280   52.3690 N   0  0  0  0  0  0  0  0  0  0  0  0
    4.7171   41.5324   51.6361 H   0  0  0  0  0  0  0  0  0  0  0  0
    3.6783   42.4361   50.4825 H   0  0  0  0  0  0  0  0  0  0  0  0
    5.4559   42.6942   50.4825 H   0  0  0  0  0  0  0  0  0  0  0  0
    0.3959   45.1662   52.6400 H   0  0  0  0  0  0  0  0  0  0  0  0
    0.4521   43.5123   53.2682 H   0  0  0  0  0  0  0  0  0  0  0  0
   -1.0833   45.8989   54.2707 H   0  0  0  0  0  0  0  0  0  0  0  0
   -1.4761   44.1883   54.4629 H   0  0  0  0  0  0  0  0  0  0  0  0
   -0.1273   43.9879   56.4302 H   0  0  0  0  0  0  0  0  0  0  0  0
   -0.8572   46.8994   56.3118 H   0  0  0  0  0  0  0  0  0  0  0  0
   -1.6538   45.5429   57.1832 H   0  0  0  0  0  0  0  0  0  0  0  0
   -0.2350   46.9980   58.4020 H   0  0  0  0  0  0  0  0  0  0  0  0
    1.6618   46.3337   55.8119 H   0  0  0  0  0  0  0  0  0  0  0  0
    2.1228   44.7110   56.3414 H   0  0  0  0  0  0  0  0  0  0  0  0
    3.5786   47.1792   55.4001 H   0  0  0  0  0  0  0  0  0  0  0  0
    7.1688   46.0105   51.1406 H   0  0  0  0  0  0  0  0  0  0  0  0
    9.5507   46.2826   50.4526 H   0  0  0  0  0  0  0  0  0  0  0  0
   11.2750   46.9373   52.1338 H   0  0  0  0  0  0  0  0  0  0  0  0
   10.6155   47.3340   54.5084 H   0  0  0  0  0  0  0  0  0  0  0  0
    8.2355   47.0704   55.2071 H   0  0  0  0  0  0  0  0  0  0  0  0
  1  2  1  0
  2  3  2  0
  3  4  1  0
  4  5  1  0
  5  6  1  0
  6  7  1  0
  7  8  1  0
  8  9  1  0
  9 10  1  0
  8 11  1  0
  4 12  2  0
 12 13  1  0
 13 14  2  0
 14 15  1  0
 15 16  1  0
 16 17  2  0
 17 18  1  0
 18 19  2  0
 19 20  1  0
 20 21  2  0
 15 22  1  0
 22 23  2  0
 23  2  1  0
 11  5  1  0
 22 12  1  0
 21 16  1  0
  1 24  1  0
  1 25  1  0
  1 26  1  0
  6 27  1  0
  6 28  1  0
  7 29  1  0
  7 30  1  0
  8 31  1  1
  9 32  1  0
  9 33  1  0
 10 34  1  0
 11 35  1  0
 11 36  1  0
 13 37  1  0
 17 38  1  0
 18 39  1  0
 19 40  1  0
 20 41  1  0
 21 42  1  0
M  END
>  <meeko>  (1) 
{"is_sidechain": [false], "free_energy": -8.861, "intermolecular_energy": -10.674, "internal_energy": -0.122}

$$$$
ligand_50_conformer_4_docked
     RDKit          3D

 42 45  0  0  0  0  0  0  0  0999 V2000
    5.2320   42.1900   50.4530 C   0  0  0  0  0  0  0  0  0  0  0  0
    4.7280   43.2600   51.3630 C   0  0  0  0  0  0  0  0  0  0  0  0
    3.4010   43.3000   51.6980 N   0  0  0  0  0  0  0  0  0  0  0  0
    2.8790   44.2700   52.5100 C   0  0  0  0  0  0  0  0  0  0  0  0
    1.4740   44.2390   52.8350 N   0  0  0  0  0  0  0  0  0  0  0  0
    0.9150   43.2380   53.7310 C   0  0  0  0  0  0  0  0  0  0  0  0
   -0.5870   43.4850   53.7460 C   0  0  0  0  0  0  0  0  0  0  0  0
   -0.7590   44.9260   53.2620 C   0  0  2  0  0  0  0  0  0  0  0  0
   -2.0750   45.1360   52.4980 C   0  0  0  0  0  0  0  0  0  0  0  0
   -2.1050   46.4260   51.9530 O   0  0  0  0  0  0  0  0  0  0  0  0
    0.4800   45.2120   52.4120 C   0  0  0  0  0  0  0  0  0  0  0  0
    3.7690   45.2530   52.9730 C   0  0  0  0  0  0  0  0  0  0  0  0
    3.6790   46.3680   53.7920 C   0  0  0  0  0  0  0  0  0  0  0  0
    4.9060   46.9330   53.8910 N   0  0  0  0  0  0  0  0  0  0  0  0
    5.7610   46.2280   53.1580 N   0  0  0  0  0  0  0  0  0  0  0  0
    7.1620   46.5380   53.0450 C   0  0  0  0  0  0  0  0  0  0  0  0
    7.7960   46.6100   51.7900 C   0  0  0  0  0  0  0  0  0  0  0  0
    9.1560   46.9240   51.7020 C   0  0  0  0  0  0  0  0  0  0  0  0
    9.8950   47.1760   52.8610 C   0  0  0  0  0  0  0  0  0  0  0  0
    9.2730   47.1220   54.1100 C   0  0  0  0  0  0  0  0  0  0  0  0
    7.9130   46.8110   54.2030 C   0  0  0  0  0  0  0  0  0  0  0  0
    5.0820   45.2080   52.6010 C   0  0  0  0  0  0  0  0  0  0  0  0
    5.5800   44.2250   51.8140 N   0  0  0  0  0  0  0  0  0  0  0  0
    5.6253   41.3550   51.0514 H   0  0  0  0  0  0  0  0  0  0  0  0
    4.4086   41.8304   49.8184 H   0  0  0  0  0  0  0  0  0  0  0  0
    6.0336   42.5959   49.8184 H   0  0  0  0  0  0  0  0  0  0  0  0
    1.1328   42.2263   53.3582 H   0  0  0  0  0  0  0  0  0  0  0  0
    1.3470   43.3123   54.7399 H   0  0  0  0  0  0  0  0  0  0  0  0
   -1.1000   42.7863   53.0687 H   0  0  0  0  0  0  0  0  0  0  0  0
   -1.0199   43.3316   54.7456 H   0  0  0  0  0  0  0  0  0  0  0  0
   -0.8341   45.6315   54.1026 H   0  0  0  0  0  0  0  0  0  0  0  0
   -2.1496   44.3953   51.6882 H   0  0  0  0  0  0  0  0  0  0  0  0
   -2.9211   45.0138   53.1903 H   0  0  0  0  0  0  0  0  0  0  0  0
   -3.0380   46.7470   52.0610 H   0  0  0  0  0  0  0  0  0  0  0  0
    0.2504   45.0874   51.3435 H   0  0  0  0  0  0  0  0  0  0  0  0
    0.8367   46.2441   52.5447 H   0  0  0  0  0  0  0  0  0  0  0  0
    2.7634   46.7331   54.2802 H   0  0  0  0  0  0  0  0  0  0  0  0
    7.2185   46.4182   50.8736 H   0  0  0  0  0  0  0  0  0  0  0  0
    9.6452   46.9727   50.7180 H   0  0  0  0  0  0  0  0  0  0  0  0
   10.9659   47.4167   52.7894 H   0  0  0  0  0  0  0  0  0  0  0  0
    9.8538   47.3244   55.0220 H   0  0  0  0  0  0  0  0  0  0  0  0
    7.4265   46.7795   55.1891 H   0  0  0  0  0  0  0  0  0  0  0  0
  1  2  1  0
  2  3  2  0
  3  4  1  0
  4  5  1  0
  5  6  1  0
  6  7  1  0
  7  8  1  0
  8  9  1  0
  9 10  1  0
  8 11  1  0
  4 12  2  0
 12 13  1  0
 13 14  2  0
 14 15  1  0
 15 16  1  0
 16 17  2  0
 17 18  1  0
 18 19  2  0
 19 20  1  0
 20 21  2  0
 15 22  1  0
 22 23  2  0
 23  2  1  0
 11  5  1  0
 22 12  1  0
 21 16  1  0
  1 24  1  0
  1 25  1  0
  1 26  1  0
  6 27  1  0
  6 28  1  0
  7 29  1  0
  7 30  1  0
  8 31  1  1
  9 32  1  0
  9 33  1  0
 10 34  1  0
 11 35  1  0
 11 36  1  0
 13 37  1  0
 17 38  1  0
 18 39  1  0
 19 40  1  0
 20 41  1  0
 21 42  1  0
M  END
>  <meeko>  (2) 
{"is_sidechain": [false], "free_energy": -8.845, "intermolecular_energy": -10.348, "internal_energy": -0.428}

$$$$
ligand_50_conformer_4_docked
     RDKit          3D

 42 45  0  0  0  0  0  0  0  0999 V2000
    5.1630   42.2400   50.2790 C   0  0  0  0  0  0  0  0  0  0  0  0
    5.0160   43.4310   51.1650 C   0  0  0  0  0  0  0  0  0  0  0  0
    6.1100   44.1990   51.4630 N   0  0  0  0  0  0  0  0  0  0  0  0
    6.0380   45.2890   52.2880 C   0  0  0  0  0  0  0  0  0  0  0  0
    7.2300   46.0610   52.5420 N   0  0  0  0  0  0  0  0  0  0  0  0
    8.0920   46.5220   51.4630 C   0  0  0  0  0  0  0  0  0  0  0  0
    9.2680   47.2130   52.1370 C   0  0  0  0  0  0  0  0  0  0  0  0
    8.7760   47.5620   53.5430 C   0  0  2  0  0  0  0  0  0  0  0  0
    9.9050   47.5410   54.5830 C   0  0  0  0  0  0  0  0  0  0  0  0
    9.5450   48.3250   55.6870 O   0  0  0  0  0  0  0  0  0  0  0  0
    7.6680   46.5500   53.8390 C   0  0  0  0  0  0  0  0  0  0  0  0
    4.7830   45.5770   52.8450 C   0  0  0  0  0  0  0  0  0  0  0  0
    4.2710   46.5510   53.6900 C   0  0  0  0  0  0  0  0  0  0  0  0
    2.9480   46.3200   53.8670 N   0  0  0  0  0  0  0  0  0  0  0  0
    2.6090   45.2340   53.1800 N   0  0  0  0  0  0  0  0  0  0  0  0
    1.2710   44.7050   53.1300 C   0  0  0  0  0  0  0  0  0  0  0  0
    0.2750   45.3080   52.3400 C   0  0  0  0  0  0  0  0  0  0  0  0
   -1.0150   44.7720   52.2980 C   0  0  0  0  0  0  0  0  0  0  0  0
   -1.3240   43.6260   53.0350 C   0  0  0  0  0  0  0  0  0  0  0  0
   -0.3390   43.0100   53.8110 C   0  0  0  0  0  0  0  0  0  0  0  0
    0.9530   43.5420   53.8550 C   0  0  0  0  0  0  0  0  0  0  0  0
    3.7130   44.7800   52.5570 C   0  0  0  0  0  0  0  0  0  0  0  0
    3.8040   43.7200   51.7200 N   0  0  0  0  0  0  0  0  0  0  0  0
    5.2746   41.3359   50.8955 H   0  0  0  0  0  0  0  0  0  0  0  0
    4.2700   42.1429   49.6440 H   0  0  0  0  0  0  0  0  0  0  0  0
    6.0528   42.3629   49.6440 H   0  0  0  0  0  0  0  0  0  0  0  0
    8.4419   45.6698   50.8619 H   0  0  0  0  0  0  0  0  0  0  0  0
    7.5592   47.2022   50.7823 H   0  0  0  0  0  0  0  0  0  0  0  0
   10.1346   46.5375   52.1882 H   0  0  0  0  0  0  0  0  0  0  0  0
    9.5937   48.1052   51.5821 H   0  0  0  0  0  0  0  0  0  0  0  0
    8.3964   48.5930   53.5978 H   0  0  0  0  0  0  0  0  0  0  0  0
   10.0805   46.5059   54.9113 H   0  0  0  0  0  0  0  0  0  0  0  0
   10.8229   47.9463   54.1323 H   0  0  0  0  0  0  0  0  0  0  0  0
    9.2120   47.6920   56.3760 H   0  0  0  0  0  0  0  0  0  0  0  0
    8.0570   45.7223   54.4503 H   0  0  0  0  0  0  0  0  0  0  0  0
    6.8408   47.0050   54.4035 H   0  0  0  0  0  0  0  0  0  0  0  0
    4.8442   47.3742   54.1413 H   0  0  0  0  0  0  0  0  0  0  0  0
    0.5131   46.2066   51.7520 H   0  0  0  0  0  0  0  0  0  0  0  0
   -1.7893   45.2538   51.6829 H   0  0  0  0  0  0  0  0  0  0  0  0
   -2.3415   43.2093   53.0043 H   0  0  0  0  0  0  0  0  0  0  0  0
   -0.5804   42.1052   54.3881 H   0  0  0  0  0  0  0  0  0  0  0  0
    1.7267   43.0477   54.4609 H   0  0  0  0  0  0  0  0  0  0  0  0
  1  2  1  0
  2  3  2  0
  3  4  1  0
  4  5  1  0
  5  6  1  0
  6  7  1  0
  7  8  1  0
  8  9  1  0
  9 10  1  0
  8 11  1  0
  4 12  2  0
 12 13  1  0
 13 14  2  0
 14 15  1  0
 15 16  1  0
 16 17  2  0
 17 18  1  0
 18 19  2  0
 19 20  1  0
 20 21  2  0
 15 22  1  0
 22 23  2  0
 23  2  1  0
 11  5  1  0
 22 12  1  0
 21 16  1  0
  1 24  1  0
  1 25  1  0
  1 26  1  0
  6 27  1  0
  6 28  1  0
  7 29  1  0
  7 30  1  0
  8 31  1  6
  9 32  1  0
  9 33  1  0
 10 34  1  0
 11 35  1  0
 11 36  1  0
 13 37  1  0
 17 38  1  0
 18 39  1  0
 19 40  1  0
 20 41  1  0
 21 42  1  0
M  END
>  <meeko>  (3) 
{"is_sidechain": [false], "free_energy": -8.495, "intermolecular_energy": -9.91, "internal_energy": -0.445}

$$$$
ligand_50_conformer_4_docked
     RDKit          3D

 42 45  0  0  0  0  0  0  0  0999 V2000
    5.8240   46.8350   54.6100 C   0  0  0  0  0  0  0  0  0  0  0  0
    4.9760   45.8030   53.9470 C   0  0  0  0  0  0  0  0  0  0  0  0
    5.4510   45.1290   52.8530 N   0  0  0  0  0  0  0  0  0  0  0  0
    4.7090   44.1890   52.1920 C   0  0  0  0  0  0  0  0  0  0  0  0
    5.2820   43.5060   51.0580 N   0  0  0  0  0  0  0  0  0  0  0  0
    6.4930   43.9840   50.4060 C   0  0  0  0  0  0  0  0  0  0  0  0
    6.7190   43.0580   49.2190 C   0  0  0  0  0  0  0  0  0  0  0  0
    5.9200   41.7940   49.5410 C   0  0  2  0  0  0  0  0  0  0  0  0
    5.3830   41.1010   48.2800 C   0  0  0  0  0  0  0  0  0  0  0  0
    6.1070   41.5280   47.1600 O   0  0  0  0  0  0  0  0  0  0  0  0
    4.8130   42.2520   50.4920 C   0  0  0  0  0  0  0  0  0  0  0  0
    3.4100   43.9570   52.6730 C   0  0  0  0  0  0  0  0  0  0  0  0
    2.3590   43.1210   52.3290 C   0  0  0  0  0  0  0  0  0  0  0  0
    1.3340   43.3360   53.1890 N   0  0  0  0  0  0  0  0  0  0  0  0
    1.6930   44.2830   54.0500 N   0  0  0  0  0  0  0  0  0  0  0  0
    0.8480   44.7550   55.1160 C   0  0  0  0  0  0  0  0  0  0  0  0
    1.3910   45.3560   56.2670 C   0  0  0  0  0  0  0  0  0  0  0  0
    0.5520   45.8170   57.2860 C   0  0  0  0  0  0  0  0  0  0  0  0
   -0.8340   45.6910   57.1660 C   0  0  0  0  0  0  0  0  0  0  0  0
   -1.3850   45.1100   56.0210 C   0  0  0  0  0  0  0  0  0  0  0  0
   -0.5500   44.6490   54.9980 C   0  0  0  0  0  0  0  0  0  0  0  0
    2.9480   44.6620   53.7460 C   0  0  0  0  0  0  0  0  0  0  0  0
    3.7090   45.5720   54.3980 N   0  0  0  0  0  0  0  0  0  0  0  0
    5.7398   46.7325   55.7020 H   0  0  0  0  0  0  0  0  0  0  0  0
    6.8728   46.6967   54.3085 H   0  0  0  0  0  0  0  0  0  0  0  0
    5.4850   47.8371   54.3085 H   0  0  0  0  0  0  0  0  0  0  0  0
    6.3596   45.0206   50.0630 H   0  0  0  0  0  0  0  0  0  0  0  0
    7.3519   43.9778   51.0932 H   0  0  0  0  0  0  0  0  0  0  0  0
    6.3508   43.5218   48.2920 H   0  0  0  0  0  0  0  0  0  0  0  0
    7.7862   42.8420   49.0625 H   0  0  0  0  0  0  0  0  0  0  0  0
    6.5497   41.0232   50.0093 H   0  0  0  0  0  0  0  0  0  0  0  0
    5.4879   40.0115   48.3892 H   0  0  0  0  0  0  0  0  0  0  0  0
    4.3221   41.3594   48.1471 H   0  0  0  0  0  0  0  0  0  0  0  0
    6.0090   40.8120   46.4800 H   0  0  0  0  0  0  0  0  0  0  0  0
    3.8730   42.4062   49.9419 H   0  0  0  0  0  0  0  0  0  0  0  0
    4.6088   41.5033   51.2716 H   0  0  0  0  0  0  0  0  0  0  0  0
    2.3573   42.4024   51.4962 H   0  0  0  0  0  0  0  0  0  0  0  0
    2.4813   45.4636   56.3654 H   0  0  0  0  0  0  0  0  0  0  0  0
    0.9847   46.2803   58.1850 H   0  0  0  0  0  0  0  0  0  0  0  0
   -1.4911   46.0489   57.9723 H   0  0  0  0  0  0  0  0  0  0  0  0
   -2.4766   45.0151   55.9240 H   0  0  0  0  0  0  0  0  0  0  0  0
   -0.9894   44.2004   54.0948 H   0  0  0  0  0  0  0  0  0  0  0  0
  1  2  1  0
  2  3  2  0
  3  4  1  0
  4  5  1  0
  5  6  1  0
  6  7  1  0
  7  8  1  0
  8  9  1  0
  9 10  1  0
  8 11  1  0
  4 12  2  0
 12 13  1  0
 13 14  2  0
 14 15  1  0
 15 16  1  0
 16 17  2  0
 17 18  1  0
 18 19  2  0
 19 20  1  0
 20 21  2  0
 15 22  1  0
 22 23  2  0
 23  2  1  0
 11  5  1  0
 22 12  1  0
 21 16  1  0
  1 24  1  0
  1 25  1  0
  1 26  1  0
  6 27  1  0
  6 28  1  0
  7 29  1  0
  7 30  1  0
  8 31  1  1
  9 32  1  0
  9 33  1  0
 10 34  1  0
 11 35  1  0
 11 36  1  0
 13 37  1  0
 17 38  1  0
 18 39  1  0
 19 40  1  0
 20 41  1  0
 21 42  1  0
M  END
>  <meeko>  (4) 
{"is_sidechain": [false], "free_energy": -7.568, "intermolecular_energy": -9.396, "internal_energy": 0.158}

$$$$
ligand_50_conformer_4_docked
     RDKit          3D

 42 45  0  0  0  0  0  0  0  0999 V2000
    4.1060   41.3030   50.6070 C   0  0  0  0  0  0  0  0  0  0  0  0
    3.8950   42.6320   51.2510 C   0  0  0  0  0  0  0  0  0  0  0  0
    4.9740   43.4100   51.5780 N   0  0  0  0  0  0  0  0  0  0  0  0
    4.8410   44.6270   52.1910 C   0  0  0  0  0  0  0  0  0  0  0  0
    6.0220   45.4000   52.4890 N   0  0  0  0  0  0  0  0  0  0  0  0
    6.5490   45.5060   53.8420 C   0  0  0  0  0  0  0  0  0  0  0  0
    7.7290   46.4630   53.7540 C   0  0  0  0  0  0  0  0  0  0  0  0
    8.1360   46.4620   52.2800 C   0  0  2  0  0  0  0  0  0  0  0  0
    8.7180   47.8100   51.8300 C   0  0  0  0  0  0  0  0  0  0  0  0
    7.9650   48.8560   52.3780 O   0  0  0  0  0  0  0  0  0  0  0  0
    6.8700   46.0700   51.5170 C   0  0  0  0  0  0  0  0  0  0  0  0
    3.5340   45.0400   52.4970 C   0  0  0  0  0  0  0  0  0  0  0  0
    2.9580   46.1580   53.0810 C   0  0  0  0  0  0  0  0  0  0  0  0
    1.6130   45.9960   53.0930 N   0  0  0  0  0  0  0  0  0  0  0  0
    1.3210   44.8180   52.5530 N   0  0  0  0  0  0  0  0  0  0  0  0
   -0.0220   44.3230   52.3920 C   0  0  0  0  0  0  0  0  0  0  0  0
   -0.8600   44.1070   53.5020 C   0  0  0  0  0  0  0  0  0  0  0  0
   -2.1640   43.6370   53.3220 C   0  0  0  0  0  0  0  0  0  0  0  0
   -2.6480   43.3840   52.0360 C   0  0  0  0  0  0  0  0  0  0  0  0
   -1.8310   43.6100   50.9260 C   0  0  0  0  0  0  0  0  0  0  0  0
   -0.5260   44.0820   51.1010 C   0  0  0  0  0  0  0  0  0  0  0  0
    2.4780   44.2340   52.1880 C   0  0  0  0  0  0  0  0  0  0  0  0
    2.6320   43.0430   51.5610 N   0  0  0  0  0  0  0  0  0  0  0  0
    4.2281   40.5342   51.3842 H   0  0  0  0  0  0  0  0  0  0  0  0
    3.2357   41.0566   49.9810 H   0  0  0  0  0  0  0  0  0  0  0  0
    5.0098   41.3383   49.9810 H   0  0  0  0  0  0  0  0  0  0  0  0
    5.7818   45.9054   54.5216 H   0  0  0  0  0  0  0  0  0  0  0  0
    6.8522   44.5249   54.2362 H   0  0  0  0  0  0  0  0  0  0  0  0
    7.4310   47.4732   54.0713 H   0  0  0  0  0  0  0  0  0  0  0  0
    8.5572   46.1563   54.4097 H   0  0  0  0  0  0  0  0  0  0  0  0
    8.9525   45.7516   52.0836 H   0  0  0  0  0  0  0  0  0  0  0  0
    9.7601   47.8910   52.1728 H   0  0  0  0  0  0  0  0  0  0  0  0
    8.6842   47.8731   50.7323 H   0  0  0  0  0  0  0  0  0  0  0  0
    7.9190   49.5570   51.6760 H   0  0  0  0  0  0  0  0  0  0  0  0
    6.3676   46.9647   51.1206 H   0  0  0  0  0  0  0  0  0  0  0  0
    7.0960   45.4219   50.6574 H   0  0  0  0  0  0  0  0  0  0  0  0
    3.5025   47.0311   53.4698 H   0  0  0  0  0  0  0  0  0  0  0  0
   -0.4867   44.3092   54.5168 H   0  0  0  0  0  0  0  0  0  0  0  0
   -2.8108   43.4659   54.1951 H   0  0  0  0  0  0  0  0  0  0  0  0
   -3.6721   43.0070   51.8978 H   0  0  0  0  0  0  0  0  0  0  0  0
   -2.2142   43.4166   49.9132 H   0  0  0  0  0  0  0  0  0  0  0  0
    0.1106   44.2660   50.2230 H   0  0  0  0  0  0  0  0  0  0  0  0
  1  2  1  0
  2  3  2  0
  3  4  1  0
  4  5  1  0
  5  6  1  0
  6  7  1  0
  7  8  1  0
  8  9  1  0
  9 10  1  0
  8 11  1  0
  4 12  2  0
 12 13  1  0
 13 14  2  0
 14 15  1  0
 15 16  1  0
 16 17  2  0
 17 18  1  0
 18 19  2  0
 19 20  1  0
 20 21  2  0
 15 22  1  0
 22 23  2  0
 23  2  1  0
 11  5  1  0
 22 12  1  0
 21 16  1  0
  1 24  1  0
  1 25  1  0
  1 26  1  0
  6 27  1  0
  6 28  1  0
  7 29  1  0
  7 30  1  0
  8 31  1  1
  9 32  1  0
  9 33  1  0
 10 34  1  0
 11 35  1  0
 11 36  1  0
 13 37  1  0
 17 38  1  0
 18 39  1  0
 19 40  1  0
 20 41  1  0
 21 42  1  0
M  END
>  <meeko>  (5) 
{"is_sidechain": [false], "free_energy": -7.435, "intermolecular_energy": -8.551, "internal_energy": -0.528}

$$$$
