ligand_9_conformer_3_docked
     RDKit          3D

 53 56  0  0  0  0  0  0  0  0999 V2000
   10.2690   46.6300   52.3130 C   0  0  0  0  0  0  0  0  0  0  0  0
    9.9740   47.0990   53.5950 C   0  0  0  0  0  0  0  0  0  0  0  0
    8.6530   47.1140   54.0510 C   0  0  0  0  0  0  0  0  0  0  0  0
    7.6110   46.6570   53.2240 C   0  0  0  0  0  0  0  0  0  0  0  0
    6.2120   46.6730   53.7020 C   0  0  0  0  0  0  0  0  0  0  0  0
    5.7420   47.5420   54.6210 N   0  0  0  0  0  0  0  0  0  0  0  0
    4.4890   47.2350   54.7620 O   0  0  0  0  0  0  0  0  0  0  0  0
    4.1910   46.2290   53.9780 C   0  0  0  0  0  0  0  0  0  0  0  0
    2.8240   45.6160   53.8660 C   0  0  0  0  0  0  0  0  0  0  0  0
    2.9140   44.1610   53.3810 C   0  0  0  0  0  0  0  0  0  0  0  0
    1.5110   43.5260   53.2420 C   0  0  0  0  0  0  0  0  0  0  0  0
    0.4650   44.2950   53.9550 N   0  0  0  0  0  0  0  0  0  0  0  0
   -0.8060   43.5400   54.0050 C   0  0  0  0  0  0  0  0  0  0  0  0
   -1.7390   43.9530   52.8390 C   0  0  2  0  0  0  0  0  0  0  0  0
   -1.8810   42.8220   51.7940 C   0  0  0  0  0  0  0  0  0  0  0  0
   -2.7580   43.1600   50.5720 C   0  0  0  0  0  0  0  0  0  0  0  0
   -3.8140   44.2340   50.8870 C   0  0  0  0  0  0  0  0  0  0  0  0
   -3.2950   45.6990   50.8030 C   0  0  0  0  0  0  0  0  0  0  0  0
   -2.5070   46.1350   51.9640 N   0  0  0  0  0  0  0  0  0  0  0  0
   -1.3240   45.2950   52.2040 C   0  0  0  0  0  0  0  0  0  0  0  0
    0.9300   44.6720   55.3050 C   0  0  0  0  0  0  0  0  0  0  0  0
    2.0770   45.6960   55.2140 C   0  0  0  0  0  0  0  0  0  0  0  0
    5.2580   45.8220   53.2650 N   0  0  0  0  0  0  0  0  0  0  0  0
    7.9180   46.1870   51.9350 C   0  0  0  0  0  0  0  0  0  0  0  0
    9.2410   46.1740   51.4830 C   0  0  0  0  0  0  0  0  0  0  0  0
   11.3097   46.6195   51.9567 H   0  0  0  0  0  0  0  0  0  0  0  0
   10.7836   47.4576   54.2476 H   0  0  0  0  0  0  0  0  0  0  0  0
    8.4270   47.4850   55.0616 H   0  0  0  0  0  0  0  0  0  0  0  0
    2.2533   46.1899   53.1211 H   0  0  0  0  0  0  0  0  0  0  0  0
    3.4151   44.1402   52.4020 H   0  0  0  0  0  0  0  0  0  0  0  0
    3.4842   43.5829   54.1230 H   0  0  0  0  0  0  0  0  0  0  0  0
    1.2490   43.4805   52.1746 H   0  0  0  0  0  0  0  0  0  0  0  0
    1.5528   42.5233   53.6924 H   0  0  0  0  0  0  0  0  0  0  0  0
   -0.5894   42.4642   53.9295 H   0  0  0  0  0  0  0  0  0  0  0  0
   -1.3111   43.7637   54.9562 H   0  0  0  0  0  0  0  0  0  0  0  0
   -2.7384   44.1163   53.2686 H   0  0  0  0  0  0  0  0  0  0  0  0
   -0.8747   42.5674   51.4300 H   0  0  0  0  0  0  0  0  0  0  0  0
   -2.3860   41.9924   52.3105 H   0  0  0  0  0  0  0  0  0  0  0  0
   -2.1099   43.5283   49.7631 H   0  0  0  0  0  0  0  0  0  0  0  0
   -3.2896   42.2433   50.2768 H   0  0  0  0  0  0  0  0  0  0  0  0
   -4.6414   44.1218   50.1709 H   0  0  0  0  0  0  0  0  0  0  0  0
   -4.1210   44.0719   51.9308 H   0  0  0  0  0  0  0  0  0  0  0  0
   -2.6640   45.7888   49.9065 H   0  0  0  0  0  0  0  0  0  0  0  0
   -4.1852   46.3443   50.7697 H   0  0  0  0  0  0  0  0  0  0  0  0
   -3.1290   46.0800   52.8040 H   0  0  0  0  0  0  0  0  0  0  0  0
   -0.8162   45.1019   51.2475 H   0  0  0  0  0  0  0  0  0  0  0  0
   -0.6458   45.8212   52.8919 H   0  0  0  0  0  0  0  0  0  0  0  0
    0.0934   45.1144   55.8656 H   0  0  0  0  0  0  0  0  0  0  0  0
    1.2970   43.7715   55.8193 H   0  0  0  0  0  0  0  0  0  0  0  0
    1.6591   46.7071   55.3280 H   0  0  0  0  0  0  0  0  0  0  0  0
    2.7974   45.4682   56.0134 H   0  0  0  0  0  0  0  0  0  0  0  0
    7.1124   45.8273   51.2781 H   0  0  0  0  0  0  0  0  0  0  0  0
    9.4731   45.8045   50.4732 H   0  0  0  0  0  0  0  0  0  0  0  0
  1  2  2  0
  2  3  1  0
  3  4  2  0
  4  5  1  0
  5  6  2  0
  6  7  1  0
  7  8  1  0
  8  9  1  0
  9 10  1  0
 10 11  1  0
 11 12  1  0
 12 13  1  0
 13 14  1  0
 14 15  1  0
 15 16  1  0
 16 17  1  0
 17 18  1  0
 18 19  1  0
 19 20  1  0
 12 21  1  0
 21 22  1  0
  8 23  2  0
  4 24  1  0
 24 25  2  0
 25  1  1  0
 23  5  1  0
 22  9  1  0
 20 14  1  0
  1 26  1  0
  2 27  1  0
  3 28  1  0
  9 29  1  0
 10 30  1  0
 10 31  1  0
 11 32  1  0
 11 33  1  0
 13 34  1  0
 13 35  1  0
 14 36  1  1
 15 37  1  0
 15 38  1  0
 16 39  1  0
 16 40  1  0
 17 41  1  0
 17 42  1  0
 18 43  1  0
 18 44  1  0
 19 45  1  0
 20 46  1  0
 20 47  1  0
 21 48  1  0
 21 49  1  0
 22 50  1  0
 22 51  1  0
 24 52  1  0
 25 53  1  0
M  END
>  <meeko>  (1) 
{"is_sidechain": [false], "free_energy": -6.521, "intermolecular_energy": -10.333, "internal_energy": 0.083}

$$$$
ligand_9_conformer_3_docked
     RDKit          3D

 53 56  0  0  0  0  0  0  0  0999 V2000
    9.8940   47.3510   54.1570 C   0  0  0  0  0  0  0  0  0  0  0  0
    8.5760   47.3940   54.6170 C   0  0  0  0  0  0  0  0  0  0  0  0
    7.5390   46.8910   53.8260 C   0  0  0  0  0  0  0  0  0  0  0  0
    7.8150   46.3380   52.5620 C   0  0  0  0  0  0  0  0  0  0  0  0
    6.7210   45.8060   51.7210 C   0  0  0  0  0  0  0  0  0  0  0  0
    6.9000   45.3250   50.4740 N   0  0  0  0  0  0  0  0  0  0  0  0
    5.7180   44.9590   50.0830 O   0  0  0  0  0  0  0  0  0  0  0  0
    4.8470   45.1980   51.0320 C   0  0  0  0  0  0  0  0  0  0  0  0
    3.3810   44.8870   50.9370 C   0  0  0  0  0  0  0  0  0  0  0  0
    3.1160   43.4000   51.2160 C   0  0  0  0  0  0  0  0  0  0  0  0
    1.6110   43.0640   51.1020 C   0  0  0  0  0  0  0  0  0  0  0  0
    0.7540   44.2710   51.1390 N   0  0  0  0  0  0  0  0  0  0  0  0
   -0.6730   43.9040   51.2710 C   0  0  0  0  0  0  0  0  0  0  0  0
   -1.3820   44.8100   52.3080 C   0  0  2  0  0  0  0  0  0  0  0  0
   -1.7340   44.0330   53.5980 C   0  0  0  0  0  0  0  0  0  0  0  0
   -3.1500   44.2860   54.1540 C   0  0  0  0  0  0  0  0  0  0  0  0
   -3.3390   45.7350   54.6390 C   0  0  0  0  0  0  0  0  0  0  0  0
   -3.7670   46.7180   53.5170 C   0  0  0  0  0  0  0  0  0  0  0  0
   -2.8170   46.8230   52.4010 N   0  0  0  0  0  0  0  0  0  0  0  0
   -2.5990   45.5440   51.7090 C   0  0  0  0  0  0  0  0  0  0  0  0
    1.1860   45.1780   52.2220 C   0  0  0  0  0  0  0  0  0  0  0  0
    2.5700   45.7750   51.9050 C   0  0  0  0  0  0  0  0  0  0  0  0
    5.4310   45.7420   52.1160 N   0  0  0  0  0  0  0  0  0  0  0  0
    9.1450   46.2990   52.1080 C   0  0  0  0  0  0  0  0  0  0  0  0
   10.1790   46.8030   52.9040 C   0  0  0  0  0  0  0  0  0  0  0  0
   10.7077   47.7486   54.7813 H   0  0  0  0  0  0  0  0  0  0  0  0
    8.3534   47.8248   55.6043 H   0  0  0  0  0  0  0  0  0  0  0  0
    6.5028   46.9277   54.1933 H   0  0  0  0  0  0  0  0  0  0  0  0
    3.0531   45.1058   49.9101 H   0  0  0  0  0  0  0  0  0  0  0  0
    3.6742   42.7941   50.4871 H   0  0  0  0  0  0  0  0  0  0  0  0
    3.4438   43.1765   52.2419 H   0  0  0  0  0  0  0  0  0  0  0  0
    1.4384   42.5383   50.1513 H   0  0  0  0  0  0  0  0  0  0  0  0
    1.3428   42.4382   51.9660 H   0  0  0  0  0  0  0  0  0  0  0  0
   -1.1665   44.0193   50.2947 H   0  0  0  0  0  0  0  0  0  0  0  0
   -0.7378   42.8605   51.6129 H   0  0  0  0  0  0  0  0  0  0  0  0
   -0.6655   45.5938   52.5949 H   0  0  0  0  0  0  0  0  0  0  0  0
   -1.6401   42.9582   53.3837 H   0  0  0  0  0  0  0  0  0  0  0  0
   -1.0360   44.3913   54.3690 H   0  0  0  0  0  0  0  0  0  0  0  0
   -3.8833   44.0805   53.3602 H   0  0  0  0  0  0  0  0  0  0  0  0
   -3.2951   43.6211   55.0182 H   0  0  0  0  0  0  0  0  0  0  0  0
   -4.1133   45.7414   55.4202 H   0  0  0  0  0  0  0  0  0  0  0  0
   -2.3630   46.0788   55.0123 H   0  0  0  0  0  0  0  0  0  0  0  0
   -4.7332   46.3797   53.1145 H   0  0  0  0  0  0  0  0  0  0  0  0
   -3.8174   47.7152   53.9785 H   0  0  0  0  0  0  0  0  0  0  0  0
   -1.9030   47.1460   52.7980 H   0  0  0  0  0  0  0  0  0  0  0  0
   -3.4937   44.9140   51.8212 H   0  0  0  0  0  0  0  0  0  0  0  0
   -2.4078   45.7422   50.6440 H   0  0  0  0  0  0  0  0  0  0  0  0
    0.4548   45.9934   52.3247 H   0  0  0  0  0  0  0  0  0  0  0  0
    1.2510   44.6069   53.1599 H   0  0  0  0  0  0  0  0  0  0  0  0
    2.4319   46.7650   51.4459 H   0  0  0  0  0  0  0  0  0  0  0  0
    3.1311   45.8456   52.8485 H   0  0  0  0  0  0  0  0  0  0  0  0
    9.3738   45.8698   51.1214 H   0  0  0  0  0  0  0  0  0  0  0  0
   11.2175   46.7678   52.5430 H   0  0  0  0  0  0  0  0  0  0  0  0
  1  2  2  0
  2  3  1  0
  3  4  2  0
  4  5  1  0
  5  6  2  0
  6  7  1  0
  7  8  1  0
  8  9  1  0
  9 10  1  0
 10 11  1  0
 11 12  1  0
 12 13  1  0
 13 14  1  0
 14 15  1  0
 15 16  1  0
 16 17  1  0
 17 18  1  0
 18 19  1  0
 19 20  1  0
 12 21  1  0
 21 22  1  0
  8 23  2  0
  4 24  1  0
 24 25  2  0
 25  1  1  0
 23  5  1  0
 22  9  1  0
 20 14  1  0
  1 26  1  0
  2 27  1  0
  3 28  1  0
  9 29  1  0
 10 30  1  0
 10 31  1  0
 11 32  1  0
 11 33  1  0
 13 34  1  0
 13 35  1  0
 14 36  1  1
 15 37  1  0
 15 38  1  0
 16 39  1  0
 16 40  1  0
 17 41  1  0
 17 42  1  0
 18 43  1  0
 18 44  1  0
 19 45  1  0
 20 46  1  0
 20 47  1  0
 21 48  1  0
 21 49  1  0
 22 50  1  0
 22 51  1  0
 24 52  1  0
 25 53  1  0
M  END
>  <meeko>  (2) 
{"is_sidechain": [false], "free_energy": -6.461, "intermolecular_energy": -10.267, "internal_energy": 0.113}

$$$$
ligand_9_conformer_3_docked
     RDKit          3D

 53 56  0  0  0  0  0  0  0  0999 V2000
   -2.9540   44.0260   56.7990 C   0  0  0  0  0  0  0  0  0  0  0  0
   -1.7290   44.5610   57.2080 C   0  0  0  0  0  0  0  0  0  0  0  0
   -0.7610   44.9030   56.2590 C   0  0  0  0  0  0  0  0  0  0  0  0
   -1.0120   44.7130   54.8880 C   0  0  0  0  0  0  0  0  0  0  0  0
    0.0100   45.0720   53.8810 C   0  0  0  0  0  0  0  0  0  0  0  0
   -0.2800   45.4520   52.6200 N   0  0  0  0  0  0  0  0  0  0  0  0
    0.8710   45.6800   52.0650 O   0  0  0  0  0  0  0  0  0  0  0  0
    1.8290   45.4540   52.9300 C   0  0  0  0  0  0  0  0  0  0  0  0
    3.2920   45.6310   52.6420 C   0  0  0  0  0  0  0  0  0  0  0  0
    4.0840   44.3760   53.0360 C   0  0  0  0  0  0  0  0  0  0  0  0
    5.5960   44.5540   52.7630 C   0  0  0  0  0  0  0  0  0  0  0  0
    5.8790   45.6890   51.8550 N   0  0  0  0  0  0  0  0  0  0  0  0
    7.2950   45.6830   51.4260 C   0  0  0  0  0  0  0  0  0  0  0  0
    7.9260   47.0880   51.5840 C   0  0  2  0  0  0  0  0  0  0  0  0
    9.4600   47.0100   51.7570 C   0  0  0  0  0  0  0  0  0  0  0  0
    9.9460   46.2510   53.0080 C   0  0  0  0  0  0  0  0  0  0  0  0
   10.0810   47.1700   54.2350 C   0  0  0  0  0  0  0  0  0  0  0  0
    8.7900   47.9270   54.6040 C   0  0  0  0  0  0  0  0  0  0  0  0
    7.5710   47.3510   54.0190 N   0  0  0  0  0  0  0  0  0  0  0  0
    7.2470   47.9120   52.6980 C   0  0  0  0  0  0  0  0  0  0  0  0
    4.9590   45.6690   50.7000 C   0  0  0  0  0  0  0  0  0  0  0  0
    3.5180   45.9730   51.1540 C   0  0  0  0  0  0  0  0  0  0  0  0
    1.3390   45.0620   54.1220 N   0  0  0  0  0  0  0  0  0  0  0  0
   -2.2470   44.1740   54.4870 C   0  0  0  0  0  0  0  0  0  0  0  0
   -3.2130   43.8340   55.4400 C   0  0  0  0  0  0  0  0  0  0  0  0
   -3.7138   43.7563   57.5473 H   0  0  0  0  0  0  0  0  0  0  0  0
   -1.5263   44.7132   58.2784 H   0  0  0  0  0  0  0  0  0  0  0  0
    0.2017   45.3228   56.5861 H   0  0  0  0  0  0  0  0  0  0  0  0
    3.6595   46.4714   53.2492 H   0  0  0  0  0  0  0  0  0  0  0  0
    3.9345   44.1804   54.1081 H   0  0  0  0  0  0  0  0  0  0  0  0
    3.7199   43.5327   52.4308 H   0  0  0  0  0  0  0  0  0  0  0  0
    6.1086   44.7316   53.7199 H   0  0  0  0  0  0  0  0  0  0  0  0
    5.9574   43.6372   52.2743 H   0  0  0  0  0  0  0  0  0  0  0  0
    7.8552   44.9651   52.0431 H   0  0  0  0  0  0  0  0  0  0  0  0
    7.3397   45.3949   50.3654 H   0  0  0  0  0  0  0  0  0  0  0  0
    7.7403   47.6315   50.6458 H   0  0  0  0  0  0  0  0  0  0  0  0
    9.8764   46.5071   50.8717 H   0  0  0  0  0  0  0  0  0  0  0  0
    9.8047   48.0475   51.8786 H   0  0  0  0  0  0  0  0  0  0  0  0
    9.2240   45.4544   53.2408 H   0  0  0  0  0  0  0  0  0  0  0  0
   10.9416   45.8396   52.7855 H   0  0  0  0  0  0  0  0  0  0  0  0
   10.3774   46.5536   55.0965 H   0  0  0  0  0  0  0  0  0  0  0  0
   10.8311   47.9322   53.9774 H   0  0  0  0  0  0  0  0  0  0  0  0
    8.6853   47.9189   55.6990 H   0  0  0  0  0  0  0  0  0  0  0  0
    8.8894   48.9434   54.1953 H   0  0  0  0  0  0  0  0  0  0  0  0
    6.7810   47.5610   54.6720 H   0  0  0  0  0  0  0  0  0  0  0  0
    6.1569   47.8902   52.5521 H   0  0  0  0  0  0  0  0  0  0  0  0
    7.6134   48.9481   52.6500 H   0  0  0  0  0  0  0  0  0  0  0  0
    5.2768   46.4286   49.9706 H   0  0  0  0  0  0  0  0  0  0  0  0
    4.9847   44.6695   50.2414 H   0  0  0  0  0  0  0  0  0  0  0  0
    3.3170   47.0437   51.0020 H   0  0  0  0  0  0  0  0  0  0  0  0
    2.8367   45.3494   50.5566 H   0  0  0  0  0  0  0  0  0  0  0  0
   -2.4548   44.0188   53.4180 H   0  0  0  0  0  0  0  0  0  0  0  0
   -4.1779   43.4149   55.1186 H   0  0  0  0  0  0  0  0  0  0  0  0
  1  2  2  0
  2  3  1  0
  3  4  2  0
  4  5  1  0
  5  6  2  0
  6  7  1  0
  7  8  1  0
  8  9  1  0
  9 10  1  0
 10 11  1  0
 11 12  1  0
 12 13  1  0
 13 14  1  0
 14 15  1  0
 15 16  1  0
 16 17  1  0
 17 18  1  0
 18 19  1  0
 19 20  1  0
 12 21  1  0
 21 22  1  0
  8 23  2  0
  4 24  1  0
 24 25  2  0
 25  1  1  0
 23  5  1  0
 22  9  1  0
 20 14  1  0
  1 26  1  0
  2 27  1  0
  3 28  1  0
  9 29  1  0
 10 30  1  0
 10 31  1  0
 11 32  1  0
 11 33  1  0
 13 34  1  0
 13 35  1  0
 14 36  1  6
 15 37  1  0
 15 38  1  0
 16 39  1  0
 16 40  1  0
 17 41  1  0
 17 42  1  0
 18 43  1  0
 18 44  1  0
 19 45  1  0
 20 46  1  0
 20 47  1  0
 21 48  1  0
 21 49  1  0
 22 50  1  0
 22 51  1  0
 24 52  1  0
 25 53  1  0
M  END
>  <meeko>  (3) 
{"is_sidechain": [false], "free_energy": -6.38, "intermolecular_energy": -9.771, "internal_energy": -0.256}

$$$$
ligand_9_conformer_3_docked
     RDKit          3D

 53 56  0  0  0  0  0  0  0  0999 V2000
   10.2180   47.1400   53.3350 C   0  0  0  0  0  0  0  0  0  0  0  0
    9.9500   46.5220   52.1110 C   0  0  0  0  0  0  0  0  0  0  0  0
    8.6400   46.1660   51.7770 C   0  0  0  0  0  0  0  0  0  0  0  0
    7.5840   46.4260   52.6690 C   0  0  0  0  0  0  0  0  0  0  0  0
    6.1970   46.0490   52.3200 C   0  0  0  0  0  0  0  0  0  0  0  0
    5.8030   45.7060   51.0760 N   0  0  0  0  0  0  0  0  0  0  0  0
    4.5360   45.4460   51.1860 O   0  0  0  0  0  0  0  0  0  0  0  0
    4.1570   45.6180   52.4280 C   0  0  0  0  0  0  0  0  0  0  0  0
    2.7600   45.3930   52.9290 C   0  0  0  0  0  0  0  0  0  0  0  0
    1.7300   45.6540   51.8200 C   0  0  0  0  0  0  0  0  0  0  0  0
    0.2850   45.4440   52.3300 C   0  0  0  0  0  0  0  0  0  0  0  0
    0.2360   44.6880   53.6030 N   0  0  0  0  0  0  0  0  0  0  0  0
   -1.1520   44.2990   53.9340 C   0  0  0  0  0  0  0  0  0  0  0  0
   -1.5980   44.9350   55.2740 C   0  0  2  0  0  0  0  0  0  0  0  0
   -0.3870   45.3920   56.1210 C   0  0  0  0  0  0  0  0  0  0  0  0
   -0.7290   46.2700   57.3410 C   0  0  0  0  0  0  0  0  0  0  0  0
   -2.0600   47.0230   57.1670 C   0  0  0  0  0  0  0  0  0  0  0  0
   -3.3010   46.1040   57.1290 C   0  0  0  0  0  0  0  0  0  0  0  0
   -2.9810   44.6810   57.3090 N   0  0  0  0  0  0  0  0  0  0  0  0
   -2.5600   44.0240   56.0630 C   0  0  0  0  0  0  0  0  0  0  0  0
    1.1320   43.5150   53.5420 C   0  0  0  0  0  0  0  0  0  0  0  0
    2.6040   43.9640   53.4910 C   0  0  0  0  0  0  0  0  0  0  0  0
    5.1830   46.0040   53.2110 N   0  0  0  0  0  0  0  0  0  0  0  0
    7.8650   47.0480   53.8980 C   0  0  0  0  0  0  0  0  0  0  0  0
    9.1760   47.4040   54.2270 C   0  0  0  0  0  0  0  0  0  0  0  0
   11.2496   47.4187   53.5962 H   0  0  0  0  0  0  0  0  0  0  0  0
   10.7712   46.3152   51.4089 H   0  0  0  0  0  0  0  0  0  0  0  0
    8.4341   45.6802   50.8118 H   0  0  0  0  0  0  0  0  0  0  0  0
    2.5726   46.1073   53.7443 H   0  0  0  0  0  0  0  0  0  0  0  0
    1.8381   46.6906   51.4681 H   0  0  0  0  0  0  0  0  0  0  0  0
    1.9149   44.9423   51.0018 H   0  0  0  0  0  0  0  0  0  0  0  0
   -0.1803   46.4284   52.4864 H   0  0  0  0  0  0  0  0  0  0  0  0
   -0.2545   44.8570   51.5721 H   0  0  0  0  0  0  0  0  0  0  0  0
   -1.8230   44.6404   53.1320 H   0  0  0  0  0  0  0  0  0  0  0  0
   -1.1971   43.2043   54.0316 H   0  0  0  0  0  0  0  0  0  0  0  0
   -2.1712   45.8403   55.0251 H   0  0  0  0  0  0  0  0  0  0  0  0
    0.1320   44.4928   56.4844 H   0  0  0  0  0  0  0  0  0  0  0  0
    0.2279   46.0188   55.4584 H   0  0  0  0  0  0  0  0  0  0  0  0
   -0.8007   45.6266   58.2303 H   0  0  0  0  0  0  0  0  0  0  0  0
    0.0688   47.0195   57.4492 H   0  0  0  0  0  0  0  0  0  0  0  0
   -2.1737   47.7233   58.0076 H   0  0  0  0  0  0  0  0  0  0  0  0
   -2.0121   47.5337   56.1939 H   0  0  0  0  0  0  0  0  0  0  0  0
   -3.9868   46.4112   57.9323 H   0  0  0  0  0  0  0  0  0  0  0  0
   -3.7530   46.2109   56.1319 H   0  0  0  0  0  0  0  0  0  0  0  0
   -3.8470   44.2070   57.6580 H   0  0  0  0  0  0  0  0  0  0  0  0
   -2.0489   43.0806   56.3054 H   0  0  0  0  0  0  0  0  0  0  0  0
   -3.4489   43.8245   55.4466 H   0  0  0  0  0  0  0  0  0  0  0  0
    0.9742   42.8919   54.4346 H   0  0  0  0  0  0  0  0  0  0  0  0
    0.9036   42.9393   52.6330 H   0  0  0  0  0  0  0  0  0  0  0  0
    3.0178   43.9372   54.5099 H   0  0  0  0  0  0  0  0  0  0  0  0
    3.1428   43.2777   52.8212 H   0  0  0  0  0  0  0  0  0  0  0  0
    7.0483   47.2558   54.6050 H   0  0  0  0  0  0  0  0  0  0  0  0
    9.3874   47.8927   55.1896 H   0  0  0  0  0  0  0  0  0  0  0  0
  1  2  2  0
  2  3  1  0
  3  4  2  0
  4  5  1  0
  5  6  2  0
  6  7  1  0
  7  8  1  0
  8  9  1  0
  9 10  1  0
 10 11  1  0
 11 12  1  0
 12 13  1  0
 13 14  1  0
 14 15  1  0
 15 16  1  0
 16 17  1  0
 17 18  1  0
 18 19  1  0
 19 20  1  0
 12 21  1  0
 21 22  1  0
  8 23  2  0
  4 24  1  0
 24 25  2  0
 25  1  1  0
 23  5  1  0
 22  9  1  0
 20 14  1  0
  1 26  1  0
  2 27  1  0
  3 28  1  0
  9 29  1  0
 10 30  1  0
 10 31  1  0
 11 32  1  0
 11 33  1  0
 13 34  1  0
 13 35  1  0
 14 36  1  6
 15 37  1  0
 15 38  1  0
 16 39  1  0
 16 40  1  0
 17 41  1  0
 17 42  1  0
 18 43  1  0
 18 44  1  0
 19 45  1  0
 20 46  1  0
 20 47  1  0
 21 48  1  0
 21 49  1  0
 22 50  1  0
 22 51  1  0
 24 52  1  0
 25 53  1  0
M  END
>  <meeko>  (4) 
{"is_sidechain": [false], "free_energy": -6.295, "intermolecular_energy": -9.82, "internal_energy": -0.072}

$$$$
ligand_9_conformer_3_docked
     RDKit          3D

 53 56  0  0  0  0  0  0  0  0999 V2000
   10.4370   46.7550   52.7300 C   0  0  0  0  0  0  0  0  0  0  0  0
    9.8870   47.0960   53.9680 C   0  0  0  0  0  0  0  0  0  0  0  0
    8.5000   47.1130   54.1390 C   0  0  0  0  0  0  0  0  0  0  0  0
    7.6480   46.7870   53.0680 C   0  0  0  0  0  0  0  0  0  0  0  0
    6.1800   46.8050   53.2440 C   0  0  0  0  0  0  0  0  0  0  0  0
    5.4660   47.9260   53.4740 N   0  0  0  0  0  0  0  0  0  0  0  0
    4.2340   47.5270   53.5640 O   0  0  0  0  0  0  0  0  0  0  0  0
    4.1800   46.2280   53.4020 C   0  0  0  0  0  0  0  0  0  0  0  0
    2.9140   45.4210   53.4270 C   0  0  0  0  0  0  0  0  0  0  0  0
    2.1910   45.5760   54.7730 C   0  0  0  0  0  0  0  0  0  0  0  0
    0.8950   44.7330   54.8180 C   0  0  0  0  0  0  0  0  0  0  0  0
    0.4530   44.2980   53.4730 N   0  0  0  0  0  0  0  0  0  0  0  0
   -0.9020   43.7070   53.5260 C   0  0  0  0  0  0  0  0  0  0  0  0
   -1.7710   44.4160   54.5950 C   0  0  2  0  0  0  0  0  0  0  0  0
   -2.2560   43.4300   55.6830 C   0  0  0  0  0  0  0  0  0  0  0  0
   -2.7180   44.0790   57.0030 C   0  0  0  0  0  0  0  0  0  0  0  0
   -2.3750   45.5770   57.0720 C   0  0  0  0  0  0  0  0  0  0  0  0
   -3.1600   46.4640   56.0700 C   0  0  0  0  0  0  0  0  0  0  0  0
   -3.8420   45.7010   55.0160 N   0  0  0  0  0  0  0  0  0  0  0  0
   -2.9270   45.2220   53.9690 C   0  0  0  0  0  0  0  0  0  0  0  0
    0.5210   45.4220   52.5170 C   0  0  0  0  0  0  0  0  0  0  0  0
    1.9870   45.8230   52.2610 C   0  0  0  0  0  0  0  0  0  0  0  0
    5.4020   45.7030   53.1890 N   0  0  0  0  0  0  0  0  0  0  0  0
    8.2120   46.4450   51.8260 C   0  0  0  0  0  0  0  0  0  0  0  0
    9.6000   46.4290   51.6600 C   0  0  0  0  0  0  0  0  0  0  0  0
   11.5289   46.7432   52.5977 H   0  0  0  0  0  0  0  0  0  0  0  0
   10.5470   47.3517   54.8101 H   0  0  0  0  0  0  0  0  0  0  0  0
    8.0724   47.3826   55.1159 H   0  0  0  0  0  0  0  0  0  0  0  0
    3.1833   44.3615   53.3043 H   0  0  0  0  0  0  0  0  0  0  0  0
    2.8615   45.2448   55.5796 H   0  0  0  0  0  0  0  0  0  0  0  0
    1.9200   46.6345   54.9005 H   0  0  0  0  0  0  0  0  0  0  0  0
    1.0761   43.8407   55.4353 H   0  0  0  0  0  0  0  0  0  0  0  0
    0.1006   45.3646   55.2423 H   0  0  0  0  0  0  0  0  0  0  0  0
   -1.3813   43.8155   52.5419 H   0  0  0  0  0  0  0  0  0  0  0  0
   -0.8123   42.6438   53.7935 H   0  0  0  0  0  0  0  0  0  0  0  0
   -1.1260   45.1510   55.0987 H   0  0  0  0  0  0  0  0  0  0  0  0
   -3.1011   42.8588   55.2713 H   0  0  0  0  0  0  0  0  0  0  0  0
   -1.3857   42.8078   55.9388 H   0  0  0  0  0  0  0  0  0  0  0  0
   -3.8082   43.9619   57.0915 H   0  0  0  0  0  0  0  0  0  0  0  0
   -2.1901   43.5760   57.8266 H   0  0  0  0  0  0  0  0  0  0  0  0
   -2.5932   45.9328   58.0897 H   0  0  0  0  0  0  0  0  0  0  0  0
   -1.3122   45.6671   56.8032 H   0  0  0  0  0  0  0  0  0  0  0  0
   -3.9154   47.0353   56.6295 H   0  0  0  0  0  0  0  0  0  0  0  0
   -2.4259   47.1148   55.5725 H   0  0  0  0  0  0  0  0  0  0  0  0
   -4.5470   46.3370   54.5750 H   0  0  0  0  0  0  0  0  0  0  0  0
   -3.4810   44.5784   53.2698 H   0  0  0  0  0  0  0  0  0  0  0  0
   -2.5103   46.0885   53.4347 H   0  0  0  0  0  0  0  0  0  0  0  0
    0.0574   45.1180   51.5669 H   0  0  0  0  0  0  0  0  0  0  0  0
   -0.0153   46.2836   52.9412 H   0  0  0  0  0  0  0  0  0  0  0  0
    2.3353   45.3253   51.3439 H   0  0  0  0  0  0  0  0  0  0  0  0
    2.0249   46.9179   52.1619 H   0  0  0  0  0  0  0  0  0  0  0  0
    7.5572   46.1886   50.9802 H   0  0  0  0  0  0  0  0  0  0  0  0
   10.0336   46.1594   50.6857 H   0  0  0  0  0  0  0  0  0  0  0  0
  1  2  2  0
  2  3  1  0
  3  4  2  0
  4  5  1  0
  5  6  2  0
  6  7  1  0
  7  8  1  0
  8  9  1  0
  9 10  1  0
 10 11  1  0
 11 12  1  0
 12 13  1  0
 13 14  1  0
 14 15  1  0
 15 16  1  0
 16 17  1  0
 17 18  1  0
 18 19  1  0
 19 20  1  0
 12 21  1  0
 21 22  1  0
  8 23  2  0
  4 24  1  0
 24 25  2  0
 25  1  1  0
 23  5  1  0
 22  9  1  0
 20 14  1  0
  1 26  1  0
  2 27  1  0
  3 28  1  0
  9 29  1  0
 10 30  1  0
 10 31  1  0
 11 32  1  0
 11 33  1  0
 13 34  1  0
 13 35  1  0
 14 36  1  1
 15 37  1  0
 15 38  1  0
 16 39  1  0
 16 40  1  0
 17 41  1  0
 17 42  1  0
 18 43  1  0
 18 44  1  0
 19 45  1  0
 20 46  1  0
 20 47  1  0
 21 48  1  0
 21 49  1  0
 22 50  1  0
 22 51  1  0
 24 52  1  0
 25 53  1  0
M  END
>  <meeko>  (5) 
{"is_sidechain": [false], "free_energy": -6.269, "intermolecular_energy": -9.861, "internal_energy": 0.011}

$$$$
