ligand_36_conformer_1_docked
     RDKit          3D

 42 45  0  0  0  0  0  0  0  0999 V2000
    1.9890   46.4140   52.0830 O   0  0  0  0  0  0  0  0  0  0  0  0
    2.6510   45.4530   52.5600 C   0  0  0  0  0  0  0  0  0  0  0  0
    1.9630   44.1740   52.8210 C   0  0  0  0  0  0  0  0  0  0  0  0
    1.9520   43.0770   51.9830 C   0  0  0  0  0  0  0  0  0  0  0  0
    1.1070   42.1630   52.4890 N   0  0  0  0  0  0  0  0  0  0  0  0
    0.5720   42.6190   53.6100 N   0  0  0  0  0  0  0  0  0  0  0  0
    1.0750   43.8490   53.8400 C   0  0  0  0  0  0  0  0  0  0  0  0
    0.7450   44.6310   55.0460 C   0  0  0  0  0  0  0  0  0  0  0  0
   -0.5320   44.7680   55.5830 C   0  0  0  0  0  0  0  0  0  0  0  0
   -0.5600   45.5040   56.7740 C   0  0  0  0  0  0  0  0  0  0  0  0
    0.6960   45.9300   57.1810 C   0  0  0  0  0  0  0  0  0  0  0  0
    1.0440   46.8550   58.6250 Cl  0  0  0  0  0  0  0  0  0  0  0  0
    1.8410   45.3970   56.0740 S   0  0  0  0  0  0  0  0  0  0  0  0
    4.0660   45.6080   52.7970 N   0  0  0  0  0  0  0  0  0  0  0  0
    4.7740   44.7550   53.7610 C   0  0  0  0  0  0  0  0  0  0  0  0
    5.8120   45.5800   54.5240 C   0  0  0  0  0  0  0  0  0  0  0  0
    6.6850   46.2880   53.5710 N   0  0  0  0  0  0  0  0  0  0  0  0
    7.8470   46.9270   54.2250 C   0  0  0  0  0  0  0  0  0  0  0  0
    8.8600   47.5310   53.2290 C   0  0  0  0  0  0  0  0  0  0  0  0
   10.2630   46.9500   53.3470 C   0  0  0  0  0  0  0  0  0  0  0  0
    9.3930   46.5930   52.1540 C   0  0  0  0  0  0  0  0  0  0  0  0
    5.9080   47.2370   52.7510 C   0  0  0  0  0  0  0  0  0  0  0  0
    4.8690   46.4760   51.9240 C   0  0  0  0  0  0  0  0  0  0  0  0
    2.5364   42.9693   51.0573 H   0  0  0  0  0  0  0  0  0  0  0  0
    0.8840   41.2350   52.0670 H   0  0  0  0  0  0  0  0  0  0  0  0
   -1.4317   44.3397   55.1170 H   0  0  0  0  0  0  0  0  0  0  0  0
   -1.4837   45.7221   57.3301 H   0  0  0  0  0  0  0  0  0  0  0  0
    4.0504   44.3311   54.4729 H   0  0  0  0  0  0  0  0  0  0  0  0
    5.2833   43.9438   53.2202 H   0  0  0  0  0  0  0  0  0  0  0  0
    5.2979   46.3134   55.1627 H   0  0  0  0  0  0  0  0  0  0  0  0
    6.4224   44.9096   55.1469 H   0  0  0  0  0  0  0  0  0  0  0  0
    7.4794   47.7318   54.8786 H   0  0  0  0  0  0  0  0  0  0  0  0
    8.3745   46.1415   54.7860 H   0  0  0  0  0  0  0  0  0  0  0  0
    8.4147   48.5367   53.2168 H   0  0  0  0  0  0  0  0  0  0  0  0
   11.1403   47.5999   53.2128 H   0  0  0  0  0  0  0  0  0  0  0  0
   10.8048   46.3763   54.1133 H   0  0  0  0  0  0  0  0  0  0  0  0
    9.6406   46.9845   51.1563 H   0  0  0  0  0  0  0  0  0  0  0  0
    9.0445   45.6539   51.6994 H   0  0  0  0  0  0  0  0  0  0  0  0
    5.3966   47.9549   53.4091 H   0  0  0  0  0  0  0  0  0  0  0  0
    6.5884   47.7748   52.0744 H   0  0  0  0  0  0  0  0  0  0  0  0
    4.2080   47.1957   51.4189 H   0  0  0  0  0  0  0  0  0  0  0  0
    5.3869   45.8559   51.1776 H   0  0  0  0  0  0  0  0  0  0  0  0
  1  2  2  0
  2  3  1  0
  3  4  2  0
  4  5  1  0
  5  6  1  0
  6  7  2  0
  7  8  1  0
  8  9  2  0
  9 10  1  0
 10 11  2  0
 11 12  1  0
 11 13  1  0
  2 14  1  0
 14 15  1  0
 15 16  1  0
 16 17  1  0
 17 18  1  0
 18 19  1  0
 19 20  1  0
 20 21  1  0
 17 22  1  0
 22 23  1  0
  7  3  1  0
 13  8  1  0
 23 14  1  0
 21 19  1  0
  4 24  1  0
  5 25  1  0
  9 26  1  0
 10 27  1  0
 15 28  1  0
 15 29  1  0
 16 30  1  0
 16 31  1  0
 18 32  1  0
 18 33  1  0
 19 34  1  0
 20 35  1  0
 20 36  1  0
 21 37  1  0
 21 38  1  0
 22 39  1  0
 22 40  1  0
 23 41  1  0
 23 42  1  0
M  END
>  <meeko>  (1) 
{"is_sidechain": [false], "free_energy": -8.036, "intermolecular_energy": -9.915, "internal_energy": -0.674}

$$$$
ligand_36_conformer_1_docked
     RDKit          3D

 42 45  0  0  0  0  0  0  0  0999 V2000
    3.0410   44.5270   54.7900 O   0  0  0  0  0  0  0  0  0  0  0  0
    3.1120   45.1760   53.7120 C   0  0  0  0  0  0  0  0  0  0  0  0
    2.0570   44.9880   52.6970 C   0  0  0  0  0  0  0  0  0  0  0  0
    0.8490   45.6550   52.6560 C   0  0  0  0  0  0  0  0  0  0  0  0
    0.0980   45.1170   51.6800 N   0  0  0  0  0  0  0  0  0  0  0  0
    0.7630   44.1360   51.0930 N   0  0  0  0  0  0  0  0  0  0  0  0
    1.9670   44.0310   51.6930 C   0  0  0  0  0  0  0  0  0  0  0  0
    2.9980   43.0770   51.2470 C   0  0  0  0  0  0  0  0  0  0  0  0
    2.7430   41.8110   50.7270 C   0  0  0  0  0  0  0  0  0  0  0  0
    3.8980   41.1360   50.3120 C   0  0  0  0  0  0  0  0  0  0  0  0
    5.0560   41.8770   50.4890 C   0  0  0  0  0  0  0  0  0  0  0  0
    6.6750   41.3620   50.0700 Cl  0  0  0  0  0  0  0  0  0  0  0  0
    4.6580   43.3660   51.1560 S   0  0  0  0  0  0  0  0  0  0  0  0
    4.1910   46.1130   53.5110 N   0  0  0  0  0  0  0  0  0  0  0  0
    4.6060   46.5180   52.1620 C   0  0  0  0  0  0  0  0  0  0  0  0
    6.1290   46.6480   52.1010 C   0  0  0  0  0  0  0  0  0  0  0  0
    6.5970   47.5350   53.1830 N   0  0  0  0  0  0  0  0  0  0  0  0
    8.0280   47.8860   53.0550 C   0  0  0  0  0  0  0  0  0  0  0  0
    8.9810   46.7290   53.4220 C   0  0  0  0  0  0  0  0  0  0  0  0
   10.2890   46.7350   52.6430 C   0  0  0  0  0  0  0  0  0  0  0  0
   10.2810   47.1150   54.1140 C   0  0  0  0  0  0  0  0  0  0  0  0
    6.2710   46.9690   54.5050 C   0  0  0  0  0  0  0  0  0  0  0  0
    4.7530   46.8450   54.6550 C   0  0  0  0  0  0  0  0  0  0  0  0
    0.5514   46.4866   53.3116 H   0  0  0  0  0  0  0  0  0  0  0  0
   -0.8700   45.4080   51.4210 H   0  0  0  0  0  0  0  0  0  0  0  0
    1.7328   41.3825   50.6496 H   0  0  0  0  0  0  0  0  0  0  0  0
    3.8872   40.1208   49.8886 H   0  0  0  0  0  0  0  0  0  0  0  0
    4.2756   45.7603   51.4362 H   0  0  0  0  0  0  0  0  0  0  0  0
    4.1503   47.4895   51.9201 H   0  0  0  0  0  0  0  0  0  0  0  0
    6.5857   45.6543   52.2197 H   0  0  0  0  0  0  0  0  0  0  0  0
    6.4192   47.0747   51.1295 H   0  0  0  0  0  0  0  0  0  0  0  0
    8.2225   48.1800   52.0130 H   0  0  0  0  0  0  0  0  0  0  0  0
    8.2249   48.7043   53.7632 H   0  0  0  0  0  0  0  0  0  0  0  0
    8.1867   45.9987   53.6359 H   0  0  0  0  0  0  0  0  0  0  0  0
   10.7427   45.7854   52.3229 H   0  0  0  0  0  0  0  0  0  0  0  0
   10.6407   47.2152   51.7179 H   0  0  0  0  0  0  0  0  0  0  0  0
   10.7289   46.4404   54.8586 H   0  0  0  0  0  0  0  0  0  0  0  0
   10.6245   47.9840   54.6943 H   0  0  0  0  0  0  0  0  0  0  0  0
    6.7299   45.9738   54.5996 H   0  0  0  0  0  0  0  0  0  0  0  0
    6.6609   47.6327   55.2908 H   0  0  0  0  0  0  0  0  0  0  0  0
    4.5222   46.3020   55.5834 H   0  0  0  0  0  0  0  0  0  0  0  0
    4.3111   47.8517   54.6908 H   0  0  0  0  0  0  0  0  0  0  0  0
  1  2  2  0
  2  3  1  0
  3  4  2  0
  4  5  1  0
  5  6  1  0
  6  7  2  0
  7  8  1  0
  8  9  2  0
  9 10  1  0
 10 11  2  0
 11 12  1  0
 11 13  1  0
  2 14  1  0
 14 15  1  0
 15 16  1  0
 16 17  1  0
 17 18  1  0
 18 19  1  0
 19 20  1  0
 20 21  1  0
 17 22  1  0
 22 23  1  0
  7  3  1  0
 13  8  1  0
 23 14  1  0
 21 19  1  0
  4 24  1  0
  5 25  1  0
  9 26  1  0
 10 27  1  0
 15 28  1  0
 15 29  1  0
 16 30  1  0
 16 31  1  0
 18 32  1  0
 18 33  1  0
 19 34  1  0
 20 35  1  0
 20 36  1  0
 21 37  1  0
 21 38  1  0
 22 39  1  0
 22 40  1  0
 23 41  1  0
 23 42  1  0
M  END
>  <meeko>  (2) 
{"is_sidechain": [false], "free_energy": -7.968, "intermolecular_energy": -10.164, "internal_energy": -0.342}

$$$$
ligand_36_conformer_1_docked
     RDKit          3D

 42 45  0  0  0  0  0  0  0  0999 V2000
    2.0970   47.1240   52.3240 O   0  0  0  0  0  0  0  0  0  0  0  0
    2.5960   46.2040   53.0260 C   0  0  0  0  0  0  0  0  0  0  0  0
    1.7060   45.1580   53.5650 C   0  0  0  0  0  0  0  0  0  0  0  0
    0.7710   45.3300   54.5660 C   0  0  0  0  0  0  0  0  0  0  0  0
    0.2600   44.1290   54.8840 N   0  0  0  0  0  0  0  0  0  0  0  0
    0.8210   43.1920   54.1370 N   0  0  0  0  0  0  0  0  0  0  0  0
    1.7120   43.7890   53.3190 C   0  0  0  0  0  0  0  0  0  0  0  0
    2.4780   43.0490   52.3000 C   0  0  0  0  0  0  0  0  0  0  0  0
    3.7870   42.6020   52.4550 C   0  0  0  0  0  0  0  0  0  0  0  0
    4.2550   41.8610   51.3630 C   0  0  0  0  0  0  0  0  0  0  0  0
    3.3100   41.7110   50.3590 C   0  0  0  0  0  0  0  0  0  0  0  0
    3.5370   40.8360   48.8620 Cl  0  0  0  0  0  0  0  0  0  0  0  0
    1.8950   42.4910   50.8190 S   0  0  0  0  0  0  0  0  0  0  0  0
    4.0210   46.1690   53.2520 N   0  0  0  0  0  0  0  0  0  0  0  0
    4.5920   45.4590   54.4040 C   0  0  0  0  0  0  0  0  0  0  0  0
    5.7680   46.2530   54.9750 C   0  0  0  0  0  0  0  0  0  0  0  0
    6.7310   46.5590   53.9010 N   0  0  0  0  0  0  0  0  0  0  0  0
    7.9960   47.1290   54.4130 C   0  0  0  0  0  0  0  0  0  0  0  0
    8.9870   47.5270   53.2980 C   0  0  0  0  0  0  0  0  0  0  0  0
   10.3730   46.9170   53.4570 C   0  0  0  0  0  0  0  0  0  0  0  0
    9.4430   46.4120   52.3670 C   0  0  0  0  0  0  0  0  0  0  0  0
    6.1100   47.4060   52.8650 C   0  0  0  0  0  0  0  0  0  0  0  0
    4.9420   46.6590   52.2170 C   0  0  0  0  0  0  0  0  0  0  0  0
    0.4914   46.2893   55.0259 H   0  0  0  0  0  0  0  0  0  0  0  0
   -0.4610   43.9430   55.6150 H   0  0  0  0  0  0  0  0  0  0  0  0
    4.3944   42.8105   53.3481 H   0  0  0  0  0  0  0  0  0  0  0  0
    5.2698   41.4403   51.3071 H   0  0  0  0  0  0  0  0  0  0  0  0
    3.8204   45.3420   55.1792 H   0  0  0  0  0  0  0  0  0  0  0  0
    4.9468   44.4696   54.0797 H   0  0  0  0  0  0  0  0  0  0  0  0
    5.3972   47.1920   55.4118 H   0  0  0  0  0  0  0  0  0  0  0  0
    6.2674   45.6554   55.7518 H   0  0  0  0  0  0  0  0  0  0  0  0
    7.7597   48.0253   55.0052 H   0  0  0  0  0  0  0  0  0  0  0  0
    8.4828   46.3479   55.0154 H   0  0  0  0  0  0  0  0  0  0  0  0
    8.5754   48.5351   53.1421 H   0  0  0  0  0  0  0  0  0  0  0  0
   11.2653   47.5026   53.1907 H   0  0  0  0  0  0  0  0  0  0  0  0
   10.9264   46.4497   54.2849 H   0  0  0  0  0  0  0  0  0  0  0  0
    9.6622   46.6320   51.3118 H   0  0  0  0  0  0  0  0  0  0  0  0
    9.0447   45.4278   52.0794 H   0  0  0  0  0  0  0  0  0  0  0  0
    5.7398   48.3339   53.3254 H   0  0  0  0  0  0  0  0  0  0  0  0
    6.8586   47.6472   52.0960 H   0  0  0  0  0  0  0  0  0  0  0  0
    4.4027   47.3410   51.5431 H   0  0  0  0  0  0  0  0  0  0  0  0
    5.3330   45.8028   51.6477 H   0  0  0  0  0  0  0  0  0  0  0  0
  1  2  2  0
  2  3  1  0
  3  4  2  0
  4  5  1  0
  5  6  1  0
  6  7  2  0
  7  8  1  0
  8  9  2  0
  9 10  1  0
 10 11  2  0
 11 12  1  0
 11 13  1  0
  2 14  1  0
 14 15  1  0
 15 16  1  0
 16 17  1  0
 17 18  1  0
 18 19  1  0
 19 20  1  0
 20 21  1  0
 17 22  1  0
 22 23  1  0
  7  3  1  0
 13  8  1  0
 23 14  1  0
 21 19  1  0
  4 24  1  0
  5 25  1  0
  9 26  1  0
 10 27  1  0
 15 28  1  0
 15 29  1  0
 16 30  1  0
 16 31  1  0
 18 32  1  0
 18 33  1  0
 19 34  1  0
 20 35  1  0
 20 36  1  0
 21 37  1  0
 21 38  1  0
 22 39  1  0
 22 40  1  0
 23 41  1  0
 23 42  1  0
M  END
>  <meeko>  (3) 
{"is_sidechain": [false], "free_energy": -7.647, "intermolecular_energy": -9.497, "internal_energy": -0.612}

$$$$
ligand_36_conformer_1_docked
     RDKit          3D

 42 45  0  0  0  0  0  0  0  0999 V2000
    3.5620   42.2940   52.9320 O   0  0  0  0  0  0  0  0  0  0  0  0
    3.2110   43.4470   52.5610 C   0  0  0  0  0  0  0  0  0  0  0  0
    1.8740   43.6250   51.9610 C   0  0  0  0  0  0  0  0  0  0  0  0
    1.5440   43.3880   50.6420 C   0  0  0  0  0  0  0  0  0  0  0  0
    0.2810   43.7990   50.4390 N   0  0  0  0  0  0  0  0  0  0  0  0
   -0.2170   44.2890   51.5620 N   0  0  0  0  0  0  0  0  0  0  0  0
    0.7350   44.1980   52.5140 C   0  0  0  0  0  0  0  0  0  0  0  0
    0.5010   44.5950   53.9140 C   0  0  0  0  0  0  0  0  0  0  0  0
    1.4780   45.0730   54.7820 C   0  0  0  0  0  0  0  0  0  0  0  0
    0.9770   45.4480   56.0350 C   0  0  0  0  0  0  0  0  0  0  0  0
   -0.3950   45.2800   56.1450 C   0  0  0  0  0  0  0  0  0  0  0  0
   -1.3620   45.6580   57.5530 Cl  0  0  0  0  0  0  0  0  0  0  0  0
   -0.9910   44.6720   54.6970 S   0  0  0  0  0  0  0  0  0  0  0  0
    4.0980   44.5660   52.7680 N   0  0  0  0  0  0  0  0  0  0  0  0
    3.9840   45.7870   51.9610 C   0  0  0  0  0  0  0  0  0  0  0  0
    5.3760   46.3320   51.6370 C   0  0  0  0  0  0  0  0  0  0  0  0
    6.1520   46.4850   52.8810 N   0  0  0  0  0  0  0  0  0  0  0  0
    7.4240   47.2120   52.6750 C   0  0  0  0  0  0  0  0  0  0  0  0
    8.6750   46.3650   52.9910 C   0  0  0  0  0  0  0  0  0  0  0  0
    9.8890   46.7140   52.1400 C   0  0  0  0  0  0  0  0  0  0  0  0
    9.8550   47.1030   53.6080 C   0  0  0  0  0  0  0  0  0  0  0  0
    6.3490   45.1820   53.5430 C   0  0  0  0  0  0  0  0  0  0  0  0
    4.9930   44.5900   53.9340 C   0  0  0  0  0  0  0  0  0  0  0  0
    2.2035   42.9386   49.8849 H   0  0  0  0  0  0  0  0  0  0  0  0
   -0.2390   43.7570   49.5350 H   0  0  0  0  0  0  0  0  0  0  0  0
    2.5412   45.1490   54.5103 H   0  0  0  0  0  0  0  0  0  0  0  0
    1.6074   45.8361   56.8486 H   0  0  0  0  0  0  0  0  0  0  0  0
    3.4560   45.5563   51.0240 H   0  0  0  0  0  0  0  0  0  0  0  0
    3.4231   46.5440   52.5288 H   0  0  0  0  0  0  0  0  0  0  0  0
    5.8955   45.6322   50.9658 H   0  0  0  0  0  0  0  0  0  0  0  0
    5.2783   47.3115   51.1460 H   0  0  0  0  0  0  0  0  0  0  0  0
    7.4762   47.5315   51.6237 H   0  0  0  0  0  0  0  0  0  0  0  0
    7.4260   48.0643   53.3704 H   0  0  0  0  0  0  0  0  0  0  0  0
    8.1229   45.4497   53.2507 H   0  0  0  0  0  0  0  0  0  0  0  0
   10.5674   45.9187   51.7975 H   0  0  0  0  0  0  0  0  0  0  0  0
   10.0467   47.2556   51.1956 H   0  0  0  0  0  0  0  0  0  0  0  0
   10.5090   46.5894   54.3281 H   0  0  0  0  0  0  0  0  0  0  0  0
    9.9781   48.0429   54.1660 H   0  0  0  0  0  0  0  0  0  0  0  0
    6.8621   44.4957   52.8533 H   0  0  0  0  0  0  0  0  0  0  0  0
    6.9589   45.3223   54.4476 H   0  0  0  0  0  0  0  0  0  0  0  0
    5.1367   43.5640   54.3037 H   0  0  0  0  0  0  0  0  0  0  0  0
    4.5421   45.2115   54.7217 H   0  0  0  0  0  0  0  0  0  0  0  0
  1  2  2  0
  2  3  1  0
  3  4  2  0
  4  5  1  0
  5  6  1  0
  6  7  2  0
  7  8  1  0
  8  9  2  0
  9 10  1  0
 10 11  2  0
 11 12  1  0
 11 13  1  0
  2 14  1  0
 14 15  1  0
 15 16  1  0
 16 17  1  0
 17 18  1  0
 18 19  1  0
 19 20  1  0
 20 21  1  0
 17 22  1  0
 22 23  1  0
  7  3  1  0
 13  8  1  0
 23 14  1  0
 21 19  1  0
  4 24  1  0
  5 25  1  0
  9 26  1  0
 10 27  1  0
 15 28  1  0
 15 29  1  0
 16 30  1  0
 16 31  1  0
 18 32  1  0
 18 33  1  0
 19 34  1  0
 20 35  1  0
 20 36  1  0
 21 37  1  0
 21 38  1  0
 22 39  1  0
 22 40  1  0
 23 41  1  0
 23 42  1  0
M  END
>  <meeko>  (4) 
{"is_sidechain": [false], "free_energy": -7.111, "intermolecular_energy": -9.051, "internal_energy": -0.397}

$$$$
ligand_36_conformer_1_docked
     RDKit          3D

 42 45  0  0  0  0  0  0  0  0999 V2000
    5.2660   47.8690   53.4550 O   0  0  0  0  0  0  0  0  0  0  0  0
    4.9480   46.7050   53.0900 C   0  0  0  0  0  0  0  0  0  0  0  0
    5.5850   46.1380   51.8860 C   0  0  0  0  0  0  0  0  0  0  0  0
    4.9250   45.6080   50.7960 C   0  0  0  0  0  0  0  0  0  0  0  0
    5.8330   45.0630   49.9700 N   0  0  0  0  0  0  0  0  0  0  0  0
    7.0460   45.2160   50.4750 N   0  0  0  0  0  0  0  0  0  0  0  0
    6.9290   45.8700   51.6490 C   0  0  0  0  0  0  0  0  0  0  0  0
    8.0950   46.2690   52.4580 C   0  0  0  0  0  0  0  0  0  0  0  0
    9.3520   46.5780   51.9480 C   0  0  0  0  0  0  0  0  0  0  0  0
   10.2630   46.9980   52.9260 C   0  0  0  0  0  0  0  0  0  0  0  0
    9.7170   47.0340   54.2000 C   0  0  0  0  0  0  0  0  0  0  0  0
   10.5520   47.5220   55.6580 Cl  0  0  0  0  0  0  0  0  0  0  0  0
    8.1100   46.5510   54.1220 S   0  0  0  0  0  0  0  0  0  0  0  0
    4.0070   45.9420   53.8740 N   0  0  0  0  0  0  0  0  0  0  0  0
    3.2450   44.8340   53.2820 C   0  0  0  0  0  0  0  0  0  0  0  0
    1.8190   44.8290   53.8320 C   0  0  0  0  0  0  0  0  0  0  0  0
    1.8530   44.8350   55.3060 N   0  0  0  0  0  0  0  0  0  0  0  0
    0.5220   44.6080   55.9100 C   0  0  0  0  0  0  0  0  0  0  0  0
   -0.5250   44.0730   54.9090 C   0  0  0  0  0  0  0  0  0  0  0  0
   -1.8780   43.7640   55.5360 C   0  0  0  0  0  0  0  0  0  0  0  0
   -1.7200   44.9750   54.6320 C   0  0  0  0  0  0  0  0  0  0  0  0
    2.4990   46.0610   55.8120 C   0  0  0  0  0  0  0  0  0  0  0  0
    3.9510   46.1160   55.3320 C   0  0  0  0  0  0  0  0  0  0  0  0
    3.8376   45.6285   50.6313 H   0  0  0  0  0  0  0  0  0  0  0  0
    5.6290   44.5780   49.0690 H   0  0  0  0  0  0  0  0  0  0  0  0
    9.6059   46.5001   50.8805 H   0  0  0  0  0  0  0  0  0  0  0  0
   11.3054   47.2714   52.7056 H   0  0  0  0  0  0  0  0  0  0  0  0
    3.2137   44.9561   52.1892 H   0  0  0  0  0  0  0  0  0  0  0  0
    3.7340   43.8822   53.5367 H   0  0  0  0  0  0  0  0  0  0  0  0
    1.2867   45.7231   53.4752 H   0  0  0  0  0  0  0  0  0  0  0  0
    1.2984   43.9246   53.4841 H   0  0  0  0  0  0  0  0  0  0  0  0
    0.6295   43.8774   56.7252 H   0  0  0  0  0  0  0  0  0  0  0  0
    0.1588   45.5824   56.2686 H   0  0  0  0  0  0  0  0  0  0  0  0
    0.1964   43.5396   54.2726 H   0  0  0  0  0  0  0  0  0  0  0  0
   -2.4570   42.8938   55.1932 H   0  0  0  0  0  0  0  0  0  0  0  0
   -2.2406   43.6015   56.5617 H   0  0  0  0  0  0  0  0  0  0  0  0
   -2.1847   44.9812   53.6350 H   0  0  0  0  0  0  0  0  0  0  0  0
   -1.9210   46.0518   54.7328 H   0  0  0  0  0  0  0  0  0  0  0  0
    1.9565   46.9414   55.4370 H   0  0  0  0  0  0  0  0  0  0  0  0
    2.4794   46.0552   56.9118 H   0  0  0  0  0  0  0  0  0  0  0  0
    4.3860   47.0903   55.5992 H   0  0  0  0  0  0  0  0  0  0  0  0
    4.5206   45.3075   55.8135 H   0  0  0  0  0  0  0  0  0  0  0  0
  1  2  2  0
  2  3  1  0
  3  4  2  0
  4  5  1  0
  5  6  1  0
  6  7  2  0
  7  8  1  0
  8  9  2  0
  9 10  1  0
 10 11  2  0
 11 12  1  0
 11 13  1  0
  2 14  1  0
 14 15  1  0
 15 16  1  0
 16 17  1  0
 17 18  1  0
 18 19  1  0
 19 20  1  0
 20 21  1  0
 17 22  1  0
 22 23  1  0
  7  3  1  0
 13  8  1  0
 23 14  1  0
 21 19  1  0
  4 24  1  0
  5 25  1  0
  9 26  1  0
 10 27  1  0
 15 28  1  0
 15 29  1  0
 16 30  1  0
 16 31  1  0
 18 32  1  0
 18 33  1  0
 19 34  1  0
 20 35  1  0
 20 36  1  0
 21 37  1  0
 21 38  1  0
 22 39  1  0
 22 40  1  0
 23 41  1  0
 23 42  1  0
M  END
>  <meeko>  (5) 
{"is_sidechain": [false], "free_energy": -7.099, "intermolecular_energy": -9.746, "internal_energy": 0.312}

$$$$
