ligand_74_conformer_3_docked
     RDKit          3D

 46 49  0  0  0  0  0  0  0  0999 V2000
   -2.1350   43.7750   56.3960 C   0  0  0  0  0  0  0  0  0  0  0  0
   -2.5720   44.3650   55.0580 C   0  0  1  0  0  0  0  0  0  0  0  0
   -1.3960   44.5620   54.0830 C   0  0  0  0  0  0  0  0  0  0  0  0
   -1.8170   43.7170   52.9260 C   0  0  0  0  0  0  0  0  0  0  0  0
   -0.9650   43.4890   51.7040 C   0  0  0  0  0  0  0  0  0  0  0  0
    0.2350   42.6250   51.9570 C   0  0  0  0  0  0  0  0  0  0  0  0
    1.2400   43.6620   51.6670 N   0  0  0  0  0  0  0  0  0  0  0  0
    2.6630   43.7720   51.6430 C   0  0  0  0  0  0  0  0  0  0  0  0
    3.3650   42.7680   51.9340 O   0  0  0  0  0  0  0  0  0  0  0  0
    3.2740   45.0200   51.2870 N   0  0  0  0  0  0  0  0  0  0  0  0
    4.6880   45.2540   51.3210 C   0  0  0  0  0  0  0  0  0  0  0  0
    5.3720   45.7910   52.3930 C   0  0  0  0  0  0  0  0  0  0  0  0
    6.6880   45.8240   51.9690 C   0  0  0  0  0  0  0  0  0  0  0  0
    7.8290   46.3170   52.7760 C   0  0  0  0  0  0  0  0  0  0  0  0
    7.5920   46.9560   54.0060 C   0  0  0  0  0  0  0  0  0  0  0  0
    8.6600   47.4420   54.7670 C   0  0  0  0  0  0  0  0  0  0  0  0
    9.9710   47.3030   54.3050 C   0  0  0  0  0  0  0  0  0  0  0  0
   11.0050   47.7760   55.0430 F   0  0  0  0  0  0  0  0  0  0  0  0
   10.2160   46.6840   53.0750 C   0  0  0  0  0  0  0  0  0  0  0  0
    9.1510   46.1980   52.3100 C   0  0  0  0  0  0  0  0  0  0  0  0
    6.7520   45.3030   50.7190 N   0  0  0  0  0  0  0  0  0  0  0  0
    7.9400   45.0910   49.8980 C   0  0  0  0  0  0  0  0  0  0  0  0
    5.5370   44.9640   50.3170 N   0  0  0  0  0  0  0  0  0  0  0  0
    0.0770   44.5330   51.4240 C   0  0  0  0  0  0  0  0  0  0  0  0
   -2.9240   43.0970   53.1440 N   0  0  0  0  0  0  0  0  0  0  0  0
   -3.4140   43.4500   54.3740 O   0  0  0  0  0  0  0  0  0  0  0  0
   -2.5712   44.3639   57.2164 H   0  0  0  0  0  0  0  0  0  0  0  0
   -2.4812   42.7334   56.4680 H   0  0  0  0  0  0  0  0  0  0  0  0
   -1.0377   43.8025   56.4680 H   0  0  0  0  0  0  0  0  0  0  0  0
   -3.0549   45.3206   55.3101 H   0  0  0  0  0  0  0  0  0  0  0  0
   -1.2896   45.6172   53.7911 H   0  0  0  0  0  0  0  0  0  0  0  0
   -0.4170   44.2880   54.5031 H   0  0  0  0  0  0  0  0  0  0  0  0
   -1.7817   43.2509   51.0066 H   0  0  0  0  0  0  0  0  0  0  0  0
    0.2861   42.2629   52.9944 H   0  0  0  0  0  0  0  0  0  0  0  0
    0.3052   41.6868   51.3871 H   0  0  0  0  0  0  0  0  0  0  0  0
    2.6540   45.8060   50.9910 H   0  0  0  0  0  0  0  0  0  0  0  0
    4.9644   46.1174   53.3612 H   0  0  0  0  0  0  0  0  0  0  0  0
    6.5613   47.0742   54.3715 H   0  0  0  0  0  0  0  0  0  0  0  0
    8.4673   47.9348   55.7314 H   0  0  0  0  0  0  0  0  0  0  0  0
   11.2480   46.5793   52.7088 H   0  0  0  0  0  0  0  0  0  0  0  0
    9.3480   45.7202   51.3389 H   0  0  0  0  0  0  0  0  0  0  0  0
    8.8127   44.9353   50.5492 H   0  0  0  0  0  0  0  0  0  0  0  0
    7.7935   44.2048   49.2630 H   0  0  0  0  0  0  0  0  0  0  0  0
    8.1091   45.9732   49.2630 H   0  0  0  0  0  0  0  0  0  0  0  0
    0.0277   45.3805   52.1235 H   0  0  0  0  0  0  0  0  0  0  0  0
    0.0271   45.0421   50.4502 H   0  0  0  0  0  0  0  0  0  0  0  0
  1  2  1  0
  2  3  1  0
  3  4  1  0
  4  5  1  0
  5  6  1  0
  6  7  1  0
  7  8  1  0
  8  9  2  0
  8 10  1  0
 10 11  1  0
 11 12  1  0
 12 13  2  0
 13 14  1  0
 14 15  2  0
 15 16  1  0
 16 17  2  0
 17 18  1  0
 17 19  1  0
 19 20  2  0
 13 21  1  0
 21 22  1  0
 21 23  1  0
  7 24  1  0
  4 25  2  0
 25 26  1  0
 26  2  1  0
 24  5  1  0
 23 11  2  0
 20 14  1  0
  1 27  1  0
  1 28  1  0
  1 29  1  0
  2 30  1  1
  3 31  1  0
  3 32  1  0
  5 33  1  0
  6 34  1  0
  6 35  1  0
 10 36  1  0
 12 37  1  0
 15 38  1  0
 16 39  1  0
 19 40  1  0
 20 41  1  0
 22 42  1  0
 22 43  1  0
 22 44  1  0
 24 45  1  0
 24 46  1  0
M  END
>  <meeko>  (1) 
{"is_sidechain": [false], "free_energy": -8.896, "intermolecular_energy": -10.457, "internal_energy": 0.073}

$$$$
ligand_74_conformer_3_docked
     RDKit          3D

 46 49  0  0  0  0  0  0  0  0999 V2000
   10.2700   47.1790   55.1200 C   0  0  0  0  0  0  0  0  0  0  0  0
    9.7860   47.5150   53.7120 C   0  0  1  0  0  0  0  0  0  0  0  0
    9.3040   46.2750   52.9380 C   0  0  0  0  0  0  0  0  0  0  0  0
    7.8870   46.6380   52.6350 C   0  0  0  0  0  0  0  0  0  0  0  0
    6.9150   45.7150   51.9460 C   0  0  0  0  0  0  0  0  0  0  0  0
    5.6430   46.3870   51.5200 C   0  0  0  0  0  0  0  0  0  0  0  0
    4.7530   45.6100   52.4010 N   0  0  0  0  0  0  0  0  0  0  0  0
    3.3580   45.5430   52.6930 C   0  0  0  0  0  0  0  0  0  0  0  0
    2.5630   46.3160   52.0950 O   0  0  0  0  0  0  0  0  0  0  0  0
    2.8790   44.5990   53.6600 N   0  0  0  0  0  0  0  0  0  0  0  0
    1.5120   44.5180   54.0860 C   0  0  0  0  0  0  0  0  0  0  0  0
    1.0240   45.0290   55.2710 C   0  0  0  0  0  0  0  0  0  0  0  0
   -0.3230   44.7170   55.2430 C   0  0  0  0  0  0  0  0  0  0  0  0
   -1.2990   45.0640   56.3030 C   0  0  0  0  0  0  0  0  0  0  0  0
   -1.3480   46.3760   56.8060 C   0  0  0  0  0  0  0  0  0  0  0  0
   -2.2510   46.7120   57.8190 C   0  0  0  0  0  0  0  0  0  0  0  0
   -3.1060   45.7400   58.3460 C   0  0  0  0  0  0  0  0  0  0  0  0
   -3.9800   46.0660   59.3300 F   0  0  0  0  0  0  0  0  0  0  0  0
   -3.0530   44.4290   57.8650 C   0  0  0  0  0  0  0  0  0  0  0  0
   -2.1500   44.0890   56.8530 C   0  0  0  0  0  0  0  0  0  0  0  0
   -0.5930   44.0770   54.0780 N   0  0  0  0  0  0  0  0  0  0  0  0
   -1.8880   43.6080   53.5970 C   0  0  0  0  0  0  0  0  0  0  0  0
    0.5210   43.9450   53.3760 N   0  0  0  0  0  0  0  0  0  0  0  0
    5.9910   44.9440   52.8430 C   0  0  0  0  0  0  0  0  0  0  0  0
    7.5480   47.7710   53.1450 N   0  0  0  0  0  0  0  0  0  0  0  0
    8.6270   48.3310   53.7770 O   0  0  0  0  0  0  0  0  0  0  0  0
    9.6004   47.6439   55.8586 H   0  0  0  0  0  0  0  0  0  0  0  0
   10.2670   46.0877   55.2581 H   0  0  0  0  0  0  0  0  0  0  0  0
   11.2914   47.5633   55.2581 H   0  0  0  0  0  0  0  0  0  0  0  0
   10.6462   47.9919   53.2195 H   0  0  0  0  0  0  0  0  0  0  0  0
    9.8857   46.1267   52.0162 H   0  0  0  0  0  0  0  0  0  0  0  0
    9.4140   45.3318   53.4932 H   0  0  0  0  0  0  0  0  0  0  0  0
    7.6352   45.2340   51.2677 H   0  0  0  0  0  0  0  0  0  0  0  0
    5.6338   47.4628   51.7492 H   0  0  0  0  0  0  0  0  0  0  0  0
    5.4107   46.3842   50.4448 H   0  0  0  0  0  0  0  0  0  0  0  0
    3.5650   43.9350   54.0840 H   0  0  0  0  0  0  0  0  0  0  0  0
    1.5787   45.5620   56.0572 H   0  0  0  0  0  0  0  0  0  0  0  0
   -0.6718   47.1427   56.4000 H   0  0  0  0  0  0  0  0  0  0  0  0
   -2.2887   47.7426   58.2018 H   0  0  0  0  0  0  0  0  0  0  0  0
   -3.7228   43.6632   58.2832 H   0  0  0  0  0  0  0  0  0  0  0  0
   -2.1051   43.0533   56.4852 H   0  0  0  0  0  0  0  0  0  0  0  0
   -2.5350   43.3737   54.4552 H   0  0  0  0  0  0  0  0  0  0  0  0
   -2.3586   44.3928   52.9866 H   0  0  0  0  0  0  0  0  0  0  0  0
   -1.7469   42.7039   52.9866 H   0  0  0  0  0  0  0  0  0  0  0  0
    6.2024   45.1057   53.9103 H   0  0  0  0  0  0  0  0  0  0  0  0
    6.0229   43.8468   52.7713 H   0  0  0  0  0  0  0  0  0  0  0  0
  1  2  1  0
  2  3  1  0
  3  4  1  0
  4  5  1  0
  5  6  1  0
  6  7  1  0
  7  8  1  0
  8  9  2  0
  8 10  1  0
 10 11  1  0
 11 12  1  0
 12 13  2  0
 13 14  1  0
 14 15  2  0
 15 16  1  0
 16 17  2  0
 17 18  1  0
 17 19  1  0
 19 20  2  0
 13 21  1  0
 21 22  1  0
 21 23  1  0
  7 24  1  0
  4 25  2  0
 25 26  1  0
 26  2  1  0
 24  5  1  0
 23 11  2  0
 20 14  1  0
  1 27  1  0
  1 28  1  0
  1 29  1  0
  2 30  1  6
  3 31  1  0
  3 32  1  0
  5 33  1  0
  6 34  1  0
  6 35  1  0
 10 36  1  0
 12 37  1  0
 15 38  1  0
 16 39  1  0
 19 40  1  0
 20 41  1  0
 22 42  1  0
 22 43  1  0
 22 44  1  0
 24 45  1  0
 24 46  1  0
M  END
>  <meeko>  (2) 
{"is_sidechain": [false], "free_energy": -8.511, "intermolecular_energy": -9.589, "internal_energy": -0.343}

$$$$
ligand_74_conformer_3_docked
     RDKit          3D

 46 49  0  0  0  0  0  0  0  0999 V2000
    9.6790   47.0680   52.1050 C   0  0  0  0  0  0  0  0  0  0  0  0
    8.3690   47.6550   52.6250 C   0  0  1  0  0  0  0  0  0  0  0  0
    7.2720   46.5900   52.8080 C   0  0  0  0  0  0  0  0  0  0  0  0
    6.9650   46.7180   54.2640 C   0  0  0  0  0  0  0  0  0  0  0  0
    5.9940   45.8270   54.9950 C   0  0  0  0  0  0  0  0  0  0  0  0
    5.4990   44.6730   54.1740 C   0  0  0  0  0  0  0  0  0  0  0  0
    4.0870   45.0940   54.1460 N   0  0  0  0  0  0  0  0  0  0  0  0
    2.8580   44.6200   53.5990 C   0  0  0  0  0  0  0  0  0  0  0  0
    2.8500   43.5510   52.9310 O   0  0  0  0  0  0  0  0  0  0  0  0
    1.6500   45.3610   53.8160 N   0  0  0  0  0  0  0  0  0  0  0  0
    0.3860   45.0150   53.2330 C   0  0  0  0  0  0  0  0  0  0  0  0
    0.1400   44.9290   51.8780 C   0  0  0  0  0  0  0  0  0  0  0  0
   -1.1930   44.5710   51.8010 C   0  0  0  0  0  0  0  0  0  0  0  0
   -1.9410   44.3430   50.5410 C   0  0  0  0  0  0  0  0  0  0  0  0
   -1.8020   43.1240   49.8550 C   0  0  0  0  0  0  0  0  0  0  0  0
   -2.4870   42.9050   48.6560 C   0  0  0  0  0  0  0  0  0  0  0  0
   -3.3100   43.9030   48.1270 C   0  0  0  0  0  0  0  0  0  0  0  0
   -3.9720   43.6900   46.9630 F   0  0  0  0  0  0  0  0  0  0  0  0
   -3.4410   45.1250   48.7930 C   0  0  0  0  0  0  0  0  0  0  0  0
   -2.7560   45.3490   49.9910 C   0  0  0  0  0  0  0  0  0  0  0  0
   -1.6770   44.4330   53.0600 N   0  0  0  0  0  0  0  0  0  0  0  0
   -3.0170   44.0180   53.4620 C   0  0  0  0  0  0  0  0  0  0  0  0
   -0.7230   44.7120   53.9340 N   0  0  0  0  0  0  0  0  0  0  0  0
    4.5530   46.2430   54.9430 C   0  0  0  0  0  0  0  0  0  0  0  0
    7.7180   47.5800   54.8530 N   0  0  0  0  0  0  0  0  0  0  0  0
    8.5510   48.1650   53.9360 O   0  0  0  0  0  0  0  0  0  0  0  0
   10.3159   46.7826   52.9552 H   0  0  0  0  0  0  0  0  0  0  0  0
    9.4652   46.1796   51.4926 H   0  0  0  0  0  0  0  0  0  0  0  0
   10.1997   47.8189   51.4926 H   0  0  0  0  0  0  0  0  0  0  0  0
    8.0793   48.4127   51.8821 H   0  0  0  0  0  0  0  0  0  0  0  0
    6.3892   46.8136   52.1910 H   0  0  0  0  0  0  0  0  0  0  0  0
    7.5771   45.5780   52.5034 H   0  0  0  0  0  0  0  0  0  0  0  0
    6.5618   45.7398   55.9331 H   0  0  0  0  0  0  0  0  0  0  0  0
    5.9519   44.6397   53.1721 H   0  0  0  0  0  0  0  0  0  0  0  0
    5.7126   43.6621   54.5514 H   0  0  0  0  0  0  0  0  0  0  0  0
    1.6920   46.2060   54.4290 H   0  0  0  0  0  0  0  0  0  0  0  0
    0.8426   45.1048   51.0500 H   0  0  0  0  0  0  0  0  0  0  0  0
   -1.1504   42.3377   50.2639 H   0  0  0  0  0  0  0  0  0  0  0  0
   -2.3780   41.9460   48.1284 H   0  0  0  0  0  0  0  0  0  0  0  0
   -4.0846   45.9123   48.3735 H   0  0  0  0  0  0  0  0  0  0  0  0
   -2.8548   46.3161   50.5057 H   0  0  0  0  0  0  0  0  0  0  0  0
   -3.0808   43.9982   54.5600 H   0  0  0  0  0  0  0  0  0  0  0  0
   -3.7559   44.7294   53.0645 H   0  0  0  0  0  0  0  0  0  0  0  0
   -3.2245   43.0135   53.0645 H   0  0  0  0  0  0  0  0  0  0  0  0
    4.4069   47.2040   54.4281 H   0  0  0  0  0  0  0  0  0  0  0  0
    4.0488   46.4236   55.9038 H   0  0  0  0  0  0  0  0  0  0  0  0
  1  2  1  0
  2  3  1  0
  3  4  1  0
  4  5  1  0
  5  6  1  0
  6  7  1  0
  7  8  1  0
  8  9  2  0
  8 10  1  0
 10 11  1  0
 11 12  1  0
 12 13  2  0
 13 14  1  0
 14 15  2  0
 15 16  1  0
 16 17  2  0
 17 18  1  0
 17 19  1  0
 19 20  2  0
 13 21  1  0
 21 22  1  0
 21 23  1  0
  7 24  1  0
  4 25  2  0
 25 26  1  0
 26  2  1  0
 24  5  1  0
 23 11  2  0
 20 14  1  0
  1 27  1  0
  1 28  1  0
  1 29  1  0
  2 30  1  6
  3 31  1  0
  3 32  1  0
  5 33  1  0
  6 34  1  0
  6 35  1  0
 10 36  1  0
 12 37  1  0
 15 38  1  0
 16 39  1  0
 19 40  1  0
 20 41  1  0
 22 42  1  0
 22 43  1  0
 22 44  1  0
 24 45  1  0
 24 46  1  0
M  END
>  <meeko>  (3) 
{"is_sidechain": [false], "free_energy": -8.203, "intermolecular_energy": -9.11, "internal_energy": -0.459}

$$$$
ligand_74_conformer_3_docked
     RDKit          3D

 46 49  0  0  0  0  0  0  0  0999 V2000
    8.2630   48.2290   51.9640 C   0  0  0  0  0  0  0  0  0  0  0  0
    8.3230   46.7040   51.9860 C   0  0  1  0  0  0  0  0  0  0  0  0
    7.0540   46.0690   52.5850 C   0  0  0  0  0  0  0  0  0  0  0  0
    6.5730   45.2240   51.4500 C   0  0  0  0  0  0  0  0  0  0  0  0
    5.2900   44.4340   51.4810 C   0  0  0  0  0  0  0  0  0  0  0  0
    4.0580   45.2800   51.3510 C   0  0  0  0  0  0  0  0  0  0  0  0
    3.5170   44.9760   52.6870 N   0  0  0  0  0  0  0  0  0  0  0  0
    2.3730   45.3260   53.4640 C   0  0  0  0  0  0  0  0  0  0  0  0
    1.5120   46.1080   52.9790 O   0  0  0  0  0  0  0  0  0  0  0  0
    2.2140   44.7840   54.7820 N   0  0  0  0  0  0  0  0  0  0  0  0
    1.1490   45.1450   55.6710 C   0  0  0  0  0  0  0  0  0  0  0  0
    1.1370   46.2680   56.4730 C   0  0  0  0  0  0  0  0  0  0  0  0
   -0.0730   46.1940   57.1370 C   0  0  0  0  0  0  0  0  0  0  0  0
   -0.5650   47.1870   58.1210 C   0  0  0  0  0  0  0  0  0  0  0  0
   -1.7440   47.9060   57.8600 C   0  0  0  0  0  0  0  0  0  0  0  0
   -2.2080   48.8600   58.7710 C   0  0  0  0  0  0  0  0  0  0  0  0
   -1.4950   49.1110   59.9470 C   0  0  0  0  0  0  0  0  0  0  0  0
   -1.9450   50.0370   60.8290 F   0  0  0  0  0  0  0  0  0  0  0  0
   -0.3120   48.4130   60.2080 C   0  0  0  0  0  0  0  0  0  0  0  0
    0.1560   47.4610   59.2970 C   0  0  0  0  0  0  0  0  0  0  0  0
   -0.7330   45.0890   56.7100 N   0  0  0  0  0  0  0  0  0  0  0  0
   -2.0660   44.6380   57.0990 C   0  0  0  0  0  0  0  0  0  0  0  0
    0.0100   44.4420   55.8260 N   0  0  0  0  0  0  0  0  0  0  0  0
    4.7260   44.1480   52.8420 C   0  0  0  0  0  0  0  0  0  0  0  0
    7.3030   45.3520   50.3960 N   0  0  0  0  0  0  0  0  0  0  0  0
    8.3470   46.1990   50.6600 O   0  0  0  0  0  0  0  0  0  0  0  0
    8.2480   48.6103   52.9957 H   0  0  0  0  0  0  0  0  0  0  0  0
    9.1463   48.6232   51.4402 H   0  0  0  0  0  0  0  0  0  0  0  0
    7.3514   48.5526   51.4402 H   0  0  0  0  0  0  0  0  0  0  0  0
    9.2175   46.4598   52.5778 H   0  0  0  0  0  0  0  0  0  0  0  0
    7.2903   45.4573   53.4682 H   0  0  0  0  0  0  0  0  0  0  0  0
    6.3142   46.8009   52.9415 H   0  0  0  0  0  0  0  0  0  0  0  0
    5.5940   43.6447   50.7778 H   0  0  0  0  0  0  0  0  0  0  0  0
    4.2881   46.3475   51.2191 H   0  0  0  0  0  0  0  0  0  0  0  0
    3.4037   45.0825   50.4891 H   0  0  0  0  0  0  0  0  0  0  0  0
    2.9190   44.0900   55.1180 H   0  0  0  0  0  0  0  0  0  0  0  0
    1.9119   47.0435   56.5631 H   0  0  0  0  0  0  0  0  0  0  0  0
   -2.3054   47.7171   56.9331 H   0  0  0  0  0  0  0  0  0  0  0  0
   -3.1352   49.4137   58.5620 H   0  0  0  0  0  0  0  0  0  0  0  0
    0.2514   48.6130   61.1313 H   0  0  0  0  0  0  0  0  0  0  0  0
    1.0936   46.9232   59.5014 H   0  0  0  0  0  0  0  0  0  0  0  0
   -2.1390   44.6133   58.1963 H   0  0  0  0  0  0  0  0  0  0  0  0
   -2.8195   45.3312   56.6969 H   0  0  0  0  0  0  0  0  0  0  0  0
   -2.2438   43.6297   56.6969 H   0  0  0  0  0  0  0  0  0  0  0  0
    5.3793   44.4984   53.6546 H   0  0  0  0  0  0  0  0  0  0  0  0
    4.5788   43.0917   53.1116 H   0  0  0  0  0  0  0  0  0  0  0  0
  1  2  1  0
  2  3  1  0
  3  4  1  0
  4  5  1  0
  5  6  1  0
  6  7  1  0
  7  8  1  0
  8  9  2  0
  8 10  1  0
 10 11  1  0
 11 12  1  0
 12 13  2  0
 13 14  1  0
 14 15  2  0
 15 16  1  0
 16 17  2  0
 17 18  1  0
 17 19  1  0
 19 20  2  0
 13 21  1  0
 21 22  1  0
 21 23  1  0
  7 24  1  0
  4 25  2  0
 25 26  1  0
 26  2  1  0
 24  5  1  0
 23 11  2  0
 20 14  1  0
  1 27  1  0
  1 28  1  0
  1 29  1  0
  2 30  1  1
  3 31  1  0
  3 32  1  0
  5 33  1  0
  6 34  1  0
  6 35  1  0
 10 36  1  0
 12 37  1  0
 15 38  1  0
 16 39  1  0
 19 40  1  0
 20 41  1  0
 22 42  1  0
 22 43  1  0
 22 44  1  0
 24 45  1  0
 24 46  1  0
M  END
>  <meeko>  (4) 
{"is_sidechain": [false], "free_energy": -7.988, "intermolecular_energy": -8.889, "internal_energy": -0.427}

$$$$
ligand_74_conformer_3_docked
     RDKit          3D

 46 49  0  0  0  0  0  0  0  0999 V2000
   -3.2200   39.7140   47.7060 C   0  0  0  0  0  0  0  0  0  0  0  0
   -3.6000   41.1130   48.1860 C   0  0  1  0  0  0  0  0  0  0  0  0
   -3.7280   41.2010   49.7180 C   0  0  0  0  0  0  0  0  0  0  0  0
   -2.7130   42.2450   50.0490 C   0  0  0  0  0  0  0  0  0  0  0  0
   -2.3700   42.6630   51.4560 C   0  0  0  0  0  0  0  0  0  0  0  0
   -2.0550   44.1230   51.5910 C   0  0  0  0  0  0  0  0  0  0  0  0
   -0.6490   43.9440   51.9950 N   0  0  0  0  0  0  0  0  0  0  0  0
    0.4600   44.7720   52.3430 C   0  0  0  0  0  0  0  0  0  0  0  0
    0.3210   46.0240   52.3400 O   0  0  0  0  0  0  0  0  0  0  0  0
    1.7140   44.1700   52.6940 N   0  0  0  0  0  0  0  0  0  0  0  0
    2.9060   44.9160   52.9700 C   0  0  0  0  0  0  0  0  0  0  0  0
    4.1210   44.7200   52.3460 C   0  0  0  0  0  0  0  0  0  0  0  0
    4.9550   45.6570   52.9290 C   0  0  0  0  0  0  0  0  0  0  0  0
    6.3830   45.8540   52.5880 C   0  0  0  0  0  0  0  0  0  0  0  0
    7.3100   46.1570   53.6020 C   0  0  0  0  0  0  0  0  0  0  0  0
    8.6570   46.3640   53.2900 C   0  0  0  0  0  0  0  0  0  0  0  0
    9.0900   46.2790   51.9640 C   0  0  0  0  0  0  0  0  0  0  0  0
   10.3960   46.4820   51.6630 F   0  0  0  0  0  0  0  0  0  0  0  0
    8.1740   45.9940   50.9470 C   0  0  0  0  0  0  0  0  0  0  0  0
    6.8260   45.7890   51.2550 C   0  0  0  0  0  0  0  0  0  0  0  0
    4.2360   46.3730   53.8290 N   0  0  0  0  0  0  0  0  0  0  0  0
    4.6880   47.4970   54.6430 C   0  0  0  0  0  0  0  0  0  0  0  0
    2.9920   45.9190   53.8650 N   0  0  0  0  0  0  0  0  0  0  0  0
   -0.9320   42.5040   51.8570 C   0  0  0  0  0  0  0  0  0  0  0  0
   -2.0680   42.6520   49.0110 N   0  0  0  0  0  0  0  0  0  0  0  0
   -2.5560   42.0280   47.8930 O   0  0  0  0  0  0  0  0  0  0  0  0
   -3.0433   39.0635   48.5753 H   0  0  0  0  0  0  0  0  0  0  0  0
   -4.0382   39.3000   47.0985 H   0  0  0  0  0  0  0  0  0  0  0  0
   -2.3047   39.7708   47.0985 H   0  0  0  0  0  0  0  0  0  0  0  0
   -4.5528   41.3392   47.6850 H   0  0  0  0  0  0  0  0  0  0  0  0
   -4.7385   41.5152   50.0182 H   0  0  0  0  0  0  0  0  0  0  0  0
   -3.5672   40.2432   50.2345 H   0  0  0  0  0  0  0  0  0  0  0  0
   -3.1969   42.1439   51.9628 H   0  0  0  0  0  0  0  0  0  0  0  0
   -2.1576   44.6689   50.6415 H   0  0  0  0  0  0  0  0  0  0  0  0
   -2.6970   44.7137   52.2610 H   0  0  0  0  0  0  0  0  0  0  0  0
    1.7640   43.1280   52.7450 H   0  0  0  0  0  0  0  0  0  0  0  0
    4.3693   43.9869   51.5644 H   0  0  0  0  0  0  0  0  0  0  0  0
    6.9730   46.2315   54.6465 H   0  0  0  0  0  0  0  0  0  0  0  0
    9.3769   46.5941   54.0893 H   0  0  0  0  0  0  0  0  0  0  0  0
    8.5145   45.9310   49.9029 H   0  0  0  0  0  0  0  0  0  0  0  0
    6.1075   45.5756   50.4499 H   0  0  0  0  0  0  0  0  0  0  0  0
    4.5858   47.2427   55.7083 H   0  0  0  0  0  0  0  0  0  0  0  0
    5.7427   47.7126   54.4171 H   0  0  0  0  0  0  0  0  0  0  0  0
    4.0762   48.3828   54.4171 H   0  0  0  0  0  0  0  0  0  0  0  0
   -0.3238   42.0245   51.0759 H   0  0  0  0  0  0  0  0  0  0  0  0
   -0.7221   41.8661   52.7282 H   0  0  0  0  0  0  0  0  0  0  0  0
  1  2  1  0
  2  3  1  0
  3  4  1  0
  4  5  1  0
  5  6  1  0
  6  7  1  0
  7  8  1  0
  8  9  2  0
  8 10  1  0
 10 11  1  0
 11 12  1  0
 12 13  2  0
 13 14  1  0
 14 15  2  0
 15 16  1  0
 16 17  2  0
 17 18  1  0
 17 19  1  0
 19 20  2  0
 13 21  1  0
 21 22  1  0
 21 23  1  0
  7 24  1  0
  4 25  2  0
 25 26  1  0
 26  2  1  0
 24  5  1  0
 23 11  2  0
 20 14  1  0
  1 27  1  0
  1 28  1  0
  1 29  1  0
  2 30  1  6
  3 31  1  0
  3 32  1  0
  5 33  1  0
  6 34  1  0
  6 35  1  0
 10 36  1  0
 12 37  1  0
 15 38  1  0
 16 39  1  0
 19 40  1  0
 20 41  1  0
 22 42  1  0
 22 43  1  0
 22 44  1  0
 24 45  1  0
 24 46  1  0
M  END
>  <meeko>  (5) 
{"is_sidechain": [false], "free_energy": -7.878, "intermolecular_energy": -9.192, "internal_energy": 0.005}

$$$$
