MODEL 1
REMARK VINA RESULT:    -7.480      0.000      0.000
REMARK INTER + INTRA:         -11.240
REMARK INTER:                 -11.415
REMARK INTRA:                   0.175
REMARK UNBOUND:                 0.175
REMARK SMILES CC(C)c1nnc2ccc(NC(=O)N3CCCc4ccccc4CC3)cn12
REMARK SMILES IDX 14 1 12 2 11 3 13 4 10 6 4 7 5 8 27 9 6 10 26 11 7 12 8 13
REMARK SMILES IDX 9 14 2 15 1 16 3 17 15 18 16 19 25 21 24 22 23 23 22 24
REMARK SMILES IDX 18 25 21 26 19 27 20 28 17 29
REMARK H PARENT 11 5
REMARK Flexibility Score:   60.900
ROOT
ATOM      1  N   UNL     1       5.218  44.453  52.312  1.00  0.00    -0.324 N 
ENDROOT
BRANCH   1   2
ATOM      2  C   UNL     1       3.813  44.150  52.153  1.00  0.00     0.321 C 
ATOM      3  N   UNL     1       3.167  43.186  52.998  1.00  0.00    -0.306 N 
ATOM      4  O   UNL     1       3.151  44.700  51.232  1.00  0.00    -0.248 OA
ATOM      5  H   UNL     1       3.708  42.339  53.283  1.00  0.00     0.171 HD
BRANCH   3   6
ATOM      6  C   UNL     1       1.775  43.258  53.347  1.00  0.00     0.059 A 
ATOM      7  C   UNL     1      -0.774  44.909  55.462  1.00  0.00     0.140 A 
ATOM      8  N   UNL     1      -2.069  44.522  55.390  1.00  0.00    -0.134 NA
ATOM      9  N   UNL     1      -0.018  44.181  54.611  1.00  0.00    -0.284 N 
ATOM     10  N   UNL     1      -2.151  43.546  54.493  1.00  0.00    -0.130 NA
ATOM     11  C   UNL     1       1.309  44.171  54.316  1.00  0.00     0.120 A 
ATOM     12  C   UNL     1      -0.902  43.354  54.034  1.00  0.00     0.160 A 
ATOM     13  C   UNL     1      -0.506  42.416  53.087  1.00  0.00     0.052 A 
ATOM     14  C   UNL     1       0.854  42.370  52.749  1.00  0.00     0.031 A 
BRANCH   7  15
ATOM     15  C   UNL     1      -0.301  45.995  56.399  1.00  0.00     0.052 C 
ATOM     16  C   UNL     1       0.692  45.466  57.439  1.00  0.00     0.016 C 
ATOM     17  C   UNL     1      -1.477  46.731  57.048  1.00  0.00     0.016 C 
ENDBRANCH   7  15
ENDBRANCH   3   6
ENDBRANCH   1   2
BRANCH   1  18
ATOM     18  C   UNL     1       5.708  44.982  53.595  1.00  0.00     0.121 C 
BRANCH  18  19
ATOM     19  C   UNL     1       5.171  46.394  53.888  1.00  0.00     0.026 CG0
ATOM     20  G   UNL     1       5.890  47.507  53.110  1.00  0.00     0.000 G0
ENDBRANCH  18  19
ENDBRANCH   1  18
BRANCH   1  21
ATOM     21  C   UNL     1       6.142  44.371  51.166  1.00  0.00     0.126 C 
BRANCH  21  22
ATOM     22  C   UNL     1       6.590  45.758  50.695  1.00  0.00     0.057 C 
BRANCH  22  23
ATOM     23  C   UNL     1       7.649  46.325  51.613  1.00  0.00    -0.043 A 
ATOM     24  C   UNL     1       8.990  45.968  51.382  1.00  0.00     0.004 A 
ATOM     25  C   UNL     1       7.328  47.108  52.757  1.00  0.00    -0.045 A 
ATOM     26  C   UNL     1      10.000  46.385  52.248  1.00  0.00     0.000 A 
ATOM     27  C   UNL     1       8.361  47.500  53.629  1.00  0.00     0.004 A 
ATOM     28  C   UNL     1       9.685  47.148  53.370  1.00  0.00     0.000 A 
BRANCH  25  29
ATOM     29  C   UNL     1       5.908  47.512  53.101  1.00  0.00     0.037 CG0
ATOM     30  G   UNL     1       5.164  46.426  53.892  1.00  0.00     0.000 G0
ENDBRANCH  25  29
ENDBRANCH  22  23
ENDBRANCH  21  22
ENDBRANCH   1  21
TORSDOF 3
ENDMDL
MODEL 2
REMARK VINA RESULT:    -7.246      1.251      2.764
REMARK INTER + INTRA:         -10.883
REMARK INTER:                 -11.043
REMARK INTRA:                   0.159
REMARK UNBOUND:                 0.175
REMARK SMILES CC(C)c1nnc2ccc(NC(=O)N3CCCc4ccccc4CC3)cn12
REMARK SMILES IDX 14 1 12 2 11 3 13 4 10 6 4 7 5 8 27 9 6 10 26 11 7 12 8 13
REMARK SMILES IDX 9 14 2 15 1 16 3 17 15 18 16 19 25 21 24 22 23 23 22 24
REMARK SMILES IDX 18 25 21 26 19 27 20 28 17 29
REMARK H PARENT 11 5
REMARK Flexibility Score:   60.900
ROOT
ATOM      1  N   UNL     1       5.111  44.468  52.401  1.00  0.00    -0.324 N 
ENDROOT
BRANCH   1   2
ATOM      2  C   UNL     1       3.680  44.321  52.259  1.00  0.00     0.321 C 
ATOM      3  N   UNL     1       2.953  43.374  53.056  1.00  0.00    -0.306 N 
ATOM      4  O   UNL     1       3.061  44.996  51.393  1.00  0.00    -0.248 OA
ATOM      5  H   UNL     1       3.409  42.459  53.273  1.00  0.00     0.171 HD
BRANCH   3   6
ATOM      6  C   UNL     1       1.583  43.564  53.444  1.00  0.00     0.059 A 
ATOM      7  C   UNL     1      -1.964  43.003  52.549  1.00  0.00     0.140 A 
ATOM      8  N   UNL     1      -2.948  43.467  53.353  1.00  0.00    -0.134 NA
ATOM      9  N   UNL     1      -0.753  43.315  53.060  1.00  0.00    -0.284 N 
ATOM     10  N   UNL     1      -2.375  44.077  54.384  1.00  0.00    -0.130 NA
ATOM     11  C   UNL     1       0.522  43.091  52.644  1.00  0.00     0.120 A 
ATOM     12  C   UNL     1      -1.049  43.976  54.190  1.00  0.00     0.160 A 
ATOM     13  C   UNL     1      -0.051  44.486  55.013  1.00  0.00     0.052 A 
ATOM     14  C   UNL     1       1.280  44.278  54.625  1.00  0.00     0.031 A 
BRANCH   7  15
ATOM     15  C   UNL     1      -2.247  42.265  51.261  1.00  0.00     0.052 C 
ATOM     16  C   UNL     1      -1.885  43.100  50.028  1.00  0.00     0.016 C 
ATOM     17  C   UNL     1      -3.691  41.756  51.209  1.00  0.00     0.016 C 
ENDBRANCH   7  15
ENDBRANCH   3   6
ENDBRANCH   1   2
BRANCH   1  18
ATOM     18  C   UNL     1       5.689  44.709  53.734  1.00  0.00     0.121 C 
BRANCH  18  19
ATOM     19  C   UNL     1       5.255  46.062  54.324  1.00  0.00     0.026 CG0
ATOM     20  G   UNL     1       5.879  47.276  53.619  1.00  0.00     0.000 G0
ENDBRANCH  18  19
ENDBRANCH   1  18
BRANCH   1  21
ATOM     21  C   UNL     1       5.986  44.519  51.216  1.00  0.00     0.126 C 
BRANCH  21  22
ATOM     22  C   UNL     1       6.416  45.952  50.887  1.00  0.00     0.057 C 
BRANCH  22  23
ATOM     23  C   UNL     1       7.532  46.406  51.801  1.00  0.00    -0.043 A 
ATOM     24  C   UNL     1       8.859  46.151  51.408  1.00  0.00     0.004 A 
ATOM     25  C   UNL     1       7.286  46.974  53.081  1.00  0.00    -0.045 A 
ATOM     26  C   UNL     1       9.925  46.463  52.250  1.00  0.00     0.000 A 
ATOM     27  C   UNL     1       8.376  47.261  53.923  1.00  0.00     0.004 A 
ATOM     28  C   UNL     1       9.684  47.016  53.506  1.00  0.00     0.000 A 
BRANCH  25  29
ATOM     29  C   UNL     1       5.888  47.253  53.599  1.00  0.00     0.037 CG0
ATOM     30  G   UNL     1       5.283  46.048  54.335  1.00  0.00     0.000 G0
ENDBRANCH  25  29
ENDBRANCH  22  23
ENDBRANCH  21  22
ENDBRANCH   1  21
TORSDOF 3
ENDMDL
MODEL 3
REMARK VINA RESULT:    -7.193      1.706      2.175
REMARK INTER + INTRA:         -10.802
REMARK INTER:                 -10.898
REMARK INTRA:                   0.096
REMARK UNBOUND:                 0.175
REMARK SMILES CC(C)c1nnc2ccc(NC(=O)N3CCCc4ccccc4CC3)cn12
REMARK SMILES IDX 14 1 12 2 11 3 13 4 10 6 4 7 5 8 27 9 6 10 26 11 7 12 8 13
REMARK SMILES IDX 9 14 2 15 1 16 3 17 15 18 16 19 25 21 24 22 23 23 22 24
REMARK SMILES IDX 18 25 21 26 19 27 20 28 17 29
REMARK H PARENT 11 5
REMARK Flexibility Score:   60.900
ROOT
ATOM      1  N   UNL     1       3.858  46.519  52.648  1.00  0.00    -0.324 N 
ENDROOT
BRANCH   1   2
ATOM      2  C   UNL     1       2.531  46.041  52.962  1.00  0.00     0.321 C 
ATOM      3  N   UNL     1       2.327  45.038  53.969  1.00  0.00    -0.306 N 
ATOM      4  O   UNL     1       1.538  46.469  52.314  1.00  0.00    -0.248 OA
ATOM      5  H   UNL     1       3.037  44.276  54.057  1.00  0.00     0.171 HD
BRANCH   3   6
ATOM      6  C   UNL     1       1.131  44.953  54.759  1.00  0.00     0.059 A 
ATOM      7  C   UNL     1      -0.785  46.379  57.586  1.00  0.00     0.140 A 
ATOM      8  N   UNL     1      -1.967  45.829  57.951  1.00  0.00    -0.134 NA
ATOM      9  N   UNL     1      -0.258  45.708  56.539  1.00  0.00    -0.284 N 
ATOM     10  N   UNL     1      -2.204  44.804  57.140  1.00  0.00    -0.130 NA
ATOM     11  C   UNL     1       0.888  45.850  55.821  1.00  0.00     0.120 A 
ATOM     12  C   UNL     1      -1.161  44.746  56.294  1.00  0.00     0.160 A 
ATOM     13  C   UNL     1      -0.973  43.817  55.277  1.00  0.00     0.052 A 
ATOM     14  C   UNL     1       0.195  43.925  54.508  1.00  0.00     0.031 A 
BRANCH   7  15
ATOM     15  C   UNL     1      -0.185  47.564  58.305  1.00  0.00     0.052 C 
ATOM     16  C   UNL     1       0.970  47.154  59.226  1.00  0.00     0.016 C 
ATOM     17  C   UNL     1      -1.252  48.374  59.046  1.00  0.00     0.016 C 
ENDBRANCH   7  15
ENDBRANCH   3   6
ENDBRANCH   1   2
BRANCH   1  18
ATOM     18  C   UNL     1       4.477  47.556  53.491  1.00  0.00     0.121 C 
BRANCH  18  19
ATOM     19  C   UNL     1       5.013  46.987  54.817  1.00  0.00     0.026 CG0
ATOM     20  G   UNL     1       6.168  45.990  54.644  1.00  0.00     0.000 G0
ENDBRANCH  18  19
ENDBRANCH   1  18
BRANCH   1  21
ATOM     21  C   UNL     1       4.545  46.087  51.418  1.00  0.00     0.126 C 
BRANCH  21  22
ATOM     22  C   UNL     1       5.768  45.216  51.724  1.00  0.00     0.057 C 
BRANCH  22  23
ATOM     23  C   UNL     1       6.935  46.062  52.181  1.00  0.00    -0.043 A 
ATOM     24  C   UNL     1       7.891  46.449  51.224  1.00  0.00     0.004 A 
ATOM     25  C   UNL     1       7.155  46.383  53.549  1.00  0.00    -0.045 A 
ATOM     26  C   UNL     1       9.034  47.151  51.600  1.00  0.00     0.000 A 
ATOM     27  C   UNL     1       8.327  47.074  53.909  1.00  0.00     0.004 A 
ATOM     28  C   UNL     1       9.252  47.462  52.941  1.00  0.00     0.000 A 
BRANCH  25  29
ATOM     29  C   UNL     1       6.195  45.979  54.651  1.00  0.00     0.037 CG0
ATOM     30  G   UNL     1       5.032  46.971  54.807  1.00  0.00     0.000 G0
ENDBRANCH  25  29
ENDBRANCH  22  23
ENDBRANCH  21  22
ENDBRANCH   1  21
TORSDOF 3
ENDMDL
MODEL 4
REMARK VINA RESULT:    -7.120      1.220      1.952
REMARK INTER + INTRA:         -10.691
REMARK INTER:                 -10.841
REMARK INTRA:                   0.150
REMARK UNBOUND:                 0.175
REMARK SMILES CC(C)c1nnc2ccc(NC(=O)N3CCCc4ccccc4CC3)cn12
REMARK SMILES IDX 14 1 12 2 11 3 13 4 10 6 4 7 5 8 27 9 6 10 26 11 7 12 8 13
REMARK SMILES IDX 9 14 2 15 1 16 3 17 15 18 16 19 25 21 24 22 23 23 22 24
REMARK SMILES IDX 18 25 21 26 19 27 20 28 17 29
REMARK H PARENT 11 5
REMARK Flexibility Score:   60.900
ROOT
ATOM      1  N   UNL     1       4.451  45.301  51.953  1.00  0.00    -0.324 N 
ENDROOT
BRANCH   1   2
ATOM      2  C   UNL     1       3.064  44.908  52.059  1.00  0.00     0.321 C 
ATOM      3  N   UNL     1       2.660  43.864  52.958  1.00  0.00    -0.306 N 
ATOM      4  O   UNL     1       2.197  45.451  51.323  1.00  0.00    -0.248 OA
ATOM      5  H   UNL     1       3.297  43.044  53.080  1.00  0.00     0.171 HD
BRANCH   3   6
ATOM      6  C   UNL     1       1.366  43.822  53.580  1.00  0.00     0.059 A 
ATOM      7  C   UNL     1      -0.856  45.315  56.136  1.00  0.00     0.140 A 
ATOM      8  N   UNL     1      -2.095  44.810  56.336  1.00  0.00    -0.134 NA
ATOM      9  N   UNL     1      -0.219  44.626  55.164  1.00  0.00    -0.284 N 
ATOM     10  N   UNL     1      -2.260  43.797  55.494  1.00  0.00    -0.130 NA
ATOM     11  C   UNL     1       1.017  44.726  54.606  1.00  0.00     0.120 A 
ATOM     12  C   UNL     1      -1.116  43.701  54.795  1.00  0.00     0.160 A 
ATOM     13  C   UNL     1      -0.829  42.767  53.805  1.00  0.00     0.052 A 
ATOM     14  C   UNL     1       0.434  42.831  53.199  1.00  0.00     0.031 A 
BRANCH   7  15
ATOM     15  C   UNL     1      -0.312  46.475  56.937  1.00  0.00     0.052 C 
ATOM     16  C   UNL     1       0.897  46.071  57.788  1.00  0.00     0.016 C 
ATOM     17  C   UNL     1      -1.407  47.145  57.773  1.00  0.00     0.016 C 
ENDBRANCH   7  15
ENDBRANCH   3   6
ENDBRANCH   1   2
BRANCH   1  18
ATOM     18  C   UNL     1       5.101  45.324  50.632  1.00  0.00     0.121 C 
BRANCH  18  19
ATOM     19  C   UNL     1       6.607  45.017  50.716  1.00  0.00     0.026 CG0
ATOM     20  G   UNL     1       7.498  46.268  50.691  1.00  0.00     0.000 G0
ENDBRANCH  18  19
ENDBRANCH   1  18
BRANCH   1  21
ATOM     21  C   UNL     1       5.261  45.544  53.159  1.00  0.00     0.126 C 
BRANCH  21  22
ATOM     22  C   UNL     1       5.882  46.944  53.156  1.00  0.00     0.057 C 
BRANCH  22  23
ATOM     23  C   UNL     1       7.392  46.867  53.173  1.00  0.00    -0.043 A 
ATOM     24  C   UNL     1       8.061  47.188  54.370  1.00  0.00     0.004 A 
ATOM     25  C   UNL     1       8.156  46.594  52.006  1.00  0.00    -0.045 A 
ATOM     26  C   UNL     1       9.453  47.224  54.422  1.00  0.00     0.000 A 
ATOM     27  C   UNL     1       9.560  46.656  52.076  1.00  0.00     0.004 A 
ATOM     28  C   UNL     1      10.201  46.959  53.277  1.00  0.00     0.000 A 
BRANCH  25  29
ATOM     29  C   UNL     1       7.520  46.271  50.668  1.00  0.00     0.037 CG0
ATOM     30  G   UNL     1       6.621  45.027  50.731  1.00  0.00     0.000 G0
ENDBRANCH  25  29
ENDBRANCH  22  23
ENDBRANCH  21  22
ENDBRANCH   1  21
TORSDOF 3
ENDMDL
MODEL 5
REMARK VINA RESULT:    -6.798      1.640      2.973
REMARK INTER + INTRA:         -10.199
REMARK INTER:                 -10.739
REMARK INTRA:                   0.540
REMARK UNBOUND:                 0.175
REMARK SMILES CC(C)c1nnc2ccc(NC(=O)N3CCCc4ccccc4CC3)cn12
REMARK SMILES IDX 14 1 12 2 11 3 13 4 10 6 4 7 5 8 27 9 6 10 26 11 7 12 8 13
REMARK SMILES IDX 9 14 2 15 1 16 3 17 15 18 16 19 25 21 24 22 23 23 22 24
REMARK SMILES IDX 18 25 21 26 19 27 20 28 17 29
REMARK H PARENT 11 5
REMARK Flexibility Score:   60.900
ROOT
ATOM      1  N   UNL     1       4.315  45.933  52.290  1.00  0.00    -0.324 N 
ENDROOT
BRANCH   1   2
ATOM      2  C   UNL     1       2.948  45.626  52.647  1.00  0.00     0.321 C 
ATOM      3  N   UNL     1       2.651  44.675  53.680  1.00  0.00    -0.306 N 
ATOM      4  O   UNL     1       1.998  46.160  52.014  1.00  0.00    -0.248 OA
ATOM      5  H   UNL     1       3.264  43.833  53.767  1.00  0.00     0.171 HD
BRANCH   3   6
ATOM      6  C   UNL     1       1.475  44.752  54.501  1.00  0.00     0.059 A 
ATOM      7  C   UNL     1      -2.225  44.659  54.574  1.00  0.00     0.140 A 
ATOM      8  N   UNL     1      -2.885  44.828  55.743  1.00  0.00    -0.134 NA
ATOM      9  N   UNL     1      -0.890  44.728  54.773  1.00  0.00    -0.284 N 
ATOM     10  N   UNL     1      -1.978  45.005  56.698  1.00  0.00    -0.130 NA
ATOM     11  C   UNL     1       0.183  44.634  53.944  1.00  0.00     0.120 A 
ATOM     12  C   UNL     1      -0.780  44.943  56.093  1.00  0.00     0.160 A 
ATOM     13  C   UNL     1       0.462  45.089  56.702  1.00  0.00     0.052 A 
ATOM     14  C   UNL     1       1.599  44.998  55.886  1.00  0.00     0.031 A 
BRANCH   7  15
ATOM     15  C   UNL     1      -2.941  44.447  53.260  1.00  0.00     0.052 C 
ATOM     16  C   UNL     1      -2.536  43.129  52.591  1.00  0.00     0.016 C 
ATOM     17  C   UNL     1      -2.766  45.646  52.324  1.00  0.00     0.016 C 
ENDBRANCH   7  15
ENDBRANCH   3   6
ENDBRANCH   1   2
BRANCH   1  18
ATOM     18  C   UNL     1       4.802  45.619  50.936  1.00  0.00     0.121 C 
BRANCH  18  19
ATOM     19  C   UNL     1       6.166  44.907  50.956  1.00  0.00     0.026 CG0
ATOM     20  G   UNL     1       7.340  45.798  50.525  1.00  0.00     0.000 G0
ENDBRANCH  18  19
ENDBRANCH   1  18
BRANCH   1  21
ATOM     21  C   UNL     1       5.266  46.426  53.302  1.00  0.00     0.126 C 
BRANCH  21  22
ATOM     22  C   UNL     1       6.171  47.530  52.744  1.00  0.00     0.057 C 
BRANCH  22  23
ATOM     23  C   UNL     1       7.617  47.089  52.731  1.00  0.00    -0.043 A 
ATOM     24  C   UNL     1       8.463  47.555  53.756  1.00  0.00     0.004 A 
ATOM     25  C   UNL     1       8.172  46.322  51.671  1.00  0.00    -0.045 A 
ATOM     26  C   UNL     1       9.824  47.258  53.747  1.00  0.00     0.000 A 
ATOM     27  C   UNL     1       9.553  46.052  51.672  1.00  0.00     0.004 A 
ATOM     28  C   UNL     1      10.369  46.509  52.707  1.00  0.00     0.000 A 
BRANCH  25  29
ATOM     29  C   UNL     1       7.343  45.806  50.511  1.00  0.00     0.037 CG0
ATOM     30  G   UNL     1       6.179  44.916  50.972  1.00  0.00     0.000 G0
ENDBRANCH  25  29
ENDBRANCH  22  23
ENDBRANCH  21  22
ENDBRANCH   1  21
TORSDOF 3
ENDMDL
