MODEL 1
REMARK VINA RESULT:    -9.131      0.000      0.000
REMARK INTER + INTRA:         -11.576
REMARK INTER:                 -10.733
REMARK INTRA:                  -0.843
REMARK UNBOUND:                -0.843
REMARK SMILES O=C(N[C@@H]1CC[C@@H]2CC[C@@H]21)c1c[nH]nc1-c1cccc(F)c1
REMARK SMILES IDX 11 1 12 2 13 3 14 4 15 5 2 7 1 8 3 9 4 11 5 12 10 13 6 14
REMARK SMILES IDX 9 15 7 16 8 17 16 18 17 19 22 20 18 21 20 22 19 23 21 24
REMARK H PARENT 13 6 3 10
ROOT
ATOM      1  C   UNL     1       3.858  45.478  53.019  1.00  0.00     0.085 A 
ATOM      2  C   UNL     1       2.754  46.283  53.228  1.00  0.00     0.119 A 
ATOM      3  N   UNL     1       1.858  46.037  52.257  1.00  0.00    -0.284 N 
ATOM      4  N   UNL     1       2.326  45.113  51.435  1.00  0.00    -0.175 NA
ATOM      5  C   UNL     1       3.546  44.747  51.876  1.00  0.00     0.105 A 
ATOM      6  H   UNL     1       0.932  46.507  52.146  1.00  0.00     0.189 HD
ENDROOT
BRANCH   1   7
ATOM      7  C   UNL     1       5.126  45.519  53.774  1.00  0.00     0.255 C 
ATOM      8  O   UNL     1       5.255  44.812  54.810  1.00  0.00    -0.269 OA
ATOM      9  N   UNL     1       6.219  46.334  53.321  1.00  0.00    -0.349 N 
ATOM     10  H   UNL     1       6.120  46.836  52.412  1.00  0.00     0.164 HD
BRANCH   9  11
ATOM     11  C   UNL     1       7.494  46.395  54.047  1.00  0.00     0.085 C 
ATOM     12  C   UNL     1       7.936  47.829  54.332  1.00  0.00     0.025 C 
ATOM     13  C   UNL     1       8.659  45.756  53.274  1.00  0.00     0.015 C 
ATOM     14  C   UNL     1       9.449  47.745  54.487  1.00  0.00     0.006 C 
ATOM     15  C   UNL     1       8.823  46.149  51.799  1.00  0.00     0.006 C 
ATOM     16  C   UNL     1       9.903  46.568  53.617  1.00  0.00    -0.006 C 
ATOM     17  C   UNL     1      10.091  46.918  52.141  1.00  0.00     0.004 C 
ENDBRANCH   9  11
ENDBRANCH   1   7
BRANCH   5  18
ATOM     18  C   UNL     1       4.350  43.692  51.225  1.00  0.00     0.006 A 
ATOM     19  C   UNL     1       3.916  42.355  51.213  1.00  0.00     0.010 A 
ATOM     20  C   UNL     1       5.534  44.035  50.550  1.00  0.00     0.049 A 
ATOM     21  C   UNL     1       4.675  41.372  50.569  1.00  0.00     0.004 A 
ATOM     22  C   UNL     1       6.291  43.049  49.907  1.00  0.00     0.123 A 
ATOM     23  C   UNL     1       5.864  41.719  49.921  1.00  0.00     0.039 A 
ATOM     24  F   UNL     1       7.439  43.386  49.270  1.00  0.00    -0.207 F 
ENDBRANCH   5  18
TORSDOF 3
ENDMDL
MODEL 2
REMARK VINA RESULT:    -9.073      2.335      5.373
REMARK INTER + INTRA:         -11.508
REMARK INTER:                 -10.860
REMARK INTRA:                  -0.648
REMARK UNBOUND:                -0.843
REMARK SMILES O=C(N[C@@H]1CC[C@@H]2CC[C@@H]21)c1c[nH]nc1-c1cccc(F)c1
REMARK SMILES IDX 11 1 12 2 13 3 14 4 15 5 2 7 1 8 3 9 4 11 5 12 10 13 6 14
REMARK SMILES IDX 9 15 7 16 8 17 16 18 17 19 22 20 18 21 20 22 19 23 21 24
REMARK H PARENT 13 6 3 10
ROOT
ATOM      1  C   UNL     1       4.642  46.509  53.035  1.00  0.00     0.085 A 
ATOM      2  C   UNL     1       3.550  46.785  53.836  1.00  0.00     0.119 A 
ATOM      3  N   UNL     1       3.981  47.423  54.938  1.00  0.00    -0.284 N 
ATOM      4  N   UNL     1       5.294  47.575  54.887  1.00  0.00    -0.175 NA
ATOM      5  C   UNL     1       5.728  47.030  53.733  1.00  0.00     0.105 A 
ATOM      6  H   UNL     1       3.383  47.746  55.731  1.00  0.00     0.189 HD
ENDROOT
BRANCH   1   7
ATOM      7  C   UNL     1       4.637  45.708  51.795  1.00  0.00     0.255 C 
ATOM      8  O   UNL     1       4.212  46.222  50.725  1.00  0.00    -0.269 OA
ATOM      9  N   UNL     1       5.136  44.361  51.795  1.00  0.00    -0.349 N 
ATOM     10  H   UNL     1       5.566  43.991  52.670  1.00  0.00     0.164 HD
BRANCH   9  11
ATOM     11  C   UNL     1       5.148  43.538  50.579  1.00  0.00     0.085 C 
ATOM     12  C   UNL     1       5.524  42.085  50.860  1.00  0.00     0.025 C 
ATOM     13  C   UNL     1       6.160  44.025  49.530  1.00  0.00     0.015 C 
ATOM     14  C   UNL     1       6.083  41.566  49.542  1.00  0.00     0.006 C 
ATOM     15  C   UNL     1       7.581  44.339  50.019  1.00  0.00     0.006 C 
ATOM     16  C   UNL     1       6.689  42.779  48.828  1.00  0.00    -0.006 C 
ATOM     17  C   UNL     1       8.110  43.122  49.276  1.00  0.00     0.004 C 
ENDBRANCH   9  11
ENDBRANCH   1   7
BRANCH   5  18
ATOM     18  C   UNL     1       7.145  47.061  53.317  1.00  0.00     0.006 A 
ATOM     19  C   UNL     1       7.501  47.288  51.976  1.00  0.00     0.010 A 
ATOM     20  C   UNL     1       8.158  46.925  54.281  1.00  0.00     0.049 A 
ATOM     21  C   UNL     1       8.848  47.340  51.602  1.00  0.00     0.004 A 
ATOM     22  C   UNL     1       9.504  46.978  53.904  1.00  0.00     0.123 A 
ATOM     23  C   UNL     1       9.849  47.181  52.565  1.00  0.00     0.039 A 
ATOM     24  F   UNL     1      10.476  46.833  54.839  1.00  0.00    -0.207 F 
ENDBRANCH   5  18
TORSDOF 3
ENDMDL
MODEL 3
REMARK VINA RESULT:    -8.947      2.015      2.624
REMARK INTER + INTRA:         -11.359
REMARK INTER:                 -11.005
REMARK INTRA:                  -0.354
REMARK UNBOUND:                -0.843
REMARK SMILES O=C(N[C@@H]1CC[C@@H]2CC[C@@H]21)c1c[nH]nc1-c1cccc(F)c1
REMARK SMILES IDX 11 1 12 2 13 3 14 4 15 5 2 7 1 8 3 9 4 11 5 12 10 13 6 14
REMARK SMILES IDX 9 15 7 16 8 17 16 18 17 19 22 20 18 21 20 22 19 23 21 24
REMARK H PARENT 13 6 3 10
ROOT
ATOM      1  C   UNL     1       3.630  44.522  52.629  1.00  0.00     0.085 A 
ATOM      2  C   UNL     1       2.753  44.655  53.689  1.00  0.00     0.119 A 
ATOM      3  N   UNL     1       2.035  43.524  53.793  1.00  0.00    -0.284 N 
ATOM      4  N   UNL     1       2.407  42.667  52.856  1.00  0.00    -0.175 NA
ATOM      5  C   UNL     1       3.384  43.246  52.131  1.00  0.00     0.105 A 
ATOM      6  H   UNL     1       1.284  43.338  54.494  1.00  0.00     0.189 HD
ENDROOT
BRANCH   1   7
ATOM      7  C   UNL     1       4.511  45.574  52.085  1.00  0.00     0.255 C 
ATOM      8  O   UNL     1       4.048  46.405  51.256  1.00  0.00    -0.269 OA
ATOM      9  N   UNL     1       5.878  45.674  52.513  1.00  0.00    -0.349 N 
ATOM     10  H   UNL     1       6.210  45.034  53.267  1.00  0.00     0.164 HD
BRANCH   9  11
ATOM     11  C   UNL     1       6.781  46.709  51.994  1.00  0.00     0.085 C 
ATOM     12  C   UNL     1       7.995  46.122  51.277  1.00  0.00     0.025 C 
ATOM     13  C   UNL     1       7.356  47.616  53.095  1.00  0.00     0.015 C 
ATOM     14  C   UNL     1       9.062  47.205  51.370  1.00  0.00     0.006 C 
ATOM     15  C   UNL     1       7.935  46.927  54.339  1.00  0.00     0.006 C 
ATOM     16  C   UNL     1       8.768  47.985  52.656  1.00  0.00    -0.006 C 
ATOM     17  C   UNL     1       9.337  47.341  53.921  1.00  0.00     0.004 C 
ENDBRANCH   9  11
ENDBRANCH   1   7
BRANCH   5  18
ATOM     18  C   UNL     1       4.075  42.554  51.022  1.00  0.00     0.006 A 
ATOM     19  C   UNL     1       5.403  42.870  50.688  1.00  0.00     0.010 A 
ATOM     20  C   UNL     1       3.420  41.521  50.330  1.00  0.00     0.049 A 
ATOM     21  C   UNL     1       6.051  42.189  49.653  1.00  0.00     0.004 A 
ATOM     22  C   UNL     1       4.072  40.842  49.295  1.00  0.00     0.123 A 
ATOM     23  C   UNL     1       5.385  41.178  48.954  1.00  0.00     0.039 A 
ATOM     24  F   UNL     1       3.429  39.855  48.623  1.00  0.00    -0.207 F 
ENDBRANCH   5  18
TORSDOF 3
ENDMDL
MODEL 4
REMARK VINA RESULT:    -8.847      2.598      4.230
REMARK INTER + INTRA:         -11.242
REMARK INTER:                 -10.723
REMARK INTRA:                  -0.519
REMARK UNBOUND:                -0.843
REMARK SMILES O=C(N[C@@H]1CC[C@@H]2CC[C@@H]21)c1c[nH]nc1-c1cccc(F)c1
REMARK SMILES IDX 11 1 12 2 13 3 14 4 15 5 2 7 1 8 3 9 4 11 5 12 10 13 6 14
REMARK SMILES IDX 9 15 7 16 8 17 16 18 17 19 22 20 18 21 20 22 19 23 21 24
REMARK H PARENT 13 6 3 10
ROOT
ATOM      1  C   UNL     1       5.737  43.175  50.356  1.00  0.00     0.085 A 
ATOM      2  C   UNL     1       5.772  41.921  49.778  1.00  0.00     0.119 A 
ATOM      3  N   UNL     1       4.657  41.258  50.129  1.00  0.00    -0.284 N 
ATOM      4  N   UNL     1       3.904  42.022  50.903  1.00  0.00    -0.175 NA
ATOM      5  C   UNL     1       4.534  43.203  51.057  1.00  0.00     0.105 A 
ATOM      6  H   UNL     1       4.413  40.281  49.853  1.00  0.00     0.189 HD
ENDROOT
BRANCH   1   7
ATOM      7  C   UNL     1       6.819  44.179  50.335  1.00  0.00     0.255 C 
ATOM      8  O   UNL     1       7.664  44.163  49.399  1.00  0.00    -0.269 OA
ATOM      9  N   UNL     1       6.899  45.187  51.355  1.00  0.00    -0.349 N 
ATOM     10  H   UNL     1       6.137  45.236  52.065  1.00  0.00     0.164 HD
BRANCH   9  11
ATOM     11  C   UNL     1       7.961  46.201  51.363  1.00  0.00     0.085 C 
ATOM     12  C   UNL     1       9.323  45.620  51.732  1.00  0.00     0.025 C 
ATOM     13  C   UNL     1       7.710  47.330  52.377  1.00  0.00     0.015 C 
ATOM     14  C   UNL     1      10.111  46.799  52.289  1.00  0.00     0.006 C 
ATOM     15  C   UNL     1       7.306  46.917  53.800  1.00  0.00     0.006 C 
ATOM     16  C   UNL     1       9.078  47.752  52.900  1.00  0.00    -0.006 C 
ATOM     17  C   UNL     1       8.656  47.385  54.323  1.00  0.00     0.004 C 
ENDBRANCH   9  11
ENDBRANCH   1   7
BRANCH   5  18
ATOM     18  C   UNL     1       3.956  44.325  51.825  1.00  0.00     0.006 A 
ATOM     19  C   UNL     1       3.322  45.398  51.174  1.00  0.00     0.010 A 
ATOM     20  C   UNL     1       3.981  44.294  53.230  1.00  0.00     0.049 A 
ATOM     21  C   UNL     1       2.757  46.439  51.917  1.00  0.00     0.004 A 
ATOM     22  C   UNL     1       3.415  45.338  53.970  1.00  0.00     0.123 A 
ATOM     23  C   UNL     1       2.807  46.411  53.314  1.00  0.00     0.039 A 
ATOM     24  F   UNL     1       3.455  45.306  55.325  1.00  0.00    -0.207 F 
ENDBRANCH   5  18
TORSDOF 3
ENDMDL
MODEL 5
REMARK VINA RESULT:    -8.537      2.130      2.835
REMARK INTER + INTRA:         -10.878
REMARK INTER:                 -10.162
REMARK INTRA:                  -0.716
REMARK UNBOUND:                -0.843
REMARK SMILES O=C(N[C@@H]1CC[C@@H]2CC[C@@H]21)c1c[nH]nc1-c1cccc(F)c1
REMARK SMILES IDX 11 1 12 2 13 3 14 4 15 5 2 7 1 8 3 9 4 11 5 12 10 13 6 14
REMARK SMILES IDX 9 15 7 16 8 17 16 18 17 19 22 20 18 21 20 22 19 23 21 24
REMARK H PARENT 13 6 3 10
ROOT
ATOM      1  C   UNL     1       3.578  45.820  54.313  1.00  0.00     0.085 A 
ATOM      2  C   UNL     1       3.300  46.223  55.605  1.00  0.00     0.119 A 
ATOM      3  N   UNL     1       2.346  45.421  56.106  1.00  0.00    -0.284 N 
ATOM      4  N   UNL     1       1.996  44.519  55.204  1.00  0.00    -0.175 NA
ATOM      5  C   UNL     1       2.735  44.733  54.097  1.00  0.00     0.105 A 
ATOM      6  H   UNL     1       1.923  45.493  57.058  1.00  0.00     0.189 HD
ENDROOT
BRANCH   1   7
ATOM      7  C   UNL     1       4.469  46.504  53.354  1.00  0.00     0.255 C 
ATOM      8  O   UNL     1       4.008  47.424  52.625  1.00  0.00    -0.269 OA
ATOM      9  N   UNL     1       5.858  46.149  53.269  1.00  0.00    -0.349 N 
ATOM     10  H   UNL     1       6.235  45.451  53.946  1.00  0.00     0.164 HD
BRANCH   9  11
ATOM     11  C   UNL     1       6.772  46.811  52.329  1.00  0.00     0.085 C 
ATOM     12  C   UNL     1       7.516  45.818  51.438  1.00  0.00     0.025 C 
ATOM     13  C   UNL     1       7.869  47.630  53.030  1.00  0.00     0.015 C 
ATOM     14  C   UNL     1       8.786  46.547  51.020  1.00  0.00     0.006 C 
ATOM     15  C   UNL     1       8.627  46.950  54.179  1.00  0.00     0.006 C 
ATOM     16  C   UNL     1       9.114  47.520  52.157  1.00  0.00    -0.006 C 
ATOM     17  C   UNL     1       9.881  46.888  53.320  1.00  0.00     0.004 C 
ENDBRANCH   9  11
ENDBRANCH   1   7
BRANCH   5  18
ATOM     18  C   UNL     1       2.645  43.877  52.896  1.00  0.00     0.006 A 
ATOM     19  C   UNL     1       1.520  43.927  52.055  1.00  0.00     0.010 A 
ATOM     20  C   UNL     1       3.724  43.047  52.548  1.00  0.00     0.049 A 
ATOM     21  C   UNL     1       1.461  43.130  50.907  1.00  0.00     0.004 A 
ATOM     22  C   UNL     1       3.662  42.251  51.400  1.00  0.00     0.123 A 
ATOM     23  C   UNL     1       2.529  42.289  50.582  1.00  0.00     0.039 A 
ATOM     24  F   UNL     1       4.702  41.442  51.079  1.00  0.00    -0.207 F 
ENDBRANCH   5  18
TORSDOF 3
ENDMDL
