MODEL 1
REMARK VINA RESULT:    -8.821      0.000      0.000
REMARK INTER + INTRA:         -12.125
REMARK INTER:                 -11.399
REMARK INTRA:                  -0.726
REMARK UNBOUND:                -0.726
REMARK SMILES O=C(c1ccc(-n2cnc3ccccc32)cc1)N1CCC[C@](O)(CO)C1
REMARK SMILES IDX 18 1 19 2 20 3 21 4 22 5 26 6 2 7 1 8 3 9 4 10 17 11 5 12
REMARK SMILES IDX 16 13 6 14 7 15 8 16 15 17 9 18 14 19 10 20 13 21 11 22
REMARK SMILES IDX 12 23 23 24 24 26 25 27
REMARK H PARENT 23 25 25 28
ROOT
ATOM      1  N   UNL     1       0.590  44.600  53.840  1.00  0.00    -0.336 N 
ATOM      2  C   UNL     1      -0.217  43.422  54.182  1.00  0.00     0.120 C 
ATOM      3  C   UNL     1      -1.321  43.796  55.174  1.00  0.00     0.025 C 
ATOM      4  C   UNL     1      -0.776  44.483  56.444  1.00  0.00     0.041 C 
ATOM      5  C   UNL     1       0.594  45.195  56.254  1.00  0.00     0.105 C 
ATOM      6  C   UNL     1       0.731  45.707  54.799  1.00  0.00     0.157 C 
ENDROOT
BRANCH   1   7
ATOM      7  C   UNL     1       1.106  44.745  52.507  1.00  0.00     0.253 C 
ATOM      8  O   UNL     1       0.315  44.666  51.528  1.00  0.00    -0.269 OA
BRANCH   7   9
ATOM      9  C   UNL     1       2.549  44.974  52.264  1.00  0.00     0.040 A 
ATOM     10  C   UNL     1       2.968  45.890  51.285  1.00  0.00     0.016 A 
ATOM     11  C   UNL     1       3.518  44.254  52.982  1.00  0.00     0.016 A 
ATOM     12  C   UNL     1       4.329  46.102  51.049  1.00  0.00     0.027 A 
ATOM     13  C   UNL     1       4.878  44.465  52.746  1.00  0.00     0.027 A 
ATOM     14  C   UNL     1       5.295  45.403  51.789  1.00  0.00     0.047 A 
BRANCH  14  15
ATOM     15  N   UNL     1       6.694  45.614  51.530  1.00  0.00    -0.299 N 
ATOM     16  C   UNL     1       7.364  45.292  50.395  1.00  0.00     0.205 A 
ATOM     17  C   UNL     1       7.632  46.156  52.329  1.00  0.00     0.073 A 
ATOM     18  N   UNL     1       8.687  45.598  50.446  1.00  0.00    -0.236 NA
ATOM     19  C   UNL     1       7.499  46.729  53.597  1.00  0.00     0.029 A 
ATOM     20  C   UNL     1       8.827  46.140  51.669  1.00  0.00     0.089 A 
ATOM     21  C   UNL     1       8.655  47.260  54.198  1.00  0.00     0.002 A 
ATOM     22  C   UNL     1       9.989  46.660  52.236  1.00  0.00     0.030 A 
ATOM     23  C   UNL     1       9.896  47.222  53.523  1.00  0.00     0.002 A 
ENDBRANCH  14  15
ENDBRANCH   7   9
ENDBRANCH   1   7
BRANCH   5  24
ATOM     24  O   UNL     1       1.617  44.261  56.517  1.00  0.00    -0.386 OA
ATOM     25  H   UNL     1       2.183  44.188  55.705  1.00  0.00     0.211 HD
ENDBRANCH   5  24
BRANCH   5  26
ATOM     26  C   UNL     1       0.714  46.386  57.239  1.00  0.00     0.193 C 
BRANCH  26  27
ATOM     27  O   UNL     1       1.961  46.380  57.884  1.00  0.00    -0.393 OA
ATOM     28  H   UNL     1       2.137  47.313  58.173  1.00  0.00     0.210 HD
ENDBRANCH  26  27
ENDBRANCH   5  26
TORSDOF 6
ENDMDL
MODEL 2
REMARK VINA RESULT:    -8.639      2.812      7.833
REMARK INTER + INTRA:         -11.889
REMARK INTER:                 -11.206
REMARK INTRA:                  -0.683
REMARK UNBOUND:                -0.726
REMARK SMILES O=C(c1ccc(-n2cnc3ccccc32)cc1)N1CCC[C@](O)(CO)C1
REMARK SMILES IDX 18 1 19 2 20 3 21 4 22 5 26 6 2 7 1 8 3 9 4 10 17 11 5 12
REMARK SMILES IDX 16 13 6 14 7 15 8 16 15 17 9 18 14 19 10 20 13 21 11 22
REMARK SMILES IDX 12 23 23 24 24 26 25 27
REMARK H PARENT 23 25 25 28
ROOT
ATOM      1  N   UNL     1       7.786  45.944  51.581  1.00  0.00    -0.336 N 
ATOM      2  C   UNL     1       9.073  46.233  50.935  1.00  0.00     0.120 C 
ATOM      3  C   UNL     1      10.212  46.173  51.957  1.00  0.00     0.025 C 
ATOM      4  C   UNL     1       9.979  47.099  53.168  1.00  0.00     0.041 C 
ATOM      5  C   UNL     1       8.484  47.429  53.449  1.00  0.00     0.105 C 
ATOM      6  C   UNL     1       7.586  46.248  53.007  1.00  0.00     0.157 C 
ENDROOT
BRANCH   1   7
ATOM      7  C   UNL     1       6.779  45.216  50.861  1.00  0.00     0.253 C 
ATOM      8  O   UNL     1       7.072  44.688  49.753  1.00  0.00    -0.269 OA
BRANCH   7   9
ATOM      9  C   UNL     1       5.402  45.082  51.392  1.00  0.00     0.040 A 
ATOM     10  C   UNL     1       4.984  43.880  51.985  1.00  0.00     0.016 A 
ATOM     11  C   UNL     1       4.486  46.141  51.277  1.00  0.00     0.016 A 
ATOM     12  C   UNL     1       3.683  43.749  52.480  1.00  0.00     0.027 A 
ATOM     13  C   UNL     1       3.186  46.010  51.771  1.00  0.00     0.027 A 
ATOM     14  C   UNL     1       2.779  44.818  52.392  1.00  0.00     0.047 A 
BRANCH  14  15
ATOM     15  N   UNL     1       1.437  44.673  52.888  1.00  0.00    -0.299 N 
ATOM     16  C   UNL     1       0.343  44.314  52.169  1.00  0.00     0.205 A 
ATOM     17  C   UNL     1       0.970  44.857  54.136  1.00  0.00     0.073 A 
ATOM     18  N   UNL     1      -0.797  44.274  52.907  1.00  0.00    -0.236 NA
ATOM     19  C   UNL     1       1.663  45.168  55.310  1.00  0.00     0.029 A 
ATOM     20  C   UNL     1      -0.374  44.617  54.138  1.00  0.00     0.089 A 
ATOM     21  C   UNL     1       0.919  45.269  56.500  1.00  0.00     0.002 A 
ATOM     22  C   UNL     1      -1.137  44.706  55.300  1.00  0.00     0.030 A 
ATOM     23  C   UNL     1      -0.475  45.042  56.495  1.00  0.00     0.002 A 
ENDBRANCH  14  15
ENDBRANCH   7   9
ENDBRANCH   1   7
BRANCH   5  24
ATOM     24  O   UNL     1       8.139  48.579  52.709  1.00  0.00    -0.386 OA
ATOM     25  H   UNL     1       8.322  49.374  53.275  1.00  0.00     0.211 HD
ENDBRANCH   5  24
BRANCH   5  26
ATOM     26  C   UNL     1       8.277  47.704  54.960  1.00  0.00     0.193 C 
BRANCH  26  27
ATOM     27  O   UNL     1       9.185  48.668  55.424  1.00  0.00    -0.393 OA
ATOM     28  H   UNL     1       8.645  49.409  55.804  1.00  0.00     0.210 HD
ENDBRANCH  26  27
ENDBRANCH   5  26
TORSDOF 6
ENDMDL
MODEL 3
REMARK VINA RESULT:    -8.579      1.367      2.037
REMARK INTER + INTRA:         -11.813
REMARK INTER:                 -11.080
REMARK INTRA:                  -0.733
REMARK UNBOUND:                -0.726
REMARK SMILES O=C(c1ccc(-n2cnc3ccccc32)cc1)N1CCC[C@](O)(CO)C1
REMARK SMILES IDX 18 1 19 2 20 3 21 4 22 5 26 6 2 7 1 8 3 9 4 10 17 11 5 12
REMARK SMILES IDX 16 13 6 14 7 15 8 16 15 17 9 18 14 19 10 20 13 21 11 22
REMARK SMILES IDX 12 23 23 24 24 26 25 27
REMARK H PARENT 23 25 25 28
ROOT
ATOM      1  N   UNL     1       0.519  44.929  54.012  1.00  0.00    -0.336 N 
ATOM      2  C   UNL     1       1.255  45.691  55.029  1.00  0.00     0.120 C 
ATOM      3  C   UNL     1       1.110  45.031  56.403  1.00  0.00     0.025 C 
ATOM      4  C   UNL     1      -0.362  44.830  56.818  1.00  0.00     0.041 C 
ATOM      5  C   UNL     1      -1.360  44.746  55.628  1.00  0.00     0.105 C 
ATOM      6  C   UNL     1      -0.662  44.136  54.388  1.00  0.00     0.157 C 
ENDROOT
BRANCH   1   7
ATOM      7  C   UNL     1       1.049  44.827  52.681  1.00  0.00     0.253 C 
ATOM      8  O   UNL     1       0.272  44.550  51.727  1.00  0.00    -0.269 OA
BRANCH   7   9
ATOM      9  C   UNL     1       2.492  45.030  52.412  1.00  0.00     0.040 A 
ATOM     10  C   UNL     1       2.947  46.237  51.856  1.00  0.00     0.016 A 
ATOM     11  C   UNL     1       3.419  44.008  52.674  1.00  0.00     0.016 A 
ATOM     12  C   UNL     1       4.307  46.428  51.594  1.00  0.00     0.027 A 
ATOM     13  C   UNL     1       4.778  44.199  52.412  1.00  0.00     0.027 A 
ATOM     14  C   UNL     1       5.235  45.417  51.886  1.00  0.00     0.047 A 
BRANCH  14  15
ATOM     15  N   UNL     1       6.631  45.613  51.600  1.00  0.00    -0.299 N 
ATOM     16  C   UNL     1       7.285  45.242  50.470  1.00  0.00     0.205 A 
ATOM     17  C   UNL     1       7.580  46.186  52.362  1.00  0.00     0.073 A 
ATOM     18  N   UNL     1       8.608  45.546  50.490  1.00  0.00    -0.236 NA
ATOM     19  C   UNL     1       7.466  46.812  53.606  1.00  0.00     0.029 A 
ATOM     20  C   UNL     1       8.766  46.139  51.687  1.00  0.00     0.089 A 
ATOM     21  C   UNL     1       8.631  47.364  54.169  1.00  0.00     0.002 A 
ATOM     22  C   UNL     1       9.937  46.679  52.216  1.00  0.00     0.030 A 
ATOM     23  C   UNL     1       9.862  47.295  53.479  1.00  0.00     0.002 A 
ENDBRANCH  14  15
ENDBRANCH   7   9
ENDBRANCH   1   7
BRANCH   5  24
ATOM     24  O   UNL     1      -1.795  46.052  55.324  1.00  0.00    -0.386 OA
ATOM     25  H   UNL     1      -2.200  46.038  54.417  1.00  0.00     0.211 HD
ENDBRANCH   5  24
BRANCH   5  26
ATOM     26  C   UNL     1      -2.580  43.872  56.021  1.00  0.00     0.193 C 
BRANCH  26  27
ATOM     27  O   UNL     1      -3.258  43.415  54.880  1.00  0.00    -0.393 OA
ATOM     28  H   UNL     1      -4.161  43.132  55.178  1.00  0.00     0.210 HD
ENDBRANCH  26  27
ENDBRANCH   5  26
TORSDOF 6
ENDMDL
MODEL 4
REMARK VINA RESULT:    -8.467      1.871      2.706
REMARK INTER + INTRA:         -11.667
REMARK INTER:                 -10.931
REMARK INTRA:                  -0.736
REMARK UNBOUND:                -0.726
REMARK SMILES O=C(c1ccc(-n2cnc3ccccc32)cc1)N1CCC[C@](O)(CO)C1
REMARK SMILES IDX 18 1 19 2 20 3 21 4 22 5 26 6 2 7 1 8 3 9 4 10 17 11 5 12
REMARK SMILES IDX 16 13 6 14 7 15 8 16 15 17 9 18 14 19 10 20 13 21 11 22
REMARK SMILES IDX 12 23 23 24 24 26 25 27
REMARK H PARENT 23 25 25 28
ROOT
ATOM      1  N   UNL     1      -0.039  44.256  51.964  1.00  0.00    -0.336 N 
ATOM      2  C   UNL     1      -1.208  44.431  51.093  1.00  0.00     0.120 C 
ATOM      3  C   UNL     1      -2.115  45.541  51.629  1.00  0.00     0.025 C 
ATOM      4  C   UNL     1      -2.544  45.309  53.092  1.00  0.00     0.041 C 
ATOM      5  C   UNL     1      -1.571  44.415  53.914  1.00  0.00     0.105 C 
ATOM      6  C   UNL     1      -0.123  44.586  53.396  1.00  0.00     0.157 C 
ENDROOT
BRANCH   1   7
ATOM      7  C   UNL     1       1.233  43.918  51.387  1.00  0.00     0.253 C 
ATOM      8  O   UNL     1       1.277  43.099  50.428  1.00  0.00    -0.269 OA
BRANCH   7   9
ATOM      9  C   UNL     1       2.490  44.507  51.903  1.00  0.00     0.040 A 
ATOM     10  C   UNL     1       2.845  45.825  51.574  1.00  0.00     0.016 A 
ATOM     11  C   UNL     1       3.363  43.745  52.698  1.00  0.00     0.016 A 
ATOM     12  C   UNL     1       4.035  46.380  52.054  1.00  0.00     0.027 A 
ATOM     13  C   UNL     1       4.552  44.299  53.177  1.00  0.00     0.027 A 
ATOM     14  C   UNL     1       4.890  45.627  52.873  1.00  0.00     0.047 A 
BRANCH  14  15
ATOM     15  N   UNL     1       6.120  46.197  53.351  1.00  0.00    -0.299 N 
ATOM     16  C   UNL     1       6.325  46.781  54.559  1.00  0.00     0.205 A 
ATOM     17  C   UNL     1       7.311  46.287  52.731  1.00  0.00     0.073 A 
ATOM     18  N   UNL     1       7.591  47.244  54.725  1.00  0.00    -0.236 NA
ATOM     19  C   UNL     1       7.706  45.791  51.485  1.00  0.00     0.029 A 
ATOM     20  C   UNL     1       8.188  46.920  53.563  1.00  0.00     0.089 A 
ATOM     21  C   UNL     1       9.041  46.000  51.092  1.00  0.00     0.002 A 
ATOM     22  C   UNL     1       9.517  47.140  53.205  1.00  0.00     0.030 A 
ATOM     23  C   UNL     1       9.942  46.675  51.946  1.00  0.00     0.002 A 
ENDBRANCH  14  15
ENDBRANCH   7   9
ENDBRANCH   1   7
BRANCH   5  24
ATOM     24  O   UNL     1      -1.968  43.072  53.756  1.00  0.00    -0.386 OA
ATOM     25  H   UNL     1      -2.886  43.064  53.379  1.00  0.00     0.211 HD
ENDBRANCH   5  24
BRANCH   5  26
ATOM     26  C   UNL     1      -1.637  44.801  55.414  1.00  0.00     0.193 C 
BRANCH  26  27
ATOM     27  O   UNL     1      -0.797  45.892  55.688  1.00  0.00    -0.393 OA
ATOM     28  H   UNL     1      -0.321  45.681  56.533  1.00  0.00     0.210 HD
ENDBRANCH  26  27
ENDBRANCH   5  26
TORSDOF 6
ENDMDL
MODEL 5
REMARK VINA RESULT:    -8.323      2.584      3.702
REMARK INTER + INTRA:         -11.481
REMARK INTER:                 -10.757
REMARK INTRA:                  -0.724
REMARK UNBOUND:                -0.726
REMARK SMILES O=C(c1ccc(-n2cnc3ccccc32)cc1)N1CCC[C@](O)(CO)C1
REMARK SMILES IDX 18 1 19 2 20 3 21 4 22 5 26 6 2 7 1 8 3 9 4 10 17 11 5 12
REMARK SMILES IDX 16 13 6 14 7 15 8 16 15 17 9 18 14 19 10 20 13 21 11 22
REMARK SMILES IDX 12 23 23 24 24 26 25 27
REMARK H PARENT 23 25 25 28
ROOT
ATOM      1  N   UNL     1      -0.053  44.211  51.955  1.00  0.00    -0.336 N 
ATOM      2  C   UNL     1      -0.187  44.335  53.412  1.00  0.00     0.120 C 
ATOM      3  C   UNL     1      -1.541  43.793  53.875  1.00  0.00     0.025 C 
ATOM      4  C   UNL     1      -2.731  44.455  53.150  1.00  0.00     0.041 C 
ATOM      5  C   UNL     1      -2.385  45.045  51.752  1.00  0.00     0.105 C 
ATOM      6  C   UNL     1      -1.247  44.227  51.095  1.00  0.00     0.157 C 
ENDROOT
BRANCH   1   7
ATOM      7  C   UNL     1       1.230  43.908  51.383  1.00  0.00     0.253 C 
ATOM      8  O   UNL     1       1.299  43.106  50.413  1.00  0.00    -0.269 OA
BRANCH   7   9
ATOM      9  C   UNL     1       2.471  44.513  51.920  1.00  0.00     0.040 A 
ATOM     10  C   UNL     1       2.744  45.875  51.713  1.00  0.00     0.016 A 
ATOM     11  C   UNL     1       3.408  43.727  52.612  1.00  0.00     0.016 A 
ATOM     12  C   UNL     1       3.919  46.446  52.213  1.00  0.00     0.027 A 
ATOM     13  C   UNL     1       4.581  44.298  53.110  1.00  0.00     0.027 A 
ATOM     14  C   UNL     1       4.838  45.666  52.929  1.00  0.00     0.047 A 
BRANCH  14  15
ATOM     15  N   UNL     1       6.052  46.256  53.427  1.00  0.00    -0.299 N 
ATOM     16  C   UNL     1       6.224  46.854  54.633  1.00  0.00     0.205 A 
ATOM     17  C   UNL     1       7.254  46.352  52.832  1.00  0.00     0.073 A 
ATOM     18  N   UNL     1       7.482  47.334  54.821  1.00  0.00    -0.236 NA
ATOM     19  C   UNL     1       7.681  45.847  51.600  1.00  0.00     0.029 A 
ATOM     20  C   UNL     1       8.107  47.004  53.676  1.00  0.00     0.089 A 
ATOM     21  C   UNL     1       9.022  46.068  51.234  1.00  0.00     0.002 A 
ATOM     22  C   UNL     1       9.440  47.235  53.343  1.00  0.00     0.030 A 
ATOM     23  C   UNL     1       9.897  46.762  52.099  1.00  0.00     0.002 A 
ENDBRANCH  14  15
ENDBRANCH   7   9
ENDBRANCH   1   7
BRANCH   5  24
ATOM     24  O   UNL     1      -1.961  46.378  51.928  1.00  0.00    -0.386 OA
ATOM     25  H   UNL     1      -0.979  46.371  52.079  1.00  0.00     0.211 HD
ENDBRANCH   5  24
BRANCH   5  26
ATOM     26  C   UNL     1      -3.639  45.017  50.841  1.00  0.00     0.193 C 
BRANCH  26  27
ATOM     27  O   UNL     1      -3.280  45.128  49.489  1.00  0.00    -0.393 OA
ATOM     28  H   UNL     1      -2.383  45.552  49.465  1.00  0.00     0.210 HD
ENDBRANCH  26  27
ENDBRANCH   5  26
TORSDOF 6
ENDMDL
