ligand_9_conformer_2_docked
     RDKit          3D

 53 56  0  0  0  0  0  0  0  0999 V2000
    9.8780   47.1770   52.6540 C   0  0  0  0  0  0  0  0  0  0  0  0
    9.5880   47.1610   54.0200 C   0  0  0  0  0  0  0  0  0  0  0  0
    8.3070   46.8160   54.4610 C   0  0  0  0  0  0  0  0  0  0  0  0
    7.3020   46.4820   53.5340 C   0  0  0  0  0  0  0  0  0  0  0  0
    5.9410   46.1340   53.9950 C   0  0  0  0  0  0  0  0  0  0  0  0
    5.6800   45.4500   55.1270 N   0  0  0  0  0  0  0  0  0  0  0  0
    4.3850   45.3790   55.1850 O   0  0  0  0  0  0  0  0  0  0  0  0
    3.8610   45.9860   54.1490 C   0  0  0  0  0  0  0  0  0  0  0  0
    2.3750   46.1120   53.9140 C   0  0  0  0  0  0  0  0  0  0  0  0
    1.5960   44.8660   54.3770 C   0  0  0  0  0  0  0  0  0  0  0  0
    1.7930   43.6460   53.4470 C   0  0  0  0  0  0  0  0  0  0  0  0
    2.5750   43.9820   52.2330 N   0  0  0  0  0  0  0  0  0  0  0  0
    2.6750   42.8170   51.3210 C   0  0  0  0  0  0  0  0  0  0  0  0
    4.0860   42.1950   51.3950 C   0  0  1  0  0  0  0  0  0  0  0  0
    4.4490   41.4410   50.0900 C   0  0  0  0  0  0  0  0  0  0  0  0
    5.9410   41.4320   49.7030 C   0  0  0  0  0  0  0  0  0  0  0  0
    6.4810   42.7110   49.0390 C   0  0  0  0  0  0  0  0  0  0  0  0
    6.6130   43.9320   49.9750 C   0  0  0  0  0  0  0  0  0  0  0  0
    5.4050   44.2210   50.7730 N   0  0  0  0  0  0  0  0  0  0  0  0
    5.1540   43.2340   51.8340 C   0  0  0  0  0  0  0  0  0  0  0  0
    1.9850   45.1500   51.5510 C   0  0  0  0  0  0  0  0  0  0  0  0
    2.0700   46.4160   52.4320 C   0  0  0  0  0  0  0  0  0  0  0  0
    4.8150   46.4930   53.3430 N   0  0  0  0  0  0  0  0  0  0  0  0
    7.6070   46.4980   52.1610 C   0  0  0  0  0  0  0  0  0  0  0  0
    8.8890   46.8450   51.7250 C   0  0  0  0  0  0  0  0  0  0  0  0
   10.8860   47.4512   52.3093 H   0  0  0  0  0  0  0  0  0  0  0  0
   10.3688   47.4203   54.7502 H   0  0  0  0  0  0  0  0  0  0  0  0
    8.0834   46.8055   55.5380 H   0  0  0  0  0  0  0  0  0  0  0  0
    2.0329   46.9583   54.5277 H   0  0  0  0  0  0  0  0  0  0  0  0
    1.9376   44.5950   55.3869 H   0  0  0  0  0  0  0  0  0  0  0  0
    0.5265   45.1227   54.3586 H   0  0  0  0  0  0  0  0  0  0  0  0
    2.3244   42.8598   54.0033 H   0  0  0  0  0  0  0  0  0  0  0  0
    0.7981   43.3073   53.1223 H   0  0  0  0  0  0  0  0  0  0  0  0
    1.9304   42.0623   51.6142 H   0  0  0  0  0  0  0  0  0  0  0  0
    2.4870   43.1533   50.2907 H   0  0  0  0  0  0  0  0  0  0  0  0
    4.0759   41.4315   52.1868 H   0  0  0  0  0  0  0  0  0  0  0  0
    4.1256   40.3959   50.2049 H   0  0  0  0  0  0  0  0  0  0  0  0
    3.9383   41.9863   49.2826 H   0  0  0  0  0  0  0  0  0  0  0  0
    6.5239   41.2585   50.6196 H   0  0  0  0  0  0  0  0  0  0  0  0
    6.0423   40.6423   48.9440 H   0  0  0  0  0  0  0  0  0  0  0  0
    7.4769   42.4872   48.6290 H   0  0  0  0  0  0  0  0  0  0  0  0
    5.7435   42.9920   48.2727 H   0  0  0  0  0  0  0  0  0  0  0  0
    7.4469   43.7460   50.6679 H   0  0  0  0  0  0  0  0  0  0  0  0
    6.7797   44.8066   49.3291 H   0  0  0  0  0  0  0  0  0  0  0  0
    4.5860   44.2250   50.1220 H   0  0  0  0  0  0  0  0  0  0  0  0
    6.0925   42.7083   52.0640 H   0  0  0  0  0  0  0  0  0  0  0  0
    4.7787   43.7649   52.7213 H   0  0  0  0  0  0  0  0  0  0  0  0
    2.5293   45.3295   50.6121 H   0  0  0  0  0  0  0  0  0  0  0  0
    0.9246   44.9365   51.3511 H   0  0  0  0  0  0  0  0  0  0  0  0
    2.8677   47.0625   52.0374 H   0  0  0  0  0  0  0  0  0  0  0  0
    1.0843   46.9031   52.3966 H   0  0  0  0  0  0  0  0  0  0  0  0
    6.8319   46.2358   51.4258 H   0  0  0  0  0  0  0  0  0  0  0  0
    9.1192   46.8566   50.6494 H   0  0  0  0  0  0  0  0  0  0  0  0
  1  2  2  0
  2  3  1  0
  3  4  2  0
  4  5  1  0
  5  6  2  0
  6  7  1  0
  7  8  1  0
  8  9  1  0
  9 10  1  0
 10 11  1  0
 11 12  1  0
 12 13  1  0
 13 14  1  0
 14 15  1  0
 15 16  1  0
 16 17  1  0
 17 18  1  0
 18 19  1  0
 19 20  1  0
 12 21  1  0
 21 22  1  0
  8 23  2  0
  4 24  1  0
 24 25  2  0
 25  1  1  0
 23  5  1  0
 22  9  1  0
 20 14  1  0
  1 26  1  0
  2 27  1  0
  3 28  1  0
  9 29  1  0
 10 30  1  0
 10 31  1  0
 11 32  1  0
 11 33  1  0
 13 34  1  0
 13 35  1  0
 14 36  1  1
 15 37  1  0
 15 38  1  0
 16 39  1  0
 16 40  1  0
 17 41  1  0
 17 42  1  0
 18 43  1  0
 18 44  1  0
 19 45  1  0
 20 46  1  0
 20 47  1  0
 21 48  1  0
 21 49  1  0
 22 50  1  0
 22 51  1  0
 24 52  1  0
 25 53  1  0
M  END
>  <meeko>  (1) 
{"is_sidechain": [false], "free_energy": -7.168, "intermolecular_energy": -11.358, "internal_energy": -1.01}

$$$$
ligand_9_conformer_2_docked
     RDKit          3D

 53 56  0  0  0  0  0  0  0  0999 V2000
    1.2760   45.6150   53.6800 C   0  0  0  0  0  0  0  0  0  0  0  0
    1.9520   45.1160   54.7960 C   0  0  0  0  0  0  0  0  0  0  0  0
    3.3110   45.3940   54.9750 C   0  0  0  0  0  0  0  0  0  0  0  0
    4.0060   46.1760   54.0350 C   0  0  0  0  0  0  0  0  0  0  0  0
    5.4480   46.4560   54.2110 C   0  0  0  0  0  0  0  0  0  0  0  0
    6.2210   45.8680   55.1450 N   0  0  0  0  0  0  0  0  0  0  0  0
    7.4090   46.3550   54.9530 O   0  0  0  0  0  0  0  0  0  0  0  0
    7.3840   47.2010   53.9530 C   0  0  0  0  0  0  0  0  0  0  0  0
    8.6010   47.9360   53.4460 C   0  0  0  0  0  0  0  0  0  0  0  0
    8.4020   48.5020   52.0270 C   0  0  0  0  0  0  0  0  0  0  0  0
    8.4190   47.4100   50.9310 C   0  0  0  0  0  0  0  0  0  0  0  0
    8.7660   46.0730   51.4710 N   0  0  0  0  0  0  0  0  0  0  0  0
    8.8570   45.0660   50.3870 C   0  0  0  0  0  0  0  0  0  0  0  0
    7.4540   44.5310   50.0300 C   0  0  1  0  0  0  0  0  0  0  0  0
    7.5270   43.1360   49.3560 C   0  0  0  0  0  0  0  0  0  0  0  0
    6.1790   42.5090   48.9450 C   0  0  0  0  0  0  0  0  0  0  0  0
    5.3450   41.8830   50.0760 C   0  0  0  0  0  0  0  0  0  0  0  0
    4.6990   42.9030   51.0540 C   0  0  0  0  0  0  0  0  0  0  0  0
    5.1020   44.3060   50.8350 N   0  0  0  0  0  0  0  0  0  0  0  0
    6.4860   44.5890   51.2430 C   0  0  0  0  0  0  0  0  0  0  0  0
   10.0190   46.1440   52.2470 C   0  0  0  0  0  0  0  0  0  0  0  0
    9.8550   47.0380   53.4960 C   0  0  0  0  0  0  0  0  0  0  0  0
    6.1450   47.3110   53.4340 N   0  0  0  0  0  0  0  0  0  0  0  0
    3.3150   46.6750   52.9170 C   0  0  0  0  0  0  0  0  0  0  0  0
    1.9570   46.3950   52.7410 C   0  0  0  0  0  0  0  0  0  0  0  0
    0.2075   45.3941   53.5401 H   0  0  0  0  0  0  0  0  0  0  0  0
    1.4147   44.5035   55.5351 H   0  0  0  0  0  0  0  0  0  0  0  0
    3.8390   44.9990   55.8555 H   0  0  0  0  0  0  0  0  0  0  0  0
    8.7509   48.7919   54.1205 H   0  0  0  0  0  0  0  0  0  0  0  0
    7.4327   49.0207   51.9896 H   0  0  0  0  0  0  0  0  0  0  0  0
    9.2414   49.1835   51.8246 H   0  0  0  0  0  0  0  0  0  0  0  0
    7.4218   47.3568   50.4697 H   0  0  0  0  0  0  0  0  0  0  0  0
    9.1891   47.6850   50.1952 H   0  0  0  0  0  0  0  0  0  0  0  0
    9.3047   45.5315   49.4966 H   0  0  0  0  0  0  0  0  0  0  0  0
    9.4816   44.2281   50.7301 H   0  0  0  0  0  0  0  0  0  0  0  0
    7.0197   45.2037   49.2758 H   0  0  0  0  0  0  0  0  0  0  0  0
    8.1429   43.2326   48.4497 H   0  0  0  0  0  0  0  0  0  0  0  0
    7.9463   42.4618   50.1174 H   0  0  0  0  0  0  0  0  0  0  0  0
    5.5712   43.2978   48.4776 H   0  0  0  0  0  0  0  0  0  0  0  0
    6.4357   41.6757   48.2743 H   0  0  0  0  0  0  0  0  0  0  0  0
    4.5389   41.2906   49.6185 H   0  0  0  0  0  0  0  0  0  0  0  0
    6.0422   41.2796   50.6758 H   0  0  0  0  0  0  0  0  0  0  0  0
    3.6064   42.8389   50.9439 H   0  0  0  0  0  0  0  0  0  0  0  0
    5.0484   42.6325   52.0614 H   0  0  0  0  0  0  0  0  0  0  0  0
    4.4600   44.9140   51.3940 H   0  0  0  0  0  0  0  0  0  0  0  0
    6.5300   45.5936   51.6890 H   0  0  0  0  0  0  0  0  0  0  0  0
    6.7963   43.8260   51.9721 H   0  0  0  0  0  0  0  0  0  0  0  0
   10.3006   45.1298   52.5666 H   0  0  0  0  0  0  0  0  0  0  0  0
   10.7998   46.5809   51.6071 H   0  0  0  0  0  0  0  0  0  0  0  0
    9.7847   46.3899   54.3820 H   0  0  0  0  0  0  0  0  0  0  0  0
   10.7299   47.7036   53.5363 H   0  0  0  0  0  0  0  0  0  0  0  0
    3.8466   47.2899   52.1758 H   0  0  0  0  0  0  0  0  0  0  0  0
    1.4239   46.7887   51.8631 H   0  0  0  0  0  0  0  0  0  0  0  0
  1  2  2  0
  2  3  1  0
  3  4  2  0
  4  5  1  0
  5  6  2  0
  6  7  1  0
  7  8  1  0
  8  9  1  0
  9 10  1  0
 10 11  1  0
 11 12  1  0
 12 13  1  0
 13 14  1  0
 14 15  1  0
 15 16  1  0
 16 17  1  0
 17 18  1  0
 18 19  1  0
 19 20  1  0
 12 21  1  0
 21 22  1  0
  8 23  2  0
  4 24  1  0
 24 25  2  0
 25  1  1  0
 23  5  1  0
 22  9  1  0
 20 14  1  0
  1 26  1  0
  2 27  1  0
  3 28  1  0
  9 29  1  0
 10 30  1  0
 10 31  1  0
 11 32  1  0
 11 33  1  0
 13 34  1  0
 13 35  1  0
 14 36  1  6
 15 37  1  0
 15 38  1  0
 16 39  1  0
 16 40  1  0
 17 41  1  0
 17 42  1  0
 18 43  1  0
 18 44  1  0
 19 45  1  0
 20 46  1  0
 20 47  1  0
 21 48  1  0
 21 49  1  0
 22 50  1  0
 22 51  1  0
 24 52  1  0
 25 53  1  0
M  END
>  <meeko>  (2) 
{"is_sidechain": [false], "free_energy": -6.62, "intermolecular_energy": -10.988, "internal_energy": -0.512}

$$$$
ligand_9_conformer_2_docked
     RDKit          3D

 53 56  0  0  0  0  0  0  0  0999 V2000
    8.3480   44.6460   49.5520 C   0  0  0  0  0  0  0  0  0  0  0  0
    7.8900   43.3950   49.1320 C   0  0  0  0  0  0  0  0  0  0  0  0
    6.6500   42.9200   49.5680 C   0  0  0  0  0  0  0  0  0  0  0  0
    5.8540   43.6960   50.4310 C   0  0  0  0  0  0  0  0  0  0  0  0
    4.5500   43.1890   50.9090 C   0  0  0  0  0  0  0  0  0  0  0  0
    4.3720   41.9750   51.4640 N   0  0  0  0  0  0  0  0  0  0  0  0
    3.1110   41.9270   51.7700 O   0  0  0  0  0  0  0  0  0  0  0  0
    2.5300   43.0500   51.4280 C   0  0  0  0  0  0  0  0  0  0  0  0
    1.0660   43.3430   51.6600 C   0  0  0  0  0  0  0  0  0  0  0  0
    0.7340   44.8410   51.5260 C   0  0  0  0  0  0  0  0  0  0  0  0
    1.2460   45.6840   52.7170 C   0  0  0  0  0  0  0  0  0  0  0  0
    1.8200   44.8470   53.7970 N   0  0  0  0  0  0  0  0  0  0  0  0
    2.2240   45.6750   54.9590 C   0  0  0  0  0  0  0  0  0  0  0  0
    3.7370   45.9800   54.9020 C   0  0  1  0  0  0  0  0  0  0  0  0
    4.5130   44.8890   54.1190 C   0  0  0  0  0  0  0  0  0  0  0  0
    5.9590   44.6200   54.5820 C   0  0  0  0  0  0  0  0  0  0  0  0
    6.9830   45.7320   54.3000 C   0  0  0  0  0  0  0  0  0  0  0  0
    6.4690   47.1790   54.4530 C   0  0  0  0  0  0  0  0  0  0  0  0
    5.2740   47.4910   53.6450 N   0  0  0  0  0  0  0  0  0  0  0  0
    4.0180   47.4250   54.4050 C   0  0  0  0  0  0  0  0  0  0  0  0
    0.8640   43.7950   54.1920 C   0  0  0  0  0  0  0  0  0  0  0  0
    0.6040   42.8090   53.0320 C   0  0  0  0  0  0  0  0  0  0  0  0
    3.4070   43.9050   50.8640 N   0  0  0  0  0  0  0  0  0  0  0  0
    6.3240   44.9550   50.8450 C   0  0  0  0  0  0  0  0  0  0  0  0
    7.5660   45.4260   50.4070 C   0  0  0  0  0  0  0  0  0  0  0  0
    9.3251   45.0171   49.2092 H   0  0  0  0  0  0  0  0  0  0  0  0
    8.5062   42.7828   48.4571 H   0  0  0  0  0  0  0  0  0  0  0  0
    6.2942   41.9339   49.2347 H   0  0  0  0  0  0  0  0  0  0  0  0
    0.5125   42.8155   50.8692 H   0  0  0  0  0  0  0  0  0  0  0  0
    1.1968   45.2211   50.6033 H   0  0  0  0  0  0  0  0  0  0  0  0
   -0.3619   44.9338   51.5052 H   0  0  0  0  0  0  0  0  0  0  0  0
    2.0226   46.3732   52.3538 H   0  0  0  0  0  0  0  0  0  0  0  0
    0.3870   46.2287   53.1358 H   0  0  0  0  0  0  0  0  0  0  0  0
    1.6626   46.6208   54.9429 H   0  0  0  0  0  0  0  0  0  0  0  0
    2.0059   45.1220   55.8845 H   0  0  0  0  0  0  0  0  0  0  0  0
    4.1264   45.9420   55.9301 H   0  0  0  0  0  0  0  0  0  0  0  0
    3.9510   43.9476   54.2083 H   0  0  0  0  0  0  0  0  0  0  0  0
    4.5983   45.2685   53.0900 H   0  0  0  0  0  0  0  0  0  0  0  0
    5.9371   44.4524   55.6689 H   0  0  0  0  0  0  0  0  0  0  0  0
    6.2982   43.7535   53.9954 H   0  0  0  0  0  0  0  0  0  0  0  0
    7.8249   45.5985   54.9953 H   0  0  0  0  0  0  0  0  0  0  0  0
    7.2539   45.6239   53.2394 H   0  0  0  0  0  0  0  0  0  0  0  0
    6.2214   47.3458   55.5117 H   0  0  0  0  0  0  0  0  0  0  0  0
    7.2727   47.8371   54.0912 H   0  0  0  0  0  0  0  0  0  0  0  0
    5.2280   46.7970   52.8630 H   0  0  0  0  0  0  0  0  0  0  0  0
    4.0888   48.0958   55.2739 H   0  0  0  0  0  0  0  0  0  0  0  0
    3.1943   47.7321   53.7438 H   0  0  0  0  0  0  0  0  0  0  0  0
    1.2751   43.2404   55.0484 H   0  0  0  0  0  0  0  0  0  0  0  0
   -0.0889   44.2746   54.4603 H   0  0  0  0  0  0  0  0  0  0  0  0
    1.1432   41.8735   53.2418 H   0  0  0  0  0  0  0  0  0  0  0  0
   -0.4838   42.6568   52.9722 H   0  0  0  0  0  0  0  0  0  0  0  0
    5.7111   45.5732   51.5174 H   0  0  0  0  0  0  0  0  0  0  0  0
    7.9272   46.4115   50.7361 H   0  0  0  0  0  0  0  0  0  0  0  0
  1  2  2  0
  2  3  1  0
  3  4  2  0
  4  5  1  0
  5  6  2  0
  6  7  1  0
  7  8  1  0
  8  9  1  0
  9 10  1  0
 10 11  1  0
 11 12  1  0
 12 13  1  0
 13 14  1  0
 14 15  1  0
 15 16  1  0
 16 17  1  0
 17 18  1  0
 18 19  1  0
 19 20  1  0
 12 21  1  0
 21 22  1  0
  8 23  2  0
  4 24  1  0
 24 25  2  0
 25  1  1  0
 23  5  1  0
 22  9  1  0
 20 14  1  0
  1 26  1  0
  2 27  1  0
  3 28  1  0
  9 29  1  0
 10 30  1  0
 10 31  1  0
 11 32  1  0
 11 33  1  0
 13 34  1  0
 13 35  1  0
 14 36  1  1
 15 37  1  0
 15 38  1  0
 16 39  1  0
 16 40  1  0
 17 41  1  0
 17 42  1  0
 18 43  1  0
 18 44  1  0
 19 45  1  0
 20 46  1  0
 20 47  1  0
 21 48  1  0
 21 49  1  0
 22 50  1  0
 22 51  1  0
 24 52  1  0
 25 53  1  0
M  END
>  <meeko>  (3) 
{"is_sidechain": [false], "free_energy": -6.281, "intermolecular_energy": -10.2, "internal_energy": -0.763}

$$$$
ligand_9_conformer_2_docked
     RDKit          3D

 53 56  0  0  0  0  0  0  0  0999 V2000
   10.2360   47.1750   53.8820 C   0  0  0  0  0  0  0  0  0  0  0  0
    8.9960   47.3110   54.5100 C   0  0  0  0  0  0  0  0  0  0  0  0
    7.8340   46.8630   53.8750 C   0  0  0  0  0  0  0  0  0  0  0  0
    7.9050   46.2720   52.6000 C   0  0  0  0  0  0  0  0  0  0  0  0
    6.6770   45.8130   51.9160 C   0  0  0  0  0  0  0  0  0  0  0  0
    6.5860   44.6610   51.2240 N   0  0  0  0  0  0  0  0  0  0  0  0
    5.3560   44.6140   50.8100 O   0  0  0  0  0  0  0  0  0  0  0  0
    4.7100   45.6770   51.2220 C   0  0  0  0  0  0  0  0  0  0  0  0
    3.2490   45.9330   50.9370 C   0  0  0  0  0  0  0  0  0  0  0  0
    2.6480   47.0130   51.8560 C   0  0  0  0  0  0  0  0  0  0  0  0
    2.4340   46.5240   53.3080 C   0  0  0  0  0  0  0  0  0  0  0  0
    2.7210   45.0780   53.4650 N   0  0  0  0  0  0  0  0  0  0  0  0
    2.4260   44.6210   54.8440 C   0  0  0  0  0  0  0  0  0  0  0  0
    1.0380   45.1260   55.2930 C   0  0  1  0  0  0  0  0  0  0  0  0
   -0.0870   44.1330   54.9030 C   0  0  0  0  0  0  0  0  0  0  0  0
   -1.4700   44.7520   54.6160 C   0  0  0  0  0  0  0  0  0  0  0  0
   -2.2470   45.2800   55.8340 C   0  0  0  0  0  0  0  0  0  0  0  0
   -1.3910   45.9930   56.9130 C   0  0  0  0  0  0  0  0  0  0  0  0
   -0.2610   45.1920   57.4240 N   0  0  0  0  0  0  0  0  0  0  0  0
    1.0250   45.5260   56.7940 C   0  0  0  0  0  0  0  0  0  0  0  0
    1.9680   44.2960   52.4660 C   0  0  0  0  0  0  0  0  0  0  0  0
    2.4270   44.6300   51.0300 C   0  0  0  0  0  0  0  0  0  0  0  0
    5.5100   46.4900   51.9390 N   0  0  0  0  0  0  0  0  0  0  0  0
    9.1590   46.1370   51.9780 C   0  0  0  0  0  0  0  0  0  0  0  0
   10.3180   46.5880   52.6170 C   0  0  0  0  0  0  0  0  0  0  0  0
   11.1483   47.5302   54.3836 H   0  0  0  0  0  0  0  0  0  0  0  0
    8.9335   47.7718   55.5069 H   0  0  0  0  0  0  0  0  0  0  0  0
    6.8600   46.9730   54.3742 H   0  0  0  0  0  0  0  0  0  0  0  0
    3.1948   46.3138   49.9065 H   0  0  0  0  0  0  0  0  0  0  0  0
    3.3297   47.8761   51.8742 H   0  0  0  0  0  0  0  0  0  0  0  0
    1.6603   47.2767   51.4498 H   0  0  0  0  0  0  0  0  0  0  0  0
    3.1013   47.0910   53.9738 H   0  0  0  0  0  0  0  0  0  0  0  0
    1.3766   46.6860   53.5643 H   0  0  0  0  0  0  0  0  0  0  0  0
    2.4380   43.5214   54.8718 H   0  0  0  0  0  0  0  0  0  0  0  0
    3.1899   45.0247   55.5248 H   0  0  0  0  0  0  0  0  0  0  0  0
    0.8226   46.0523   54.7401 H   0  0  0  0  0  0  0  0  0  0  0  0
    0.2360   43.5981   53.9977 H   0  0  0  0  0  0  0  0  0  0  0  0
   -0.2292   43.4879   55.7826 H   0  0  0  0  0  0  0  0  0  0  0  0
   -1.3233   45.5928   53.9220 H   0  0  0  0  0  0  0  0  0  0  0  0
   -2.0806   43.9308   54.2124 H   0  0  0  0  0  0  0  0  0  0  0  0
   -3.0003   45.9951   55.4717 H   0  0  0  0  0  0  0  0  0  0  0  0
   -2.6769   44.3947   56.3254 H   0  0  0  0  0  0  0  0  0  0  0  0
   -0.9868   46.9178   56.4755 H   0  0  0  0  0  0  0  0  0  0  0  0
   -2.0564   46.1781   57.7691 H   0  0  0  0  0  0  0  0  0  0  0  0
   -0.4730   44.1850   57.2350 H   0  0  0  0  0  0  0  0  0  0  0  0
    1.1944   46.6096   56.8777 H   0  0  0  0  0  0  0  0  0  0  0  0
    1.8200   44.9673   57.3095 H   0  0  0  0  0  0  0  0  0  0  0  0
    2.1298   43.2243   52.6538 H   0  0  0  0  0  0  0  0  0  0  0  0
    0.9018   44.5505   52.5577 H   0  0  0  0  0  0  0  0  0  0  0  0
    3.0464   43.7997   50.6599 H   0  0  0  0  0  0  0  0  0  0  0  0
    1.5201   44.7741   50.4243 H   0  0  0  0  0  0  0  0  0  0  0  0
    9.2285   45.6738   50.9827 H   0  0  0  0  0  0  0  0  0  0  0  0
   11.2951   46.4805   52.1233 H   0  0  0  0  0  0  0  0  0  0  0  0
  1  2  2  0
  2  3  1  0
  3  4  2  0
  4  5  1  0
  5  6  2  0
  6  7  1  0
  7  8  1  0
  8  9  1  0
  9 10  1  0
 10 11  1  0
 11 12  1  0
 12 13  1  0
 13 14  1  0
 14 15  1  0
 15 16  1  0
 16 17  1  0
 17 18  1  0
 18 19  1  0
 19 20  1  0
 12 21  1  0
 21 22  1  0
  8 23  2  0
  4 24  1  0
 24 25  2  0
 25  1  1  0
 23  5  1  0
 22  9  1  0
 20 14  1  0
  1 26  1  0
  2 27  1  0
  3 28  1  0
  9 29  1  0
 10 30  1  0
 10 31  1  0
 11 32  1  0
 11 33  1  0
 13 34  1  0
 13 35  1  0
 14 36  1  6
 15 37  1  0
 15 38  1  0
 16 39  1  0
 16 40  1  0
 17 41  1  0
 17 42  1  0
 18 43  1  0
 18 44  1  0
 19 45  1  0
 20 46  1  0
 20 47  1  0
 21 48  1  0
 21 49  1  0
 22 50  1  0
 22 51  1  0
 24 52  1  0
 25 53  1  0
M  END
>  <meeko>  (4) 
{"is_sidechain": [false], "free_energy": -6.175, "intermolecular_energy": -10.88, "internal_energy": 0.085}

$$$$
ligand_9_conformer_2_docked
     RDKit          3D

 53 56  0  0  0  0  0  0  0  0999 V2000
    7.4050   42.6560   48.7490 C   0  0  0  0  0  0  0  0  0  0  0  0
    7.2200   43.8650   49.4240 C   0  0  0  0  0  0  0  0  0  0  0  0
    6.1650   44.0070   50.3310 C   0  0  0  0  0  0  0  0  0  0  0  0
    5.2850   42.9370   50.5720 C   0  0  0  0  0  0  0  0  0  0  0  0
    4.1580   43.0890   51.5160 C   0  0  0  0  0  0  0  0  0  0  0  0
    3.4460   42.0580   52.0130 N   0  0  0  0  0  0  0  0  0  0  0  0
    2.5810   42.6020   52.8140 O   0  0  0  0  0  0  0  0  0  0  0  0
    2.7410   43.9020   52.8210 C   0  0  0  0  0  0  0  0  0  0  0  0
    1.9140   44.8450   53.6630 C   0  0  0  0  0  0  0  0  0  0  0  0
    1.6130   46.1720   52.9410 C   0  0  0  0  0  0  0  0  0  0  0  0
    2.8460   47.1020   52.8430 C   0  0  0  0  0  0  0  0  0  0  0  0
    4.0120   46.5740   53.5910 N   0  0  0  0  0  0  0  0  0  0  0  0
    5.1490   47.5250   53.5490 C   0  0  0  0  0  0  0  0  0  0  0  0
    6.4870   46.7600   53.4500 C   0  0  1  0  0  0  0  0  0  0  0  0
    7.3140   47.2080   52.2170 C   0  0  0  0  0  0  0  0  0  0  0  0
    8.6270   46.4410   51.9650 C   0  0  0  0  0  0  0  0  0  0  0  0
    9.8660   46.9420   52.7270 C   0  0  0  0  0  0  0  0  0  0  0  0
    9.6740   47.0680   54.2620 C   0  0  0  0  0  0  0  0  0  0  0  0
    8.4250   47.7260   54.6920 N   0  0  0  0  0  0  0  0  0  0  0  0
    7.2800   46.8070   54.7850 C   0  0  0  0  0  0  0  0  0  0  0  0
    3.6290   46.2540   54.9790 C   0  0  0  0  0  0  0  0  0  0  0  0
    2.5890   45.1130   55.0240 C   0  0  0  0  0  0  0  0  0  0  0  0
    3.7430   44.2780   52.0010 N   0  0  0  0  0  0  0  0  0  0  0  0
    5.4830   41.7230   49.8890 C   0  0  0  0  0  0  0  0  0  0  0  0
    6.5370   41.5860   48.9810 C   0  0  0  0  0  0  0  0  0  0  0  0
    8.2343   42.5464   48.0346 H   0  0  0  0  0  0  0  0  0  0  0  0
    7.9049   44.7063   49.2419 H   0  0  0  0  0  0  0  0  0  0  0  0
    6.0227   44.9614   50.8590 H   0  0  0  0  0  0  0  0  0  0  0  0
    0.9507   44.3436   53.8385 H   0  0  0  0  0  0  0  0  0  0  0  0
    1.2634   45.9454   51.9229 H   0  0  0  0  0  0  0  0  0  0  0  0
    0.8491   46.7005   53.5302 H   0  0  0  0  0  0  0  0  0  0  0  0
    3.1245   47.2093   51.7843 H   0  0  0  0  0  0  0  0  0  0  0  0
    2.5724   48.0703   53.2875 H   0  0  0  0  0  0  0  0  0  0  0  0
    5.0408   48.1809   52.6726 H   0  0  0  0  0  0  0  0  0  0  0  0
    5.1477   48.1239   54.4717 H   0  0  0  0  0  0  0  0  0  0  0  0
    6.2556   45.6977   53.2826 H   0  0  0  0  0  0  0  0  0  0  0  0
    6.6797   47.0898   51.3261 H   0  0  0  0  0  0  0  0  0  0  0  0
    7.6137   48.2459   52.4240 H   0  0  0  0  0  0  0  0  0  0  0  0
    8.4614   45.3910   52.2480 H   0  0  0  0  0  0  0  0  0  0  0  0
    8.8561   46.5936   50.9000 H   0  0  0  0  0  0  0  0  0  0  0  0
   10.6908   46.2383   52.5411 H   0  0  0  0  0  0  0  0  0  0  0  0
   10.0717   47.9564   52.3545 H   0  0  0  0  0  0  0  0  0  0  0  0
    9.6885   46.0548   54.6901 H   0  0  0  0  0  0  0  0  0  0  0  0
   10.4930   47.7103   54.6181 H   0  0  0  0  0  0  0  0  0  0  0  0
    8.1980   48.4700   53.9920 H   0  0  0  0  0  0  0  0  0  0  0  0
    7.6485   45.7973   55.0191 H   0  0  0  0  0  0  0  0  0  0  0  0
    6.6073   47.1679   55.5770 H   0  0  0  0  0  0  0  0  0  0  0  0
    4.5255   45.9441   55.5360 H   0  0  0  0  0  0  0  0  0  0  0  0
    3.1810   47.1509   55.4317 H   0  0  0  0  0  0  0  0  0  0  0  0
    3.0954   44.1923   55.3493 H   0  0  0  0  0  0  0  0  0  0  0  0
    1.7982   45.4220   55.7234 H   0  0  0  0  0  0  0  0  0  0  0  0
    4.8043   40.8766   50.0706 H   0  0  0  0  0  0  0  0  0  0  0  0
    6.6832   40.6346   48.4485 H   0  0  0  0  0  0  0  0  0  0  0  0
  1  2  2  0
  2  3  1  0
  3  4  2  0
  4  5  1  0
  5  6  2  0
  6  7  1  0
  7  8  1  0
  8  9  1  0
  9 10  1  0
 10 11  1  0
 11 12  1  0
 12 13  1  0
 13 14  1  0
 14 15  1  0
 15 16  1  0
 16 17  1  0
 17 18  1  0
 18 19  1  0
 19 20  1  0
 12 21  1  0
 21 22  1  0
  8 23  2  0
  4 24  1  0
 24 25  2  0
 25  1  1  0
 23  5  1  0
 22  9  1  0
 20 14  1  0
  1 26  1  0
  2 27  1  0
  3 28  1  0
  9 29  1  0
 10 30  1  0
 10 31  1  0
 11 32  1  0
 11 33  1  0
 13 34  1  0
 13 35  1  0
 14 36  1  6
 15 37  1  0
 15 38  1  0
 16 39  1  0
 16 40  1  0
 17 41  1  0
 17 42  1  0
 18 43  1  0
 18 44  1  0
 19 45  1  0
 20 46  1  0
 20 47  1  0
 21 48  1  0
 21 49  1  0
 22 50  1  0
 22 51  1  0
 24 52  1  0
 25 53  1  0
M  END
>  <meeko>  (5) 
{"is_sidechain": [false], "free_energy": -6.101, "intermolecular_energy": -10.905, "internal_energy": 0.228}

$$$$
