MODEL 1
REMARK VINA RESULT:    -8.518      0.000      0.000
REMARK INTER + INTRA:         -11.544
REMARK INTER:                 -11.008
REMARK INTRA:                  -0.537
REMARK UNBOUND:                -0.537
REMARK SMILES O=C(Nc1cccc(CCO)c1)c1c[nH]c2ncnc(O)c12
REMARK SMILES IDX 4 1 5 2 6 3 7 4 8 5 12 6 3 7 1 8 2 9 13 11 14 12 22 13 15 14
REMARK SMILES IDX 20 15 16 16 19 17 17 18 18 19 21 21 9 23 10 24 11 25
REMARK H PARENT 3 10 15 20 21 22 11 26
ROOT
ATOM      1  C   UNL     1       7.201  46.303  52.797  1.00  0.00     0.041 A 
ATOM      2  C   UNL     1       8.090  45.989  51.758  1.00  0.00     0.026 A 
ATOM      3  C   UNL     1       9.426  46.393  51.825  1.00  0.00     0.002 A 
ATOM      4  C   UNL     1       9.882  47.130  52.920  1.00  0.00     0.004 A 
ATOM      5  C   UNL     1       8.997  47.487  53.949  1.00  0.00    -0.044 A 
ATOM      6  C   UNL     1       7.657  47.070  53.884  1.00  0.00     0.030 A 
ENDROOT
BRANCH   1   7
ATOM      7  N   UNL     1       5.830  45.885  52.697  1.00  0.00    -0.322 N 
ATOM      8  O   UNL     1       5.809  44.553  54.628  1.00  0.00    -0.269 OA
ATOM      9  C   UNL     1       5.197  44.972  53.610  1.00  0.00     0.258 C 
ATOM     10  H   UNL     1       5.286  46.212  51.867  1.00  0.00     0.170 HD
BRANCH   9  11
ATOM     11  C   UNL     1       3.811  44.535  53.385  1.00  0.00     0.072 A 
ATOM     12  C   UNL     1       3.350  43.843  52.267  1.00  0.00     0.099 A 
ATOM     13  C   UNL     1       2.704  44.703  54.203  1.00  0.00     0.093 A 
ATOM     14  N   UNL     1       2.031  43.568  52.390  1.00  0.00    -0.345 N 
ATOM     15  C   UNL     1       2.475  45.383  55.399  1.00  0.00     0.224 A 
ATOM     16  C   UNL     1       1.660  44.095  53.566  1.00  0.00     0.145 A 
ATOM     17  N   UNL     1       1.211  45.362  55.915  1.00  0.00    -0.201 NA
ATOM     18  N   UNL     1       0.406  44.088  54.080  1.00  0.00    -0.218 NA
ATOM     19  C   UNL     1       0.188  44.716  55.272  1.00  0.00     0.228 A 
ATOM     20  H   UNL     1       1.428  43.062  51.704  1.00  0.00     0.167 HD
BRANCH  15  21
ATOM     21  O   UNL     1       3.484  46.091  56.041  1.00  0.00    -0.493 OA
ATOM     22  H   UNL     1       4.459  45.930  55.815  1.00  0.00     0.295 HD
ENDBRANCH  15  21
ENDBRANCH   9  11
ENDBRANCH   1   7
BRANCH   5  23
ATOM     23  C   UNL     1       9.493  48.275  55.135  1.00  0.00     0.063 C 
BRANCH  23  24
ATOM     24  C   UNL     1      10.640  47.551  55.839  1.00  0.00     0.161 C 
BRANCH  24  25
ATOM     25  O   UNL     1      10.707  47.946  57.182  1.00  0.00    -0.396 OA
ATOM     26  H   UNL     1      11.668  47.917  57.429  1.00  0.00     0.210 HD
ENDBRANCH  24  25
ENDBRANCH  23  24
ENDBRANCH   5  23
TORSDOF 6
ENDMDL
MODEL 2
REMARK VINA RESULT:    -8.386      1.871      2.657
REMARK INTER + INTRA:         -11.374
REMARK INTER:                 -10.683
REMARK INTRA:                  -0.691
REMARK UNBOUND:                -0.537
REMARK SMILES O=C(Nc1cccc(CCO)c1)c1c[nH]c2ncnc(O)c12
REMARK SMILES IDX 4 1 5 2 6 3 7 4 8 5 12 6 3 7 1 8 2 9 13 11 14 12 22 13 15 14
REMARK SMILES IDX 20 15 16 16 19 17 17 18 18 19 21 21 9 23 10 24 11 25
REMARK H PARENT 3 10 15 20 21 22 11 26
ROOT
ATOM      1  C   UNL     1       7.394  46.353  52.160  1.00  0.00     0.041 A 
ATOM      2  C   UNL     1       8.088  45.886  51.035  1.00  0.00     0.026 A 
ATOM      3  C   UNL     1       9.484  45.825  51.040  1.00  0.00     0.002 A 
ATOM      4  C   UNL     1      10.200  46.249  52.162  1.00  0.00     0.004 A 
ATOM      5  C   UNL     1       9.523  46.757  53.281  1.00  0.00    -0.044 A 
ATOM      6  C   UNL     1       8.119  46.806  53.276  1.00  0.00     0.030 A 
ENDROOT
BRANCH   1   7
ATOM      7  N   UNL     1       5.959  46.416  52.123  1.00  0.00    -0.322 N 
ATOM      8  O   UNL     1       5.569  44.451  53.343  1.00  0.00    -0.269 OA
ATOM      9  C   UNL     1       5.094  45.416  52.687  1.00  0.00     0.258 C 
ATOM     10  H   UNL     1       5.525  47.202  51.590  1.00  0.00     0.170 HD
BRANCH   9  11
ATOM     11  C   UNL     1       3.635  45.519  52.532  1.00  0.00     0.072 A 
ATOM     12  C   UNL     1       2.844  46.574  52.984  1.00  0.00     0.099 A 
ATOM     13  C   UNL     1       2.761  44.632  51.923  1.00  0.00     0.093 A 
ATOM     14  N   UNL     1       1.548  46.371  52.653  1.00  0.00    -0.345 N 
ATOM     15  C   UNL     1       2.901  43.361  51.367  1.00  0.00     0.224 A 
ATOM     16  C   UNL     1       1.519  45.193  52.012  1.00  0.00     0.145 A 
ATOM     17  N   UNL     1       1.781  42.750  50.878  1.00  0.00    -0.201 NA
ATOM     18  N   UNL     1       0.411  44.575  51.533  1.00  0.00    -0.218 NA
ATOM     19  C   UNL     1       0.551  43.350  50.949  1.00  0.00     0.228 A 
ATOM     20  H   UNL     1       0.740  46.997  52.864  1.00  0.00     0.167 HD
BRANCH  15  21
ATOM     21  O   UNL     1       4.128  42.709  51.332  1.00  0.00    -0.493 OA
ATOM     22  H   UNL     1       4.457  42.177  52.129  1.00  0.00     0.295 HD
ENDBRANCH  15  21
ENDBRANCH   9  11
ENDBRANCH   1   7
BRANCH   5  23
ATOM     23  C   UNL     1      10.297  47.205  54.495  1.00  0.00     0.063 C 
BRANCH  23  24
ATOM     24  C   UNL     1       9.478  48.174  55.347  1.00  0.00     0.161 C 
BRANCH  24  25
ATOM     25  O   UNL     1      10.141  48.433  56.555  1.00  0.00    -0.396 OA
ATOM     26  H   UNL     1      10.255  47.553  57.000  1.00  0.00     0.210 HD
ENDBRANCH  24  25
ENDBRANCH  23  24
ENDBRANCH   5  23
TORSDOF 6
ENDMDL
MODEL 3
REMARK VINA RESULT:    -8.182      1.263      1.694
REMARK INTER + INTRA:         -11.110
REMARK INTER:                 -10.510
REMARK INTRA:                  -0.601
REMARK UNBOUND:                -0.537
REMARK SMILES O=C(Nc1cccc(CCO)c1)c1c[nH]c2ncnc(O)c12
REMARK SMILES IDX 4 1 5 2 6 3 7 4 8 5 12 6 3 7 1 8 2 9 13 11 14 12 22 13 15 14
REMARK SMILES IDX 20 15 16 16 19 17 17 18 18 19 21 21 9 23 10 24 11 25
REMARK H PARENT 3 10 15 20 21 22 11 26
ROOT
ATOM      1  C   UNL     1       5.756  45.897  51.959  1.00  0.00     0.041 A 
ATOM      2  C   UNL     1       6.307  45.282  50.825  1.00  0.00     0.026 A 
ATOM      3  C   UNL     1       7.644  45.499  50.483  1.00  0.00     0.002 A 
ATOM      4  C   UNL     1       8.438  46.347  51.259  1.00  0.00     0.004 A 
ATOM      5  C   UNL     1       7.892  47.001  52.373  1.00  0.00    -0.044 A 
ATOM      6  C   UNL     1       6.551  46.772  52.721  1.00  0.00     0.030 A 
ENDROOT
BRANCH   1   7
ATOM      7  N   UNL     1       4.375  45.665  52.282  1.00  0.00    -0.322 N 
ATOM      8  O   UNL     1       4.754  44.476  54.267  1.00  0.00    -0.269 OA
ATOM      9  C   UNL     1       3.929  44.909  53.419  1.00  0.00     0.258 C 
ATOM     10  H   UNL     1       3.658  46.010  51.604  1.00  0.00     0.170 HD
BRANCH   9  11
ATOM     11  C   UNL     1       2.496  44.652  53.628  1.00  0.00     0.072 A 
ATOM     12  C   UNL     1       1.629  44.088  52.695  1.00  0.00     0.099 A 
ATOM     13  C   UNL     1       1.725  44.898  54.753  1.00  0.00     0.093 A 
ATOM     14  N   UNL     1       0.386  43.963  53.216  1.00  0.00    -0.345 N 
ATOM     15  C   UNL     1       1.964  45.527  55.975  1.00  0.00     0.224 A 
ATOM     16  C   UNL     1       0.465  44.458  54.461  1.00  0.00     0.145 A 
ATOM     17  N   UNL     1       0.927  45.623  56.859  1.00  0.00    -0.201 NA
ATOM     18  N   UNL     1      -0.561  44.567  55.339  1.00  0.00    -0.218 NA
ATOM     19  C   UNL     1      -0.319  45.143  56.554  1.00  0.00     0.228 A 
ATOM     20  H   UNL     1      -0.459  43.574  52.742  1.00  0.00     0.167 HD
BRANCH  15  21
ATOM     21  O   UNL     1       3.205  46.071  56.287  1.00  0.00    -0.493 OA
ATOM     22  H   UNL     1       3.420  46.371  57.230  1.00  0.00     0.295 HD
ENDBRANCH  15  21
ENDBRANCH   9  11
ENDBRANCH   1   7
BRANCH   5  23
ATOM     23  C   UNL     1       8.753  47.908  53.216  1.00  0.00     0.063 C 
BRANCH  23  24
ATOM     24  C   UNL     1       9.905  47.137  53.860  1.00  0.00     0.161 C 
BRANCH  24  25
ATOM     25  O   UNL     1       9.925  47.366  55.242  1.00  0.00    -0.396 OA
ATOM     26  H   UNL     1      10.655  46.799  55.603  1.00  0.00     0.210 HD
ENDBRANCH  24  25
ENDBRANCH  23  24
ENDBRANCH   5  23
TORSDOF 6
ENDMDL
MODEL 4
REMARK VINA RESULT:    -8.137      1.871      2.728
REMARK INTER + INTRA:         -11.052
REMARK INTER:                 -10.348
REMARK INTRA:                  -0.704
REMARK UNBOUND:                -0.537
REMARK SMILES O=C(Nc1cccc(CCO)c1)c1c[nH]c2ncnc(O)c12
REMARK SMILES IDX 4 1 5 2 6 3 7 4 8 5 12 6 3 7 1 8 2 9 13 11 14 12 22 13 15 14
REMARK SMILES IDX 20 15 16 16 19 17 17 18 18 19 21 21 9 23 10 24 11 25
REMARK H PARENT 3 10 15 20 21 22 11 26
ROOT
ATOM      1  C   UNL     1       7.236  46.902  53.105  1.00  0.00     0.041 A 
ATOM      2  C   UNL     1       7.659  47.504  54.299  1.00  0.00     0.026 A 
ATOM      3  C   UNL     1       9.021  47.644  54.576  1.00  0.00     0.002 A 
ATOM      4  C   UNL     1       9.973  47.167  53.671  1.00  0.00     0.004 A 
ATOM      5  C   UNL     1       9.567  46.526  52.491  1.00  0.00    -0.044 A 
ATOM      6  C   UNL     1       8.196  46.397  52.211  1.00  0.00     0.030 A 
ENDROOT
BRANCH   1   7
ATOM      7  N   UNL     1       5.828  46.761  52.852  1.00  0.00    -0.322 N 
ATOM      8  O   UNL     1       5.631  44.556  53.624  1.00  0.00    -0.269 OA
ATOM      9  C   UNL     1       5.084  45.553  53.083  1.00  0.00     0.258 C 
ATOM     10  H   UNL     1       5.336  47.567  52.405  1.00  0.00     0.170 HD
BRANCH   9  11
ATOM     11  C   UNL     1       3.662  45.473  52.719  1.00  0.00     0.072 A 
ATOM     12  C   UNL     1       3.132  45.734  51.457  1.00  0.00     0.099 A 
ATOM     13  C   UNL     1       2.580  45.128  53.514  1.00  0.00     0.093 A 
ATOM     14  N   UNL     1       1.793  45.538  51.454  1.00  0.00    -0.345 N 
ATOM     15  C   UNL     1       2.422  44.852  54.872  1.00  0.00     0.224 A 
ATOM     16  C   UNL     1       1.479  45.171  52.706  1.00  0.00     0.145 A 
ATOM     17  N   UNL     1       1.164  44.579  55.327  1.00  0.00    -0.201 NA
ATOM     18  N   UNL     1       0.232  44.909  53.168  1.00  0.00    -0.218 NA
ATOM     19  C   UNL     1       0.081  44.597  54.489  1.00  0.00     0.228 A 
ATOM     20  H   UNL     1       1.141  45.659  50.648  1.00  0.00     0.167 HD
BRANCH  15  21
ATOM     21  O   UNL     1       3.497  44.882  55.753  1.00  0.00    -0.493 OA
ATOM     22  H   UNL     1       3.614  44.162  56.456  1.00  0.00     0.295 HD
ENDBRANCH  15  21
ENDBRANCH   9  11
ENDBRANCH   1   7
BRANCH   5  23
ATOM     23  C   UNL     1      10.595  46.020  51.512  1.00  0.00     0.063 C 
BRANCH  23  24
ATOM     24  C   UNL     1       9.965  45.084  50.481  1.00  0.00     0.161 C 
BRANCH  24  25
ATOM     25  O   UNL     1      10.671  43.874  50.433  1.00  0.00    -0.396 OA
ATOM     26  H   UNL     1      10.144  43.228  50.971  1.00  0.00     0.210 HD
ENDBRANCH  24  25
ENDBRANCH  23  24
ENDBRANCH   5  23
TORSDOF 6
ENDMDL
MODEL 5
REMARK VINA RESULT:    -8.056      2.343      3.619
REMARK INTER + INTRA:         -10.948
REMARK INTER:                 -10.213
REMARK INTRA:                  -0.735
REMARK UNBOUND:                -0.537
REMARK SMILES O=C(Nc1cccc(CCO)c1)c1c[nH]c2ncnc(O)c12
REMARK SMILES IDX 4 1 5 2 6 3 7 4 8 5 12 6 3 7 1 8 2 9 13 11 14 12 22 13 15 14
REMARK SMILES IDX 20 15 16 16 19 17 17 18 18 19 21 21 9 23 10 24 11 25
REMARK H PARENT 3 10 15 20 21 22 11 26
ROOT
ATOM      1  C   UNL     1       7.147  46.879  53.162  1.00  0.00     0.041 A 
ATOM      2  C   UNL     1       7.604  47.415  54.374  1.00  0.00     0.026 A 
ATOM      3  C   UNL     1       8.973  47.523  54.628  1.00  0.00     0.002 A 
ATOM      4  C   UNL     1       9.899  47.080  53.681  1.00  0.00     0.004 A 
ATOM      5  C   UNL     1       9.460  46.504  52.479  1.00  0.00    -0.044 A 
ATOM      6  C   UNL     1       8.082  46.408  52.223  1.00  0.00     0.030 A 
ENDROOT
BRANCH   1   7
ATOM      7  N   UNL     1       5.733  46.769  52.932  1.00  0.00    -0.322 N 
ATOM      8  O   UNL     1       5.499  44.571  53.714  1.00  0.00    -0.269 OA
ATOM      9  C   UNL     1       4.966  45.579  53.179  1.00  0.00     0.258 C 
ATOM     10  H   UNL     1       5.252  47.585  52.491  1.00  0.00     0.170 HD
BRANCH   9  11
ATOM     11  C   UNL     1       3.536  45.529  52.839  1.00  0.00     0.072 A 
ATOM     12  C   UNL     1       2.572  46.445  53.255  1.00  0.00     0.099 A 
ATOM     13  C   UNL     1       2.861  44.605  52.057  1.00  0.00     0.093 A 
ATOM     14  N   UNL     1       1.362  46.126  52.740  1.00  0.00    -0.345 N 
ATOM     15  C   UNL     1       3.225  43.411  51.435  1.00  0.00     0.224 A 
ATOM     16  C   UNL     1       1.558  45.012  52.019  1.00  0.00     0.145 A 
ATOM     17  N   UNL     1       2.259  42.722  50.759  1.00  0.00    -0.201 NA
ATOM     18  N   UNL     1       0.603  44.316  51.354  1.00  0.00    -0.218 NA
ATOM     19  C   UNL     1       0.965  43.170  50.708  1.00  0.00     0.228 A 
ATOM     20  H   UNL     1       0.462  46.635  52.885  1.00  0.00     0.167 HD
BRANCH  15  21
ATOM     21  O   UNL     1       4.518  42.907  51.519  1.00  0.00    -0.493 OA
ATOM     22  H   UNL     1       5.265  43.296  50.956  1.00  0.00     0.295 HD
ENDBRANCH  15  21
ENDBRANCH   9  11
ENDBRANCH   1   7
BRANCH   5  23
ATOM     23  C   UNL     1      10.460  46.036  51.453  1.00  0.00     0.063 C 
BRANCH  23  24
ATOM     24  C   UNL     1       9.845  44.999  50.514  1.00  0.00     0.161 C 
BRANCH  24  25
ATOM     25  O   UNL     1      10.660  43.860  50.453  1.00  0.00    -0.396 OA
ATOM     26  H   UNL     1      10.086  43.130  50.102  1.00  0.00     0.210 HD
ENDBRANCH  24  25
ENDBRANCH  23  24
ENDBRANCH   5  23
TORSDOF 6
ENDMDL
