MODEL 1
REMARK VINA RESULT:    -8.921      0.000      0.000
REMARK INTER + INTRA:         -13.163
REMARK INTER:                 -12.572
REMARK INTRA:                  -0.591
REMARK UNBOUND:                -0.591
REMARK SMILES CC(=O)OCC(=O)N1CCn2ncc([S@](C)(=O)=NC(=O)[C@@H]3CC3(C)C)c2C1
REMARK SMILES IDX 8 1 9 2 10 3 11 4 12 5 13 6 14 7 26 8 27 9 6 10 7 11 5 12
REMARK SMILES IDX 4 13 2 14 3 15 1 16 15 17 17 18 18 19 16 20 19 21 20 22
REMARK SMILES IDX 21 23 22 24 23 25 24 26 25 27
REMARK H PARENT
ROOT
ATOM      1  N   UNL     1       4.192  42.493  50.908  1.00  0.00    -0.332 N 
ATOM      2  C   UNL     1       2.760  42.134  50.983  1.00  0.00     0.143 C 
ATOM      3  C   UNL     1       2.225  42.288  52.412  1.00  0.00     0.166 C 
ATOM      4  N   UNL     1       2.628  43.576  52.954  1.00  0.00    -0.265 N 
ATOM      5  N   UNL     1       2.032  44.201  53.957  1.00  0.00    -0.180 NA
ATOM      6  C   UNL     1       2.764  45.302  54.238  1.00  0.00     0.154 A 
ATOM      7  C   UNL     1       3.857  45.349  53.391  1.00  0.00     0.091 A 
ATOM      8  C   UNL     1       3.743  44.229  52.598  1.00  0.00     0.075 A 
ATOM      9  C   UNL     1       4.669  43.750  51.522  1.00  0.00     0.176 C 
ENDROOT
BRANCH   1  10
ATOM     10  C   UNL     1       5.092  41.806  50.006  1.00  0.00     0.261 C 
ATOM     11  O   UNL     1       4.623  41.039  49.120  1.00  0.00    -0.271 OA
BRANCH  10  12
ATOM     12  C   UNL     1       6.585  41.986  50.066  1.00  0.00     0.332 C 
BRANCH  12  13
ATOM     13  O   UNL     1       7.021  42.899  49.059  1.00  0.00    -0.456 OA
BRANCH  13  14
ATOM     14  C   UNL     1       7.897  43.961  49.310  1.00  0.00     0.303 C 
ATOM     15  O   UNL     1       9.122  43.869  49.021  1.00  0.00    -0.253 OA
ATOM     16  C   UNL     1       7.366  45.232  49.876  1.00  0.00     0.139 C 
ENDBRANCH  13  14
ENDBRANCH  12  13
ENDBRANCH  10  12
ENDBRANCH   1  10
BRANCH   7  17
ATOM     17  S   UNL     1       5.146  46.541  53.392  1.00  0.00     0.083 S 
ATOM     18  O   UNL     1       5.550  46.841  51.976  1.00  0.00    -0.244 OA
ATOM     19  N   UNL     1       6.380  45.960  54.175  1.00  0.00    -0.157 NA
ATOM     20  C   UNL     1       4.558  48.029  54.176  1.00  0.00     0.140 C 
BRANCH  19  21
ATOM     21  C   UNL     1       7.601  46.679  54.371  1.00  0.00     0.257 C 
ATOM     22  O   UNL     1       7.611  47.781  54.981  1.00  0.00    -0.272 OA
BRANCH  21  23
ATOM     23  C   UNL     1       8.883  46.136  53.814  1.00  0.00     0.088 C 
ATOM     24  C   UNL     1      10.086  47.080  53.918  1.00  0.00     0.021 C 
ATOM     25  C   UNL     1       9.441  46.820  52.560  1.00  0.00    -0.023 C 
ATOM     26  C   UNL     1      10.242  45.927  51.610  1.00  0.00     0.012 C 
ATOM     27  C   UNL     1       8.684  48.010  51.949  1.00  0.00     0.012 C 
ENDBRANCH  21  23
ENDBRANCH  19  21
ENDBRANCH   7  17
TORSDOF 7
ENDMDL
MODEL 2
REMARK VINA RESULT:    -8.480      4.188      6.456
REMARK INTER + INTRA:         -12.541
REMARK INTER:                 -12.304
REMARK INTRA:                  -0.237
REMARK UNBOUND:                -0.591
REMARK SMILES CC(=O)OCC(=O)N1CCn2ncc([S@](C)(=O)=NC(=O)[C@@H]3CC3(C)C)c2C1
REMARK SMILES IDX 8 1 9 2 10 3 11 4 12 5 13 6 14 7 26 8 27 9 6 10 7 11 5 12
REMARK SMILES IDX 4 13 2 14 3 15 1 16 15 17 17 18 18 19 16 20 19 21 20 22
REMARK SMILES IDX 21 23 22 24 23 25 24 26 25 27
REMARK H PARENT
ROOT
ATOM      1  N   UNL     1       0.326  44.948  54.254  1.00  0.00    -0.332 N 
ATOM      2  C   UNL     1      -0.080  44.301  52.988  1.00  0.00     0.143 C 
ATOM      3  C   UNL     1       0.392  45.111  51.775  1.00  0.00     0.166 C 
ATOM      4  N   UNL     1       1.795  45.464  51.934  1.00  0.00    -0.265 N 
ATOM      5  N   UNL     1       2.615  45.790  50.947  1.00  0.00    -0.180 NA
ATOM      6  C   UNL     1       3.789  46.161  51.504  1.00  0.00     0.154 A 
ATOM      7  C   UNL     1       3.684  46.077  52.882  1.00  0.00     0.091 A 
ATOM      8  C   UNL     1       2.398  45.643  53.117  1.00  0.00     0.075 A 
ATOM      9  C   UNL     1       1.720  45.407  54.432  1.00  0.00     0.176 C 
ENDROOT
BRANCH   1  10
ATOM     10  C   UNL     1      -0.512  44.886  55.432  1.00  0.00     0.261 C 
ATOM     11  O   UNL     1       0.003  45.031  56.575  1.00  0.00    -0.271 OA
BRANCH  10  12
ATOM     12  C   UNL     1      -2.000  44.671  55.351  1.00  0.00     0.332 C 
BRANCH  12  13
ATOM     13  O   UNL     1      -2.344  43.364  55.810  1.00  0.00    -0.456 OA
BRANCH  13  14
ATOM     14  C   UNL     1      -3.023  43.122  57.009  1.00  0.00     0.303 C 
ATOM     15  O   UNL     1      -3.297  41.945  57.369  1.00  0.00    -0.253 OA
ATOM     16  C   UNL     1      -3.380  44.266  57.893  1.00  0.00     0.139 C 
ENDBRANCH  13  14
ENDBRANCH  12  13
ENDBRANCH  10  12
ENDBRANCH   1  10
BRANCH   7  17
ATOM     17  S   UNL     1       4.908  46.510  54.063  1.00  0.00     0.083 S 
ATOM     18  O   UNL     1       4.590  47.861  54.638  1.00  0.00    -0.244 OA
ATOM     19  N   UNL     1       6.310  46.563  53.352  1.00  0.00    -0.157 NA
ATOM     20  C   UNL     1       4.916  45.292  55.362  1.00  0.00     0.140 C 
BRANCH  19  21
ATOM     21  C   UNL     1       7.529  46.880  54.031  1.00  0.00     0.257 C 
ATOM     22  O   UNL     1       7.541  47.698  54.989  1.00  0.00    -0.272 OA
BRANCH  21  23
ATOM     23  C   UNL     1       8.817  46.261  53.577  1.00  0.00     0.088 C 
ATOM     24  C   UNL     1      10.039  47.183  53.648  1.00  0.00     0.021 C 
ATOM     25  C   UNL     1       9.441  46.818  52.293  1.00  0.00    -0.023 C 
ATOM     26  C   UNL     1      10.256  45.826  51.458  1.00  0.00     0.012 C 
ATOM     27  C   UNL     1       8.741  47.966  51.548  1.00  0.00     0.012 C 
ENDBRANCH  21  23
ENDBRANCH  19  21
ENDBRANCH   7  17
TORSDOF 7
ENDMDL
MODEL 3
REMARK VINA RESULT:    -8.457      3.671      6.222
REMARK INTER + INTRA:         -12.509
REMARK INTER:                 -12.249
REMARK INTRA:                  -0.260
REMARK UNBOUND:                -0.591
REMARK SMILES CC(=O)OCC(=O)N1CCn2ncc([S@](C)(=O)=NC(=O)[C@@H]3CC3(C)C)c2C1
REMARK SMILES IDX 8 1 9 2 10 3 11 4 12 5 13 6 14 7 26 8 27 9 6 10 7 11 5 12
REMARK SMILES IDX 4 13 2 14 3 15 1 16 15 17 17 18 18 19 16 20 19 21 20 22
REMARK SMILES IDX 21 23 22 24 23 25 24 26 25 27
REMARK H PARENT
ROOT
ATOM      1  N   UNL     1       0.377  44.957  54.596  1.00  0.00    -0.332 N 
ATOM      2  C   UNL     1      -0.078  44.272  53.367  1.00  0.00     0.143 C 
ATOM      3  C   UNL     1       0.337  45.051  52.113  1.00  0.00     0.166 C 
ATOM      4  N   UNL     1       1.742  45.417  52.202  1.00  0.00    -0.265 N 
ATOM      5  N   UNL     1       2.517  45.720  51.173  1.00  0.00    -0.180 NA
ATOM      6  C   UNL     1       3.711  46.114  51.669  1.00  0.00     0.154 A 
ATOM      7  C   UNL     1       3.666  46.068  53.051  1.00  0.00     0.091 A 
ATOM      8  C   UNL     1       2.394  45.632  53.353  1.00  0.00     0.075 A 
ATOM      9  C   UNL     1       1.773  45.429  54.701  1.00  0.00     0.176 C 
ENDROOT
BRANCH   1  10
ATOM     10  C   UNL     1      -0.410  44.922  55.810  1.00  0.00     0.261 C 
ATOM     11  O   UNL     1      -1.623  44.575  55.759  1.00  0.00    -0.271 OA
BRANCH  10  12
ATOM     12  C   UNL     1       0.169  45.266  57.156  1.00  0.00     0.332 C 
BRANCH  12  13
ATOM     13  O   UNL     1      -0.483  46.411  57.704  1.00  0.00    -0.456 OA
BRANCH  13  14
ATOM     14  C   UNL     1       0.079  47.213  58.704  1.00  0.00     0.303 C 
ATOM     15  O   UNL     1       1.242  46.985  59.137  1.00  0.00    -0.253 OA
ATOM     16  C   UNL     1      -0.686  48.381  59.224  1.00  0.00     0.139 C 
ENDBRANCH  13  14
ENDBRANCH  12  13
ENDBRANCH  10  12
ENDBRANCH   1  10
BRANCH   7  17
ATOM     17  S   UNL     1       4.935  46.541  54.167  1.00  0.00     0.083 S 
ATOM     18  O   UNL     1       4.638  47.911  54.709  1.00  0.00    -0.244 OA
ATOM     19  N   UNL     1       6.307  46.572  53.398  1.00  0.00    -0.157 NA
ATOM     20  C   UNL     1       4.999  45.367  55.505  1.00  0.00     0.140 C 
BRANCH  19  21
ATOM     21  C   UNL     1       7.551  46.912  54.016  1.00  0.00     0.257 C 
ATOM     22  O   UNL     1       7.600  47.762  54.946  1.00  0.00    -0.272 OA
BRANCH  21  23
ATOM     23  C   UNL     1       8.822  46.280  53.532  1.00  0.00     0.088 C 
ATOM     24  C   UNL     1      10.058  47.183  53.588  1.00  0.00     0.021 C 
ATOM     25  C   UNL     1       9.429  46.840  52.241  1.00  0.00    -0.023 C 
ATOM     26  C   UNL     1      10.213  45.846  51.381  1.00  0.00     0.012 C 
ATOM     27  C   UNL     1       8.732  48.006  51.521  1.00  0.00     0.012 C 
ENDBRANCH  21  23
ENDBRANCH  19  21
ENDBRANCH   7  17
TORSDOF 7
ENDMDL
MODEL 4
REMARK VINA RESULT:    -7.862      2.614      6.852
REMARK INTER + INTRA:         -11.671
REMARK INTER:                 -11.085
REMARK INTRA:                  -0.586
REMARK UNBOUND:                -0.591
REMARK SMILES CC(=O)OCC(=O)N1CCn2ncc([S@](C)(=O)=NC(=O)[C@@H]3CC3(C)C)c2C1
REMARK SMILES IDX 8 1 9 2 10 3 11 4 12 5 13 6 14 7 26 8 27 9 6 10 7 11 5 12
REMARK SMILES IDX 4 13 2 14 3 15 1 16 15 17 17 18 18 19 16 20 19 21 20 22
REMARK SMILES IDX 21 23 22 24 23 25 24 26 25 27
REMARK H PARENT
ROOT
ATOM      1  N   UNL     1       7.699  46.050  51.235  1.00  0.00    -0.332 N 
ATOM      2  C   UNL     1       7.899  45.387  49.928  1.00  0.00     0.143 C 
ATOM      3  C   UNL     1       7.466  43.917  49.982  1.00  0.00     0.166 C 
ATOM      4  N   UNL     1       6.152  43.812  50.599  1.00  0.00    -0.265 N 
ATOM      5  N   UNL     1       5.319  42.795  50.448  1.00  0.00    -0.180 NA
ATOM      6  C   UNL     1       4.264  43.014  51.264  1.00  0.00     0.154 A 
ATOM      7  C   UNL     1       4.461  44.197  51.954  1.00  0.00     0.091 A 
ATOM      8  C   UNL     1       5.678  44.669  51.514  1.00  0.00     0.075 A 
ATOM      9  C   UNL     1       6.412  45.901  51.946  1.00  0.00     0.176 C 
ENDROOT
BRANCH   1  10
ATOM     10  C   UNL     1       8.607  47.076  51.702  1.00  0.00     0.261 C 
ATOM     11  O   UNL     1       8.299  48.292  51.567  1.00  0.00    -0.271 OA
BRANCH  10  12
ATOM     12  C   UNL     1       9.914  46.749  52.373  1.00  0.00     0.332 C 
BRANCH  12  13
ATOM     13  O   UNL     1       9.699  46.373  53.733  1.00  0.00    -0.456 OA
BRANCH  13  14
ATOM     14  C   UNL     1       9.558  47.296  54.775  1.00  0.00     0.303 C 
ATOM     15  O   UNL     1       8.471  47.914  54.947  1.00  0.00    -0.253 OA
ATOM     16  C   UNL     1      10.687  47.513  55.721  1.00  0.00     0.139 C 
ENDBRANCH  13  14
ENDBRANCH  12  13
ENDBRANCH  10  12
ENDBRANCH   1  10
BRANCH   7  17
ATOM     17  S   UNL     1       3.416  44.893  53.181  1.00  0.00     0.083 S 
ATOM     18  O   UNL     1       4.184  45.043  54.464  1.00  0.00    -0.244 OA
ATOM     19  N   UNL     1       2.192  43.933  53.415  1.00  0.00    -0.157 NA
ATOM     20  C   UNL     1       2.856  46.490  52.627  1.00  0.00     0.140 C 
BRANCH  19  21
ATOM     21  C   UNL     1       1.142  44.205  54.347  1.00  0.00     0.257 C 
ATOM     22  O   UNL     1       1.318  45.007  55.303  1.00  0.00    -0.272 OA
BRANCH  21  23
ATOM     23  C   UNL     1      -0.176  43.502  54.212  1.00  0.00     0.088 C 
ATOM     24  C   UNL     1      -0.384  42.766  52.883  1.00  0.00     0.021 C 
ATOM     25  C   UNL     1      -1.152  44.053  53.167  1.00  0.00    -0.023 C 
ATOM     26  C   UNL     1      -2.640  43.877  53.481  1.00  0.00     0.012 C 
ATOM     27  C   UNL     1      -0.745  45.267  52.317  1.00  0.00     0.012 C 
ENDBRANCH  21  23
ENDBRANCH  19  21
ENDBRANCH   7  17
TORSDOF 7
ENDMDL
MODEL 5
REMARK VINA RESULT:    -7.860      1.602      2.215
REMARK INTER + INTRA:         -11.668
REMARK INTER:                 -11.881
REMARK INTRA:                   0.213
REMARK UNBOUND:                -0.591
REMARK SMILES CC(=O)OCC(=O)N1CCn2ncc([S@](C)(=O)=NC(=O)[C@@H]3CC3(C)C)c2C1
REMARK SMILES IDX 8 1 9 2 10 3 11 4 12 5 13 6 14 7 26 8 27 9 6 10 7 11 5 12
REMARK SMILES IDX 4 13 2 14 3 15 1 16 15 17 17 18 18 19 16 20 19 21 20 22
REMARK SMILES IDX 21 23 22 24 23 25 24 26 25 27
REMARK H PARENT
ROOT
ATOM      1  N   UNL     1       2.893  42.577  51.460  1.00  0.00    -0.332 N 
ATOM      2  C   UNL     1       1.426  42.633  51.632  1.00  0.00     0.143 C 
ATOM      3  C   UNL     1       1.050  42.919  53.090  1.00  0.00     0.166 C 
ATOM      4  N   UNL     1       1.832  44.039  53.590  1.00  0.00    -0.265 N 
ATOM      5  N   UNL     1       1.502  44.799  54.624  1.00  0.00    -0.180 NA
ATOM      6  C   UNL     1       2.529  45.648  54.844  1.00  0.00     0.154 A 
ATOM      7  C   UNL     1       3.534  45.394  53.928  1.00  0.00     0.091 A 
ATOM      8  C   UNL     1       3.060  44.356  53.156  1.00  0.00     0.075 A 
ATOM      9  C   UNL     1       3.742  43.645  52.027  1.00  0.00     0.176 C 
ENDROOT
BRANCH   1  10
ATOM     10  C   UNL     1       3.504  41.673  50.509  1.00  0.00     0.261 C 
ATOM     11  O   UNL     1       2.807  41.180  49.579  1.00  0.00    -0.271 OA
BRANCH  10  12
ATOM     12  C   UNL     1       4.962  41.305  50.569  1.00  0.00     0.332 C 
BRANCH  12  13
ATOM     13  O   UNL     1       5.487  41.121  49.254  1.00  0.00    -0.456 OA
BRANCH  13  14
ATOM     14  C   UNL     1       6.162  42.123  48.547  1.00  0.00     0.303 C 
ATOM     15  O   UNL     1       6.022  42.238  47.299  1.00  0.00    -0.253 OA
ATOM     16  C   UNL     1       7.014  43.095  49.287  1.00  0.00     0.139 C 
ENDBRANCH  13  14
ENDBRANCH  12  13
ENDBRANCH  10  12
ENDBRANCH   1  10
BRANCH   7  17
ATOM     17  S   UNL     1       5.102  46.177  53.832  1.00  0.00     0.083 S 
ATOM     18  O   UNL     1       4.955  47.631  54.182  1.00  0.00    -0.244 OA
ATOM     19  N   UNL     1       5.650  46.047  52.364  1.00  0.00    -0.157 NA
ATOM     20  C   UNL     1       6.213  45.393  54.982  1.00  0.00     0.140 C 
BRANCH  19  21
ATOM     21  C   UNL     1       6.913  46.572  51.943  1.00  0.00     0.257 C 
ATOM     22  O   UNL     1       7.479  46.138  50.904  1.00  0.00    -0.272 OA
BRANCH  21  23
ATOM     23  C   UNL     1       7.592  47.628  52.763  1.00  0.00     0.088 C 
ATOM     24  C   UNL     1       8.812  48.278  52.101  1.00  0.00     0.021 C 
ATOM     25  C   UNL     1       9.005  47.314  53.267  1.00  0.00    -0.023 C 
ATOM     26  C   UNL     1       9.402  47.959  54.597  1.00  0.00     0.012 C 
ATOM     27  C   UNL     1       9.653  45.967  52.910  1.00  0.00     0.012 C 
ENDBRANCH  21  23
ENDBRANCH  19  21
ENDBRANCH   7  17
TORSDOF 7
ENDMDL
