MODEL 1
REMARK VINA RESULT:    -8.110      0.000      0.000
REMARK INTER + INTRA:         -10.873
REMARK INTER:                 -10.481
REMARK INTRA:                  -0.392
REMARK UNBOUND:                -0.392
REMARK SMILES CO[C@]1(c2nnc3n2CCN(C(=O)OC(C)(C)C)C3)CCOC1
REMARK SMILES IDX 4 1 5 2 6 3 7 4 19 5 11 6 10 7 9 8 8 9 3 10 20 11 23 12
REMARK SMILES IDX 21 13 22 14 2 15 1 16 12 17 13 18 14 19 15 20 16 21 17 22
REMARK SMILES IDX 18 23
REMARK H PARENT
ROOT
ATOM      1  C   UNL     1       2.365  45.724  53.441  1.00  0.00     0.167 A 
ATOM      2  N   UNL     1       1.984  46.790  52.701  1.00  0.00    -0.132 NA
ATOM      3  N   UNL     1       3.032  47.596  52.593  1.00  0.00    -0.133 NA
ATOM      4  C   UNL     1       4.034  47.016  53.279  1.00  0.00     0.152 A 
ATOM      5  C   UNL     1       5.415  47.573  53.422  1.00  0.00     0.200 C 
ATOM      6  N   UNL     1       6.274  46.668  54.206  1.00  0.00    -0.299 N 
ATOM      7  C   UNL     1       5.674  45.766  55.210  1.00  0.00     0.145 C 
ATOM      8  C   UNL     1       4.513  44.970  54.603  1.00  0.00     0.147 C 
ATOM      9  N   UNL     1       3.648  45.863  53.840  1.00  0.00    -0.309 N 
ENDROOT
BRANCH   1  10
ATOM     10  C   UNL     1       1.451  44.574  53.834  1.00  0.00     0.153 C 
ATOM     11  C   UNL     1       0.015  44.789  53.359  1.00  0.00     0.075 C 
ATOM     12  C   UNL     1       1.843  43.305  53.067  1.00  0.00     0.204 C 
ATOM     13  C   UNL     1      -0.407  43.429  52.814  1.00  0.00     0.164 C 
ATOM     14  O   UNL     1       0.685  42.536  52.852  1.00  0.00    -0.378 OA
BRANCH  10  15
ATOM     15  O   UNL     1       1.548  44.447  55.255  1.00  0.00    -0.368 OA
ATOM     16  C   UNL     1       0.605  45.204  55.993  1.00  0.00     0.196 C 
ENDBRANCH  10  15
ENDBRANCH   1  10
BRANCH   6  17
ATOM     17  C   UNL     1       7.698  46.886  54.185  1.00  0.00     0.410 C 
ATOM     18  O   UNL     1       8.224  47.712  54.980  1.00  0.00    -0.224 OA
BRANCH  17  19
ATOM     19  O   UNL     1       8.493  46.172  53.273  1.00  0.00    -0.444 OA
BRANCH  19  20
ATOM     20  C   UNL     1       8.775  46.540  51.915  1.00  0.00     0.106 C 
ATOM     21  C   UNL     1       7.888  45.740  50.940  1.00  0.00     0.056 C 
ATOM     22  C   UNL     1      10.247  46.190  51.646  1.00  0.00     0.056 C 
ATOM     23  C   UNL     1       8.579  48.054  51.712  1.00  0.00     0.056 C 
ENDBRANCH  19  20
ENDBRANCH  17  19
ENDBRANCH   6  17
TORSDOF 5
ENDMDL
MODEL 2
REMARK VINA RESULT:    -7.651      0.998      1.877
REMARK INTER + INTRA:         -10.279
REMARK INTER:                 -10.058
REMARK INTRA:                  -0.220
REMARK UNBOUND:                -0.392
REMARK SMILES CO[C@]1(c2nnc3n2CCN(C(=O)OC(C)(C)C)C3)CCOC1
REMARK SMILES IDX 4 1 5 2 6 3 7 4 19 5 11 6 10 7 9 8 8 9 3 10 20 11 23 12
REMARK SMILES IDX 21 13 22 14 2 15 1 16 12 17 13 18 14 19 15 20 16 21 17 22
REMARK SMILES IDX 18 23
REMARK H PARENT
ROOT
ATOM      1  C   UNL     1       1.767  45.667  53.573  1.00  0.00     0.167 A 
ATOM      2  N   UNL     1       1.433  46.585  52.638  1.00  0.00    -0.132 NA
ATOM      3  N   UNL     1       2.507  47.329  52.407  1.00  0.00    -0.133 NA
ATOM      4  C   UNL     1       3.477  46.861  53.213  1.00  0.00     0.152 A 
ATOM      5  C   UNL     1       4.872  47.399  53.282  1.00  0.00     0.200 C 
ATOM      6  N   UNL     1       5.689  46.634  54.242  1.00  0.00    -0.299 N 
ATOM      7  C   UNL     1       5.043  45.953  55.382  1.00  0.00     0.145 C 
ATOM      8  C   UNL     1       3.869  45.088  54.908  1.00  0.00     0.147 C 
ATOM      9  N   UNL     1       3.046  45.844  53.970  1.00  0.00    -0.309 N 
ENDROOT
BRANCH   1  10
ATOM     10  C   UNL     1       0.812  44.636  54.152  1.00  0.00     0.153 C 
ATOM     11  C   UNL     1       0.507  44.895  55.627  1.00  0.00     0.075 C 
ATOM     12  C   UNL     1      -0.576  44.791  53.518  1.00  0.00     0.204 C 
ATOM     13  C   UNL     1      -0.997  44.672  55.743  1.00  0.00     0.164 C 
ATOM     14  O   UNL     1      -1.546  44.422  54.467  1.00  0.00    -0.378 OA
BRANCH  10  15
ATOM     15  O   UNL     1       1.412  43.357  53.930  1.00  0.00    -0.368 OA
ATOM     16  C   UNL     1       1.094  42.750  52.690  1.00  0.00     0.196 C 
ENDBRANCH  10  15
ENDBRANCH   1  10
BRANCH   6  17
ATOM     17  C   UNL     1       7.119  46.807  54.214  1.00  0.00     0.410 C 
ATOM     18  O   UNL     1       7.676  47.605  55.016  1.00  0.00    -0.224 OA
BRANCH  17  19
ATOM     19  O   UNL     1       7.885  46.079  53.288  1.00  0.00    -0.444 OA
BRANCH  19  20
ATOM     20  C   UNL     1       8.469  46.584  52.078  1.00  0.00     0.106 C 
ATOM     21  C   UNL     1      10.001  46.426  52.106  1.00  0.00     0.056 C 
ATOM     22  C   UNL     1       8.127  48.080  52.000  1.00  0.00     0.056 C 
ATOM     23  C   UNL     1       7.871  45.873  50.849  1.00  0.00     0.056 C 
ENDBRANCH  19  20
ENDBRANCH  17  19
ENDBRANCH   6  17
TORSDOF 5
ENDMDL
MODEL 3
REMARK VINA RESULT:    -7.393      1.624      2.140
REMARK INTER + INTRA:          -9.946
REMARK INTER:                 -10.081
REMARK INTRA:                   0.135
REMARK UNBOUND:                -0.392
REMARK SMILES CO[C@]1(c2nnc3n2CCN(C(=O)OC(C)(C)C)C3)CCOC1
REMARK SMILES IDX 4 1 5 2 6 3 7 4 19 5 11 6 10 7 9 8 8 9 3 10 20 11 23 12
REMARK SMILES IDX 21 13 22 14 2 15 1 16 12 17 13 18 14 19 15 20 16 21 17 22
REMARK SMILES IDX 18 23
REMARK H PARENT
ROOT
ATOM      1  C   UNL     1       2.198  43.626  53.108  1.00  0.00     0.167 A 
ATOM      2  N   UNL     1       2.661  42.679  52.260  1.00  0.00    -0.132 NA
ATOM      3  N   UNL     1       3.940  42.940  52.030  1.00  0.00    -0.133 NA
ATOM      4  C   UNL     1       4.237  44.050  52.730  1.00  0.00     0.152 A 
ATOM      5  C   UNL     1       5.581  44.706  52.774  1.00  0.00     0.200 C 
ATOM      6  N   UNL     1       5.570  45.879  53.666  1.00  0.00    -0.299 N 
ATOM      7  C   UNL     1       4.315  46.625  53.890  1.00  0.00     0.145 C 
ATOM      8  C   UNL     1       3.178  45.674  54.283  1.00  0.00     0.147 C 
ATOM      9  N   UNL     1       3.172  44.518  53.393  1.00  0.00    -0.309 N 
ENDROOT
BRANCH   1  10
ATOM     10  C   UNL     1       0.763  43.717  53.602  1.00  0.00     0.153 C 
ATOM     11  C   UNL     1      -0.053  44.745  52.820  1.00  0.00     0.075 C 
ATOM     12  C   UNL     1       0.013  42.419  53.281  1.00  0.00     0.204 C 
ATOM     13  C   UNL     1      -1.390  44.054  52.576  1.00  0.00     0.164 C 
ATOM     14  O   UNL     1      -1.340  42.727  53.054  1.00  0.00    -0.378 OA
BRANCH  10  15
ATOM     15  O   UNL     1       0.834  44.017  54.999  1.00  0.00    -0.368 OA
ATOM     16  C   UNL     1      -0.096  44.983  55.455  1.00  0.00     0.196 C 
ENDBRANCH  10  15
ENDBRANCH   1  10
BRANCH   6  17
ATOM     17  C   UNL     1       6.833  46.446  54.069  1.00  0.00     0.410 C 
ATOM     18  O   UNL     1       6.873  47.321  54.975  1.00  0.00    -0.224 OA
BRANCH  17  19
ATOM     19  O   UNL     1       8.014  46.013  53.444  1.00  0.00    -0.444 OA
BRANCH  19  20
ATOM     20  C   UNL     1       9.059  46.848  52.922  1.00  0.00     0.106 C 
ATOM     21  C   UNL     1       8.466  48.006  52.095  1.00  0.00     0.056 C 
ATOM     22  C   UNL     1       9.921  45.972  52.000  1.00  0.00     0.056 C 
ATOM     23  C   UNL     1       9.941  47.390  54.063  1.00  0.00     0.056 C 
ENDBRANCH  19  20
ENDBRANCH  17  19
ENDBRANCH   6  17
TORSDOF 5
ENDMDL
MODEL 4
REMARK VINA RESULT:    -7.175      1.880      7.212
REMARK INTER + INTRA:          -9.664
REMARK INTER:                  -9.621
REMARK INTRA:                  -0.043
REMARK UNBOUND:                -0.392
REMARK SMILES CO[C@]1(c2nnc3n2CCN(C(=O)OC(C)(C)C)C3)CCOC1
REMARK SMILES IDX 4 1 5 2 6 3 7 4 19 5 11 6 10 7 9 8 8 9 3 10 20 11 23 12
REMARK SMILES IDX 21 13 22 14 2 15 1 16 12 17 13 18 14 19 15 20 16 21 17 22
REMARK SMILES IDX 18 23
REMARK H PARENT
ROOT
ATOM      1  C   UNL     1       6.982  46.790  53.792  1.00  0.00     0.167 A 
ATOM      2  N   UNL     1       6.326  47.305  54.857  1.00  0.00    -0.132 NA
ATOM      3  N   UNL     1       5.163  46.674  54.952  1.00  0.00    -0.133 NA
ATOM      4  C   UNL     1       5.121  45.792  53.937  1.00  0.00     0.152 A 
ATOM      5  C   UNL     1       3.990  44.852  53.660  1.00  0.00     0.200 C 
ATOM      6  N   UNL     1       4.284  43.998  52.495  1.00  0.00    -0.299 N 
ATOM      7  C   UNL     1       5.193  44.480  51.436  1.00  0.00     0.145 C 
ATOM      8  C   UNL     1       6.508  44.992  52.038  1.00  0.00     0.147 C 
ATOM      9  N   UNL     1       6.225  45.853  53.181  1.00  0.00    -0.309 N 
ENDROOT
BRANCH   1  10
ATOM     10  C   UNL     1       8.344  47.260  53.307  1.00  0.00     0.153 C 
ATOM     11  C   UNL     1       9.366  46.125  53.265  1.00  0.00     0.075 C 
ATOM     12  C   UNL     1       8.266  47.659  51.828  1.00  0.00     0.204 C 
ATOM     13  C   UNL     1      10.099  46.329  51.943  1.00  0.00     0.164 C 
ATOM     14  O   UNL     1       9.508  47.391  51.226  1.00  0.00    -0.378 OA
BRANCH  10  15
ATOM     15  O   UNL     1       8.739  48.325  54.177  1.00  0.00    -0.368 OA
ATOM     16  C   UNL     1       9.698  47.976  55.159  1.00  0.00     0.196 C 
ENDBRANCH  10  15
ENDBRANCH   1  10
BRANCH   6  17
ATOM     17  C   UNL     1       3.457  42.839  52.270  1.00  0.00     0.410 C 
ATOM     18  O   UNL     1       3.871  41.899  51.537  1.00  0.00    -0.224 OA
BRANCH  17  19
ATOM     19  O   UNL     1       2.190  42.766  52.873  1.00  0.00    -0.444 OA
BRANCH  19  20
ATOM     20  C   UNL     1       0.950  43.220  52.311  1.00  0.00     0.106 C 
ATOM     21  C   UNL     1       0.534  44.569  52.930  1.00  0.00     0.056 C 
ATOM     22  C   UNL     1      -0.115  42.167  52.655  1.00  0.00     0.056 C 
ATOM     23  C   UNL     1       1.059  43.334  50.778  1.00  0.00     0.056 C 
ENDBRANCH  19  20
ENDBRANCH  17  19
ENDBRANCH   6  17
TORSDOF 5
ENDMDL
MODEL 5
REMARK VINA RESULT:    -6.634      1.792      7.309
REMARK INTER + INTRA:          -8.965
REMARK INTER:                  -8.837
REMARK INTRA:                  -0.128
REMARK UNBOUND:                -0.392
REMARK SMILES CO[C@]1(c2nnc3n2CCN(C(=O)OC(C)(C)C)C3)CCOC1
REMARK SMILES IDX 4 1 5 2 6 3 7 4 19 5 11 6 10 7 9 8 8 9 3 10 20 11 23 12
REMARK SMILES IDX 21 13 22 14 2 15 1 16 12 17 13 18 14 19 15 20 16 21 17 22
REMARK SMILES IDX 18 23
REMARK H PARENT
ROOT
ATOM      1  C   UNL     1       7.461  46.189  52.234  1.00  0.00     0.167 A 
ATOM      2  N   UNL     1       7.267  45.793  50.955  1.00  0.00    -0.132 NA
ATOM      3  N   UNL     1       6.041  45.292  50.874  1.00  0.00    -0.133 NA
ATOM      4  C   UNL     1       5.510  45.379  52.107  1.00  0.00     0.152 A 
ATOM      5  C   UNL     1       4.131  44.937  52.482  1.00  0.00     0.200 C 
ATOM      6  N   UNL     1       3.855  45.208  53.905  1.00  0.00    -0.299 N 
ATOM      7  C   UNL     1       4.966  45.253  54.876  1.00  0.00     0.145 C 
ATOM      8  C   UNL     1       6.082  46.184  54.386  1.00  0.00     0.147 C 
ATOM      9  N   UNL     1       6.373  45.909  52.983  1.00  0.00    -0.309 N 
ENDROOT
BRANCH   1  10
ATOM     10  C   UNL     1       8.753  46.789  52.766  1.00  0.00     0.153 C 
ATOM     11  C   UNL     1       8.524  48.130  53.459  1.00  0.00     0.075 C 
ATOM     12  C   UNL     1       9.294  45.933  53.918  1.00  0.00     0.204 C 
ATOM     13  C   UNL     1       9.386  48.054  54.716  1.00  0.00     0.164 C 
ATOM     14  O   UNL     1       9.971  46.774  54.820  1.00  0.00    -0.378 OA
BRANCH  10  15
ATOM     15  O   UNL     1       9.642  46.890  51.649  1.00  0.00    -0.368 OA
ATOM     16  C   UNL     1      10.677  45.924  51.616  1.00  0.00     0.196 C 
ENDBRANCH  10  15
ENDBRANCH   1  10
BRANCH   6  17
ATOM     17  C   UNL     1       2.491  45.135  54.364  1.00  0.00     0.410 C 
ATOM     18  O   UNL     1       2.244  44.967  55.589  1.00  0.00    -0.224 OA
BRANCH  17  19
ATOM     19  O   UNL     1       1.442  45.254  53.437  1.00  0.00    -0.444 OA
BRANCH  19  20
ATOM     20  C   UNL     1       0.543  44.213  53.026  1.00  0.00     0.106 C 
ATOM     21  C   UNL     1       0.241  44.320  51.519  1.00  0.00     0.056 C 
ATOM     22  C   UNL     1      -0.764  44.408  53.809  1.00  0.00     0.056 C 
ATOM     23  C   UNL     1       1.126  42.828  53.368  1.00  0.00     0.056 C 
ENDBRANCH  19  20
ENDBRANCH  17  19
ENDBRANCH   6  17
TORSDOF 5
ENDMDL
