MODEL 1
REMARK VINA RESULT:   -10.039      0.000      0.000
REMARK INTER + INTRA:         -12.443
REMARK INTER:                 -12.387
REMARK INTRA:                  -0.056
REMARK UNBOUND:                -0.056
REMARK SMILES O=C(Nc1nc2ccccc2n1C1CCCC1)c1coc(C2CCOCC2)n1
REMARK SMILES IDX 1 1 2 2 3 3 18 5 19 6 28 7 20 8 21 9 22 10 23 11 27 12 24 13
REMARK SMILES IDX 26 14 25 15 4 16 5 17 12 18 6 19 11 20 7 21 10 22 8 23 9 24
REMARK SMILES IDX 13 25 14 26 17 27 15 28 16 29
REMARK H PARENT 3 4
ROOT
ATOM      1  O   UNL     1       4.546  44.573  55.368  1.00  0.00    -0.267 OA
ATOM      2  C   UNL     1       3.833  45.383  54.714  1.00  0.00     0.279 C 
ATOM      3  N   UNL     1       4.435  46.346  53.833  1.00  0.00    -0.290 N 
ATOM      4  H   UNL     1       3.794  46.972  53.307  1.00  0.00     0.173 HD
ENDROOT
BRANCH   2   5
ATOM      5  C   UNL     1       2.369  45.330  54.848  1.00  0.00     0.167 A 
ATOM      6  C   UNL     1       1.447  45.428  53.828  1.00  0.00     0.231 A 
ATOM      7  N   UNL     1       1.726  45.180  56.020  1.00  0.00    -0.208 NA
ATOM      8  O   UNL     1       0.256  45.341  54.367  1.00  0.00    -0.448 OA
ATOM      9  C   UNL     1       0.425  45.199  55.663  1.00  0.00     0.198 A 
BRANCH   9  10
ATOM     10  C   UNL     1      -0.708  45.043  56.639  1.00  0.00     0.080 C 
ATOM     11  C   UNL     1      -1.189  46.427  57.119  1.00  0.00     0.042 C 
ATOM     12  C   UNL     1      -1.868  44.221  56.035  1.00  0.00     0.042 C 
ATOM     13  C   UNL     1      -2.662  46.356  57.554  1.00  0.00     0.161 C 
ATOM     14  C   UNL     1      -2.980  45.147  55.511  1.00  0.00     0.161 C 
ATOM     15  O   UNL     1      -3.559  45.972  56.515  1.00  0.00    -0.381 OA
ENDBRANCH   9  10
ENDBRANCH   2   5
BRANCH   3  16
ATOM     16  C   UNL     1       5.854  46.485  53.639  1.00  0.00     0.211 A 
ATOM     17  N   UNL     1       6.663  47.068  54.562  1.00  0.00    -0.213 NA
ATOM     18  N   UNL     1       6.517  46.063  52.518  1.00  0.00    -0.307 N 
ATOM     19  C   UNL     1       7.875  47.006  53.988  1.00  0.00     0.091 A 
ATOM     20  C   UNL     1       7.798  46.410  52.762  1.00  0.00     0.070 A 
ATOM     21  C   UNL     1       9.078  47.473  54.513  1.00  0.00     0.031 A 
ATOM     22  C   UNL     1       8.936  46.240  51.963  1.00  0.00     0.028 A 
ATOM     23  C   UNL     1      10.238  47.313  53.735  1.00  0.00     0.002 A 
ATOM     24  C   UNL     1      10.167  46.701  52.465  1.00  0.00     0.002 A 
BRANCH  18  25
ATOM     25  C   UNL     1       5.991  45.400  51.307  1.00  0.00     0.091 C 
ATOM     26  C   UNL     1       7.051  45.228  50.212  1.00  0.00     0.025 C 
ATOM     27  C   UNL     1       5.419  44.015  51.605  1.00  0.00     0.025 C 
ATOM     28  C   UNL     1       6.971  43.777  49.745  1.00  0.00     0.002 C 
ATOM     29  C   UNL     1       5.717  43.180  50.371  1.00  0.00     0.002 C 
ENDBRANCH  18  25
ENDBRANCH   3  16
TORSDOF 4
ENDMDL
MODEL 2
REMARK VINA RESULT:    -9.916      2.138      2.667
REMARK INTER + INTRA:         -12.291
REMARK INTER:                 -12.382
REMARK INTRA:                   0.091
REMARK UNBOUND:                -0.056
REMARK SMILES O=C(Nc1nc2ccccc2n1C1CCCC1)c1coc(C2CCOCC2)n1
REMARK SMILES IDX 1 1 2 2 3 3 18 5 19 6 28 7 20 8 21 9 22 10 23 11 27 12 24 13
REMARK SMILES IDX 26 14 25 15 4 16 5 17 12 18 6 19 11 20 7 21 10 22 8 23 9 24
REMARK SMILES IDX 13 25 14 26 17 27 15 28 16 29
REMARK H PARENT 3 4
ROOT
ATOM      1  O   UNL     1       3.425  47.508  53.081  1.00  0.00    -0.267 OA
ATOM      2  C   UNL     1       3.242  46.274  53.268  1.00  0.00     0.279 C 
ATOM      3  N   UNL     1       4.358  45.377  53.394  1.00  0.00    -0.290 N 
ATOM      4  H   UNL     1       4.141  44.375  53.566  1.00  0.00     0.173 HD
ENDROOT
BRANCH   2   5
ATOM      5  C   UNL     1       1.870  45.754  53.369  1.00  0.00     0.167 A 
ATOM      6  C   UNL     1       1.210  45.397  54.526  1.00  0.00     0.231 A 
ATOM      7  N   UNL     1       1.063  45.549  52.313  1.00  0.00    -0.208 NA
ATOM      8  O   UNL     1       0.017  44.979  54.184  1.00  0.00    -0.448 OA
ATOM      9  C   UNL     1      -0.065  45.065  52.874  1.00  0.00     0.198 A 
BRANCH   9  10
ATOM     10  C   UNL     1      -1.293  44.696  52.090  1.00  0.00     0.080 C 
ATOM     11  C   UNL     1      -1.303  43.182  51.803  1.00  0.00     0.042 C 
ATOM     12  C   UNL     1      -2.584  45.141  52.814  1.00  0.00     0.042 C 
ATOM     13  C   UNL     1      -2.746  42.686  51.613  1.00  0.00     0.161 C 
ATOM     14  C   UNL     1      -3.212  43.966  53.582  1.00  0.00     0.161 C 
ATOM     15  O   UNL     1      -3.581  42.870  52.753  1.00  0.00    -0.381 OA
ENDBRANCH   9  10
ENDBRANCH   2   5
BRANCH   3  16
ATOM     16  C   UNL     1       5.735  45.784  53.300  1.00  0.00     0.211 A 
ATOM     17  N   UNL     1       6.385  46.397  54.324  1.00  0.00    -0.213 NA
ATOM     18  N   UNL     1       6.509  45.611  52.184  1.00  0.00    -0.307 N 
ATOM     19  C   UNL     1       7.610  46.614  53.820  1.00  0.00     0.091 A 
ATOM     20  C   UNL     1       7.694  46.151  52.537  1.00  0.00     0.070 A 
ATOM     21  C   UNL     1       8.685  47.226  54.459  1.00  0.00     0.031 A 
ATOM     22  C   UNL     1       8.875  46.274  51.795  1.00  0.00     0.028 A 
ATOM     23  C   UNL     1       9.886  47.361  53.740  1.00  0.00     0.002 A 
ATOM     24  C   UNL     1       9.980  46.887  52.414  1.00  0.00     0.002 A 
BRANCH  18  25
ATOM     25  C   UNL     1       6.162  45.002  50.884  1.00  0.00     0.091 C 
ATOM     26  C   UNL     1       7.359  44.910  49.929  1.00  0.00     0.025 C 
ATOM     27  C   UNL     1       5.595  43.592  51.036  1.00  0.00     0.025 C 
ATOM     28  C   UNL     1       7.380  43.483  49.385  1.00  0.00     0.002 C 
ATOM     29  C   UNL     1       6.072  42.829  49.812  1.00  0.00     0.002 C 
ENDBRANCH  18  25
ENDBRANCH   3  16
TORSDOF 4
ENDMDL
MODEL 3
REMARK VINA RESULT:    -9.714      2.353      8.586
REMARK INTER + INTRA:         -12.041
REMARK INTER:                 -11.206
REMARK INTRA:                  -0.835
REMARK UNBOUND:                -0.056
REMARK SMILES O=C(Nc1nc2ccccc2n1C1CCCC1)c1coc(C2CCOCC2)n1
REMARK SMILES IDX 1 1 2 2 3 3 18 5 19 6 28 7 20 8 21 9 22 10 23 11 27 12 24 13
REMARK SMILES IDX 26 14 25 15 4 16 5 17 12 18 6 19 11 20 7 21 10 22 8 23 9 24
REMARK SMILES IDX 13 25 14 26 17 27 15 28 16 29
REMARK H PARENT 3 4
ROOT
ATOM      1  O   UNL     1       2.129  47.091  52.713  1.00  0.00    -0.267 OA
ATOM      2  C   UNL     1       3.062  46.377  53.174  1.00  0.00     0.279 C 
ATOM      3  N   UNL     1       2.801  45.394  54.191  1.00  0.00    -0.290 N 
ATOM      4  H   UNL     1       3.608  44.825  54.515  1.00  0.00     0.173 HD
ENDROOT
BRANCH   2   5
ATOM      5  C   UNL     1       4.428  46.548  52.655  1.00  0.00     0.167 A 
ATOM      6  C   UNL     1       4.930  46.030  51.481  1.00  0.00     0.231 A 
ATOM      7  N   UNL     1       5.389  47.248  53.283  1.00  0.00    -0.208 NA
ATOM      8  O   UNL     1       6.182  46.406  51.391  1.00  0.00    -0.448 OA
ATOM      9  C   UNL     1       6.452  47.121  52.461  1.00  0.00     0.198 A 
BRANCH   9  10
ATOM     10  C   UNL     1       7.788  47.757  52.723  1.00  0.00     0.080 C 
ATOM     11  C   UNL     1       8.395  47.197  54.025  1.00  0.00     0.042 C 
ATOM     12  C   UNL     1       8.749  47.572  51.528  1.00  0.00     0.042 C 
ATOM     13  C   UNL     1       9.928  47.300  53.984  1.00  0.00     0.161 C 
ATOM     14  C   UNL     1       9.711  46.397  51.776  1.00  0.00     0.161 C 
ATOM     15  O   UNL     1      10.534  46.563  52.925  1.00  0.00    -0.381 OA
ENDBRANCH   9  10
ENDBRANCH   2   5
BRANCH   3  16
ATOM     16  C   UNL     1       1.505  45.157  54.769  1.00  0.00     0.211 A 
ATOM     17  N   UNL     1       1.103  45.749  55.924  1.00  0.00    -0.213 NA
ATOM     18  N   UNL     1       0.570  44.315  54.230  1.00  0.00    -0.307 N 
ATOM     19  C   UNL     1      -0.130  45.251  56.109  1.00  0.00     0.091 A 
ATOM     20  C   UNL     1      -0.457  44.388  55.102  1.00  0.00     0.070 A 
ATOM     21  C   UNL     1      -1.000  45.529  57.160  1.00  0.00     0.031 A 
ATOM     22  C   UNL     1      -1.694  43.731  55.080  1.00  0.00     0.028 A 
ATOM     23  C   UNL     1      -2.251  44.887  57.163  1.00  0.00     0.002 A 
ATOM     24  C   UNL     1      -2.596  43.992  56.128  1.00  0.00     0.002 A 
BRANCH  18  25
ATOM     25  C   UNL     1       0.639  43.495  53.003  1.00  0.00     0.091 C 
ATOM     26  C   UNL     1       0.444  44.319  51.723  1.00  0.00     0.025 C 
ATOM     27  C   UNL     1       1.970  42.759  52.870  1.00  0.00     0.025 C 
ATOM     28  C   UNL     1       1.571  43.925  50.771  1.00  0.00     0.002 C 
ATOM     29  C   UNL     1       2.258  42.709  51.379  1.00  0.00     0.002 C 
ENDBRANCH  18  25
ENDBRANCH   3  16
TORSDOF 4
ENDMDL
MODEL 4
REMARK VINA RESULT:    -9.580      2.340      3.841
REMARK INTER + INTRA:         -11.876
REMARK INTER:                 -10.910
REMARK INTRA:                  -0.966
REMARK UNBOUND:                -0.056
REMARK SMILES O=C(Nc1nc2ccccc2n1C1CCCC1)c1coc(C2CCOCC2)n1
REMARK SMILES IDX 1 1 2 2 3 3 18 5 19 6 28 7 20 8 21 9 22 10 23 11 27 12 24 13
REMARK SMILES IDX 26 14 25 15 4 16 5 17 12 18 6 19 11 20 7 21 10 22 8 23 9 24
REMARK SMILES IDX 13 25 14 26 17 27 15 28 16 29
REMARK H PARENT 3 4
ROOT
ATOM      1  O   UNL     1       2.120  45.250  51.735  1.00  0.00    -0.267 OA
ATOM      2  C   UNL     1       2.370  44.600  52.787  1.00  0.00     0.279 C 
ATOM      3  N   UNL     1       3.626  43.920  52.949  1.00  0.00    -0.290 N 
ATOM      4  H   UNL     1       3.780  43.418  53.846  1.00  0.00     0.173 HD
ENDROOT
BRANCH   2   5
ATOM      5  C   UNL     1       1.367  44.549  53.862  1.00  0.00     0.167 A 
ATOM      6  C   UNL     1       0.126  43.953  53.799  1.00  0.00     0.231 A 
ATOM      7  N   UNL     1       1.538  45.100  55.077  1.00  0.00    -0.208 NA
ATOM      8  O   UNL     1      -0.456  44.137  54.958  1.00  0.00    -0.448 OA
ATOM      9  C   UNL     1       0.379  44.820  55.709  1.00  0.00     0.198 A 
BRANCH   9  10
ATOM     10  C   UNL     1       0.089  45.217  57.130  1.00  0.00     0.080 C 
ATOM     11  C   UNL     1       1.099  46.283  57.598  1.00  0.00     0.042 C 
ATOM     12  C   UNL     1      -1.366  45.707  57.296  1.00  0.00     0.042 C 
ATOM     13  C   UNL     1       0.483  47.145  58.713  1.00  0.00     0.161 C 
ATOM     14  C   UNL     1      -1.431  47.244  57.278  1.00  0.00     0.161 C 
ATOM     15  O   UNL     1      -0.683  47.862  58.319  1.00  0.00    -0.381 OA
ENDBRANCH   9  10
ENDBRANCH   2   5
BRANCH   3  16
ATOM     16  C   UNL     1       4.667  43.901  51.955  1.00  0.00     0.211 A 
ATOM     17  N   UNL     1       4.751  42.932  51.006  1.00  0.00    -0.213 NA
ATOM     18  N   UNL     1       5.667  44.833  51.878  1.00  0.00    -0.307 N 
ATOM     19  C   UNL     1       5.849  43.278  50.315  1.00  0.00     0.091 A 
ATOM     20  C   UNL     1       6.407  44.413  50.831  1.00  0.00     0.070 A 
ATOM     21  C   UNL     1       6.398  42.612  49.221  1.00  0.00     0.031 A 
ATOM     22  C   UNL     1       7.572  44.965  50.283  1.00  0.00     0.028 A 
ATOM     23  C   UNL     1       7.565  43.145  48.647  1.00  0.00     0.002 A 
ATOM     24  C   UNL     1       8.150  44.316  49.176  1.00  0.00     0.002 A 
BRANCH  18  25
ATOM     25  C   UNL     1       5.917  46.016  52.725  1.00  0.00     0.091 C 
ATOM     26  C   UNL     1       4.903  47.143  52.493  1.00  0.00     0.025 C 
ATOM     27  C   UNL     1       5.887  45.680  54.215  1.00  0.00     0.025 C 
ATOM     28  C   UNL     1       4.413  47.586  53.870  1.00  0.00     0.002 C 
ATOM     29  C   UNL     1       5.313  46.911  54.897  1.00  0.00     0.002 C 
ENDBRANCH  18  25
ENDBRANCH   3  16
TORSDOF 4
ENDMDL
MODEL 5
REMARK VINA RESULT:    -9.540      1.712      2.217
REMARK INTER + INTRA:         -11.827
REMARK INTER:                 -10.985
REMARK INTRA:                  -0.842
REMARK UNBOUND:                -0.056
REMARK SMILES O=C(Nc1nc2ccccc2n1C1CCCC1)c1coc(C2CCOCC2)n1
REMARK SMILES IDX 1 1 2 2 3 3 18 5 19 6 28 7 20 8 21 9 22 10 23 11 27 12 24 13
REMARK SMILES IDX 26 14 25 15 4 16 5 17 12 18 6 19 11 20 7 21 10 22 8 23 9 24
REMARK SMILES IDX 13 25 14 26 17 27 15 28 16 29
REMARK H PARENT 3 4
ROOT
ATOM      1  O   UNL     1       3.310  47.278  54.173  1.00  0.00    -0.267 OA
ATOM      2  C   UNL     1       3.293  46.116  54.665  1.00  0.00     0.279 C 
ATOM      3  N   UNL     1       4.490  45.321  54.709  1.00  0.00    -0.290 N 
ATOM      4  H   UNL     1       4.416  44.380  55.144  1.00  0.00     0.173 HD
ENDROOT
BRANCH   2   5
ATOM      5  C   UNL     1       2.037  45.579  55.208  1.00  0.00     0.167 A 
ATOM      6  C   UNL     1       1.618  45.639  56.520  1.00  0.00     0.231 A 
ATOM      7  N   UNL     1       1.113  44.936  54.472  1.00  0.00    -0.208 NA
ATOM      8  O   UNL     1       0.454  45.040  56.587  1.00  0.00    -0.448 OA
ATOM      9  C   UNL     1       0.161  44.622  55.376  1.00  0.00     0.198 A 
BRANCH   9  10
ATOM     10  C   UNL     1      -1.111  43.901  55.028  1.00  0.00     0.080 C 
ATOM     11  C   UNL     1      -2.323  44.827  55.250  1.00  0.00     0.042 C 
ATOM     12  C   UNL     1      -1.077  43.354  53.583  1.00  0.00     0.042 C 
ATOM     13  C   UNL     1      -3.488  44.405  54.340  1.00  0.00     0.161 C 
ATOM     14  C   UNL     1      -1.822  44.297  52.624  1.00  0.00     0.161 C 
ATOM     15  O   UNL     1      -3.197  44.475  52.947  1.00  0.00    -0.381 OA
ENDBRANCH   9  10
ENDBRANCH   2   5
BRANCH   3  16
ATOM     16  C   UNL     1       5.764  45.751  54.196  1.00  0.00     0.211 A 
ATOM     17  N   UNL     1       6.722  46.297  54.990  1.00  0.00    -0.213 NA
ATOM     18  N   UNL     1       6.125  45.667  52.878  1.00  0.00    -0.307 N 
ATOM     19  C   UNL     1       7.715  46.565  54.127  1.00  0.00     0.091 A 
ATOM     20  C   UNL     1       7.367  46.195  52.859  1.00  0.00     0.070 A 
ATOM     21  C   UNL     1       8.948  47.143  54.419  1.00  0.00     0.031 A 
ATOM     22  C   UNL     1       8.239  46.385  51.780  1.00  0.00     0.028 A 
ATOM     23  C   UNL     1       9.847  47.343  53.356  1.00  0.00     0.002 A 
ATOM     24  C   UNL     1       9.493  46.967  52.042  1.00  0.00     0.002 A 
BRANCH  18  25
ATOM     25  C   UNL     1       5.362  45.148  51.725  1.00  0.00     0.091 C 
ATOM     26  C   UNL     1       4.714  43.786  52.003  1.00  0.00     0.025 C 
ATOM     27  C   UNL     1       4.249  46.099  51.289  1.00  0.00     0.025 C 
ATOM     28  C   UNL     1       3.257  43.892  51.558  1.00  0.00     0.002 C 
ATOM     29  C   UNL     1       3.123  45.205  50.797  1.00  0.00     0.002 C 
ENDBRANCH  18  25
ENDBRANCH   3  16
TORSDOF 4
ENDMDL
