MODEL 1
REMARK VINA RESULT:    -9.466      0.000      0.000
REMARK INTER + INTRA:         -10.222
REMARK INTER:                 -10.019
REMARK INTRA:                  -0.203
REMARK UNBOUND:                -0.203
REMARK SMILES CN1CCC2(CCN(C(=O)c3ccc4cccnn34)CC2)C1=O
REMARK SMILES IDX 1 1 2 2 3 3 4 4 5 5 6 6 7 7 8 8 20 9 21 10 9 11 10 12 22 13
REMARK SMILES IDX 23 14 11 15 12 16 19 17 13 18 18 19 14 20 17 21 15 22 16 23
REMARK H PARENT
ROOT
ATOM      1  C   UNL     1      -1.845  42.765  51.884  1.00  0.00     0.146 C 
ATOM      2  N   UNL     1      -0.486  43.288  51.961  1.00  0.00    -0.345 N 
ATOM      3  C   UNL     1       0.013  44.409  51.187  1.00  0.00     0.120 C 
ATOM      4  C   UNL     1       1.507  44.521  51.540  1.00  0.00     0.038 C 
ATOM      5  C   UNL     1       1.729  43.703  52.850  1.00  0.00     0.054 C 
ATOM      6  C   UNL     1       1.810  44.634  54.098  1.00  0.00     0.038 C 
ATOM      7  C   UNL     1       3.256  44.976  54.505  1.00  0.00     0.121 C 
ATOM      8  N   UNL     1       4.154  44.911  53.346  1.00  0.00    -0.337 N 
ATOM      9  C   UNL     1       4.266  43.637  52.617  1.00  0.00     0.121 C 
ATOM     10  C   UNL     1       2.982  42.797  52.754  1.00  0.00     0.038 C 
ATOM     11  C   UNL     1       4.710  46.122  52.794  1.00  0.00     0.272 C 
ATOM     12  O   UNL     1       4.070  47.204  52.899  1.00  0.00    -0.267 OA
ATOM     13  C   UNL     1       0.484  42.885  52.908  1.00  0.00     0.228 C 
ATOM     14  O   UNL     1       0.286  41.952  53.733  1.00  0.00    -0.274 OA
ENDROOT
BRANCH  11  15
ATOM     15  C   UNL     1       6.013  46.127  52.098  1.00  0.00     0.130 A 
ATOM     16  C   UNL     1       6.268  45.658  50.812  1.00  0.00     0.036 A 
ATOM     17  N   UNL     1       7.174  46.545  52.637  1.00  0.00    -0.228 N 
ATOM     18  C   UNL     1       7.630  45.817  50.577  1.00  0.00     0.031 A 
ATOM     19  N   UNL     1       7.384  47.063  53.847  1.00  0.00    -0.176 NA
ATOM     20  C   UNL     1       8.146  46.368  51.732  1.00  0.00     0.066 A 
ATOM     21  C   UNL     1       8.646  47.436  54.204  1.00  0.00     0.134 A 
ATOM     22  C   UNL     1       9.457  46.723  52.027  1.00  0.00     0.030 A 
ATOM     23  C   UNL     1       9.707  47.270  53.294  1.00  0.00     0.024 A 
ENDBRANCH  11  15
TORSDOF 1
ENDMDL
MODEL 2
REMARK VINA RESULT:    -8.273      2.013      7.361
REMARK INTER + INTRA:          -8.959
REMARK INTER:                  -8.576
REMARK INTRA:                  -0.383
REMARK UNBOUND:                -0.203
REMARK SMILES CN1CCC2(CCN(C(=O)c3ccc4cccnn34)CC2)C1=O
REMARK SMILES IDX 1 1 2 2 3 3 4 4 5 5 6 6 7 7 8 8 20 9 21 10 9 11 10 12 22 13
REMARK SMILES IDX 23 14 11 15 12 16 19 17 13 18 18 19 14 20 17 21 15 22 16 23
REMARK H PARENT
ROOT
ATOM      1  C   UNL     1       9.513  47.176  51.801  1.00  0.00     0.146 C 
ATOM      2  N   UNL     1       8.143  46.718  51.998  1.00  0.00    -0.345 N 
ATOM      3  C   UNL     1       7.422  45.851  51.086  1.00  0.00     0.120 C 
ATOM      4  C   UNL     1       6.003  45.728  51.669  1.00  0.00     0.038 C 
ATOM      5  C   UNL     1       6.077  46.204  53.153  1.00  0.00     0.054 C 
ATOM      6  C   UNL     1       6.117  44.997  54.139  1.00  0.00     0.038 C 
ATOM      7  C   UNL     1       4.733  44.636  54.710  1.00  0.00     0.121 C 
ATOM      8  N   UNL     1       3.666  45.030  53.783  1.00  0.00    -0.337 N 
ATOM      9  C   UNL     1       3.553  46.450  53.409  1.00  0.00     0.121 C 
ATOM     10  C   UNL     1       4.914  47.165  53.504  1.00  0.00     0.038 C 
ATOM     11  C   UNL     1       2.917  44.024  53.072  1.00  0.00     0.272 C 
ATOM     12  O   UNL     1       3.463  42.920  52.799  1.00  0.00    -0.267 OA
ATOM     13  C   UNL     1       7.385  46.920  53.174  1.00  0.00     0.228 C 
ATOM     14  O   UNL     1       7.801  47.607  54.146  1.00  0.00    -0.274 OA
ENDROOT
BRANCH  11  15
ATOM     15  C   UNL     1       1.522  44.256  52.644  1.00  0.00     0.130 A 
ATOM     16  C   UNL     1       1.063  44.356  51.333  1.00  0.00     0.036 A 
ATOM     17  N   UNL     1       0.485  44.462  53.476  1.00  0.00    -0.228 N 
ATOM     18  C   UNL     1      -0.303  44.618  51.394  1.00  0.00     0.031 A 
ATOM     19  N   UNL     1       0.480  44.457  54.809  1.00  0.00    -0.176 NA
ATOM     20  C   UNL     1      -0.613  44.673  52.737  1.00  0.00     0.066 A 
ATOM     21  C   UNL     1      -0.689  44.680  55.475  1.00  0.00     0.134 A 
ATOM     22  C   UNL     1      -1.839  44.910  53.347  1.00  0.00     0.030 A 
ATOM     23  C   UNL     1      -1.872  44.912  54.749  1.00  0.00     0.024 A 
ENDBRANCH  11  15
TORSDOF 1
ENDMDL
MODEL 3
REMARK VINA RESULT:    -8.214      2.126      2.904
REMARK INTER + INTRA:          -8.897
REMARK INTER:                  -8.466
REMARK INTRA:                  -0.431
REMARK UNBOUND:                -0.203
REMARK SMILES CN1CCC2(CCN(C(=O)c3ccc4cccnn34)CC2)C1=O
REMARK SMILES IDX 1 1 2 2 3 3 4 4 5 5 6 6 7 7 8 8 20 9 21 10 9 11 10 12 22 13
REMARK SMILES IDX 23 14 11 15 12 16 19 17 13 18 18 19 14 20 17 21 15 22 16 23
REMARK H PARENT
ROOT
ATOM      1  C   UNL     1      -1.306  45.140  56.471  1.00  0.00     0.146 C 
ATOM      2  N   UNL     1      -0.181  45.022  55.551  1.00  0.00    -0.345 N 
ATOM      3  C   UNL     1       1.198  44.820  55.953  1.00  0.00     0.120 C 
ATOM      4  C   UNL     1       2.016  44.854  54.650  1.00  0.00     0.038 C 
ATOM      5  C   UNL     1       1.011  44.655  53.474  1.00  0.00     0.054 C 
ATOM      6  C   UNL     1       1.037  43.190  52.941  1.00  0.00     0.038 C 
ATOM      7  C   UNL     1       1.943  43.010  51.709  1.00  0.00     0.121 C 
ATOM      8  N   UNL     1       3.016  44.012  51.699  1.00  0.00    -0.337 N 
ATOM      9  C   UNL     1       2.643  45.436  51.680  1.00  0.00     0.121 C 
ATOM     10  C   UNL     1       1.264  45.664  52.327  1.00  0.00     0.038 C 
ATOM     11  C   UNL     1       4.378  43.614  51.953  1.00  0.00     0.272 C 
ATOM     12  O   UNL     1       4.607  42.612  52.683  1.00  0.00    -0.267 OA
ATOM     13  C   UNL     1      -0.293  44.927  54.145  1.00  0.00     0.228 C 
ATOM     14  O   UNL     1      -1.394  45.028  53.539  1.00  0.00    -0.274 OA
ENDROOT
BRANCH  11  15
ATOM     15  C   UNL     1       5.520  44.359  51.383  1.00  0.00     0.130 A 
ATOM     16  C   UNL     1       6.155  44.102  50.170  1.00  0.00     0.036 A 
ATOM     17  N   UNL     1       6.156  45.378  51.990  1.00  0.00    -0.228 N 
ATOM     18  C   UNL     1       7.200  45.014  50.050  1.00  0.00     0.031 A 
ATOM     19  N   UNL     1       5.880  45.942  53.165  1.00  0.00    -0.176 NA
ATOM     20  C   UNL     1       7.159  45.780  51.197  1.00  0.00     0.066 A 
ATOM     21  C   UNL     1       6.647  46.980  53.605  1.00  0.00     0.134 A 
ATOM     22  C   UNL     1       7.984  46.831  51.581  1.00  0.00     0.030 A 
ATOM     23  C   UNL     1       7.717  47.442  52.815  1.00  0.00     0.024 A 
ENDBRANCH  11  15
TORSDOF 1
ENDMDL
MODEL 4
REMARK VINA RESULT:    -7.925      2.052      7.503
REMARK INTER + INTRA:          -8.591
REMARK INTER:                  -8.281
REMARK INTRA:                  -0.309
REMARK UNBOUND:                -0.203
REMARK SMILES CN1CCC2(CCN(C(=O)c3ccc4cccnn34)CC2)C1=O
REMARK SMILES IDX 1 1 2 2 3 3 4 4 5 5 6 6 7 7 8 8 20 9 21 10 9 11 10 12 22 13
REMARK SMILES IDX 23 14 11 15 12 16 19 17 13 18 18 19 14 20 17 21 15 22 16 23
REMARK H PARENT
ROOT
ATOM      1  C   UNL     1       9.463  46.732  51.543  1.00  0.00     0.146 C 
ATOM      2  N   UNL     1       8.087  46.465  51.944  1.00  0.00    -0.345 N 
ATOM      3  C   UNL     1       7.330  47.268  52.885  1.00  0.00     0.120 C 
ATOM      4  C   UNL     1       5.982  46.544  53.054  1.00  0.00     0.038 C 
ATOM      5  C   UNL     1       5.846  45.549  51.860  1.00  0.00     0.054 C 
ATOM      6  C   UNL     1       4.909  46.114  50.748  1.00  0.00     0.038 C 
ATOM      7  C   UNL     1       3.462  45.602  50.860  1.00  0.00     0.121 C 
ATOM      8  N   UNL     1       3.136  45.254  52.247  1.00  0.00    -0.337 N 
ATOM      9  C   UNL     1       3.946  44.223  52.919  1.00  0.00     0.121 C 
ATOM     10  C   UNL     1       5.367  44.153  52.329  1.00  0.00     0.038 C 
ATOM     11  C   UNL     1       2.218  46.071  53.002  1.00  0.00     0.272 C 
ATOM     12  O   UNL     1       2.117  47.299  52.735  1.00  0.00    -0.267 OA
ATOM     13  C   UNL     1       7.249  45.489  51.358  1.00  0.00     0.228 C 
ATOM     14  O   UNL     1       7.653  44.683  50.476  1.00  0.00    -0.274 OA
ENDROOT
BRANCH  11  15
ATOM     15  C   UNL     1       1.395  45.506  54.091  1.00  0.00     0.130 A 
ATOM     16  C   UNL     1       1.773  45.355  55.423  1.00  0.00     0.036 A 
ATOM     17  N   UNL     1       0.158  44.998  53.939  1.00  0.00    -0.228 N 
ATOM     18  C   UNL     1       0.712  44.745  56.086  1.00  0.00     0.031 A 
ATOM     19  N   UNL     1      -0.580  44.936  52.830  1.00  0.00    -0.176 NA
ATOM     20  C   UNL     1      -0.261  44.546  55.129  1.00  0.00     0.066 A 
ATOM     21  C   UNL     1      -1.826  44.385  52.887  1.00  0.00     0.134 A 
ATOM     22  C   UNL     1      -1.519  43.969  55.261  1.00  0.00     0.030 A 
ATOM     23  C   UNL     1      -2.316  43.890  54.109  1.00  0.00     0.024 A 
ENDBRANCH  11  15
TORSDOF 1
ENDMDL
MODEL 5
REMARK VINA RESULT:    -7.699      1.700      7.655
REMARK INTER + INTRA:          -8.352
REMARK INTER:                  -8.018
REMARK INTRA:                  -0.334
REMARK UNBOUND:                -0.203
REMARK SMILES CN1CCC2(CCN(C(=O)c3ccc4cccnn34)CC2)C1=O
REMARK SMILES IDX 1 1 2 2 3 3 4 4 5 5 6 6 7 7 8 8 20 9 21 10 9 11 10 12 22 13
REMARK SMILES IDX 23 14 11 15 12 16 19 17 13 18 18 19 14 20 17 21 15 22 16 23
REMARK H PARENT
ROOT
ATOM      1  C   UNL     1       9.119  46.499  53.435  1.00  0.00     0.146 C 
ATOM      2  N   UNL     1       7.742  46.050  53.267  1.00  0.00    -0.345 N 
ATOM      3  C   UNL     1       6.793  45.869  54.349  1.00  0.00     0.120 C 
ATOM      4  C   UNL     1       5.523  45.300  53.694  1.00  0.00     0.038 C 
ATOM      5  C   UNL     1       5.641  45.568  52.161  1.00  0.00     0.054 C 
ATOM      6  C   UNL     1       4.789  46.800  51.728  1.00  0.00     0.038 C 
ATOM      7  C   UNL     1       3.403  46.413  51.180  1.00  0.00     0.121 C 
ATOM      8  N   UNL     1       2.953  45.138  51.748  1.00  0.00    -0.337 N 
ATOM      9  C   UNL     1       3.784  43.942  51.530  1.00  0.00     0.121 C 
ATOM     10  C   UNL     1       5.264  44.316  51.330  1.00  0.00     0.038 C 
ATOM     11  C   UNL     1       1.867  45.112  52.697  1.00  0.00     0.272 C 
ATOM     12  O   UNL     1       1.665  46.113  53.437  1.00  0.00    -0.267 OA
ATOM     13  C   UNL     1       7.092  45.882  52.023  1.00  0.00     0.228 C 
ATOM     14  O   UNL     1       7.685  46.023  50.918  1.00  0.00    -0.274 OA
ENDROOT
BRANCH  11  15
ATOM     15  C   UNL     1       0.986  43.934  52.832  1.00  0.00     0.130 A 
ATOM     16  C   UNL     1       1.181  42.844  53.678  1.00  0.00     0.036 A 
ATOM     17  N   UNL     1      -0.125  43.714  52.104  1.00  0.00    -0.228 N 
ATOM     18  C   UNL     1       0.137  41.953  53.450  1.00  0.00     0.031 A 
ATOM     19  N   UNL     1      -0.674  44.498  51.176  1.00  0.00    -0.176 NA
ATOM     20  C   UNL     1      -0.643  42.534  52.472  1.00  0.00     0.066 A 
ATOM     21  C   UNL     1      -1.818  44.095  50.553  1.00  0.00     0.134 A 
ATOM     22  C   UNL     1      -1.806  42.058  51.878  1.00  0.00     0.030 A 
ATOM     23  C   UNL     1      -2.404  42.863  50.896  1.00  0.00     0.024 A 
ENDBRANCH  11  15
TORSDOF 1
ENDMDL
