MODEL 1
REMARK VINA RESULT:    -8.917      0.000      0.000
REMARK INTER + INTRA:         -11.778
REMARK INTER:                 -11.003
REMARK INTRA:                  -0.775
REMARK UNBOUND:                -0.775
REMARK SMILES O=c1ccc(-c2nnco2)cn1Cc1ncnn1-c1ccccc1
REMARK SMILES IDX 13 1 12 2 1 3 2 4 3 5 4 6 11 7 5 8 6 9 7 10 10 11 8 12 9 13
REMARK SMILES IDX 14 14 15 15 18 16 16 17 17 18 19 19 20 20 24 21 21 22 23 23
REMARK SMILES IDX 22 24
REMARK H PARENT
ROOT
ATOM      1  C   UNL     1       6.523  45.438  49.977  1.00  0.00     0.202 C 
ENDROOT
BRANCH   1   2
ATOM      2  N   UNL     1       7.854  45.520  50.603  1.00  0.00    -0.307 N 
ATOM      3  O   UNL     1       8.778  44.129  49.037  1.00  0.00    -0.269 OA
ATOM      4  C   UNL     1       8.914  44.816  50.086  1.00  0.00     0.250 A 
ATOM      5  C   UNL     1      10.158  44.847  50.719  1.00  0.00     0.072 A 
ATOM      6  C   UNL     1      10.321  45.591  51.885  1.00  0.00     0.021 A 
ATOM      7  C   UNL     1       8.017  46.281  51.730  1.00  0.00     0.103 A 
ATOM      8  C   UNL     1       9.246  46.318  52.405  1.00  0.00     0.055 A 
BRANCH   8   9
ATOM      9  C   UNL     1       9.400  47.090  53.654  1.00  0.00     0.248 A 
ATOM     10  N   UNL     1       8.519  48.008  54.098  1.00  0.00    -0.108 NA
ATOM     11  O   UNL     1      10.409  46.967  54.484  1.00  0.00    -0.423 OA
ATOM     12  N   UNL     1       9.004  48.466  55.241  1.00  0.00    -0.116 NA
ATOM     13  C   UNL     1      10.161  47.813  55.455  1.00  0.00     0.333 A 
ENDBRANCH   8   9
ENDBRANCH   1   2
BRANCH   1  14
ATOM     14  C   UNL     1       5.764  44.249  50.500  1.00  0.00     0.152 A 
ATOM     15  N   UNL     1       5.743  43.057  49.871  1.00  0.00    -0.218 NA
ATOM     16  N   UNL     1       5.145  44.180  51.697  1.00  0.00    -0.216 N 
ATOM     17  C   UNL     1       5.077  42.276  50.750  1.00  0.00     0.246 A 
ATOM     18  N   UNL     1       4.719  42.941  51.866  1.00  0.00    -0.154 NA
BRANCH  16  19
ATOM     19  C   UNL     1       5.002  45.212  52.678  1.00  0.00     0.067 A 
ATOM     20  C   UNL     1       5.624  45.080  53.928  1.00  0.00     0.028 A 
ATOM     21  C   UNL     1       4.242  46.358  52.401  1.00  0.00     0.028 A 
ATOM     22  C   UNL     1       5.518  46.102  54.877  1.00  0.00     0.002 A 
ATOM     23  C   UNL     1       4.133  47.377  53.354  1.00  0.00     0.002 A 
ATOM     24  C   UNL     1       4.777  47.251  54.589  1.00  0.00     0.000 A 
ENDBRANCH  16  19
ENDBRANCH   1  14
TORSDOF 4
ENDMDL
MODEL 2
REMARK VINA RESULT:    -8.774      2.205      5.231
REMARK INTER + INTRA:         -11.602
REMARK INTER:                 -10.893
REMARK INTRA:                  -0.709
REMARK UNBOUND:                -0.775
REMARK SMILES O=c1ccc(-c2nnco2)cn1Cc1ncnn1-c1ccccc1
REMARK SMILES IDX 13 1 12 2 1 3 2 4 3 5 4 6 11 7 5 8 6 9 7 10 10 11 8 12 9 13
REMARK SMILES IDX 14 14 15 15 18 16 16 17 17 18 19 19 20 20 24 21 21 22 23 23
REMARK SMILES IDX 22 24
REMARK H PARENT
ROOT
ATOM      1  C   UNL     1       7.274  45.945  50.465  1.00  0.00     0.202 C 
ENDROOT
BRANCH   1   2
ATOM      2  N   UNL     1       6.654  44.609  50.419  1.00  0.00    -0.307 N 
ATOM      3  O   UNL     1       8.384  43.749  49.190  1.00  0.00    -0.269 OA
ATOM      4  C   UNL     1       7.261  43.581  49.740  1.00  0.00     0.250 A 
ATOM      5  C   UNL     1       6.641  42.334  49.645  1.00  0.00     0.072 A 
ATOM      6  C   UNL     1       5.396  42.136  50.237  1.00  0.00     0.021 A 
ATOM      7  C   UNL     1       5.446  44.411  51.032  1.00  0.00     0.103 A 
ATOM      8  C   UNL     1       4.782  43.178  50.938  1.00  0.00     0.055 A 
BRANCH   8   9
ATOM      9  C   UNL     1       3.452  42.988  51.548  1.00  0.00     0.248 A 
ATOM     10  N   UNL     1       2.355  42.586  50.877  1.00  0.00    -0.108 NA
ATOM     11  O   UNL     1       3.182  43.180  52.817  1.00  0.00    -0.423 OA
ATOM     12  N   UNL     1       1.375  42.529  51.765  1.00  0.00    -0.116 NA
ATOM     13  C   UNL     1       1.907  42.898  52.945  1.00  0.00     0.333 A 
ENDBRANCH   8   9
ENDBRANCH   1   2
BRANCH   1  14
ATOM     14  C   UNL     1       8.243  46.041  51.612  1.00  0.00     0.152 A 
ATOM     15  N   UNL     1       9.580  46.083  51.441  1.00  0.00    -0.218 NA
ATOM     16  N   UNL     1       7.910  46.233  52.905  1.00  0.00    -0.216 N 
ATOM     17  C   UNL     1      10.026  46.305  52.697  1.00  0.00     0.246 A 
ATOM     18  N   UNL     1       9.023  46.411  53.592  1.00  0.00    -0.154 NA
BRANCH  16  19
ATOM     19  C   UNL     1       6.600  46.309  53.478  1.00  0.00     0.067 A 
ATOM     20  C   UNL     1       6.157  45.300  54.345  1.00  0.00     0.028 A 
ATOM     21  C   UNL     1       5.753  47.387  53.179  1.00  0.00     0.028 A 
ATOM     22  C   UNL     1       4.892  45.388  54.937  1.00  0.00     0.002 A 
ATOM     23  C   UNL     1       4.487  47.470  53.768  1.00  0.00     0.002 A 
ATOM     24  C   UNL     1       4.060  46.474  54.651  1.00  0.00     0.000 A 
ENDBRANCH  16  19
ENDBRANCH   1  14
TORSDOF 4
ENDMDL
MODEL 3
REMARK VINA RESULT:    -8.607      3.056      6.397
REMARK INTER + INTRA:         -11.395
REMARK INTER:                 -11.641
REMARK INTRA:                   0.246
REMARK UNBOUND:                -0.775
REMARK SMILES O=c1ccc(-c2nnco2)cn1Cc1ncnn1-c1ccccc1
REMARK SMILES IDX 13 1 12 2 1 3 2 4 3 5 4 6 11 7 5 8 6 9 7 10 10 11 8 12 9 13
REMARK SMILES IDX 14 14 15 15 18 16 16 17 17 18 19 19 20 20 24 21 21 22 23 23
REMARK SMILES IDX 22 24
REMARK H PARENT
ROOT
ATOM      1  C   UNL     1       5.215  46.196  51.244  1.00  0.00     0.202 C 
ENDROOT
BRANCH   1   2
ATOM      2  N   UNL     1       4.771  44.792  51.280  1.00  0.00    -0.307 N 
ATOM      3  O   UNL     1       6.728  44.054  50.349  1.00  0.00    -0.269 OA
ATOM      4  C   UNL     1       5.575  43.792  50.789  1.00  0.00     0.250 A 
ATOM      5  C   UNL     1       5.126  42.471  50.768  1.00  0.00     0.072 A 
ATOM      6  C   UNL     1       3.851  42.167  51.240  1.00  0.00     0.021 A 
ATOM      7  C   UNL     1       3.530  44.495  51.777  1.00  0.00     0.103 A 
ATOM      8  C   UNL     1       3.036  43.182  51.750  1.00  0.00     0.055 A 
BRANCH   8   9
ATOM      9  C   UNL     1       1.674  42.877  52.229  1.00  0.00     0.248 A 
ATOM     10  N   UNL     1       0.567  42.918  51.463  1.00  0.00    -0.108 NA
ATOM     11  O   UNL     1       1.381  42.521  53.458  1.00  0.00    -0.423 OA
ATOM     12  N   UNL     1      -0.442  42.576  52.247  1.00  0.00    -0.116 NA
ATOM     13  C   UNL     1       0.083  42.338  53.464  1.00  0.00     0.333 A 
ENDBRANCH   8   9
ENDBRANCH   1   2
BRANCH   1  14
ATOM     14  C   UNL     1       5.096  46.824  52.606  1.00  0.00     0.152 A 
ATOM     15  N   UNL     1       3.914  47.019  53.224  1.00  0.00    -0.218 NA
ATOM     16  N   UNL     1       6.128  47.133  53.419  1.00  0.00    -0.216 N 
ATOM     17  C   UNL     1       4.292  47.464  54.443  1.00  0.00     0.246 A 
ATOM     18  N   UNL     1       5.632  47.526  54.578  1.00  0.00    -0.154 NA
BRANCH  16  19
ATOM     19  C   UNL     1       7.529  47.013  53.151  1.00  0.00     0.067 A 
ATOM     20  C   UNL     1       8.441  46.946  54.215  1.00  0.00     0.028 A 
ATOM     21  C   UNL     1       8.001  46.962  51.831  1.00  0.00     0.028 A 
ATOM     22  C   UNL     1       9.808  46.792  53.960  1.00  0.00     0.002 A 
ATOM     23  C   UNL     1       9.369  46.813  51.579  1.00  0.00     0.002 A 
ATOM     24  C   UNL     1      10.271  46.722  52.644  1.00  0.00     0.000 A 
ENDBRANCH  16  19
ENDBRANCH   1  14
TORSDOF 4
ENDMDL
MODEL 4
REMARK VINA RESULT:    -7.942      2.832      5.281
REMARK INTER + INTRA:         -10.575
REMARK INTER:                  -9.929
REMARK INTRA:                  -0.645
REMARK UNBOUND:                -0.775
REMARK SMILES O=c1ccc(-c2nnco2)cn1Cc1ncnn1-c1ccccc1
REMARK SMILES IDX 13 1 12 2 1 3 2 4 3 5 4 6 11 7 5 8 6 9 7 10 10 11 8 12 9 13
REMARK SMILES IDX 14 14 15 15 18 16 16 17 17 18 19 19 20 20 24 21 21 22 23 23
REMARK SMILES IDX 22 24
REMARK H PARENT
ROOT
ATOM      1  C   UNL     1       2.229  45.464  51.774  1.00  0.00     0.202 C 
ENDROOT
BRANCH   1   2
ATOM      2  N   UNL     1       3.125  44.353  51.411  1.00  0.00    -0.307 N 
ATOM      3  O   UNL     1       1.601  42.782  52.084  1.00  0.00    -0.269 OA
ATOM      4  C   UNL     1       2.745  43.051  51.624  1.00  0.00     0.250 A 
ATOM      5  C   UNL     1       3.622  42.003  51.338  1.00  0.00     0.072 A 
ATOM      6  C   UNL     1       4.892  42.283  50.840  1.00  0.00     0.021 A 
ATOM      7  C   UNL     1       4.361  44.633  50.891  1.00  0.00     0.103 A 
ATOM      8  C   UNL     1       5.277  43.607  50.612  1.00  0.00     0.055 A 
BRANCH   8   9
ATOM      9  C   UNL     1       6.629  43.917  50.110  1.00  0.00     0.248 A 
ATOM     10  N   UNL     1       7.350  43.110  49.308  1.00  0.00    -0.108 NA
ATOM     11  O   UNL     1       7.287  45.020  50.380  1.00  0.00    -0.423 OA
ATOM     12  N   UNL     1       8.491  43.739  49.075  1.00  0.00    -0.116 NA
ATOM     13  C   UNL     1       8.428  44.906  49.743  1.00  0.00     0.333 A 
ENDBRANCH   8   9
ENDBRANCH   1   2
BRANCH   1  14
ATOM     14  C   UNL     1       2.058  45.541  53.267  1.00  0.00     0.152 A 
ATOM     15  N   UNL     1       0.897  45.250  53.888  1.00  0.00    -0.218 NA
ATOM     16  N   UNL     1       3.045  45.764  54.158  1.00  0.00    -0.216 N 
ATOM     17  C   UNL     1       1.241  45.316  55.194  1.00  0.00     0.246 A 
ATOM     18  N   UNL     1       2.544  45.615  55.371  1.00  0.00    -0.154 NA
BRANCH  16  19
ATOM     19  C   UNL     1       4.424  46.050  53.897  1.00  0.00     0.067 A 
ATOM     20  C   UNL     1       5.405  45.095  54.198  1.00  0.00     0.028 A 
ATOM     21  C   UNL     1       4.803  47.280  53.339  1.00  0.00     0.028 A 
ATOM     22  C   UNL     1       6.750  45.354  53.911  1.00  0.00     0.002 A 
ATOM     23  C   UNL     1       6.148  47.539  53.057  1.00  0.00     0.002 A 
ATOM     24  C   UNL     1       7.120  46.573  53.337  1.00  0.00     0.000 A 
ENDBRANCH  16  19
ENDBRANCH   1  14
TORSDOF 4
ENDMDL
MODEL 5
REMARK VINA RESULT:    -7.920      2.601      5.758
REMARK INTER + INTRA:         -10.548
REMARK INTER:                  -9.745
REMARK INTRA:                  -0.803
REMARK UNBOUND:                -0.775
REMARK SMILES O=c1ccc(-c2nnco2)cn1Cc1ncnn1-c1ccccc1
REMARK SMILES IDX 13 1 12 2 1 3 2 4 3 5 4 6 11 7 5 8 6 9 7 10 10 11 8 12 9 13
REMARK SMILES IDX 14 14 15 15 18 16 16 17 17 18 19 19 20 20 24 21 21 22 23 23
REMARK SMILES IDX 22 24
REMARK H PARENT
ROOT
ATOM      1  C   UNL     1       5.614  46.189  52.021  1.00  0.00     0.202 C 
ENDROOT
BRANCH   1   2
ATOM      2  N   UNL     1       6.171  45.153  51.134  1.00  0.00    -0.307 N 
ATOM      3  O   UNL     1       8.142  46.292  50.889  1.00  0.00    -0.269 OA
ATOM      4  C   UNL     1       7.425  45.297  50.593  1.00  0.00     0.250 A 
ATOM      5  C   UNL     1       7.924  44.344  49.703  1.00  0.00     0.072 A 
ATOM      6  C   UNL     1       7.141  43.246  49.358  1.00  0.00     0.021 A 
ATOM      7  C   UNL     1       5.409  44.058  50.825  1.00  0.00     0.103 A 
ATOM      8  C   UNL     1       5.869  43.092  49.917  1.00  0.00     0.055 A 
BRANCH   8   9
ATOM      9  C   UNL     1       5.020  41.945  49.539  1.00  0.00     0.248 A 
ATOM     10  N   UNL     1       4.062  41.413  50.322  1.00  0.00    -0.108 NA
ATOM     11  O   UNL     1       5.092  41.314  48.390  1.00  0.00    -0.423 OA
ATOM     12  N   UNL     1       3.526  40.419  49.631  1.00  0.00    -0.116 NA
ATOM     13  C   UNL     1       4.175  40.379  48.452  1.00  0.00     0.333 A 
ENDBRANCH   8   9
ENDBRANCH   1   2
BRANCH   1  14
ATOM     14  C   UNL     1       5.473  45.665  53.425  1.00  0.00     0.152 A 
ATOM     15  N   UNL     1       6.434  45.805  54.360  1.00  0.00    -0.218 NA
ATOM     16  N   UNL     1       4.352  45.133  53.953  1.00  0.00    -0.216 N 
ATOM     17  C   UNL     1       5.832  45.325  55.470  1.00  0.00     0.246 A 
ATOM     18  N   UNL     1       4.565  44.926  55.240  1.00  0.00    -0.154 NA
BRANCH  16  19
ATOM     19  C   UNL     1       3.103  44.878  53.302  1.00  0.00     0.067 A 
ATOM     20  C   UNL     1       2.196  45.926  53.092  1.00  0.00     0.028 A 
ATOM     21  C   UNL     1       2.777  43.583  52.869  1.00  0.00     0.028 A 
ATOM     22  C   UNL     1       0.990  45.689  52.424  1.00  0.00     0.002 A 
ATOM     23  C   UNL     1       1.569  43.348  52.205  1.00  0.00     0.002 A 
ATOM     24  C   UNL     1       0.678  44.403  51.977  1.00  0.00     0.000 A 
ENDBRANCH  16  19
ENDBRANCH   1  14
TORSDOF 4
ENDMDL
