ligand_59_conformer_1_docked
     RDKit          3D

 49 51  0  0  0  0  0  0  0  0999 V2000
    0.5010   47.2400   58.7030 C   0  0  0  0  0  0  0  0  0  0  0  0
    1.1860   46.1310   58.1310 O   0  0  0  0  0  0  0  0  0  0  0  0
    0.9050   45.6490   56.8500 C   0  0  0  0  0  0  0  0  0  0  0  0
   -0.3200   45.1280   56.5870 N   0  0  0  0  0  0  0  0  0  0  0  0
   -0.6350   44.6600   55.3520 C   0  0  0  0  0  0  0  0  0  0  0  0
   -1.9860   44.0660   55.1040 C   0  0  0  0  0  0  0  0  0  0  0  0
    0.3210   44.6980   54.3300 C   0  0  0  0  0  0  0  0  0  0  0  0
    1.5910   45.2360   54.6080 C   0  0  0  0  0  0  0  0  0  0  0  0
    2.6220   45.3100   53.5940 N   0  0  0  0  0  0  0  0  0  0  0  0
    3.0800   46.6170   53.0900 C   0  0  0  0  0  0  0  0  0  0  0  0
    3.9600   46.4800   51.8440 C   0  0  0  0  0  0  0  0  0  0  0  0
    4.9740   45.4460   52.0600 N   0  0  0  0  0  0  0  0  0  0  0  0
    6.2690   45.5770   51.4560 C   0  0  0  0  0  0  0  0  0  0  0  0
    6.5120   44.9580   50.3850 O   0  0  0  0  0  0  0  0  0  0  0  0
    7.3550   46.4230   52.0790 C   0  0  0  0  0  0  0  0  0  0  0  0
    8.7550   46.0800   51.5290 C   0  0  0  0  0  0  0  0  0  0  0  0
    9.8270   46.9730   52.1680 C   0  0  0  0  0  0  0  0  0  0  0  0
    9.7960   46.8590   53.6980 C   0  0  0  0  0  0  0  0  0  0  0  0
    8.4060   47.1980   54.2480 C   0  0  0  0  0  0  0  0  0  0  0  0
    7.3300   46.3070   53.6140 C   0  0  0  0  0  0  0  0  0  0  0  0
    4.6080   44.1590   52.6610 C   0  0  0  0  0  0  0  0  0  0  0  0
    3.1040   44.0740   52.9520 C   0  0  0  0  0  0  0  0  0  0  0  0
    1.8420   45.6980   55.8650 N   0  0  0  0  0  0  0  0  0  0  0  0
    0.5436   47.1711   59.8000 H   0  0  0  0  0  0  0  0  0  0  0  0
    0.9792   48.1749   58.3755 H   0  0  0  0  0  0  0  0  0  0  0  0
   -0.5491   47.2310   58.3755 H   0  0  0  0  0  0  0  0  0  0  0  0
   -2.4743   43.8513   56.0660 H   0  0  0  0  0  0  0  0  0  0  0  0
   -2.5998   44.7772   54.5319 H   0  0  0  0  0  0  0  0  0  0  0  0
   -1.8769   43.1329   54.5319 H   0  0  0  0  0  0  0  0  0  0  0  0
    0.0834   44.3139   53.3270 H   0  0  0  0  0  0  0  0  0  0  0  0
    2.2004   47.2273   52.8372 H   0  0  0  0  0  0  0  0  0  0  0  0
    3.6826   47.0910   53.8788 H   0  0  0  0  0  0  0  0  0  0  0  0
    3.3333   46.2019   50.9838 H   0  0  0  0  0  0  0  0  0  0  0  0
    4.4589   47.4402   51.6462 H   0  0  0  0  0  0  0  0  0  0  0  0
    7.1451   47.4665   51.8013 H   0  0  0  0  0  0  0  0  0  0  0  0
    8.9823   45.0274   51.7533 H   0  0  0  0  0  0  0  0  0  0  0  0
    8.7575   46.2499   50.4422 H   0  0  0  0  0  0  0  0  0  0  0  0
   10.8176   46.6627   51.8040 H   0  0  0  0  0  0  0  0  0  0  0  0
    9.6246   48.0178   51.8899 H   0  0  0  0  0  0  0  0  0  0  0  0
   10.0557   45.8299   53.9870 H   0  0  0  0  0  0  0  0  0  0  0  0
   10.5211   47.5725   54.1165 H   0  0  0  0  0  0  0  0  0  0  0  0
    8.4033   47.0450   55.3373 H   0  0  0  0  0  0  0  0  0  0  0  0
    8.1797   48.2467   54.0048 H   0  0  0  0  0  0  0  0  0  0  0  0
    7.5148   45.2608   53.8992 H   0  0  0  0  0  0  0  0  0  0  0  0
    6.3442   46.6353   53.9752 H   0  0  0  0  0  0  0  0  0  0  0  0
    4.8828   43.3509   51.9671 H   0  0  0  0  0  0  0  0  0  0  0  0
    5.1472   44.0611   53.6148 H   0  0  0  0  0  0  0  0  0  0  0  0
    2.5621   43.9243   52.0065 H   0  0  0  0  0  0  0  0  0  0  0  0
    2.9252   43.2304   53.6349 H   0  0  0  0  0  0  0  0  0  0  0  0
  1  2  1  0
  2  3  1  0
  3  4  2  0
  4  5  1  0
  5  6  1  0
  5  7  2  0
  7  8  1  0
  8  9  1  0
  9 10  1  0
 10 11  1  0
 11 12  1  0
 12 13  1  0
 13 14  2  0
 13 15  1  0
 15 16  1  0
 16 17  1  0
 17 18  1  0
 18 19  1  0
 19 20  1  0
 12 21  1  0
 21 22  1  0
  8 23  2  0
 23  3  1  0
 22  9  1  0
 20 15  1  0
  1 24  1  0
  1 25  1  0
  1 26  1  0
  6 27  1  0
  6 28  1  0
  6 29  1  0
  7 30  1  0
 10 31  1  0
 10 32  1  0
 11 33  1  0
 11 34  1  0
 15 35  1  0
 16 36  1  0
 16 37  1  0
 17 38  1  0
 17 39  1  0
 18 40  1  0
 18 41  1  0
 19 42  1  0
 19 43  1  0
 20 44  1  0
 20 45  1  0
 21 46  1  0
 21 47  1  0
 22 48  1  0
 22 49  1  0
M  END
>  <meeko>  (1) 
{"is_sidechain": [false], "free_energy": -8.778, "intermolecular_energy": -10.318, "internal_energy": -0.405}

$$$$
ligand_59_conformer_1_docked
     RDKit          3D

 49 51  0  0  0  0  0  0  0  0999 V2000
   -1.4960   42.6890   52.2830 C   0  0  0  0  0  0  0  0  0  0  0  0
   -1.2820   42.9930   53.6580 O   0  0  0  0  0  0  0  0  0  0  0  0
   -0.2110   43.7740   54.1000 C   0  0  0  0  0  0  0  0  0  0  0  0
   -0.2500   44.3170   55.3430 N   0  0  0  0  0  0  0  0  0  0  0  0
    0.7760   45.0720   55.8140 C   0  0  0  0  0  0  0  0  0  0  0  0
    0.6890   45.6790   57.1780 C   0  0  0  0  0  0  0  0  0  0  0  0
    1.8910   45.3110   55.0020 C   0  0  0  0  0  0  0  0  0  0  0  0
    1.9260   44.7490   53.7130 C   0  0  0  0  0  0  0  0  0  0  0  0
    3.0520   44.9540   52.8260 N   0  0  0  0  0  0  0  0  0  0  0  0
    3.4880   46.3190   52.4780 C   0  0  0  0  0  0  0  0  0  0  0  0
    4.5000   46.3270   51.3280 C   0  0  0  0  0  0  0  0  0  0  0  0
    5.5400   45.3260   51.5700 N   0  0  0  0  0  0  0  0  0  0  0  0
    6.8820   45.5650   51.1220 C   0  0  0  0  0  0  0  0  0  0  0  0
    7.2680   45.0490   50.0380 O   0  0  0  0  0  0  0  0  0  0  0  0
    7.8500   46.4040   51.9230 C   0  0  0  0  0  0  0  0  0  0  0  0
    9.3130   45.9520   51.7370 C   0  0  0  0  0  0  0  0  0  0  0  0
   10.2670   46.8390   52.5470 C   0  0  0  0  0  0  0  0  0  0  0  0
    9.8810   46.8470   54.0320 C   0  0  0  0  0  0  0  0  0  0  0  0
    8.4270   47.2940   54.2220 C   0  0  0  0  0  0  0  0  0  0  0  0
    7.4680   46.4090   53.4160 C   0  0  0  0  0  0  0  0  0  0  0  0
    5.1830   43.9770   52.0250 C   0  0  0  0  0  0  0  0  0  0  0  0
    3.6640   43.8000   52.1450 C   0  0  0  0  0  0  0  0  0  0  0  0
    0.8690   43.9940   53.3020 N   0  0  0  0  0  0  0  0  0  0  0  0
   -2.1274   41.7921   52.1997 H   0  0  0  0  0  0  0  0  0  0  0  0
   -1.9974   43.5371   51.7937 H   0  0  0  0  0  0  0  0  0  0  0  0
   -0.5285   42.5031   51.7937 H   0  0  0  0  0  0  0  0  0  0  0  0
    0.8019   44.8915   57.9377 H   0  0  0  0  0  0  0  0  0  0  0  0
    1.4896   46.4234   57.2998 H   0  0  0  0  0  0  0  0  0  0  0  0
   -0.2885   46.1686   57.2998 H   0  0  0  0  0  0  0  0  0  0  0  0
    2.7258   45.9280   55.3659 H   0  0  0  0  0  0  0  0  0  0  0  0
    2.6076   46.9069   52.1793 H   0  0  0  0  0  0  0  0  0  0  0  0
    3.9777   46.7531   53.3622 H   0  0  0  0  0  0  0  0  0  0  0  0
    3.9825   46.0943   50.3856 H   0  0  0  0  0  0  0  0  0  0  0  0
    4.9645   47.3220   51.2624 H   0  0  0  0  0  0  0  0  0  0  0  0
    7.7772   47.4313   51.5364 H   0  0  0  0  0  0  0  0  0  0  0  0
    9.4141   44.9105   52.0763 H   0  0  0  0  0  0  0  0  0  0  0  0
    9.5741   46.0360   50.6718 H   0  0  0  0  0  0  0  0  0  0  0  0
   11.2920   46.4534   52.4436 H   0  0  0  0  0  0  0  0  0  0  0  0
   10.2021   47.8674   52.1620 H   0  0  0  0  0  0  0  0  0  0  0  0
   10.0012   45.8325   54.4399 H   0  0  0  0  0  0  0  0  0  0  0  0
   10.5362   47.5559   54.5594 H   0  0  0  0  0  0  0  0  0  0  0  0
    8.1669   47.2271   55.2887 H   0  0  0  0  0  0  0  0  0  0  0  0
    8.3302   48.3299   53.8650 H   0  0  0  0  0  0  0  0  0  0  0  0
    7.5150   45.3806   53.8035 H   0  0  0  0  0  0  0  0  0  0  0  0
    6.4490   46.8108   53.5173 H   0  0  0  0  0  0  0  0  0  0  0  0
    5.5711   43.2433   51.3031 H   0  0  0  0  0  0  0  0  0  0  0  0
    5.6249   43.8237   53.0206 H   0  0  0  0  0  0  0  0  0  0  0  0
    3.2318   43.7055   51.1379 H   0  0  0  0  0  0  0  0  0  0  0  0
    3.4615   42.8951   52.7367 H   0  0  0  0  0  0  0  0  0  0  0  0
  1  2  1  0
  2  3  1  0
  3  4  2  0
  4  5  1  0
  5  6  1  0
  5  7  2  0
  7  8  1  0
  8  9  1  0
  9 10  1  0
 10 11  1  0
 11 12  1  0
 12 13  1  0
 13 14  2  0
 13 15  1  0
 15 16  1  0
 16 17  1  0
 17 18  1  0
 18 19  1  0
 19 20  1  0
 12 21  1  0
 21 22  1  0
  8 23  2  0
 23  3  1  0
 22  9  1  0
 20 15  1  0
  1 24  1  0
  1 25  1  0
  1 26  1  0
  6 27  1  0
  6 28  1  0
  6 29  1  0
  7 30  1  0
 10 31  1  0
 10 32  1  0
 11 33  1  0
 11 34  1  0
 15 35  1  0
 16 36  1  0
 16 37  1  0
 17 38  1  0
 17 39  1  0
 18 40  1  0
 18 41  1  0
 19 42  1  0
 19 43  1  0
 20 44  1  0
 20 45  1  0
 21 46  1  0
 21 47  1  0
 22 48  1  0
 22 49  1  0
M  END
>  <meeko>  (2) 
{"is_sidechain": [false], "free_energy": -8.624, "intermolecular_energy": -10.129, "internal_energy": -0.413}

$$$$
ligand_59_conformer_1_docked
     RDKit          3D

 49 51  0  0  0  0  0  0  0  0999 V2000
   11.3700   47.5300   56.5120 C   0  0  0  0  0  0  0  0  0  0  0  0
   10.1730   48.0900   55.9820 O   0  0  0  0  0  0  0  0  0  0  0  0
    9.4900   47.5250   54.9020 C   0  0  0  0  0  0  0  0  0  0  0  0
   10.1880   47.1100   53.8150 N   0  0  0  0  0  0  0  0  0  0  0  0
    9.5620   46.5460   52.7500 C   0  0  0  0  0  0  0  0  0  0  0  0
   10.3580   46.1240   51.5560 C   0  0  0  0  0  0  0  0  0  0  0  0
    8.1700   46.4010   52.7600 C   0  0  0  0  0  0  0  0  0  0  0  0
    7.4500   46.8360   53.8870 C   0  0  0  0  0  0  0  0  0  0  0  0
    6.0090   46.7100   53.9630 N   0  0  0  0  0  0  0  0  0  0  0  0
    5.1840   46.8420   52.7480 C   0  0  0  0  0  0  0  0  0  0  0  0
    3.6910   46.9530   53.0730 C   0  0  0  0  0  0  0  0  0  0  0  0
    3.3110   45.9210   54.0390 N   0  0  0  0  0  0  0  0  0  0  0  0
    2.0010   45.3400   53.9870 C   0  0  0  0  0  0  0  0  0  0  0  0
    1.1090   45.7660   54.7690 O   0  0  0  0  0  0  0  0  0  0  0  0
    1.6660   44.2190   53.0310 C   0  0  0  0  0  0  0  0  0  0  0  0
    2.9270   43.5580   52.4370 C   0  0  0  0  0  0  0  0  0  0  0  0
    2.5490   42.4120   51.4900 C   0  0  0  0  0  0  0  0  0  0  0  0
    1.6130   42.9040   50.3780 C   0  0  0  0  0  0  0  0  0  0  0  0
    0.3580   43.5630   50.9640 C   0  0  0  0  0  0  0  0  0  0  0  0
    0.7310   44.7110   51.9110 C   0  0  0  0  0  0  0  0  0  0  0  0
    4.1480   45.6600   55.2170 C   0  0  0  0  0  0  0  0  0  0  0  0
    5.3540   46.6060   55.2790 C   0  0  0  0  0  0  0  0  0  0  0  0
    8.1370   47.3860   54.9280 N   0  0  0  0  0  0  0  0  0  0  0  0
   11.3286   47.5494   57.6111 H   0  0  0  0  0  0  0  0  0  0  0  0
   11.4725   46.4905   56.1672 H   0  0  0  0  0  0  0  0  0  0  0  0
   12.2337   48.1175   56.1672 H   0  0  0  0  0  0  0  0  0  0  0  0
   11.2846   45.6328   51.8880 H   0  0  0  0  0  0  0  0  0  0  0  0
    9.7667   45.4209   50.9510 H   0  0  0  0  0  0  0  0  0  0  0  0
   10.6081   47.0080   50.9510 H   0  0  0  0  0  0  0  0  0  0  0  0
    7.6480   45.9544   51.9009 H   0  0  0  0  0  0  0  0  0  0  0  0
    5.4964   47.7455   52.2038 H   0  0  0  0  0  0  0  0  0  0  0  0
    5.3313   45.9377   52.1393 H   0  0  0  0  0  0  0  0  0  0  0  0
    3.4839   47.9455   53.4998 H   0  0  0  0  0  0  0  0  0  0  0  0
    3.1092   46.8152   52.1497 H   0  0  0  0  0  0  0  0  0  0  0  0
    1.1405   43.4488   53.6147 H   0  0  0  0  0  0  0  0  0  0  0  0
    3.5003   44.3126   51.8785 H   0  0  0  0  0  0  0  0  0  0  0  0
    3.5309   43.1491   53.2605 H   0  0  0  0  0  0  0  0  0  0  0  0
    3.4640   42.0040   51.0358 H   0  0  0  0  0  0  0  0  0  0  0  0
    2.0275   41.6359   52.0694 H   0  0  0  0  0  0  0  0  0  0  0  0
    2.1475   43.6379   49.7570 H   0  0  0  0  0  0  0  0  0  0  0  0
    1.3034   42.0387   49.7736 H   0  0  0  0  0  0  0  0  0  0  0  0
   -0.2569   43.9596   50.1427 H   0  0  0  0  0  0  0  0  0  0  0  0
   -0.2015   42.8065   51.5337 H   0  0  0  0  0  0  0  0  0  0  0  0
    1.2401   45.4997   51.3376 H   0  0  0  0  0  0  0  0  0  0  0  0
   -0.1898   45.1016   52.3688 H   0  0  0  0  0  0  0  0  0  0  0  0
    3.5402   45.7979   56.1234 H   0  0  0  0  0  0  0  0  0  0  0  0
    4.5250   44.6290   55.1472 H   0  0  0  0  0  0  0  0  0  0  0  0
    5.0131   47.6041   55.5915 H   0  0  0  0  0  0  0  0  0  0  0  0
    6.0793   46.2039   56.0017 H   0  0  0  0  0  0  0  0  0  0  0  0
  1  2  1  0
  2  3  1  0
  3  4  2  0
  4  5  1  0
  5  6  1  0
  5  7  2  0
  7  8  1  0
  8  9  1  0
  9 10  1  0
 10 11  1  0
 11 12  1  0
 12 13  1  0
 13 14  2  0
 13 15  1  0
 15 16  1  0
 16 17  1  0
 17 18  1  0
 18 19  1  0
 19 20  1  0
 12 21  1  0
 21 22  1  0
  8 23  2  0
 23  3  1  0
 22  9  1  0
 20 15  1  0
  1 24  1  0
  1 25  1  0
  1 26  1  0
  6 27  1  0
  6 28  1  0
  6 29  1  0
  7 30  1  0
 10 31  1  0
 10 32  1  0
 11 33  1  0
 11 34  1  0
 15 35  1  0
 16 36  1  0
 16 37  1  0
 17 38  1  0
 17 39  1  0
 18 40  1  0
 18 41  1  0
 19 42  1  0
 19 43  1  0
 20 44  1  0
 20 45  1  0
 21 46  1  0
 21 47  1  0
 22 48  1  0
 22 49  1  0
M  END
>  <meeko>  (3) 
{"is_sidechain": [false], "free_energy": -8.409, "intermolecular_energy": -9.853, "internal_energy": -0.436}

$$$$
ligand_59_conformer_1_docked
     RDKit          3D

 49 51  0  0  0  0  0  0  0  0999 V2000
    1.3290   43.0310   50.8050 C   0  0  0  0  0  0  0  0  0  0  0  0
    0.4330   43.1020   51.9090 O   0  0  0  0  0  0  0  0  0  0  0  0
    0.7530   43.7600   53.1000 C   0  0  0  0  0  0  0  0  0  0  0  0
   -0.1960   43.9020   54.0590 N   0  0  0  0  0  0  0  0  0  0  0  0
    0.0800   44.5250   55.2340 C   0  0  0  0  0  0  0  0  0  0  0  0
   -0.9970   44.6900   56.2590 C   0  0  0  0  0  0  0  0  0  0  0  0
    1.3590   45.0470   55.4600 C   0  0  0  0  0  0  0  0  0  0  0  0
    2.3390   44.9010   54.4610 C   0  0  0  0  0  0  0  0  0  0  0  0
    3.6810   45.4130   54.6350 N   0  0  0  0  0  0  0  0  0  0  0  0
    4.8470   44.5370   54.4180 C   0  0  0  0  0  0  0  0  0  0  0  0
    6.1490   45.1740   54.9130 C   0  0  0  0  0  0  0  0  0  0  0  0
    6.2430   46.5550   54.4350 N   0  0  0  0  0  0  0  0  0  0  0  0
    7.5260   47.1190   54.1250 C   0  0  0  0  0  0  0  0  0  0  0  0
    8.0980   47.8500   54.9780 O   0  0  0  0  0  0  0  0  0  0  0  0
    8.2000   46.8740   52.7950 C   0  0  0  0  0  0  0  0  0  0  0  0
    7.3610   45.9710   51.8680 C   0  0  0  0  0  0  0  0  0  0  0  0
    8.0670   45.7640   50.5220 C   0  0  0  0  0  0  0  0  0  0  0  0
    9.4730   45.1840   50.7230 C   0  0  0  0  0  0  0  0  0  0  0  0
   10.3110   46.0780   51.6450 C   0  0  0  0  0  0  0  0  0  0  0  0
    9.6110   46.2880   52.9940 C   0  0  0  0  0  0  0  0  0  0  0  0
    5.0850   47.4520   54.5190 C   0  0  0  0  0  0  0  0  0  0  0  0
    3.8820   46.7670   55.1800 C   0  0  0  0  0  0  0  0  0  0  0  0
    2.0020   44.2580   53.3080 N   0  0  0  0  0  0  0  0  0  0  0  0
    2.3615   42.9492   51.1754 H   0  0  0  0  0  0  0  0  0  0  0  0
    1.0880   42.1491   50.1933 H   0  0  0  0  0  0  0  0  0  0  0  0
    1.2299   43.9398   50.1933 H   0  0  0  0  0  0  0  0  0  0  0  0
   -0.5586   44.6228   57.2656 H   0  0  0  0  0  0  0  0  0  0  0  0
   -1.4762   45.6720   56.1326 H   0  0  0  0  0  0  0  0  0  0  0  0
   -1.7482   43.8965   56.1326 H   0  0  0  0  0  0  0  0  0  0  0  0
    1.5940   45.5627   56.4028 H   0  0  0  0  0  0  0  0  0  0  0  0
    4.6864   43.5929   54.9591 H   0  0  0  0  0  0  0  0  0  0  0  0
    4.9446   44.3664   53.3357 H   0  0  0  0  0  0  0  0  0  0  0  0
    6.1629   45.1673   56.0129 H   0  0  0  0  0  0  0  0  0  0  0  0
    7.0029   44.5986   54.5261 H   0  0  0  0  0  0  0  0  0  0  0  0
    8.2903   47.8514   52.2985 H   0  0  0  0  0  0  0  0  0  0  0  0
    7.2148   44.9942   52.3522 H   0  0  0  0  0  0  0  0  0  0  0  0
    6.3915   46.4577   51.6858 H   0  0  0  0  0  0  0  0  0  0  0  0
    7.4753   45.0688   49.9084 H   0  0  0  0  0  0  0  0  0  0  0  0
    8.1580   46.7386   50.0201 H   0  0  0  0  0  0  0  0  0  0  0  0
    9.3883   44.1835   51.1722 H   0  0  0  0  0  0  0  0  0  0  0  0
    9.9711   45.1266   49.7439 H   0  0  0  0  0  0  0  0  0  0  0  0
   11.2876   45.6019   51.8170 H   0  0  0  0  0  0  0  0  0  0  0  0
   10.4391   47.0574   51.1610 H   0  0  0  0  0  0  0  0  0  0  0  0
    9.5298   45.3211   53.5121 H   0  0  0  0  0  0  0  0  0  0  0  0
   10.2045   46.9952   53.5920 H   0  0  0  0  0  0  0  0  0  0  0  0
    5.3616   48.3363   55.1119 H   0  0  0  0  0  0  0  0  0  0  0  0
    4.7975   47.7367   53.4961 H   0  0  0  0  0  0  0  0  0  0  0  0
    4.0587   46.6962   56.2634 H   0  0  0  0  0  0  0  0  0  0  0  0
    2.9817   47.3648   54.9749 H   0  0  0  0  0  0  0  0  0  0  0  0
  1  2  1  0
  2  3  1  0
  3  4  2  0
  4  5  1  0
  5  6  1  0
  5  7  2  0
  7  8  1  0
  8  9  1  0
  9 10  1  0
 10 11  1  0
 11 12  1  0
 12 13  1  0
 13 14  2  0
 13 15  1  0
 15 16  1  0
 16 17  1  0
 17 18  1  0
 18 19  1  0
 19 20  1  0
 12 21  1  0
 21 22  1  0
  8 23  2  0
 23  3  1  0
 22  9  1  0
 20 15  1  0
  1 24  1  0
  1 25  1  0
  1 26  1  0
  6 27  1  0
  6 28  1  0
  6 29  1  0
  7 30  1  0
 10 31  1  0
 10 32  1  0
 11 33  1  0
 11 34  1  0
 15 35  1  0
 16 36  1  0
 16 37  1  0
 17 38  1  0
 17 39  1  0
 18 40  1  0
 18 41  1  0
 19 42  1  0
 19 43  1  0
 20 44  1  0
 20 45  1  0
 21 46  1  0
 21 47  1  0
 22 48  1  0
 22 49  1  0
M  END
>  <meeko>  (4) 
{"is_sidechain": [false], "free_energy": -8.062, "intermolecular_energy": -9.532, "internal_energy": -0.348}

$$$$
ligand_59_conformer_1_docked
     RDKit          3D

 49 51  0  0  0  0  0  0  0  0999 V2000
    9.0780   47.5720   53.1180 C   0  0  0  0  0  0  0  0  0  0  0  0
    7.8030   47.6160   52.4860 O   0  0  0  0  0  0  0  0  0  0  0  0
    7.2700   46.5310   51.7850 C   0  0  0  0  0  0  0  0  0  0  0  0
    8.0290   45.9010   50.8530 N   0  0  0  0  0  0  0  0  0  0  0  0
    7.5510   44.8350   50.1600 C   0  0  0  0  0  0  0  0  0  0  0  0
    8.4050   44.1820   49.1190 C   0  0  0  0  0  0  0  0  0  0  0  0
    6.2480   44.3830   50.3940 C   0  0  0  0  0  0  0  0  0  0  0  0
    5.4630   45.0410   51.3580 C   0  0  0  0  0  0  0  0  0  0  0  0
    4.1090   44.6190   51.6510 N   0  0  0  0  0  0  0  0  0  0  0  0
    3.8580   43.5440   52.6290 C   0  0  0  0  0  0  0  0  0  0  0  0
    2.4050   43.0600   52.5940 C   0  0  0  0  0  0  0  0  0  0  0  0
    1.4950   44.2070   52.6030 N   0  0  0  0  0  0  0  0  0  0  0  0
    0.2230   44.1060   53.2580 C   0  0  0  0  0  0  0  0  0  0  0  0
   -0.8050   43.8670   52.5690 O   0  0  0  0  0  0  0  0  0  0  0  0
    0.0800   44.2970   54.7500 C   0  0  0  0  0  0  0  0  0  0  0  0
   -1.3600   44.6690   55.1590 C   0  0  0  0  0  0  0  0  0  0  0  0
   -1.4700   44.8330   56.6810 C   0  0  0  0  0  0  0  0  0  0  0  0
   -0.4680   45.8750   57.1950 C   0  0  0  0  0  0  0  0  0  0  0  0
    0.9650   45.5090   56.7900 C   0  0  0  0  0  0  0  0  0  0  0  0
    1.0820   45.3460   55.2690 C   0  0  0  0  0  0  0  0  0  0  0  0
    1.7470   45.3620   51.7330 C   0  0  0  0  0  0  0  0  0  0  0  0
    2.9890   45.1560   50.8580 C   0  0  0  0  0  0  0  0  0  0  0  0
    6.0030   46.0980   52.0270 N   0  0  0  0  0  0  0  0  0  0  0  0
    8.9463   47.5765   54.2101 H   0  0  0  0  0  0  0  0  0  0  0  0
    9.6054   46.6551   52.8161 H   0  0  0  0  0  0  0  0  0  0  0  0
    9.6674   48.4503   52.8161 H   0  0  0  0  0  0  0  0  0  0  0  0
    9.1873   43.5838   49.6090 H   0  0  0  0  0  0  0  0  0  0  0  0
    7.7822   43.5276   48.4914 H   0  0  0  0  0  0  0  0  0  0  0  0
    8.8732   44.9546   48.4914 H   0  0  0  0  0  0  0  0  0  0  0  0
    5.8440   43.5271   49.8334 H   0  0  0  0  0  0  0  0  0  0  0  0
    4.5199   42.6956   52.4010 H   0  0  0  0  0  0  0  0  0  0  0  0
    4.0565   43.9468   53.6332 H   0  0  0  0  0  0  0  0  0  0  0  0
    2.2392   42.4706   51.6801 H   0  0  0  0  0  0  0  0  0  0  0  0
    2.2102   42.4375   53.4797 H   0  0  0  0  0  0  0  0  0  0  0  0
    0.3095   43.3288   55.2190 H   0  0  0  0  0  0  0  0  0  0  0  0
   -1.6396   45.6155   54.6733 H   0  0  0  0  0  0  0  0  0  0  0  0
   -2.0360   43.8612   54.8420 H   0  0  0  0  0  0  0  0  0  0  0  0
   -2.4896   45.1583   56.9351 H   0  0  0  0  0  0  0  0  0  0  0  0
   -1.2449   43.8663   57.1551 H   0  0  0  0  0  0  0  0  0  0  0  0
   -0.7216   46.8575   56.7703 H   0  0  0  0  0  0  0  0  0  0  0  0
   -0.5247   45.9025   58.2932 H   0  0  0  0  0  0  0  0  0  0  0  0
    1.6468   46.3067   57.1198 H   0  0  0  0  0  0  0  0  0  0  0  0
    1.2305   44.5536   57.2662 H   0  0  0  0  0  0  0  0  0  0  0  0
    0.8743   46.3123   54.7862 H   0  0  0  0  0  0  0  0  0  0  0  0
    2.1009   45.0078   55.0290 H   0  0  0  0  0  0  0  0  0  0  0  0
    0.8738   45.5142   51.0815 H   0  0  0  0  0  0  0  0  0  0  0  0
    1.9212   46.2399   52.3724 H   0  0  0  0  0  0  0  0  0  0  0  0
    2.7475   44.4485   50.0511 H   0  0  0  0  0  0  0  0  0  0  0  0
    3.2892   46.1283   50.4402 H   0  0  0  0  0  0  0  0  0  0  0  0
  1  2  1  0
  2  3  1  0
  3  4  2  0
  4  5  1  0
  5  6  1  0
  5  7  2  0
  7  8  1  0
  8  9  1  0
  9 10  1  0
 10 11  1  0
 11 12  1  0
 12 13  1  0
 13 14  2  0
 13 15  1  0
 15 16  1  0
 16 17  1  0
 17 18  1  0
 18 19  1  0
 19 20  1  0
 12 21  1  0
 21 22  1  0
  8 23  2  0
 23  3  1  0
 22  9  1  0
 20 15  1  0
  1 24  1  0
  1 25  1  0
  1 26  1  0
  6 27  1  0
  6 28  1  0
  6 29  1  0
  7 30  1  0
 10 31  1  0
 10 32  1  0
 11 33  1  0
 11 34  1  0
 15 35  1  0
 16 36  1  0
 16 37  1  0
 17 38  1  0
 17 39  1  0
 18 40  1  0
 18 41  1  0
 19 42  1  0
 19 43  1  0
 20 44  1  0
 20 45  1  0
 21 46  1  0
 21 47  1  0
 22 48  1  0
 22 49  1  0
M  END
>  <meeko>  (5) 
{"is_sidechain": [false], "free_energy": -7.687, "intermolecular_energy": -9.032, "internal_energy": -0.408}

$$$$
