MODEL 1
REMARK VINA RESULT:    -8.843      0.000      0.000
REMARK INTER + INTRA:         -10.588
REMARK INTER:                 -10.910
REMARK INTRA:                   0.323
REMARK UNBOUND:                 0.323
REMARK SMILES CCCNC(=O)C1CCN(C(=O)c2cccc(Cl)c2)CC1
REMARK SMILES IDX 4 1 5 2 6 3 3 5 2 6 1 7 7 8 8 9 21 10 9 11 20 12 10 13 11 14
REMARK SMILES IDX 12 15 13 16 14 17 19 18 15 19 17 20 16 21 18 22
REMARK H PARENT 4 4
ROOT
ATOM      1  N   UNL     1       3.162  43.328  51.156  1.00  0.00    -0.356 N 
ATOM      2  C   UNL     1       2.083  44.271  51.194  1.00  0.00     0.223 C 
ATOM      3  O   UNL     1       0.907  43.888  50.947  1.00  0.00    -0.275 OA
ATOM      4  H   UNL     1       4.129  43.667  51.363  1.00  0.00     0.163 HD
ENDROOT
BRANCH   1   5
ATOM      5  C   UNL     1       2.933  41.919  50.834  1.00  0.00     0.115 C 
BRANCH   5   6
ATOM      6  C   UNL     1       4.238  41.204  50.461  1.00  0.00     0.018 C 
ATOM      7  C   UNL     1       5.408  42.177  50.331  1.00  0.00     0.006 C 
ENDBRANCH   5   6
ENDBRANCH   1   5
BRANCH   2   8
ATOM      8  C   UNL     1       2.363  45.708  51.579  1.00  0.00     0.082 C 
ATOM      9  C   UNL     1       3.640  46.229  50.887  1.00  0.00     0.035 C 
ATOM     10  C   UNL     1       2.411  45.940  53.111  1.00  0.00     0.035 C 
ATOM     11  C   UNL     1       4.910  45.693  51.553  1.00  0.00     0.120 C 
ATOM     12  C   UNL     1       3.730  45.471  53.747  1.00  0.00     0.120 C 
ATOM     13  N   UNL     1       4.867  45.996  52.987  1.00  0.00    -0.339 N 
ATOM     14  C   UNL     1       5.689  47.043  53.537  1.00  0.00     0.253 C 
ATOM     15  O   UNL     1       5.155  47.937  54.250  1.00  0.00    -0.269 OA
BRANCH  14  16
ATOM     16  C   UNL     1       7.150  47.084  53.291  1.00  0.00     0.041 A 
ATOM     17  C   UNL     1       7.661  47.013  51.982  1.00  0.00     0.014 A 
ATOM     18  C   UNL     1       8.049  47.164  54.371  1.00  0.00     0.034 A 
ATOM     19  C   UNL     1       9.039  47.043  51.758  1.00  0.00     0.002 A 
ATOM     20  C   UNL     1       9.429  47.193  54.142  1.00  0.00     0.041 A 
ATOM     21  C   UNL     1       9.923  47.134  52.836  1.00  0.00     0.020 A 
ATOM     22  Cl  UNL     1      10.540  47.303  55.495  1.00  0.00    -0.084 Cl
ENDBRANCH  14  16
ENDBRANCH   2   8
TORSDOF 4
ENDMDL
MODEL 2
REMARK VINA RESULT:    -8.555      3.180      6.829
REMARK INTER + INTRA:         -10.233
REMARK INTER:                 -10.179
REMARK INTRA:                  -0.055
REMARK UNBOUND:                 0.323
REMARK SMILES CCCNC(=O)C1CCN(C(=O)c2cccc(Cl)c2)CC1
REMARK SMILES IDX 4 1 5 2 6 3 3 5 2 6 1 7 7 8 8 9 21 10 9 11 20 12 10 13 11 14
REMARK SMILES IDX 12 15 13 16 14 17 19 18 15 19 17 20 16 21 18 22
REMARK H PARENT 4 4
ROOT
ATOM      1  N   UNL     1       7.766  46.724  51.437  1.00  0.00    -0.356 N 
ATOM      2  C   UNL     1       6.467  46.813  52.036  1.00  0.00     0.223 C 
ATOM      3  O   UNL     1       6.276  47.599  53.005  1.00  0.00    -0.275 OA
ATOM      4  H   UNL     1       7.901  46.066  50.637  1.00  0.00     0.163 HD
ENDROOT
BRANCH   1   5
ATOM      5  C   UNL     1       8.888  47.527  51.924  1.00  0.00     0.115 C 
BRANCH   5   6
ATOM      6  C   UNL     1       9.877  46.683  52.739  1.00  0.00     0.018 C 
ATOM      7  C   UNL     1       9.949  47.133  54.197  1.00  0.00     0.006 C 
ENDBRANCH   5   6
ENDBRANCH   1   5
BRANCH   2   8
ATOM      8  C   UNL     1       5.325  45.998  51.467  1.00  0.00     0.082 C 
ATOM      9  C   UNL     1       3.963  46.622  51.833  1.00  0.00     0.035 C 
ATOM     10  C   UNL     1       5.387  44.497  51.849  1.00  0.00     0.035 C 
ATOM     11  C   UNL     1       3.578  46.338  53.288  1.00  0.00     0.120 C 
ATOM     12  C   UNL     1       4.916  44.226  53.287  1.00  0.00     0.120 C 
ATOM     13  N   UNL     1       3.635  44.893  53.529  1.00  0.00    -0.339 N 
ATOM     14  C   UNL     1       2.423  44.123  53.642  1.00  0.00     0.253 C 
ATOM     15  O   UNL     1       2.281  43.088  52.933  1.00  0.00    -0.269 OA
BRANCH  14  16
ATOM     16  C   UNL     1       1.346  44.516  54.581  1.00  0.00     0.041 A 
ATOM     17  C   UNL     1       0.001  44.218  54.298  1.00  0.00     0.014 A 
ATOM     18  C   UNL     1       1.655  45.222  55.759  1.00  0.00     0.034 A 
ATOM     19  C   UNL     1      -1.010  44.600  55.184  1.00  0.00     0.002 A 
ATOM     20  C   UNL     1       0.640  45.603  56.643  1.00  0.00     0.041 A 
ATOM     21  C   UNL     1      -0.692  45.290  56.356  1.00  0.00     0.020 A 
ATOM     22  Cl  UNL     1       1.038  46.474  58.113  1.00  0.00    -0.084 Cl
ENDBRANCH  14  16
ENDBRANCH   2   8
TORSDOF 4
ENDMDL
MODEL 3
REMARK VINA RESULT:    -8.272      2.454      3.817
REMARK INTER + INTRA:          -9.884
REMARK INTER:                  -9.796
REMARK INTRA:                  -0.089
REMARK UNBOUND:                 0.323
REMARK SMILES CCCNC(=O)C1CCN(C(=O)c2cccc(Cl)c2)CC1
REMARK SMILES IDX 4 1 5 2 6 3 3 5 2 6 1 7 7 8 8 9 21 10 9 11 20 12 10 13 11 14
REMARK SMILES IDX 12 15 13 16 14 17 19 18 15 19 17 20 16 21 18 22
REMARK H PARENT 4 4
ROOT
ATOM      1  N   UNL     1       1.918  44.562  54.852  1.00  0.00    -0.356 N 
ATOM      2  C   UNL     1       2.009  45.037  53.502  1.00  0.00     0.223 C 
ATOM      3  O   UNL     1       1.327  46.036  53.142  1.00  0.00    -0.275 OA
ATOM      4  H   UNL     1       2.492  43.733  55.128  1.00  0.00     0.163 HD
ENDROOT
BRANCH   1   5
ATOM      5  C   UNL     1       1.046  45.210  55.832  1.00  0.00     0.115 C 
BRANCH   5   6
ATOM      6  C   UNL     1      -0.402  44.718  55.713  1.00  0.00     0.018 C 
ATOM      7  C   UNL     1      -1.220  45.033  56.965  1.00  0.00     0.006 C 
ENDBRANCH   5   6
ENDBRANCH   1   5
BRANCH   2   8
ATOM      8  C   UNL     1       2.962  44.364  52.538  1.00  0.00     0.082 C 
ATOM      9  C   UNL     1       4.318  44.072  53.212  1.00  0.00     0.035 C 
ATOM     10  C   UNL     1       3.142  45.137  51.206  1.00  0.00     0.035 C 
ATOM     11  C   UNL     1       5.175  45.334  53.341  1.00  0.00     0.120 C 
ATOM     12  C   UNL     1       4.074  46.353  51.341  1.00  0.00     0.120 C 
ATOM     13  N   UNL     1       5.310  45.963  52.024  1.00  0.00    -0.339 N 
ATOM     14  C   UNL     1       6.547  45.870  51.293  1.00  0.00     0.253 C 
ATOM     15  O   UNL     1       6.530  45.464  50.098  1.00  0.00    -0.269 OA
BRANCH  14  16
ATOM     16  C   UNL     1       7.838  46.253  51.913  1.00  0.00     0.041 A 
ATOM     17  C   UNL     1       9.057  45.820  51.361  1.00  0.00     0.014 A 
ATOM     18  C   UNL     1       7.858  47.032  53.085  1.00  0.00     0.034 A 
ATOM     19  C   UNL     1      10.270  46.177  51.956  1.00  0.00     0.002 A 
ATOM     20  C   UNL     1       9.074  47.387  53.678  1.00  0.00     0.041 A 
ATOM     21  C   UNL     1      10.279  46.961  53.112  1.00  0.00     0.020 A 
ATOM     22  Cl  UNL     1       9.088  48.368  55.132  1.00  0.00    -0.084 Cl
ENDBRANCH  14  16
ENDBRANCH   2   8
TORSDOF 4
ENDMDL
MODEL 4
REMARK VINA RESULT:    -8.253      1.536      2.154
REMARK INTER + INTRA:          -9.860
REMARK INTER:                  -9.955
REMARK INTRA:                   0.095
REMARK UNBOUND:                 0.323
REMARK SMILES CCCNC(=O)C1CCN(C(=O)c2cccc(Cl)c2)CC1
REMARK SMILES IDX 4 1 5 2 6 3 3 5 2 6 1 7 7 8 8 9 21 10 9 11 20 12 10 13 11 14
REMARK SMILES IDX 12 15 13 16 14 17 19 18 15 19 17 20 16 21 18 22
REMARK H PARENT 4 4
ROOT
ATOM      1  N   UNL     1       0.648  44.034  51.696  1.00  0.00    -0.356 N 
ATOM      2  C   UNL     1       1.980  44.413  51.328  1.00  0.00     0.223 C 
ATOM      3  O   UNL     1       2.780  43.542  50.887  1.00  0.00    -0.275 OA
ATOM      4  H   UNL     1       0.003  44.772  52.061  1.00  0.00     0.163 HD
ENDROOT
BRANCH   1   5
ATOM      5  C   UNL     1       0.186  42.651  51.575  1.00  0.00     0.115 C 
BRANCH   5   6
ATOM      6  C   UNL     1      -0.562  42.191  52.833  1.00  0.00     0.018 C 
ATOM      7  C   UNL     1      -0.253  43.076  54.040  1.00  0.00     0.006 C 
ENDBRANCH   5   6
ENDBRANCH   1   5
BRANCH   2   8
ATOM      8  C   UNL     1       2.397  45.865  51.426  1.00  0.00     0.082 C 
ATOM      9  C   UNL     1       3.744  46.104  50.713  1.00  0.00     0.035 C 
ATOM     10  C   UNL     1       2.417  46.406  52.879  1.00  0.00     0.035 C 
ATOM     11  C   UNL     1       4.927  45.599  51.544  1.00  0.00     0.120 C 
ATOM     12  C   UNL     1       3.657  45.954  53.669  1.00  0.00     0.120 C 
ATOM     13  N   UNL     1       4.868  46.198  52.881  1.00  0.00    -0.339 N 
ATOM     14  C   UNL     1       5.776  47.253  53.251  1.00  0.00     0.253 C 
ATOM     15  O   UNL     1       5.315  48.323  53.736  1.00  0.00    -0.269 OA
BRANCH  14  16
ATOM     16  C   UNL     1       7.240  47.101  53.082  1.00  0.00     0.041 A 
ATOM     17  C   UNL     1       7.791  46.781  51.828  1.00  0.00     0.014 A 
ATOM     18  C   UNL     1       8.100  47.245  54.187  1.00  0.00     0.034 A 
ATOM     19  C   UNL     1       9.172  46.630  51.678  1.00  0.00     0.002 A 
ATOM     20  C   UNL     1       9.482  47.092  54.034  1.00  0.00     0.041 A 
ATOM     21  C   UNL     1      10.017  46.787  52.778  1.00  0.00     0.020 A 
ATOM     22  Cl  UNL     1      10.546  47.284  55.415  1.00  0.00    -0.084 Cl
ENDBRANCH  14  16
ENDBRANCH   2   8
TORSDOF 4
ENDMDL
MODEL 5
REMARK VINA RESULT:    -8.104      2.605      3.329
REMARK INTER + INTRA:          -9.676
REMARK INTER:                  -9.546
REMARK INTRA:                  -0.129
REMARK UNBOUND:                 0.323
REMARK SMILES CCCNC(=O)C1CCN(C(=O)c2cccc(Cl)c2)CC1
REMARK SMILES IDX 4 1 5 2 6 3 3 5 2 6 1 7 7 8 8 9 21 10 9 11 20 12 10 13 11 14
REMARK SMILES IDX 12 15 13 16 14 17 19 18 15 19 17 20 16 21 18 22
REMARK H PARENT 4 4
ROOT
ATOM      1  N   UNL     1       1.538  45.089  52.709  1.00  0.00    -0.356 N 
ATOM      2  C   UNL     1       2.317  45.959  53.541  1.00  0.00     0.223 C 
ATOM      3  O   UNL     1       2.361  45.759  54.787  1.00  0.00    -0.275 OA
ATOM      4  H   UNL     1       1.514  45.273  51.680  1.00  0.00     0.163 HD
ENDROOT
BRANCH   1   5
ATOM      5  C   UNL     1       0.786  43.967  53.270  1.00  0.00     0.115 C 
BRANCH   5   6
ATOM      6  C   UNL     1       0.939  42.700  52.419  1.00  0.00     0.018 C 
ATOM      7  C   UNL     1       2.126  42.792  51.461  1.00  0.00     0.006 C 
ENDBRANCH   5   6
ENDBRANCH   1   5
BRANCH   2   8
ATOM      8  C   UNL     1       3.116  47.077  52.909  1.00  0.00     0.082 C 
ATOM      9  C   UNL     1       3.898  46.572  51.678  1.00  0.00     0.035 C 
ATOM     10  C   UNL     1       4.042  47.818  53.908  1.00  0.00     0.035 C 
ATOM     11  C   UNL     1       5.139  45.771  52.080  1.00  0.00     0.120 C 
ATOM     12  C   UNL     1       5.323  47.031  54.232  1.00  0.00     0.120 C 
ATOM     13  N   UNL     1       5.958  46.575  52.992  1.00  0.00    -0.339 N 
ATOM     14  C   UNL     1       7.181  47.182  52.535  1.00  0.00     0.253 C 
ATOM     15  O   UNL     1       7.366  48.416  52.724  1.00  0.00    -0.269 OA
BRANCH  14  16
ATOM     16  C   UNL     1       8.229  46.383  51.857  1.00  0.00     0.041 A 
ATOM     17  C   UNL     1       9.569  46.450  52.279  1.00  0.00     0.014 A 
ATOM     18  C   UNL     1       7.900  45.567  50.759  1.00  0.00     0.034 A 
ATOM     19  C   UNL     1      10.554  45.701  51.630  1.00  0.00     0.002 A 
ATOM     20  C   UNL     1       8.889  44.819  50.111  1.00  0.00     0.041 A 
ATOM     21  C   UNL     1      10.216  44.886  50.548  1.00  0.00     0.020 A 
ATOM     22  Cl  UNL     1       8.467  43.798  48.749  1.00  0.00    -0.084 Cl
ENDBRANCH  14  16
ENDBRANCH   2   8
TORSDOF 4
ENDMDL
