MODEL 1
REMARK VINA RESULT:    -8.771      0.000      0.000
REMARK INTER + INTRA:         -11.287
REMARK INTER:                 -10.822
REMARK INTRA:                  -0.466
REMARK UNBOUND:                -0.466
REMARK SMILES C[C@@H](NCc1nc2sc3c(c2c(=O)[nH]1)CCC3)c1cc(Br)cs1
REMARK SMILES IDX 3 1 2 3 1 4 18 5 19 6 23 7 20 8 22 9 21 10 4 11 5 12 6 13
REMARK SMILES IDX 14 14 7 15 12 16 8 17 11 18 13 19 9 20 10 21 17 22 15 23
REMARK SMILES IDX 16 24
REMARK H PARENT 3 2 14 25
ROOT
ATOM      1  N   UNL     1       2.335  44.637  51.194  1.00  0.00    -0.302 NA
ATOM      2  H   UNL     1       2.797  44.132  50.401  1.00  0.00     0.123 HD
ENDROOT
BRANCH   1   3
ATOM      3  C   UNL     1       2.692  43.967  52.460  1.00  0.00     0.091 C 
ATOM      4  C   UNL     1       2.900  42.469  52.215  1.00  0.00     0.030 C 
BRANCH   3   5
ATOM      5  C   UNL     1       1.616  44.159  53.497  1.00  0.00     0.022 A 
ATOM      6  C   UNL     1       1.767  44.829  54.704  1.00  0.00     0.032 A 
ATOM      7  S   UNL     1       0.024  43.620  53.377  1.00  0.00    -0.146 S 
ATOM      8  C   UNL     1       0.589  44.867  55.459  1.00  0.00     0.029 A 
ATOM      9  C   UNL     1      -0.489  44.231  54.857  1.00  0.00     0.080 A 
ATOM     10  Br  UNL     1       0.474  45.722  57.160  1.00  0.00    -0.050 Br
ENDBRANCH   3   5
ENDBRANCH   1   3
BRANCH   1  11
ATOM     11  C   UNL     1       2.754  46.050  51.137  1.00  0.00     0.157 C 
BRANCH  11  12
ATOM     12  C   UNL     1       4.111  46.270  51.747  1.00  0.00     0.124 A 
ATOM     13  N   UNL     1       5.225  45.895  51.051  1.00  0.00    -0.222 NA
ATOM     14  N   UNL     1       4.233  46.887  52.967  1.00  0.00    -0.309 N 
ATOM     15  C   UNL     1       6.445  46.128  51.584  1.00  0.00     0.131 A 
ATOM     16  C   UNL     1       5.459  47.130  53.520  1.00  0.00     0.259 A 
ATOM     17  S   UNL     1       7.947  45.754  50.891  1.00  0.00    -0.120 S 
ATOM     18  C   UNL     1       6.596  46.744  52.815  1.00  0.00     0.080 A 
ATOM     19  O   UNL     1       5.551  47.697  54.642  1.00  0.00    -0.269 OA
ATOM     20  C   UNL     1       8.782  46.397  52.213  1.00  0.00     0.011 A 
ATOM     21  C   UNL     1       7.941  46.884  53.151  1.00  0.00    -0.019 A 
ATOM     22  C   UNL     1      10.206  46.551  52.551  1.00  0.00     0.047 C 
ATOM     23  C   UNL     1       8.655  47.463  54.306  1.00  0.00     0.038 C 
ATOM     24  C   UNL     1      10.147  47.249  53.934  1.00  0.00     0.010 C 
ATOM     25  H   UNL     1       3.374  47.177  53.487  1.00  0.00     0.171 HD
ENDBRANCH  11  12
ENDBRANCH   1  11
TORSDOF 4
ENDMDL
MODEL 2
REMARK VINA RESULT:    -8.626      1.483      1.756
REMARK INTER + INTRA:         -11.109
REMARK INTER:                 -10.700
REMARK INTRA:                  -0.409
REMARK UNBOUND:                -0.466
REMARK SMILES C[C@@H](NCc1nc2sc3c(c2c(=O)[nH]1)CCC3)c1cc(Br)cs1
REMARK SMILES IDX 3 1 2 3 1 4 18 5 19 6 23 7 20 8 22 9 21 10 4 11 5 12 6 13
REMARK SMILES IDX 14 14 7 15 12 16 8 17 11 18 13 19 9 20 10 21 17 22 15 23
REMARK SMILES IDX 16 24
REMARK H PARENT 3 2 14 25
ROOT
ATOM      1  N   UNL     1       1.420  46.171  52.459  1.00  0.00    -0.302 NA
ATOM      2  H   UNL     1       0.791  46.930  52.103  1.00  0.00     0.123 HD
ENDROOT
BRANCH   1   3
ATOM      3  C   UNL     1       0.598  44.999  52.819  1.00  0.00     0.091 C 
ATOM      4  C   UNL     1      -0.698  45.002  52.002  1.00  0.00     0.030 C 
BRANCH   3   5
ATOM      5  C   UNL     1       0.264  45.002  54.288  1.00  0.00     0.022 A 
ATOM      6  C   UNL     1      -0.957  44.632  54.839  1.00  0.00     0.032 A 
ATOM      7  S   UNL     1       1.310  45.430  55.537  1.00  0.00    -0.146 S 
ATOM      8  C   UNL     1      -0.973  44.717  56.236  1.00  0.00     0.029 A 
ATOM      9  C   UNL     1       0.224  45.151  56.791  1.00  0.00     0.080 A 
ATOM     10  Br  UNL     1      -2.502  44.269  57.285  1.00  0.00    -0.050 Br
ENDBRANCH   3   5
ENDBRANCH   1   3
BRANCH   1  11
ATOM     11  C   UNL     1       2.425  45.889  51.418  1.00  0.00     0.157 C 
BRANCH  11  12
ATOM     12  C   UNL     1       3.831  46.127  51.900  1.00  0.00     0.124 A 
ATOM     13  N   UNL     1       4.880  45.789  51.093  1.00  0.00    -0.222 NA
ATOM     14  N   UNL     1       4.057  46.721  53.117  1.00  0.00    -0.309 N 
ATOM     15  C   UNL     1       6.141  46.038  51.512  1.00  0.00     0.131 A 
ATOM     16  C   UNL     1       5.325  46.980  53.555  1.00  0.00     0.259 A 
ATOM     17  S   UNL     1       7.576  45.710  50.670  1.00  0.00    -0.120 S 
ATOM     18  C   UNL     1       6.397  46.632  52.736  1.00  0.00     0.080 A 
ATOM     19  O   UNL     1       5.514  47.525  54.675  1.00  0.00    -0.269 OA
ATOM     20  C   UNL     1       8.522  46.345  51.920  1.00  0.00     0.011 A 
ATOM     21  C   UNL     1       7.765  46.795  52.945  1.00  0.00    -0.019 A 
ATOM     22  C   UNL     1       9.967  46.522  52.124  1.00  0.00     0.047 C 
ATOM     23  C   UNL     1       8.575  47.365  54.038  1.00  0.00     0.038 C 
ATOM     24  C   UNL     1      10.028  47.190  53.521  1.00  0.00     0.010 C 
ATOM     25  H   UNL     1       3.246  46.983  53.722  1.00  0.00     0.171 HD
ENDBRANCH  11  12
ENDBRANCH   1  11
TORSDOF 4
ENDMDL
MODEL 3
REMARK VINA RESULT:    -8.155      1.943      2.422
REMARK INTER + INTRA:         -10.528
REMARK INTER:                 -10.167
REMARK INTRA:                  -0.361
REMARK UNBOUND:                -0.466
REMARK SMILES C[C@@H](NCc1nc2sc3c(c2c(=O)[nH]1)CCC3)c1cc(Br)cs1
REMARK SMILES IDX 3 1 2 3 1 4 18 5 19 6 23 7 20 8 22 9 21 10 4 11 5 12 6 13
REMARK SMILES IDX 14 14 7 15 12 16 8 17 11 18 13 19 9 20 10 21 17 22 15 23
REMARK SMILES IDX 16 24
REMARK H PARENT 3 2 14 25
ROOT
ATOM      1  N   UNL     1       1.903  45.099  52.166  1.00  0.00    -0.302 NA
ATOM      2  H   UNL     1       1.010  45.411  51.715  1.00  0.00     0.123 HD
ENDROOT
BRANCH   1   3
ATOM      3  C   UNL     1       1.624  43.928  53.021  1.00  0.00     0.091 C 
ATOM      4  C   UNL     1       0.676  42.969  52.295  1.00  0.00     0.030 C 
BRANCH   3   5
ATOM      5  C   UNL     1       1.006  44.348  54.329  1.00  0.00     0.022 A 
ATOM      6  C   UNL     1      -0.301  44.094  54.723  1.00  0.00     0.032 A 
ATOM      7  S   UNL     1       1.788  45.179  55.568  1.00  0.00    -0.146 S 
ATOM      8  C   UNL     1      -0.593  44.586  56.001  1.00  0.00     0.029 A 
ATOM      9  C   UNL     1       0.474  45.226  56.616  1.00  0.00     0.080 A 
ATOM     10  Br  UNL     1      -2.302  44.388  56.824  1.00  0.00    -0.050 Br
ENDBRANCH   3   5
ENDBRANCH   1   3
BRANCH   1  11
ATOM     11  C   UNL     1       2.881  44.828  51.096  1.00  0.00     0.157 C 
BRANCH  11  12
ATOM     12  C   UNL     1       4.269  45.280  51.461  1.00  0.00     0.124 A 
ATOM     13  N   UNL     1       4.498  45.796  52.705  1.00  0.00    -0.222 NA
ATOM     14  N   UNL     1       5.305  45.131  50.573  1.00  0.00    -0.309 N 
ATOM     15  C   UNL     1       5.753  46.166  53.045  1.00  0.00     0.131 A 
ATOM     16  C   UNL     1       6.579  45.499  50.901  1.00  0.00     0.259 A 
ATOM     17  S   UNL     1       6.256  46.816  54.529  1.00  0.00    -0.120 S 
ATOM     18  C   UNL     1       6.815  46.030  52.167  1.00  0.00     0.080 A 
ATOM     19  O   UNL     1       7.517  45.355  50.072  1.00  0.00    -0.269 OA
ATOM     20  C   UNL     1       7.860  46.919  54.005  1.00  0.00     0.011 A 
ATOM     21  C   UNL     1       8.006  46.469  52.740  1.00  0.00    -0.019 A 
ATOM     22  C   UNL     1       9.114  47.373  54.625  1.00  0.00     0.047 C 
ATOM     23  C   UNL     1       9.404  46.538  52.272  1.00  0.00     0.038 C 
ATOM     24  C   UNL     1      10.150  47.136  53.496  1.00  0.00     0.010 C 
ATOM     25  H   UNL     1       5.119  44.727  49.627  1.00  0.00     0.171 HD
ENDBRANCH  11  12
ENDBRANCH   1  11
TORSDOF 4
ENDMDL
MODEL 4
REMARK VINA RESULT:    -7.956      2.268      2.445
REMARK INTER + INTRA:         -10.282
REMARK INTER:                  -9.922
REMARK INTRA:                  -0.360
REMARK UNBOUND:                -0.466
REMARK SMILES C[C@@H](NCc1nc2sc3c(c2c(=O)[nH]1)CCC3)c1cc(Br)cs1
REMARK SMILES IDX 3 1 2 3 1 4 18 5 19 6 23 7 20 8 22 9 21 10 4 11 5 12 6 13
REMARK SMILES IDX 14 14 7 15 12 16 8 17 11 18 13 19 9 20 10 21 17 22 15 23
REMARK SMILES IDX 16 24
REMARK H PARENT 3 2 14 25
ROOT
ATOM      1  N   UNL     1       2.050  44.059  51.617  1.00  0.00    -0.302 NA
ATOM      2  H   UNL     1       2.888  43.569  52.011  1.00  0.00     0.123 HD
ENDROOT
BRANCH   1   3
ATOM      3  C   UNL     1       0.972  44.050  52.625  1.00  0.00     0.091 C 
ATOM      4  C   UNL     1       0.935  42.692  53.334  1.00  0.00     0.030 C 
BRANCH   3   5
ATOM      5  C   UNL     1      -0.367  44.318  51.988  1.00  0.00     0.022 A 
ATOM      6  C   UNL     1      -1.169  45.426  52.230  1.00  0.00     0.032 A 
ATOM      7  S   UNL     1      -1.130  43.341  50.848  1.00  0.00    -0.146 S 
ATOM      8  C   UNL     1      -2.351  45.419  51.480  1.00  0.00     0.029 A 
ATOM      9  C   UNL     1      -2.488  44.314  50.651  1.00  0.00     0.080 A 
ATOM     10  Br  UNL     1      -3.655  46.808  51.584  1.00  0.00    -0.050 Br
ENDBRANCH   3   5
ENDBRANCH   1   3
BRANCH   1  11
ATOM     11  C   UNL     1       2.467  45.415  51.212  1.00  0.00     0.157 C 
BRANCH  11  12
ATOM     12  C   UNL     1       3.844  45.763  51.709  1.00  0.00     0.124 A 
ATOM     13  N   UNL     1       4.930  45.446  50.944  1.00  0.00    -0.222 NA
ATOM     14  N   UNL     1       4.005  46.437  52.894  1.00  0.00    -0.309 N 
ATOM     15  C   UNL     1       6.163  45.793  51.374  1.00  0.00     0.131 A 
ATOM     16  C   UNL     1       5.245  46.795  53.342  1.00  0.00     0.259 A 
ATOM     17  S   UNL     1       7.635  45.506  50.581  1.00  0.00    -0.120 S 
ATOM     18  C   UNL     1       6.355  46.469  52.567  1.00  0.00     0.080 A 
ATOM     19  O   UNL     1       5.374  47.413  54.433  1.00  0.00    -0.269 OA
ATOM     20  C   UNL     1       8.511  46.265  51.813  1.00  0.00     0.011 A 
ATOM     21  C   UNL     1       7.705  46.725  52.794  1.00  0.00    -0.019 A 
ATOM     22  C   UNL     1       9.939  46.541  52.035  1.00  0.00     0.047 C 
ATOM     23  C   UNL     1       8.454  47.403  53.870  1.00  0.00     0.038 C 
ATOM     24  C   UNL     1       9.927  47.288  53.393  1.00  0.00     0.010 C 
ATOM     25  H   UNL     1       3.166  46.682  53.467  1.00  0.00     0.171 HD
ENDBRANCH  11  12
ENDBRANCH   1  11
TORSDOF 4
ENDMDL
MODEL 5
REMARK VINA RESULT:    -7.776      3.007      4.141
REMARK INTER + INTRA:         -10.060
REMARK INTER:                  -9.586
REMARK INTRA:                  -0.473
REMARK UNBOUND:                -0.466
REMARK SMILES C[C@@H](NCc1nc2sc3c(c2c(=O)[nH]1)CCC3)c1cc(Br)cs1
REMARK SMILES IDX 3 1 2 3 1 4 18 5 19 6 23 7 20 8 22 9 21 10 4 11 5 12 6 13
REMARK SMILES IDX 14 14 7 15 12 16 8 17 11 18 13 19 9 20 10 21 17 22 15 23
REMARK SMILES IDX 16 24
REMARK H PARENT 3 2 14 25
ROOT
ATOM      1  N   UNL     1       2.426  44.925  55.781  1.00  0.00    -0.302 NA
ATOM      2  H   UNL     1       2.728  44.508  56.693  1.00  0.00     0.123 HD
ENDROOT
BRANCH   1   3
ATOM      3  C   UNL     1       1.142  45.627  55.978  1.00  0.00     0.091 C 
ATOM      4  C   UNL     1       0.796  45.667  57.470  1.00  0.00     0.030 C 
BRANCH   3   5
ATOM      5  C   UNL     1       0.031  44.943  55.225  1.00  0.00     0.022 A 
ATOM      6  C   UNL     1       0.172  44.251  54.029  1.00  0.00     0.032 A 
ATOM      7  S   UNL     1      -1.583  44.869  55.701  1.00  0.00    -0.146 S 
ATOM      8  C   UNL     1      -1.031  43.702  53.570  1.00  0.00     0.029 A 
ATOM      9  C   UNL     1      -2.120  43.958  54.393  1.00  0.00     0.080 A 
ATOM     10  Br  UNL     1      -1.162  42.689  51.959  1.00  0.00    -0.050 Br
ENDBRANCH   3   5
ENDBRANCH   1   3
BRANCH   1  11
ATOM     11  C   UNL     1       3.510  45.802  55.302  1.00  0.00     0.157 C 
BRANCH  11  12
ATOM     12  C   UNL     1       4.163  45.276  54.053  1.00  0.00     0.124 A 
ATOM     13  N   UNL     1       5.239  45.938  53.532  1.00  0.00    -0.222 NA
ATOM     14  N   UNL     1       3.716  44.117  53.470  1.00  0.00    -0.309 N 
ATOM     15  C   UNL     1       5.848  45.443  52.431  1.00  0.00     0.131 A 
ATOM     16  C   UNL     1       4.321  43.603  52.358  1.00  0.00     0.259 A 
ATOM     17  S   UNL     1       7.194  46.096  51.632  1.00  0.00    -0.120 S 
ATOM     18  C   UNL     1       5.414  44.278  51.821  1.00  0.00     0.080 A 
ATOM     19  O   UNL     1       3.895  42.538  51.836  1.00  0.00    -0.269 OA
ATOM     20  C   UNL     1       7.193  44.849  50.490  1.00  0.00     0.011 A 
ATOM     21  C   UNL     1       6.199  43.962  50.715  1.00  0.00    -0.019 A 
ATOM     22  C   UNL     1       8.036  44.519  49.331  1.00  0.00     0.047 C 
ATOM     23  C   UNL     1       6.193  42.859  49.734  1.00  0.00     0.038 C 
ATOM     24  C   UNL     1       7.391  43.209  48.811  1.00  0.00     0.010 C 
ATOM     25  H   UNL     1       2.898  43.614  53.883  1.00  0.00     0.171 HD
ENDBRANCH  11  12
ENDBRANCH   1  11
TORSDOF 4
ENDMDL
