MODEL 1
REMARK VINA RESULT:    -8.669      0.000      0.000
REMARK INTER + INTRA:         -12.826
REMARK INTER:                 -11.963
REMARK INTRA:                  -0.863
REMARK UNBOUND:                -0.863
REMARK SMILES O=C(Nc1cccc(C(=O)Nc2ccc(Cl)cn2)c1)N[C@@H](CO)c1ccc(F)c(Cl)c1
REMARK SMILES IDX 1 1 2 2 3 3 20 4 4 7 5 8 19 9 6 10 8 11 7 12 9 13 10 14
REMARK SMILES IDX 11 15 12 17 13 18 18 19 14 20 17 21 15 22 16 23 21 24 22 25
REMARK SMILES IDX 23 26 24 28 25 29 31 30 26 31 29 32 27 33 30 34 28 35
REMARK H PARENT 3 5 20 6 11 16 23 27
ROOT
ATOM      1  O   UNL     1       2.525  46.032  52.923  1.00  0.00    -0.248 OA
ATOM      2  C   UNL     1       3.191  45.144  53.521  1.00  0.00     0.319 C 
ATOM      3  N   UNL     1       2.524  44.124  54.282  1.00  0.00    -0.308 N 
ATOM      4  N   UNL     1       4.620  45.121  53.408  1.00  0.00    -0.329 N 
ATOM      5  H   UNL     1       3.067  43.262  54.517  1.00  0.00     0.171 HD
ATOM      6  H   UNL     1       5.146  44.376  53.920  1.00  0.00     0.166 HD
ENDROOT
BRANCH   3   7
ATOM      7  C   UNL     1       1.128  44.159  54.626  1.00  0.00     0.043 A 
ATOM      8  C   UNL     1       0.224  43.368  53.904  1.00  0.00     0.026 A 
ATOM      9  C   UNL     1       0.658  44.927  55.708  1.00  0.00     0.040 A 
ATOM     10  C   UNL     1      -1.134  43.379  54.222  1.00  0.00     0.003 A 
ATOM     11  C   UNL     1      -0.709  44.933  56.044  1.00  0.00     0.042 A 
ATOM     12  C   UNL     1      -1.601  44.162  55.280  1.00  0.00     0.014 A 
BRANCH  11  13
ATOM     13  C   UNL     1      -1.215  45.752  57.173  1.00  0.00     0.256 C 
ATOM     14  O   UNL     1      -2.230  45.361  57.811  1.00  0.00    -0.269 OA
ATOM     15  N   UNL     1      -0.541  46.961  57.569  1.00  0.00    -0.307 N 
ATOM     16  H   UNL     1       0.452  47.095  57.271  1.00  0.00     0.171 HD
BRANCH  15  17
ATOM     17  C   UNL     1      -1.139  47.975  58.395  1.00  0.00     0.132 A 
ATOM     18  C   UNL     1      -0.550  48.313  59.622  1.00  0.00     0.049 A 
ATOM     19  N   UNL     1      -2.263  48.631  57.990  1.00  0.00    -0.238 NA
ATOM     20  C   UNL     1      -1.128  49.310  60.411  1.00  0.00     0.026 A 
ATOM     21  C   UNL     1      -2.842  49.603  58.743  1.00  0.00     0.134 A 
ATOM     22  C   UNL     1      -2.284  49.961  59.973  1.00  0.00     0.059 A 
ATOM     23  Cl  UNL     1      -3.022  51.214  60.952  1.00  0.00    -0.083 Cl
ENDBRANCH  15  17
ENDBRANCH  11  13
ENDBRANCH   3   7
BRANCH   4  24
ATOM     24  C   UNL     1       5.355  46.108  52.608  1.00  0.00     0.139 C 
BRANCH  24  25
ATOM     25  C   UNL     1       6.258  46.967  53.509  1.00  0.00     0.185 C 
BRANCH  25  26
ATOM     26  O   UNL     1       5.513  47.569  54.534  1.00  0.00    -0.394 OA
ATOM     27  H   UNL     1       5.837  47.179  55.387  1.00  0.00     0.210 HD
ENDBRANCH  25  26
ENDBRANCH  24  25
BRANCH  24  28
ATOM     28  C   UNL     1       6.173  45.411  51.540  1.00  0.00    -0.022 A 
ATOM     29  C   UNL     1       7.395  45.954  51.104  1.00  0.00     0.009 A 
ATOM     30  C   UNL     1       5.702  44.225  50.951  1.00  0.00     0.029 A 
ATOM     31  C   UNL     1       8.138  45.312  50.109  1.00  0.00     0.041 A 
ATOM     32  C   UNL     1       6.448  43.584  49.955  1.00  0.00     0.077 A 
ATOM     33  C   UNL     1       7.668  44.128  49.535  1.00  0.00     0.141 A 
ATOM     34  Cl  UNL     1       5.845  42.100  49.237  1.00  0.00    -0.081 Cl
ATOM     35  F   UNL     1       8.397  43.515  48.570  1.00  0.00    -0.205 F 
ENDBRANCH  24  28
ENDBRANCH   4  24
TORSDOF 7
ENDMDL
MODEL 2
REMARK VINA RESULT:    -7.814      4.029      5.936
REMARK INTER + INTRA:         -11.645
REMARK INTER:                 -11.500
REMARK INTRA:                  -0.145
REMARK UNBOUND:                -0.863
REMARK SMILES O=C(Nc1cccc(C(=O)Nc2ccc(Cl)cn2)c1)N[C@@H](CO)c1ccc(F)c(Cl)c1
REMARK SMILES IDX 1 1 2 2 3 3 20 4 4 7 5 8 19 9 6 10 8 11 7 12 9 13 10 14
REMARK SMILES IDX 11 15 12 17 13 18 18 19 14 20 17 21 15 22 16 23 21 24 22 25
REMARK SMILES IDX 23 26 24 28 25 29 31 30 26 31 29 32 27 33 30 34 28 35
REMARK H PARENT 3 5 20 6 11 16 23 27
ROOT
ATOM      1  O   UNL     1       3.079  46.146  53.159  1.00  0.00    -0.248 OA
ATOM      2  C   UNL     1       3.762  45.646  54.094  1.00  0.00     0.319 C 
ATOM      3  N   UNL     1       3.124  44.893  55.137  1.00  0.00    -0.308 N 
ATOM      4  N   UNL     1       5.189  45.791  54.097  1.00  0.00    -0.329 N 
ATOM      5  H   UNL     1       3.725  44.267  55.720  1.00  0.00     0.171 HD
ATOM      6  H   UNL     1       5.727  45.371  54.888  1.00  0.00     0.166 HD
ENDROOT
BRANCH   3   7
ATOM      7  C   UNL     1       1.702  44.849  55.346  1.00  0.00     0.043 A 
ATOM      8  C   UNL     1       1.185  45.142  56.615  1.00  0.00     0.026 A 
ATOM      9  C   UNL     1       0.814  44.573  54.288  1.00  0.00     0.040 A 
ATOM     10  C   UNL     1      -0.192  45.113  56.841  1.00  0.00     0.003 A 
ATOM     11  C   UNL     1      -0.577  44.554  54.505  1.00  0.00     0.042 A 
ATOM     12  C   UNL     1      -1.068  44.812  55.797  1.00  0.00     0.014 A 
BRANCH  11  13
ATOM     13  C   UNL     1      -1.519  44.248  53.400  1.00  0.00     0.256 C 
ATOM     14  O   UNL     1      -2.388  43.348  53.563  1.00  0.00    -0.269 OA
ATOM     15  N   UNL     1      -1.475  44.988  52.167  1.00  0.00    -0.307 N 
ATOM     16  H   UNL     1      -1.000  45.919  52.163  1.00  0.00     0.171 HD
BRANCH  15  17
ATOM     17  C   UNL     1      -2.092  44.542  50.946  1.00  0.00     0.132 A 
ATOM     18  C   UNL     1      -2.941  45.405  50.238  1.00  0.00     0.049 A 
ATOM     19  N   UNL     1      -1.843  43.296  50.454  1.00  0.00    -0.238 NA
ATOM     20  C   UNL     1      -3.524  44.969  49.046  1.00  0.00     0.026 A 
ATOM     21  C   UNL     1      -2.401  42.853  49.296  1.00  0.00     0.134 A 
ATOM     22  C   UNL     1      -3.256  43.685  48.569  1.00  0.00     0.059 A 
ATOM     23  Cl  UNL     1      -3.980  43.124  47.073  1.00  0.00    -0.083 Cl
ENDBRANCH  15  17
ENDBRANCH  11  13
ENDBRANCH   3   7
BRANCH   4  24
ATOM     24  C   UNL     1       5.901  46.509  53.034  1.00  0.00     0.139 C 
BRANCH  24  25
ATOM     25  C   UNL     1       7.163  47.187  53.595  1.00  0.00     0.185 C 
BRANCH  25  26
ATOM     26  O   UNL     1       7.339  46.871  54.950  1.00  0.00    -0.394 OA
ATOM     27  H   UNL     1       6.484  46.475  55.262  1.00  0.00     0.210 HD
ENDBRANCH  25  26
ENDBRANCH  24  25
BRANCH  24  28
ATOM     28  C   UNL     1       6.260  45.559  51.910  1.00  0.00    -0.022 A 
ATOM     29  C   UNL     1       7.335  45.840  51.048  1.00  0.00     0.009 A 
ATOM     30  C   UNL     1       5.500  44.396  51.699  1.00  0.00     0.029 A 
ATOM     31  C   UNL     1       7.652  44.966  50.004  1.00  0.00     0.041 A 
ATOM     32  C   UNL     1       5.819  43.521  50.654  1.00  0.00     0.077 A 
ATOM     33  C   UNL     1       6.897  43.806  49.807  1.00  0.00     0.141 A 
ATOM     34  Cl  UNL     1       4.861  42.069  50.412  1.00  0.00    -0.081 Cl
ATOM     35  F   UNL     1       7.214  42.964  48.791  1.00  0.00    -0.205 F 
ENDBRANCH  24  28
ENDBRANCH   4  24
TORSDOF 7
ENDMDL
MODEL 3
REMARK VINA RESULT:    -7.806      5.138      7.870
REMARK INTER + INTRA:         -11.635
REMARK INTER:                 -10.789
REMARK INTRA:                  -0.846
REMARK UNBOUND:                -0.863
REMARK SMILES O=C(Nc1cccc(C(=O)Nc2ccc(Cl)cn2)c1)N[C@@H](CO)c1ccc(F)c(Cl)c1
REMARK SMILES IDX 1 1 2 2 3 3 20 4 4 7 5 8 19 9 6 10 8 11 7 12 9 13 10 14
REMARK SMILES IDX 11 15 12 17 13 18 18 19 14 20 17 21 15 22 16 23 21 24 22 25
REMARK SMILES IDX 23 26 24 28 25 29 31 30 26 31 29 32 27 33 30 34 28 35
REMARK H PARENT 3 5 20 6 11 16 23 27
ROOT
ATOM      1  O   UNL     1       2.200  46.343  52.383  1.00  0.00    -0.248 OA
ATOM      2  C   UNL     1       2.912  45.342  52.664  1.00  0.00     0.319 C 
ATOM      3  N   UNL     1       2.316  44.042  52.802  1.00  0.00    -0.308 N 
ATOM      4  N   UNL     1       4.332  45.488  52.806  1.00  0.00    -0.329 N 
ATOM      5  H   UNL     1       2.949  43.211  52.750  1.00  0.00     0.171 HD
ATOM      6  H   UNL     1       4.895  44.640  53.045  1.00  0.00     0.166 HD
ENDROOT
BRANCH   3   7
ATOM      7  C   UNL     1       0.900  43.809  52.878  1.00  0.00     0.043 A 
ATOM      8  C   UNL     1       0.249  43.934  54.113  1.00  0.00     0.026 A 
ATOM      9  C   UNL     1       0.142  43.512  51.729  1.00  0.00     0.040 A 
ATOM     10  C   UNL     1      -1.126  43.720  54.212  1.00  0.00     0.003 A 
ATOM     11  C   UNL     1      -1.248  43.307  51.818  1.00  0.00     0.042 A 
ATOM     12  C   UNL     1      -1.870  43.400  53.074  1.00  0.00     0.014 A 
BRANCH  11  13
ATOM     13  C   UNL     1      -2.051  42.978  50.614  1.00  0.00     0.256 C 
ATOM     14  O   UNL     1      -2.748  41.927  50.607  1.00  0.00    -0.269 OA
ATOM     15  N   UNL     1      -2.071  43.859  49.477  1.00  0.00    -0.307 N 
ATOM     16  H   UNL     1      -1.776  44.852  49.613  1.00  0.00     0.171 HD
BRANCH  15  17
ATOM     17  C   UNL     1      -2.522  43.465  48.169  1.00  0.00     0.132 A 
ATOM     18  C   UNL     1      -3.558  44.176  47.544  1.00  0.00     0.049 A 
ATOM     19  N   UNL     1      -1.940  42.420  47.516  1.00  0.00    -0.238 NA
ATOM     20  C   UNL     1      -3.980  43.796  46.269  1.00  0.00     0.026 A 
ATOM     21  C   UNL     1      -2.337  42.034  46.274  1.00  0.00     0.134 A 
ATOM     22  C   UNL     1      -3.368  42.717  45.626  1.00  0.00     0.059 A 
ATOM     23  Cl  UNL     1      -3.887  42.229  44.023  1.00  0.00    -0.083 Cl
ENDBRANCH  15  17
ENDBRANCH  11  13
ENDBRANCH   3   7
BRANCH   4  24
ATOM     24  C   UNL     1       5.003  46.781  52.631  1.00  0.00     0.139 C 
BRANCH  24  25
ATOM     25  C   UNL     1       4.852  47.641  53.897  1.00  0.00     0.185 C 
BRANCH  25  26
ATOM     26  O   UNL     1       3.954  48.696  53.680  1.00  0.00    -0.394 OA
ATOM     27  H   UNL     1       4.050  49.314  54.451  1.00  0.00     0.210 HD
ENDBRANCH  25  26
ENDBRANCH  24  25
BRANCH  24  28
ATOM     28  C   UNL     1       6.466  46.570  52.299  1.00  0.00    -0.022 A 
ATOM     29  C   UNL     1       6.847  45.929  51.107  1.00  0.00     0.009 A 
ATOM     30  C   UNL     1       7.462  46.989  53.199  1.00  0.00     0.029 A 
ATOM     31  C   UNL     1       8.199  45.726  50.814  1.00  0.00     0.041 A 
ATOM     32  C   UNL     1       8.814  46.785  52.904  1.00  0.00     0.077 A 
ATOM     33  C   UNL     1       9.183  46.153  51.710  1.00  0.00     0.141 A 
ATOM     34  Cl  UNL     1      10.042  47.322  54.038  1.00  0.00    -0.081 Cl
ATOM     35  F   UNL     1      10.492  45.951  51.415  1.00  0.00    -0.205 F 
ENDBRANCH  24  28
ENDBRANCH   4  24
TORSDOF 7
ENDMDL
MODEL 4
REMARK VINA RESULT:    -7.598      6.016     12.381
REMARK INTER + INTRA:         -11.348
REMARK INTER:                 -10.647
REMARK INTRA:                  -0.701
REMARK UNBOUND:                -0.863
REMARK SMILES O=C(Nc1cccc(C(=O)Nc2ccc(Cl)cn2)c1)N[C@@H](CO)c1ccc(F)c(Cl)c1
REMARK SMILES IDX 1 1 2 2 3 3 20 4 4 7 5 8 19 9 6 10 8 11 7 12 9 13 10 14
REMARK SMILES IDX 11 15 12 17 13 18 18 19 14 20 17 21 15 22 16 23 21 24 22 25
REMARK SMILES IDX 23 26 24 28 25 29 31 30 26 31 29 32 27 33 30 34 28 35
REMARK H PARENT 3 5 20 6 11 16 23 27
ROOT
ATOM      1  O   UNL     1       1.894  43.461  51.117  1.00  0.00    -0.248 OA
ATOM      2  C   UNL     1       2.370  42.833  52.102  1.00  0.00     0.319 C 
ATOM      3  N   UNL     1       3.598  42.100  51.972  1.00  0.00    -0.308 N 
ATOM      4  N   UNL     1       1.707  42.883  53.373  1.00  0.00    -0.329 N 
ATOM      5  H   UNL     1       4.102  41.839  52.850  1.00  0.00     0.171 HD
ATOM      6  H   UNL     1       2.122  42.348  54.169  1.00  0.00     0.166 HD
ENDROOT
BRANCH   3   7
ATOM      7  C   UNL     1       4.239  41.817  50.716  1.00  0.00     0.043 A 
ATOM      8  C   UNL     1       5.537  42.292  50.486  1.00  0.00     0.026 A 
ATOM      9  C   UNL     1       3.611  41.027  49.734  1.00  0.00     0.040 A 
ATOM     10  C   UNL     1       6.183  42.025  49.278  1.00  0.00     0.003 A 
ATOM     11  C   UNL     1       4.261  40.743  48.517  1.00  0.00     0.042 A 
ATOM     12  C   UNL     1       5.547  41.263  48.295  1.00  0.00     0.014 A 
BRANCH  11  13
ATOM     13  C   UNL     1       3.600  39.925  47.471  1.00  0.00     0.256 C 
ATOM     14  O   UNL     1       2.875  38.952  47.816  1.00  0.00    -0.269 OA
ATOM     15  N   UNL     1       3.747  40.250  46.077  1.00  0.00    -0.307 N 
ATOM     16  H   UNL     1       4.055  41.216  45.823  1.00  0.00     0.171 HD
BRANCH  15  17
ATOM     17  C   UNL     1       3.445  39.337  45.008  1.00  0.00     0.132 A 
ATOM     18  C   UNL     1       2.143  39.272  44.491  1.00  0.00     0.049 A 
ATOM     19  N   UNL     1       4.418  38.546  44.471  1.00  0.00    -0.238 NA
ATOM     20  C   UNL     1       1.862  38.393  43.442  1.00  0.00     0.026 A 
ATOM     21  C   UNL     1       4.164  37.684  43.450  1.00  0.00     0.134 A 
ATOM     22  C   UNL     1       2.877  37.591  42.917  1.00  0.00     0.059 A 
ATOM     23  Cl  UNL     1       2.540  36.483  41.599  1.00  0.00    -0.083 Cl
ENDBRANCH  15  17
ENDBRANCH  11  13
ENDBRANCH   3   7
BRANCH   4  24
ATOM     24  C   UNL     1       0.475  43.652  53.579  1.00  0.00     0.139 C 
BRANCH  24  25
ATOM     25  C   UNL     1      -0.741  42.712  53.650  1.00  0.00     0.185 C 
BRANCH  25  26
ATOM     26  O   UNL     1      -0.354  41.379  53.450  1.00  0.00    -0.394 OA
ATOM     27  H   UNL     1       0.594  41.400  53.153  1.00  0.00     0.210 HD
ENDBRANCH  25  26
ENDBRANCH  24  25
BRANCH  24  28
ATOM     28  C   UNL     1       0.582  44.484  54.841  1.00  0.00    -0.022 A 
ATOM     29  C   UNL     1       1.838  44.875  55.338  1.00  0.00     0.009 A 
ATOM     30  C   UNL     1      -0.578  44.849  55.546  1.00  0.00     0.029 A 
ATOM     31  C   UNL     1       1.929  45.631  56.511  1.00  0.00     0.041 A 
ATOM     32  C   UNL     1      -0.484  45.606  56.720  1.00  0.00     0.077 A 
ATOM     33  C   UNL     1       0.771  45.998  57.202  1.00  0.00     0.141 A 
ATOM     34  Cl  UNL     1      -1.945  46.058  57.582  1.00  0.00    -0.081 Cl
ATOM     35  F   UNL     1       0.872  46.731  58.338  1.00  0.00    -0.205 F 
ENDBRANCH  24  28
ENDBRANCH   4  24
TORSDOF 7
ENDMDL
MODEL 5
REMARK VINA RESULT:    -7.357      6.691      8.937
REMARK INTER + INTRA:         -11.015
REMARK INTER:                 -10.246
REMARK INTRA:                  -0.769
REMARK UNBOUND:                -0.863
REMARK SMILES O=C(Nc1cccc(C(=O)Nc2ccc(Cl)cn2)c1)N[C@@H](CO)c1ccc(F)c(Cl)c1
REMARK SMILES IDX 1 1 2 2 3 3 20 4 4 7 5 8 19 9 6 10 8 11 7 12 9 13 10 14
REMARK SMILES IDX 11 15 12 17 13 18 18 19 14 20 17 21 15 22 16 23 21 24 22 25
REMARK SMILES IDX 23 26 24 28 25 29 31 30 26 31 29 32 27 33 30 34 28 35
REMARK H PARENT 3 5 20 6 11 16 23 27
ROOT
ATOM      1  O   UNL     1       2.757  40.962  47.360  1.00  0.00    -0.248 OA
ATOM      2  C   UNL     1       3.484  39.995  47.716  1.00  0.00     0.319 C 
ATOM      3  N   UNL     1       4.243  40.066  48.933  1.00  0.00    -0.308 N 
ATOM      4  N   UNL     1       3.523  38.798  46.927  1.00  0.00    -0.329 N 
ATOM      5  H   UNL     1       4.596  39.168  49.337  1.00  0.00     0.171 HD
ATOM      6  H   UNL     1       4.139  38.016  47.244  1.00  0.00     0.166 HD
ENDROOT
BRANCH   3   7
ATOM      7  C   UNL     1       4.436  41.271  49.694  1.00  0.00     0.043 A 
ATOM      8  C   UNL     1       5.679  41.917  49.652  1.00  0.00     0.026 A 
ATOM      9  C   UNL     1       3.386  41.847  50.435  1.00  0.00     0.040 A 
ATOM     10  C   UNL     1       5.890  43.091  50.375  1.00  0.00     0.003 A 
ATOM     11  C   UNL     1       3.587  43.039  51.158  1.00  0.00     0.042 A 
ATOM     12  C   UNL     1       4.855  43.645  51.130  1.00  0.00     0.014 A 
BRANCH  11  13
ATOM     13  C   UNL     1       2.491  43.643  51.954  1.00  0.00     0.256 C 
ATOM     14  O   UNL     1       1.825  44.595  51.462  1.00  0.00    -0.269 OA
ATOM     15  N   UNL     1       2.159  43.134  53.258  1.00  0.00    -0.307 N 
ATOM     16  H   UNL     1       2.474  42.170  53.509  1.00  0.00     0.171 HD
BRANCH  15  17
ATOM     17  C   UNL     1       1.373  43.858  54.221  1.00  0.00     0.132 A 
ATOM     18  C   UNL     1       2.003  44.722  55.129  1.00  0.00     0.049 A 
ATOM     19  N   UNL     1       0.016  43.733  54.250  1.00  0.00    -0.238 NA
ATOM     20  C   UNL     1       1.231  45.432  56.051  1.00  0.00     0.026 A 
ATOM     21  C   UNL     1      -0.753  44.415  55.140  1.00  0.00     0.134 A 
ATOM     22  C   UNL     1      -0.157  45.279  56.060  1.00  0.00     0.059 A 
ATOM     23  Cl  UNL     1      -1.139  46.165  57.212  1.00  0.00    -0.083 Cl
ENDBRANCH  15  17
ENDBRANCH  11  13
ENDBRANCH   3   7
BRANCH   4  24
ATOM     24  C   UNL     1       2.734  38.649  45.699  1.00  0.00     0.139 C 
BRANCH  24  25
ATOM     25  C   UNL     1       3.573  37.974  44.599  1.00  0.00     0.185 C 
BRANCH  25  26
ATOM     26  O   UNL     1       4.626  37.234  45.158  1.00  0.00    -0.394 OA
ATOM     27  H   UNL     1       4.494  37.251  46.142  1.00  0.00     0.210 HD
ENDBRANCH  25  26
ENDBRANCH  24  25
BRANCH  24  28
ATOM     28  C   UNL     1       1.477  37.850  45.978  1.00  0.00    -0.022 A 
ATOM     29  C   UNL     1       0.226  38.295  45.514  1.00  0.00     0.009 A 
ATOM     30  C   UNL     1       1.546  36.666  46.731  1.00  0.00     0.029 A 
ATOM     31  C   UNL     1      -0.931  37.560  45.787  1.00  0.00     0.041 A 
ATOM     32  C   UNL     1       0.386  35.932  47.003  1.00  0.00     0.077 A 
ATOM     33  C   UNL     1      -0.853  36.379  46.530  1.00  0.00     0.141 A 
ATOM     34  Cl  UNL     1       0.495  34.451  47.941  1.00  0.00    -0.081 Cl
ATOM     35  F   UNL     1      -1.983  35.674  46.788  1.00  0.00    -0.205 F 
ENDBRANCH  24  28
ENDBRANCH   4  24
TORSDOF 7
ENDMDL
