ligand_56_conformer_1_docked
     RDKit          3D

 50 53  0  0  0  0  0  0  0  0999 V2000
    5.4150   44.5620   55.2710 O   0  0  0  0  0  0  0  0  0  0  0  0
    4.5860   45.4470   54.9260 C   0  0  0  0  0  0  0  0  0  0  0  0
    5.0390   46.7660   54.5900 N   0  0  0  0  0  0  0  0  0  0  0  0
    6.4450   47.0930   54.3460 C   0  0  0  0  0  0  0  0  0  0  0  0
    6.7100   47.2600   52.8360 C   0  0  1  0  0  0  0  0  0  0  0  0
    7.6890   48.3320   52.6460 N   0  0  0  0  0  0  0  0  0  0  0  0
    9.0070   47.6970   52.5210 C   0  0  0  0  0  0  0  0  0  0  0  0
    8.8150   46.1930   52.3420 C   0  0  0  0  0  0  0  0  0  0  0  0
    7.3120   45.9910   52.2060 C   0  0  2  0  0  0  0  0  0  0  0  0
    6.8650   45.6370   50.7500 C   0  0  0  0  0  0  0  0  0  0  0  0
    5.3720   45.4380   50.4930 C   0  0  0  0  0  0  0  0  0  0  0  0
    6.3120   44.2520   50.4020 C   0  0  0  0  0  0  0  0  0  0  0  0
    3.1440   45.1220   54.9240 C   0  0  0  0  0  0  0  0  0  0  0  0
    2.3340   45.6280   55.9520 C   0  0  0  0  0  0  0  0  0  0  0  0
    0.9650   45.3600   55.9770 C   0  0  0  0  0  0  0  0  0  0  0  0
    0.3680   44.5700   54.9790 C   0  0  0  0  0  0  0  0  0  0  0  0
   -1.0500   44.2880   55.0090 N   0  0  0  0  0  0  0  0  0  0  0  0
   -1.8700   44.3140   56.2190 C   0  0  0  0  0  0  0  0  0  0  0  0
   -3.2950   43.8290   55.8700 C   0  0  0  0  0  0  0  0  0  0  0  0
   -3.5990   44.1220   54.3980 C   0  0  0  0  0  0  0  0  0  0  0  0
   -2.0260   44.0950   53.6080 S   0  0  0  0  0  0  0  0  0  0  0  0
   -1.7660   42.7760   52.9380 O   0  0  0  0  0  0  0  0  0  0  0  0
   -1.8640   45.2460   52.6550 O   0  0  0  0  0  0  0  0  0  0  0  0
    1.1870   44.0390   53.9650 C   0  0  0  0  0  0  0  0  0  0  0  0
    2.5610   44.3040   53.9330 C   0  0  0  0  0  0  0  0  0  0  0  0
    3.5210   43.5220   52.6810 Cl  0  0  0  0  0  0  0  0  0  0  0  0
    4.3350   47.5290   54.4760 H   0  0  0  0  0  0  0  0  0  0  0  0
    6.6925   48.0322   54.8624 H   0  0  0  0  0  0  0  0  0  0  0  0
    7.0709   46.2726   54.7270 H   0  0  0  0  0  0  0  0  0  0  0  0
    5.7440   47.4781   52.3572 H   0  0  0  0  0  0  0  0  0  0  0  0
    7.4710   48.8200   51.7450 H   0  0  0  0  0  0  0  0  0  0  0  0
    9.5341   48.1087   51.6477 H   0  0  0  0  0  0  0  0  0  0  0  0
    9.6025   47.8922   53.4250 H   0  0  0  0  0  0  0  0  0  0  0  0
    9.3338   45.8437   51.4371 H   0  0  0  0  0  0  0  0  0  0  0  0
    9.2295   45.6241   53.1873 H   0  0  0  0  0  0  0  0  0  0  0  0
    6.9345   45.1019   52.7324 H   0  0  0  0  0  0  0  0  0  0  0  0
    7.6739   46.2583   50.3382 H   0  0  0  0  0  0  0  0  0  0  0  0
    4.6573   45.5093   51.3262 H   0  0  0  0  0  0  0  0  0  0  0  0
    4.6335   45.8957   49.8183 H   0  0  0  0  0  0  0  0  0  0  0  0
    6.2792   43.4647   51.1695 H   0  0  0  0  0  0  0  0  0  0  0  0
    6.5368   43.4961   49.6352 H   0  0  0  0  0  0  0  0  0  0  0  0
    2.7830   46.2423   56.7464 H   0  0  0  0  0  0  0  0  0  0  0  0
    0.3454   45.7717   56.7873 H   0  0  0  0  0  0  0  0  0  0  0  0
   -1.4297   43.6501   56.9775 H   0  0  0  0  0  0  0  0  0  0  0  0
   -1.9127   45.3383   56.6177 H   0  0  0  0  0  0  0  0  0  0  0  0
   -3.3656   42.7459   56.0485 H   0  0  0  0  0  0  0  0  0  0  0  0
   -4.0229   44.3582   56.5026 H   0  0  0  0  0  0  0  0  0  0  0  0
   -4.2590   43.3497   53.9763 H   0  0  0  0  0  0  0  0  0  0  0  0
   -4.1187   45.0819   54.2617 H   0  0  0  0  0  0  0  0  0  0  0  0
    0.7399   43.4053   53.1849 H   0  0  0  0  0  0  0  0  0  0  0  0
  1  2  2  0
  2  3  1  0
  3  4  1  0
  4  5  1  0
  5  6  1  0
  6  7  1  0
  7  8  1  0
  8  9  1  0
  9 10  1  0
 10 11  1  0
 11 12  1  0
  2 13  1  0
 13 14  2  0
 14 15  1  0
 15 16  2  0
 16 17  1  0
 17 18  1  0
 18 19  1  0
 19 20  1  0
 20 21  1  0
 21 22  2  0
 21 23  2  0
 16 24  1  0
 24 25  2  0
 25 26  1  0
  9  5  1  0
 12 10  1  0
 25 13  1  0
 21 17  1  0
  3 27  1  0
  4 28  1  0
  4 29  1  0
  5 30  1  6
  6 31  1  0
  7 32  1  0
  7 33  1  0
  8 34  1  0
  8 35  1  0
  9 36  1  1
 10 37  1  0
 11 38  1  0
 11 39  1  0
 12 40  1  0
 12 41  1  0
 14 42  1  0
 15 43  1  0
 18 44  1  0
 18 45  1  0
 19 46  1  0
 19 47  1  0
 20 48  1  0
 20 49  1  0
 24 50  1  0
M  END
>  <meeko>  (1) 
{"is_sidechain": [false], "free_energy": -8.112, "intermolecular_energy": -10.483, "internal_energy": -0.961}

$$$$
ligand_56_conformer_1_docked
     RDKit          3D

 50 53  0  0  0  0  0  0  0  0999 V2000
    5.3940   44.4150   55.1120 O   0  0  0  0  0  0  0  0  0  0  0  0
    4.7640   45.2390   54.3970 C   0  0  0  0  0  0  0  0  0  0  0  0
    5.3090   46.5450   54.1530 N   0  0  0  0  0  0  0  0  0  0  0  0
    6.6960   46.9020   54.4510 C   0  0  0  0  0  0  0  0  0  0  0  0
    7.4430   47.3000   53.1610 C   0  0  1  0  0  0  0  0  0  0  0  0
    8.5040   48.2480   53.5070 N   0  0  0  0  0  0  0  0  0  0  0  0
    9.7440   47.4750   53.6510 C   0  0  0  0  0  0  0  0  0  0  0  0
    9.5150   46.0670   53.1080 C   0  0  0  0  0  0  0  0  0  0  0  0
    8.1240   46.0950   52.4880 C   0  0  2  0  0  0  0  0  0  0  0  0
    8.1450   46.0700   50.9250 C   0  0  0  0  0  0  0  0  0  0  0  0
    6.9420   45.4590   50.2070 C   0  0  0  0  0  0  0  0  0  0  0  0
    8.2840   44.7560   50.1510 C   0  0  0  0  0  0  0  0  0  0  0  0
    3.4390   44.8630   53.8590 C   0  0  0  0  0  0  0  0  0  0  0  0
    2.2870   45.2980   54.5310 C   0  0  0  0  0  0  0  0  0  0  0  0
    1.0170   44.9800   54.0470 C   0  0  0  0  0  0  0  0  0  0  0  0
    0.8650   44.2100   52.8810 C   0  0  0  0  0  0  0  0  0  0  0  0
   -0.4520   43.8760   52.3830 N   0  0  0  0  0  0  0  0  0  0  0  0
   -0.7160   43.3290   51.0540 C   0  0  0  0  0  0  0  0  0  0  0  0
   -2.2440   43.2330   50.8460 C   0  0  0  0  0  0  0  0  0  0  0  0
   -2.9450   43.0730   52.1980 C   0  0  0  0  0  0  0  0  0  0  0  0
   -1.8740   43.8650   53.3470 S   0  0  0  0  0  0  0  0  0  0  0  0
   -2.3340   45.2610   53.6610 O   0  0  0  0  0  0  0  0  0  0  0  0
   -1.6940   43.0450   54.5940 O   0  0  0  0  0  0  0  0  0  0  0  0
    2.0220   43.7490   52.2250 C   0  0  0  0  0  0  0  0  0  0  0  0
    3.2980   44.0650   52.7040 C   0  0  0  0  0  0  0  0  0  0  0  0
    4.6850   43.3690   51.8720 Cl  0  0  0  0  0  0  0  0  0  0  0  0
    4.7030   47.2710   53.7080 H   0  0  0  0  0  0  0  0  0  0  0  0
    6.7086   47.7494   55.1522 H   0  0  0  0  0  0  0  0  0  0  0  0
    7.1984   46.0313   54.8976 H   0  0  0  0  0  0  0  0  0  0  0  0
    6.7009   47.7276   52.4708 H   0  0  0  0  0  0  0  0  0  0  0  0
    8.6230   48.9140   52.7070 H   0  0  0  0  0  0  0  0  0  0  0  0
   10.5509   47.9626   53.0843 H   0  0  0  0  0  0  0  0  0  0  0  0
   10.0297   47.4233   54.7120 H   0  0  0  0  0  0  0  0  0  0  0  0
   10.2706   45.8199   52.3477 H   0  0  0  0  0  0  0  0  0  0  0  0
    9.5962   45.3054   53.8975 H   0  0  0  0  0  0  0  0  0  0  0  0
    7.5355   45.1851   52.6770 H   0  0  0  0  0  0  0  0  0  0  0  0
    8.6907   47.0249   50.9061 H   0  0  0  0  0  0  0  0  0  0  0  0
    6.1178   45.0229   50.7906 H   0  0  0  0  0  0  0  0  0  0  0  0
    6.2226   45.8178   49.4562 H   0  0  0  0  0  0  0  0  0  0  0  0
    8.4325   43.8112   50.6945 H   0  0  0  0  0  0  0  0  0  0  0  0
    8.9388   44.3956   49.3440 H   0  0  0  0  0  0  0  0  0  0  0  0
    2.3856   45.8960   55.4490 H   0  0  0  0  0  0  0  0  0  0  0  0
    0.1254   45.3359   54.5840 H   0  0  0  0  0  0  0  0  0  0  0  0
   -0.2802   43.9894   50.2898 H   0  0  0  0  0  0  0  0  0  0  0  0
   -0.2647   42.3297   50.9662 H   0  0  0  0  0  0  0  0  0  0  0  0
   -2.6035   44.1493   50.3549 H   0  0  0  0  0  0  0  0  0  0  0  0
   -2.4696   42.3602   50.2156 H   0  0  0  0  0  0  0  0  0  0  0  0
   -3.9306   43.5613   52.1850 H   0  0  0  0  0  0  0  0  0  0  0  0
   -3.1252   42.0183   52.4531 H   0  0  0  0  0  0  0  0  0  0  0  0
    1.9213   43.1303   51.3211 H   0  0  0  0  0  0  0  0  0  0  0  0
  1  2  2  0
  2  3  1  0
  3  4  1  0
  4  5  1  0
  5  6  1  0
  6  7  1  0
  7  8  1  0
  8  9  1  0
  9 10  1  0
 10 11  1  0
 11 12  1  0
  2 13  1  0
 13 14  2  0
 14 15  1  0
 15 16  2  0
 16 17  1  0
 17 18  1  0
 18 19  1  0
 19 20  1  0
 20 21  1  0
 21 22  2  0
 21 23  2  0
 16 24  1  0
 24 25  2  0
 25 26  1  0
  9  5  1  0
 12 10  1  0
 25 13  1  0
 21 17  1  0
  3 27  1  0
  4 28  1  0
  4 29  1  0
  5 30  1  6
  6 31  1  0
  7 32  1  0
  7 33  1  0
  8 34  1  0
  8 35  1  0
  9 36  1  1
 10 37  1  0
 11 38  1  0
 11 39  1  0
 12 40  1  0
 12 41  1  0
 14 42  1  0
 15 43  1  0
 18 44  1  0
 18 45  1  0
 19 46  1  0
 19 47  1  0
 20 48  1  0
 20 49  1  0
 24 50  1  0
M  END
>  <meeko>  (2) 
{"is_sidechain": [false], "free_energy": -7.629, "intermolecular_energy": -10.022, "internal_energy": -0.797}

$$$$
ligand_56_conformer_1_docked
     RDKit          3D

 50 53  0  0  0  0  0  0  0  0999 V2000
    1.7380   44.3500   50.8150 O   0  0  0  0  0  0  0  0  0  0  0  0
    1.9570   45.1690   51.7480 C   0  0  0  0  0  0  0  0  0  0  0  0
    0.8590   45.7890   52.4340 N   0  0  0  0  0  0  0  0  0  0  0  0
   -0.5250   45.3260   52.3140 C   0  0  0  0  0  0  0  0  0  0  0  0
   -0.9650   44.5940   53.5980 C   0  0  1  0  0  0  0  0  0  0  0  0
   -1.3090   43.2120   53.2570 N   0  0  0  0  0  0  0  0  0  0  0  0
   -0.1240   42.3910   53.5310 C   0  0  0  0  0  0  0  0  0  0  0  0
    0.8810   43.2220   54.3240 C   0  0  0  0  0  0  0  0  0  0  0  0
    0.1630   44.5260   54.6450 C   0  0  2  0  0  0  0  0  0  0  0  0
   -0.2510   44.6500   56.1470 C   0  0  0  0  0  0  0  0  0  0  0  0
   -0.7520   46.0080   56.6380 C   0  0  0  0  0  0  0  0  0  0  0  0
    0.5760   45.4750   57.1360 C   0  0  0  0  0  0  0  0  0  0  0  0
    3.3520   45.5190   52.0880 C   0  0  0  0  0  0  0  0  0  0  0  0
    3.7290   46.8700   52.0930 C   0  0  0  0  0  0  0  0  0  0  0  0
    5.0320   47.2450   52.4260 C   0  0  0  0  0  0  0  0  0  0  0  0
    5.9970   46.2760   52.7550 C   0  0  0  0  0  0  0  0  0  0  0  0
    7.3480   46.6650   53.0940 N   0  0  0  0  0  0  0  0  0  0  0  0
    7.8570   46.7720   54.4610 C   0  0  0  0  0  0  0  0  0  0  0  0
    9.2920   47.3400   54.4180 C   0  0  0  0  0  0  0  0  0  0  0  0
    9.9540   46.9860   53.0830 C   0  0  0  0  0  0  0  0  0  0  0  0
    8.6150   46.8490   51.9490 S   0  0  0  0  0  0  0  0  0  0  0  0
    8.4450   48.1040   51.1410 O   0  0  0  0  0  0  0  0  0  0  0  0
    8.7530   45.6360   51.0720 O   0  0  0  0  0  0  0  0  0  0  0  0
    5.6240   44.9190   52.7200 C   0  0  0  0  0  0  0  0  0  0  0  0
    4.3190   44.5360   52.3880 C   0  0  0  0  0  0  0  0  0  0  0  0
    3.9700   42.8140   52.2800 Cl  0  0  0  0  0  0  0  0  0  0  0  0
    1.0510   46.5870   53.0790 H   0  0  0  0  0  0  0  0  0  0  0  0
   -1.1829   46.1918   52.1478 H   0  0  0  0  0  0  0  0  0  0  0  0
   -0.5936   44.6282   51.4664 H   0  0  0  0  0  0  0  0  0  0  0  0
   -1.8154   45.1516   54.0173 H   0  0  0  0  0  0  0  0  0  0  0  0
   -2.0800   42.8990   53.8930 H   0  0  0  0  0  0  0  0  0  0  0  0
   -0.4151   41.5064   54.1164 H   0  0  0  0  0  0  0  0  0  0  0  0
    0.3290   42.0628   52.5838 H   0  0  0  0  0  0  0  0  0  0  0  0
    1.1655   42.7011   55.2502 H   0  0  0  0  0  0  0  0  0  0  0  0
    1.8077   43.3940   53.7569 H   0  0  0  0  0  0  0  0  0  0  0  0
    0.8022   45.4171   54.5592 H   0  0  0  0  0  0  0  0  0  0  0  0
   -0.6182   43.6131   56.1421 H   0  0  0  0  0  0  0  0  0  0  0  0
   -0.7760   46.8658   55.9499 H   0  0  0  0  0  0  0  0  0  0  0  0
   -1.6735   46.3668   57.1197 H   0  0  0  0  0  0  0  0  0  0  0  0
    1.5146   45.9459   56.8085 H   0  0  0  0  0  0  0  0  0  0  0  0
    1.0149   45.2874   58.1271 H   0  0  0  0  0  0  0  0  0  0  0  0
    2.9904   47.6421   51.8318 H   0  0  0  0  0  0  0  0  0  0  0  0
    5.3070   48.3101   52.4311 H   0  0  0  0  0  0  0  0  0  0  0  0
    7.2109   47.4450   55.0438 H   0  0  0  0  0  0  0  0  0  0  0  0
    7.8635   45.7793   54.9348 H   0  0  0  0  0  0  0  0  0  0  0  0
    9.2545   48.4339   54.5276 H   0  0  0  0  0  0  0  0  0  0  0  0
    9.8787   46.9034   55.2397 H   0  0  0  0  0  0  0  0  0  0  0  0
   10.6482   47.7801   52.7707 H   0  0  0  0  0  0  0  0  0  0  0  0
   10.5475   46.0617   53.1428 H   0  0  0  0  0  0  0  0  0  0  0  0
    6.3704   44.1467   52.9575 H   0  0  0  0  0  0  0  0  0  0  0  0
  1  2  2  0
  2  3  1  0
  3  4  1  0
  4  5  1  0
  5  6  1  0
  6  7  1  0
  7  8  1  0
  8  9  1  0
  9 10  1  0
 10 11  1  0
 11 12  1  0
  2 13  1  0
 13 14  2  0
 14 15  1  0
 15 16  2  0
 16 17  1  0
 17 18  1  0
 18 19  1  0
 19 20  1  0
 20 21  1  0
 21 22  2  0
 21 23  2  0
 16 24  1  0
 24 25  2  0
 25 26  1  0
  9  5  1  0
 12 10  1  0
 25 13  1  0
 21 17  1  0
  3 27  1  0
  4 28  1  0
  4 29  1  0
  5 30  1  1
  6 31  1  0
  7 32  1  0
  7 33  1  0
  8 34  1  0
  8 35  1  0
  9 36  1  6
 10 37  1  0
 11 38  1  0
 11 39  1  0
 12 40  1  0
 12 41  1  0
 14 42  1  0
 15 43  1  0
 18 44  1  0
 18 45  1  0
 19 46  1  0
 19 47  1  0
 20 48  1  0
 20 49  1  0
 24 50  1  0
M  END
>  <meeko>  (3) 
{"is_sidechain": [false], "free_energy": -7.628, "intermolecular_energy": -10.164, "internal_energy": -0.654}

$$$$
ligand_56_conformer_1_docked
     RDKit          3D

 50 53  0  0  0  0  0  0  0  0999 V2000
    6.7820   41.1960   49.8490 O   0  0  0  0  0  0  0  0  0  0  0  0
    6.1480   42.0320   49.1500 C   0  0  0  0  0  0  0  0  0  0  0  0
    6.1550   43.4210   49.5090 N   0  0  0  0  0  0  0  0  0  0  0  0
    7.0850   43.9930   50.4850 C   0  0  0  0  0  0  0  0  0  0  0  0
    6.7090   45.4540   50.8020 C   0  0  1  0  0  0  0  0  0  0  0  0
    5.2560   45.6000   50.6890 N   0  0  0  0  0  0  0  0  0  0  0  0
    4.7010   45.4590   52.0410 C   0  0  0  0  0  0  0  0  0  0  0  0
    5.8430   45.5120   53.0520 C   0  0  0  0  0  0  0  0  0  0  0  0
    7.0860   45.8530   52.2410 C   0  0  2  0  0  0  0  0  0  0  0  0
    7.5880   47.3160   52.4660 C   0  0  0  0  0  0  0  0  0  0  0  0
    8.6920   47.8380   51.5470 C   0  0  0  0  0  0  0  0  0  0  0  0
    8.9890   47.6010   53.0150 C   0  0  0  0  0  0  0  0  0  0  0  0
    5.3600   41.5560   47.9940 C   0  0  0  0  0  0  0  0  0  0  0  0
    5.7860   41.8900   46.7000 C   0  0  0  0  0  0  0  0  0  0  0  0
    5.0810   41.4460   45.5810 C   0  0  0  0  0  0  0  0  0  0  0  0
    3.9240   40.6610   45.7250 C   0  0  0  0  0  0  0  0  0  0  0  0
    3.1900   40.2060   44.5640 N   0  0  0  0  0  0  0  0  0  0  0  0
    3.7500   39.3530   43.5170 C   0  0  0  0  0  0  0  0  0  0  0  0
    2.7080   39.1970   42.3880 C   0  0  0  0  0  0  0  0  0  0  0  0
    1.2950   39.3620   42.9540 C   0  0  0  0  0  0  0  0  0  0  0  0
    1.4990   40.4170   44.3480 S   0  0  0  0  0  0  0  0  0  0  0  0
    1.1620   41.8430   44.0160 O   0  0  0  0  0  0  0  0  0  0  0  0
    0.7200   39.9230   45.5360 O   0  0  0  0  0  0  0  0  0  0  0  0
    3.4810   40.3510   47.0250 C   0  0  0  0  0  0  0  0  0  0  0  0
    4.1840   40.7920   48.1520 C   0  0  0  0  0  0  0  0  0  0  0  0
    3.5050   40.4350   49.7370 Cl  0  0  0  0  0  0  0  0  0  0  0  0
    5.4930   44.0710   49.0290 H   0  0  0  0  0  0  0  0  0  0  0  0
    7.0464   43.4008   51.4112 H   0  0  0  0  0  0  0  0  0  0  0  0
    8.1001   43.9722   50.0617 H   0  0  0  0  0  0  0  0  0  0  0  0
    7.2559   46.0940   50.0940 H   0  0  0  0  0  0  0  0  0  0  0  0
    5.0500   46.5690   50.3480 H   0  0  0  0  0  0  0  0  0  0  0  0
    3.9952   46.2794   52.2378 H   0  0  0  0  0  0  0  0  0  0  0  0
    4.1704   44.4993   52.1279 H   0  0  0  0  0  0  0  0  0  0  0  0
    5.6520   46.2879   53.8080 H   0  0  0  0  0  0  0  0  0  0  0  0
    5.9555   44.5604   53.5922 H   0  0  0  0  0  0  0  0  0  0  0  0
    7.9852   45.3024   52.5544 H   0  0  0  0  0  0  0  0  0  0  0  0
    6.5765   47.6299   52.7633 H   0  0  0  0  0  0  0  0  0  0  0  0
    9.1299   47.1769   50.7847 H   0  0  0  0  0  0  0  0  0  0  0  0
    8.7921   48.6944   50.8640 H   0  0  0  0  0  0  0  0  0  0  0  0
    9.6411   46.7679   53.3162 H   0  0  0  0  0  0  0  0  0  0  0  0
    9.3922   48.2139   53.8347 H   0  0  0  0  0  0  0  0  0  0  0  0
    6.6856   42.5087   46.5661 H   0  0  0  0  0  0  0  0  0  0  0  0
    5.4347   41.7134   44.5743 H   0  0  0  0  0  0  0  0  0  0  0  0
    4.6641   39.8141   43.1147 H   0  0  0  0  0  0  0  0  0  0  0  0
    3.9984   38.3658   43.9338 H   0  0  0  0  0  0  0  0  0  0  0  0
    2.8849   39.9646   41.6202 H   0  0  0  0  0  0  0  0  0  0  0  0
    2.8044   38.1956   41.9431 H   0  0  0  0  0  0  0  0  0  0  0  0
    0.6298   39.8248   42.2102 H   0  0  0  0  0  0  0  0  0  0  0  0
    0.8367   38.3986   43.2221 H   0  0  0  0  0  0  0  0  0  0  0  0
    2.5676   39.7525   47.1570 H   0  0  0  0  0  0  0  0  0  0  0  0
  1  2  2  0
  2  3  1  0
  3  4  1  0
  4  5  1  0
  5  6  1  0
  6  7  1  0
  7  8  1  0
  8  9  1  0
  9 10  1  0
 10 11  1  0
 11 12  1  0
  2 13  1  0
 13 14  2  0
 14 15  1  0
 15 16  2  0
 16 17  1  0
 17 18  1  0
 18 19  1  0
 19 20  1  0
 20 21  1  0
 21 22  2  0
 21 23  2  0
 16 24  1  0
 24 25  2  0
 25 26  1  0
  9  5  1  0
 12 10  1  0
 25 13  1  0
 21 17  1  0
  3 27  1  0
  4 28  1  0
  4 29  1  0
  5 30  1  6
  6 31  1  0
  7 32  1  0
  7 33  1  0
  8 34  1  0
  8 35  1  0
  9 36  1  1
 10 37  1  0
 11 38  1  0
 11 39  1  0
 12 40  1  0
 12 41  1  0
 14 42  1  0
 15 43  1  0
 18 44  1  0
 18 45  1  0
 19 46  1  0
 19 47  1  0
 20 48  1  0
 20 49  1  0
 24 50  1  0
M  END
>  <meeko>  (4) 
{"is_sidechain": [false], "free_energy": -7.614, "intermolecular_energy": -10.213, "internal_energy": -0.587}

$$$$
ligand_56_conformer_1_docked
     RDKit          3D

 50 53  0  0  0  0  0  0  0  0999 V2000
    4.0950   44.0120   53.2120 O   0  0  0  0  0  0  0  0  0  0  0  0
    3.3800   45.0460   53.3060 C   0  0  0  0  0  0  0  0  0  0  0  0
    3.8310   46.2860   52.7410 N   0  0  0  0  0  0  0  0  0  0  0  0
    4.9540   46.3790   51.8060 C   0  0  0  0  0  0  0  0  0  0  0  0
    6.1030   47.2050   52.4190 C   0  0  1  0  0  0  0  0  0  0  0  0
    5.7230   47.6040   53.7750 N   0  0  0  0  0  0  0  0  0  0  0  0
    6.3140   46.6230   54.6950 C   0  0  0  0  0  0  0  0  0  0  0  0
    7.3140   45.7640   53.9250 C   0  0  0  0  0  0  0  0  0  0  0  0
    7.4040   46.3910   52.5400 C   0  0  2  0  0  0  0  0  0  0  0  0
    8.7470   47.1530   52.2930 C   0  0  0  0  0  0  0  0  0  0  0  0
   10.0080   46.3180   52.0760 C   0  0  0  0  0  0  0  0  0  0  0  0
    9.8680   47.1480   53.3360 C   0  0  0  0  0  0  0  0  0  0  0  0
    2.1040   44.9750   54.0480 C   0  0  0  0  0  0  0  0  0  0  0  0
    2.1340   44.9900   55.4500 C   0  0  0  0  0  0  0  0  0  0  0  0
    0.9500   44.9440   56.1880 C   0  0  0  0  0  0  0  0  0  0  0  0
   -0.2970   44.8730   55.5430 C   0  0  0  0  0  0  0  0  0  0  0  0
   -1.5230   44.8190   56.3090 N   0  0  0  0  0  0  0  0  0  0  0  0
   -2.2710   43.5920   56.5830 C   0  0  0  0  0  0  0  0  0  0  0  0
   -3.5840   43.9580   57.3090 C   0  0  0  0  0  0  0  0  0  0  0  0
   -3.4050   45.2660   58.0860 C   0  0  0  0  0  0  0  0  0  0  0  0
   -2.1690   46.1440   57.1920 S   0  0  0  0  0  0  0  0  0  0  0  0
   -2.7730   47.1700   56.2760 O   0  0  0  0  0  0  0  0  0  0  0  0
   -1.1460   46.7510   58.1110 O   0  0  0  0  0  0  0  0  0  0  0  0
   -0.3240   44.8280   54.1370 C   0  0  0  0  0  0  0  0  0  0  0  0
    0.8590   44.8750   53.3900 C   0  0  0  0  0  0  0  0  0  0  0  0
    0.7350   44.7200   51.6400 Cl  0  0  0  0  0  0  0  0  0  0  0  0
    3.3170   47.1640   52.9750 H   0  0  0  0  0  0  0  0  0  0  0  0
    5.3186   45.3668   51.5769 H   0  0  0  0  0  0  0  0  0  0  0  0
    4.6104   46.8765   50.8871 H   0  0  0  0  0  0  0  0  0  0  0  0
    6.2767   48.0668   51.7578 H   0  0  0  0  0  0  0  0  0  0  0  0
    6.1510   48.5390   53.9740 H   0  0  0  0  0  0  0  0  0  0  0  0
    6.8302   47.1475   55.5126 H   0  0  0  0  0  0  0  0  0  0  0  0
    5.5238   45.9860   55.1190 H   0  0  0  0  0  0  0  0  0  0  0  0
    8.2965   45.7806   54.4195 H   0  0  0  0  0  0  0  0  0  0  0  0
    6.9978   44.7115   53.8777 H   0  0  0  0  0  0  0  0  0  0  0  0
    7.4591   45.6569   51.7227 H   0  0  0  0  0  0  0  0  0  0  0  0
    8.2102   47.9498   51.7574 H   0  0  0  0  0  0  0  0  0  0  0  0
    9.9562   45.2207   52.1330 H   0  0  0  0  0  0  0  0  0  0  0  0
   10.7600   46.2426   51.2768 H   0  0  0  0  0  0  0  0  0  0  0  0
    9.7138   46.6526   54.3060 H   0  0  0  0  0  0  0  0  0  0  0  0
   10.4752   47.9226   53.8272 H   0  0  0  0  0  0  0  0  0  0  0  0
    3.1003   45.0385   55.9734 H   0  0  0  0  0  0  0  0  0  0  0  0
    0.9933   44.9635   57.2870 H   0  0  0  0  0  0  0  0  0  0  0  0
   -2.5024   43.0815   55.6365 H   0  0  0  0  0  0  0  0  0  0  0  0
   -1.6697   42.9224   57.2154 H   0  0  0  0  0  0  0  0  0  0  0  0
   -4.3878   44.0812   56.5683 H   0  0  0  0  0  0  0  0  0  0  0  0
   -3.8450   43.1530   58.0117 H   0  0  0  0  0  0  0  0  0  0  0  0
   -4.3457   45.8356   58.1103 H   0  0  0  0  0  0  0  0  0  0  0  0
   -3.1201   45.0941   59.1345 H   0  0  0  0  0  0  0  0  0  0  0  0
   -1.2902   44.7547   53.6164 H   0  0  0  0  0  0  0  0  0  0  0  0
  1  2  2  0
  2  3  1  0
  3  4  1  0
  4  5  1  0
  5  6  1  0
  6  7  1  0
  7  8  1  0
  8  9  1  0
  9 10  1  0
 10 11  1  0
 11 12  1  0
  2 13  1  0
 13 14  2  0
 14 15  1  0
 15 16  2  0
 16 17  1  0
 17 18  1  0
 18 19  1  0
 19 20  1  0
 20 21  1  0
 21 22  2  0
 21 23  2  0
 16 24  1  0
 24 25  2  0
 25 26  1  0
  9  5  1  0
 12 10  1  0
 25 13  1  0
 21 17  1  0
  3 27  1  0
  4 28  1  0
  4 29  1  0
  5 30  1  6
  6 31  1  0
  7 32  1  0
  7 33  1  0
  8 34  1  0
  8 35  1  0
  9 36  1  6
 10 37  1  0
 11 38  1  0
 11 39  1  0
 12 40  1  0
 12 41  1  0
 14 42  1  0
 15 43  1  0
 18 44  1  0
 18 45  1  0
 19 46  1  0
 19 47  1  0
 20 48  1  0
 20 49  1  0
 24 50  1  0
M  END
>  <meeko>  (5) 
{"is_sidechain": [false], "free_energy": -7.461, "intermolecular_energy": -10.542, "internal_energy": -0.061}

$$$$
