ligand_36_conformer_2_docked
     RDKit          3D

 42 45  0  0  0  0  0  0  0  0999 V2000
    1.8290   46.5420   52.9170 O   0  0  0  0  0  0  0  0  0  0  0  0
    2.7810   45.7230   53.0230 C   0  0  0  0  0  0  0  0  0  0  0  0
    2.5740   44.3300   52.5870 C   0  0  0  0  0  0  0  0  0  0  0  0
    1.5270   43.5170   52.9600 C   0  0  0  0  0  0  0  0  0  0  0  0
    1.7310   42.2940   52.4370 N   0  0  0  0  0  0  0  0  0  0  0  0
    2.8530   42.2890   51.7350 N   0  0  0  0  0  0  0  0  0  0  0  0
    3.3890   43.5240   51.8020 C   0  0  0  0  0  0  0  0  0  0  0  0
    4.5990   43.9130   51.0570 C   0  0  0  0  0  0  0  0  0  0  0  0
    5.0120   45.2220   50.8230 C   0  0  0  0  0  0  0  0  0  0  0  0
    6.2330   45.3060   50.1450 C   0  0  0  0  0  0  0  0  0  0  0  0
    6.7880   44.0670   49.8620 C   0  0  0  0  0  0  0  0  0  0  0  0
    8.3170   43.7870   49.0580 Cl  0  0  0  0  0  0  0  0  0  0  0  0
    5.7740   42.8660   50.4520 S   0  0  0  0  0  0  0  0  0  0  0  0
    4.0300   46.1470   53.6010 N   0  0  0  0  0  0  0  0  0  0  0  0
    4.7130   45.2670   54.5610 C   0  0  0  0  0  0  0  0  0  0  0  0
    6.0230   45.8900   55.0410 C   0  0  0  0  0  0  0  0  0  0  0  0
    6.7070   46.4890   53.8840 N   0  0  0  0  0  0  0  0  0  0  0  0
    8.1140   46.8020   54.2080 C   0  0  0  0  0  0  0  0  0  0  0  0
    8.8440   47.3170   52.9600 C   0  0  0  0  0  0  0  0  0  0  0  0
    9.1210   46.2530   51.9100 C   0  0  0  0  0  0  0  0  0  0  0  0
   10.2610   46.8070   52.7480 C   0  0  0  0  0  0  0  0  0  0  0  0
    5.9820   47.6920   53.4080 C   0  0  0  0  0  0  0  0  0  0  0  0
    4.4430   47.5510   53.4780 C   0  0  0  0  0  0  0  0  0  0  0  0
    0.6693   43.8165   53.5803 H   0  0  0  0  0  0  0  0  0  0  0  0
    1.1110   41.4640   52.5590 H   0  0  0  0  0  0  0  0  0  0  0  0
    4.4351   46.1033   51.1400 H   0  0  0  0  0  0  0  0  0  0  0  0
    6.7053   46.2591   49.8646 H   0  0  0  0  0  0  0  0  0  0  0  0
    4.0555   45.1008   55.4270 H   0  0  0  0  0  0  0  0  0  0  0  0
    4.9413   44.3141   54.0610 H   0  0  0  0  0  0  0  0  0  0  0  0
    5.8116   46.6672   55.7902 H   0  0  0  0  0  0  0  0  0  0  0  0
    6.6611   45.1197   55.4986 H   0  0  0  0  0  0  0  0  0  0  0  0
    8.1434   47.5744   54.9906 H   0  0  0  0  0  0  0  0  0  0  0  0
    8.6122   45.8879   54.5633 H   0  0  0  0  0  0  0  0  0  0  0  0
    8.3797   48.3141   52.9723 H   0  0  0  0  0  0  0  0  0  0  0  0
    8.7736   45.2213   52.0676 H   0  0  0  0  0  0  0  0  0  0  0  0
    8.9248   46.1546   50.8321 H   0  0  0  0  0  0  0  0  0  0  0  0
   10.7387   46.1764   53.5123 H   0  0  0  0  0  0  0  0  0  0  0  0
   11.2316   47.2757   52.5281 H   0  0  0  0  0  0  0  0  0  0  0  0
    6.2821   48.5484   54.0297 H   0  0  0  0  0  0  0  0  0  0  0  0
    6.2469   47.8326   52.3497 H   0  0  0  0  0  0  0  0  0  0  0  0
    4.0735   48.1088   54.3511 H   0  0  0  0  0  0  0  0  0  0  0  0
    4.0197   47.9519   52.5452 H   0  0  0  0  0  0  0  0  0  0  0  0
  1  2  2  0
  2  3  1  0
  3  4  2  0
  4  5  1  0
  5  6  1  0
  6  7  2  0
  7  8  1  0
  8  9  2  0
  9 10  1  0
 10 11  2  0
 11 12  1  0
 11 13  1  0
  2 14  1  0
 14 15  1  0
 15 16  1  0
 16 17  1  0
 17 18  1  0
 18 19  1  0
 19 20  1  0
 20 21  1  0
 17 22  1  0
 22 23  1  0
  7  3  1  0
 13  8  1  0
 23 14  1  0
 21 19  1  0
  4 24  1  0
  5 25  1  0
  9 26  1  0
 10 27  1  0
 15 28  1  0
 15 29  1  0
 16 30  1  0
 16 31  1  0
 18 32  1  0
 18 33  1  0
 19 34  1  0
 20 35  1  0
 20 36  1  0
 21 37  1  0
 21 38  1  0
 22 39  1  0
 22 40  1  0
 23 41  1  0
 23 42  1  0
M  END
>  <meeko>  (1) 
{"is_sidechain": [false], "free_energy": -8.335, "intermolecular_energy": -10.284, "internal_energy": -0.355}

$$$$
ligand_36_conformer_2_docked
     RDKit          3D

 42 45  0  0  0  0  0  0  0  0999 V2000
    1.7970   46.7060   52.6830 O   0  0  0  0  0  0  0  0  0  0  0  0
    2.6090   45.8360   53.1000 C   0  0  0  0  0  0  0  0  0  0  0  0
    2.1530   44.4410   53.2280 C   0  0  0  0  0  0  0  0  0  0  0  0
    2.5680   43.3830   52.4490 C   0  0  0  0  0  0  0  0  0  0  0  0
    1.8640   42.2930   52.8030 N   0  0  0  0  0  0  0  0  0  0  0  0
    1.0270   42.5980   53.7820 N   0  0  0  0  0  0  0  0  0  0  0  0
    1.1860   43.9050   54.0700 C   0  0  0  0  0  0  0  0  0  0  0  0
    0.4800   44.5730   55.1770 C   0  0  0  0  0  0  0  0  0  0  0  0
    1.0930   45.1750   56.2730 C   0  0  0  0  0  0  0  0  0  0  0  0
    0.1900   45.7920   57.1450 C   0  0  0  0  0  0  0  0  0  0  0  0
   -1.1290   45.6910   56.7270 C   0  0  0  0  0  0  0  0  0  0  0  0
   -2.5190   46.3700   57.5450 Cl  0  0  0  0  0  0  0  0  0  0  0  0
   -1.1800   44.8430   55.2790 S   0  0  0  0  0  0  0  0  0  0  0  0
    3.9420   46.2250   53.4790 N   0  0  0  0  0  0  0  0  0  0  0  0
    4.5310   45.6690   54.7070 C   0  0  0  0  0  0  0  0  0  0  0  0
    5.9510   46.1910   54.9200 C   0  0  0  0  0  0  0  0  0  0  0  0
    6.6510   46.1800   53.6260 N   0  0  0  0  0  0  0  0  0  0  0  0
    8.1070   46.3440   53.8150 C   0  0  0  0  0  0  0  0  0  0  0  0
    8.7370   46.9730   52.5640 C   0  0  0  0  0  0  0  0  0  0  0  0
    9.2860   45.9690   51.5630 C   0  0  0  0  0  0  0  0  0  0  0  0
   10.2400   46.8010   52.4050 C   0  0  0  0  0  0  0  0  0  0  0  0
    6.1040   47.2210   52.7220 C   0  0  0  0  0  0  0  0  0  0  0  0
    4.5690   47.3850   52.8320 C   0  0  0  0  0  0  0  0  0  0  0  0
    3.3434   43.4230   51.6698 H   0  0  0  0  0  0  0  0  0  0  0  0
    1.9490   41.3430   52.3780 H   0  0  0  0  0  0  0  0  0  0  0  0
    2.1807   45.1662   56.4369 H   0  0  0  0  0  0  0  0  0  0  0  0
    0.4949   46.3054   58.0688 H   0  0  0  0  0  0  0  0  0  0  0  0
    3.9090   45.9582   55.5669 H   0  0  0  0  0  0  0  0  0  0  0  0
    4.5716   44.5740   54.6108 H   0  0  0  0  0  0  0  0  0  0  0  0
    5.9139   47.2177   55.3132 H   0  0  0  0  0  0  0  0  0  0  0  0
    6.4827   45.5536   55.6418 H   0  0  0  0  0  0  0  0  0  0  0  0
    8.2896   46.9970   54.6812 H   0  0  0  0  0  0  0  0  0  0  0  0
    8.5599   45.3564   53.9869 H   0  0  0  0  0  0  0  0  0  0  0  0
    8.0536   47.8341   52.5263 H   0  0  0  0  0  0  0  0  0  0  0  0
    9.1827   44.8905   51.7529 H   0  0  0  0  0  0  0  0  0  0  0  0
    9.1518   45.7923   50.4856 H   0  0  0  0  0  0  0  0  0  0  0  0
   10.8267   46.3245   53.2042 H   0  0  0  0  0  0  0  0  0  0  0  0
   11.0817   47.4756   52.1894 H   0  0  0  0  0  0  0  0  0  0  0  0
    6.5763   48.1827   52.9714 H   0  0  0  0  0  0  0  0  0  0  0  0
    6.3240   46.9048   51.6916 H   0  0  0  0  0  0  0  0  0  0  0  0
    4.3485   48.2854   53.4242 H   0  0  0  0  0  0  0  0  0  0  0  0
    4.1604   47.4715   51.8144 H   0  0  0  0  0  0  0  0  0  0  0  0
  1  2  2  0
  2  3  1  0
  3  4  2  0
  4  5  1  0
  5  6  1  0
  6  7  2  0
  7  8  1  0
  8  9  2  0
  9 10  1  0
 10 11  2  0
 11 12  1  0
 11 13  1  0
  2 14  1  0
 14 15  1  0
 15 16  1  0
 16 17  1  0
 17 18  1  0
 18 19  1  0
 19 20  1  0
 20 21  1  0
 17 22  1  0
 22 23  1  0
  7  3  1  0
 13  8  1  0
 23 14  1  0
 21 19  1  0
  4 24  1  0
  5 25  1  0
  9 26  1  0
 10 27  1  0
 15 28  1  0
 15 29  1  0
 16 30  1  0
 16 31  1  0
 18 32  1  0
 18 33  1  0
 19 34  1  0
 20 35  1  0
 20 36  1  0
 21 37  1  0
 21 38  1  0
 22 39  1  0
 22 40  1  0
 23 41  1  0
 23 42  1  0
M  END
>  <meeko>  (2) 
{"is_sidechain": [false], "free_energy": -8.005, "intermolecular_energy": -9.542, "internal_energy": -0.69}

$$$$
ligand_36_conformer_2_docked
     RDKit          3D

 42 45  0  0  0  0  0  0  0  0999 V2000
    1.8890   42.4330   52.3900 O   0  0  0  0  0  0  0  0  0  0  0  0
    2.3720   43.5750   52.6180 C   0  0  0  0  0  0  0  0  0  0  0  0
    1.7720   44.4020   53.6810 C   0  0  0  0  0  0  0  0  0  0  0  0
    0.4280   44.4900   53.9710 C   0  0  0  0  0  0  0  0  0  0  0  0
    0.2630   45.4100   54.9380 N   0  0  0  0  0  0  0  0  0  0  0  0
    1.4380   45.9070   55.2910 N   0  0  0  0  0  0  0  0  0  0  0  0
    2.3830   45.3040   54.5440 C   0  0  0  0  0  0  0  0  0  0  0  0
    3.8250   45.5420   54.7310 C   0  0  0  0  0  0  0  0  0  0  0  0
    4.7780   44.5540   54.9630 C   0  0  0  0  0  0  0  0  0  0  0  0
    6.0850   45.0500   55.0390 C   0  0  0  0  0  0  0  0  0  0  0  0
    6.1590   46.4220   54.8490 C   0  0  0  0  0  0  0  0  0  0  0  0
    7.6260   47.3780   54.8430 Cl  0  0  0  0  0  0  0  0  0  0  0  0
    4.6150   47.0230   54.5850 S   0  0  0  0  0  0  0  0  0  0  0  0
    3.4620   44.0650   51.8160 N   0  0  0  0  0  0  0  0  0  0  0  0
    3.4390   45.4580   51.3460 C   0  0  0  0  0  0  0  0  0  0  0  0
    4.6890   45.7840   50.5290 C   0  0  0  0  0  0  0  0  0  0  0  0
    5.8540   45.1910   51.2040 N   0  0  0  0  0  0  0  0  0  0  0  0
    7.1130   45.7460   50.6660 C   0  0  0  0  0  0  0  0  0  0  0  0
    8.0020   46.2530   51.8100 C   0  0  0  0  0  0  0  0  0  0  0  0
    8.7420   47.5460   51.5050 C   0  0  0  0  0  0  0  0  0  0  0  0
    9.5020   46.2300   51.5610 C   0  0  0  0  0  0  0  0  0  0  0  0
    5.8280   43.7110   51.0990 C   0  0  0  0  0  0  0  0  0  0  0  0
    4.4070   43.1120   51.2200 C   0  0  0  0  0  0  0  0  0  0  0  0
   -0.3733   43.9073   53.4932 H   0  0  0  0  0  0  0  0  0  0  0  0
   -0.6480   45.7030   55.3560 H   0  0  0  0  0  0  0  0  0  0  0  0
    4.5286   43.4886   55.0755 H   0  0  0  0  0  0  0  0  0  0  0  0
    6.9636   44.4163   55.2299 H   0  0  0  0  0  0  0  0  0  0  0  0
    2.5492   45.6104   50.7175 H   0  0  0  0  0  0  0  0  0  0  0  0
    3.4116   46.1220   52.2226 H   0  0  0  0  0  0  0  0  0  0  0  0
    4.5918   45.3628   49.5175 H   0  0  0  0  0  0  0  0  0  0  0  0
    4.8137   46.8739   50.4485 H   0  0  0  0  0  0  0  0  0  0  0  0
    7.6479   44.9612   50.1110 H   0  0  0  0  0  0  0  0  0  0  0  0
    6.8770   46.5861   49.9963 H   0  0  0  0  0  0  0  0  0  0  0  0
    7.3516   45.8856   52.6174 H   0  0  0  0  0  0  0  0  0  0  0  0
    8.5896   48.0525   50.5405 H   0  0  0  0  0  0  0  0  0  0  0  0
    8.8395   48.5223   52.0023 H   0  0  0  0  0  0  0  0  0  0  0  0
    9.8994   45.7846   50.6370 H   0  0  0  0  0  0  0  0  0  0  0  0
   10.3770   45.8601   52.1156 H   0  0  0  0  0  0  0  0  0  0  0  0
    6.2459   43.4232   50.1230 H   0  0  0  0  0  0  0  0  0  0  0  0
    6.4200   43.3153   51.9374 H   0  0  0  0  0  0  0  0  0  0  0  0
    4.0500   42.8370   50.2166 H   0  0  0  0  0  0  0  0  0  0  0  0
    4.4624   42.2304   51.8755 H   0  0  0  0  0  0  0  0  0  0  0  0
  1  2  2  0
  2  3  1  0
  3  4  2  0
  4  5  1  0
  5  6  1  0
  6  7  2  0
  7  8  1  0
  8  9  2  0
  9 10  1  0
 10 11  2  0
 11 12  1  0
 11 13  1  0
  2 14  1  0
 14 15  1  0
 15 16  1  0
 16 17  1  0
 17 18  1  0
 18 19  1  0
 19 20  1  0
 20 21  1  0
 17 22  1  0
 22 23  1  0
  7  3  1  0
 13  8  1  0
 23 14  1  0
 21 19  1  0
  4 24  1  0
  5 25  1  0
  9 26  1  0
 10 27  1  0
 15 28  1  0
 15 29  1  0
 16 30  1  0
 16 31  1  0
 18 32  1  0
 18 33  1  0
 19 34  1  0
 20 35  1  0
 20 36  1  0
 21 37  1  0
 21 38  1  0
 22 39  1  0
 22 40  1  0
 23 41  1  0
 23 42  1  0
M  END
>  <meeko>  (3) 
{"is_sidechain": [false], "free_energy": -7.646, "intermolecular_energy": -9.251, "internal_energy": -0.537}

$$$$
ligand_36_conformer_2_docked
     RDKit          3D

 42 45  0  0  0  0  0  0  0  0999 V2000
    4.3580   45.9670   50.4740 O   0  0  0  0  0  0  0  0  0  0  0  0
    5.1770   45.2390   51.0960 C   0  0  0  0  0  0  0  0  0  0  0  0
    5.0100   43.7750   51.0430 C   0  0  0  0  0  0  0  0  0  0  0  0
    5.8190   42.8960   50.3560 C   0  0  0  0  0  0  0  0  0  0  0  0
    5.2960   41.6620   50.4690 N   0  0  0  0  0  0  0  0  0  0  0  0
    4.1980   41.7050   51.2060 N   0  0  0  0  0  0  0  0  0  0  0  0
    4.0000   42.9850   51.5780 C   0  0  0  0  0  0  0  0  0  0  0  0
    2.9170   43.3960   52.4890 C   0  0  0  0  0  0  0  0  0  0  0  0
    3.0590   44.2690   53.5640 C   0  0  0  0  0  0  0  0  0  0  0  0
    1.8550   44.5380   54.2240 C   0  0  0  0  0  0  0  0  0  0  0  0
    0.7660   43.8920   53.6580 C   0  0  0  0  0  0  0  0  0  0  0  0
   -0.8950   44.0200   54.1960 Cl  0  0  0  0  0  0  0  0  0  0  0  0
    1.2870   42.9910   52.3410 S   0  0  0  0  0  0  0  0  0  0  0  0
    6.2260   45.8430   51.8740 N   0  0  0  0  0  0  0  0  0  0  0  0
    6.5330   45.3050   53.2070 C   0  0  0  0  0  0  0  0  0  0  0  0
    7.6830   46.0710   53.8580 C   0  0  0  0  0  0  0  0  0  0  0  0
    8.7180   46.3120   52.8400 N   0  0  0  0  0  0  0  0  0  0  0  0
    9.9860   46.7370   53.4680 C   0  0  0  0  0  0  0  0  0  0  0  0
    9.7940   46.9190   54.9790 C   0  0  0  0  0  0  0  0  0  0  0  0
    9.6650   48.3670   55.4270 C   0  0  0  0  0  0  0  0  0  0  0  0
   10.9360   47.5890   55.7290 C   0  0  0  0  0  0  0  0  0  0  0  0
    8.2530   47.3020   51.8380 C   0  0  0  0  0  0  0  0  0  0  0  0
    6.7550   47.1550   51.4790 C   0  0  0  0  0  0  0  0  0  0  0  0
    6.7362   43.1588   49.8085 H   0  0  0  0  0  0  0  0  0  0  0  0
    5.6840   40.7910   50.0430 H   0  0  0  0  0  0  0  0  0  0  0  0
    4.0232   44.7046   53.8650 H   0  0  0  0  0  0  0  0  0  0  0  0
    1.7797   45.1953   55.1028 H   0  0  0  0  0  0  0  0  0  0  0  0
    5.6395   45.3896   53.8430 H   0  0  0  0  0  0  0  0  0  0  0  0
    6.8321   44.2520   53.0983 H   0  0  0  0  0  0  0  0  0  0  0  0
    7.3153   47.0315   54.2482 H   0  0  0  0  0  0  0  0  0  0  0  0
    8.1017   45.4868   54.6907 H   0  0  0  0  0  0  0  0  0  0  0  0
   10.7547   45.9708   53.2891 H   0  0  0  0  0  0  0  0  0  0  0  0
   10.3009   47.6949   53.0283 H   0  0  0  0  0  0  0  0  0  0  0  0
    9.2187   45.9925   55.1228 H   0  0  0  0  0  0  0  0  0  0  0  0
    9.6796   49.1764   54.6823 H   0  0  0  0  0  0  0  0  0  0  0  0
    8.9384   48.9331   56.0283 H   0  0  0  0  0  0  0  0  0  0  0  0
   11.8699   47.8355   55.2026 H   0  0  0  0  0  0  0  0  0  0  0  0
   11.5096   47.3592   56.6391 H   0  0  0  0  0  0  0  0  0  0  0  0
    8.4172   48.3115   52.2429 H   0  0  0  0  0  0  0  0  0  0  0  0
    8.8269   47.1256   50.9163 H   0  0  0  0  0  0  0  0  0  0  0  0
    6.1856   47.9397   51.9986 H   0  0  0  0  0  0  0  0  0  0  0  0
    6.6538   47.2502   50.3878 H   0  0  0  0  0  0  0  0  0  0  0  0
  1  2  2  0
  2  3  1  0
  3  4  2  0
  4  5  1  0
  5  6  1  0
  6  7  2  0
  7  8  1  0
  8  9  2  0
  9 10  1  0
 10 11  2  0
 11 12  1  0
 11 13  1  0
  2 14  1  0
 14 15  1  0
 15 16  1  0
 16 17  1  0
 17 18  1  0
 18 19  1  0
 19 20  1  0
 20 21  1  0
 17 22  1  0
 22 23  1  0
  7  3  1  0
 13  8  1  0
 23 14  1  0
 21 19  1  0
  4 24  1  0
  5 25  1  0
  9 26  1  0
 10 27  1  0
 15 28  1  0
 15 29  1  0
 16 30  1  0
 16 31  1  0
 18 32  1  0
 18 33  1  0
 19 34  1  0
 20 35  1  0
 20 36  1  0
 21 37  1  0
 21 38  1  0
 22 39  1  0
 22 40  1  0
 23 41  1  0
 23 42  1  0
M  END
>  <meeko>  (4) 
{"is_sidechain": [false], "free_energy": -7.368, "intermolecular_energy": -8.916, "internal_energy": -0.531}

$$$$
ligand_36_conformer_2_docked
     RDKit          3D

 42 45  0  0  0  0  0  0  0  0999 V2000
    3.1500   46.7380   50.9230 O   0  0  0  0  0  0  0  0  0  0  0  0
    3.1050   46.2650   52.0910 C   0  0  0  0  0  0  0  0  0  0  0  0
    4.1310   46.6760   53.0640 C   0  0  0  0  0  0  0  0  0  0  0  0
    3.8920   47.2640   54.2880 C   0  0  0  0  0  0  0  0  0  0  0  0
    5.0750   47.5770   54.8470 N   0  0  0  0  0  0  0  0  0  0  0  0
    6.0620   47.2060   54.0470 N   0  0  0  0  0  0  0  0  0  0  0  0
    5.5160   46.6450   52.9500 C   0  0  0  0  0  0  0  0  0  0  0  0
    6.3210   46.0300   51.8800 C   0  0  0  0  0  0  0  0  0  0  0  0
    7.5890   46.4510   51.4870 C   0  0  0  0  0  0  0  0  0  0  0  0
    8.1560   45.6480   50.4900 C   0  0  0  0  0  0  0  0  0  0  0  0
    7.3440   44.5890   50.1150 C   0  0  0  0  0  0  0  0  0  0  0  0
    7.7380   43.3650   48.9260 Cl  0  0  0  0  0  0  0  0  0  0  0  0
    5.9270   44.6400   51.0140 S   0  0  0  0  0  0  0  0  0  0  0  0
    2.0870   45.3080   52.4370 N   0  0  0  0  0  0  0  0  0  0  0  0
    2.4520   44.1270   53.2340 C   0  0  0  0  0  0  0  0  0  0  0  0
    1.2320   43.2500   53.5070 C   0  0  0  0  0  0  0  0  0  0  0  0
    0.0970   44.1220   53.8510 N   0  0  0  0  0  0  0  0  0  0  0  0
   -1.0040   43.3420   54.4500 C   0  0  0  0  0  0  0  0  0  0  0  0
   -1.8630   44.2400   55.3510 C   0  0  0  0  0  0  0  0  0  0  0  0
   -1.1640   44.7150   56.6150 C   0  0  0  0  0  0  0  0  0  0  0  0
   -2.2570   43.6630   56.7020 C   0  0  0  0  0  0  0  0  0  0  0  0
   -0.3640   44.8810   52.6620 C   0  0  0  0  0  0  0  0  0  0  0  0
    0.7920   45.3470   51.7450 C   0  0  0  0  0  0  0  0  0  0  0  0
    2.9022   47.4462   54.7320 H   0  0  0  0  0  0  0  0  0  0  0  0
    5.2110   48.0450   55.7700 H   0  0  0  0  0  0  0  0  0  0  0  0
    8.0951   47.3278   51.9173 H   0  0  0  0  0  0  0  0  0  0  0  0
    9.1456   45.8382   50.0490 H   0  0  0  0  0  0  0  0  0  0  0  0
    3.2010   43.5392   52.6831 H   0  0  0  0  0  0  0  0  0  0  0  0
    2.8601   44.4677   54.1970 H   0  0  0  0  0  0  0  0  0  0  0  0
    0.9894   42.6621   52.6095 H   0  0  0  0  0  0  0  0  0  0  0  0
    1.4423   42.5601   54.3375 H   0  0  0  0  0  0  0  0  0  0  0  0
   -1.6316   42.9253   53.6485 H   0  0  0  0  0  0  0  0  0  0  0  0
   -0.5784   42.5287   55.0561 H   0  0  0  0  0  0  0  0  0  0  0  0
   -2.4162   44.7144   54.5270 H   0  0  0  0  0  0  0  0  0  0  0  0
   -0.1164   44.4363   56.8019 H   0  0  0  0  0  0  0  0  0  0  0  0
   -0.9876   45.6938   57.0850 H   0  0  0  0  0  0  0  0  0  0  0  0
   -2.0006   42.6229   56.9517 H   0  0  0  0  0  0  0  0  0  0  0  0
   -3.1993   43.5649   57.2609 H   0  0  0  0  0  0  0  0  0  0  0  0
   -1.0360   44.2368   52.0760 H   0  0  0  0  0  0  0  0  0  0  0  0
   -0.8714   45.7849   53.0301 H   0  0  0  0  0  0  0  0  0  0  0  0
    0.8378   44.6867   50.8664 H   0  0  0  0  0  0  0  0  0  0  0  0
    0.5944   46.3875   51.4478 H   0  0  0  0  0  0  0  0  0  0  0  0
  1  2  2  0
  2  3  1  0
  3  4  2  0
  4  5  1  0
  5  6  1  0
  6  7  2  0
  7  8  1  0
  8  9  2  0
  9 10  1  0
 10 11  2  0
 11 12  1  0
 11 13  1  0
  2 14  1  0
 14 15  1  0
 15 16  1  0
 16 17  1  0
 17 18  1  0
 18 19  1  0
 19 20  1  0
 20 21  1  0
 17 22  1  0
 22 23  1  0
  7  3  1  0
 13  8  1  0
 23 14  1  0
 21 19  1  0
  4 24  1  0
  5 25  1  0
  9 26  1  0
 10 27  1  0
 15 28  1  0
 15 29  1  0
 16 30  1  0
 16 31  1  0
 18 32  1  0
 18 33  1  0
 19 34  1  0
 20 35  1  0
 20 36  1  0
 21 37  1  0
 21 38  1  0
 22 39  1  0
 22 40  1  0
 23 41  1  0
 23 42  1  0
M  END
>  <meeko>  (5) 
{"is_sidechain": [false], "free_energy": -7.311, "intermolecular_energy": -8.954, "internal_energy": -0.421}

$$$$
