ligand_56_conformer_5_docked
     RDKit          3D

 50 53  0  0  0  0  0  0  0  0999 V2000
    4.2770   48.0730   54.2110 O   0  0  0  0  0  0  0  0  0  0  0  0
    4.1730   46.8160   54.1630 C   0  0  0  0  0  0  0  0  0  0  0  0
    5.3300   45.9980   54.3980 N   0  0  0  0  0  0  0  0  0  0  0  0
    6.6460   46.5690   54.6840 C   0  0  0  0  0  0  0  0  0  0  0  0
    7.3090   47.0880   53.3900 C   0  0  1  0  0  0  0  0  0  0  0  0
    8.4800   47.9330   53.6750 N   0  0  0  0  0  0  0  0  0  0  0  0
    9.4970   47.5630   52.6960 C   0  0  0  0  0  0  0  0  0  0  0  0
    9.2660   46.1100   52.3430 C   0  0  0  0  0  0  0  0  0  0  0  0
    7.7620   45.9250   52.4780 C   0  0  2  0  0  0  0  0  0  0  0  0
    7.0830   46.0140   51.0950 C   0  0  0  0  0  0  0  0  0  0  0  0
    7.5340   44.9840   50.0690 C   0  0  0  0  0  0  0  0  0  0  0  0
    6.1790   44.8400   50.7460 C   0  0  0  0  0  0  0  0  0  0  0  0
    2.8640   46.1990   53.8340 C   0  0  0  0  0  0  0  0  0  0  0  0
    2.0790   45.6570   54.8650 C   0  0  0  0  0  0  0  0  0  0  0  0
    0.8520   45.0520   54.5880 C   0  0  0  0  0  0  0  0  0  0  0  0
    0.3780   44.9600   53.2690 C   0  0  0  0  0  0  0  0  0  0  0  0
   -0.8920   44.3300   52.9810 N   0  0  0  0  0  0  0  0  0  0  0  0
   -2.1940   44.9330   53.2630 C   0  0  0  0  0  0  0  0  0  0  0  0
   -3.2990   43.8920   52.9700 C   0  0  0  0  0  0  0  0  0  0  0  0
   -2.8190   42.9160   51.8910 C   0  0  0  0  0  0  0  0  0  0  0  0
   -1.0670   42.8810   52.0750 S   0  0  0  0  0  0  0  0  0  0  0  0
   -0.3680   42.9690   50.7450 O   0  0  0  0  0  0  0  0  0  0  0  0
   -0.6160   41.6810   52.8610 O   0  0  0  0  0  0  0  0  0  0  0  0
    1.1620   45.5040   52.2350 C   0  0  0  0  0  0  0  0  0  0  0  0
    2.3910   46.1180   52.5060 C   0  0  0  0  0  0  0  0  0  0  0  0
    3.2690   46.8250   51.1530 Cl  0  0  0  0  0  0  0  0  0  0  0  0
    5.2420   44.9560   54.3830 H   0  0  0  0  0  0  0  0  0  0  0  0
    6.5314   47.4040   55.3909 H   0  0  0  0  0  0  0  0  0  0  0  0
    7.2843   45.7857   55.1186 H   0  0  0  0  0  0  0  0  0  0  0  0
    6.5423   47.6864   52.8761 H   0  0  0  0  0  0  0  0  0  0  0  0
    8.8690   47.7050   54.6220 H   0  0  0  0  0  0  0  0  0  0  0  0
    9.4012   48.1897   51.7970 H   0  0  0  0  0  0  0  0  0  0  0  0
   10.5072   47.7109   53.1055 H   0  0  0  0  0  0  0  0  0  0  0  0
    9.5933   45.9023   51.3136 H   0  0  0  0  0  0  0  0  0  0  0  0
    9.8335   45.4249   52.9900 H   0  0  0  0  0  0  0  0  0  0  0  0
    7.4926   44.9431   52.8942 H   0  0  0  0  0  0  0  0  0  0  0  0
    6.9794   47.1091   51.1002 H   0  0  0  0  0  0  0  0  0  0  0  0
    7.5909   45.2563   49.0048 H   0  0  0  0  0  0  0  0  0  0  0  0
    8.4170   44.3387   49.9512 H   0  0  0  0  0  0  0  0  0  0  0  0
    5.2564   45.0082   50.1712 H   0  0  0  0  0  0  0  0  0  0  0  0
    5.6768   44.0475   51.3203 H   0  0  0  0  0  0  0  0  0  0  0  0
    2.4358   45.7100   55.9042 H   0  0  0  0  0  0  0  0  0  0  0  0
    0.2493   44.6426   55.4121 H   0  0  0  0  0  0  0  0  0  0  0  0
   -2.2408   45.2343   54.3199 H   0  0  0  0  0  0  0  0  0  0  0  0
   -2.3397   45.8209   52.6302 H   0  0  0  0  0  0  0  0  0  0  0  0
   -3.5292   43.3349   53.8901 H   0  0  0  0  0  0  0  0  0  0  0  0
   -4.2019   44.4106   52.6152 H   0  0  0  0  0  0  0  0  0  0  0  0
   -3.2470   41.9158   52.0534 H   0  0  0  0  0  0  0  0  0  0  0  0
   -3.1273   43.2245   50.8811 H   0  0  0  0  0  0  0  0  0  0  0  0
    0.8036   45.4460   51.1966 H   0  0  0  0  0  0  0  0  0  0  0  0
  1  2  2  0
  2  3  1  0
  3  4  1  0
  4  5  1  0
  5  6  1  0
  6  7  1  0
  7  8  1  0
  8  9  1  0
  9 10  1  0
 10 11  1  0
 11 12  1  0
  2 13  1  0
 13 14  2  0
 14 15  1  0
 15 16  2  0
 16 17  1  0
 17 18  1  0
 18 19  1  0
 19 20  1  0
 20 21  1  0
 21 22  2  0
 21 23  2  0
 16 24  1  0
 24 25  2  0
 25 26  1  0
  9  5  1  0
 12 10  1  0
 25 13  1  0
 21 17  1  0
  3 27  1  0
  4 28  1  0
  4 29  1  0
  5 30  1  6
  6 31  1  0
  7 32  1  0
  7 33  1  0
  8 34  1  0
  8 35  1  0
  9 36  1  1
 10 37  1  0
 11 38  1  0
 11 39  1  0
 12 40  1  0
 12 41  1  0
 14 42  1  0
 15 43  1  0
 18 44  1  0
 18 45  1  0
 19 46  1  0
 19 47  1  0
 20 48  1  0
 20 49  1  0
 24 50  1  0
M  END
>  <meeko>  (1) 
{"is_sidechain": [false], "free_energy": -8.188, "intermolecular_energy": -10.581, "internal_energy": -0.92}

$$$$
ligand_56_conformer_5_docked
     RDKit          3D

 50 53  0  0  0  0  0  0  0  0999 V2000
    5.2940   44.2560   54.4320 O   0  0  0  0  0  0  0  0  0  0  0  0
    4.4900   45.2280   54.4340 C   0  0  0  0  0  0  0  0  0  0  0  0
    4.9950   46.5690   54.3300 N   0  0  0  0  0  0  0  0  0  0  0  0
    6.4250   46.8590   54.2340 C   0  0  0  0  0  0  0  0  0  0  0  0
    6.8200   47.1870   52.7780 C   0  0  1  0  0  0  0  0  0  0  0  0
    7.7810   48.3000   52.7080 N   0  0  0  0  0  0  0  0  0  0  0  0
    8.7570   47.9310   51.6880 C   0  0  0  0  0  0  0  0  0  0  0  0
    8.8420   46.4200   51.6810 C   0  0  0  0  0  0  0  0  0  0  0  0
    7.4450   45.9630   52.0700 C   0  0  2  0  0  0  0  0  0  0  0  0
    6.6340   45.5820   50.8130 C   0  0  0  0  0  0  0  0  0  0  0  0
    7.2820   44.5580   49.8920 C   0  0  0  0  0  0  0  0  0  0  0  0
    6.1220   44.1490   50.7880 C   0  0  0  0  0  0  0  0  0  0  0  0
    3.0340   44.9770   54.5720 C   0  0  0  0  0  0  0  0  0  0  0  0
    2.3450   45.5120   55.6730 C   0  0  0  0  0  0  0  0  0  0  0  0
    0.9790   45.2790   55.8440 C   0  0  0  0  0  0  0  0  0  0  0  0
    0.2640   44.4930   54.9260 C   0  0  0  0  0  0  0  0  0  0  0  0
   -1.1510   44.2480   55.1060 N   0  0  0  0  0  0  0  0  0  0  0  0
   -1.8260   44.2230   56.4030 C   0  0  0  0  0  0  0  0  0  0  0  0
   -3.2880   43.7700   56.1960 C   0  0  0  0  0  0  0  0  0  0  0  0
   -3.7580   44.1570   54.7900 C   0  0  0  0  0  0  0  0  0  0  0  0
   -2.2870   44.1630   53.8200 S   0  0  0  0  0  0  0  0  0  0  0  0
   -2.2130   45.3770   52.9320 O   0  0  0  0  0  0  0  0  0  0  0  0
   -2.1360   42.8910   53.0330 O   0  0  0  0  0  0  0  0  0  0  0  0
    0.9520   43.9570   53.8220 C   0  0  0  0  0  0  0  0  0  0  0  0
    2.3210   44.1920   53.6400 C   0  0  0  0  0  0  0  0  0  0  0  0
    3.0790   43.5320   52.1950 Cl  0  0  0  0  0  0  0  0  0  0  0  0
    4.3300   47.3750   54.3070 H   0  0  0  0  0  0  0  0  0  0  0  0
    6.6623   47.7208   54.8752 H   0  0  0  0  0  0  0  0  0  0  0  0
    6.9879   45.9725   54.5614 H   0  0  0  0  0  0  0  0  0  0  0  0
    5.8884   47.4755   52.2692 H   0  0  0  0  0  0  0  0  0  0  0  0
    8.3010   48.3870   53.6140 H   0  0  0  0  0  0  0  0  0  0  0  0
    8.4297   48.2953   50.7030 H   0  0  0  0  0  0  0  0  0  0  0  0
    9.7385   48.3778   51.9048 H   0  0  0  0  0  0  0  0  0  0  0  0
    9.1086   46.0494   50.6802 H   0  0  0  0  0  0  0  0  0  0  0  0
    9.6144   46.0395   52.3656 H   0  0  0  0  0  0  0  0  0  0  0  0
    7.4564   45.0721   52.7151 H   0  0  0  0  0  0  0  0  0  0  0  0
    6.1867   46.5771   50.6727 H   0  0  0  0  0  0  0  0  0  0  0  0
    7.1381   44.6283   48.8037 H   0  0  0  0  0  0  0  0  0  0  0  0
    8.3078   44.1941   49.7329 H   0  0  0  0  0  0  0  0  0  0  0  0
    5.1396   43.9236   50.3474 H   0  0  0  0  0  0  0  0  0  0  0  0
    5.9620   43.3669   51.5448 H   0  0  0  0  0  0  0  0  0  0  0  0
    2.8884   46.1221   56.4096 H   0  0  0  0  0  0  0  0  0  0  0  0
    0.4569   45.7162   56.7079 H   0  0  0  0  0  0  0  0  0  0  0  0
   -1.3122   43.5183   57.0734 H   0  0  0  0  0  0  0  0  0  0  0  0
   -1.8064   45.2264   56.8534 H   0  0  0  0  0  0  0  0  0  0  0  0
   -3.3522   42.6783   56.3148 H   0  0  0  0  0  0  0  0  0  0  0  0
   -3.9295   44.2627   56.9415 H   0  0  0  0  0  0  0  0  0  0  0  0
   -4.4760   43.4190   54.4031 H   0  0  0  0  0  0  0  0  0  0  0  0
   -4.2740   45.1283   54.7738 H   0  0  0  0  0  0  0  0  0  0  0  0
    0.4062   43.3436   53.0900 H   0  0  0  0  0  0  0  0  0  0  0  0
  1  2  2  0
  2  3  1  0
  3  4  1  0
  4  5  1  0
  5  6  1  0
  6  7  1  0
  7  8  1  0
  8  9  1  0
  9 10  1  0
 10 11  1  0
 11 12  1  0
  2 13  1  0
 13 14  2  0
 14 15  1  0
 15 16  2  0
 16 17  1  0
 17 18  1  0
 18 19  1  0
 19 20  1  0
 20 21  1  0
 21 22  2  0
 21 23  2  0
 16 24  1  0
 24 25  2  0
 25 26  1  0
  9  5  1  0
 12 10  1  0
 25 13  1  0
 21 17  1  0
  3 27  1  0
  4 28  1  0
  4 29  1  0
  5 30  1  6
  6 31  1  0
  7 32  1  0
  7 33  1  0
  8 34  1  0
  8 35  1  0
  9 36  1  1
 10 37  1  0
 11 38  1  0
 11 39  1  0
 12 40  1  0
 12 41  1  0
 14 42  1  0
 15 43  1  0
 18 44  1  0
 18 45  1  0
 19 46  1  0
 19 47  1  0
 20 48  1  0
 20 49  1  0
 24 50  1  0
M  END
>  <meeko>  (2) 
{"is_sidechain": [false], "free_energy": -7.959, "intermolecular_energy": -10.314, "internal_energy": -0.892}

$$$$
ligand_56_conformer_5_docked
     RDKit          3D

 50 53  0  0  0  0  0  0  0  0999 V2000
    3.9140   47.1250   53.9270 O   0  0  0  0  0  0  0  0  0  0  0  0
    3.4950   45.9360   53.9570 C   0  0  0  0  0  0  0  0  0  0  0  0
    4.3460   44.8960   54.4680 N   0  0  0  0  0  0  0  0  0  0  0  0
    5.7000   45.1620   54.9510 C   0  0  0  0  0  0  0  0  0  0  0  0
    6.7030   45.1890   53.7770 C   0  0  1  0  0  0  0  0  0  0  0  0
    6.0310   45.0210   52.4780 N   0  0  0  0  0  0  0  0  0  0  0  0
    6.6790   45.9550   51.5620 C   0  0  0  0  0  0  0  0  0  0  0  0
    7.1650   47.1240   52.3900 C   0  0  0  0  0  0  0  0  0  0  0  0
    7.5000   46.5130   53.7420 C   0  0  2  0  0  0  0  0  0  0  0  0
    9.0160   46.2460   53.8510 C   0  0  0  0  0  0  0  0  0  0  0  0
    9.9120   47.1690   53.0380 C   0  0  0  0  0  0  0  0  0  0  0  0
    9.8130   47.3400   54.5470 C   0  0  0  0  0  0  0  0  0  0  0  0
    2.1430   45.6190   53.4360 C   0  0  0  0  0  0  0  0  0  0  0  0
    1.1160   45.2940   54.3380 C   0  0  0  0  0  0  0  0  0  0  0  0
   -0.1630   44.9720   53.8810 C   0  0  0  0  0  0  0  0  0  0  0  0
   -0.4510   44.9530   52.5060 C   0  0  0  0  0  0  0  0  0  0  0  0
   -1.7760   44.6150   52.0320 N   0  0  0  0  0  0  0  0  0  0  0  0
   -2.4850   45.3420   50.9800 C   0  0  0  0  0  0  0  0  0  0  0  0
   -3.9240   44.7880   50.8740 C   0  0  0  0  0  0  0  0  0  0  0  0
   -3.9490   43.3220   51.3200 C   0  0  0  0  0  0  0  0  0  0  0  0
   -2.6260   43.1910   52.4760 S   0  0  0  0  0  0  0  0  0  0  0  0
   -1.8020   41.9540   52.2360 O   0  0  0  0  0  0  0  0  0  0  0  0
   -3.1200   43.2610   53.8940 O   0  0  0  0  0  0  0  0  0  0  0  0
    0.5750   45.2800   51.6010 C   0  0  0  0  0  0  0  0  0  0  0  0
    1.8590   45.6090   52.0530 C   0  0  0  0  0  0  0  0  0  0  0  0
    3.0590   46.0650   50.8470 Cl  0  0  0  0  0  0  0  0  0  0  0  0
    3.9930   43.9130   54.5160 H   0  0  0  0  0  0  0  0  0  0  0  0
    5.7162   46.1359   55.4622 H   0  0  0  0  0  0  0  0  0  0  0  0
    5.9911   44.3610   55.6464 H   0  0  0  0  0  0  0  0  0  0  0  0
    7.3894   44.3461   53.9454 H   0  0  0  0  0  0  0  0  0  0  0  0
    5.0260   45.3090   52.5500 H   0  0  0  0  0  0  0  0  0  0  0  0
    7.5291   45.4663   51.0635 H   0  0  0  0  0  0  0  0  0  0  0  0
    5.9778   46.2907   50.7838 H   0  0  0  0  0  0  0  0  0  0  0  0
    8.0577   47.5788   51.9359 H   0  0  0  0  0  0  0  0  0  0  0  0
    6.4161   47.9262   52.4651 H   0  0  0  0  0  0  0  0  0  0  0  0
    7.2400   47.1751   54.5810 H   0  0  0  0  0  0  0  0  0  0  0  0
    8.9213   45.1554   53.9584 H   0  0  0  0  0  0  0  0  0  0  0  0
   10.8377   46.7808   52.5880 H   0  0  0  0  0  0  0  0  0  0  0  0
    9.7660   47.8279   52.1693 H   0  0  0  0  0  0  0  0  0  0  0  0
   10.6671   47.0754   55.1877 H   0  0  0  0  0  0  0  0  0  0  0  0
    9.5658   48.1736   55.2208 H   0  0  0  0  0  0  0  0  0  0  0  0
    1.3225   45.2933   55.4184 H   0  0  0  0  0  0  0  0  0  0  0  0
   -0.9545   44.7304   54.6057 H   0  0  0  0  0  0  0  0  0  0  0  0
   -2.5186   46.4129   51.2290 H   0  0  0  0  0  0  0  0  0  0  0  0
   -1.9634   45.2130   50.0202 H   0  0  0  0  0  0  0  0  0  0  0  0
   -4.5911   45.3778   51.5199 H   0  0  0  0  0  0  0  0  0  0  0  0
   -4.2639   44.8563   49.8301 H   0  0  0  0  0  0  0  0  0  0  0  0
   -4.9089   43.0772   51.7981 H   0  0  0  0  0  0  0  0  0  0  0  0
   -3.8377   42.6257   50.4758 H   0  0  0  0  0  0  0  0  0  0  0  0
    0.3655   45.2772   50.5211 H   0  0  0  0  0  0  0  0  0  0  0  0
  1  2  2  0
  2  3  1  0
  3  4  1  0
  4  5  1  0
  5  6  1  0
  6  7  1  0
  7  8  1  0
  8  9  1  0
  9 10  1  0
 10 11  1  0
 11 12  1  0
  2 13  1  0
 13 14  2  0
 14 15  1  0
 15 16  2  0
 16 17  1  0
 17 18  1  0
 18 19  1  0
 19 20  1  0
 20 21  1  0
 21 22  2  0
 21 23  2  0
 16 24  1  0
 24 25  2  0
 25 26  1  0
  9  5  1  0
 12 10  1  0
 25 13  1  0
 21 17  1  0
  3 27  1  0
  4 28  1  0
  4 29  1  0
  5 30  1  1
  6 31  1  0
  7 32  1  0
  7 33  1  0
  8 34  1  0
  8 35  1  0
  9 36  1  1
 10 37  1  0
 11 38  1  0
 11 39  1  0
 12 40  1  0
 12 41  1  0
 14 42  1  0
 15 43  1  0
 18 44  1  0
 18 45  1  0
 19 46  1  0
 19 47  1  0
 20 48  1  0
 20 49  1  0
 24 50  1  0
M  END
>  <meeko>  (3) 
{"is_sidechain": [false], "free_energy": -7.724, "intermolecular_energy": -10.15, "internal_energy": -0.753}

$$$$
ligand_56_conformer_5_docked
     RDKit          3D

 50 53  0  0  0  0  0  0  0  0999 V2000
    4.7680   43.9600   53.0490 O   0  0  0  0  0  0  0  0  0  0  0  0
    3.8390   44.7300   52.6800 C   0  0  0  0  0  0  0  0  0  0  0  0
    4.1160   45.7780   51.7380 N   0  0  0  0  0  0  0  0  0  0  0  0
    5.4530   46.0000   51.1890 C   0  0  0  0  0  0  0  0  0  0  0  0
    6.2960   46.8770   52.1400 C   0  0  1  0  0  0  0  0  0  0  0  0
    5.5490   47.2410   53.3560 N   0  0  0  0  0  0  0  0  0  0  0  0
    6.4940   47.1270   54.4630 C   0  0  0  0  0  0  0  0  0  0  0  0
    7.4970   46.0600   54.0820 C   0  0  0  0  0  0  0  0  0  0  0  0
    7.5980   46.1610   52.5680 C   0  0  2  0  0  0  0  0  0  0  0  0
    8.8370   46.9880   52.1650 C   0  0  0  0  0  0  0  0  0  0  0  0
    9.9560   47.0490   53.1950 C   0  0  0  0  0  0  0  0  0  0  0  0
   10.1090   46.1780   51.9570 C   0  0  0  0  0  0  0  0  0  0  0  0
    2.4780   44.5630   53.2470 C   0  0  0  0  0  0  0  0  0  0  0  0
    2.0960   45.3310   54.3600 C   0  0  0  0  0  0  0  0  0  0  0  0
    0.8300   45.1850   54.9300 C   0  0  0  0  0  0  0  0  0  0  0  0
   -0.0890   44.2580   54.4120 C   0  0  0  0  0  0  0  0  0  0  0  0
   -1.3990   44.1040   55.0050 N   0  0  0  0  0  0  0  0  0  0  0  0
   -1.6480   44.0150   56.4430 C   0  0  0  0  0  0  0  0  0  0  0  0
   -3.1420   43.6910   56.6710 C   0  0  0  0  0  0  0  0  0  0  0  0
   -3.9750   44.2360   55.5070 C   0  0  0  0  0  0  0  0  0  0  0  0
   -2.8740   44.2190   54.1320 S   0  0  0  0  0  0  0  0  0  0  0  0
   -2.9540   45.4970   53.3410 O   0  0  0  0  0  0  0  0  0  0  0  0
   -3.0940   43.0130   53.2600 O   0  0  0  0  0  0  0  0  0  0  0  0
    0.2910   43.4890   53.2960 C   0  0  0  0  0  0  0  0  0  0  0  0
    1.5570   43.6340   52.7150 C   0  0  0  0  0  0  0  0  0  0  0  0
    1.9150   42.6730   51.2840 Cl  0  0  0  0  0  0  0  0  0  0  0  0
    3.3440   46.4020   51.4120 H   0  0  0  0  0  0  0  0  0  0  0  0
    5.9534   45.0298   51.0542 H   0  0  0  0  0  0  0  0  0  0  0  0
    5.3568   46.5179   50.2233 H   0  0  0  0  0  0  0  0  0  0  0  0
    6.5414   47.7881   51.5745 H   0  0  0  0  0  0  0  0  0  0  0  0
    4.7840   46.5450   53.5320 H   0  0  0  0  0  0  0  0  0  0  0  0
    7.0064   48.0872   54.6224 H   0  0  0  0  0  0  0  0  0  0  0  0
    5.9749   46.8619   55.3959 H   0  0  0  0  0  0  0  0  0  0  0  0
    8.4722   46.2568   54.5514 H   0  0  0  0  0  0  0  0  0  0  0  0
    7.1911   45.0577   54.4164 H   0  0  0  0  0  0  0  0  0  0  0  0
    7.7092   45.1786   52.0859 H   0  0  0  0  0  0  0  0  0  0  0  0
    8.2786   47.7355   51.5824 H   0  0  0  0  0  0  0  0  0  0  0  0
   10.5566   47.9645   53.3010 H   0  0  0  0  0  0  0  0  0  0  0  0
   10.0249   46.8781   54.2795 H   0  0  0  0  0  0  0  0  0  0  0  0
   10.8201   46.4638   51.1679 H   0  0  0  0  0  0  0  0  0  0  0  0
   10.3343   45.1167   51.7757 H   0  0  0  0  0  0  0  0  0  0  0  0
    2.8036   46.0566   54.7877 H   0  0  0  0  0  0  0  0  0  0  0  0
    0.5490   45.8034   55.7952 H   0  0  0  0  0  0  0  0  0  0  0  0
   -1.0265   43.2180   56.8771 H   0  0  0  0  0  0  0  0  0  0  0  0
   -1.3950   44.9704   56.9258 H   0  0  0  0  0  0  0  0  0  0  0  0
   -3.2735   42.6008   56.7351 H   0  0  0  0  0  0  0  0  0  0  0  0
   -3.4764   44.1606   57.6078 H   0  0  0  0  0  0  0  0  0  0  0  0
   -4.8455   43.5911   55.3162 H   0  0  0  0  0  0  0  0  0  0  0  0
   -4.3735   45.2406   55.7118 H   0  0  0  0  0  0  0  0  0  0  0  0
   -0.4181   42.7621   52.8732 H   0  0  0  0  0  0  0  0  0  0  0  0
  1  2  2  0
  2  3  1  0
  3  4  1  0
  4  5  1  0
  5  6  1  0
  6  7  1  0
  7  8  1  0
  8  9  1  0
  9 10  1  0
 10 11  1  0
 11 12  1  0
  2 13  1  0
 13 14  2  0
 14 15  1  0
 15 16  2  0
 16 17  1  0
 17 18  1  0
 18 19  1  0
 19 20  1  0
 20 21  1  0
 21 22  2  0
 21 23  2  0
 16 24  1  0
 24 25  2  0
 25 26  1  0
  9  5  1  0
 12 10  1  0
 25 13  1  0
 21 17  1  0
  3 27  1  0
  4 28  1  0
  4 29  1  0
  5 30  1  6
  6 31  1  0
  7 32  1  0
  7 33  1  0
  8 34  1  0
  8 35  1  0
  9 36  1  6
 10 37  1  0
 11 38  1  0
 11 39  1  0
 12 40  1  0
 12 41  1  0
 14 42  1  0
 15 43  1  0
 18 44  1  0
 18 45  1  0
 19 46  1  0
 19 47  1  0
 20 48  1  0
 20 49  1  0
 24 50  1  0
M  END
>  <meeko>  (4) 
{"is_sidechain": [false], "free_energy": -7.713, "intermolecular_energy": -10.227, "internal_energy": -0.661}

$$$$
ligand_56_conformer_5_docked
     RDKit          3D

 50 53  0  0  0  0  0  0  0  0999 V2000
    6.6650   41.1860   49.8390 O   0  0  0  0  0  0  0  0  0  0  0  0
    6.1380   42.0120   49.0440 C   0  0  0  0  0  0  0  0  0  0  0  0
    6.3010   43.4210   49.2730 N   0  0  0  0  0  0  0  0  0  0  0  0
    7.0540   43.9460   50.4110 C   0  0  0  0  0  0  0  0  0  0  0  0
    6.6700   45.4150   50.6890 C   0  0  1  0  0  0  0  0  0  0  0  0
    5.2110   45.6010   50.7420 N   0  0  0  0  0  0  0  0  0  0  0  0
    4.9570   46.5150   51.8510 C   0  0  0  0  0  0  0  0  0  0  0  0
    6.0640   46.3050   52.8620 C   0  0  0  0  0  0  0  0  0  0  0  0
    7.2700   45.9160   52.0230 C   0  0  2  0  0  0  0  0  0  0  0  0
    8.1810   47.1400   51.7910 C   0  0  0  0  0  0  0  0  0  0  0  0
    8.8840   47.6860   53.0250 C   0  0  0  0  0  0  0  0  0  0  0  0
    9.6680   46.8840   51.9970 C   0  0  0  0  0  0  0  0  0  0  0  0
    5.3300   41.5190   47.9010 C   0  0  0  0  0  0  0  0  0  0  0  0
    5.7610   41.7810   46.5900 C   0  0  0  0  0  0  0  0  0  0  0  0
    5.0150   41.3500   45.4920 C   0  0  0  0  0  0  0  0  0  0  0  0
    3.8090   40.6520   45.6720 C   0  0  0  0  0  0  0  0  0  0  0  0
    3.0340   40.2080   44.5340 N   0  0  0  0  0  0  0  0  0  0  0  0
    3.5260   39.2880   43.5090 C   0  0  0  0  0  0  0  0  0  0  0  0
    2.4740   39.1880   42.3820 C   0  0  0  0  0  0  0  0  0  0  0  0
    1.0770   39.4550   42.9510 C   0  0  0  0  0  0  0  0  0  0  0  0
    1.3570   40.5180   44.3270 S   0  0  0  0  0  0  0  0  0  0  0  0
    0.5600   40.0900   45.5300 O   0  0  0  0  0  0  0  0  0  0  0  0
    1.1010   41.9580   43.9770 O   0  0  0  0  0  0  0  0  0  0  0  0
    3.3770   40.3870   46.9840 C   0  0  0  0  0  0  0  0  0  0  0  0
    4.1230   40.8120   48.0910 C   0  0  0  0  0  0  0  0  0  0  0  0
    3.5330   40.3770   49.6910 Cl  0  0  0  0  0  0  0  0  0  0  0  0
    5.8860   44.1080   48.6030 H   0  0  0  0  0  0  0  0  0  0  0  0
    6.8315   43.3400   51.3016 H   0  0  0  0  0  0  0  0  0  0  0  0
    8.1276   43.8997   50.1761 H   0  0  0  0  0  0  0  0  0  0  0  0
    7.0825   45.9983   49.8526 H   0  0  0  0  0  0  0  0  0  0  0  0
    4.7390   44.6940   50.9780 H   0  0  0  0  0  0  0  0  0  0  0  0
    4.9654   47.5549   51.4926 H   0  0  0  0  0  0  0  0  0  0  0  0
    3.9726   46.3205   52.3016 H   0  0  0  0  0  0  0  0  0  0  0  0
    6.2612   47.2311   53.4219 H   0  0  0  0  0  0  0  0  0  0  0  0
    5.8094   45.5411   53.6114 H   0  0  0  0  0  0  0  0  0  0  0  0
    7.8936   45.1514   52.5092 H   0  0  0  0  0  0  0  0  0  0  0  0
    7.5637   47.5783   50.9930 H   0  0  0  0  0  0  0  0  0  0  0  0
    9.0563   48.7677   53.1262 H   0  0  0  0  0  0  0  0  0  0  0  0
    8.7207   47.6102   54.1102 H   0  0  0  0  0  0  0  0  0  0  0  0
   10.4067   47.3858   51.3548 H   0  0  0  0  0  0  0  0  0  0  0  0
   10.3059   45.9885   52.0308 H   0  0  0  0  0  0  0  0  0  0  0  0
    6.6984   42.3329   46.4267 H   0  0  0  0  0  0  0  0  0  0  0  0
    5.3754   41.5592   44.4740 H   0  0  0  0  0  0  0  0  0  0  0  0
    4.4736   39.6658   43.0975 H   0  0  0  0  0  0  0  0  0  0  0  0
    3.6966   38.2947   43.9497 H   0  0  0  0  0  0  0  0  0  0  0  0
    2.7000   39.9325   41.6044 H   0  0  0  0  0  0  0  0  0  0  0  0
    2.5022   38.1779   41.9474 H   0  0  0  0  0  0  0  0  0  0  0  0
    0.4399   39.9481   42.2021 H   0  0  0  0  0  0  0  0  0  0  0  0
    0.5578   38.5284   43.2371 H   0  0  0  0  0  0  0  0  0  0  0  0
    2.4379   39.8369   47.1435 H   0  0  0  0  0  0  0  0  0  0  0  0
  1  2  2  0
  2  3  1  0
  3  4  1  0
  4  5  1  0
  5  6  1  0
  6  7  1  0
  7  8  1  0
  8  9  1  0
  9 10  1  0
 10 11  1  0
 11 12  1  0
  2 13  1  0
 13 14  2  0
 14 15  1  0
 15 16  2  0
 16 17  1  0
 17 18  1  0
 18 19  1  0
 19 20  1  0
 20 21  1  0
 21 22  2  0
 21 23  2  0
 16 24  1  0
 24 25  2  0
 25 26  1  0
  9  5  1  0
 12 10  1  0
 25 13  1  0
 21 17  1  0
  3 27  1  0
  4 28  1  0
  4 29  1  0
  5 30  1  6
  6 31  1  0
  7 32  1  0
  7 33  1  0
  8 34  1  0
  8 35  1  0
  9 36  1  1
 10 37  1  0
 11 38  1  0
 11 39  1  0
 12 40  1  0
 12 41  1  0
 14 42  1  0
 15 43  1  0
 18 44  1  0
 18 45  1  0
 19 46  1  0
 19 47  1  0
 20 48  1  0
 20 49  1  0
 24 50  1  0
M  END
>  <meeko>  (5) 
{"is_sidechain": [false], "free_energy": -7.687, "intermolecular_energy": -10.379, "internal_energy": -0.476}

$$$$
