ligand_97_conformer_4_docked
     RDKit          3D

 36 39  0  0  0  0  0  0  0  0999 V2000
    8.7630   44.0950   49.0360 O   0  0  0  0  0  0  0  0  0  0  0  0
    8.8870   44.7670   50.0960 C   0  0  0  0  0  0  0  0  0  0  0  0
   10.1600   44.9300   50.6500 C   0  0  0  0  0  0  0  0  0  0  0  0
   10.3160   45.6820   51.8120 C   0  0  0  0  0  0  0  0  0  0  0  0
    9.1990   46.2550   52.4280 C   0  0  0  0  0  0  0  0  0  0  0  0
    9.3430   47.0830   53.6410 C   0  0  0  0  0  0  0  0  0  0  0  0
    8.4210   47.9610   54.0800 N   0  0  0  0  0  0  0  0  0  0  0  0
    8.9130   48.4890   55.1910 N   0  0  0  0  0  0  0  0  0  0  0  0
   10.1130   47.9150   55.3900 C   0  0  0  0  0  0  0  0  0  0  0  0
   10.3830   47.0520   54.4410 O   0  0  0  0  0  0  0  0  0  0  0  0
    7.9350   46.0480   51.8590 C   0  0  0  0  0  0  0  0  0  0  0  0
    7.7910   45.3360   50.6970 N   0  0  0  0  0  0  0  0  0  0  0  0
    6.4580   45.2270   50.0810 C   0  0  0  0  0  0  0  0  0  0  0  0
    5.7090   44.0520   50.6530 C   0  0  0  0  0  0  0  0  0  0  0  0
    5.5960   42.8720   50.0130 N   0  0  0  0  0  0  0  0  0  0  0  0
    4.7440   42.1900   50.8100 C   0  0  0  0  0  0  0  0  0  0  0  0
    4.3400   42.9130   51.8730 N   0  0  0  0  0  0  0  0  0  0  0  0
    4.9570   44.0750   51.7720 N   0  0  0  0  0  0  0  0  0  0  0  0
    4.7680   45.1580   52.6900 C   0  0  0  0  0  0  0  0  0  0  0  0
    5.2830   45.0850   53.9940 C   0  0  0  0  0  0  0  0  0  0  0  0
    5.1250   46.1610   54.8730 C   0  0  0  0  0  0  0  0  0  0  0  0
    4.4470   47.3110   54.4560 C   0  0  0  0  0  0  0  0  0  0  0  0
    3.9160   47.3800   53.1650 C   0  0  0  0  0  0  0  0  0  0  0  0
    4.0680   46.3040   52.2860 C   0  0  0  0  0  0  0  0  0  0  0  0
   11.0347   44.4664   50.1704 H   0  0  0  0  0  0  0  0  0  0  0  0
   11.3171   45.8250   52.2448 H   0  0  0  0  0  0  0  0  0  0  0  0
   10.7789   48.1398   56.2362 H   0  0  0  0  0  0  0  0  0  0  0  0
    7.0444   46.4637   52.3530 H   0  0  0  0  0  0  0  0  0  0  0  0
    5.8912   46.1488   50.2783 H   0  0  0  0  0  0  0  0  0  0  0  0
    6.5769   45.0807   48.9973 H   0  0  0  0  0  0  0  0  0  0  0  0
    4.4164   41.1586   50.6128 H   0  0  0  0  0  0  0  0  0  0  0  0
    5.8121   44.1792   54.3251 H   0  0  0  0  0  0  0  0  0  0  0  0
    5.5340   46.1029   55.8925 H   0  0  0  0  0  0  0  0  0  0  0  0
    4.3316   48.1613   55.1442 H   0  0  0  0  0  0  0  0  0  0  0  0
    3.3776   48.2826   52.8402 H   0  0  0  0  0  0  0  0  0  0  0  0
    3.6376   46.3562   51.2751 H   0  0  0  0  0  0  0  0  0  0  0  0
  1  2  2  0
  2  3  1  0
  3  4  2  0
  4  5  1  0
  5  6  1  0
  6  7  2  0
  7  8  1  0
  8  9  2  0
  9 10  1  0
  5 11  2  0
 11 12  1  0
 12 13  1  0
 13 14  1  0
 14 15  2  0
 15 16  1  0
 16 17  2  0
 17 18  1  0
 18 19  1  0
 19 20  2  0
 20 21  1  0
 21 22  2  0
 22 23  1  0
 23 24  2  0
 12  2  1  0
 18 14  1  0
 24 19  1  0
 10  6  1  0
  3 25  1  0
  4 26  1  0
  9 27  1  0
 11 28  1  0
 13 29  1  0
 13 30  1  0
 16 31  1  0
 20 32  1  0
 21 33  1  0
 22 34  1  0
 23 35  1  0
 24 36  1  0
M  END
>  <meeko>  (1) 
{"is_sidechain": [false], "free_energy": -9.027, "intermolecular_energy": -11.138, "internal_energy": -0.805}

$$$$
ligand_97_conformer_4_docked
     RDKit          3D

 36 39  0  0  0  0  0  0  0  0999 V2000
    6.6160   43.9740   50.3300 O   0  0  0  0  0  0  0  0  0  0  0  0
    5.4520   43.7170   50.7420 C   0  0  0  0  0  0  0  0  0  0  0  0
    5.0110   42.3900   50.7420 C   0  0  0  0  0  0  0  0  0  0  0  0
    3.7340   42.0870   51.2090 C   0  0  0  0  0  0  0  0  0  0  0  0
    2.8940   43.1110   51.6570 C   0  0  0  0  0  0  0  0  0  0  0  0
    1.5490   42.8120   52.1870 C   0  0  0  0  0  0  0  0  0  0  0  0
    1.2860   42.4840   53.4670 N   0  0  0  0  0  0  0  0  0  0  0  0
   -0.0230   42.3060   53.5420 N   0  0  0  0  0  0  0  0  0  0  0  0
   -0.5130   42.5310   52.3090 C   0  0  0  0  0  0  0  0  0  0  0  0
    0.4470   42.8410   51.4730 O   0  0  0  0  0  0  0  0  0  0  0  0
    3.3600   44.4330   51.6180 C   0  0  0  0  0  0  0  0  0  0  0  0
    4.6290   44.7210   51.1910 N   0  0  0  0  0  0  0  0  0  0  0  0
    5.1110   46.1110   51.2570 C   0  0  0  0  0  0  0  0  0  0  0  0
    5.0430   46.6250   52.6710 C   0  0  0  0  0  0  0  0  0  0  0  0
    3.8830   46.9240   53.2870 N   0  0  0  0  0  0  0  0  0  0  0  0
    4.3040   47.4690   54.4500 C   0  0  0  0  0  0  0  0  0  0  0  0
    5.6470   47.5190   54.5410 N   0  0  0  0  0  0  0  0  0  0  0  0
    6.1020   46.9780   53.4260 N   0  0  0  0  0  0  0  0  0  0  0  0
    7.4940   46.8750   53.1030 C   0  0  0  0  0  0  0  0  0  0  0  0
    7.9120   46.8360   51.7640 C   0  0  0  0  0  0  0  0  0  0  0  0
    9.2750   46.7710   51.4560 C   0  0  0  0  0  0  0  0  0  0  0  0
   10.2240   46.7380   52.4820 C   0  0  0  0  0  0  0  0  0  0  0  0
    9.8100   46.7570   53.8170 C   0  0  0  0  0  0  0  0  0  0  0  0
    8.4490   46.8180   54.1280 C   0  0  0  0  0  0  0  0  0  0  0  0
    5.6695   41.5890   50.3749 H   0  0  0  0  0  0  0  0  0  0  0  0
    3.3869   41.0433   51.2253 H   0  0  0  0  0  0  0  0  0  0  0  0
   -1.5772   42.4636   52.0391 H   0  0  0  0  0  0  0  0  0  0  0  0
    2.6964   45.2509   51.9351 H   0  0  0  0  0  0  0  0  0  0  0  0
    6.1532   46.1500   50.9071 H   0  0  0  0  0  0  0  0  0  0  0  0
    4.4734   46.7399   50.6183 H   0  0  0  0  0  0  0  0  0  0  0  0
    3.6248   47.8317   55.2356 H   0  0  0  0  0  0  0  0  0  0  0  0
    7.1667   46.8566   50.9553 H   0  0  0  0  0  0  0  0  0  0  0  0
    9.6004   46.7458   50.4055 H   0  0  0  0  0  0  0  0  0  0  0  0
   11.2960   46.6971   52.2389 H   0  0  0  0  0  0  0  0  0  0  0  0
   10.5567   46.7239   54.6240 H   0  0  0  0  0  0  0  0  0  0  0  0
    8.1261   46.8213   55.1795 H   0  0  0  0  0  0  0  0  0  0  0  0
  1  2  2  0
  2  3  1  0
  3  4  2  0
  4  5  1  0
  5  6  1  0
  6  7  2  0
  7  8  1  0
  8  9  2  0
  9 10  1  0
  5 11  2  0
 11 12  1  0
 12 13  1  0
 13 14  1  0
 14 15  2  0
 15 16  1  0
 16 17  2  0
 17 18  1  0
 18 19  1  0
 19 20  2  0
 20 21  1  0
 21 22  2  0
 22 23  1  0
 23 24  2  0
 12  2  1  0
 18 14  1  0
 24 19  1  0
 10  6  1  0
  3 25  1  0
  4 26  1  0
  9 27  1  0
 11 28  1  0
 13 29  1  0
 13 30  1  0
 16 31  1  0
 20 32  1  0
 21 33  1  0
 22 34  1  0
 23 35  1  0
 24 36  1  0
M  END
>  <meeko>  (2) 
{"is_sidechain": [false], "free_energy": -8.586, "intermolecular_energy": -11.568, "internal_energy": 0.17}

$$$$
ligand_97_conformer_4_docked
     RDKit          3D

 36 39  0  0  0  0  0  0  0  0999 V2000
    2.4970   46.3970   52.8190 O   0  0  0  0  0  0  0  0  0  0  0  0
    3.7240   46.5530   53.0670 C   0  0  0  0  0  0  0  0  0  0  0  0
    4.1040   47.0750   54.3070 C   0  0  0  0  0  0  0  0  0  0  0  0
    5.4550   47.2380   54.6020 C   0  0  0  0  0  0  0  0  0  0  0  0
    6.4240   46.8970   53.6520 C   0  0  0  0  0  0  0  0  0  0  0  0
    7.8620   47.0310   53.9540 C   0  0  0  0  0  0  0  0  0  0  0  0
    8.3660   47.7510   54.9740 N   0  0  0  0  0  0  0  0  0  0  0  0
    9.6810   47.6100   54.9130 N   0  0  0  0  0  0  0  0  0  0  0  0
    9.9330   46.8110   53.8600 C   0  0  0  0  0  0  0  0  0  0  0  0
    8.8210   46.4530   53.2680 O   0  0  0  0  0  0  0  0  0  0  0  0
    6.0050   46.4010   52.4100 C   0  0  0  0  0  0  0  0  0  0  0  0
    4.6760   46.2100   52.1380 N   0  0  0  0  0  0  0  0  0  0  0  0
    4.2860   45.5950   50.8570 C   0  0  0  0  0  0  0  0  0  0  0  0
    4.7460   44.1630   50.7980 C   0  0  0  0  0  0  0  0  0  0  0  0
    5.9320   43.7950   50.2750 N   0  0  0  0  0  0  0  0  0  0  0  0
    5.8550   42.4460   50.3020 C   0  0  0  0  0  0  0  0  0  0  0  0
    4.6830   42.0050   50.7970 N   0  0  0  0  0  0  0  0  0  0  0  0
    3.9980   43.0880   51.1150 N   0  0  0  0  0  0  0  0  0  0  0  0
    2.6650   43.0600   51.6410 C   0  0  0  0  0  0  0  0  0  0  0  0
    1.5590   43.0950   50.7770 C   0  0  0  0  0  0  0  0  0  0  0  0
    0.2620   43.0330   51.2960 C   0  0  0  0  0  0  0  0  0  0  0  0
    0.0630   42.9410   52.6770 C   0  0  0  0  0  0  0  0  0  0  0  0
    1.1620   42.9260   53.5410 C   0  0  0  0  0  0  0  0  0  0  0  0
    2.4600   42.9930   53.0260 C   0  0  0  0  0  0  0  0  0  0  0  0
    3.3392   47.3557   55.0462 H   0  0  0  0  0  0  0  0  0  0  0  0
    5.7604   47.6347   55.5815 H   0  0  0  0  0  0  0  0  0  0  0  0
   10.9383   46.5002   53.5394 H   0  0  0  0  0  0  0  0  0  0  0  0
    6.7549   46.1614   51.6417 H   0  0  0  0  0  0  0  0  0  0  0  0
    3.1909   45.6278   50.7583 H   0  0  0  0  0  0  0  0  0  0  0  0
    4.7578   46.1543   50.0356 H   0  0  0  0  0  0  0  0  0  0  0  0
    6.6610   41.7814   49.9575 H   0  0  0  0  0  0  0  0  0  0  0  0
    1.7129   43.1713   49.6905 H   0  0  0  0  0  0  0  0  0  0  0  0
   -0.6030   43.0566   50.6169 H   0  0  0  0  0  0  0  0  0  0  0  0
   -0.9574   42.8805   53.0833 H   0  0  0  0  0  0  0  0  0  0  0  0
    1.0052   42.8614   54.6278 H   0  0  0  0  0  0  0  0  0  0  0  0
    3.3222   42.9931   53.7091 H   0  0  0  0  0  0  0  0  0  0  0  0
  1  2  2  0
  2  3  1  0
  3  4  2  0
  4  5  1  0
  5  6  1  0
  6  7  2  0
  7  8  1  0
  8  9  2  0
  9 10  1  0
  5 11  2  0
 11 12  1  0
 12 13  1  0
 13 14  1  0
 14 15  2  0
 15 16  1  0
 16 17  2  0
 17 18  1  0
 18 19  1  0
 19 20  2  0
 20 21  1  0
 21 22  2  0
 22 23  1  0
 23 24  2  0
 12  2  1  0
 18 14  1  0
 24 19  1  0
 10  6  1  0
  3 25  1  0
  4 26  1  0
  9 27  1  0
 11 28  1  0
 13 29  1  0
 13 30  1  0
 16 31  1  0
 20 32  1  0
 21 33  1  0
 22 34  1  0
 23 35  1  0
 24 36  1  0
M  END
>  <meeko>  (3) 
{"is_sidechain": [false], "free_energy": -8.357, "intermolecular_energy": -10.195, "internal_energy": -0.922}

$$$$
ligand_97_conformer_4_docked
     RDKit          3D

 36 39  0  0  0  0  0  0  0  0999 V2000
    2.2730   46.8130   53.1900 O   0  0  0  0  0  0  0  0  0  0  0  0
    3.5220   46.8820   53.3520 C   0  0  0  0  0  0  0  0  0  0  0  0
    4.0220   47.4160   54.5440 C   0  0  0  0  0  0  0  0  0  0  0  0
    5.3980   47.4850   54.7460 C   0  0  0  0  0  0  0  0  0  0  0  0
    6.2730   47.0380   53.7510 C   0  0  0  0  0  0  0  0  0  0  0  0
    7.7340   47.0700   53.9540 C   0  0  0  0  0  0  0  0  0  0  0  0
    8.3440   47.5960   55.0340 N   0  0  0  0  0  0  0  0  0  0  0  0
    9.6430   47.4210   54.8470 N   0  0  0  0  0  0  0  0  0  0  0  0
    9.7800   46.7970   53.6620 C   0  0  0  0  0  0  0  0  0  0  0  0
    8.6120   46.5800   53.1100 O   0  0  0  0  0  0  0  0  0  0  0  0
    5.7360   46.5330   52.5580 C   0  0  0  0  0  0  0  0  0  0  0  0
    4.3820   46.4350   52.3790 N   0  0  0  0  0  0  0  0  0  0  0  0
    3.8620   45.8090   51.1510 C   0  0  0  0  0  0  0  0  0  0  0  0
    3.7080   44.3230   51.3420 C   0  0  0  0  0  0  0  0  0  0  0  0
    2.6890   43.7740   52.0310 N   0  0  0  0  0  0  0  0  0  0  0  0
    3.0320   42.4670   52.0640 C   0  0  0  0  0  0  0  0  0  0  0  0
    4.2030   42.2240   51.4460 N   0  0  0  0  0  0  0  0  0  0  0  0
    4.6160   43.3910   50.9880 N   0  0  0  0  0  0  0  0  0  0  0  0
    5.8570   43.5810   50.2980 C   0  0  0  0  0  0  0  0  0  0  0  0
    6.2160   42.7380   49.2340 C   0  0  0  0  0  0  0  0  0  0  0  0
    7.4130   42.9520   48.5430 C   0  0  0  0  0  0  0  0  0  0  0  0
    8.2580   44.0030   48.9130 C   0  0  0  0  0  0  0  0  0  0  0  0
    7.9130   44.8320   49.9840 C   0  0  0  0  0  0  0  0  0  0  0  0
    6.7190   44.6180   50.6810 C   0  0  0  0  0  0  0  0  0  0  0  0
    3.3311   47.7800   55.3187 H   0  0  0  0  0  0  0  0  0  0  0  0
    5.7964   47.8908   55.6876 H   0  0  0  0  0  0  0  0  0  0  0  0
   10.7436   46.5081   53.2169 H   0  0  0  0  0  0  0  0  0  0  0  0
    6.4132   46.2105   51.7533 H   0  0  0  0  0  0  0  0  0  0  0  0
    2.8823   46.2464   50.9084 H   0  0  0  0  0  0  0  0  0  0  0  0
    4.5717   45.9909   50.3305 H   0  0  0  0  0  0  0  0  0  0  0  0
    2.4214   41.6876   52.5432 H   0  0  0  0  0  0  0  0  0  0  0  0
    5.5549   41.9082   48.9436 H   0  0  0  0  0  0  0  0  0  0  0  0
    7.6901   42.2926   47.7073 H   0  0  0  0  0  0  0  0  0  0  0  0
    9.1937   44.1771   48.3614 H   0  0  0  0  0  0  0  0  0  0  0  0
    8.5814   45.6542   50.2794 H   0  0  0  0  0  0  0  0  0  0  0  0
    6.4561   45.2647   51.5311 H   0  0  0  0  0  0  0  0  0  0  0  0
  1  2  2  0
  2  3  1  0
  3  4  2  0
  4  5  1  0
  5  6  1  0
  6  7  2  0
  7  8  1  0
  8  9  2  0
  9 10  1  0
  5 11  2  0
 11 12  1  0
 12 13  1  0
 13 14  1  0
 14 15  2  0
 15 16  1  0
 16 17  2  0
 17 18  1  0
 18 19  1  0
 19 20  2  0
 20 21  1  0
 21 22  2  0
 22 23  1  0
 23 24  2  0
 12  2  1  0
 18 14  1  0
 24 19  1  0
 10  6  1  0
  3 25  1  0
  4 26  1  0
  9 27  1  0
 11 28  1  0
 13 29  1  0
 13 30  1  0
 16 31  1  0
 20 32  1  0
 21 33  1  0
 22 34  1  0
 23 35  1  0
 24 36  1  0
M  END
>  <meeko>  (4) 
{"is_sidechain": [false], "free_energy": -8.044, "intermolecular_energy": -10.888, "internal_energy": 0.159}

$$$$
ligand_97_conformer_4_docked
     RDKit          3D

 36 39  0  0  0  0  0  0  0  0999 V2000
    4.5590   41.4220   49.9200 O   0  0  0  0  0  0  0  0  0  0  0  0
    5.2060   42.4470   50.2690 C   0  0  0  0  0  0  0  0  0  0  0  0
    6.2220   42.9240   49.4350 C   0  0  0  0  0  0  0  0  0  0  0  0
    6.9350   44.0640   49.7980 C   0  0  0  0  0  0  0  0  0  0  0  0
    6.6440   44.7150   51.0010 C   0  0  0  0  0  0  0  0  0  0  0  0
    7.3630   45.9440   51.3910 C   0  0  0  0  0  0  0  0  0  0  0  0
    8.6820   46.1490   51.2080 N   0  0  0  0  0  0  0  0  0  0  0  0
    8.9360   47.3610   51.6750 N   0  0  0  0  0  0  0  0  0  0  0  0
    7.7670   47.8530   52.1250 C   0  0  0  0  0  0  0  0  0  0  0  0
    6.7980   46.9870   51.9540 O   0  0  0  0  0  0  0  0  0  0  0  0
    5.6360   44.1940   51.8240 C   0  0  0  0  0  0  0  0  0  0  0  0
    4.9150   43.0920   51.4460 N   0  0  0  0  0  0  0  0  0  0  0  0
    3.8010   42.6370   52.2940 C   0  0  0  0  0  0  0  0  0  0  0  0
    2.5190   43.3130   51.8890 C   0  0  0  0  0  0  0  0  0  0  0  0
    1.6350   42.7600   51.0360 N   0  0  0  0  0  0  0  0  0  0  0  0
    0.7390   43.7560   50.8580 C   0  0  0  0  0  0  0  0  0  0  0  0
    1.0590   44.8670   51.5480 N   0  0  0  0  0  0  0  0  0  0  0  0
    2.1700   44.5780   52.1990 N   0  0  0  0  0  0  0  0  0  0  0  0
    2.8740   45.5130   53.0260 C   0  0  0  0  0  0  0  0  0  0  0  0
    3.2080   45.1820   54.3480 C   0  0  0  0  0  0  0  0  0  0  0  0
    3.9260   46.0860   55.1370 C   0  0  0  0  0  0  0  0  0  0  0  0
    4.3090   47.3250   54.6120 C   0  0  0  0  0  0  0  0  0  0  0  0
    3.9610   47.6650   53.3020 C   0  0  0  0  0  0  0  0  0  0  0  0
    3.2380   46.7660   52.5120 C   0  0  0  0  0  0  0  0  0  0  0  0
    6.4571   42.4011   48.4962 H   0  0  0  0  0  0  0  0  0  0  0  0
    7.7260   44.4518   49.1393 H   0  0  0  0  0  0  0  0  0  0  0  0
    7.6415   48.8485   52.5759 H   0  0  0  0  0  0  0  0  0  0  0  0
    5.4205   44.6774   52.7883 H   0  0  0  0  0  0  0  0  0  0  0  0
    3.6856   41.5484   52.1865 H   0  0  0  0  0  0  0  0  0  0  0  0
    4.0230   42.8938   53.3403 H   0  0  0  0  0  0  0  0  0  0  0  0
   -0.1529   43.6687   50.2201 H   0  0  0  0  0  0  0  0  0  0  0  0
    2.9046   44.2101   54.7643 H   0  0  0  0  0  0  0  0  0  0  0  0
    4.1901   45.8226   56.1719 H   0  0  0  0  0  0  0  0  0  0  0  0
    4.8835   48.0308   55.2298 H   0  0  0  0  0  0  0  0  0  0  0  0
    4.2564   48.6418   52.8915 H   0  0  0  0  0  0  0  0  0  0  0  0
    2.9543   47.0420   51.4857 H   0  0  0  0  0  0  0  0  0  0  0  0
  1  2  2  0
  2  3  1  0
  3  4  2  0
  4  5  1  0
  5  6  1  0
  6  7  2  0
  7  8  1  0
  8  9  2  0
  9 10  1  0
  5 11  2  0
 11 12  1  0
 12 13  1  0
 13 14  1  0
 14 15  2  0
 15 16  1  0
 16 17  2  0
 17 18  1  0
 18 19  1  0
 19 20  2  0
 20 21  1  0
 21 22  2  0
 22 23  1  0
 23 24  2  0
 12  2  1  0
 18 14  1  0
 24 19  1  0
 10  6  1  0
  3 25  1  0
  4 26  1  0
  9 27  1  0
 11 28  1  0
 13 29  1  0
 13 30  1  0
 16 31  1  0
 20 32  1  0
 21 33  1  0
 22 34  1  0
 23 35  1  0
 24 36  1  0
M  END
>  <meeko>  (5) 
{"is_sidechain": [false], "free_energy": -7.882, "intermolecular_energy": -9.929, "internal_energy": -0.601}

$$$$
