ligand_9_conformer_4_docked
     RDKit          3D

 53 56  0  0  0  0  0  0  0  0999 V2000
   10.2680   47.1440   53.6430 C   0  0  0  0  0  0  0  0  0  0  0  0
    9.3000   47.5260   54.5750 C   0  0  0  0  0  0  0  0  0  0  0  0
    7.9420   47.3580   54.2890 C   0  0  0  0  0  0  0  0  0  0  0  0
    7.5420   46.7940   53.0680 C   0  0  0  0  0  0  0  0  0  0  0  0
    6.1070   46.6390   52.7460 C   0  0  0  0  0  0  0  0  0  0  0  0
    5.6190   46.5100   51.4940 N   0  0  0  0  0  0  0  0  0  0  0  0
    4.3390   46.3550   51.6470 O   0  0  0  0  0  0  0  0  0  0  0  0
    4.0400   46.3860   52.9250 C   0  0  0  0  0  0  0  0  0  0  0  0
    2.6500   46.1850   53.4740 C   0  0  0  0  0  0  0  0  0  0  0  0
    1.6540   45.9280   52.3300 C   0  0  0  0  0  0  0  0  0  0  0  0
    1.8580   44.5350   51.7070 C   0  0  0  0  0  0  0  0  0  0  0  0
    2.0200   43.4430   52.7090 N   0  0  0  0  0  0  0  0  0  0  0  0
    3.2580   42.6420   52.5580 C   0  0  0  0  0  0  0  0  0  0  0  0
    3.9040   42.9020   51.1820 C   0  0  2  0  0  0  0  0  0  0  0  0
    3.7170   41.6610   50.2740 C   0  0  0  0  0  0  0  0  0  0  0  0
    5.0090   41.0140   49.7210 C   0  0  0  0  0  0  0  0  0  0  0  0
    5.7780   41.8580   48.6880 C   0  0  0  0  0  0  0  0  0  0  0  0
    6.7060   42.9690   49.2820 C   0  0  0  0  0  0  0  0  0  0  0  0
    6.0190   43.9170   50.1780 N   0  0  0  0  0  0  0  0  0  0  0  0
    5.3920   43.3020   51.3610 C   0  0  0  0  0  0  0  0  0  0  0  0
    1.7590   43.8420   54.1100 C   0  0  0  0  0  0  0  0  0  0  0  0
    2.6000   45.0600   54.5430 C   0  0  0  0  0  0  0  0  0  0  0  0
    5.1400   46.5620   53.6830 N   0  0  0  0  0  0  0  0  0  0  0  0
    8.5250   46.3990   52.1400 C   0  0  0  0  0  0  0  0  0  0  0  0
    9.8820   46.5710   52.4300 C   0  0  0  0  0  0  0  0  0  0  0  0
   11.3348   47.2948   53.8650 H   0  0  0  0  0  0  0  0  0  0  0  0
    9.6075   47.9606   55.5376 H   0  0  0  0  0  0  0  0  0  0  0  0
    7.1845   47.6690   55.0235 H   0  0  0  0  0  0  0  0  0  0  0  0
    2.3539   47.1122   53.9865 H   0  0  0  0  0  0  0  0  0  0  0  0
    0.6299   45.9962   52.7256 H   0  0  0  0  0  0  0  0  0  0  0  0
    1.8230   46.6837   51.5488 H   0  0  0  0  0  0  0  0  0  0  0  0
    0.9833   44.3040   51.0813 H   0  0  0  0  0  0  0  0  0  0  0  0
    2.7921   44.5780   51.1277 H   0  0  0  0  0  0  0  0  0  0  0  0
    3.9685   42.9207   53.3501 H   0  0  0  0  0  0  0  0  0  0  0  0
    3.0034   41.5747   52.6359 H   0  0  0  0  0  0  0  0  0  0  0  0
    3.4064   43.7461   50.6822 H   0  0  0  0  0  0  0  0  0  0  0  0
    3.1828   40.8966   50.8574 H   0  0  0  0  0  0  0  0  0  0  0  0
    3.1702   42.0238   49.3912 H   0  0  0  0  0  0  0  0  0  0  0  0
    5.6817   40.8197   50.5694 H   0  0  0  0  0  0  0  0  0  0  0  0
    4.6908   40.1030   49.1929 H   0  0  0  0  0  0  0  0  0  0  0  0
    6.4034   41.1770   48.0921 H   0  0  0  0  0  0  0  0  0  0  0  0
    5.0129   42.3863   48.1001 H   0  0  0  0  0  0  0  0  0  0  0  0
    7.5103   42.4788   49.8502 H   0  0  0  0  0  0  0  0  0  0  0  0
    7.0811   43.5554   48.4302 H   0  0  0  0  0  0  0  0  0  0  0  0
    6.6210   44.7310   50.4370 H   0  0  0  0  0  0  0  0  0  0  0  0
    5.9606   42.3955   51.6159 H   0  0  0  0  0  0  0  0  0  0  0  0
    5.4114   44.0669   52.1513 H   0  0  0  0  0  0  0  0  0  0  0  0
    0.6933   44.0947   54.2122 H   0  0  0  0  0  0  0  0  0  0  0  0
    2.0376   42.9964   54.7560 H   0  0  0  0  0  0  0  0  0  0  0  0
    2.1656   45.4739   55.4650 H   0  0  0  0  0  0  0  0  0  0  0  0
    3.6311   44.7068   54.6919 H   0  0  0  0  0  0  0  0  0  0  0  0
    8.2233   45.9524   51.1811 H   0  0  0  0  0  0  0  0  0  0  0  0
   10.6447   46.2551   51.7030 H   0  0  0  0  0  0  0  0  0  0  0  0
  1  2  2  0
  2  3  1  0
  3  4  2  0
  4  5  1  0
  5  6  2  0
  6  7  1  0
  7  8  1  0
  8  9  1  0
  9 10  1  0
 10 11  1  0
 11 12  1  0
 12 13  1  0
 13 14  1  0
 14 15  1  0
 15 16  1  0
 16 17  1  0
 17 18  1  0
 18 19  1  0
 19 20  1  0
 12 21  1  0
 21 22  1  0
  8 23  2  0
  4 24  1  0
 24 25  2  0
 25  1  1  0
 23  5  1  0
 22  9  1  0
 20 14  1  0
  1 26  1  0
  2 27  1  0
  3 28  1  0
  9 29  1  0
 10 30  1  0
 10 31  1  0
 11 32  1  0
 11 33  1  0
 13 34  1  0
 13 35  1  0
 14 36  1  6
 15 37  1  0
 15 38  1  0
 16 39  1  0
 16 40  1  0
 17 41  1  0
 17 42  1  0
 18 43  1  0
 18 44  1  0
 19 45  1  0
 20 46  1  0
 20 47  1  0
 21 48  1  0
 21 49  1  0
 22 50  1  0
 22 51  1  0
 24 52  1  0
 25 53  1  0
M  END
>  <meeko>  (1) 
{"is_sidechain": [false], "free_energy": -6.987, "intermolecular_energy": -11.072, "internal_energy": -0.54}

$$$$
ligand_9_conformer_4_docked
     RDKit          3D

 53 56  0  0  0  0  0  0  0  0999 V2000
   10.0740   46.4170   52.0650 C   0  0  0  0  0  0  0  0  0  0  0  0
    8.9850   46.0880   51.2550 C   0  0  0  0  0  0  0  0  0  0  0  0
    7.6800   46.2410   51.7330 C   0  0  0  0  0  0  0  0  0  0  0  0
    7.4560   46.7390   53.0260 C   0  0  0  0  0  0  0  0  0  0  0  0
    6.0810   46.8770   53.5500 C   0  0  0  0  0  0  0  0  0  0  0  0
    5.7600   47.5460   54.6770 N   0  0  0  0  0  0  0  0  0  0  0  0
    4.4660   47.4700   54.7570 O   0  0  0  0  0  0  0  0  0  0  0  0
    4.0000   46.7890   53.7370 C   0  0  0  0  0  0  0  0  0  0  0  0
    2.5340   46.5480   53.4790 C   0  0  0  0  0  0  0  0  0  0  0  0
    2.2700   46.4260   51.9680 C   0  0  0  0  0  0  0  0  0  0  0  0
    2.8210   45.1040   51.4040 C   0  0  0  0  0  0  0  0  0  0  0  0
    2.4990   43.9110   52.2370 N   0  0  0  0  0  0  0  0  0  0  0  0
    3.6750   43.1150   52.6610 C   0  0  0  0  0  0  0  0  0  0  0  0
    4.3230   42.4220   51.4450 C   0  0  2  0  0  0  0  0  0  0  0  0
    5.3240   43.3890   50.7660 C   0  0  0  0  0  0  0  0  0  0  0  0
    6.2080   42.7890   49.6460 C   0  0  0  0  0  0  0  0  0  0  0  0
    6.0350   41.2770   49.4110 C   0  0  0  0  0  0  0  0  0  0  0  0
    4.6690   40.8230   48.7790 C   0  0  0  0  0  0  0  0  0  0  0  0
    3.5630   40.6810   49.7420 N   0  0  0  0  0  0  0  0  0  0  0  0
    3.2230   41.9120   50.4770 C   0  0  0  0  0  0  0  0  0  0  0  0
    1.5450   44.1630   53.3400 C   0  0  0  0  0  0  0  0  0  0  0  0
    1.9960   45.3180   54.2580 C   0  0  0  0  0  0  0  0  0  0  0  0
    4.9930   46.3840   52.9210 N   0  0  0  0  0  0  0  0  0  0  0  0
    8.5600   47.0810   53.8300 C   0  0  0  0  0  0  0  0  0  0  0  0
    9.8630   46.9240   53.3480 C   0  0  0  0  0  0  0  0  0  0  0  0
   11.0990   46.2764   51.6914 H   0  0  0  0  0  0  0  0  0  0  0  0
    9.1545   45.7071   50.2371 H   0  0  0  0  0  0  0  0  0  0  0  0
    6.8265   45.9703   51.0940 H   0  0  0  0  0  0  0  0  0  0  0  0
    1.9785   47.4190   53.8570 H   0  0  0  0  0  0  0  0  0  0  0  0
    1.1852   46.4658   51.7903 H   0  0  0  0  0  0  0  0  0  0  0  0
    2.7808   47.2574   51.4602 H   0  0  0  0  0  0  0  0  0  0  0  0
    2.3954   44.9512   50.4012 H   0  0  0  0  0  0  0  0  0  0  0  0
    3.9170   45.1959   51.3883 H   0  0  0  0  0  0  0  0  0  0  0  0
    4.4119   43.7810   53.1337 H   0  0  0  0  0  0  0  0  0  0  0  0
    3.3462   42.3464   53.3759 H   0  0  0  0  0  0  0  0  0  0  0  0
    4.8946   41.5399   51.7694 H   0  0  0  0  0  0  0  0  0  0  0  0
    4.7460   44.2166   50.3290 H   0  0  0  0  0  0  0  0  0  0  0  0
    6.0229   43.6911   51.5599 H   0  0  0  0  0  0  0  0  0  0  0  0
    5.9665   43.3088   48.7071 H   0  0  0  0  0  0  0  0  0  0  0  0
    7.2492   42.9293   49.9718 H   0  0  0  0  0  0  0  0  0  0  0  0
    6.8412   40.9477   48.7390 H   0  0  0  0  0  0  0  0  0  0  0  0
    6.0625   40.8194   50.4109 H   0  0  0  0  0  0  0  0  0  0  0  0
    4.3746   41.5694   48.0265 H   0  0  0  0  0  0  0  0  0  0  0  0
    4.8405   39.8236   48.3527 H   0  0  0  0  0  0  0  0  0  0  0  0
    2.7170   40.2360   49.3190 H   0  0  0  0  0  0  0  0  0  0  0  0
    3.0218   42.7044   49.7411 H   0  0  0  0  0  0  0  0  0  0  0  0
    2.3524   41.6662   51.1027 H   0  0  0  0  0  0  0  0  0  0  0  0
    0.5657   44.4171   52.9084 H   0  0  0  0  0  0  0  0  0  0  0  0
    1.4924   43.2504   53.9519 H   0  0  0  0  0  0  0  0  0  0  0  0
    1.1359   45.6379   54.8646 H   0  0  0  0  0  0  0  0  0  0  0  0
    2.8220   44.9381   54.8772 H   0  0  0  0  0  0  0  0  0  0  0  0
    8.3963   47.4744   54.8441 H   0  0  0  0  0  0  0  0  0  0  0  0
   10.7207   47.1997   53.9792 H   0  0  0  0  0  0  0  0  0  0  0  0
  1  2  2  0
  2  3  1  0
  3  4  2  0
  4  5  1  0
  5  6  2  0
  6  7  1  0
  7  8  1  0
  8  9  1  0
  9 10  1  0
 10 11  1  0
 11 12  1  0
 12 13  1  0
 13 14  1  0
 14 15  1  0
 15 16  1  0
 16 17  1  0
 17 18  1  0
 18 19  1  0
 19 20  1  0
 12 21  1  0
 21 22  1  0
  8 23  2  0
  4 24  1  0
 24 25  2  0
 25  1  1  0
 23  5  1  0
 22  9  1  0
 20 14  1  0
  1 26  1  0
  2 27  1  0
  3 28  1  0
  9 29  1  0
 10 30  1  0
 10 31  1  0
 11 32  1  0
 11 33  1  0
 13 34  1  0
 13 35  1  0
 14 36  1  1
 15 37  1  0
 15 38  1  0
 16 39  1  0
 16 40  1  0
 17 41  1  0
 17 42  1  0
 18 43  1  0
 18 44  1  0
 19 45  1  0
 20 46  1  0
 20 47  1  0
 21 48  1  0
 21 49  1  0
 22 50  1  0
 22 51  1  0
 24 52  1  0
 25 53  1  0
M  END
>  <meeko>  (2) 
{"is_sidechain": [false], "free_energy": -6.932, "intermolecular_energy": -12.062, "internal_energy": 0.537}

$$$$
ligand_9_conformer_4_docked
     RDKit          3D

 53 56  0  0  0  0  0  0  0  0999 V2000
    5.7940   41.1800   48.8480 C   0  0  0  0  0  0  0  0  0  0  0  0
    4.4850   40.7620   49.1000 C   0  0  0  0  0  0  0  0  0  0  0  0
    3.7030   41.4270   50.0500 C   0  0  0  0  0  0  0  0  0  0  0  0
    4.2260   42.5260   50.7490 C   0  0  0  0  0  0  0  0  0  0  0  0
    3.4170   43.2180   51.7750 C   0  0  0  0  0  0  0  0  0  0  0  0
    2.5180   42.6050   52.5740 N   0  0  0  0  0  0  0  0  0  0  0  0
    2.0660   43.5420   53.3510 O   0  0  0  0  0  0  0  0  0  0  0  0
    2.6470   44.6800   53.0560 C   0  0  0  0  0  0  0  0  0  0  0  0
    2.4030   45.9720   53.7940 C   0  0  0  0  0  0  0  0  0  0  0  0
    2.7770   45.8200   55.2780 C   0  0  0  0  0  0  0  0  0  0  0  0
    4.3030   45.7330   55.4690 C   0  0  0  0  0  0  0  0  0  0  0  0
    5.0680   46.7460   54.6870 N   0  0  0  0  0  0  0  0  0  0  0  0
    6.1070   46.1820   53.7920 C   0  0  0  0  0  0  0  0  0  0  0  0
    7.0980   47.2810   53.3590 C   0  0  2  0  0  0  0  0  0  0  0  0
    7.3500   47.1860   51.8340 C   0  0  0  0  0  0  0  0  0  0  0  0
    8.1290   45.9410   51.3430 C   0  0  0  0  0  0  0  0  0  0  0  0
    9.6630   46.0680   51.3780 C   0  0  0  0  0  0  0  0  0  0  0  0
   10.2700   46.3920   52.7640 C   0  0  0  0  0  0  0  0  0  0  0  0
    9.6360   47.5210   53.4680 N   0  0  0  0  0  0  0  0  0  0  0  0
    8.4010   47.1790   54.1950 C   0  0  0  0  0  0  0  0  0  0  0  0
    4.2380   47.7790   54.0290 C   0  0  0  0  0  0  0  0  0  0  0  0
    3.1380   47.1710   53.1350 C   0  0  0  0  0  0  0  0  0  0  0  0
    3.5320   44.5330   52.0500 N   0  0  0  0  0  0  0  0  0  0  0  0
    5.5410   42.9490   50.4780 C   0  0  0  0  0  0  0  0  0  0  0  0
    6.3190   42.2790   49.5280 C   0  0  0  0  0  0  0  0  0  0  0  0
    6.4110   40.6422   48.1130 H   0  0  0  0  0  0  0  0  0  0  0  0
    4.0676   39.9063   48.5490 H   0  0  0  0  0  0  0  0  0  0  0  0
    2.6758   41.0879   50.2498 H   0  0  0  0  0  0  0  0  0  0  0  0
    1.3280   46.1969   53.7314 H   0  0  0  0  0  0  0  0  0  0  0  0
    2.3961   46.6896   55.8336 H   0  0  0  0  0  0  0  0  0  0  0  0
    2.3283   44.8886   55.6536 H   0  0  0  0  0  0  0  0  0  0  0  0
    4.5274   45.8775   56.5361 H   0  0  0  0  0  0  0  0  0  0  0  0
    4.6150   44.7440   55.1022 H   0  0  0  0  0  0  0  0  0  0  0  0
    6.6539   45.3905   54.3253 H   0  0  0  0  0  0  0  0  0  0  0  0
    5.6201   45.7679   52.8968 H   0  0  0  0  0  0  0  0  0  0  0  0
    6.6717   48.2760   53.5546 H   0  0  0  0  0  0  0  0  0  0  0  0
    6.3713   47.1883   51.3319 H   0  0  0  0  0  0  0  0  0  0  0  0
    7.9889   48.0471   51.5884 H   0  0  0  0  0  0  0  0  0  0  0  0
    7.8440   45.0895   51.9784 H   0  0  0  0  0  0  0  0  0  0  0  0
    7.8588   45.8113   50.2846 H   0  0  0  0  0  0  0  0  0  0  0  0
   10.0905   45.1144   51.0346 H   0  0  0  0  0  0  0  0  0  0  0  0
    9.9116   46.9220   50.7308 H   0  0  0  0  0  0  0  0  0  0  0  0
   10.1748   45.4973   53.3968 H   0  0  0  0  0  0  0  0  0  0  0  0
   11.3142   46.6869   52.5833 H   0  0  0  0  0  0  0  0  0  0  0  0
   10.3090   48.0460   54.0720 H   0  0  0  0  0  0  0  0  0  0  0  0
    8.4938   46.1445   54.5574 H   0  0  0  0  0  0  0  0  0  0  0  0
    8.3058   47.9184   55.0038 H   0  0  0  0  0  0  0  0  0  0  0  0
    3.7611   48.3956   54.8051 H   0  0  0  0  0  0  0  0  0  0  0  0
    4.8984   48.3787   53.3855 H   0  0  0  0  0  0  0  0  0  0  0  0
    2.3981   47.9536   52.9110 H   0  0  0  0  0  0  0  0  0  0  0  0
    3.6292   46.7923   52.2265 H   0  0  0  0  0  0  0  0  0  0  0  0
    5.9594   43.8119   51.0167 H   0  0  0  0  0  0  0  0  0  0  0  0
    7.3439   42.6185   49.3174 H   0  0  0  0  0  0  0  0  0  0  0  0
  1  2  2  0
  2  3  1  0
  3  4  2  0
  4  5  1  0
  5  6  2  0
  6  7  1  0
  7  8  1  0
  8  9  1  0
  9 10  1  0
 10 11  1  0
 11 12  1  0
 12 13  1  0
 13 14  1  0
 14 15  1  0
 15 16  1  0
 16 17  1  0
 17 18  1  0
 18 19  1  0
 19 20  1  0
 12 21  1  0
 21 22  1  0
  8 23  2  0
  4 24  1  0
 24 25  2  0
 25  1  1  0
 23  5  1  0
 22  9  1  0
 20 14  1  0
  1 26  1  0
  2 27  1  0
  3 28  1  0
  9 29  1  0
 10 30  1  0
 10 31  1  0
 11 32  1  0
 11 33  1  0
 13 34  1  0
 13 35  1  0
 14 36  1  6
 15 37  1  0
 15 38  1  0
 16 39  1  0
 16 40  1  0
 17 41  1  0
 17 42  1  0
 18 43  1  0
 18 44  1  0
 19 45  1  0
 20 46  1  0
 20 47  1  0
 21 48  1  0
 21 49  1  0
 22 50  1  0
 22 51  1  0
 24 52  1  0
 25 53  1  0
M  END
>  <meeko>  (3) 
{"is_sidechain": [false], "free_energy": -6.699, "intermolecular_energy": -10.589, "internal_energy": -0.566}

$$$$
ligand_9_conformer_4_docked
     RDKit          3D

 53 56  0  0  0  0  0  0  0  0999 V2000
    4.9620   41.3130   48.6260 C   0  0  0  0  0  0  0  0  0  0  0  0
    5.8300   41.9240   47.7190 C   0  0  0  0  0  0  0  0  0  0  0  0
    6.8210   42.8000   48.1740 C   0  0  0  0  0  0  0  0  0  0  0  0
    6.9570   43.0600   49.5470 C   0  0  0  0  0  0  0  0  0  0  0  0
    7.9840   44.0060   50.0340 C   0  0  0  0  0  0  0  0  0  0  0  0
    9.2880   43.9540   49.6920 N   0  0  0  0  0  0  0  0  0  0  0  0
    9.8320   44.9720   50.2880 O   0  0  0  0  0  0  0  0  0  0  0  0
    8.9200   45.6260   50.9670 C   0  0  0  0  0  0  0  0  0  0  0  0
    9.1860   46.8940   51.7390 C   0  0  0  0  0  0  0  0  0  0  0  0
    8.0100   47.8730   51.5810 C   0  0  0  0  0  0  0  0  0  0  0  0
    6.7680   47.3910   52.3530 C   0  0  0  0  0  0  0  0  0  0  0  0
    7.0630   46.9180   53.7350 N   0  0  0  0  0  0  0  0  0  0  0  0
    6.6020   45.5400   54.0300 C   0  0  0  0  0  0  0  0  0  0  0  0
    5.0710   45.4390   53.8750 C   0  0  2  0  0  0  0  0  0  0  0  0
    4.4060   45.4020   55.2730 C   0  0  0  0  0  0  0  0  0  0  0  0
    2.8700   45.5910   55.3080 C   0  0  0  0  0  0  0  0  0  0  0  0
    2.2040   45.8290   53.9410 C   0  0  0  0  0  0  0  0  0  0  0  0
    2.2640   44.6410   52.9310 C   0  0  0  0  0  0  0  0  0  0  0  0
    3.3480   43.6800   53.2050 N   0  0  0  0  0  0  0  0  0  0  0  0
    4.7070   44.2110   52.9990 C   0  0  0  0  0  0  0  0  0  0  0  0
    8.4440   47.1760   54.1990 C   0  0  0  0  0  0  0  0  0  0  0  0
    9.5060   46.6140   53.2320 C   0  0  0  0  0  0  0  0  0  0  0  0
    7.7070   45.0530   50.8380 N   0  0  0  0  0  0  0  0  0  0  0  0
    6.0860   42.4280   50.4540 C   0  0  0  0  0  0  0  0  0  0  0  0
    5.0960   41.5550   49.9940 C   0  0  0  0  0  0  0  0  0  0  0  0
    4.1716   40.6401   48.2620 H   0  0  0  0  0  0  0  0  0  0  0  0
    5.7342   41.7158   46.6431 H   0  0  0  0  0  0  0  0  0  0  0  0
    7.4956   43.2865   47.4542 H   0  0  0  0  0  0  0  0  0  0  0  0
   10.0849   47.3647   51.3142 H   0  0  0  0  0  0  0  0  0  0  0  0
    8.3107   48.8583   51.9667 H   0  0  0  0  0  0  0  0  0  0  0  0
    7.7515   47.9331   50.5135 H   0  0  0  0  0  0  0  0  0  0  0  0
    6.0545   48.2257   52.4174 H   0  0  0  0  0  0  0  0  0  0  0  0
    6.3622   46.5307   51.8005 H   0  0  0  0  0  0  0  0  0  0  0  0
    7.0837   44.8397   53.3318 H   0  0  0  0  0  0  0  0  0  0  0  0
    6.8725   45.2880   55.0660 H   0  0  0  0  0  0  0  0  0  0  0  0
    4.6817   46.3269   53.3554 H   0  0  0  0  0  0  0  0  0  0  0  0
    4.6338   44.4261   55.7266 H   0  0  0  0  0  0  0  0  0  0  0  0
    4.8196   46.2639   55.8170 H   0  0  0  0  0  0  0  0  0  0  0  0
    2.4265   44.6861   55.7489 H   0  0  0  0  0  0  0  0  0  0  0  0
    2.6896   46.5027   55.8964 H   0  0  0  0  0  0  0  0  0  0  0  0
    1.1445   46.0645   54.1200 H   0  0  0  0  0  0  0  0  0  0  0  0
    2.7753   46.6439   53.4723 H   0  0  0  0  0  0  0  0  0  0  0  0
    1.3054   44.1030   52.9713 H   0  0  0  0  0  0  0  0  0  0  0  0
    2.4631   45.0737   51.9395 H   0  0  0  0  0  0  0  0  0  0  0  0
    3.2490   43.2190   54.1370 H   0  0  0  0  0  0  0  0  0  0  0  0
    5.4247   43.4078   53.2223 H   0  0  0  0  0  0  0  0  0  0  0  0
    4.7476   44.5552   51.9550 H   0  0  0  0  0  0  0  0  0  0  0  0
    8.5887   48.2627   54.2892 H   0  0  0  0  0  0  0  0  0  0  0  0
    8.5717   46.6696   55.1671 H   0  0  0  0  0  0  0  0  0  0  0  0
   10.4759   47.0733   53.4733 H   0  0  0  0  0  0  0  0  0  0  0  0
    9.5207   45.5219   53.3629 H   0  0  0  0  0  0  0  0  0  0  0  0
    6.1850   42.6224   51.5322 H   0  0  0  0  0  0  0  0  0  0  0  0
    4.4233   41.0593   50.7094 H   0  0  0  0  0  0  0  0  0  0  0  0
  1  2  2  0
  2  3  1  0
  3  4  2  0
  4  5  1  0
  5  6  2  0
  6  7  1  0
  7  8  1  0
  8  9  1  0
  9 10  1  0
 10 11  1  0
 11 12  1  0
 12 13  1  0
 13 14  1  0
 14 15  1  0
 15 16  1  0
 16 17  1  0
 17 18  1  0
 18 19  1  0
 19 20  1  0
 12 21  1  0
 21 22  1  0
  8 23  2  0
  4 24  1  0
 24 25  2  0
 25  1  1  0
 23  5  1  0
 22  9  1  0
 20 14  1  0
  1 26  1  0
  2 27  1  0
  3 28  1  0
  9 29  1  0
 10 30  1  0
 10 31  1  0
 11 32  1  0
 11 33  1  0
 13 34  1  0
 13 35  1  0
 14 36  1  6
 15 37  1  0
 15 38  1  0
 16 39  1  0
 16 40  1  0
 17 41  1  0
 17 42  1  0
 18 43  1  0
 18 44  1  0
 19 45  1  0
 20 46  1  0
 20 47  1  0
 21 48  1  0
 21 49  1  0
 22 50  1  0
 22 51  1  0
 24 52  1  0
 25 53  1  0
M  END
>  <meeko>  (4) 
{"is_sidechain": [false], "free_energy": -6.426, "intermolecular_energy": -10.896, "internal_energy": 0.173}

$$$$
ligand_9_conformer_4_docked
     RDKit          3D

 53 56  0  0  0  0  0  0  0  0999 V2000
    4.7050   40.8370   48.6280 C   0  0  0  0  0  0  0  0  0  0  0  0
    5.7680   41.5860   48.1180 C   0  0  0  0  0  0  0  0  0  0  0  0
    6.2700   42.6750   48.8360 C   0  0  0  0  0  0  0  0  0  0  0  0
    5.7160   43.0170   50.0790 C   0  0  0  0  0  0  0  0  0  0  0  0
    6.2210   44.1850   50.8320 C   0  0  0  0  0  0  0  0  0  0  0  0
    7.0050   45.1480   50.3030 N   0  0  0  0  0  0  0  0  0  0  0  0
    7.1860   46.0000   51.2670 O   0  0  0  0  0  0  0  0  0  0  0  0
    6.5520   45.5940   52.3410 C   0  0  0  0  0  0  0  0  0  0  0  0
    6.4980   46.3650   53.6360 C   0  0  0  0  0  0  0  0  0  0  0  0
    5.7220   47.6790   53.4450 C   0  0  0  0  0  0  0  0  0  0  0  0
    4.2140   47.4220   53.2690 C   0  0  0  0  0  0  0  0  0  0  0  0
    3.6500   46.4480   54.2470 N   0  0  0  0  0  0  0  0  0  0  0  0
    2.9470   45.2940   53.6380 C   0  0  0  0  0  0  0  0  0  0  0  0
    2.0260   45.7660   52.4940 C   0  0  2  0  0  0  0  0  0  0  0  0
    0.5450   45.6340   52.9290 C   0  0  0  0  0  0  0  0  0  0  0  0
    0.1720   44.3550   53.7170 C   0  0  0  0  0  0  0  0  0  0  0  0
    0.0920   43.0660   52.8800 C   0  0  0  0  0  0  0  0  0  0  0  0
    1.2280   42.8580   51.8290 C   0  0  0  0  0  0  0  0  0  0  0  0
    1.3670   43.9410   50.8380 N   0  0  0  0  0  0  0  0  0  0  0  0
    2.3480   44.9810   51.1950 C   0  0  0  0  0  0  0  0  0  0  0  0
    4.5730   46.0530   55.3330 C   0  0  0  0  0  0  0  0  0  0  0  0
    5.9180   45.5170   54.7990 C   0  0  0  0  0  0  0  0  0  0  0  0
    5.9080   44.4310   52.1210 N   0  0  0  0  0  0  0  0  0  0  0  0
    4.6530   42.2480   50.5910 C   0  0  0  0  0  0  0  0  0  0  0  0
    4.1540   41.1600   49.8680 C   0  0  0  0  0  0  0  0  0  0  0  0
    4.3020   39.9915   48.0511 H   0  0  0  0  0  0  0  0  0  0  0  0
    6.2116   41.3178   47.1478 H   0  0  0  0  0  0  0  0  0  0  0  0
    7.1020   43.2658   48.4254 H   0  0  0  0  0  0  0  0  0  0  0  0
    7.5305   46.6142   53.9221 H   0  0  0  0  0  0  0  0  0  0  0  0
    5.8755   48.3166   54.3281 H   0  0  0  0  0  0  0  0  0  0  0  0
    6.0968   48.1728   52.5363 H   0  0  0  0  0  0  0  0  0  0  0  0
    3.6834   48.3783   53.3870 H   0  0  0  0  0  0  0  0  0  0  0  0
    4.0787   46.9853   52.2685 H   0  0  0  0  0  0  0  0  0  0  0  0
    3.6894   44.5880   53.2374 H   0  0  0  0  0  0  0  0  0  0  0  0
    2.3346   44.8030   54.4086 H   0  0  0  0  0  0  0  0  0  0  0  0
    2.2054   46.8289   52.2746 H   0  0  0  0  0  0  0  0  0  0  0  0
    0.3036   46.5001   53.5626 H   0  0  0  0  0  0  0  0  0  0  0  0
   -0.0313   45.5801   51.9936 H   0  0  0  0  0  0  0  0  0  0  0  0
    0.9300   44.2052   54.4999 H   0  0  0  0  0  0  0  0  0  0  0  0
   -0.8410   44.5251   54.1106 H   0  0  0  0  0  0  0  0  0  0  0  0
    0.1156   42.2127   53.5738 H   0  0  0  0  0  0  0  0  0  0  0  0
   -0.8377   43.1488   52.2979 H   0  0  0  0  0  0  0  0  0  0  0  0
    2.1811   42.7668   52.3705 H   0  0  0  0  0  0  0  0  0  0  0  0
    0.9595   41.9549   51.2613 H   0  0  0  0  0  0  0  0  0  0  0  0
    1.5210   43.5800   49.8690 H   0  0  0  0  0  0  0  0  0  0  0  0
    3.3276   44.4971   51.3224 H   0  0  0  0  0  0  0  0  0  0  0  0
    2.3281   45.7168   50.3775 H   0  0  0  0  0  0  0  0  0  0  0  0
    4.7693   46.9309   55.9660 H   0  0  0  0  0  0  0  0  0  0  0  0
    4.0927   45.2435   55.9023 H   0  0  0  0  0  0  0  0  0  0  0  0
    6.6449   45.5131   55.6246 H   0  0  0  0  0  0  0  0  0  0  0  0
    5.7330   44.5068   54.4051 H   0  0  0  0  0  0  0  0  0  0  0  0
    4.2125   42.5048   51.5657 H   0  0  0  0  0  0  0  0  0  0  0  0
    3.3279   40.5596   50.2767 H   0  0  0  0  0  0  0  0  0  0  0  0
  1  2  2  0
  2  3  1  0
  3  4  2  0
  4  5  1  0
  5  6  2  0
  6  7  1  0
  7  8  1  0
  8  9  1  0
  9 10  1  0
 10 11  1  0
 11 12  1  0
 12 13  1  0
 13 14  1  0
 14 15  1  0
 15 16  1  0
 16 17  1  0
 17 18  1  0
 18 19  1  0
 19 20  1  0
 12 21  1  0
 21 22  1  0
  8 23  2  0
  4 24  1  0
 24 25  2  0
 25  1  1  0
 23  5  1  0
 22  9  1  0
 20 14  1  0
  1 26  1  0
  2 27  1  0
  3 28  1  0
  9 29  1  0
 10 30  1  0
 10 31  1  0
 11 32  1  0
 11 33  1  0
 13 34  1  0
 13 35  1  0
 14 36  1  6
 15 37  1  0
 15 38  1  0
 16 39  1  0
 16 40  1  0
 17 41  1  0
 17 42  1  0
 18 43  1  0
 18 44  1  0
 19 45  1  0
 20 46  1  0
 20 47  1  0
 21 48  1  0
 21 49  1  0
 22 50  1  0
 22 51  1  0
 24 52  1  0
 25 53  1  0
M  END
>  <meeko>  (5) 
{"is_sidechain": [false], "free_energy": -6.373, "intermolecular_energy": -9.974, "internal_energy": -0.665}

$$$$
