MODEL 1
REMARK VINA RESULT:    -8.347      0.000      0.000
REMARK INTER + INTRA:         -12.773
REMARK INTER:                 -11.275
REMARK INTRA:                  -1.499
REMARK UNBOUND:                -1.499
REMARK SMILES COc1ccc(-c2nc(CCNC(=O)c3cncc(F)c3)co2)cc1
REMARK SMILES IDX 10 1 9 2 7 3 8 4 23 5 22 6 6 7 3 8 4 9 25 10 5 11 24 12 2 13
REMARK SMILES IDX 1 14 11 15 12 16 13 17 14 18 15 20 16 21 21 22 17 23 19 24
REMARK SMILES IDX 18 25 20 26
REMARK H PARENT 12 19
ROOT
ATOM      1  C   UNL     1       1.180  43.964  54.320  1.00  0.00     0.081 C 
ENDROOT
BRANCH   1   2
ATOM      2  C   UNL     1       2.158  44.948  53.755  1.00  0.00     0.081 A 
ATOM      3  C   UNL     1       3.931  46.050  53.429  1.00  0.00     0.226 A 
ATOM      4  N   UNL     1       3.476  44.928  54.027  1.00  0.00    -0.214 NA
ATOM      5  O   UNL     1       2.974  46.728  52.831  1.00  0.00    -0.444 OA
ATOM      6  C   UNL     1       1.855  46.073  53.023  1.00  0.00     0.221 A 
BRANCH   3   7
ATOM      7  C   UNL     1       5.342  46.481  53.471  1.00  0.00     0.037 A 
ATOM      8  C   UNL     1       8.053  47.254  53.540  1.00  0.00     0.118 A 
ATOM      9  C   UNL     1       7.468  46.617  54.640  1.00  0.00     0.047 A 
ATOM     10  C   UNL     1       7.269  47.507  52.398  1.00  0.00     0.047 A 
ATOM     11  C   UNL     1       6.125  46.230  54.608  1.00  0.00     0.017 A 
ATOM     12  C   UNL     1       5.925  47.126  52.367  1.00  0.00     0.017 A 
BRANCH   8  13
ATOM     13  O   UNL     1       9.406  47.616  53.620  1.00  0.00    -0.497 OA
ATOM     14  C   UNL     1      10.252  47.321  54.726  1.00  0.00     0.278 C 
ENDBRANCH   8  13
ENDBRANCH   3   7
ENDBRANCH   1   2
BRANCH   1  15
ATOM     15  C   UNL     1       0.931  42.799  53.350  1.00  0.00     0.122 C 
BRANCH  15  16
ATOM     16  N   UNL     1       2.179  42.317  52.756  1.00  0.00    -0.352 N 
ATOM     17  C   UNL     1       2.484  42.482  51.363  1.00  0.00     0.252 C 
ATOM     18  O   UNL     1       1.541  42.630  50.537  1.00  0.00    -0.269 OA
ATOM     19  H   UNL     1       2.868  41.845  53.383  1.00  0.00     0.163 HD
BRANCH  17  20
ATOM     20  C   UNL     1       3.888  42.498  50.882  1.00  0.00     0.061 A 
ATOM     21  C   UNL     1       4.534  41.320  50.460  1.00  0.00     0.125 A 
ATOM     22  C   UNL     1       4.626  43.694  50.883  1.00  0.00     0.056 A 
ATOM     23  N   UNL     1       5.833  41.354  50.061  1.00  0.00    -0.261 NA
ATOM     24  C   UNL     1       5.958  43.701  50.464  1.00  0.00     0.142 A 
ATOM     25  C   UNL     1       6.550  42.507  50.051  1.00  0.00     0.150 A 
ATOM     26  F   UNL     1       6.669  44.854  50.460  1.00  0.00    -0.205 F 
ENDBRANCH  17  20
ENDBRANCH  15  16
ENDBRANCH   1  15
TORSDOF 6
ENDMDL
MODEL 2
REMARK VINA RESULT:    -7.918      2.494      5.477
REMARK INTER + INTRA:         -12.194
REMARK INTER:                 -10.747
REMARK INTRA:                  -1.447
REMARK UNBOUND:                -1.499
REMARK SMILES COc1ccc(-c2nc(CCNC(=O)c3cncc(F)c3)co2)cc1
REMARK SMILES IDX 10 1 9 2 7 3 8 4 23 5 22 6 6 7 3 8 4 9 25 10 5 11 24 12 2 13
REMARK SMILES IDX 1 14 11 15 12 16 13 17 14 18 15 20 16 21 21 22 17 23 19 24
REMARK SMILES IDX 18 25 20 26
REMARK H PARENT 12 19
ROOT
ATOM      1  C   UNL     1       9.853  46.487  51.948  1.00  0.00     0.081 C 
ENDROOT
BRANCH   1   2
ATOM      2  C   UNL     1       8.532  46.985  52.451  1.00  0.00     0.081 A 
ATOM      3  C   UNL     1       6.536  47.023  53.144  1.00  0.00     0.226 A 
ATOM      4  N   UNL     1       7.574  46.181  52.949  1.00  0.00    -0.214 NA
ATOM      5  O   UNL     1       6.816  48.260  52.793  1.00  0.00    -0.444 OA
ATOM      6  C   UNL     1       8.049  48.269  52.349  1.00  0.00     0.221 A 
BRANCH   3   7
ATOM      7  C   UNL     1       5.223  46.591  53.664  1.00  0.00     0.037 A 
ATOM      8  C   UNL     1       2.716  45.727  54.623  1.00  0.00     0.118 A 
ATOM      9  C   UNL     1       2.804  46.503  53.461  1.00  0.00     0.047 A 
ATOM     10  C   UNL     1       3.897  45.386  55.309  1.00  0.00     0.047 A 
ATOM     11  C   UNL     1       4.045  46.931  52.982  1.00  0.00     0.017 A 
ATOM     12  C   UNL     1       5.138  45.817  54.834  1.00  0.00     0.017 A 
BRANCH   8  13
ATOM     13  O   UNL     1       1.447  45.318  55.059  1.00  0.00    -0.497 OA
ATOM     14  C   UNL     1       1.002  45.384  56.409  1.00  0.00     0.278 C 
ENDBRANCH   8  13
ENDBRANCH   3   7
ENDBRANCH   1   2
BRANCH   1  15
ATOM     15  C   UNL     1       9.683  45.600  50.706  1.00  0.00     0.122 C 
BRANCH  15  16
ATOM     16  N   UNL     1       8.294  45.170  50.537  1.00  0.00    -0.352 N 
ATOM     17  C   UNL     1       7.935  44.002  49.782  1.00  0.00     0.252 C 
ATOM     18  O   UNL     1       8.721  43.576  48.892  1.00  0.00    -0.269 OA
ATOM     19  H   UNL     1       7.548  45.739  50.994  1.00  0.00     0.163 HD
BRANCH  17  20
ATOM     20  C   UNL     1       6.665  43.281  50.044  1.00  0.00     0.061 A 
ATOM     21  C   UNL     1       6.327  42.109  49.341  1.00  0.00     0.125 A 
ATOM     22  C   UNL     1       5.740  43.785  50.975  1.00  0.00     0.056 A 
ATOM     23  N   UNL     1       5.139  41.488  49.571  1.00  0.00    -0.261 NA
ATOM     24  C   UNL     1       4.530  43.124  51.194  1.00  0.00     0.142 A 
ATOM     25  C   UNL     1       4.244  41.964  50.475  1.00  0.00     0.150 A 
ATOM     26  F   UNL     1       3.640  43.608  52.095  1.00  0.00    -0.205 F 
ENDBRANCH  17  20
ENDBRANCH  15  16
ENDBRANCH   1  15
TORSDOF 6
ENDMDL
MODEL 3
REMARK VINA RESULT:    -7.711      2.366      5.623
REMARK INTER + INTRA:         -11.914
REMARK INTER:                 -10.628
REMARK INTRA:                  -1.286
REMARK UNBOUND:                -1.499
REMARK SMILES COc1ccc(-c2nc(CCNC(=O)c3cncc(F)c3)co2)cc1
REMARK SMILES IDX 10 1 9 2 7 3 8 4 23 5 22 6 6 7 3 8 4 9 25 10 5 11 24 12 2 13
REMARK SMILES IDX 1 14 11 15 12 16 13 17 14 18 15 20 16 21 21 22 17 23 19 24
REMARK SMILES IDX 18 25 20 26
REMARK H PARENT 12 19
ROOT
ATOM      1  C   UNL     1       8.053  47.352  52.034  1.00  0.00     0.081 C 
ENDROOT
BRANCH   1   2
ATOM      2  C   UNL     1       7.043  46.866  53.029  1.00  0.00     0.081 A 
ATOM      3  C   UNL     1       5.203  46.322  53.915  1.00  0.00     0.226 A 
ATOM      4  N   UNL     1       5.765  46.585  52.715  1.00  0.00    -0.214 NA
ATOM      5  O   UNL     1       6.059  46.434  54.908  1.00  0.00    -0.444 OA
ATOM      6  C   UNL     1       7.213  46.780  54.391  1.00  0.00     0.221 A 
BRANCH   3   7
ATOM      7  C   UNL     1       3.778  45.979  54.090  1.00  0.00     0.037 A 
ATOM      8  C   UNL     1       1.066  45.275  54.404  1.00  0.00     0.118 A 
ATOM      9  C   UNL     1       1.547  45.710  53.165  1.00  0.00     0.047 A 
ATOM     10  C   UNL     1       1.952  45.195  55.494  1.00  0.00     0.047 A 
ATOM     11  C   UNL     1       2.892  46.058  53.005  1.00  0.00     0.017 A 
ATOM     12  C   UNL     1       3.296  45.547  55.337  1.00  0.00     0.017 A 
BRANCH   8  13
ATOM     13  O   UNL     1      -0.290  44.933  54.510  1.00  0.00    -0.497 OA
ATOM     14  C   UNL     1      -0.835  43.676  54.120  1.00  0.00     0.278 C 
ENDBRANCH   8  13
ENDBRANCH   3   7
ENDBRANCH   1   2
BRANCH   1  15
ATOM     15  C   UNL     1       8.372  46.275  50.986  1.00  0.00     0.122 C 
BRANCH  15  16
ATOM     16  N   UNL     1       7.187  45.485  50.647  1.00  0.00    -0.352 N 
ATOM     17  C   UNL     1       7.273  44.206  50.000  1.00  0.00     0.252 C 
ATOM     18  O   UNL     1       8.294  43.928  49.313  1.00  0.00    -0.269 OA
ATOM     19  H   UNL     1       6.252  45.875  50.899  1.00  0.00     0.163 HD
BRANCH  17  20
ATOM     20  C   UNL     1       6.189  43.202  50.140  1.00  0.00     0.061 A 
ATOM     21  C   UNL     1       6.127  42.065  49.312  1.00  0.00     0.125 A 
ATOM     22  C   UNL     1       5.161  43.392  51.081  1.00  0.00     0.056 A 
ATOM     23  N   UNL     1       5.102  41.181  49.433  1.00  0.00    -0.261 NA
ATOM     24  C   UNL     1       4.123  42.465  51.187  1.00  0.00     0.142 A 
ATOM     25  C   UNL     1       4.111  41.353  50.345  1.00  0.00     0.150 A 
ATOM     26  F   UNL     1       3.134  42.645  52.097  1.00  0.00    -0.205 F 
ENDBRANCH  17  20
ENDBRANCH  15  16
ENDBRANCH   1  15
TORSDOF 6
ENDMDL
MODEL 4
REMARK VINA RESULT:    -7.664      2.958      6.628
REMARK INTER + INTRA:         -11.851
REMARK INTER:                 -11.131
REMARK INTRA:                  -0.721
REMARK UNBOUND:                -1.499
REMARK SMILES COc1ccc(-c2nc(CCNC(=O)c3cncc(F)c3)co2)cc1
REMARK SMILES IDX 10 1 9 2 7 3 8 4 23 5 22 6 6 7 3 8 4 9 25 10 5 11 24 12 2 13
REMARK SMILES IDX 1 14 11 15 12 16 13 17 14 18 15 20 16 21 21 22 17 23 19 24
REMARK SMILES IDX 18 25 20 26
REMARK H PARENT 12 19
ROOT
ATOM      1  C   UNL     1       4.551  43.946  51.352  1.00  0.00     0.081 C 
ENDROOT
BRANCH   1   2
ATOM      2  C   UNL     1       3.306  43.725  52.156  1.00  0.00     0.081 A 
ATOM      3  C   UNL     1       1.816  43.927  53.642  1.00  0.00     0.226 A 
ATOM      4  N   UNL     1       2.865  44.581  53.096  1.00  0.00    -0.214 NA
ATOM      5  O   UNL     1       1.615  42.748  53.091  1.00  0.00    -0.444 OA
ATOM      6  C   UNL     1       2.531  42.587  52.168  1.00  0.00     0.221 A 
BRANCH   3   7
ATOM      7  C   UNL     1       1.009  44.465  54.754  1.00  0.00     0.037 A 
ATOM      8  C   UNL     1      -0.529  45.543  56.857  1.00  0.00     0.118 A 
ATOM      9  C   UNL     1       0.868  45.610  56.892  1.00  0.00     0.047 A 
ATOM     10  C   UNL     1      -1.158  44.928  55.758  1.00  0.00     0.047 A 
ATOM     11  C   UNL     1       1.633  45.078  55.851  1.00  0.00     0.017 A 
ATOM     12  C   UNL     1      -0.394  44.392  54.718  1.00  0.00     0.017 A 
BRANCH   8  13
ATOM     13  O   UNL     1      -1.251  46.096  57.924  1.00  0.00    -0.497 OA
ATOM     14  C   UNL     1      -1.518  47.486  58.079  1.00  0.00     0.278 C 
ENDBRANCH   8  13
ENDBRANCH   3   7
ENDBRANCH   1   2
BRANCH   1  15
ATOM     15  C   UNL     1       4.631  45.386  50.825  1.00  0.00     0.122 C 
BRANCH  15  16
ATOM     16  N   UNL     1       5.893  46.027  51.200  1.00  0.00    -0.352 N 
ATOM     17  C   UNL     1       6.101  46.623  52.490  1.00  0.00     0.252 C 
ATOM     18  O   UNL     1       5.105  47.012  53.159  1.00  0.00    -0.269 OA
ATOM     19  H   UNL     1       6.664  46.035  50.496  1.00  0.00     0.163 HD
BRANCH  17  20
ATOM     20  C   UNL     1       7.466  46.775  53.052  1.00  0.00     0.061 A 
ATOM     21  C   UNL     1       7.672  47.225  54.370  1.00  0.00     0.125 A 
ATOM     22  C   UNL     1       8.596  46.514  52.257  1.00  0.00     0.056 A 
ATOM     23  N   UNL     1       8.933  47.394  54.850  1.00  0.00    -0.261 NA
ATOM     24  C   UNL     1       9.880  46.692  52.777  1.00  0.00     0.142 A 
ATOM     25  C   UNL     1      10.030  47.137  54.090  1.00  0.00     0.150 A 
ATOM     26  F   UNL     1      10.969  46.437  52.012  1.00  0.00    -0.205 F 
ENDBRANCH  17  20
ENDBRANCH  15  16
ENDBRANCH   1  15
TORSDOF 6
ENDMDL
MODEL 5
REMARK VINA RESULT:    -7.582      2.322      4.938
REMARK INTER + INTRA:         -11.740
REMARK INTER:                 -10.132
REMARK INTRA:                  -1.608
REMARK UNBOUND:                -1.499
REMARK SMILES COc1ccc(-c2nc(CCNC(=O)c3cncc(F)c3)co2)cc1
REMARK SMILES IDX 10 1 9 2 7 3 8 4 23 5 22 6 6 7 3 8 4 9 25 10 5 11 24 12 2 13
REMARK SMILES IDX 1 14 11 15 12 16 13 17 14 18 15 20 16 21 21 22 17 23 19 24
REMARK SMILES IDX 18 25 20 26
REMARK H PARENT 12 19
ROOT
ATOM      1  C   UNL     1       0.394  42.981  53.971  1.00  0.00     0.081 C 
ENDROOT
BRANCH   1   2
ATOM      2  C   UNL     1       1.205  42.844  52.719  1.00  0.00     0.081 A 
ATOM      3  C   UNL     1       2.839  42.847  51.379  1.00  0.00     0.226 A 
ATOM      4  N   UNL     1       2.551  42.862  52.698  1.00  0.00    -0.214 NA
ATOM      5  O   UNL     1       1.759  42.827  50.626  1.00  0.00    -0.444 OA
ATOM      6  C   UNL     1       0.724  42.833  51.430  1.00  0.00     0.221 A 
BRANCH   3   7
ATOM      7  C   UNL     1       4.215  42.882  50.844  1.00  0.00     0.037 A 
ATOM      8  C   UNL     1       6.861  42.946  49.874  1.00  0.00     0.118 A 
ATOM      9  C   UNL     1       6.253  44.111  50.355  1.00  0.00     0.047 A 
ATOM     10  C   UNL     1       6.134  41.742  49.877  1.00  0.00     0.047 A 
ATOM     11  C   UNL     1       4.942  44.082  50.839  1.00  0.00     0.017 A 
ATOM     12  C   UNL     1       4.821  41.712  50.356  1.00  0.00     0.017 A 
BRANCH   8  13
ATOM     13  O   UNL     1       8.180  43.028  49.404  1.00  0.00    -0.497 OA
ATOM     14  C   UNL     1       8.946  44.228  49.363  1.00  0.00     0.278 C 
ENDBRANCH   8  13
ENDBRANCH   3   7
ENDBRANCH   1   2
BRANCH   1  15
ATOM     15  C   UNL     1       0.084  44.452  54.283  1.00  0.00     0.122 C 
BRANCH  15  16
ATOM     16  N   UNL     1       1.215  45.322  53.953  1.00  0.00    -0.352 N 
ATOM     17  C   UNL     1       2.207  45.697  54.922  1.00  0.00     0.252 C 
ATOM     18  O   UNL     1       1.914  45.672  56.148  1.00  0.00    -0.269 OA
ATOM     19  H   UNL     1       1.294  45.668  52.972  1.00  0.00     0.163 HD
BRANCH  17  20
ATOM     20  C   UNL     1       3.574  46.096  54.503  1.00  0.00     0.061 A 
ATOM     21  C   UNL     1       3.859  47.408  54.078  1.00  0.00     0.125 A 
ATOM     22  C   UNL     1       4.614  45.150  54.477  1.00  0.00     0.056 A 
ATOM     23  N   UNL     1       5.110  47.739  53.661  1.00  0.00    -0.261 NA
ATOM     24  C   UNL     1       5.891  45.520  54.049  1.00  0.00     0.142 A 
ATOM     25  C   UNL     1       6.122  46.833  53.641  1.00  0.00     0.150 A 
ATOM     26  F   UNL     1       6.895  44.610  54.027  1.00  0.00    -0.205 F 
ENDBRANCH  17  20
ENDBRANCH  15  16
ENDBRANCH   1  15
TORSDOF 6
ENDMDL
