MODEL 1
REMARK VINA RESULT:    -7.912      0.000      0.000
REMARK INTER + INTRA:         -10.415
REMARK INTER:                  -9.762
REMARK INTRA:                  -0.653
REMARK UNBOUND:                -0.653
REMARK SMILES O=C(c1c[nH]nc1-c1ccc(Cl)s1)N1CCN(CC2CC2)CC1
REMARK SMILES IDX 1 1 2 2 14 3 15 4 16 5 17 6 22 7 23 8 3 9 4 10 7 11 5 12
REMARK SMILES IDX 6 13 8 15 9 16 13 17 10 18 11 19 12 20 18 21 19 22 20 23
REMARK SMILES IDX 21 24
REMARK H PARENT 5 14
ROOT
ATOM      1  O   UNL     1       1.933  46.656  52.585  1.00  0.00    -0.269 OA
ATOM      2  C   UNL     1       2.667  45.679  52.895  1.00  0.00     0.257 C 
ATOM      3  N   UNL     1       4.060  45.899  53.202  1.00  0.00    -0.336 N 
ATOM      4  C   UNL     1       4.811  44.958  54.043  1.00  0.00     0.135 C 
ATOM      5  C   UNL     1       5.752  45.726  54.978  1.00  0.00     0.106 C 
ATOM      6  N   UNL     1       6.614  46.669  54.240  1.00  0.00    -0.300 NA
ATOM      7  C   UNL     1       5.803  47.640  53.471  1.00  0.00     0.106 C 
ATOM      8  C   UNL     1       4.802  46.966  52.518  1.00  0.00     0.135 C 
ENDROOT
BRANCH   2   9
ATOM      9  C   UNL     1       2.047  44.345  52.997  1.00  0.00     0.086 A 
ATOM     10  C   UNL     1       2.274  43.289  52.141  1.00  0.00     0.119 A 
ATOM     11  C   UNL     1       1.077  43.883  53.881  1.00  0.00     0.115 A 
ATOM     12  N   UNL     1       1.464  42.274  52.493  1.00  0.00    -0.284 N 
ATOM     13  N   UNL     1       0.740  42.622  53.544  1.00  0.00    -0.174 NA
ATOM     14  H   UNL     1       1.404  41.346  52.020  1.00  0.00     0.189 HD
BRANCH  11  15
ATOM     15  C   UNL     1       0.533  44.565  55.067  1.00  0.00     0.057 A 
ATOM     16  C   UNL     1       1.295  45.084  56.109  1.00  0.00     0.024 A 
ATOM     17  S   UNL     1      -1.086  44.933  55.349  1.00  0.00    -0.122 S 
ATOM     18  C   UNL     1       0.527  45.721  57.093  1.00  0.00     0.033 A 
ATOM     19  C   UNL     1      -0.830  45.717  56.811  1.00  0.00     0.094 A 
ATOM     20  Cl  UNL     1      -2.086  46.418  57.810  1.00  0.00    -0.072 Cl
ENDBRANCH  11  15
ENDBRANCH   2   9
BRANCH   6  21
ATOM     21  C   UNL     1       7.648  45.988  53.429  1.00  0.00     0.088 C 
BRANCH  21  22
ATOM     22  C   UNL     1       8.643  47.016  52.870  1.00  0.00     0.003 C 
ATOM     23  C   UNL     1       9.976  46.451  52.402  1.00  0.00     0.005 C 
ATOM     24  C   UNL     1       9.896  47.227  53.707  1.00  0.00     0.005 C 
ENDBRANCH  21  22
ENDBRANCH   6  21
TORSDOF 4
ENDMDL
MODEL 2
REMARK VINA RESULT:    -7.859      3.994      5.235
REMARK INTER + INTRA:         -10.350
REMARK INTER:                 -10.177
REMARK INTRA:                  -0.173
REMARK UNBOUND:                -0.653
REMARK SMILES O=C(c1c[nH]nc1-c1ccc(Cl)s1)N1CCN(CC2CC2)CC1
REMARK SMILES IDX 1 1 2 2 14 3 15 4 16 5 17 6 22 7 23 8 3 9 4 10 7 11 5 12
REMARK SMILES IDX 6 13 8 15 9 16 13 17 10 18 11 19 12 20 18 21 19 22 20 23
REMARK SMILES IDX 21 24
REMARK H PARENT 5 14
ROOT
ATOM      1  O   UNL     1       2.771  46.390  51.312  1.00  0.00    -0.269 OA
ATOM      2  C   UNL     1       3.390  45.520  51.983  1.00  0.00     0.257 C 
ATOM      3  N   UNL     1       4.519  45.911  52.792  1.00  0.00    -0.336 N 
ATOM      4  C   UNL     1       4.936  45.113  53.952  1.00  0.00     0.135 C 
ATOM      5  C   UNL     1       5.358  46.035  55.100  1.00  0.00     0.106 C 
ATOM      6  N   UNL     1       6.370  47.020  54.673  1.00  0.00    -0.300 NA
ATOM      7  C   UNL     1       5.868  47.847  53.553  1.00  0.00     0.106 C 
ATOM      8  C   UNL     1       5.391  47.009  52.354  1.00  0.00     0.135 C 
ENDROOT
BRANCH   2   9
ATOM      9  C   UNL     1       2.884  44.135  51.965  1.00  0.00     0.086 A 
ATOM     10  C   UNL     1       1.672  43.719  52.470  1.00  0.00     0.119 A 
ATOM     11  C   UNL     1       3.507  42.969  51.532  1.00  0.00     0.115 A 
ATOM     12  N   UNL     1       1.601  42.381  52.359  1.00  0.00    -0.284 N 
ATOM     13  N   UNL     1       2.704  41.919  51.792  1.00  0.00    -0.174 NA
ATOM     14  H   UNL     1       0.805  41.781  52.668  1.00  0.00     0.189 HD
BRANCH  11  15
ATOM     15  C   UNL     1       4.787  42.837  50.817  1.00  0.00     0.057 A 
ATOM     16  C   UNL     1       5.328  41.639  50.360  1.00  0.00     0.024 A 
ATOM     17  S   UNL     1       5.792  44.099  50.332  1.00  0.00    -0.122 S 
ATOM     18  C   UNL     1       6.537  41.802  49.672  1.00  0.00     0.033 A 
ATOM     19  C   UNL     1       6.933  43.127  49.575  1.00  0.00     0.094 A 
ATOM     20  Cl  UNL     1       8.385  43.708  48.787  1.00  0.00    -0.072 Cl
ENDBRANCH  11  15
ENDBRANCH   2   9
BRANCH   6  21
ATOM     21  C   UNL     1       7.692  46.408  54.411  1.00  0.00     0.088 C 
BRANCH  21  22
ATOM     22  C   UNL     1       8.739  47.502  54.154  1.00  0.00     0.003 C 
ATOM     23  C   UNL     1       9.854  47.128  53.189  1.00  0.00     0.005 C 
ATOM     24  C   UNL     1      10.134  47.202  54.682  1.00  0.00     0.005 C 
ENDBRANCH  21  22
ENDBRANCH   6  21
TORSDOF 4
ENDMDL
MODEL 3
REMARK VINA RESULT:    -7.255      3.898      7.796
REMARK INTER + INTRA:          -9.605
REMARK INTER:                  -8.894
REMARK INTRA:                  -0.711
REMARK UNBOUND:                -0.653
REMARK SMILES O=C(c1c[nH]nc1-c1ccc(Cl)s1)N1CCN(CC2CC2)CC1
REMARK SMILES IDX 1 1 2 2 14 3 15 4 16 5 17 6 22 7 23 8 3 9 4 10 7 11 5 12
REMARK SMILES IDX 6 13 8 15 9 16 13 17 10 18 11 19 12 20 18 21 19 22 20 23
REMARK SMILES IDX 21 24
REMARK H PARENT 5 14
ROOT
ATOM      1  O   UNL     1       3.186  46.743  50.642  1.00  0.00    -0.269 OA
ATOM      2  C   UNL     1       3.445  46.218  51.759  1.00  0.00     0.257 C 
ATOM      3  N   UNL     1       2.453  45.396  52.410  1.00  0.00    -0.336 N 
ATOM      4  C   UNL     1       2.838  44.372  53.389  1.00  0.00     0.135 C 
ATOM      5  C   UNL     1       1.974  43.120  53.206  1.00  0.00     0.106 C 
ATOM      6  N   UNL     1       0.533  43.435  53.225  1.00  0.00    -0.300 NA
ATOM      7  C   UNL     1       0.190  44.415  52.169  1.00  0.00     0.106 C 
ATOM      8  C   UNL     1       1.026  45.703  52.249  1.00  0.00     0.135 C 
ENDROOT
BRANCH   2   9
ATOM      9  C   UNL     1       4.792  46.414  52.327  1.00  0.00     0.086 A 
ATOM     10  C   UNL     1       5.115  47.295  53.336  1.00  0.00     0.119 A 
ATOM     11  C   UNL     1       6.005  45.848  51.948  1.00  0.00     0.115 A 
ATOM     12  N   UNL     1       6.446  47.262  53.519  1.00  0.00    -0.284 N 
ATOM     13  N   UNL     1       6.993  46.390  52.688  1.00  0.00    -0.174 NA
ATOM     14  H   UNL     1       6.985  47.831  54.209  1.00  0.00     0.189 HD
BRANCH  11  15
ATOM     15  C   UNL     1       6.236  44.766  50.976  1.00  0.00     0.057 A 
ATOM     16  C   UNL     1       7.313  44.699  50.097  1.00  0.00     0.024 A 
ATOM     17  S   UNL     1       5.312  43.369  50.802  1.00  0.00    -0.122 S 
ATOM     18  C   UNL     1       7.315  43.540  49.310  1.00  0.00     0.033 A 
ATOM     19  C   UNL     1       6.252  42.694  49.586  1.00  0.00     0.094 A 
ATOM     20  Cl  UNL     1       5.933  41.161  48.803  1.00  0.00    -0.072 Cl
ENDBRANCH  11  15
ENDBRANCH   2   9
BRANCH   6  21
ATOM     21  C   UNL     1       0.048  43.820  54.570  1.00  0.00     0.088 C 
BRANCH  21  22
ATOM     22  C   UNL     1      -1.478  43.996  54.549  1.00  0.00     0.003 C 
ATOM     23  C   UNL     1      -2.008  45.204  55.308  1.00  0.00     0.005 C 
ATOM     24  C   UNL     1      -2.171  43.809  55.890  1.00  0.00     0.005 C 
ENDBRANCH  21  22
ENDBRANCH   6  21
TORSDOF 4
ENDMDL
MODEL 4
REMARK VINA RESULT:    -7.197      4.201      7.771
REMARK INTER + INTRA:          -9.533
REMARK INTER:                  -9.102
REMARK INTRA:                  -0.431
REMARK UNBOUND:                -0.653
REMARK SMILES O=C(c1c[nH]nc1-c1ccc(Cl)s1)N1CCN(CC2CC2)CC1
REMARK SMILES IDX 1 1 2 2 14 3 15 4 16 5 17 6 22 7 23 8 3 9 4 10 7 11 5 12
REMARK SMILES IDX 6 13 8 15 9 16 13 17 10 18 11 19 12 20 18 21 19 22 20 23
REMARK SMILES IDX 21 24
REMARK H PARENT 5 14
ROOT
ATOM      1  O   UNL     1       6.578  44.965  54.440  1.00  0.00    -0.269 OA
ATOM      2  C   UNL     1       6.152  45.600  53.439  1.00  0.00     0.257 C 
ATOM      3  N   UNL     1       4.740  45.598  53.137  1.00  0.00    -0.336 N 
ATOM      4  C   UNL     1       4.128  46.681  52.357  1.00  0.00     0.135 C 
ATOM      5  C   UNL     1       2.752  47.030  52.934  1.00  0.00     0.106 C 
ATOM      6  N   UNL     1       1.889  45.840  53.062  1.00  0.00    -0.300 NA
ATOM      7  C   UNL     1       2.523  44.813  53.920  1.00  0.00     0.106 C 
ATOM      8  C   UNL     1       3.928  44.412  53.438  1.00  0.00     0.135 C 
ENDROOT
BRANCH   2   9
ATOM      9  C   UNL     1       7.118  46.384  52.648  1.00  0.00     0.086 A 
ATOM     10  C   UNL     1       7.686  47.580  53.033  1.00  0.00     0.119 A 
ATOM     11  C   UNL     1       7.600  46.161  51.362  1.00  0.00     0.115 A 
ATOM     12  N   UNL     1       8.439  48.040  52.019  1.00  0.00    -0.284 N 
ATOM     13  N   UNL     1       8.395  47.190  51.006  1.00  0.00    -0.174 NA
ATOM     14  H   UNL     1       8.982  48.931  52.014  1.00  0.00     0.189 HD
BRANCH  11  15
ATOM     15  C   UNL     1       7.394  44.979  50.509  1.00  0.00     0.057 A 
ATOM     16  C   UNL     1       8.366  44.398  49.701  1.00  0.00     0.024 A 
ATOM     17  S   UNL     1       5.992  44.050  50.414  1.00  0.00    -0.122 S 
ATOM     18  C   UNL     1       7.917  43.255  49.027  1.00  0.00     0.033 A 
ATOM     19  C   UNL     1       6.601  42.932  49.321  1.00  0.00     0.094 A 
ATOM     20  Cl  UNL     1       5.709  41.575  48.667  1.00  0.00    -0.072 Cl
ENDBRANCH  11  15
ENDBRANCH   2   9
BRANCH   6  21
ATOM     21  C   UNL     1       1.432  45.319  51.754  1.00  0.00     0.088 C 
BRANCH  21  22
ATOM     22  C   UNL     1       0.707  43.978  51.944  1.00  0.00     0.003 C 
ATOM     23  C   UNL     1       1.268  42.811  51.146  1.00  0.00     0.005 C 
ATOM     24  C   UNL     1      -0.037  43.465  50.721  1.00  0.00     0.005 C 
ENDBRANCH  21  22
ENDBRANCH   6  21
TORSDOF 4
ENDMDL
MODEL 5
REMARK VINA RESULT:    -7.116      2.008      2.358
REMARK INTER + INTRA:          -9.433
REMARK INTER:                  -8.726
REMARK INTRA:                  -0.706
REMARK UNBOUND:                -0.653
REMARK SMILES O=C(c1c[nH]nc1-c1ccc(Cl)s1)N1CCN(CC2CC2)CC1
REMARK SMILES IDX 1 1 2 2 14 3 15 4 16 5 17 6 22 7 23 8 3 9 4 10 7 11 5 12
REMARK SMILES IDX 6 13 8 15 9 16 13 17 10 18 11 19 12 20 18 21 19 22 20 23
REMARK SMILES IDX 21 24
REMARK H PARENT 5 14
ROOT
ATOM      1  O   UNL     1       3.118  45.912  50.866  1.00  0.00    -0.269 OA
ATOM      2  C   UNL     1       3.784  45.057  51.510  1.00  0.00     0.257 C 
ATOM      3  N   UNL     1       4.810  45.493  52.428  1.00  0.00    -0.336 N 
ATOM      4  C   UNL     1       5.237  44.645  53.548  1.00  0.00     0.135 C 
ATOM      5  C   UNL     1       5.480  45.505  54.793  1.00  0.00     0.106 C 
ATOM      6  N   UNL     1       6.403  46.623  54.520  1.00  0.00    -0.300 NA
ATOM      7  C   UNL     1       5.885  47.486  53.434  1.00  0.00     0.106 C 
ATOM      8  C   UNL     1       5.581  46.709  52.142  1.00  0.00     0.135 C 
ENDROOT
BRANCH   2   9
ATOM      9  C   UNL     1       3.437  43.634  51.346  1.00  0.00     0.086 A 
ATOM     10  C   UNL     1       4.229  42.680  50.744  1.00  0.00     0.119 A 
ATOM     11  C   UNL     1       2.260  42.965  51.668  1.00  0.00     0.115 A 
ATOM     12  N   UNL     1       3.542  41.525  50.696  1.00  0.00    -0.284 N 
ATOM     13  N   UNL     1       2.353  41.686  51.254  1.00  0.00    -0.174 NA
ATOM     14  H   UNL     1       3.881  40.627  50.286  1.00  0.00     0.189 HD
BRANCH  11  15
ATOM     15  C   UNL     1       1.102  43.479  52.418  1.00  0.00     0.057 A 
ATOM     16  C   UNL     1       0.977  43.462  53.804  1.00  0.00     0.024 A 
ATOM     17  S   UNL     1      -0.240  44.263  51.768  1.00  0.00    -0.122 S 
ATOM     18  C   UNL     1      -0.207  44.054  54.262  1.00  0.00     0.033 A 
ATOM     19  C   UNL     1      -0.999  44.549  53.237  1.00  0.00     0.094 A 
ATOM     20  Cl  UNL     1      -2.543  45.351  53.432  1.00  0.00    -0.072 Cl
ENDBRANCH  11  15
ENDBRANCH   2   9
BRANCH   6  21
ATOM     21  C   UNL     1       7.798  46.177  54.308  1.00  0.00     0.088 C 
BRANCH  21  22
ATOM     22  C   UNL     1       8.704  47.388  54.034  1.00  0.00     0.003 C 
ATOM     23  C   UNL     1       9.969  47.093  53.242  1.00  0.00     0.005 C 
ATOM     24  C   UNL     1      10.052  47.360  54.737  1.00  0.00     0.005 C 
ENDBRANCH  21  22
ENDBRANCH   6  21
TORSDOF 4
ENDMDL
