MODEL 1
REMARK VINA RESULT:    -8.112      0.000      0.000
REMARK INTER + INTRA:         -10.809
REMARK INTER:                 -10.008
REMARK INTRA:                  -0.800
REMARK UNBOUND:                -0.800
REMARK SMILES Cn1nc(-c2ccc(F)cc2)cc1C(=O)N1CC[C@@](C#N)(C(N)=O)C1
REMARK SMILES IDX 14 1 15 2 13 3 2 4 3 5 4 6 12 7 1 8 5 9 6 10 11 11 7 12
REMARK SMILES IDX 10 13 8 14 9 15 16 16 17 17 25 18 18 19 19 20 20 21 21 22
REMARK SMILES IDX 22 23 23 24 24 25
REMARK H PARENT 23 26 23 27
ROOT
ATOM      1  C   UNL     1       5.565  44.902  52.161  1.00  0.00     0.272 C 
ATOM      2  O   UNL     1       5.762  43.789  51.602  1.00  0.00    -0.267 OA
ENDROOT
BRANCH   1   3
ATOM      3  C   UNL     1       4.205  45.237  52.627  1.00  0.00     0.126 A 
ATOM      4  N   UNL     1       3.291  45.951  51.935  1.00  0.00    -0.262 N 
ATOM      5  N   UNL     1       2.157  45.997  52.615  1.00  0.00    -0.172 NA
ATOM      6  C   UNL     1       2.333  45.309  53.762  1.00  0.00     0.093 A 
ATOM      7  C   UNL     1       3.625  44.802  53.804  1.00  0.00     0.064 A 
ATOM      8  C   UNL     1       3.466  46.570  50.626  1.00  0.00     0.174 C 
BRANCH   6   9
ATOM      9  C   UNL     1       1.272  45.129  54.783  1.00  0.00     0.002 A 
ATOM     10  C   UNL     1       1.511  45.405  56.143  1.00  0.00     0.013 A 
ATOM     11  C   UNL     1      -0.005  44.680  54.396  1.00  0.00     0.013 A 
ATOM     12  C   UNL     1       0.497  45.230  57.090  1.00  0.00     0.040 A 
ATOM     13  C   UNL     1      -1.015  44.507  55.347  1.00  0.00     0.040 A 
ATOM     14  C   UNL     1      -0.765  44.782  56.693  1.00  0.00     0.123 A 
ATOM     15  F   UNL     1      -1.746  44.613  57.613  1.00  0.00    -0.207 F 
ENDBRANCH   6   9
ENDBRANCH   1   3
BRANCH   1  16
ATOM     16  N   UNL     1       6.668  45.806  52.348  1.00  0.00    -0.335 N 
ATOM     17  C   UNL     1       6.789  47.058  51.618  1.00  0.00     0.122 C 
ATOM     18  C   UNL     1       7.610  45.719  53.456  1.00  0.00     0.152 C 
ATOM     19  C   UNL     1       7.806  47.887  52.393  1.00  0.00     0.056 C 
ATOM     20  C   UNL     1       8.601  46.875  53.243  1.00  0.00     0.154 C 
ATOM     21  C   UNL     1       9.769  46.399  52.472  1.00  0.00     0.081 C 
ATOM     22  N   UNL     1      10.683  46.026  51.869  1.00  0.00    -0.197 NA
BRANCH  20  23
ATOM     23  C   UNL     1       9.096  47.455  54.552  1.00  0.00     0.239 C 
ATOM     24  N   UNL     1      10.421  47.180  55.013  1.00  0.00    -0.368 N 
ATOM     25  O   UNL     1       8.369  48.244  55.215  1.00  0.00    -0.273 OA
ATOM     26  H   UNL     1      11.075  46.589  54.454  1.00  0.00     0.159 HD
ATOM     27  H   UNL     1      10.760  47.592  55.911  1.00  0.00     0.159 HD
ENDBRANCH  20  23
ENDBRANCH   1  16
TORSDOF 4
ENDMDL
MODEL 2
REMARK VINA RESULT:    -7.985      3.759      7.843
REMARK INTER + INTRA:         -10.653
REMARK INTER:                  -9.921
REMARK INTRA:                  -0.731
REMARK UNBOUND:                -0.800
REMARK SMILES Cn1nc(-c2ccc(F)cc2)cc1C(=O)N1CC[C@@](C#N)(C(N)=O)C1
REMARK SMILES IDX 14 1 15 2 13 3 2 4 3 5 4 6 12 7 1 8 5 9 6 10 11 11 7 12
REMARK SMILES IDX 10 13 8 14 9 15 16 16 17 17 25 18 18 19 19 20 20 21 21 22
REMARK SMILES IDX 22 23 23 24 24 25
REMARK H PARENT 23 26 23 27
ROOT
ATOM      1  C   UNL     1       3.523  43.508  51.986  1.00  0.00     0.272 C 
ATOM      2  O   UNL     1       3.788  42.449  51.354  1.00  0.00    -0.267 OA
ENDROOT
BRANCH   1   3
ATOM      3  C   UNL     1       4.540  44.576  52.049  1.00  0.00     0.126 A 
ATOM      4  N   UNL     1       4.459  45.774  51.433  1.00  0.00    -0.262 N 
ATOM      5  N   UNL     1       5.505  46.515  51.764  1.00  0.00    -0.172 NA
ATOM      6  C   UNL     1       6.276  45.791  52.603  1.00  0.00     0.093 A 
ATOM      7  C   UNL     1       5.690  44.550  52.815  1.00  0.00     0.064 A 
ATOM      8  C   UNL     1       3.394  46.243  50.554  1.00  0.00     0.174 C 
BRANCH   6   9
ATOM      9  C   UNL     1       7.537  46.295  53.200  1.00  0.00     0.002 A 
ATOM     10  C   UNL     1       7.538  47.006  54.416  1.00  0.00     0.013 A 
ATOM     11  C   UNL     1       8.764  46.059  52.552  1.00  0.00     0.013 A 
ATOM     12  C   UNL     1       8.738  47.472  54.963  1.00  0.00     0.040 A 
ATOM     13  C   UNL     1       9.960  46.527  53.103  1.00  0.00     0.040 A 
ATOM     14  C   UNL     1       9.947  47.233  54.308  1.00  0.00     0.123 A 
ATOM     15  F   UNL     1      11.109  47.685  54.841  1.00  0.00    -0.207 F 
ENDBRANCH   6   9
ENDBRANCH   1   3
BRANCH   1  16
ATOM     16  N   UNL     1       2.236  43.656  52.612  1.00  0.00    -0.335 N 
ATOM     17  C   UNL     1       1.292  42.557  52.736  1.00  0.00     0.122 C 
ATOM     18  C   UNL     1       1.856  44.805  53.422  1.00  0.00     0.152 C 
ATOM     19  C   UNL     1       0.294  42.993  53.802  1.00  0.00     0.056 C 
ATOM     20  C   UNL     1       0.413  44.529  53.873  1.00  0.00     0.154 C 
ATOM     21  C   UNL     1      -0.536  45.138  52.919  1.00  0.00     0.081 C 
ATOM     22  N   UNL     1      -1.280  45.617  52.171  1.00  0.00    -0.197 NA
BRANCH  20  23
ATOM     23  C   UNL     1       0.127  45.085  55.254  1.00  0.00     0.239 C 
ATOM     24  N   UNL     1      -1.122  45.723  55.535  1.00  0.00    -0.368 N 
ATOM     25  O   UNL     1       0.959  44.929  56.189  1.00  0.00    -0.273 OA
ATOM     26  H   UNL     1      -1.862  45.804  54.804  1.00  0.00     0.159 HD
ATOM     27  H   UNL     1      -1.317  46.094  56.491  1.00  0.00     0.159 HD
ENDBRANCH  20  23
ENDBRANCH   1  16
TORSDOF 4
ENDMDL
MODEL 3
REMARK VINA RESULT:    -7.934      4.199      8.485
REMARK INTER + INTRA:         -10.590
REMARK INTER:                  -9.886
REMARK INTRA:                  -0.704
REMARK UNBOUND:                -0.800
REMARK SMILES Cn1nc(-c2ccc(F)cc2)cc1C(=O)N1CC[C@@](C#N)(C(N)=O)C1
REMARK SMILES IDX 14 1 15 2 13 3 2 4 3 5 4 6 12 7 1 8 5 9 6 10 11 11 7 12
REMARK SMILES IDX 10 13 8 14 9 15 16 16 17 17 25 18 18 19 19 20 20 21 21 22
REMARK SMILES IDX 22 23 23 24 24 25
REMARK H PARENT 23 26 23 27
ROOT
ATOM      1  C   UNL     1       1.180  45.305  53.330  1.00  0.00     0.272 C 
ATOM      2  O   UNL     1       0.487  45.666  52.340  1.00  0.00    -0.267 OA
ENDROOT
BRANCH   1   3
ATOM      3  C   UNL     1       2.629  45.087  53.148  1.00  0.00     0.126 A 
ATOM      4  N   UNL     1       3.200  43.955  52.685  1.00  0.00    -0.262 N 
ATOM      5  N   UNL     1       4.508  44.129  52.577  1.00  0.00    -0.172 NA
ATOM      6  C   UNL     1       4.791  45.387  52.974  1.00  0.00     0.093 A 
ATOM      7  C   UNL     1       3.617  46.033  53.339  1.00  0.00     0.064 A 
ATOM      8  C   UNL     1       2.526  42.713  52.319  1.00  0.00     0.174 C 
BRANCH   6   9
ATOM      9  C   UNL     1       6.161  45.957  52.981  1.00  0.00     0.002 A 
ATOM     10  C   UNL     1       6.905  46.086  51.792  1.00  0.00     0.013 A 
ATOM     11  C   UNL     1       6.737  46.386  54.191  1.00  0.00     0.013 A 
ATOM     12  C   UNL     1       8.195  46.627  51.819  1.00  0.00     0.040 A 
ATOM     13  C   UNL     1       8.026  46.926  54.212  1.00  0.00     0.040 A 
ATOM     14  C   UNL     1       8.755  47.046  53.027  1.00  0.00     0.123 A 
ATOM     15  F   UNL     1      10.005  47.570  53.050  1.00  0.00    -0.207 F 
ENDBRANCH   6   9
ENDBRANCH   1   3
BRANCH   1  16
ATOM     16  N   UNL     1       0.549  45.133  54.611  1.00  0.00    -0.335 N 
ATOM     17  C   UNL     1       1.256  44.616  55.771  1.00  0.00     0.122 C 
ATOM     18  C   UNL     1      -0.745  45.704  54.961  1.00  0.00     0.152 C 
ATOM     19  C   UNL     1       0.400  44.995  56.974  1.00  0.00     0.056 C 
ATOM     20  C   UNL     1      -1.010  45.261  56.409  1.00  0.00     0.154 C 
ATOM     21  C   UNL     1      -1.785  44.003  56.416  1.00  0.00     0.081 C 
ATOM     22  N   UNL     1      -2.394  43.018  56.420  1.00  0.00    -0.197 NA
BRANCH  20  23
ATOM     23  C   UNL     1      -1.780  46.302  57.196  1.00  0.00     0.239 C 
ATOM     24  N   UNL     1      -1.794  47.667  56.773  1.00  0.00    -0.368 N 
ATOM     25  O   UNL     1      -2.473  45.963  58.194  1.00  0.00    -0.273 OA
ATOM     26  H   UNL     1      -1.290  47.970  55.911  1.00  0.00     0.159 HD
ATOM     27  H   UNL     1      -2.336  48.378  57.314  1.00  0.00     0.159 HD
ENDBRANCH  20  23
ENDBRANCH   1  16
TORSDOF 4
ENDMDL
MODEL 4
REMARK VINA RESULT:    -7.765      4.032      8.093
REMARK INTER + INTRA:         -10.382
REMARK INTER:                  -9.852
REMARK INTRA:                  -0.530
REMARK UNBOUND:                -0.800
REMARK SMILES Cn1nc(-c2ccc(F)cc2)cc1C(=O)N1CC[C@@](C#N)(C(N)=O)C1
REMARK SMILES IDX 14 1 15 2 13 3 2 4 3 5 4 6 12 7 1 8 5 9 6 10 11 11 7 12
REMARK SMILES IDX 10 13 8 14 9 15 16 16 17 17 25 18 18 19 19 20 20 21 21 22
REMARK SMILES IDX 22 23 23 24 24 25
REMARK H PARENT 23 26 23 27
ROOT
ATOM      1  C   UNL     1       1.745  43.324  51.213  1.00  0.00     0.272 C 
ATOM      2  O   UNL     1       1.268  43.027  50.084  1.00  0.00    -0.267 OA
ENDROOT
BRANCH   1   3
ATOM      3  C   UNL     1       3.203  43.516  51.345  1.00  0.00     0.126 A 
ATOM      4  N   UNL     1       4.149  42.632  50.965  1.00  0.00    -0.262 N 
ATOM      5  N   UNL     1       5.350  43.155  51.157  1.00  0.00    -0.172 NA
ATOM      6  C   UNL     1       5.184  44.393  51.669  1.00  0.00     0.093 A 
ATOM      7  C   UNL     1       3.828  44.663  51.797  1.00  0.00     0.064 A 
ATOM      8  C   UNL     1       3.937  41.304  50.397  1.00  0.00     0.174 C 
BRANCH   6   9
ATOM      9  C   UNL     1       6.309  45.299  52.006  1.00  0.00     0.002 A 
ATOM     10  C   UNL     1       7.202  45.756  51.017  1.00  0.00     0.013 A 
ATOM     11  C   UNL     1       6.495  45.721  53.335  1.00  0.00     0.013 A 
ATOM     12  C   UNL     1       8.256  46.611  51.356  1.00  0.00     0.040 A 
ATOM     13  C   UNL     1       7.550  46.576  53.668  1.00  0.00     0.040 A 
ATOM     14  C   UNL     1       8.430  47.021  52.679  1.00  0.00     0.123 A 
ATOM     15  F   UNL     1       9.453  47.850  53.004  1.00  0.00    -0.207 F 
ENDBRANCH   6   9
ENDBRANCH   1   3
BRANCH   1  16
ATOM     16  N   UNL     1       0.861  43.484  52.336  1.00  0.00    -0.335 N 
ATOM     17  C   UNL     1       0.207  42.361  52.987  1.00  0.00     0.122 C 
ATOM     18  C   UNL     1       0.745  44.715  53.108  1.00  0.00     0.152 C 
ATOM     19  C   UNL     1      -0.260  42.887  54.340  1.00  0.00     0.056 C 
ATOM     20  C   UNL     1      -0.305  44.421  54.191  1.00  0.00     0.154 C 
ATOM     21  C   UNL     1      -1.644  44.828  53.715  1.00  0.00     0.081 C 
ATOM     22  N   UNL     1      -2.692  45.147  53.342  1.00  0.00    -0.197 NA
BRANCH  20  23
ATOM     23  C   UNL     1      -0.015  45.153  55.486  1.00  0.00     0.239 C 
ATOM     24  N   UNL     1      -0.990  46.027  56.060  1.00  0.00    -0.368 N 
ATOM     25  O   UNL     1       1.062  44.945  56.108  1.00  0.00    -0.273 OA
ATOM     26  H   UNL     1      -1.921  46.167  55.609  1.00  0.00     0.159 HD
ATOM     27  H   UNL     1      -0.788  46.521  56.958  1.00  0.00     0.159 HD
ENDBRANCH  20  23
ENDBRANCH   1  16
TORSDOF 4
ENDMDL
MODEL 5
REMARK VINA RESULT:    -7.764      4.033      8.604
REMARK INTER + INTRA:         -10.379
REMARK INTER:                  -9.792
REMARK INTRA:                  -0.587
REMARK UNBOUND:                -0.800
REMARK SMILES Cn1nc(-c2ccc(F)cc2)cc1C(=O)N1CC[C@@](C#N)(C(N)=O)C1
REMARK SMILES IDX 14 1 15 2 13 3 2 4 3 5 4 6 12 7 1 8 5 9 6 10 11 11 7 12
REMARK SMILES IDX 10 13 8 14 9 15 16 16 17 17 25 18 18 19 19 20 20 21 21 22
REMARK SMILES IDX 22 23 23 24 24 25
REMARK H PARENT 23 26 23 27
ROOT
ATOM      1  C   UNL     1       2.785  45.491  54.874  1.00  0.00     0.272 C 
ATOM      2  O   UNL     1       2.946  45.723  56.103  1.00  0.00    -0.267 OA
ENDROOT
BRANCH   1   3
ATOM      3  C   UNL     1       3.870  45.835  53.933  1.00  0.00     0.126 A 
ATOM      4  N   UNL     1       3.711  46.461  52.747  1.00  0.00    -0.262 N 
ATOM      5  N   UNL     1       4.896  46.679  52.199  1.00  0.00    -0.172 NA
ATOM      6  C   UNL     1       5.835  46.190  53.035  1.00  0.00     0.093 A 
ATOM      7  C   UNL     1       5.220  45.650  54.156  1.00  0.00     0.064 A 
ATOM      8  C   UNL     1       2.456  46.879  52.133  1.00  0.00     0.174 C 
BRANCH   6   9
ATOM      9  C   UNL     1       7.292  46.261  52.764  1.00  0.00     0.002 A 
ATOM     10  C   UNL     1       8.211  46.570  53.786  1.00  0.00     0.013 A 
ATOM     11  C   UNL     1       7.778  46.012  51.467  1.00  0.00     0.013 A 
ATOM     12  C   UNL     1       9.581  46.631  53.511  1.00  0.00     0.040 A 
ATOM     13  C   UNL     1       9.148  46.075  51.198  1.00  0.00     0.040 A 
ATOM     14  C   UNL     1      10.050  46.384  52.219  1.00  0.00     0.123 A 
ATOM     15  F   UNL     1      11.378  46.444  51.956  1.00  0.00    -0.207 F 
ENDBRANCH   6   9
ENDBRANCH   1   3
BRANCH   1  16
ATOM     16  N   UNL     1       1.562  44.884  54.422  1.00  0.00    -0.335 N 
ATOM     17  C   UNL     1       1.532  43.621  53.702  1.00  0.00     0.122 C 
ATOM     18  C   UNL     1       0.238  45.298  54.867  1.00  0.00     0.152 C 
ATOM     19  C   UNL     1       0.092  43.129  53.798  1.00  0.00     0.056 C 
ATOM     20  C   UNL     1      -0.748  44.379  54.128  1.00  0.00     0.154 C 
ATOM     21  C   UNL     1      -1.187  45.020  52.871  1.00  0.00     0.081 C 
ATOM     22  N   UNL     1      -1.530  45.523  51.887  1.00  0.00    -0.197 NA
BRANCH  20  23
ATOM     23  C   UNL     1      -1.976  44.068  54.960  1.00  0.00     0.239 C 
ATOM     24  N   UNL     1      -3.170  44.840  54.810  1.00  0.00    -0.368 N 
ATOM     25  O   UNL     1      -1.981  43.080  55.744  1.00  0.00    -0.273 OA
ATOM     26  H   UNL     1      -3.224  45.619  54.118  1.00  0.00     0.159 HD
ATOM     27  H   UNL     1      -4.016  44.613  55.379  1.00  0.00     0.159 HD
ENDBRANCH  20  23
ENDBRANCH   1  16
TORSDOF 4
ENDMDL
