MODEL 1
REMARK VINA RESULT:    -8.502      0.000      0.000
REMARK INTER + INTRA:         -11.628
REMARK INTER:                 -10.987
REMARK INTRA:                  -0.641
REMARK UNBOUND:                -0.641
REMARK SMILES O=C(Nc1cccc(CCO)c1)c1c[nH]c2ncnc(O)c12
REMARK SMILES IDX 4 1 5 2 6 3 7 4 8 5 12 6 3 7 1 8 2 9 13 11 14 12 22 13 15 14
REMARK SMILES IDX 20 15 16 16 19 17 17 18 18 19 21 21 9 23 10 24 11 25
REMARK H PARENT 3 10 15 20 21 22 11 26
ROOT
ATOM      1  C   UNL     1       7.416  46.510  52.374  1.00  0.00     0.041 A 
ATOM      2  C   UNL     1       8.102  46.081  51.228  1.00  0.00     0.026 A 
ATOM      3  C   UNL     1       9.497  46.047  51.210  1.00  0.00     0.002 A 
ATOM      4  C   UNL     1      10.223  46.430  52.339  1.00  0.00     0.004 A 
ATOM      5  C   UNL     1       9.555  46.852  53.500  1.00  0.00    -0.044 A 
ATOM      6  C   UNL     1       8.151  46.874  53.517  1.00  0.00     0.030 A 
ENDROOT
BRANCH   1   7
ATOM      7  N   UNL     1       5.977  46.508  52.376  1.00  0.00    -0.322 N 
ATOM      8  O   UNL     1       5.717  44.518  53.573  1.00  0.00    -0.269 OA
ATOM      9  C   UNL     1       5.180  45.419  52.876  1.00  0.00     0.258 C 
ATOM     10  H   UNL     1       5.496  47.375  52.052  1.00  0.00     0.170 HD
BRANCH   9  11
ATOM     11  C   UNL     1       3.723  45.380  52.631  1.00  0.00     0.072 A 
ATOM     12  C   UNL     1       3.090  45.541  51.395  1.00  0.00     0.099 A 
ATOM     13  C   UNL     1       2.691  45.220  53.551  1.00  0.00     0.093 A 
ATOM     14  N   UNL     1       1.746  45.490  51.535  1.00  0.00    -0.345 N 
ATOM     15  C   UNL     1       2.638  44.978  54.926  1.00  0.00     0.224 A 
ATOM     16  C   UNL     1       1.525  45.296  52.842  1.00  0.00     0.145 A 
ATOM     17  N   UNL     1       1.409  44.858  55.508  1.00  0.00    -0.201 NA
ATOM     18  N   UNL     1       0.310  45.171  53.429  1.00  0.00    -0.218 NA
ATOM     19  C   UNL     1       0.257  44.957  54.776  1.00  0.00     0.228 A 
ATOM     20  H   UNL     1       1.032  45.584  50.779  1.00  0.00     0.167 HD
BRANCH  15  21
ATOM     21  O   UNL     1       3.789  44.843  55.693  1.00  0.00    -0.493 OA
ATOM     22  H   UNL     1       4.416  44.060  55.555  1.00  0.00     0.295 HD
ENDBRANCH  15  21
ENDBRANCH   9  11
ENDBRANCH   1   7
BRANCH   5  23
ATOM     23  C   UNL     1      10.338  47.217  54.735  1.00  0.00     0.063 C 
BRANCH  23  24
ATOM     24  C   UNL     1       9.601  48.264  55.570  1.00  0.00     0.161 C 
BRANCH  24  25
ATOM     25  O   UNL     1      10.230  48.419  56.812  1.00  0.00    -0.396 OA
ATOM     26  H   UNL     1       9.638  47.979  57.476  1.00  0.00     0.210 HD
ENDBRANCH  24  25
ENDBRANCH  23  24
ENDBRANCH   5  23
TORSDOF 6
ENDMDL
MODEL 2
REMARK VINA RESULT:    -8.156      1.478      1.926
REMARK INTER + INTRA:         -11.181
REMARK INTER:                 -10.570
REMARK INTRA:                  -0.611
REMARK UNBOUND:                -0.641
REMARK SMILES O=C(Nc1cccc(CCO)c1)c1c[nH]c2ncnc(O)c12
REMARK SMILES IDX 4 1 5 2 6 3 7 4 8 5 12 6 3 7 1 8 2 9 13 11 14 12 22 13 15 14
REMARK SMILES IDX 20 15 16 16 19 17 17 18 18 19 21 21 9 23 10 24 11 25
REMARK H PARENT 3 10 15 20 21 22 11 26
ROOT
ATOM      1  C   UNL     1       5.762  46.010  52.011  1.00  0.00     0.041 A 
ATOM      2  C   UNL     1       6.273  45.355  50.880  1.00  0.00     0.026 A 
ATOM      3  C   UNL     1       7.592  45.568  50.475  1.00  0.00     0.002 A 
ATOM      4  C   UNL     1       8.419  46.427  51.201  1.00  0.00     0.004 A 
ATOM      5  C   UNL     1       7.930  47.083  52.342  1.00  0.00    -0.044 A 
ATOM      6  C   UNL     1       6.606  46.858  52.752  1.00  0.00     0.030 A 
ENDROOT
BRANCH   1   7
ATOM      7  N   UNL     1       4.409  45.751  52.423  1.00  0.00    -0.322 N 
ATOM      8  O   UNL     1       4.944  44.424  54.271  1.00  0.00    -0.269 OA
ATOM      9  C   UNL     1       4.055  44.843  53.482  1.00  0.00     0.258 C 
ATOM     10  H   UNL     1       3.654  46.304  51.964  1.00  0.00     0.170 HD
BRANCH   9  11
ATOM     11  C   UNL     1       2.647  44.446  53.694  1.00  0.00     0.072 A 
ATOM     12  C   UNL     1       1.875  43.661  52.834  1.00  0.00     0.099 A 
ATOM     13  C   UNL     1       1.796  44.786  54.740  1.00  0.00     0.093 A 
ATOM     14  N   UNL     1       0.617  43.523  53.310  1.00  0.00    -0.345 N 
ATOM     15  C   UNL     1       1.948  45.506  55.928  1.00  0.00     0.224 A 
ATOM     16  C   UNL     1       0.589  44.209  54.461  1.00  0.00     0.145 A 
ATOM     17  N   UNL     1       0.863  45.625  56.748  1.00  0.00    -0.201 NA
ATOM     18  N   UNL     1      -0.481  44.331  55.284  1.00  0.00    -0.218 NA
ATOM     19  C   UNL     1      -0.339  45.052  56.434  1.00  0.00     0.228 A 
ATOM     20  H   UNL     1      -0.168  42.994  52.870  1.00  0.00     0.167 HD
BRANCH  15  21
ATOM     21  O   UNL     1       3.163  46.075  56.291  1.00  0.00    -0.493 OA
ATOM     22  H   UNL     1       3.461  46.090  57.259  1.00  0.00     0.295 HD
ENDBRANCH  15  21
ENDBRANCH   9  11
ENDBRANCH   1   7
BRANCH   5  23
ATOM     23  C   UNL     1       8.838  47.972  53.153  1.00  0.00     0.063 C 
BRANCH  23  24
ATOM     24  C   UNL     1       9.853  47.149  53.948  1.00  0.00     0.161 C 
BRANCH  24  25
ATOM     25  O   UNL     1       9.854  47.552  55.290  1.00  0.00    -0.396 OA
ATOM     26  H   UNL     1      10.032  48.528  55.283  1.00  0.00     0.210 HD
ENDBRANCH  24  25
ENDBRANCH  23  24
ENDBRANCH   5  23
TORSDOF 6
ENDMDL
MODEL 3
REMARK VINA RESULT:    -8.102      1.773      2.734
REMARK INTER + INTRA:         -11.112
REMARK INTER:                 -10.518
REMARK INTRA:                  -0.594
REMARK UNBOUND:                -0.641
REMARK SMILES O=C(Nc1cccc(CCO)c1)c1c[nH]c2ncnc(O)c12
REMARK SMILES IDX 4 1 5 2 6 3 7 4 8 5 12 6 3 7 1 8 2 9 13 11 14 12 22 13 15 14
REMARK SMILES IDX 20 15 16 16 19 17 17 18 18 19 21 21 9 23 10 24 11 25
REMARK H PARENT 3 10 15 20 21 22 11 26
ROOT
ATOM      1  C   UNL     1       7.271  46.407  53.356  1.00  0.00     0.041 A 
ATOM      2  C   UNL     1       7.660  47.198  54.447  1.00  0.00     0.026 A 
ATOM      3  C   UNL     1       8.991  47.596  54.594  1.00  0.00     0.002 A 
ATOM      4  C   UNL     1       9.945  47.218  53.647  1.00  0.00     0.004 A 
ATOM      5  C   UNL     1       9.572  46.436  52.541  1.00  0.00    -0.044 A 
ATOM      6  C   UNL     1       8.231  46.047  52.392  1.00  0.00     0.030 A 
ENDROOT
BRANCH   1   7
ATOM      7  N   UNL     1       5.889  46.036  53.213  1.00  0.00    -0.322 N 
ATOM      8  O   UNL     1       5.845  44.489  54.964  1.00  0.00    -0.269 OA
ATOM      9  C   UNL     1       5.263  44.976  53.958  1.00  0.00     0.258 C 
ATOM     10  H   UNL     1       5.301  46.616  52.575  1.00  0.00     0.170 HD
BRANCH   9  11
ATOM     11  C   UNL     1       3.914  44.495  53.593  1.00  0.00     0.072 A 
ATOM     12  C   UNL     1       3.588  43.727  52.471  1.00  0.00     0.099 A 
ATOM     13  C   UNL     1       2.705  44.723  54.242  1.00  0.00     0.093 A 
ATOM     14  N   UNL     1       2.258  43.495  52.419  1.00  0.00    -0.345 N 
ATOM     15  C   UNL     1       2.338  45.372  55.424  1.00  0.00     0.224 A 
ATOM     16  C   UNL     1       1.742  44.104  53.495  1.00  0.00     0.145 A 
ATOM     17  N   UNL     1       1.016  45.383  55.765  1.00  0.00    -0.201 NA
ATOM     18  N   UNL     1       0.432  44.118  53.845  1.00  0.00    -0.218 NA
ATOM     19  C   UNL     1       0.071  44.770  54.988  1.00  0.00     0.228 A 
ATOM     20  H   UNL     1       1.742  42.956  51.689  1.00  0.00     0.167 HD
BRANCH  15  21
ATOM     21  O   UNL     1       3.277  45.979  56.250  1.00  0.00    -0.493 OA
ATOM     22  H   UNL     1       3.170  46.944  56.536  1.00  0.00     0.295 HD
ENDBRANCH  15  21
ENDBRANCH   9  11
ENDBRANCH   1   7
BRANCH   5  23
ATOM     23  C   UNL     1      10.593  46.070  51.494  1.00  0.00     0.063 C 
BRANCH  23  24
ATOM     24  C   UNL     1      10.618  44.562  51.246  1.00  0.00     0.161 C 
BRANCH  24  25
ATOM     25  O   UNL     1      10.149  44.277  49.957  1.00  0.00    -0.396 OA
ATOM     26  H   UNL     1      10.588  43.430  49.686  1.00  0.00     0.210 HD
ENDBRANCH  24  25
ENDBRANCH  23  24
ENDBRANCH   5  23
TORSDOF 6
ENDMDL
MODEL 4
REMARK VINA RESULT:    -8.034      2.712      4.473
REMARK INTER + INTRA:         -11.024
REMARK INTER:                 -10.206
REMARK INTRA:                  -0.818
REMARK UNBOUND:                -0.641
REMARK SMILES O=C(Nc1cccc(CCO)c1)c1c[nH]c2ncnc(O)c12
REMARK SMILES IDX 4 1 5 2 6 3 7 4 8 5 12 6 3 7 1 8 2 9 13 11 14 12 22 13 15 14
REMARK SMILES IDX 20 15 16 16 19 17 17 18 18 19 21 21 9 23 10 24 11 25
REMARK H PARENT 3 10 15 20 21 22 11 26
ROOT
ATOM      1  C   UNL     1       5.684  45.317  51.771  1.00  0.00     0.041 A 
ATOM      2  C   UNL     1       6.754  46.223  51.721  1.00  0.00     0.026 A 
ATOM      3  C   UNL     1       7.817  46.015  50.840  1.00  0.00     0.002 A 
ATOM      4  C   UNL     1       7.819  44.905  49.992  1.00  0.00     0.004 A 
ATOM      5  C   UNL     1       6.752  43.993  50.019  1.00  0.00    -0.044 A 
ATOM      6  C   UNL     1       5.679  44.213  50.899  1.00  0.00     0.030 A 
ENDROOT
BRANCH   1   7
ATOM      7  N   UNL     1       4.587  45.571  52.666  1.00  0.00    -0.322 N 
ATOM      8  O   UNL     1       5.469  44.423  54.501  1.00  0.00    -0.269 OA
ATOM      9  C   UNL     1       4.473  44.989  53.977  1.00  0.00     0.258 C 
ATOM     10  H   UNL     1       3.872  46.267  52.361  1.00  0.00     0.170 HD
BRANCH   9  11
ATOM     11  C   UNL     1       3.213  45.103  54.743  1.00  0.00     0.072 A 
ATOM     12  C   UNL     1       3.044  45.781  55.954  1.00  0.00     0.099 A 
ATOM     13  C   UNL     1       1.970  44.547  54.460  1.00  0.00     0.093 A 
ATOM     14  N   UNL     1       1.775  45.652  56.402  1.00  0.00    -0.345 N 
ATOM     15  C   UNL     1       1.455  43.798  53.399  1.00  0.00     0.224 A 
ATOM     16  C   UNL     1       1.143  44.905  55.487  1.00  0.00     0.145 A 
ATOM     17  N   UNL     1       0.141  43.429  53.454  1.00  0.00    -0.201 NA
ATOM     18  N   UNL     1      -0.161  44.536  55.531  1.00  0.00    -0.218 NA
ATOM     19  C   UNL     1      -0.659  43.786  54.506  1.00  0.00     0.228 A 
ATOM     20  H   UNL     1       1.375  46.051  57.279  1.00  0.00     0.167 HD
BRANCH  15  21
ATOM     21  O   UNL     1       2.233  43.445  52.303  1.00  0.00    -0.493 OA
ATOM     22  H   UNL     1       1.892  43.581  51.359  1.00  0.00     0.295 HD
ENDBRANCH  15  21
ENDBRANCH   9  11
ENDBRANCH   1   7
BRANCH   5  23
ATOM     23  C   UNL     1       6.731  42.824  49.068  1.00  0.00     0.063 C 
BRANCH  23  24
ATOM     24  C   UNL     1       6.253  41.550  49.766  1.00  0.00     0.161 C 
BRANCH  24  25
ATOM     25  O   UNL     1       7.341  40.709  50.033  1.00  0.00    -0.396 OA
ATOM     26  H   UNL     1       8.155  41.243  49.837  1.00  0.00     0.210 HD
ENDBRANCH  24  25
ENDBRANCH  23  24
ENDBRANCH   5  23
TORSDOF 6
ENDMDL
MODEL 5
REMARK VINA RESULT:    -7.965      1.569      2.341
REMARK INTER + INTRA:         -10.934
REMARK INTER:                 -10.374
REMARK INTRA:                  -0.560
REMARK UNBOUND:                -0.641
REMARK SMILES O=C(Nc1cccc(CCO)c1)c1c[nH]c2ncnc(O)c12
REMARK SMILES IDX 4 1 5 2 6 3 7 4 8 5 12 6 3 7 1 8 2 9 13 11 14 12 22 13 15 14
REMARK SMILES IDX 20 15 16 16 19 17 17 18 18 19 21 21 9 23 10 24 11 25
REMARK H PARENT 3 10 15 20 21 22 11 26
ROOT
ATOM      1  C   UNL     1       6.419  45.954  52.253  1.00  0.00     0.041 A 
ATOM      2  C   UNL     1       6.712  45.436  50.982  1.00  0.00     0.026 A 
ATOM      3  C   UNL     1       8.011  45.496  50.475  1.00  0.00     0.002 A 
ATOM      4  C   UNL     1       9.036  46.063  51.236  1.00  0.00     0.004 A 
ATOM      5  C   UNL     1       8.766  46.577  52.514  1.00  0.00    -0.044 A 
ATOM      6  C   UNL     1       7.459  46.504  53.025  1.00  0.00     0.030 A 
ENDROOT
BRANCH   1   7
ATOM      7  N   UNL     1       5.079  45.852  52.764  1.00  0.00    -0.322 N 
ATOM      8  O   UNL     1       5.597  44.513  54.608  1.00  0.00    -0.269 OA
ATOM      9  C   UNL     1       4.705  45.011  53.869  1.00  0.00     0.258 C 
ATOM     10  H   UNL     1       4.357  46.476  52.341  1.00  0.00     0.170 HD
BRANCH   9  11
ATOM     11  C   UNL     1       3.281  44.774  54.187  1.00  0.00     0.072 A 
ATOM     12  C   UNL     1       2.601  45.238  55.317  1.00  0.00     0.099 A 
ATOM     13  C   UNL     1       2.344  44.030  53.478  1.00  0.00     0.093 A 
ATOM     14  N   UNL     1       1.320  44.807  55.315  1.00  0.00    -0.345 N 
ATOM     15  C   UNL     1       2.362  43.344  52.260  1.00  0.00     0.224 A 
ATOM     16  C   UNL     1       1.184  44.080  54.198  1.00  0.00     0.145 A 
ATOM     17  N   UNL     1       1.214  42.723  51.859  1.00  0.00    -0.201 NA
ATOM     18  N   UNL     1       0.049  43.462  53.789  1.00  0.00    -0.218 NA
ATOM     19  C   UNL     1       0.071  42.773  52.611  1.00  0.00     0.228 A 
ATOM     20  H   UNL     1       0.591  44.999  56.038  1.00  0.00     0.167 HD
BRANCH  15  21
ATOM     21  O   UNL     1       3.496  43.298  51.459  1.00  0.00    -0.493 OA
ATOM     22  H   UNL     1       4.403  43.560  51.827  1.00  0.00     0.295 HD
ENDBRANCH  15  21
ENDBRANCH   9  11
ENDBRANCH   1   7
BRANCH   5  23
ATOM     23  C   UNL     1       9.882  47.143  53.354  1.00  0.00     0.063 C 
BRANCH  23  24
ATOM     24  C   UNL     1       9.343  47.786  54.633  1.00  0.00     0.161 C 
BRANCH  24  25
ATOM     25  O   UNL     1      10.213  47.536  55.702  1.00  0.00    -0.396 OA
ATOM     26  H   UNL     1      10.923  48.226  55.645  1.00  0.00     0.210 HD
ENDBRANCH  24  25
ENDBRANCH  23  24
ENDBRANCH   5  23
TORSDOF 6
ENDMDL
