ligand_78_conformer_1_docked
     RDKit          3D

 42 44  0  0  0  0  0  0  0  0999 V2000
    5.5040   44.3020   51.4080 C   0  0  0  0  0  0  0  0  0  0  0  0
    5.3660   45.8050   51.1760 C   0  0  0  0  0  0  0  0  0  0  0  0
    5.9310   46.5770   52.2960 N   0  0  0  0  0  0  0  0  0  0  0  0
    5.0400   47.3430   53.1840 C   0  0  0  0  0  0  0  0  0  0  0  0
    3.7160   46.6590   53.3350 C   0  0  0  0  0  0  0  0  0  0  0  0
    3.4320   45.5670   54.1240 C   0  0  0  0  0  0  0  0  0  0  0  0
    2.1390   45.2770   53.8990 N   0  0  0  0  0  0  0  0  0  0  0  0
    1.3520   44.2410   54.5570 C   0  0  0  0  0  0  0  0  0  0  0  0
    0.4000   44.8640   55.5230 C   0  0  0  0  0  0  0  0  0  0  0  0
    0.7860   45.6740   56.5320 N   0  0  0  0  0  0  0  0  0  0  0  0
   -0.2780   46.1690   57.2190 C   0  0  0  0  0  0  0  0  0  0  0  0
   -1.5220   45.7680   56.7480 C   0  0  0  0  0  0  0  0  0  0  0  0
   -1.2750   44.7590   55.4240 S   0  0  0  0  0  0  0  0  0  0  0  0
    1.6550   46.1480   53.0290 N   0  0  0  0  0  0  0  0  0  0  0  0
    2.6000   47.0000   52.6570 N   0  0  0  0  0  0  0  0  0  0  0  0
    7.3650   46.6510   52.4710 C   0  0  0  0  0  0  0  0  0  0  0  0
    8.2300   46.2820   51.4260 C   0  0  0  0  0  0  0  0  0  0  0  0
    9.6150   46.3480   51.5950 C   0  0  0  0  0  0  0  0  0  0  0  0
   10.1540   46.7880   52.8050 C   0  0  0  0  0  0  0  0  0  0  0  0
    9.3090   47.1800   53.8540 C   0  0  0  0  0  0  0  0  0  0  0  0
    9.8870   47.6190   55.1670 C   0  0  0  0  0  0  0  0  0  0  0  0
    9.1450   48.6980   55.6620 O   0  0  0  0  0  0  0  0  0  0  0  0
    7.9170   47.0970   53.6860 C   0  0  0  0  0  0  0  0  0  0  0  0
    5.5227   44.0980   52.4888 H   0  0  0  0  0  0  0  0  0  0  0  0
    4.6500   43.7805   50.9512 H   0  0  0  0  0  0  0  0  0  0  0  0
    6.4387   43.9448   50.9512 H   0  0  0  0  0  0  0  0  0  0  0  0
    5.8978   46.0745   50.2516 H   0  0  0  0  0  0  0  0  0  0  0  0
    4.2956   46.0455   51.0956 H   0  0  0  0  0  0  0  0  0  0  0  0
    5.5116   47.4365   54.1734 H   0  0  0  0  0  0  0  0  0  0  0  0
    4.8732   48.3362   52.7415 H   0  0  0  0  0  0  0  0  0  0  0  0
    4.1217   45.0401   54.7998 H   0  0  0  0  0  0  0  0  0  0  0  0
    0.7871   43.6763   53.8007 H   0  0  0  0  0  0  0  0  0  0  0  0
    2.0270   43.5627   55.0995 H   0  0  0  0  0  0  0  0  0  0  0  0
   -0.1622   46.8380   58.0844 H   0  0  0  0  0  0  0  0  0  0  0  0
   -2.4967   46.0588   57.1667 H   0  0  0  0  0  0  0  0  0  0  0  0
    7.8129   45.9386   50.4678 H   0  0  0  0  0  0  0  0  0  0  0  0
   10.2827   46.0524   50.7723 H   0  0  0  0  0  0  0  0  0  0  0  0
   11.2454   46.8275   52.9366 H   0  0  0  0  0  0  0  0  0  0  0  0
    9.8459   46.7854   55.8835 H   0  0  0  0  0  0  0  0  0  0  0  0
   10.9335   47.9263   55.0244 H   0  0  0  0  0  0  0  0  0  0  0  0
    8.2890   48.3170   55.9870 H   0  0  0  0  0  0  0  0  0  0  0  0
    7.2511   47.3838   54.5133 H   0  0  0  0  0  0  0  0  0  0  0  0
  1  2  1  0
  2  3  1  0
  3  4  1  0
  4  5  1  0
  5  6  2  0
  6  7  1  0
  7  8  1  0
  8  9  1  0
  9 10  2  0
 10 11  1  0
 11 12  2  0
 12 13  1  0
  7 14  1  0
 14 15  2  0
  3 16  1  0
 16 17  2  0
 17 18  1  0
 18 19  2  0
 19 20  1  0
 20 21  1  0
 21 22  1  0
 20 23  2  0
 15  5  1  0
 23 16  1  0
 13  9  1  0
  1 24  1  0
  1 25  1  0
  1 26  1  0
  2 27  1  0
  2 28  1  0
  4 29  1  0
  4 30  1  0
  6 31  1  0
  8 32  1  0
  8 33  1  0
 11 34  1  0
 12 35  1  0
 17 36  1  0
 18 37  1  0
 19 38  1  0
 21 39  1  0
 21 40  1  0
 22 41  1  0
 23 42  1  0
M  END
>  <meeko>  (1) 
{"is_sidechain": [false], "free_energy": -7.993, "intermolecular_energy": -11.497, "internal_energy": -0.429}

$$$$
ligand_78_conformer_1_docked
     RDKit          3D

 42 44  0  0  0  0  0  0  0  0999 V2000
    5.4570   44.2170   51.5840 C   0  0  0  0  0  0  0  0  0  0  0  0
    5.5490   45.6670   51.1100 C   0  0  0  0  0  0  0  0  0  0  0  0
    6.0750   46.5460   52.1690 N   0  0  0  0  0  0  0  0  0  0  0  0
    5.1570   47.4130   52.9270 C   0  0  0  0  0  0  0  0  0  0  0  0
    4.1970   46.5980   53.7380 C   0  0  0  0  0  0  0  0  0  0  0  0
    2.8520   46.4200   53.5000 C   0  0  0  0  0  0  0  0  0  0  0  0
    2.3960   45.6610   54.5110 N   0  0  0  0  0  0  0  0  0  0  0  0
    1.0440   45.1430   54.6690 C   0  0  0  0  0  0  0  0  0  0  0  0
    0.6360   44.4060   53.4360 C   0  0  0  0  0  0  0  0  0  0  0  0
    1.0900   43.1740   53.1210 N   0  0  0  0  0  0  0  0  0  0  0  0
    0.5090   42.6950   51.9880 C   0  0  0  0  0  0  0  0  0  0  0  0
   -0.4270   43.5400   51.4030 C   0  0  0  0  0  0  0  0  0  0  0  0
   -0.5270   44.9320   52.3430 S   0  0  0  0  0  0  0  0  0  0  0  0
    3.4070   45.3810   55.3190 N   0  0  0  0  0  0  0  0  0  0  0  0
    4.5200   45.9500   54.8770 N   0  0  0  0  0  0  0  0  0  0  0  0
    7.5000   46.6220   52.4030 C   0  0  0  0  0  0  0  0  0  0  0  0
    8.4080   46.2500   51.3950 C   0  0  0  0  0  0  0  0  0  0  0  0
    9.7850   46.3170   51.6220 C   0  0  0  0  0  0  0  0  0  0  0  0
   10.2730   46.7610   52.8520 C   0  0  0  0  0  0  0  0  0  0  0  0
    9.3850   47.1550   53.8640 C   0  0  0  0  0  0  0  0  0  0  0  0
    9.9080   47.5970   55.2000 C   0  0  0  0  0  0  0  0  0  0  0  0
    9.1720   48.7020   55.6420 O   0  0  0  0  0  0  0  0  0  0  0  0
    8.0020   47.0700   53.6390 C   0  0  0  0  0  0  0  0  0  0  0  0
    5.4553   44.1901   52.6837 H   0  0  0  0  0  0  0  0  0  0  0  0
    4.5284   43.7655   51.2047 H   0  0  0  0  0  0  0  0  0  0  0  0
    6.3211   43.6517   51.2047 H   0  0  0  0  0  0  0  0  0  0  0  0
    6.2180   45.7169   50.2383 H   0  0  0  0  0  0  0  0  0  0  0  0
    4.5377   46.0099   50.8458 H   0  0  0  0  0  0  0  0  0  0  0  0
    5.7428   48.0552   53.6011 H   0  0  0  0  0  0  0  0  0  0  0  0
    4.5835   48.0244   52.2147 H   0  0  0  0  0  0  0  0  0  0  0  0
    2.2702   46.8177   52.6554 H   0  0  0  0  0  0  0  0  0  0  0  0
    1.0136   44.4590   55.5299 H   0  0  0  0  0  0  0  0  0  0  0  0
    0.3517   45.9813   54.8362 H   0  0  0  0  0  0  0  0  0  0  0  0
    0.7614   41.7111   51.5657 H   0  0  0  0  0  0  0  0  0  0  0  0
   -1.0009   43.3349   50.4873 H   0  0  0  0  0  0  0  0  0  0  0  0
    8.0312   45.9039   50.4212 H   0  0  0  0  0  0  0  0  0  0  0  0
   10.4866   46.0189   50.8290 H   0  0  0  0  0  0  0  0  0  0  0  0
   11.3580   46.8021   53.0285 H   0  0  0  0  0  0  0  0  0  0  0  0
    9.8076   46.7751   55.9242 H   0  0  0  0  0  0  0  0  0  0  0  0
   10.9686   47.8737   55.1074 H   0  0  0  0  0  0  0  0  0  0  0  0
    8.2250   48.5110   55.4140 H   0  0  0  0  0  0  0  0  0  0  0  0
    7.3026   47.3569   54.4381 H   0  0  0  0  0  0  0  0  0  0  0  0
  1  2  1  0
  2  3  1  0
  3  4  1  0
  4  5  1  0
  5  6  2  0
  6  7  1  0
  7  8  1  0
  8  9  1  0
  9 10  2  0
 10 11  1  0
 11 12  2  0
 12 13  1  0
  7 14  1  0
 14 15  2  0
  3 16  1  0
 16 17  2  0
 17 18  1  0
 18 19  2  0
 19 20  1  0
 20 21  1  0
 21 22  1  0
 20 23  2  0
 15  5  1  0
 23 16  1  0
 13  9  1  0
  1 24  1  0
  1 25  1  0
  1 26  1  0
  2 27  1  0
  2 28  1  0
  4 29  1  0
  4 30  1  0
  6 31  1  0
  8 32  1  0
  8 33  1  0
 11 34  1  0
 12 35  1  0
 17 36  1  0
 18 37  1  0
 19 38  1  0
 21 39  1  0
 21 40  1  0
 22 41  1  0
 23 42  1  0
M  END
>  <meeko>  (2) 
{"is_sidechain": [false], "free_energy": -7.946, "intermolecular_energy": -11.069, "internal_energy": -0.79}

$$$$
ligand_78_conformer_1_docked
     RDKit          3D

 42 44  0  0  0  0  0  0  0  0999 V2000
    3.1480   46.4440   50.8600 C   0  0  0  0  0  0  0  0  0  0  0  0
    2.6300   45.1480   51.4830 C   0  0  0  0  0  0  0  0  0  0  0  0
    3.7210   44.3740   52.0990 N   0  0  0  0  0  0  0  0  0  0  0  0
    3.9070   44.4010   53.5600 C   0  0  0  0  0  0  0  0  0  0  0  0
    4.7680   45.5550   53.9700 C   0  0  0  0  0  0  0  0  0  0  0  0
    6.1400   45.5600   54.1050 C   0  0  0  0  0  0  0  0  0  0  0  0
    6.4620   46.7900   54.5400 N   0  0  0  0  0  0  0  0  0  0  0  0
    7.8050   47.3090   54.7670 C   0  0  0  0  0  0  0  0  0  0  0  0
    8.6510   47.0720   53.5600 C   0  0  0  0  0  0  0  0  0  0  0  0
    9.6840   46.2030   53.5330 N   0  0  0  0  0  0  0  0  0  0  0  0
   10.2420   46.1180   52.2950 C   0  0  0  0  0  0  0  0  0  0  0  0
    9.6420   46.9100   51.3230 C   0  0  0  0  0  0  0  0  0  0  0  0
    8.3690   47.7410   52.0440 S   0  0  0  0  0  0  0  0  0  0  0  0
    5.3520   47.5030   54.6550 N   0  0  0  0  0  0  0  0  0  0  0  0
    4.2990   46.7700   54.3230 N   0  0  0  0  0  0  0  0  0  0  0  0
    4.6590   43.6570   51.2640 C   0  0  0  0  0  0  0  0  0  0  0  0
    4.4580   42.2960   50.9740 C   0  0  0  0  0  0  0  0  0  0  0  0
    5.3660   41.6020   50.1710 C   0  0  0  0  0  0  0  0  0  0  0  0
    6.4810   42.2550   49.6440 C   0  0  0  0  0  0  0  0  0  0  0  0
    6.6890   43.6170   49.9050 C   0  0  0  0  0  0  0  0  0  0  0  0
    7.9070   44.3120   49.3690 C   0  0  0  0  0  0  0  0  0  0  0  0
    8.7000   43.3880   48.6780 O   0  0  0  0  0  0  0  0  0  0  0  0
    5.7840   44.3090   50.7260 C   0  0  0  0  0  0  0  0  0  0  0  0
    3.4292   47.1474   51.6576 H   0  0  0  0  0  0  0  0  0  0  0  0
    4.0278   46.2253   50.2370 H   0  0  0  0  0  0  0  0  0  0  0  0
    2.3598   46.8920   50.2370 H   0  0  0  0  0  0  0  0  0  0  0  0
    1.8860   45.3944   52.2548 H   0  0  0  0  0  0  0  0  0  0  0  0
    2.1792   44.5373   50.6868 H   0  0  0  0  0  0  0  0  0  0  0  0
    2.9246   44.4946   54.0460 H   0  0  0  0  0  0  0  0  0  0  0  0
    4.4018   43.4680   53.8676 H   0  0  0  0  0  0  0  0  0  0  0  0
    6.8295   44.7280   53.8990 H   0  0  0  0  0  0  0  0  0  0  0  0
    7.7497   48.3892   54.9675 H   0  0  0  0  0  0  0  0  0  0  0  0
    8.2519   46.7935   55.6299 H   0  0  0  0  0  0  0  0  0  0  0  0
   11.1044   45.4702   52.0792 H   0  0  0  0  0  0  0  0  0  0  0  0
    9.9459   46.9810   50.2682 H   0  0  0  0  0  0  0  0  0  0  0  0
    3.5798   41.7743   51.3822 H   0  0  0  0  0  0  0  0  0  0  0  0
    5.2015   40.5364   49.9531 H   0  0  0  0  0  0  0  0  0  0  0  0
    7.1987   41.6998   49.0222 H   0  0  0  0  0  0  0  0  0  0  0  0
    7.5998   45.1168   48.6849 H   0  0  0  0  0  0  0  0  0  0  0  0
    8.4827   44.7418   50.2020 H   0  0  0  0  0  0  0  0  0  0  0  0
    8.0960   42.9340   48.0350 H   0  0  0  0  0  0  0  0  0  0  0  0
    5.9563   45.3719   50.9509 H   0  0  0  0  0  0  0  0  0  0  0  0
  1  2  1  0
  2  3  1  0
  3  4  1  0
  4  5  1  0
  5  6  2  0
  6  7  1  0
  7  8  1  0
  8  9  1  0
  9 10  2  0
 10 11  1  0
 11 12  2  0
 12 13  1  0
  7 14  1  0
 14 15  2  0
  3 16  1  0
 16 17  2  0
 17 18  1  0
 18 19  2  0
 19 20  1  0
 20 21  1  0
 21 22  1  0
 20 23  2  0
 15  5  1  0
 23 16  1  0
 13  9  1  0
  1 24  1  0
  1 25  1  0
  1 26  1  0
  2 27  1  0
  2 28  1  0
  4 29  1  0
  4 30  1  0
  6 31  1  0
  8 32  1  0
  8 33  1  0
 11 34  1  0
 12 35  1  0
 17 36  1  0
 18 37  1  0
 19 38  1  0
 21 39  1  0
 21 40  1  0
 22 41  1  0
 23 42  1  0
M  END
>  <meeko>  (3) 
{"is_sidechain": [false], "free_energy": -7.917, "intermolecular_energy": -10.933, "internal_energy": -0.885}

$$$$
ligand_78_conformer_1_docked
     RDKit          3D

 42 44  0  0  0  0  0  0  0  0999 V2000
    4.5440   47.4520   54.5190 C   0  0  0  0  0  0  0  0  0  0  0  0
    5.3010   46.1840   54.1260 C   0  0  0  0  0  0  0  0  0  0  0  0
    6.0310   46.3640   52.8600 N   0  0  0  0  0  0  0  0  0  0  0  0
    5.3070   46.3030   51.5790 C   0  0  0  0  0  0  0  0  0  0  0  0
    4.6290   44.9790   51.4080 C   0  0  0  0  0  0  0  0  0  0  0  0
    3.2730   44.7440   51.3370 C   0  0  0  0  0  0  0  0  0  0  0  0
    3.1360   43.4110   51.2370 N   0  0  0  0  0  0  0  0  0  0  0  0
    1.8900   42.6750   51.0660 C   0  0  0  0  0  0  0  0  0  0  0  0
    0.9060   43.0950   52.1070 C   0  0  0  0  0  0  0  0  0  0  0  0
    1.0500   42.8240   53.4210 N   0  0  0  0  0  0  0  0  0  0  0  0
    0.0570   43.3810   54.1650 C   0  0  0  0  0  0  0  0  0  0  0  0
   -0.8780   44.1160   53.4450 C   0  0  0  0  0  0  0  0  0  0  0  0
   -0.4390   44.0630   51.8220 S   0  0  0  0  0  0  0  0  0  0  0  0
    4.3400   42.8600   51.2360 N   0  0  0  0  0  0  0  0  0  0  0  0
    5.2730   43.7950   51.3500 N   0  0  0  0  0  0  0  0  0  0  0  0
    7.4700   46.5140   52.8710 C   0  0  0  0  0  0  0  0  0  0  0  0
    8.2220   46.2580   51.7100 C   0  0  0  0  0  0  0  0  0  0  0  0
    9.6110   46.3980   51.7210 C   0  0  0  0  0  0  0  0  0  0  0  0
   10.2680   46.8000   52.8850 C   0  0  0  0  0  0  0  0  0  0  0  0
    9.5350   47.0800   54.0480 C   0  0  0  0  0  0  0  0  0  0  0  0
   10.2430   47.4770   55.3110 C   0  0  0  0  0  0  0  0  0  0  0  0
    9.5690   48.5530   55.9000 O   0  0  0  0  0  0  0  0  0  0  0  0
    8.1400   46.9220   54.0390 C   0  0  0  0  0  0  0  0  0  0  0  0
    4.4991   47.5272   55.6155 H   0  0  0  0  0  0  0  0  0  0  0  0
    5.0652   48.3311   54.1122 H   0  0  0  0  0  0  0  0  0  0  0  0
    3.5228   47.4104   54.1122 H   0  0  0  0  0  0  0  0  0  0  0  0
    6.0194   45.9353   54.9210 H   0  0  0  0  0  0  0  0  0  0  0  0
    4.5705   45.3726   53.9918 H   0  0  0  0  0  0  0  0  0  0  0  0
    4.5498   47.1005   51.5555 H   0  0  0  0  0  0  0  0  0  0  0  0
    6.0307   46.4342   50.7610 H   0  0  0  0  0  0  0  0  0  0  0  0
    2.4682   45.4935   51.3579 H   0  0  0  0  0  0  0  0  0  0  0  0
    1.4769   42.8837   50.0681 H   0  0  0  0  0  0  0  0  0  0  0  0
    2.0882   41.5978   51.1681 H   0  0  0  0  0  0  0  0  0  0  0  0
   -0.0020   43.2589   55.2566 H   0  0  0  0  0  0  0  0  0  0  0  0
   -1.7505   44.6396   53.8628 H   0  0  0  0  0  0  0  0  0  0  0  0
    7.7120   45.9453   50.7869 H   0  0  0  0  0  0  0  0  0  0  0  0
   10.1898   46.1907   50.8089 H   0  0  0  0  0  0  0  0  0  0  0  0
   11.3637   46.8976   52.8905 H   0  0  0  0  0  0  0  0  0  0  0  0
   10.2565   46.6260   56.0078 H   0  0  0  0  0  0  0  0  0  0  0  0
   11.2763   47.7728   55.0770 H   0  0  0  0  0  0  0  0  0  0  0  0
    9.0510   48.1730   56.6560 H   0  0  0  0  0  0  0  0  0  0  0  0
    7.5644   47.1194   54.9554 H   0  0  0  0  0  0  0  0  0  0  0  0
  1  2  1  0
  2  3  1  0
  3  4  1  0
  4  5  1  0
  5  6  2  0
  6  7  1  0
  7  8  1  0
  8  9  1  0
  9 10  2  0
 10 11  1  0
 11 12  2  0
 12 13  1  0
  7 14  1  0
 14 15  2  0
  3 16  1  0
 16 17  2  0
 17 18  1  0
 18 19  2  0
 19 20  1  0
 20 21  1  0
 21 22  1  0
 20 23  2  0
 15  5  1  0
 23 16  1  0
 13  9  1  0
  1 24  1  0
  1 25  1  0
  1 26  1  0
  2 27  1  0
  2 28  1  0
  4 29  1  0
  4 30  1  0
  6 31  1  0
  8 32  1  0
  8 33  1  0
 11 34  1  0
 12 35  1  0
 17 36  1  0
 18 37  1  0
 19 38  1  0
 21 39  1  0
 21 40  1  0
 22 41  1  0
 23 42  1  0
M  END
>  <meeko>  (4) 
{"is_sidechain": [false], "free_energy": -7.799, "intermolecular_energy": -10.826, "internal_energy": -0.822}

$$$$
ligand_78_conformer_1_docked
     RDKit          3D

 42 44  0  0  0  0  0  0  0  0999 V2000
    6.3660   45.5500   53.6650 C   0  0  0  0  0  0  0  0  0  0  0  0
    6.0140   46.5990   52.6130 C   0  0  0  0  0  0  0  0  0  0  0  0
    5.4640   45.9780   51.3960 N   0  0  0  0  0  0  0  0  0  0  0  0
    4.0830   46.2760   50.9780 C   0  0  0  0  0  0  0  0  0  0  0  0
    3.1020   45.8540   52.0270 C   0  0  0  0  0  0  0  0  0  0  0  0
    2.7560   44.5660   52.3700 C   0  0  0  0  0  0  0  0  0  0  0  0
    1.8080   44.6780   53.3160 N   0  0  0  0  0  0  0  0  0  0  0  0
    1.1730   43.5880   54.0470 C   0  0  0  0  0  0  0  0  0  0  0  0
   -0.3080   43.7800   54.0550 C   0  0  0  0  0  0  0  0  0  0  0  0
   -0.9980   44.2020   55.1360 N   0  0  0  0  0  0  0  0  0  0  0  0
   -2.3200   44.3660   54.8600 C   0  0  0  0  0  0  0  0  0  0  0  0
   -2.6860   44.0900   53.5480 C   0  0  0  0  0  0  0  0  0  0  0  0
   -1.3040   43.6260   52.7100 S   0  0  0  0  0  0  0  0  0  0  0  0
    1.5930   45.9630   53.5490 N   0  0  0  0  0  0  0  0  0  0  0  0
    2.3630   46.7070   52.7670 N   0  0  0  0  0  0  0  0  0  0  0  0
    6.2490   45.0100   50.6610 C   0  0  0  0  0  0  0  0  0  0  0  0
    7.5350   45.3410   50.1990 C   0  0  0  0  0  0  0  0  0  0  0  0
    8.2920   44.4090   49.4850 C   0  0  0  0  0  0  0  0  0  0  0  0
    7.7810   43.1370   49.2280 C   0  0  0  0  0  0  0  0  0  0  0  0
    6.5080   42.7800   49.6970 C   0  0  0  0  0  0  0  0  0  0  0  0
    5.9410   41.4240   49.3900 C   0  0  0  0  0  0  0  0  0  0  0  0
    5.8570   41.2620   48.0020 O   0  0  0  0  0  0  0  0  0  0  0  0
    5.7420   43.7240   50.4000 C   0  0  0  0  0  0  0  0  0  0  0  0
    6.2232   45.9755   54.6693 H   0  0  0  0  0  0  0  0  0  0  0  0
    5.7127   44.6736   53.5418 H   0  0  0  0  0  0  0  0  0  0  0  0
    7.4157   45.2451   53.5418 H   0  0  0  0  0  0  0  0  0  0  0  0
    5.2663   47.2886   53.0318 H   0  0  0  0  0  0  0  0  0  0  0  0
    6.9337   47.1376   52.3408 H   0  0  0  0  0  0  0  0  0  0  0  0
    3.9843   47.3583   50.8078 H   0  0  0  0  0  0  0  0  0  0  0  0
    3.8688   45.7194   50.0537 H   0  0  0  0  0  0  0  0  0  0  0  0
    3.1707   43.6357   51.9546 H   0  0  0  0  0  0  0  0  0  0  0  0
    1.4147   42.6319   53.5598 H   0  0  0  0  0  0  0  0  0  0  0  0
    1.5440   43.5803   55.0825 H   0  0  0  0  0  0  0  0  0  0  0  0
   -3.0457   44.6929   55.6193 H   0  0  0  0  0  0  0  0  0  0  0  0
   -3.7013   44.1624   53.1310 H   0  0  0  0  0  0  0  0  0  0  0  0
    7.9477   46.3404   50.4011 H   0  0  0  0  0  0  0  0  0  0  0  0
    9.2953   44.6795   49.1240 H   0  0  0  0  0  0  0  0  0  0  0  0
    8.3779   42.4115   48.6558 H   0  0  0  0  0  0  0  0  0  0  0  0
    6.5961   40.6475   49.8118 H   0  0  0  0  0  0  0  0  0  0  0  0
    4.9382   41.3345   49.8332 H   0  0  0  0  0  0  0  0  0  0  0  0
    5.8410   40.2830   47.8400 H   0  0  0  0  0  0  0  0  0  0  0  0
    4.7346   43.4549   50.7504 H   0  0  0  0  0  0  0  0  0  0  0  0
  1  2  1  0
  2  3  1  0
  3  4  1  0
  4  5  1  0
  5  6  2  0
  6  7  1  0
  7  8  1  0
  8  9  1  0
  9 10  2  0
 10 11  1  0
 11 12  2  0
 12 13  1  0
  7 14  1  0
 14 15  2  0
  3 16  1  0
 16 17  2  0
 17 18  1  0
 18 19  2  0
 19 20  1  0
 20 21  1  0
 21 22  1  0
 20 23  2  0
 15  5  1  0
 23 16  1  0
 13  9  1  0
  1 24  1  0
  1 25  1  0
  1 26  1  0
  2 27  1  0
  2 28  1  0
  4 29  1  0
  4 30  1  0
  6 31  1  0
  8 32  1  0
  8 33  1  0
 11 34  1  0
 12 35  1  0
 17 36  1  0
 18 37  1  0
 19 38  1  0
 21 39  1  0
 21 40  1  0
 22 41  1  0
 23 42  1  0
M  END
>  <meeko>  (5) 
{"is_sidechain": [false], "free_energy": -7.543, "intermolecular_energy": -10.373, "internal_energy": -0.906}

$$$$
