MODEL 1
REMARK VINA RESULT:    -8.102      0.000      0.000
REMARK INTER + INTRA:         -10.729
REMARK INTER:                  -9.997
REMARK INTRA:                  -0.732
REMARK UNBOUND:                -0.732
REMARK SMILES Cn1nc(-c2ccc(F)cc2)cc1C(=O)N1CC[C@@](C#N)(C(N)=O)C1
REMARK SMILES IDX 14 1 15 2 13 3 2 4 3 5 4 6 12 7 1 8 5 9 6 10 11 11 7 12
REMARK SMILES IDX 10 13 8 14 9 15 16 16 17 17 25 18 18 19 19 20 20 21 21 22
REMARK SMILES IDX 22 23 23 24 24 25
REMARK H PARENT 23 26 23 27
ROOT
ATOM      1  C   UNL     1       3.573  43.545  51.864  1.00  0.00     0.272 C 
ATOM      2  O   UNL     1       3.841  42.536  51.158  1.00  0.00    -0.267 OA
ENDROOT
BRANCH   1   3
ATOM      3  C   UNL     1       4.568  44.624  51.970  1.00  0.00     0.126 A 
ATOM      4  N   UNL     1       4.510  45.823  51.350  1.00  0.00    -0.262 N 
ATOM      5  N   UNL     1       5.563  46.547  51.696  1.00  0.00    -0.172 NA
ATOM      6  C   UNL     1       6.306  45.815  52.553  1.00  0.00     0.093 A 
ATOM      7  C   UNL     1       5.695  44.587  52.764  1.00  0.00     0.064 A 
ATOM      8  C   UNL     1       3.445  46.342  50.496  1.00  0.00     0.174 C 
BRANCH   6   9
ATOM      9  C   UNL     1       7.570  46.299  53.161  1.00  0.00     0.002 A 
ATOM     10  C   UNL     1       8.818  46.037  52.563  1.00  0.00     0.013 A 
ATOM     11  C   UNL     1       7.534  47.036  54.360  1.00  0.00     0.013 A 
ATOM     12  C   UNL     1       9.998  46.502  53.153  1.00  0.00     0.040 A 
ATOM     13  C   UNL     1       8.717  47.498  54.945  1.00  0.00     0.040 A 
ATOM     14  C   UNL     1       9.948  47.231  54.343  1.00  0.00     0.123 A 
ATOM     15  F   UNL     1      11.094  47.681  54.911  1.00  0.00    -0.207 F 
ENDBRANCH   6   9
ENDBRANCH   1   3
BRANCH   1  16
ATOM     16  N   UNL     1       2.298  43.639  52.519  1.00  0.00    -0.335 N 
ATOM     17  C   UNL     1       1.369  42.526  52.634  1.00  0.00     0.122 C 
ATOM     18  C   UNL     1       1.904  44.789  53.314  1.00  0.00     0.152 C 
ATOM     19  C   UNL     1       0.353  42.948  53.689  1.00  0.00     0.056 C 
ATOM     20  C   UNL     1       0.474  44.482  53.793  1.00  0.00     0.154 C 
ATOM     21  C   UNL     1      -0.490  45.099  52.850  1.00  0.00     0.081 C 
ATOM     22  N   UNL     1      -1.242  45.579  52.113  1.00  0.00    -0.197 NA
BRANCH  20  23
ATOM     23  C   UNL     1       0.229  44.976  55.211  1.00  0.00     0.239 C 
ATOM     24  N   UNL     1      -0.957  45.706  55.538  1.00  0.00    -0.368 N 
ATOM     25  O   UNL     1       1.073  44.750  56.123  1.00  0.00    -0.273 OA
ATOM     26  H   UNL     1      -1.682  45.918  54.818  1.00  0.00     0.159 HD
ATOM     27  H   UNL     1      -1.113  46.041  56.515  1.00  0.00     0.159 HD
ENDBRANCH  20  23
ENDBRANCH   1  16
TORSDOF 4
ENDMDL
MODEL 2
REMARK VINA RESULT:    -8.009      3.753      7.833
REMARK INTER + INTRA:         -10.614
REMARK INTER:                  -9.870
REMARK INTRA:                  -0.745
REMARK UNBOUND:                -0.732
REMARK SMILES Cn1nc(-c2ccc(F)cc2)cc1C(=O)N1CC[C@@](C#N)(C(N)=O)C1
REMARK SMILES IDX 14 1 15 2 13 3 2 4 3 5 4 6 12 7 1 8 5 9 6 10 11 11 7 12
REMARK SMILES IDX 10 13 8 14 9 15 16 16 17 17 25 18 18 19 19 20 20 21 21 22
REMARK SMILES IDX 22 23 23 24 24 25
REMARK H PARENT 23 26 23 27
ROOT
ATOM      1  C   UNL     1       5.634  44.933  52.194  1.00  0.00     0.272 C 
ATOM      2  O   UNL     1       5.856  43.801  51.687  1.00  0.00    -0.267 OA
ENDROOT
BRANCH   1   3
ATOM      3  C   UNL     1       4.266  45.264  52.625  1.00  0.00     0.126 A 
ATOM      4  N   UNL     1       3.370  46.001  51.933  1.00  0.00    -0.262 N 
ATOM      5  N   UNL     1       2.239  46.071  52.616  1.00  0.00    -0.172 NA
ATOM      6  C   UNL     1       2.399  45.369  53.757  1.00  0.00     0.093 A 
ATOM      7  C   UNL     1       3.676  44.826  53.791  1.00  0.00     0.064 A 
ATOM      8  C   UNL     1       3.522  46.580  50.600  1.00  0.00     0.174 C 
BRANCH   6   9
ATOM      9  C   UNL     1       1.337  45.217  54.783  1.00  0.00     0.002 A 
ATOM     10  C   UNL     1       1.583  45.505  56.139  1.00  0.00     0.013 A 
ATOM     11  C   UNL     1       0.054  44.778  54.404  1.00  0.00     0.013 A 
ATOM     12  C   UNL     1       0.567  45.356  57.091  1.00  0.00     0.040 A 
ATOM     13  C   UNL     1      -0.956  44.631  55.359  1.00  0.00     0.040 A 
ATOM     14  C   UNL     1      -0.700  44.919  56.701  1.00  0.00     0.123 A 
ATOM     15  F   UNL     1      -1.682  44.776  57.626  1.00  0.00    -0.207 F 
ENDBRANCH   6   9
ENDBRANCH   1   3
BRANCH   1  16
ATOM     16  N   UNL     1       6.716  45.861  52.370  1.00  0.00    -0.335 N 
ATOM     17  C   UNL     1       6.818  47.123  51.655  1.00  0.00     0.122 C 
ATOM     18  C   UNL     1       7.699  45.731  53.432  1.00  0.00     0.152 C 
ATOM     19  C   UNL     1       7.878  47.930  52.397  1.00  0.00     0.056 C 
ATOM     20  C   UNL     1       8.675  46.903  53.228  1.00  0.00     0.154 C 
ATOM     21  C   UNL     1       9.828  46.433  52.423  1.00  0.00     0.081 C 
ATOM     22  N   UNL     1      10.726  46.066  51.793  1.00  0.00    -0.197 NA
BRANCH  20  23
ATOM     23  C   UNL     1       9.147  47.489  54.551  1.00  0.00     0.239 C 
ATOM     24  N   UNL     1      10.435  47.159  55.081  1.00  0.00    -0.368 N 
ATOM     25  O   UNL     1       8.407  48.275  55.205  1.00  0.00    -0.273 OA
ATOM     26  H   UNL     1      11.081  46.512  54.576  1.00  0.00     0.159 HD
ATOM     27  H   UNL     1      10.747  47.566  55.990  1.00  0.00     0.159 HD
ENDBRANCH  20  23
ENDBRANCH   1  16
TORSDOF 4
ENDMDL
MODEL 3
REMARK VINA RESULT:    -8.001      2.072      3.127
REMARK INTER + INTRA:         -10.604
REMARK INTER:                  -9.894
REMARK INTRA:                  -0.710
REMARK UNBOUND:                -0.732
REMARK SMILES Cn1nc(-c2ccc(F)cc2)cc1C(=O)N1CC[C@@](C#N)(C(N)=O)C1
REMARK SMILES IDX 14 1 15 2 13 3 2 4 3 5 4 6 12 7 1 8 5 9 6 10 11 11 7 12
REMARK SMILES IDX 10 13 8 14 9 15 16 16 17 17 25 18 18 19 19 20 20 21 21 22
REMARK SMILES IDX 22 23 23 24 24 25
REMARK H PARENT 23 26 23 27
ROOT
ATOM      1  C   UNL     1       1.123  45.338  53.339  1.00  0.00     0.272 C 
ATOM      2  O   UNL     1       0.404  45.705  52.370  1.00  0.00    -0.267 OA
ENDROOT
BRANCH   1   3
ATOM      3  C   UNL     1       2.559  45.107  53.112  1.00  0.00     0.126 A 
ATOM      4  N   UNL     1       3.121  43.953  52.690  1.00  0.00    -0.262 N 
ATOM      5  N   UNL     1       4.429  44.119  52.576  1.00  0.00    -0.172 NA
ATOM      6  C   UNL     1       4.718  45.392  52.920  1.00  0.00     0.093 A 
ATOM      7  C   UNL     1       3.546  46.058  53.254  1.00  0.00     0.064 A 
ATOM      8  C   UNL     1       2.450  42.713  52.312  1.00  0.00     0.174 C 
BRANCH   6   9
ATOM      9  C   UNL     1       6.091  45.953  52.913  1.00  0.00     0.002 A 
ATOM     10  C   UNL     1       6.837  46.051  51.722  1.00  0.00     0.013 A 
ATOM     11  C   UNL     1       6.672  46.400  54.115  1.00  0.00     0.013 A 
ATOM     12  C   UNL     1       8.131  46.583  51.738  1.00  0.00     0.040 A 
ATOM     13  C   UNL     1       7.966  46.931  54.125  1.00  0.00     0.040 A 
ATOM     14  C   UNL     1       8.695  47.022  52.937  1.00  0.00     0.123 A 
ATOM     15  F   UNL     1       9.949  47.537  52.949  1.00  0.00    -0.207 F 
ENDBRANCH   6   9
ENDBRANCH   1   3
BRANCH   1  16
ATOM     16  N   UNL     1       0.540  45.187  54.643  1.00  0.00    -0.335 N 
ATOM     17  C   UNL     1       1.262  44.660  55.790  1.00  0.00     0.122 C 
ATOM     18  C   UNL     1      -0.756  45.742  54.995  1.00  0.00     0.152 C 
ATOM     19  C   UNL     1       0.414  45.015  57.006  1.00  0.00     0.056 C 
ATOM     20  C   UNL     1      -0.994  45.319  56.456  1.00  0.00     0.154 C 
ATOM     21  C   UNL     1      -1.790  44.067  56.469  1.00  0.00     0.081 C 
ATOM     22  N   UNL     1      -2.408  43.089  56.478  1.00  0.00    -0.197 NA
BRANCH  20  23
ATOM     23  C   UNL     1      -1.694  46.407  57.257  1.00  0.00     0.239 C 
ATOM     24  N   UNL     1      -1.642  47.774  56.838  1.00  0.00    -0.368 N 
ATOM     25  O   UNL     1      -2.332  46.120  58.308  1.00  0.00    -0.273 OA
ATOM     26  H   UNL     1      -1.125  48.060  55.977  1.00  0.00     0.159 HD
ATOM     27  H   UNL     1      -2.125  48.512  57.397  1.00  0.00     0.159 HD
ENDBRANCH  20  23
ENDBRANCH   1  16
TORSDOF 4
ENDMDL
MODEL 4
REMARK VINA RESULT:    -7.928      2.281      2.807
REMARK INTER + INTRA:         -10.514
REMARK INTER:                  -9.846
REMARK INTRA:                  -0.668
REMARK UNBOUND:                -0.732
REMARK SMILES Cn1nc(-c2ccc(F)cc2)cc1C(=O)N1CC[C@@](C#N)(C(N)=O)C1
REMARK SMILES IDX 14 1 15 2 13 3 2 4 3 5 4 6 12 7 1 8 5 9 6 10 11 11 7 12
REMARK SMILES IDX 10 13 8 14 9 15 16 16 17 17 25 18 18 19 19 20 20 21 21 22
REMARK SMILES IDX 22 23 23 24 24 25
REMARK H PARENT 23 26 23 27
ROOT
ATOM      1  C   UNL     1       2.538  46.314  52.745  1.00  0.00     0.272 C 
ATOM      2  O   UNL     1       2.043  47.402  52.345  1.00  0.00    -0.267 OA
ENDROOT
BRANCH   1   3
ATOM      3  C   UNL     1       3.935  46.296  53.210  1.00  0.00     0.126 A 
ATOM      4  N   UNL     1       4.345  46.179  54.492  1.00  0.00    -0.262 N 
ATOM      5  N   UNL     1       5.667  46.178  54.530  1.00  0.00    -0.172 NA
ATOM      6  C   UNL     1       6.120  46.287  53.264  1.00  0.00     0.093 A 
ATOM      7  C   UNL     1       5.042  46.350  52.391  1.00  0.00     0.064 A 
ATOM      8  C   UNL     1       3.523  45.989  55.684  1.00  0.00     0.174 C 
BRANCH   6   9
ATOM      9  C   UNL     1       7.560  46.317  52.906  1.00  0.00     0.002 A 
ATOM     10  C   UNL     1       8.541  46.682  53.849  1.00  0.00     0.013 A 
ATOM     11  C   UNL     1       7.966  45.976  51.602  1.00  0.00     0.013 A 
ATOM     12  C   UNL     1       9.894  46.704  53.492  1.00  0.00     0.040 A 
ATOM     13  C   UNL     1       9.319  46.000  51.251  1.00  0.00     0.040 A 
ATOM     14  C   UNL     1      10.283  46.364  52.195  1.00  0.00     0.123 A 
ATOM     15  F   UNL     1      11.594  46.385  51.852  1.00  0.00    -0.207 F 
ENDBRANCH   6   9
ENDBRANCH   1   3
BRANCH   1  16
ATOM     16  N   UNL     1       1.728  45.129  52.773  1.00  0.00    -0.335 N 
ATOM     17  C   UNL     1       2.269  43.788  52.932  1.00  0.00     0.122 C 
ATOM     18  C   UNL     1       0.278  45.167  52.861  1.00  0.00     0.152 C 
ATOM     19  C   UNL     1       1.076  42.902  53.274  1.00  0.00     0.056 C 
ATOM     20  C   UNL     1      -0.170  43.695  52.831  1.00  0.00     0.154 C 
ATOM     21  C   UNL     1      -0.499  43.322  51.433  1.00  0.00     0.081 C 
ATOM     22  N   UNL     1      -0.753  43.031  50.343  1.00  0.00    -0.197 NA
BRANCH  20  23
ATOM     23  C   UNL     1      -1.359  43.443  53.748  1.00  0.00     0.239 C 
ATOM     24  N   UNL     1      -1.278  43.728  55.147  1.00  0.00    -0.368 N 
ATOM     25  O   UNL     1      -2.436  42.974  53.286  1.00  0.00    -0.273 OA
ATOM     26  H   UNL     1      -0.408  44.115  55.575  1.00  0.00     0.159 HD
ATOM     27  H   UNL     1      -2.100  43.549  55.766  1.00  0.00     0.159 HD
ENDBRANCH  20  23
ENDBRANCH   1  16
TORSDOF 4
ENDMDL
MODEL 5
REMARK VINA RESULT:    -7.804      1.713      2.452
REMARK INTER + INTRA:         -10.361
REMARK INTER:                  -9.821
REMARK INTRA:                  -0.541
REMARK UNBOUND:                -0.732
REMARK SMILES Cn1nc(-c2ccc(F)cc2)cc1C(=O)N1CC[C@@](C#N)(C(N)=O)C1
REMARK SMILES IDX 14 1 15 2 13 3 2 4 3 5 4 6 12 7 1 8 5 9 6 10 11 11 7 12
REMARK SMILES IDX 10 13 8 14 9 15 16 16 17 17 25 18 18 19 19 20 20 21 21 22
REMARK SMILES IDX 22 23 23 24 24 25
REMARK H PARENT 23 26 23 27
ROOT
ATOM      1  C   UNL     1       1.688  43.284  51.182  1.00  0.00     0.272 C 
ATOM      2  O   UNL     1       1.169  43.004  50.068  1.00  0.00    -0.267 OA
ENDROOT
BRANCH   1   3
ATOM      3  C   UNL     1       3.148  43.455  51.264  1.00  0.00     0.126 A 
ATOM      4  N   UNL     1       4.076  42.530  50.937  1.00  0.00    -0.262 N 
ATOM      5  N   UNL     1       5.284  43.040  51.114  1.00  0.00    -0.172 NA
ATOM      6  C   UNL     1       5.139  44.309  51.551  1.00  0.00     0.093 A 
ATOM      7  C   UNL     1       3.788  44.615  51.645  1.00  0.00     0.064 A 
ATOM      8  C   UNL     1       3.859  41.195  50.385  1.00  0.00     0.174 C 
BRANCH   6   9
ATOM      9  C   UNL     1       6.280  45.207  51.859  1.00  0.00     0.002 A 
ATOM     10  C   UNL     1       6.512  45.675  53.167  1.00  0.00     0.013 A 
ATOM     11  C   UNL     1       7.156  45.604  50.831  1.00  0.00     0.013 A 
ATOM     12  C   UNL     1       7.594  46.520  53.436  1.00  0.00     0.040 A 
ATOM     13  C   UNL     1       8.236  46.449  51.106  1.00  0.00     0.040 A 
ATOM     14  C   UNL     1       8.455  46.908  52.407  1.00  0.00     0.123 A 
ATOM     15  F   UNL     1       9.502  47.726  52.671  1.00  0.00    -0.207 F 
ENDBRANCH   6   9
ENDBRANCH   1   3
BRANCH   1  16
ATOM     16  N   UNL     1       0.850  43.462  52.335  1.00  0.00    -0.335 N 
ATOM     17  C   UNL     1       0.193  42.366  53.029  1.00  0.00     0.122 C 
ATOM     18  C   UNL     1       0.750  44.724  53.048  1.00  0.00     0.152 C 
ATOM     19  C   UNL     1      -0.266  42.942  54.364  1.00  0.00     0.056 C 
ATOM     20  C   UNL     1      -0.265  44.473  54.177  1.00  0.00     0.154 C 
ATOM     21  C   UNL     1      -1.610  44.896  53.716  1.00  0.00     0.081 C 
ATOM     22  N   UNL     1      -2.659  45.224  53.355  1.00  0.00    -0.197 NA
BRANCH  20  23
ATOM     23  C   UNL     1       0.117  45.201  55.459  1.00  0.00     0.239 C 
ATOM     24  N   UNL     1      -0.790  46.117  56.079  1.00  0.00    -0.368 N 
ATOM     25  O   UNL     1       1.243  45.008  55.994  1.00  0.00    -0.273 OA
ATOM     26  H   UNL     1      -1.733  46.310  55.672  1.00  0.00     0.159 HD
ATOM     27  H   UNL     1      -0.517  46.611  56.957  1.00  0.00     0.159 HD
ENDBRANCH  20  23
ENDBRANCH   1  16
TORSDOF 4
ENDMDL
