ligand_91_conformer_5_docked
     RDKit          3D

 38 40  0  0  0  0  0  0  0  0999 V2000
    4.7490   48.2020   54.2390 O   0  0  0  0  0  0  0  0  0  0  0  0
    5.3810   47.1120   54.2990 C   0  0  0  0  0  0  0  0  0  0  0  0
    4.8200   46.0050   55.0260 N   0  0  0  0  0  0  0  0  0  0  0  0
    3.5310   46.0890   55.7130 C   0  0  0  0  0  0  0  0  0  0  0  0
    2.5230   45.0910   55.1290 C   0  0  0  0  0  0  0  0  0  0  0  0
    2.7080   44.9340   53.6490 C   0  0  0  0  0  0  0  0  0  0  0  0
    1.8710   45.5330   52.7120 C   0  0  0  0  0  0  0  0  0  0  0  0
    2.3840   45.0460   51.1890 S   0  0  0  0  0  0  0  0  0  0  0  0
    3.6400   44.0900   51.7790 C   0  0  0  0  0  0  0  0  0  0  0  0
    4.5820   43.2930   50.9610 C   0  0  0  0  0  0  0  0  0  0  0  0
    5.7620   43.8660   50.4470 C   0  0  0  0  0  0  0  0  0  0  0  0
    6.6410   43.1020   49.6740 C   0  0  0  0  0  0  0  0  0  0  0  0
    6.3560   41.7610   49.4040 C   0  0  0  0  0  0  0  0  0  0  0  0
    5.1890   41.1820   49.9070 C   0  0  0  0  0  0  0  0  0  0  0  0
    4.3060   41.9410   50.6820 C   0  0  0  0  0  0  0  0  0  0  0  0
    3.6770   44.1310   53.1310 N   0  0  0  0  0  0  0  0  0  0  0  0
    6.7030   47.0050   53.6360 C   0  0  0  0  0  0  0  0  0  0  0  0
    6.7730   46.7940   52.2460 C   0  0  0  0  0  0  0  0  0  0  0  0
    8.0120   46.6940   51.6070 C   0  0  0  0  0  0  0  0  0  0  0  0
    9.1930   46.7940   52.3450 C   0  0  0  0  0  0  0  0  0  0  0  0
   10.3920   46.6950   51.7190 F   0  0  0  0  0  0  0  0  0  0  0  0
    9.1370   46.9900   53.7280 C   0  0  0  0  0  0  0  0  0  0  0  0
   10.2820   47.0740   54.4490 F   0  0  0  0  0  0  0  0  0  0  0  0
    7.8990   47.0930   54.3720 C   0  0  0  0  0  0  0  0  0  0  0  0
    5.3560   45.1150   55.1210 H   0  0  0  0  0  0  0  0  0  0  0  0
    3.6784   45.8666   56.7802 H   0  0  0  0  0  0  0  0  0  0  0  0
    3.1314   47.1051   55.5792 H   0  0  0  0  0  0  0  0  0  0  0  0
    2.6643   44.1137   55.6136 H   0  0  0  0  0  0  0  0  0  0  0  0
    1.5083   45.4734   55.3138 H   0  0  0  0  0  0  0  0  0  0  0  0
    1.0267   46.2037   52.9296 H   0  0  0  0  0  0  0  0  0  0  0  0
    5.9930   44.9211   50.6553 H   0  0  0  0  0  0  0  0  0  0  0  0
    7.5600   43.5579   49.2770 H   0  0  0  0  0  0  0  0  0  0  0  0
    7.0500   41.1621   48.7960 H   0  0  0  0  0  0  0  0  0  0  0  0
    4.9637   40.1267   49.6933 H   0  0  0  0  0  0  0  0  0  0  0  0
    3.3893   41.4782   51.0763 H   0  0  0  0  0  0  0  0  0  0  0  0
    5.8467   46.7073   51.6590 H   0  0  0  0  0  0  0  0  0  0  0  0
    8.0568   46.5360   50.5193 H   0  0  0  0  0  0  0  0  0  0  0  0
    7.8605   47.2438   55.4609 H   0  0  0  0  0  0  0  0  0  0  0  0
  1  2  2  0
  2  3  1  0
  3  4  1  0
  4  5  1  0
  5  6  1  0
  6  7  2  0
  7  8  1  0
  8  9  1  0
  9 10  1  0
 10 11  2  0
 11 12  1  0
 12 13  2  0
 13 14  1  0
 14 15  2  0
  9 16  2  0
  2 17  1  0
 17 18  2  0
 18 19  1  0
 19 20  2  0
 20 21  1  0
 20 22  1  0
 22 23  1  0
 22 24  2  0
 16  6  1  0
 24 17  1  0
 15 10  1  0
  3 25  1  0
  4 26  1  0
  4 27  1  0
  5 28  1  0
  5 29  1  0
  7 30  1  0
 11 31  1  0
 12 32  1  0
 13 33  1  0
 14 34  1  0
 15 35  1  0
 18 36  1  0
 19 37  1  0
 24 38  1  0
M  END
>  <meeko>  (1) 
{"is_sidechain": [false], "free_energy": -9.561, "intermolecular_energy": -12.355, "internal_energy": -1.259}

$$$$
ligand_91_conformer_5_docked
     RDKit          3D

 38 40  0  0  0  0  0  0  0  0999 V2000
    4.9580   48.1990   53.8390 O   0  0  0  0  0  0  0  0  0  0  0  0
    5.5530   47.1060   54.0450 C   0  0  0  0  0  0  0  0  0  0  0  0
    4.8980   46.0740   54.8040 N   0  0  0  0  0  0  0  0  0  0  0  0
    3.5550   46.2400   55.3580 C   0  0  0  0  0  0  0  0  0  0  0  0
    2.7000   44.9860   55.1330 C   0  0  0  0  0  0  0  0  0  0  0  0
    2.6940   44.5860   53.6870 C   0  0  0  0  0  0  0  0  0  0  0  0
    1.5580   44.6550   52.8850 C   0  0  0  0  0  0  0  0  0  0  0  0
    1.9680   44.0520   51.3720 S   0  0  0  0  0  0  0  0  0  0  0  0
    3.5650   43.7210   51.7980 C   0  0  0  0  0  0  0  0  0  0  0  0
    4.5930   43.1270   50.9120 C   0  0  0  0  0  0  0  0  0  0  0  0
    5.6950   43.8850   50.4700 C   0  0  0  0  0  0  0  0  0  0  0  0
    6.6580   43.3130   49.6330 C   0  0  0  0  0  0  0  0  0  0  0  0
    6.5340   41.9820   49.2280 C   0  0  0  0  0  0  0  0  0  0  0  0
    5.4450   41.2210   49.6580 C   0  0  0  0  0  0  0  0  0  0  0  0
    4.4790   41.7880   50.4960 C   0  0  0  0  0  0  0  0  0  0  0  0
    3.7970   44.0610   53.0860 N   0  0  0  0  0  0  0  0  0  0  0  0
    6.9260   46.9190   53.5190 C   0  0  0  0  0  0  0  0  0  0  0  0
    8.0340   47.2570   54.3170 C   0  0  0  0  0  0  0  0  0  0  0  0
    9.3350   47.0840   53.8340 C   0  0  0  0  0  0  0  0  0  0  0  0
    9.5450   46.5790   52.5500 C   0  0  0  0  0  0  0  0  0  0  0  0
   10.8090   46.4140   52.0860 F   0  0  0  0  0  0  0  0  0  0  0  0
    8.4530   46.2510   51.7410 C   0  0  0  0  0  0  0  0  0  0  0  0
    8.6540   45.7740   50.4880 F   0  0  0  0  0  0  0  0  0  0  0  0
    7.1490   46.4220   52.2200 C   0  0  0  0  0  0  0  0  0  0  0  0
    5.3990   45.1840   55.0190 H   0  0  0  0  0  0  0  0  0  0  0  0
    3.6342   46.4305   56.4385 H   0  0  0  0  0  0  0  0  0  0  0  0
    3.0712   47.0861   54.8479 H   0  0  0  0  0  0  0  0  0  0  0  0
    3.1102   44.1597   55.7322 H   0  0  0  0  0  0  0  0  0  0  0  0
    1.6667   45.2096   55.4369 H   0  0  0  0  0  0  0  0  0  0  0  0
    0.5711   45.0354   53.1874 H   0  0  0  0  0  0  0  0  0  0  0  0
    5.7986   44.9337   50.7854 H   0  0  0  0  0  0  0  0  0  0  0  0
    7.5152   43.9126   49.2927 H   0  0  0  0  0  0  0  0  0  0  0  0
    7.2936   41.5336   48.5708 H   0  0  0  0  0  0  0  0  0  0  0  0
    5.3465   40.1735   49.3371 H   0  0  0  0  0  0  0  0  0  0  0  0
    3.6243   41.1826   50.8320 H   0  0  0  0  0  0  0  0  0  0  0  0
    7.8760   47.6603   55.3281 H   0  0  0  0  0  0  0  0  0  0  0  0
   10.1949   47.3466   54.4677 H   0  0  0  0  0  0  0  0  0  0  0  0
    6.2930   46.1667   51.5780 H   0  0  0  0  0  0  0  0  0  0  0  0
  1  2  2  0
  2  3  1  0
  3  4  1  0
  4  5  1  0
  5  6  1  0
  6  7  2  0
  7  8  1  0
  8  9  1  0
  9 10  1  0
 10 11  2  0
 11 12  1  0
 12 13  2  0
 13 14  1  0
 14 15  2  0
  9 16  2  0
  2 17  1  0
 17 18  2  0
 18 19  1  0
 19 20  2  0
 20 21  1  0
 20 22  1  0
 22 23  1  0
 22 24  2  0
 16  6  1  0
 24 17  1  0
 15 10  1  0
  3 25  1  0
  4 26  1  0
  4 27  1  0
  5 28  1  0
  5 29  1  0
  7 30  1  0
 11 31  1  0
 12 32  1  0
 13 33  1  0
 14 34  1  0
 15 35  1  0
 18 36  1  0
 19 37  1  0
 24 38  1  0
M  END
>  <meeko>  (2) 
{"is_sidechain": [false], "free_energy": -9.181, "intermolecular_energy": -11.941, "internal_energy": -1.182}

$$$$
ligand_91_conformer_5_docked
     RDKit          3D

 38 40  0  0  0  0  0  0  0  0999 V2000
    2.0230   43.0680   50.7100 O   0  0  0  0  0  0  0  0  0  0  0  0
    3.0100   42.8260   51.4560 C   0  0  0  0  0  0  0  0  0  0  0  0
    2.8010   42.6170   52.8640 N   0  0  0  0  0  0  0  0  0  0  0  0
    1.4750   42.6770   53.4780 C   0  0  0  0  0  0  0  0  0  0  0  0
    1.2870   43.9770   54.2710 C   0  0  0  0  0  0  0  0  0  0  0  0
    2.1020   45.0920   53.6880 C   0  0  0  0  0  0  0  0  0  0  0  0
    1.5790   46.0330   52.8050 C   0  0  0  0  0  0  0  0  0  0  0  0
    2.8340   47.0500   52.3450 S   0  0  0  0  0  0  0  0  0  0  0  0
    3.9900   46.2520   53.2780 C   0  0  0  0  0  0  0  0  0  0  0  0
    5.4240   46.6080   53.3730 C   0  0  0  0  0  0  0  0  0  0  0  0
    6.1380   46.4310   54.5730 C   0  0  0  0  0  0  0  0  0  0  0  0
    7.4920   46.7720   54.6490 C   0  0  0  0  0  0  0  0  0  0  0  0
    8.1480   47.2930   53.5310 C   0  0  0  0  0  0  0  0  0  0  0  0
    7.4510   47.4740   52.3350 C   0  0  0  0  0  0  0  0  0  0  0  0
    6.0960   47.1340   52.2530 C   0  0  0  0  0  0  0  0  0  0  0  0
    3.4340   45.2110   53.9390 N   0  0  0  0  0  0  0  0  0  0  0  0
    4.3700   42.7860   50.8670 C   0  0  0  0  0  0  0  0  0  0  0  0
    4.9250   41.5550   50.4710 C   0  0  0  0  0  0  0  0  0  0  0  0
    6.2050   41.5010   49.9120 C   0  0  0  0  0  0  0  0  0  0  0  0
    6.9480   42.6720   49.7490 C   0  0  0  0  0  0  0  0  0  0  0  0
    8.1900   42.6140   49.2060 F   0  0  0  0  0  0  0  0  0  0  0  0
    6.4150   43.9000   50.1500 C   0  0  0  0  0  0  0  0  0  0  0  0
    7.1410   45.0360   50.0060 F   0  0  0  0  0  0  0  0  0  0  0  0
    5.1330   43.9580   50.7100 C   0  0  0  0  0  0  0  0  0  0  0  0
    3.6160   42.4630   53.4980 H   0  0  0  0  0  0  0  0  0  0  0  0
    0.7114   42.6255   52.6879 H   0  0  0  0  0  0  0  0  0  0  0  0
    1.3745   41.8292   54.1716 H   0  0  0  0  0  0  0  0  0  0  0  0
    0.2243   44.2601   54.2487 H   0  0  0  0  0  0  0  0  0  0  0  0
    1.6218   43.8053   55.3046 H   0  0  0  0  0  0  0  0  0  0  0  0
    0.5335   46.0985   52.4695 H   0  0  0  0  0  0  0  0  0  0  0  0
    5.6274   46.0216   55.4571 H   0  0  0  0  0  0  0  0  0  0  0  0
    8.0418   46.6297   55.5911 H   0  0  0  0  0  0  0  0  0  0  0  0
    9.2132   47.5605   53.5930 H   0  0  0  0  0  0  0  0  0  0  0  0
    7.9680   47.8847   51.4552 H   0  0  0  0  0  0  0  0  0  0  0  0
    5.5525   47.2786   51.3077 H   0  0  0  0  0  0  0  0  0  0  0  0
    4.3472   40.6282   50.6024 H   0  0  0  0  0  0  0  0  0  0  0  0
    6.6277   40.5346   49.6000 H   0  0  0  0  0  0  0  0  0  0  0  0
    4.7195   44.9260   51.0293 H   0  0  0  0  0  0  0  0  0  0  0  0
  1  2  2  0
  2  3  1  0
  3  4  1  0
  4  5  1  0
  5  6  1  0
  6  7  2  0
  7  8  1  0
  8  9  1  0
  9 10  1  0
 10 11  2  0
 11 12  1  0
 12 13  2  0
 13 14  1  0
 14 15  2  0
  9 16  2  0
  2 17  1  0
 17 18  2  0
 18 19  1  0
 19 20  2  0
 20 21  1  0
 20 22  1  0
 22 23  1  0
 22 24  2  0
 16  6  1  0
 24 17  1  0
 15 10  1  0
  3 25  1  0
  4 26  1  0
  4 27  1  0
  5 28  1  0
  5 29  1  0
  7 30  1  0
 11 31  1  0
 12 32  1  0
 13 33  1  0
 14 34  1  0
 15 35  1  0
 18 36  1  0
 19 37  1  0
 24 38  1  0
M  END
>  <meeko>  (3) 
{"is_sidechain": [false], "free_energy": -8.805, "intermolecular_energy": -11.209, "internal_energy": -1.428}

$$$$
ligand_91_conformer_5_docked
     RDKit          3D

 38 40  0  0  0  0  0  0  0  0999 V2000
    2.9110   43.8850   53.1530 O   0  0  0  0  0  0  0  0  0  0  0  0
    3.3580   44.2710   52.0380 C   0  0  0  0  0  0  0  0  0  0  0  0
    3.0150   45.5790   51.5490 N   0  0  0  0  0  0  0  0  0  0  0  0
    2.1540   46.4950   52.2980 C   0  0  0  0  0  0  0  0  0  0  0  0
    2.9690   47.6270   52.9380 C   0  0  0  0  0  0  0  0  0  0  0  0
    4.2600   47.1140   53.5040 C   0  0  0  0  0  0  0  0  0  0  0  0
    4.3910   46.6780   54.8200 C   0  0  0  0  0  0  0  0  0  0  0  0
    6.0010   46.2600   55.0560 S   0  0  0  0  0  0  0  0  0  0  0  0
    6.4660   46.6540   53.4850 C   0  0  0  0  0  0  0  0  0  0  0  0
    7.8350   46.5450   52.9330 C   0  0  0  0  0  0  0  0  0  0  0  0
    8.9520   46.9850   53.6690 C   0  0  0  0  0  0  0  0  0  0  0  0
   10.2400   46.8770   53.1350 C   0  0  0  0  0  0  0  0  0  0  0  0
   10.4290   46.3310   51.8640 C   0  0  0  0  0  0  0  0  0  0  0  0
    9.3290   45.8910   51.1230 C   0  0  0  0  0  0  0  0  0  0  0  0
    8.0390   45.9960   51.6520 C   0  0  0  0  0  0  0  0  0  0  0  0
    5.4080   47.1080   52.7740 N   0  0  0  0  0  0  0  0  0  0  0  0
    4.2110   43.3540   51.2440 C   0  0  0  0  0  0  0  0  0  0  0  0
    3.8050   42.0220   51.0400 C   0  0  0  0  0  0  0  0  0  0  0  0
    4.5980   41.1460   50.2920 C   0  0  0  0  0  0  0  0  0  0  0  0
    5.8050   41.5860   49.7450 C   0  0  0  0  0  0  0  0  0  0  0  0
    6.5710   40.7320   49.0210 F   0  0  0  0  0  0  0  0  0  0  0  0
    6.2260   42.9030   49.9510 C   0  0  0  0  0  0  0  0  0  0  0  0
    7.4050   43.3280   49.4330 F   0  0  0  0  0  0  0  0  0  0  0  0
    5.4350   43.7830   50.6990 C   0  0  0  0  0  0  0  0  0  0  0  0
    3.3400   45.8900   50.6080 H   0  0  0  0  0  0  0  0  0  0  0  0
    1.4120   46.9306   51.6127 H   0  0  0  0  0  0  0  0  0  0  0  0
    1.6574   45.9283   53.0993 H   0  0  0  0  0  0  0  0  0  0  0  0
    3.1893   48.3868   52.1737 H   0  0  0  0  0  0  0  0  0  0  0  0
    2.3777   48.0610   53.7578 H   0  0  0  0  0  0  0  0  0  0  0  0
    3.5871   46.6182   55.5684 H   0  0  0  0  0  0  0  0  0  0  0  0
    8.8105   47.4166   54.6708 H   0  0  0  0  0  0  0  0  0  0  0  0
   11.1063   47.2231   53.7178 H   0  0  0  0  0  0  0  0  0  0  0  0
   11.4431   46.2472   51.4462 H   0  0  0  0  0  0  0  0  0  0  0  0
    9.4783   45.4612   50.1215 H   0  0  0  0  0  0  0  0  0  0  0  0
    7.1774   45.6474   51.0637 H   0  0  0  0  0  0  0  0  0  0  0  0
    2.8575   41.6675   51.4719 H   0  0  0  0  0  0  0  0  0  0  0  0
    4.2701   40.1079   50.1342 H   0  0  0  0  0  0  0  0  0  0  0  0
    5.7728   44.8171   50.8618 H   0  0  0  0  0  0  0  0  0  0  0  0
  1  2  2  0
  2  3  1  0
  3  4  1  0
  4  5  1  0
  5  6  1  0
  6  7  2  0
  7  8  1  0
  8  9  1  0
  9 10  1  0
 10 11  2  0
 11 12  1  0
 12 13  2  0
 13 14  1  0
 14 15  2  0
  9 16  2  0
  2 17  1  0
 17 18  2  0
 18 19  1  0
 19 20  2  0
 20 21  1  0
 20 22  1  0
 22 23  1  0
 22 24  2  0
 16  6  1  0
 24 17  1  0
 15 10  1  0
  3 25  1  0
  4 26  1  0
  4 27  1  0
  5 28  1  0
  5 29  1  0
  7 30  1  0
 11 31  1  0
 12 32  1  0
 13 33  1  0
 14 34  1  0
 15 35  1  0
 18 36  1  0
 19 37  1  0
 24 38  1  0
M  END
>  <meeko>  (4) 
{"is_sidechain": [false], "free_energy": -8.764, "intermolecular_energy": -11.279, "internal_energy": -1.305}

$$$$
ligand_91_conformer_5_docked
     RDKit          3D

 38 40  0  0  0  0  0  0  0  0999 V2000
    3.3480   42.9010   52.2170 O   0  0  0  0  0  0  0  0  0  0  0  0
    3.7170   43.8210   51.4370 C   0  0  0  0  0  0  0  0  0  0  0  0
    2.8630   44.9590   51.2270 N   0  0  0  0  0  0  0  0  0  0  0  0
    1.5640   45.0970   51.8850 C   0  0  0  0  0  0  0  0  0  0  0  0
    1.6460   46.0470   53.0860 C   0  0  0  0  0  0  0  0  0  0  0  0
    2.9810   45.9540   53.7630 C   0  0  0  0  0  0  0  0  0  0  0  0
    3.1680   45.3210   54.9890 C   0  0  0  0  0  0  0  0  0  0  0  0
    4.7820   45.5080   55.4140 S   0  0  0  0  0  0  0  0  0  0  0  0
    5.1760   46.3880   54.0320 C   0  0  0  0  0  0  0  0  0  0  0  0
    6.5120   46.9350   53.7040 C   0  0  0  0  0  0  0  0  0  0  0  0
    6.7330   47.6410   52.5050 C   0  0  0  0  0  0  0  0  0  0  0  0
    8.0000   48.1510   52.2070 C   0  0  0  0  0  0  0  0  0  0  0  0
    9.0600   47.9630   53.0970 C   0  0  0  0  0  0  0  0  0  0  0  0
    8.8540   47.2640   54.2880 C   0  0  0  0  0  0  0  0  0  0  0  0
    7.5880   46.7510   54.5920 C   0  0  0  0  0  0  0  0  0  0  0  0
    4.0890   46.5490   53.2430 N   0  0  0  0  0  0  0  0  0  0  0  0
    5.0170   43.6960   50.7350 C   0  0  0  0  0  0  0  0  0  0  0  0
    5.3430   42.4980   50.0740 C   0  0  0  0  0  0  0  0  0  0  0  0
    6.5640   42.3670   49.4060 C   0  0  0  0  0  0  0  0  0  0  0  0
    7.4760   43.4240   49.3970 C   0  0  0  0  0  0  0  0  0  0  0  0
    8.6600   43.2910   48.7480 F   0  0  0  0  0  0  0  0  0  0  0  0
    7.1700   44.6150   50.0610 C   0  0  0  0  0  0  0  0  0  0  0  0
    8.0610   45.6380   50.0660 F   0  0  0  0  0  0  0  0  0  0  0  0
    5.9490   44.7520   50.7310 C   0  0  0  0  0  0  0  0  0  0  0  0
    3.1380   45.7030   50.5490 H   0  0  0  0  0  0  0  0  0  0  0  0
    0.8367   45.4951   51.1622 H   0  0  0  0  0  0  0  0  0  0  0  0
    1.2509   44.1064   52.2466 H   0  0  0  0  0  0  0  0  0  0  0  0
    1.4917   47.0790   52.7380 H   0  0  0  0  0  0  0  0  0  0  0  0
    0.8686   45.7605   53.8096 H   0  0  0  0  0  0  0  0  0  0  0  0
    2.3987   44.7944   55.5728 H   0  0  0  0  0  0  0  0  0  0  0  0
    5.9032   47.7919   51.7988 H   0  0  0  0  0  0  0  0  0  0  0  0
    8.1627   48.7019   51.2689 H   0  0  0  0  0  0  0  0  0  0  0  0
   10.0560   48.3652   52.8598 H   0  0  0  0  0  0  0  0  0  0  0  0
    9.6888   47.1162   54.9889 H   0  0  0  0  0  0  0  0  0  0  0  0
    7.4329   46.2002   55.5315 H   0  0  0  0  0  0  0  0  0  0  0  0
    4.6323   41.6584   50.0828 H   0  0  0  0  0  0  0  0  0  0  0  0
    6.8069   41.4286   48.8860 H   0  0  0  0  0  0  0  0  0  0  0  0
    5.7159   45.6894   51.2573 H   0  0  0  0  0  0  0  0  0  0  0  0
  1  2  2  0
  2  3  1  0
  3  4  1  0
  4  5  1  0
  5  6  1  0
  6  7  2  0
  7  8  1  0
  8  9  1  0
  9 10  1  0
 10 11  2  0
 11 12  1  0
 12 13  2  0
 13 14  1  0
 14 15  2  0
  9 16  2  0
  2 17  1  0
 17 18  2  0
 18 19  1  0
 19 20  2  0
 20 21  1  0
 20 22  1  0
 22 23  1  0
 22 24  2  0
 16  6  1  0
 24 17  1  0
 15 10  1  0
  3 25  1  0
  4 26  1  0
  4 27  1  0
  5 28  1  0
  5 29  1  0
  7 30  1  0
 11 31  1  0
 12 32  1  0
 13 33  1  0
 14 34  1  0
 15 35  1  0
 18 36  1  0
 19 37  1  0
 24 38  1  0
M  END
>  <meeko>  (5) 
{"is_sidechain": [false], "free_energy": -8.708, "intermolecular_energy": -11.289, "internal_energy": -1.224}

$$$$
