ligand_49_conformer_4_docked
     RDKit          3D

 44 47  0  0  0  0  0  0  0  0999 V2000
    0.2540   45.3820   51.3630 O   0  0  0  0  0  0  0  0  0  0  0  0
    1.3400   44.7460   51.4550 C   0  0  0  0  0  0  0  0  0  0  0  0
    1.3330   43.3040   51.0210 C   0  0  0  0  0  0  0  0  0  0  0  0
    2.4660   42.3180   52.0600 S   0  0  0  0  0  0  0  0  0  0  0  0
    3.6130   41.9220   50.7390 C   0  0  0  0  0  0  0  0  0  0  0  0
    3.2640   40.9660   49.7750 C   0  0  0  0  0  0  0  0  0  0  0  0
    4.1620   40.6430   48.7530 C   0  0  0  0  0  0  0  0  0  0  0  0
    5.4020   41.2840   48.6810 C   0  0  0  0  0  0  0  0  0  0  0  0
    5.7460   42.2530   49.6310 C   0  0  0  0  0  0  0  0  0  0  0  0
    7.4280   43.1450   49.5110 Br  0  0  0  0  0  0  0  0  0  0  0  0
    4.8520   42.5710   50.6600 C   0  0  0  0  0  0  0  0  0  0  0  0
    2.5350   45.4250   51.9130 N   0  0  0  0  0  0  0  0  0  0  0  0
    3.6000   45.7320   50.9290 C   0  0  0  0  0  0  0  0  0  0  0  0
    4.9990   45.5550   51.5380 C   0  0  0  0  0  0  0  0  0  0  0  0
    5.0550   46.2270   52.8720 C   0  0  0  0  0  0  0  0  0  0  0  0
    3.9480   46.4690   53.6340 C   0  0  0  0  0  0  0  0  0  0  0  0
    4.2970   47.0880   54.7770 N   0  0  0  0  0  0  0  0  0  0  0  0
    5.6420   47.2060   54.6790 C   0  0  0  0  0  0  0  0  0  0  0  0
    6.1370   46.6820   53.5330 N   0  0  0  0  0  0  0  0  0  0  0  0
    7.5180   46.6740   53.1260 C   0  0  0  0  0  0  0  0  0  0  0  0
    8.5180   47.0980   54.0200 C   0  0  0  0  0  0  0  0  0  0  0  0
    9.8620   47.0850   53.6370 C   0  0  0  0  0  0  0  0  0  0  0  0
   10.2240   46.6410   52.3620 C   0  0  0  0  0  0  0  0  0  0  0  0
   11.5280   46.6270   51.9920 F   0  0  0  0  0  0  0  0  0  0  0  0
    9.2390   46.2060   51.4700 C   0  0  0  0  0  0  0  0  0  0  0  0
    7.8930   46.2180   51.8500 C   0  0  0  0  0  0  0  0  0  0  0  0
    2.5550   46.1070   53.2270 C   0  0  0  0  0  0  0  0  0  0  0  0
    0.3133   42.9024   51.1155 H   0  0  0  0  0  0  0  0  0  0  0  0
    1.6680   43.2456   49.9749 H   0  0  0  0  0  0  0  0  0  0  0  0
    2.2834   40.4698   49.8225 H   0  0  0  0  0  0  0  0  0  0  0  0
    3.8922   39.8833   48.0046 H   0  0  0  0  0  0  0  0  0  0  0  0
    6.1079   41.0269   47.8775 H   0  0  0  0  0  0  0  0  0  0  0  0
    5.1226   43.3313   51.4074 H   0  0  0  0  0  0  0  0  0  0  0  0
    3.4969   45.0550   50.0682 H   0  0  0  0  0  0  0  0  0  0  0  0
    3.4898   46.7814   50.6181 H   0  0  0  0  0  0  0  0  0  0  0  0
    5.2123   44.4827   51.6592 H   0  0  0  0  0  0  0  0  0  0  0  0
    5.7474   46.0066   50.8702 H   0  0  0  0  0  0  0  0  0  0  0  0
    6.2678   47.6786   55.4504 H   0  0  0  0  0  0  0  0  0  0  0  0
    8.2402   47.4421   55.0272 H   0  0  0  0  0  0  0  0  0  0  0  0
   10.6365   47.4249   54.3403 H   0  0  0  0  0  0  0  0  0  0  0  0
    9.5232   45.8537   50.4675 H   0  0  0  0  0  0  0  0  0  0  0  0
    7.1232   45.8686   51.1463 H   0  0  0  0  0  0  0  0  0  0  0  0
    2.1239   45.4362   53.9847 H   0  0  0  0  0  0  0  0  0  0  0  0
    1.9671   47.0331   53.1449 H   0  0  0  0  0  0  0  0  0  0  0  0
  1  2  2  0
  2  3  1  0
  3  4  1  0
  4  5  1  0
  5  6  2  0
  6  7  1  0
  7  8  2  0
  8  9  1  0
  9 10  1  0
  9 11  2  0
  2 12  1  0
 12 13  1  0
 13 14  1  0
 14 15  1  0
 15 16  2  0
 16 17  1  0
 17 18  2  0
 18 19  1  0
 19 20  1  0
 20 21  2  0
 21 22  1  0
 22 23  2  0
 23 24  1  0
 23 25  1  0
 25 26  2  0
 16 27  1  0
 11  5  1  0
 27 12  1  0
 19 15  1  0
 26 20  1  0
  3 28  1  0
  3 29  1  0
  6 30  1  0
  7 31  1  0
  8 32  1  0
 11 33  1  0
 13 34  1  0
 13 35  1  0
 14 36  1  0
 14 37  1  0
 18 38  1  0
 21 39  1  0
 22 40  1  0
 25 41  1  0
 26 42  1  0
 27 43  1  0
 27 44  1  0
M  END
>  <meeko>  (1) 
{"is_sidechain": [false], "free_energy": -8.843, "intermolecular_energy": -11.428, "internal_energy": -0.324}

$$$$
ligand_49_conformer_4_docked
     RDKit          3D

 44 47  0  0  0  0  0  0  0  0999 V2000
    1.8870   42.2850   50.4130 O   0  0  0  0  0  0  0  0  0  0  0  0
    1.5160   43.3360   51.0050 C   0  0  0  0  0  0  0  0  0  0  0  0
    0.0740   43.4160   51.4300 C   0  0  0  0  0  0  0  0  0  0  0  0
   -0.2560   42.2470   52.7940 S   0  0  0  0  0  0  0  0  0  0  0  0
   -0.0830   43.4580   54.1060 C   0  0  0  0  0  0  0  0  0  0  0  0
   -1.2100   43.8650   54.8340 C   0  0  0  0  0  0  0  0  0  0  0  0
   -1.0800   44.8200   55.8470 C   0  0  0  0  0  0  0  0  0  0  0  0
    0.1740   45.3600   56.1460 C   0  0  0  0  0  0  0  0  0  0  0  0
    1.3040   44.9420   55.4340 C   0  0  0  0  0  0  0  0  0  0  0  0
    3.0180   45.6600   55.8650 Br  0  0  0  0  0  0  0  0  0  0  0  0
    1.1750   43.9920   54.4130 C   0  0  0  0  0  0  0  0  0  0  0  0
    2.4810   44.3790   51.2920 N   0  0  0  0  0  0  0  0  0  0  0  0
    3.8770   44.2040   50.8260 C   0  0  0  0  0  0  0  0  0  0  0  0
    4.8860   44.7440   51.8510 C   0  0  0  0  0  0  0  0  0  0  0  0
    4.4580   46.1020   52.3080 C   0  0  0  0  0  0  0  0  0  0  0  0
    3.1660   46.5370   52.2500 C   0  0  0  0  0  0  0  0  0  0  0  0
    3.0770   47.7950   52.7220 N   0  0  0  0  0  0  0  0  0  0  0  0
    4.3520   48.0970   53.0660 C   0  0  0  0  0  0  0  0  0  0  0  0
    5.2170   47.0820   52.8360 N   0  0  0  0  0  0  0  0  0  0  0  0
    6.6380   47.1020   53.0720 C   0  0  0  0  0  0  0  0  0  0  0  0
    7.5280   47.2640   51.9950 C   0  0  0  0  0  0  0  0  0  0  0  0
    8.9080   47.2940   52.2160 C   0  0  0  0  0  0  0  0  0  0  0  0
    9.4130   47.1700   53.5130 C   0  0  0  0  0  0  0  0  0  0  0  0
   10.7520   47.2010   53.7270 F   0  0  0  0  0  0  0  0  0  0  0  0
    8.5360   47.0210   54.5920 C   0  0  0  0  0  0  0  0  0  0  0  0
    7.1560   46.9900   54.3740 C   0  0  0  0  0  0  0  0  0  0  0  0
    2.0300   45.7240   51.7160 C   0  0  0  0  0  0  0  0  0  0  0  0
   -0.1476   44.4390   51.7683 H   0  0  0  0  0  0  0  0  0  0  0  0
   -0.5646   43.1534   50.5737 H   0  0  0  0  0  0  0  0  0  0  0  0
   -2.1962   43.4331   54.6083 H   0  0  0  0  0  0  0  0  0  0  0  0
   -1.9667   45.1471   56.4099 H   0  0  0  0  0  0  0  0  0  0  0  0
    0.2728   46.1137   56.9411 H   0  0  0  0  0  0  0  0  0  0  0  0
    2.0626   43.6649   53.8516 H   0  0  0  0  0  0  0  0  0  0  0  0
    4.0686   43.1326   50.6664 H   0  0  0  0  0  0  0  0  0  0  0  0
    4.0011   44.7684   49.8900 H   0  0  0  0  0  0  0  0  0  0  0  0
    4.9302   44.0641   52.7146 H   0  0  0  0  0  0  0  0  0  0  0  0
    5.8800   44.8117   51.3847 H   0  0  0  0  0  0  0  0  0  0  0  0
    4.6531   49.0669   53.4886 H   0  0  0  0  0  0  0  0  0  0  0  0
    7.1357   47.3677   50.9726 H   0  0  0  0  0  0  0  0  0  0  0  0
    9.5975   47.4154   51.3675 H   0  0  0  0  0  0  0  0  0  0  0  0
    8.9329   46.9281   55.6137 H   0  0  0  0  0  0  0  0  0  0  0  0
    6.4705   46.8772   55.2269 H   0  0  0  0  0  0  0  0  0  0  0  0
    1.2677   45.6148   52.5015 H   0  0  0  0  0  0  0  0  0  0  0  0
    1.6152   46.2426   50.8391 H   0  0  0  0  0  0  0  0  0  0  0  0
  1  2  2  0
  2  3  1  0
  3  4  1  0
  4  5  1  0
  5  6  2  0
  6  7  1  0
  7  8  2  0
  8  9  1  0
  9 10  1  0
  9 11  2  0
  2 12  1  0
 12 13  1  0
 13 14  1  0
 14 15  1  0
 15 16  2  0
 16 17  1  0
 17 18  2  0
 18 19  1  0
 19 20  1  0
 20 21  2  0
 21 22  1  0
 22 23  2  0
 23 24  1  0
 23 25  1  0
 25 26  2  0
 16 27  1  0
 11  5  1  0
 27 12  1  0
 19 15  1  0
 26 20  1  0
  3 28  1  0
  3 29  1  0
  6 30  1  0
  7 31  1  0
  8 32  1  0
 11 33  1  0
 13 34  1  0
 13 35  1  0
 14 36  1  0
 14 37  1  0
 18 38  1  0
 21 39  1  0
 22 40  1  0
 25 41  1  0
 26 42  1  0
 27 43  1  0
 27 44  1  0
M  END
>  <meeko>  (2) 
{"is_sidechain": [false], "free_energy": -8.665, "intermolecular_energy": -10.598, "internal_energy": -0.924}

$$$$
ligand_49_conformer_4_docked
     RDKit          3D

 44 47  0  0  0  0  0  0  0  0999 V2000
    1.9870   42.3040   50.4640 O   0  0  0  0  0  0  0  0  0  0  0  0
    2.4170   42.6190   51.6080 C   0  0  0  0  0  0  0  0  0  0  0  0
    3.8470   42.2710   51.9270 C   0  0  0  0  0  0  0  0  0  0  0  0
    4.6970   41.6340   50.4420 S   0  0  0  0  0  0  0  0  0  0  0  0
    5.8780   42.9810   50.3270 C   0  0  0  0  0  0  0  0  0  0  0  0
    6.9450   42.8990   49.4230 C   0  0  0  0  0  0  0  0  0  0  0  0
    7.8750   43.9400   49.3420 C   0  0  0  0  0  0  0  0  0  0  0  0
    7.7330   45.0710   50.1530 C   0  0  0  0  0  0  0  0  0  0  0  0
    6.6580   45.1640   51.0430 C   0  0  0  0  0  0  0  0  0  0  0  0
    6.4550   46.7220   52.1250 Br  0  0  0  0  0  0  0  0  0  0  0  0
    5.7310   44.1190   51.1320 C   0  0  0  0  0  0  0  0  0  0  0  0
    1.5550   43.3340   52.5280 N   0  0  0  0  0  0  0  0  0  0  0  0
    1.9890   44.6620   53.0230 C   0  0  0  0  0  0  0  0  0  0  0  0
    1.6090   44.8670   54.4960 C   0  0  0  0  0  0  0  0  0  0  0  0
    0.1850   44.4650   54.7080 C   0  0  0  0  0  0  0  0  0  0  0  0
   -0.4720   43.5870   53.8960 C   0  0  0  0  0  0  0  0  0  0  0  0
   -1.7390   43.4170   54.3210 N   0  0  0  0  0  0  0  0  0  0  0  0
   -1.8180   44.2160   55.4120 C   0  0  0  0  0  0  0  0  0  0  0  0
   -0.6590   44.8620   55.6810 N   0  0  0  0  0  0  0  0  0  0  0  0
   -0.4320   45.7960   56.7530 C   0  0  0  0  0  0  0  0  0  0  0  0
   -1.4740   46.6360   57.1870 C   0  0  0  0  0  0  0  0  0  0  0  0
   -1.2660   47.5390   58.2330 C   0  0  0  0  0  0  0  0  0  0  0  0
   -0.0200   47.6080   58.8620 C   0  0  0  0  0  0  0  0  0  0  0  0
    0.1810   48.4830   59.8790 F   0  0  0  0  0  0  0  0  0  0  0  0
    1.0190   46.7690   58.4470 C   0  0  0  0  0  0  0  0  0  0  0  0
    0.8140   45.8650   57.4000 C   0  0  0  0  0  0  0  0  0  0  0  0
    0.1400   42.9330   52.6980 C   0  0  0  0  0  0  0  0  0  0  0  0
    4.3678   43.1719   52.2837 H   0  0  0  0  0  0  0  0  0  0  0  0
    3.8587   41.4931   52.7046 H   0  0  0  0  0  0  0  0  0  0  0  0
    7.0513   42.0153   48.7766 H   0  0  0  0  0  0  0  0  0  0  0  0
    8.7190   43.8696   48.6400 H   0  0  0  0  0  0  0  0  0  0  0  0
    8.4672   45.8877   50.0907 H   0  0  0  0  0  0  0  0  0  0  0  0
    4.8870   44.1909   51.8338 H   0  0  0  0  0  0  0  0  0  0  0  0
    3.0814   44.7413   52.9217 H   0  0  0  0  0  0  0  0  0  0  0  0
    1.4823   45.4345   52.4259 H   0  0  0  0  0  0  0  0  0  0  0  0
    2.2618   44.2505   55.1315 H   0  0  0  0  0  0  0  0  0  0  0  0
    1.7320   45.9276   54.7604 H   0  0  0  0  0  0  0  0  0  0  0  0
   -2.7298   44.3284   56.0170 H   0  0  0  0  0  0  0  0  0  0  0  0
   -2.4587   46.5815   56.6998 H   0  0  0  0  0  0  0  0  0  0  0  0
   -2.0843   48.1965   58.5618 H   0  0  0  0  0  0  0  0  0  0  0  0
    1.9986   46.8202   58.9447 H   0  0  0  0  0  0  0  0  0  0  0  0
    1.6330   45.2037   57.0807 H   0  0  0  0  0  0  0  0  0  0  0  0
    0.0897   41.8411   52.8214 H   0  0  0  0  0  0  0  0  0  0  0  0
   -0.4197   43.2510   51.8060 H   0  0  0  0  0  0  0  0  0  0  0  0
  1  2  2  0
  2  3  1  0
  3  4  1  0
  4  5  1  0
  5  6  2  0
  6  7  1  0
  7  8  2  0
  8  9  1  0
  9 10  1  0
  9 11  2  0
  2 12  1  0
 12 13  1  0
 13 14  1  0
 14 15  1  0
 15 16  2  0
 16 17  1  0
 17 18  2  0
 18 19  1  0
 19 20  1  0
 20 21  2  0
 21 22  1  0
 22 23  2  0
 23 24  1  0
 23 25  1  0
 25 26  2  0
 16 27  1  0
 11  5  1  0
 27 12  1  0
 19 15  1  0
 26 20  1  0
  3 28  1  0
  3 29  1  0
  6 30  1  0
  7 31  1  0
  8 32  1  0
 11 33  1  0
 13 34  1  0
 13 35  1  0
 14 36  1  0
 14 37  1  0
 18 38  1  0
 21 39  1  0
 22 40  1  0
 25 41  1  0
 26 42  1  0
 27 43  1  0
 27 44  1  0
M  END
>  <meeko>  (3) 
{"is_sidechain": [false], "free_energy": -8.647, "intermolecular_energy": -11.144, "internal_energy": -0.355}

$$$$
ligand_49_conformer_4_docked
     RDKit          3D

 44 47  0  0  0  0  0  0  0  0999 V2000
    1.9910   42.9960   50.7080 O   0  0  0  0  0  0  0  0  0  0  0  0
    2.3890   43.1850   51.8910 C   0  0  0  0  0  0  0  0  0  0  0  0
    3.8150   42.8170   52.2050 C   0  0  0  0  0  0  0  0  0  0  0  0
    4.9590   43.6430   51.0450 S   0  0  0  0  0  0  0  0  0  0  0  0
    5.6870   44.7360   52.2680 C   0  0  0  0  0  0  0  0  0  0  0  0
    5.3770   44.5700   53.6240 C   0  0  0  0  0  0  0  0  0  0  0  0
    5.9310   45.4300   54.5780 C   0  0  0  0  0  0  0  0  0  0  0  0
    6.8050   46.4470   54.1820 C   0  0  0  0  0  0  0  0  0  0  0  0
    7.1310   46.6030   52.8300 C   0  0  0  0  0  0  0  0  0  0  0  0
    8.3470   47.9740   52.2990 Br  0  0  0  0  0  0  0  0  0  0  0  0
    6.5710   45.7480   51.8730 C   0  0  0  0  0  0  0  0  0  0  0  0
    1.4970   43.7830   52.8640 N   0  0  0  0  0  0  0  0  0  0  0  0
    1.7610   45.1700   53.3120 C   0  0  0  0  0  0  0  0  0  0  0  0
    1.4590   45.3470   54.8080 C   0  0  0  0  0  0  0  0  0  0  0  0
    0.1290   44.7430   55.1260 C   0  0  0  0  0  0  0  0  0  0  0  0
   -0.4440   43.7590   54.3730 C   0  0  0  0  0  0  0  0  0  0  0  0
   -1.6380   43.4130   54.8910 N   0  0  0  0  0  0  0  0  0  0  0  0
   -1.7590   44.2130   55.9760 C   0  0  0  0  0  0  0  0  0  0  0  0
   -0.6940   45.0300   56.1530 N   0  0  0  0  0  0  0  0  0  0  0  0
   -0.5350   46.0090   57.1970 C   0  0  0  0  0  0  0  0  0  0  0  0
    0.7150   46.1740   57.8230 C   0  0  0  0  0  0  0  0  0  0  0  0
    0.8810   47.1290   58.8300 C   0  0  0  0  0  0  0  0  0  0  0  0
   -0.1940   47.9330   59.2180 C   0  0  0  0  0  0  0  0  0  0  0  0
   -0.0310   48.8600   60.1940 F   0  0  0  0  0  0  0  0  0  0  0  0
   -1.4360   47.7860   58.5950 C   0  0  0  0  0  0  0  0  0  0  0  0
   -1.6070   46.8310   57.5870 C   0  0  0  0  0  0  0  0  0  0  0  0
    0.1740   43.1790   53.1400 C   0  0  0  0  0  0  0  0  0  0  0  0
    4.0521   43.1308   53.2323 H   0  0  0  0  0  0  0  0  0  0  0  0
    3.9317   41.7278   52.1048 H   0  0  0  0  0  0  0  0  0  0  0  0
    4.6981   43.7636   53.9385 H   0  0  0  0  0  0  0  0  0  0  0  0
    5.6787   45.3060   55.6415 H   0  0  0  0  0  0  0  0  0  0  0  0
    7.2365   47.1247   54.9334 H   0  0  0  0  0  0  0  0  0  0  0  0
    6.8256   45.8712   50.8100 H   0  0  0  0  0  0  0  0  0  0  0  0
    2.8194   45.4086   53.1306 H   0  0  0  0  0  0  0  0  0  0  0  0
    1.1038   45.8461   52.7455 H   0  0  0  0  0  0  0  0  0  0  0  0
    2.2392   44.8470   55.4006 H   0  0  0  0  0  0  0  0  0  0  0  0
    1.4412   46.4193   55.0527 H   0  0  0  0  0  0  0  0  0  0  0  0
   -2.6322   44.2007   56.6448 H   0  0  0  0  0  0  0  0  0  0  0  0
    1.5662   45.5476   57.5179 H   0  0  0  0  0  0  0  0  0  0  0  0
    1.8597   47.2479   59.3180 H   0  0  0  0  0  0  0  0  0  0  0  0
   -2.2808   48.4222   58.8976 H   0  0  0  0  0  0  0  0  0  0  0  0
   -2.5857   46.7226   57.0968 H   0  0  0  0  0  0  0  0  0  0  0  0
    0.2972   42.0946   53.2775 H   0  0  0  0  0  0  0  0  0  0  0  0
   -0.4883   43.3915   52.2878 H   0  0  0  0  0  0  0  0  0  0  0  0
  1  2  2  0
  2  3  1  0
  3  4  1  0
  4  5  1  0
  5  6  2  0
  6  7  1  0
  7  8  2  0
  8  9  1  0
  9 10  1  0
  9 11  2  0
  2 12  1  0
 12 13  1  0
 13 14  1  0
 14 15  1  0
 15 16  2  0
 16 17  1  0
 17 18  2  0
 18 19  1  0
 19 20  1  0
 20 21  2  0
 21 22  1  0
 22 23  2  0
 23 24  1  0
 23 25  1  0
 25 26  2  0
 16 27  1  0
 11  5  1  0
 27 12  1  0
 19 15  1  0
 26 20  1  0
  3 28  1  0
  3 29  1  0
  6 30  1  0
  7 31  1  0
  8 32  1  0
 11 33  1  0
 13 34  1  0
 13 35  1  0
 14 36  1  0
 14 37  1  0
 18 38  1  0
 21 39  1  0
 22 40  1  0
 25 41  1  0
 26 42  1  0
 27 43  1  0
 27 44  1  0
M  END
>  <meeko>  (4) 
{"is_sidechain": [false], "free_energy": -8.413, "intermolecular_energy": -10.555, "internal_energy": -0.641}

$$$$
ligand_49_conformer_4_docked
     RDKit          3D

 44 47  0  0  0  0  0  0  0  0999 V2000
    5.3200   44.5560   55.3080 O   0  0  0  0  0  0  0  0  0  0  0  0
    4.4390   45.4000   54.9830 C   0  0  0  0  0  0  0  0  0  0  0  0
    4.8610   46.8430   54.9090 C   0  0  0  0  0  0  0  0  0  0  0  0
    4.3220   47.5870   53.3300 S   0  0  0  0  0  0  0  0  0  0  0  0
    5.5750   46.7870   52.3250 C   0  0  0  0  0  0  0  0  0  0  0  0
    5.1920   45.9560   51.2640 C   0  0  0  0  0  0  0  0  0  0  0  0
    6.1660   45.3190   50.4880 C   0  0  0  0  0  0  0  0  0  0  0  0
    7.5220   45.5220   50.7600 C   0  0  0  0  0  0  0  0  0  0  0  0
    7.9070   46.3660   51.8070 C   0  0  0  0  0  0  0  0  0  0  0  0
    9.7600   46.6620   52.1550 Br  0  0  0  0  0  0  0  0  0  0  0  0
    6.9340   46.9980   52.5900 C   0  0  0  0  0  0  0  0  0  0  0  0
    3.1010   44.9520   54.6510 N   0  0  0  0  0  0  0  0  0  0  0  0
    2.9080   44.1320   53.4320 C   0  0  0  0  0  0  0  0  0  0  0  0
    1.5990   44.4880   52.7130 C   0  0  0  0  0  0  0  0  0  0  0  0
    0.4830   44.5520   53.7050 C   0  0  0  0  0  0  0  0  0  0  0  0
    0.6780   44.7900   55.0350 C   0  0  0  0  0  0  0  0  0  0  0  0
   -0.5000   44.7860   55.6860 N   0  0  0  0  0  0  0  0  0  0  0  0
   -1.4040   44.5440   54.7080 C   0  0  0  0  0  0  0  0  0  0  0  0
   -0.8380   44.4070   53.4860 N   0  0  0  0  0  0  0  0  0  0  0  0
   -1.5280   44.1210   52.2540 C   0  0  0  0  0  0  0  0  0  0  0  0
   -1.9960   45.1750   51.4490 C   0  0  0  0  0  0  0  0  0  0  0  0
   -2.6580   44.9080   50.2470 C   0  0  0  0  0  0  0  0  0  0  0  0
   -2.8520   43.5870   49.8330 C   0  0  0  0  0  0  0  0  0  0  0  0
   -3.4920   43.3280   48.6660 F   0  0  0  0  0  0  0  0  0  0  0  0
   -2.3790   42.5320   50.6190 C   0  0  0  0  0  0  0  0  0  0  0  0
   -1.7180   42.7960   51.8220 C   0  0  0  0  0  0  0  0  0  0  0  0
    2.0200   45.0000   55.6610 C   0  0  0  0  0  0  0  0  0  0  0  0
    4.4062   47.3964   55.7438 H   0  0  0  0  0  0  0  0  0  0  0  0
    5.9579   46.8965   54.9714 H   0  0  0  0  0  0  0  0  0  0  0  0
    4.1255   45.8045   51.0413 H   0  0  0  0  0  0  0  0  0  0  0  0
    5.8644   44.6574   49.6626 H   0  0  0  0  0  0  0  0  0  0  0  0
    8.2865   45.0179   50.1506 H   0  0  0  0  0  0  0  0  0  0  0  0
    7.2369   47.6608   53.4140 H   0  0  0  0  0  0  0  0  0  0  0  0
    3.7506   44.3070   52.7469 H   0  0  0  0  0  0  0  0  0  0  0  0
    2.8591   43.0750   53.7325 H   0  0  0  0  0  0  0  0  0  0  0  0
    1.7065   45.4652   52.2195 H   0  0  0  0  0  0  0  0  0  0  0  0
    1.3747   43.7178   51.9603 H   0  0  0  0  0  0  0  0  0  0  0  0
   -2.4865   44.4667   54.8876 H   0  0  0  0  0  0  0  0  0  0  0  0
   -1.8401   46.2163   51.7673 H   0  0  0  0  0  0  0  0  0  0  0  0
   -3.0265   45.7381   49.6265 H   0  0  0  0  0  0  0  0  0  0  0  0
   -2.5272   41.4928   50.2903 H   0  0  0  0  0  0  0  0  0  0  0  0
   -1.3441   41.9624   52.4346 H   0  0  0  0  0  0  0  0  0  0  0  0
    2.0348   45.9830   56.1545 H   0  0  0  0  0  0  0  0  0  0  0  0
    2.1916   44.1944   56.3901 H   0  0  0  0  0  0  0  0  0  0  0  0
  1  2  2  0
  2  3  1  0
  3  4  1  0
  4  5  1  0
  5  6  2  0
  6  7  1  0
  7  8  2  0
  8  9  1  0
  9 10  1  0
  9 11  2  0
  2 12  1  0
 12 13  1  0
 13 14  1  0
 14 15  1  0
 15 16  2  0
 16 17  1  0
 17 18  2  0
 18 19  1  0
 19 20  1  0
 20 21  2  0
 21 22  1  0
 22 23  2  0
 23 24  1  0
 23 25  1  0
 25 26  2  0
 16 27  1  0
 11  5  1  0
 27 12  1  0
 19 15  1  0
 26 20  1  0
  3 28  1  0
  3 29  1  0
  6 30  1  0
  7 31  1  0
  8 32  1  0
 11 33  1  0
 13 34  1  0
 13 35  1  0
 14 36  1  0
 14 37  1  0
 18 38  1  0
 21 39  1  0
 22 40  1  0
 25 41  1  0
 26 42  1  0
 27 43  1  0
 27 44  1  0
M  END
>  <meeko>  (5) 
{"is_sidechain": [false], "free_energy": -8.36, "intermolecular_energy": -10.1, "internal_energy": -1.027}

$$$$
