MODEL 1
REMARK VINA RESULT:    -8.410      0.000      0.000
REMARK INTER + INTRA:         -11.740
REMARK INTER:                 -10.868
REMARK INTRA:                  -0.872
REMARK UNBOUND:                -0.872
REMARK SMILES O=C(N[C@H](c1cccnc1)C1CC1)c1cc(-c2ccccc2)[nH]n1
REMARK SMILES IDX 1 1 2 2 3 3 14 5 15 6 24 7 16 8 23 9 17 11 18 12 22 13 19 14
REMARK SMILES IDX 21 15 20 16 4 17 5 18 6 19 10 20 7 21 9 22 8 23 11 24 12 25
REMARK SMILES IDX 13 26
REMARK H PARENT 3 4 23 10
ROOT
ATOM      1  O   UNL     1       1.931  46.812  52.452  1.00  0.00    -0.267 OA
ATOM      2  C   UNL     1       2.561  46.060  53.246  1.00  0.00     0.272 C 
ATOM      3  N   UNL     1       1.914  44.902  53.799  1.00  0.00    -0.344 N 
ATOM      4  H   UNL     1       2.458  44.258  54.416  1.00  0.00     0.164 HD
ENDROOT
BRANCH   2   5
ATOM      5  C   UNL     1       3.954  46.396  53.588  1.00  0.00     0.150 A 
ATOM      6  C   UNL     1       5.079  46.189  52.807  1.00  0.00     0.064 A 
ATOM      7  N   UNL     1       4.312  46.964  54.757  1.00  0.00    -0.170 NA
ATOM      8  C   UNL     1       6.125  46.671  53.577  1.00  0.00     0.066 A 
ATOM      9  N   UNL     1       5.624  47.129  54.742  1.00  0.00    -0.277 N 
ATOM     10  H   UNL     1       6.160  47.534  55.540  1.00  0.00     0.190 HD
BRANCH   8  11
ATOM     11  C   UNL     1       7.561  46.685  53.204  1.00  0.00    -0.000 A 
ATOM     12  C   UNL     1       7.968  46.330  51.903  1.00  0.00     0.010 A 
ATOM     13  C   UNL     1       8.543  47.057  54.144  1.00  0.00     0.010 A 
ATOM     14  C   UNL     1       9.322  46.344  51.555  1.00  0.00     0.001 A 
ATOM     15  C   UNL     1       9.895  47.070  53.788  1.00  0.00     0.001 A 
ATOM     16  C   UNL     1      10.285  46.712  52.496  1.00  0.00     0.000 A 
ENDBRANCH   8  11
ENDBRANCH   2   5
BRANCH   3  17
ATOM     17  C   UNL     1       0.508  44.591  53.517  1.00  0.00     0.117 C 
BRANCH  17  18
ATOM     18  C   UNL     1      -0.281  44.529  54.804  1.00  0.00    -0.007 A 
ATOM     19  C   UNL     1      -1.516  43.863  54.851  1.00  0.00     0.009 A 
ATOM     20  C   UNL     1       0.217  45.099  55.989  1.00  0.00     0.116 A 
ATOM     21  C   UNL     1      -2.228  43.793  56.049  1.00  0.00     0.020 A 
ATOM     22  N   UNL     1      -0.496  45.017  57.143  1.00  0.00    -0.264 NA
ATOM     23  C   UNL     1      -1.698  44.384  57.197  1.00  0.00     0.111 A 
ENDBRANCH  17  18
BRANCH  17  24
ATOM     24  C   UNL     1       0.402  43.235  52.793  1.00  0.00     0.016 C 
ATOM     25  C   UNL     1       1.383  43.029  51.649  1.00  0.00     0.006 C 
ATOM     26  C   UNL     1      -0.084  43.296  51.352  1.00  0.00     0.006 C 
ENDBRANCH  17  24
ENDBRANCH   3  17
TORSDOF 5
ENDMDL
MODEL 2
REMARK VINA RESULT:    -8.367      2.445      8.461
REMARK INTER + INTRA:         -11.685
REMARK INTER:                 -11.041
REMARK INTRA:                  -0.644
REMARK UNBOUND:                -0.872
REMARK SMILES O=C(N[C@H](c1cccnc1)C1CC1)c1cc(-c2ccccc2)[nH]n1
REMARK SMILES IDX 1 1 2 2 3 3 14 5 15 6 24 7 16 8 23 9 17 11 18 12 22 13 19 14
REMARK SMILES IDX 21 15 20 16 4 17 5 18 6 19 10 20 7 21 9 22 8 23 11 24 12 25
REMARK SMILES IDX 13 26
REMARK H PARENT 3 4 23 10
ROOT
ATOM      1  O   UNL     1       3.931  46.810  51.729  1.00  0.00    -0.267 OA
ATOM      2  C   UNL     1       4.428  46.134  52.671  1.00  0.00     0.272 C 
ATOM      3  N   UNL     1       5.833  45.836  52.674  1.00  0.00    -0.344 N 
ATOM      4  H   UNL     1       6.245  45.319  53.483  1.00  0.00     0.164 HD
ENDROOT
BRANCH   2   5
ATOM      5  C   UNL     1       3.543  45.663  53.751  1.00  0.00     0.150 A 
ATOM      6  C   UNL     1       2.160  45.594  53.727  1.00  0.00     0.064 A 
ATOM      7  N   UNL     1       3.998  45.232  54.944  1.00  0.00    -0.170 NA
ATOM      8  C   UNL     1       1.820  45.093  54.973  1.00  0.00     0.066 A 
ATOM      9  N   UNL     1       2.952  44.887  55.677  1.00  0.00    -0.277 N 
ATOM     10  H   UNL     1       3.028  44.536  56.656  1.00  0.00     0.190 HD
BRANCH   8  11
ATOM     11  C   UNL     1       0.448  44.825  55.472  1.00  0.00    -0.000 A 
ATOM     12  C   UNL     1       0.022  45.337  56.713  1.00  0.00     0.010 A 
ATOM     13  C   UNL     1      -0.454  44.055  54.711  1.00  0.00     0.010 A 
ATOM     14  C   UNL     1      -1.270  45.082  57.180  1.00  0.00     0.001 A 
ATOM     15  C   UNL     1      -1.746  43.805  55.184  1.00  0.00     0.001 A 
ATOM     16  C   UNL     1      -2.154  44.316  56.417  1.00  0.00     0.000 A 
ENDBRANCH   8  11
ENDBRANCH   2   5
BRANCH   3  17
ATOM     17  C   UNL     1       6.714  46.244  51.573  1.00  0.00     0.117 C 
BRANCH  17  18
ATOM     18  C   UNL     1       6.966  45.077  50.646  1.00  0.00    -0.007 A 
ATOM     19  C   UNL     1       5.981  44.095  50.453  1.00  0.00     0.009 A 
ATOM     20  C   UNL     1       8.169  44.968  49.927  1.00  0.00     0.116 A 
ATOM     21  C   UNL     1       6.214  43.032  49.580  1.00  0.00     0.020 A 
ATOM     22  N   UNL     1       8.372  43.923  49.082  1.00  0.00    -0.264 NA
ATOM     23  C   UNL     1       7.429  42.961  48.897  1.00  0.00     0.111 A 
ENDBRANCH  17  18
BRANCH  17  24
ATOM     24  C   UNL     1       8.059  46.746  52.131  1.00  0.00     0.016 C 
ATOM     25  C   UNL     1       7.971  47.548  53.420  1.00  0.00     0.006 C 
ATOM     26  C   UNL     1       8.261  48.254  52.105  1.00  0.00     0.006 C 
ENDBRANCH  17  24
ENDBRANCH   3  17
TORSDOF 5
ENDMDL
MODEL 3
REMARK VINA RESULT:    -7.951      2.027      8.385
REMARK INTER + INTRA:         -11.147
REMARK INTER:                 -10.534
REMARK INTRA:                  -0.613
REMARK UNBOUND:                -0.872
REMARK SMILES O=C(N[C@H](c1cccnc1)C1CC1)c1cc(-c2ccccc2)[nH]n1
REMARK SMILES IDX 1 1 2 2 3 3 14 5 15 6 24 7 16 8 23 9 17 11 18 12 22 13 19 14
REMARK SMILES IDX 21 15 20 16 4 17 5 18 6 19 10 20 7 21 9 22 8 23 11 24 12 25
REMARK SMILES IDX 13 26
REMARK H PARENT 3 4 23 10
ROOT
ATOM      1  O   UNL     1       4.560  43.471  52.680  1.00  0.00    -0.267 OA
ATOM      2  C   UNL     1       4.272  44.688  52.848  1.00  0.00     0.272 C 
ATOM      3  N   UNL     1       5.271  45.696  52.625  1.00  0.00    -0.344 N 
ATOM      4  H   UNL     1       5.011  46.703  52.717  1.00  0.00     0.164 HD
ENDROOT
BRANCH   2   5
ATOM      5  C   UNL     1       2.906  45.043  53.271  1.00  0.00     0.150 A 
ATOM      6  C   UNL     1       2.199  44.518  54.340  1.00  0.00     0.064 A 
ATOM      7  N   UNL     1       2.149  45.958  52.633  1.00  0.00    -0.170 NA
ATOM      8  C   UNL     1       0.982  45.177  54.303  1.00  0.00     0.066 A 
ATOM      9  N   UNL     1       0.989  46.035  53.263  1.00  0.00    -0.277 N 
ATOM     10  H   UNL     1       0.211  46.659  52.958  1.00  0.00     0.190 HD
BRANCH   8  11
ATOM     11  C   UNL     1      -0.155  44.982  55.237  1.00  0.00    -0.000 A 
ATOM     12  C   UNL     1      -0.278  45.777  56.393  1.00  0.00     0.010 A 
ATOM     13  C   UNL     1      -1.133  44.000  54.983  1.00  0.00     0.010 A 
ATOM     14  C   UNL     1      -1.350  45.592  57.272  1.00  0.00     0.001 A 
ATOM     15  C   UNL     1      -2.202  43.820  55.865  1.00  0.00     0.001 A 
ATOM     16  C   UNL     1      -2.311  44.614  57.009  1.00  0.00     0.000 A 
ENDBRANCH   8  11
ENDBRANCH   2   5
BRANCH   3  17
ATOM     17  C   UNL     1       6.652  45.352  52.265  1.00  0.00     0.117 C 
BRANCH  17  18
ATOM     18  C   UNL     1       7.623  46.198  53.056  1.00  0.00    -0.007 A 
ATOM     19  C   UNL     1       8.935  46.393  52.597  1.00  0.00     0.009 A 
ATOM     20  C   UNL     1       7.228  46.841  54.242  1.00  0.00     0.116 A 
ATOM     21  C   UNL     1       9.820  47.191  53.322  1.00  0.00     0.020 A 
ATOM     22  N   UNL     1       8.108  47.615  54.930  1.00  0.00    -0.264 NA
ATOM     23  C   UNL     1       9.384  47.799  54.500  1.00  0.00     0.111 A 
ENDBRANCH  17  18
BRANCH  17  24
ATOM     24  C   UNL     1       6.881  45.592  50.761  1.00  0.00     0.016 C 
ATOM     25  C   UNL     1       6.178  44.614  49.831  1.00  0.00     0.006 C 
ATOM     26  C   UNL     1       7.681  44.519  50.038  1.00  0.00     0.006 C 
ENDBRANCH  17  24
ENDBRANCH   3  17
TORSDOF 5
ENDMDL
MODEL 4
REMARK VINA RESULT:    -7.920      1.624      1.987
REMARK INTER + INTRA:         -11.107
REMARK INTER:                 -10.297
REMARK INTRA:                  -0.810
REMARK UNBOUND:                -0.872
REMARK SMILES O=C(N[C@H](c1cccnc1)C1CC1)c1cc(-c2ccccc2)[nH]n1
REMARK SMILES IDX 1 1 2 2 3 3 14 5 15 6 24 7 16 8 23 9 17 11 18 12 22 13 19 14
REMARK SMILES IDX 21 15 20 16 4 17 5 18 6 19 10 20 7 21 9 22 8 23 11 24 12 25
REMARK SMILES IDX 13 26
REMARK H PARENT 3 4 23 10
ROOT
ATOM      1  O   UNL     1       2.023  45.400  51.164  1.00  0.00    -0.267 OA
ATOM      2  C   UNL     1       2.834  45.190  52.107  1.00  0.00     0.272 C 
ATOM      3  N   UNL     1       2.357  44.665  53.356  1.00  0.00    -0.344 N 
ATOM      4  H   UNL     1       3.042  44.447  54.114  1.00  0.00     0.164 HD
ENDROOT
BRANCH   2   5
ATOM      5  C   UNL     1       4.261  45.492  51.897  1.00  0.00     0.150 A 
ATOM      6  C   UNL     1       5.185  45.871  52.857  1.00  0.00     0.064 A 
ATOM      7  N   UNL     1       4.858  45.438  50.690  1.00  0.00    -0.170 NA
ATOM      8  C   UNL     1       6.365  46.035  52.152  1.00  0.00     0.066 A 
ATOM      9  N   UNL     1       6.129  45.765  50.852  1.00  0.00    -0.277 N 
ATOM     10  H   UNL     1       6.812  45.819  50.065  1.00  0.00     0.190 HD
BRANCH   8  11
ATOM     11  C   UNL     1       7.678  46.443  52.712  1.00  0.00    -0.000 A 
ATOM     12  C   UNL     1       7.760  47.049  53.980  1.00  0.00     0.010 A 
ATOM     13  C   UNL     1       8.866  46.228  51.985  1.00  0.00     0.010 A 
ATOM     14  C   UNL     1       8.998  47.433  54.505  1.00  0.00     0.001 A 
ATOM     15  C   UNL     1      10.100  46.613  52.516  1.00  0.00     0.001 A 
ATOM     16  C   UNL     1      10.167  47.216  53.773  1.00  0.00     0.000 A 
ENDBRANCH   8  11
ENDBRANCH   2   5
BRANCH   3  17
ATOM     17  C   UNL     1       0.931  44.419  53.600  1.00  0.00     0.117 C 
BRANCH  17  18
ATOM     18  C   UNL     1       0.532  44.958  54.954  1.00  0.00    -0.007 A 
ATOM     19  C   UNL     1      -0.809  44.929  55.366  1.00  0.00     0.009 A 
ATOM     20  C   UNL     1       1.495  45.461  55.848  1.00  0.00     0.116 A 
ATOM     21  C   UNL     1      -1.166  45.410  56.626  1.00  0.00     0.020 A 
ATOM     22  N   UNL     1       1.122  45.923  57.071  1.00  0.00    -0.264 NA
ATOM     23  C   UNL     1      -0.176  45.910  57.473  1.00  0.00     0.111 A 
ENDBRANCH  17  18
BRANCH  17  24
ATOM     24  C   UNL     1       0.640  42.907  53.552  1.00  0.00     0.016 C 
ATOM     25  C   UNL     1       0.989  42.219  52.241  1.00  0.00     0.006 C 
ATOM     26  C   UNL     1      -0.466  42.481  52.598  1.00  0.00     0.006 C 
ENDBRANCH  17  24
ENDBRANCH   3  17
TORSDOF 5
ENDMDL
MODEL 5
REMARK VINA RESULT:    -7.211      1.761      3.228
REMARK INTER + INTRA:         -10.191
REMARK INTER:                 -10.107
REMARK INTRA:                  -0.083
REMARK UNBOUND:                -0.872
REMARK SMILES O=C(N[C@H](c1cccnc1)C1CC1)c1cc(-c2ccccc2)[nH]n1
REMARK SMILES IDX 1 1 2 2 3 3 14 5 15 6 24 7 16 8 23 9 17 11 18 12 22 13 19 14
REMARK SMILES IDX 21 15 20 16 4 17 5 18 6 19 10 20 7 21 9 22 8 23 11 24 12 25
REMARK SMILES IDX 13 26
REMARK H PARENT 3 4 23 10
ROOT
ATOM      1  O   UNL     1       1.707  46.137  53.378  1.00  0.00    -0.267 OA
ATOM      2  C   UNL     1       2.412  45.105  53.551  1.00  0.00     0.272 C 
ATOM      3  N   UNL     1       1.831  43.933  54.145  1.00  0.00    -0.344 N 
ATOM      4  H   UNL     1       2.408  43.067  54.239  1.00  0.00     0.164 HD
ENDROOT
BRANCH   2   5
ATOM      5  C   UNL     1       3.826  45.132  53.135  1.00  0.00     0.150 A 
ATOM      6  C   UNL     1       4.825  45.957  53.624  1.00  0.00     0.064 A 
ATOM      7  N   UNL     1       4.331  44.324  52.182  1.00  0.00    -0.170 NA
ATOM      8  C   UNL     1       5.953  45.590  52.910  1.00  0.00     0.066 A 
ATOM      9  N   UNL     1       5.617  44.604  52.053  1.00  0.00    -0.277 N 
ATOM     10  H   UNL     1       6.241  44.131  51.364  1.00  0.00     0.190 HD
BRANCH   8  11
ATOM     11  C   UNL     1       7.311  46.172  53.046  1.00  0.00    -0.000 A 
ATOM     12  C   UNL     1       7.737  46.724  54.270  1.00  0.00     0.010 A 
ATOM     13  C   UNL     1       8.201  46.181  51.953  1.00  0.00     0.010 A 
ATOM     14  C   UNL     1       9.016  47.273  54.395  1.00  0.00     0.001 A 
ATOM     15  C   UNL     1       9.480  46.730  52.085  1.00  0.00     0.001 A 
ATOM     16  C   UNL     1       9.887  47.277  53.303  1.00  0.00     0.000 A 
ENDBRANCH   8  11
ENDBRANCH   2   5
BRANCH   3  17
ATOM     17  C   UNL     1       0.444  43.913  54.622  1.00  0.00     0.117 C 
BRANCH  17  18
ATOM     18  C   UNL     1      -0.510  43.831  53.452  1.00  0.00    -0.007 A 
ATOM     19  C   UNL     1      -1.487  44.819  53.258  1.00  0.00     0.009 A 
ATOM     20  C   UNL     1      -0.416  42.790  52.511  1.00  0.00     0.116 A 
ATOM     21  C   UNL     1      -2.349  44.747  52.164  1.00  0.00     0.020 A 
ATOM     22  N   UNL     1      -1.267  42.742  51.453  1.00  0.00    -0.264 NA
ATOM     23  C   UNL     1      -2.224  43.688  51.263  1.00  0.00     0.111 A 
ENDBRANCH  17  18
BRANCH  17  24
ATOM     24  C   UNL     1       0.144  45.190  55.429  1.00  0.00     0.016 C 
ATOM     25  C   UNL     1       0.863  45.300  56.765  1.00  0.00     0.006 C 
ATOM     26  C   UNL     1      -0.624  44.983  56.726  1.00  0.00     0.006 C 
ENDBRANCH  17  24
ENDBRANCH   3  17
TORSDOF 5
ENDMDL
