ligand_35_conformer_1_docked
     RDKit          3D

 41 43  0  0  0  0  0  0  0  0999 V2000
   10.2520   47.3210   54.7260 C   0  0  0  0  0  0  0  0  0  0  0  0
    9.4060   47.6160   53.6200 O   0  0  0  0  0  0  0  0  0  0  0  0
    8.0530   47.2540   53.5400 C   0  0  0  0  0  0  0  0  0  0  0  0
    7.4680   46.6170   54.6400 C   0  0  0  0  0  0  0  0  0  0  0  0
    6.1250   46.2300   54.6080 C   0  0  0  0  0  0  0  0  0  0  0  0
    5.3420   46.4810   53.4710 C   0  0  0  0  0  0  0  0  0  0  0  0
    3.9310   46.0500   53.4290 C   0  0  0  0  0  0  0  0  0  0  0  0
    3.4760   44.9280   54.0270 N   0  0  0  0  0  0  0  0  0  0  0  0
    2.1580   44.9480   53.7550 C   0  0  0  0  0  0  0  0  0  0  0  0
    1.1800   43.9640   54.3200 C   0  0  0  0  0  0  0  0  0  0  0  0
    0.9310   42.7990   53.3500 C   0  0  0  0  0  0  0  0  0  0  0  0
    2.1790   42.3170   52.7560 N   0  0  0  0  0  0  0  0  0  0  0  0
    2.4840   42.4820   51.3630 C   0  0  0  0  0  0  0  0  0  0  0  0
    1.5410   42.6300   50.5370 O   0  0  0  0  0  0  0  0  0  0  0  0
    3.8880   42.4980   50.8820 C   0  0  0  0  0  0  0  0  0  0  0  0
    4.5340   41.3200   50.4600 C   0  0  0  0  0  0  0  0  0  0  0  0
    5.8330   41.3540   50.0610 N   0  0  0  0  0  0  0  0  0  0  0  0
    6.5500   42.5070   50.0510 C   0  0  0  0  0  0  0  0  0  0  0  0
    5.9580   43.7010   50.4640 C   0  0  0  0  0  0  0  0  0  0  0  0
    6.6690   44.8540   50.4600 F   0  0  0  0  0  0  0  0  0  0  0  0
    4.6260   43.6940   50.8830 C   0  0  0  0  0  0  0  0  0  0  0  0
    1.8550   46.0730   53.0230 C   0  0  0  0  0  0  0  0  0  0  0  0
    2.9740   46.7280   52.8310 O   0  0  0  0  0  0  0  0  0  0  0  0
    5.9250   47.1260   52.3670 C   0  0  0  0  0  0  0  0  0  0  0  0
    7.2690   47.5070   52.3980 C   0  0  0  0  0  0  0  0  0  0  0  0
    9.7090   47.5103   55.6637 H   0  0  0  0  0  0  0  0  0  0  0  0
   10.5547   46.2643   54.6845 H   0  0  0  0  0  0  0  0  0  0  0  0
   11.1461   47.9604   54.6845 H   0  0  0  0  0  0  0  0  0  0  0  0
    8.0707   46.4188   55.5386 H   0  0  0  0  0  0  0  0  0  0  0  0
    5.6798   45.7262   55.4786 H   0  0  0  0  0  0  0  0  0  0  0  0
    1.5795   43.5644   55.2638 H   0  0  0  0  0  0  0  0  0  0  0  0
    0.2252   44.4836   54.4884 H   0  0  0  0  0  0  0  0  0  0  0  0
    0.4544   41.9732   53.8986 H   0  0  0  0  0  0  0  0  0  0  0  0
    0.2804   43.1590   52.5394 H   0  0  0  0  0  0  0  0  0  0  0  0
    2.8680   41.8450   53.3830 H   0  0  0  0  0  0  0  0  0  0  0  0
    3.9844   40.3671   50.4532 H   0  0  0  0  0  0  0  0  0  0  0  0
    7.5981   42.4997   49.7171 H   0  0  0  0  0  0  0  0  0  0  0  0
    4.1520   44.6293   51.2155 H   0  0  0  0  0  0  0  0  0  0  0  0
    0.8577   46.3682   52.6650 H   0  0  0  0  0  0  0  0  0  0  0  0
    5.3192   47.3324   51.4723 H   0  0  0  0  0  0  0  0  0  0  0  0
    7.7166   48.0068   51.5263 H   0  0  0  0  0  0  0  0  0  0  0  0
  1  2  1  0
  2  3  1  0
  3  4  2  0
  4  5  1  0
  5  6  2  0
  6  7  1  0
  7  8  2  0
  8  9  1  0
  9 10  1  0
 10 11  1  0
 11 12  1  0
 12 13  1  0
 13 14  2  0
 13 15  1  0
 15 16  2  0
 16 17  1  0
 17 18  2  0
 18 19  1  0
 19 20  1  0
 19 21  2  0
  9 22  2  0
 22 23  1  0
  6 24  1  0
 24 25  2  0
 25  3  1  0
 23  7  1  0
 21 15  1  0
  1 26  1  0
  1 27  1  0
  1 28  1  0
  4 29  1  0
  5 30  1  0
 10 31  1  0
 10 32  1  0
 11 33  1  0
 11 34  1  0
 12 35  1  0
 16 36  1  0
 18 37  1  0
 21 38  1  0
 22 39  1  0
 24 40  1  0
 25 41  1  0
M  END
>  <meeko>  (1) 
{"is_sidechain": [false], "free_energy": -8.347, "intermolecular_energy": -11.275, "internal_energy": -1.499}

$$$$
ligand_35_conformer_1_docked
     RDKit          3D

 41 43  0  0  0  0  0  0  0  0999 V2000
    1.0020   45.3840   56.4090 C   0  0  0  0  0  0  0  0  0  0  0  0
    1.4470   45.3180   55.0590 O   0  0  0  0  0  0  0  0  0  0  0  0
    2.7160   45.7270   54.6230 C   0  0  0  0  0  0  0  0  0  0  0  0
    2.8040   46.5030   53.4610 C   0  0  0  0  0  0  0  0  0  0  0  0
    4.0450   46.9310   52.9820 C   0  0  0  0  0  0  0  0  0  0  0  0
    5.2230   46.5910   53.6640 C   0  0  0  0  0  0  0  0  0  0  0  0
    6.5360   47.0230   53.1440 C   0  0  0  0  0  0  0  0  0  0  0  0
    7.5740   46.1810   52.9490 N   0  0  0  0  0  0  0  0  0  0  0  0
    8.5320   46.9850   52.4510 C   0  0  0  0  0  0  0  0  0  0  0  0
    9.8530   46.4870   51.9480 C   0  0  0  0  0  0  0  0  0  0  0  0
    9.6830   45.6000   50.7060 C   0  0  0  0  0  0  0  0  0  0  0  0
    8.2940   45.1700   50.5370 N   0  0  0  0  0  0  0  0  0  0  0  0
    7.9350   44.0020   49.7820 C   0  0  0  0  0  0  0  0  0  0  0  0
    8.7210   43.5760   48.8920 O   0  0  0  0  0  0  0  0  0  0  0  0
    6.6650   43.2810   50.0440 C   0  0  0  0  0  0  0  0  0  0  0  0
    6.3270   42.1090   49.3410 C   0  0  0  0  0  0  0  0  0  0  0  0
    5.1390   41.4880   49.5710 N   0  0  0  0  0  0  0  0  0  0  0  0
    4.2440   41.9640   50.4750 C   0  0  0  0  0  0  0  0  0  0  0  0
    4.5300   43.1240   51.1940 C   0  0  0  0  0  0  0  0  0  0  0  0
    3.6400   43.6080   52.0950 F   0  0  0  0  0  0  0  0  0  0  0  0
    5.7400   43.7850   50.9750 C   0  0  0  0  0  0  0  0  0  0  0  0
    8.0490   48.2690   52.3490 C   0  0  0  0  0  0  0  0  0  0  0  0
    6.8160   48.2600   52.7930 O   0  0  0  0  0  0  0  0  0  0  0  0
    5.1380   45.8170   54.8340 C   0  0  0  0  0  0  0  0  0  0  0  0
    3.8970   45.3860   55.3090 C   0  0  0  0  0  0  0  0  0  0  0  0
    1.8606   45.2567   57.0847 H   0  0  0  0  0  0  0  0  0  0  0  0
    0.5325   46.3616   56.5929 H   0  0  0  0  0  0  0  0  0  0  0  0
    0.2689   44.5847   56.5929 H   0  0  0  0  0  0  0  0  0  0  0  0
    1.8870   46.7786   52.9196 H   0  0  0  0  0  0  0  0  0  0  0  0
    4.0986   47.5374   52.0658 H   0  0  0  0  0  0  0  0  0  0  0  0
   10.4847   47.3491   51.6880 H   0  0  0  0  0  0  0  0  0  0  0  0
   10.3202   45.8850   52.7413 H   0  0  0  0  0  0  0  0  0  0  0  0
    9.9914   46.1686   49.8163 H   0  0  0  0  0  0  0  0  0  0  0  0
   10.3074   44.7036   50.8353 H   0  0  0  0  0  0  0  0  0  0  0  0
    7.5480   45.7390   50.9940 H   0  0  0  0  0  0  0  0  0  0  0  0
    7.0275   41.6933   48.6017 H   0  0  0  0  0  0  0  0  0  0  0  0
    3.2939   41.4346   50.6399 H   0  0  0  0  0  0  0  0  0  0  0  0
    5.9707   44.7042   51.5334 H   0  0  0  0  0  0  0  0  0  0  0  0
    8.5968   49.1424   51.9654 H   0  0  0  0  0  0  0  0  0  0  0  0
    6.0548   45.5488   55.3794 H   0  0  0  0  0  0  0  0  0  0  0  0
    3.8424   44.7772   56.2235 H   0  0  0  0  0  0  0  0  0  0  0  0
  1  2  1  0
  2  3  1  0
  3  4  2  0
  4  5  1  0
  5  6  2  0
  6  7  1  0
  7  8  2  0
  8  9  1  0
  9 10  1  0
 10 11  1  0
 11 12  1  0
 12 13  1  0
 13 14  2  0
 13 15  1  0
 15 16  2  0
 16 17  1  0
 17 18  2  0
 18 19  1  0
 19 20  1  0
 19 21  2  0
  9 22  2  0
 22 23  1  0
  6 24  1  0
 24 25  2  0
 25  3  1  0
 23  7  1  0
 21 15  1  0
  1 26  1  0
  1 27  1  0
  1 28  1  0
  4 29  1  0
  5 30  1  0
 10 31  1  0
 10 32  1  0
 11 33  1  0
 11 34  1  0
 12 35  1  0
 16 36  1  0
 18 37  1  0
 21 38  1  0
 22 39  1  0
 24 40  1  0
 25 41  1  0
M  END
>  <meeko>  (2) 
{"is_sidechain": [false], "free_energy": -7.918, "intermolecular_energy": -10.747, "internal_energy": -1.447}

$$$$
ligand_35_conformer_1_docked
     RDKit          3D

 41 43  0  0  0  0  0  0  0  0999 V2000
   -0.8350   43.6760   54.1200 C   0  0  0  0  0  0  0  0  0  0  0  0
   -0.2900   44.9330   54.5100 O   0  0  0  0  0  0  0  0  0  0  0  0
    1.0660   45.2750   54.4040 C   0  0  0  0  0  0  0  0  0  0  0  0
    1.5470   45.7100   53.1650 C   0  0  0  0  0  0  0  0  0  0  0  0
    2.8920   46.0580   53.0050 C   0  0  0  0  0  0  0  0  0  0  0  0
    3.7780   45.9790   54.0900 C   0  0  0  0  0  0  0  0  0  0  0  0
    5.2030   46.3220   53.9150 C   0  0  0  0  0  0  0  0  0  0  0  0
    5.7650   46.5850   52.7150 N   0  0  0  0  0  0  0  0  0  0  0  0
    7.0430   46.8660   53.0290 C   0  0  0  0  0  0  0  0  0  0  0  0
    8.0530   47.3520   52.0340 C   0  0  0  0  0  0  0  0  0  0  0  0
    8.3720   46.2750   50.9860 C   0  0  0  0  0  0  0  0  0  0  0  0
    7.1870   45.4850   50.6470 N   0  0  0  0  0  0  0  0  0  0  0  0
    7.2730   44.2060   50.0000 C   0  0  0  0  0  0  0  0  0  0  0  0
    8.2940   43.9280   49.3130 O   0  0  0  0  0  0  0  0  0  0  0  0
    6.1890   43.2020   50.1400 C   0  0  0  0  0  0  0  0  0  0  0  0
    6.1270   42.0650   49.3120 C   0  0  0  0  0  0  0  0  0  0  0  0
    5.1020   41.1810   49.4330 N   0  0  0  0  0  0  0  0  0  0  0  0
    4.1110   41.3530   50.3450 C   0  0  0  0  0  0  0  0  0  0  0  0
    4.1230   42.4650   51.1870 C   0  0  0  0  0  0  0  0  0  0  0  0
    3.1340   42.6450   52.0970 F   0  0  0  0  0  0  0  0  0  0  0  0
    5.1610   43.3920   51.0810 C   0  0  0  0  0  0  0  0  0  0  0  0
    7.2130   46.7800   54.3910 C   0  0  0  0  0  0  0  0  0  0  0  0
    6.0590   46.4340   54.9080 O   0  0  0  0  0  0  0  0  0  0  0  0
    3.2960   45.5470   55.3370 C   0  0  0  0  0  0  0  0  0  0  0  0
    1.9520   45.1950   55.4940 C   0  0  0  0  0  0  0  0  0  0  0  0
   -1.0882   43.0919   55.0171 H   0  0  0  0  0  0  0  0  0  0  0  0
   -1.7428   43.8400   53.5209 H   0  0  0  0  0  0  0  0  0  0  0  0
   -0.0948   43.1254   53.5209 H   0  0  0  0  0  0  0  0  0  0  0  0
    0.8608   45.7791   52.3080 H   0  0  0  0  0  0  0  0  0  0  0  0
    3.2571   46.3953   52.0237 H   0  0  0  0  0  0  0  0  0  0  0  0
    7.6533   48.2406   51.5235 H   0  0  0  0  0  0  0  0  0  0  0  0
    8.9804   47.5951   52.5733 H   0  0  0  0  0  0  0  0  0  0  0  0
    8.7478   46.7637   50.0750 H   0  0  0  0  0  0  0  0  0  0  0  0
    9.1281   45.5970   51.4087 H   0  0  0  0  0  0  0  0  0  0  0  0
    6.2520   45.8750   50.8990 H   0  0  0  0  0  0  0  0  0  0  0  0
    6.9131   41.8911   48.5625 H   0  0  0  0  0  0  0  0  0  0  0  0
    3.2985   40.6153   50.4199 H   0  0  0  0  0  0  0  0  0  0  0  0
    5.1752   44.2753   51.7364 H   0  0  0  0  0  0  0  0  0  0  0  0
    8.1451   46.9670   54.9444 H   0  0  0  0  0  0  0  0  0  0  0  0
    3.9807   45.4853   56.1957 H   0  0  0  0  0  0  0  0  0  0  0  0
    1.5858   44.8541   56.4737 H   0  0  0  0  0  0  0  0  0  0  0  0
  1  2  1  0
  2  3  1  0
  3  4  2  0
  4  5  1  0
  5  6  2  0
  6  7  1  0
  7  8  2  0
  8  9  1  0
  9 10  1  0
 10 11  1  0
 11 12  1  0
 12 13  1  0
 13 14  2  0
 13 15  1  0
 15 16  2  0
 16 17  1  0
 17 18  2  0
 18 19  1  0
 19 20  1  0
 19 21  2  0
  9 22  2  0
 22 23  1  0
  6 24  1  0
 24 25  2  0
 25  3  1  0
 23  7  1  0
 21 15  1  0
  1 26  1  0
  1 27  1  0
  1 28  1  0
  4 29  1  0
  5 30  1  0
 10 31  1  0
 10 32  1  0
 11 33  1  0
 11 34  1  0
 12 35  1  0
 16 36  1  0
 18 37  1  0
 21 38  1  0
 22 39  1  0
 24 40  1  0
 25 41  1  0
M  END
>  <meeko>  (3) 
{"is_sidechain": [false], "free_energy": -7.711, "intermolecular_energy": -10.628, "internal_energy": -1.286}

$$$$
ligand_35_conformer_1_docked
     RDKit          3D

 41 43  0  0  0  0  0  0  0  0999 V2000
   -1.5180   47.4860   58.0790 C   0  0  0  0  0  0  0  0  0  0  0  0
   -1.2510   46.0960   57.9240 O   0  0  0  0  0  0  0  0  0  0  0  0
   -0.5290   45.5430   56.8570 C   0  0  0  0  0  0  0  0  0  0  0  0
    0.8680   45.6100   56.8920 C   0  0  0  0  0  0  0  0  0  0  0  0
    1.6330   45.0780   55.8510 C   0  0  0  0  0  0  0  0  0  0  0  0
    1.0090   44.4650   54.7540 C   0  0  0  0  0  0  0  0  0  0  0  0
    1.8160   43.9270   53.6420 C   0  0  0  0  0  0  0  0  0  0  0  0
    2.8650   44.5810   53.0960 N   0  0  0  0  0  0  0  0  0  0  0  0
    3.3060   43.7250   52.1560 C   0  0  0  0  0  0  0  0  0  0  0  0
    4.5510   43.9460   51.3520 C   0  0  0  0  0  0  0  0  0  0  0  0
    4.6310   45.3860   50.8250 C   0  0  0  0  0  0  0  0  0  0  0  0
    5.8930   46.0270   51.2000 N   0  0  0  0  0  0  0  0  0  0  0  0
    6.1010   46.6230   52.4900 C   0  0  0  0  0  0  0  0  0  0  0  0
    5.1050   47.0120   53.1590 O   0  0  0  0  0  0  0  0  0  0  0  0
    7.4660   46.7750   53.0520 C   0  0  0  0  0  0  0  0  0  0  0  0
    7.6720   47.2250   54.3700 C   0  0  0  0  0  0  0  0  0  0  0  0
    8.9330   47.3940   54.8500 N   0  0  0  0  0  0  0  0  0  0  0  0
   10.0300   47.1370   54.0900 C   0  0  0  0  0  0  0  0  0  0  0  0
    9.8800   46.6920   52.7770 C   0  0  0  0  0  0  0  0  0  0  0  0
   10.9690   46.4370   52.0120 F   0  0  0  0  0  0  0  0  0  0  0  0
    8.5960   46.5140   52.2570 C   0  0  0  0  0  0  0  0  0  0  0  0
    2.5310   42.5870   52.1680 C   0  0  0  0  0  0  0  0  0  0  0  0
    1.6150   42.7480   53.0910 O   0  0  0  0  0  0  0  0  0  0  0  0
   -0.3940   44.3920   54.7180 C   0  0  0  0  0  0  0  0  0  0  0  0
   -1.1580   44.9280   55.7580 C   0  0  0  0  0  0  0  0  0  0  0  0
   -1.5655   47.7331   59.1498 H   0  0  0  0  0  0  0  0  0  0  0  0
   -0.7154   48.0688   57.6034 H   0  0  0  0  0  0  0  0  0  0  0  0
   -2.4794   47.7300   57.6034 H   0  0  0  0  0  0  0  0  0  0  0  0
    1.3691   46.0863   57.7476 H   0  0  0  0  0  0  0  0  0  0  0  0
    2.7305   45.1401   55.8917 H   0  0  0  0  0  0  0  0  0  0  0  0
    5.4269   43.7486   51.9875 H   0  0  0  0  0  0  0  0  0  0  0  0
    4.5315   43.2631   50.4899 H   0  0  0  0  0  0  0  0  0  0  0  0
    4.5508   45.3698   49.7280 H   0  0  0  0  0  0  0  0  0  0  0  0
    3.8064   45.9620   51.2703 H   0  0  0  0  0  0  0  0  0  0  0  0
    6.6640   46.0350   50.4960 H   0  0  0  0  0  0  0  0  0  0  0  0
    6.8078   47.4412   55.0153 H   0  0  0  0  0  0  0  0  0  0  0  0
   11.0363   47.2800   54.5106 H   0  0  0  0  0  0  0  0  0  0  0  0
    8.4682   46.1680   51.2207 H   0  0  0  0  0  0  0  0  0  0  0  0
    2.6575   41.7056   51.5221 H   0  0  0  0  0  0  0  0  0  0  0  0
   -0.8942   43.9096   53.8653 H   0  0  0  0  0  0  0  0  0  0  0  0
   -2.2557   44.8691   55.7177 H   0  0  0  0  0  0  0  0  0  0  0  0
  1  2  1  0
  2  3  1  0
  3  4  2  0
  4  5  1  0
  5  6  2  0
  6  7  1  0
  7  8  2  0
  8  9  1  0
  9 10  1  0
 10 11  1  0
 11 12  1  0
 12 13  1  0
 13 14  2  0
 13 15  1  0
 15 16  2  0
 16 17  1  0
 17 18  2  0
 18 19  1  0
 19 20  1  0
 19 21  2  0
  9 22  2  0
 22 23  1  0
  6 24  1  0
 24 25  2  0
 25  3  1  0
 23  7  1  0
 21 15  1  0
  1 26  1  0
  1 27  1  0
  1 28  1  0
  4 29  1  0
  5 30  1  0
 10 31  1  0
 10 32  1  0
 11 33  1  0
 11 34  1  0
 12 35  1  0
 16 36  1  0
 18 37  1  0
 21 38  1  0
 22 39  1  0
 24 40  1  0
 25 41  1  0
M  END
>  <meeko>  (4) 
{"is_sidechain": [false], "free_energy": -7.664, "intermolecular_energy": -11.131, "internal_energy": -0.721}

$$$$
ligand_35_conformer_1_docked
     RDKit          3D

 41 43  0  0  0  0  0  0  0  0999 V2000
    8.9460   44.2280   49.3630 C   0  0  0  0  0  0  0  0  0  0  0  0
    8.1800   43.0280   49.4040 O   0  0  0  0  0  0  0  0  0  0  0  0
    6.8610   42.9460   49.8740 C   0  0  0  0  0  0  0  0  0  0  0  0
    6.2530   44.1110   50.3550 C   0  0  0  0  0  0  0  0  0  0  0  0
    4.9420   44.0820   50.8390 C   0  0  0  0  0  0  0  0  0  0  0  0
    4.2150   42.8820   50.8440 C   0  0  0  0  0  0  0  0  0  0  0  0
    2.8390   42.8470   51.3790 C   0  0  0  0  0  0  0  0  0  0  0  0
    2.5510   42.8620   52.6980 N   0  0  0  0  0  0  0  0  0  0  0  0
    1.2050   42.8440   52.7190 C   0  0  0  0  0  0  0  0  0  0  0  0
    0.3940   42.9810   53.9710 C   0  0  0  0  0  0  0  0  0  0  0  0
    0.0840   44.4520   54.2830 C   0  0  0  0  0  0  0  0  0  0  0  0
    1.2150   45.3220   53.9530 N   0  0  0  0  0  0  0  0  0  0  0  0
    2.2070   45.6970   54.9220 C   0  0  0  0  0  0  0  0  0  0  0  0
    1.9140   45.6720   56.1480 O   0  0  0  0  0  0  0  0  0  0  0  0
    3.5740   46.0960   54.5030 C   0  0  0  0  0  0  0  0  0  0  0  0
    3.8590   47.4080   54.0780 C   0  0  0  0  0  0  0  0  0  0  0  0
    5.1100   47.7390   53.6610 N   0  0  0  0  0  0  0  0  0  0  0  0
    6.1220   46.8330   53.6410 C   0  0  0  0  0  0  0  0  0  0  0  0
    5.8910   45.5200   54.0490 C   0  0  0  0  0  0  0  0  0  0  0  0
    6.8950   44.6100   54.0270 F   0  0  0  0  0  0  0  0  0  0  0  0
    4.6140   45.1500   54.4770 C   0  0  0  0  0  0  0  0  0  0  0  0
    0.7240   42.8330   51.4300 C   0  0  0  0  0  0  0  0  0  0  0  0
    1.7590   42.8270   50.6260 O   0  0  0  0  0  0  0  0  0  0  0  0
    4.8210   41.7120   50.3560 C   0  0  0  0  0  0  0  0  0  0  0  0
    6.1340   41.7420   49.8770 C   0  0  0  0  0  0  0  0  0  0  0  0
    9.1593   44.5621   50.3891 H   0  0  0  0  0  0  0  0  0  0  0  0
    9.8922   44.0411   48.8341 H   0  0  0  0  0  0  0  0  0  0  0  0
    8.3781   45.0076   48.8341 H   0  0  0  0  0  0  0  0  0  0  0  0
    6.8120   45.0584   50.3522 H   0  0  0  0  0  0  0  0  0  0  0  0
    4.4780   45.0046   51.2179 H   0  0  0  0  0  0  0  0  0  0  0  0
   -0.5527   42.4352   53.8450 H   0  0  0  0  0  0  0  0  0  0  0  0
    0.9770   42.5666   54.8067 H   0  0  0  0  0  0  0  0  0  0  0  0
   -0.7911   44.7652   53.6946 H   0  0  0  0  0  0  0  0  0  0  0  0
   -0.1159   44.5408   55.3610 H   0  0  0  0  0  0  0  0  0  0  0  0
    1.2940   45.6680   52.9720 H   0  0  0  0  0  0  0  0  0  0  0  0
    3.0650   48.1693   54.0834 H   0  0  0  0  0  0  0  0  0  0  0  0
    7.1241   47.1354   53.3028 H   0  0  0  0  0  0  0  0  0  0  0  0
    4.4212   44.1148   54.7949 H   0  0  0  0  0  0  0  0  0  0  0  0
   -0.3342   42.8298   51.1296 H   0  0  0  0  0  0  0  0  0  0  0  0
    4.2588   40.7666   50.3508 H   0  0  0  0  0  0  0  0  0  0  0  0
    6.6007   40.8197   49.5007 H   0  0  0  0  0  0  0  0  0  0  0  0
  1  2  1  0
  2  3  1  0
  3  4  2  0
  4  5  1  0
  5  6  2  0
  6  7  1  0
  7  8  2  0
  8  9  1  0
  9 10  1  0
 10 11  1  0
 11 12  1  0
 12 13  1  0
 13 14  2  0
 13 15  1  0
 15 16  2  0
 16 17  1  0
 17 18  2  0
 18 19  1  0
 19 20  1  0
 19 21  2  0
  9 22  2  0
 22 23  1  0
  6 24  1  0
 24 25  2  0
 25  3  1  0
 23  7  1  0
 21 15  1  0
  1 26  1  0
  1 27  1  0
  1 28  1  0
  4 29  1  0
  5 30  1  0
 10 31  1  0
 10 32  1  0
 11 33  1  0
 11 34  1  0
 12 35  1  0
 16 36  1  0
 18 37  1  0
 21 38  1  0
 22 39  1  0
 24 40  1  0
 25 41  1  0
M  END
>  <meeko>  (5) 
{"is_sidechain": [false], "free_energy": -7.582, "intermolecular_energy": -10.132, "internal_energy": -1.608}

$$$$
