ligand_63_conformer_1_docked
     RDKit          3D

 56 57  0  0  0  0  0  0  0  0999 V2000
   -1.4650   46.2340   57.0080 C   0  0  0  0  0  0  0  0  0  0  0  0
   -0.9250   45.0290   56.4760 O   0  0  0  0  0  0  0  0  0  0  0  0
    0.2550   44.9530   55.7200 C   0  0  0  0  0  0  0  0  0  0  0  0
    1.4530   45.5750   56.1240 C   0  0  0  0  0  0  0  0  0  0  0  0
    2.6120   45.4740   55.3280 C   0  0  0  0  0  0  0  0  0  0  0  0
    3.8260   46.0800   55.6880 O   0  0  0  0  0  0  0  0  0  0  0  0
    5.1110   45.5950   55.3130 C   0  0  0  0  0  0  0  0  0  0  0  0
    2.5630   44.7460   54.1360 C   0  0  0  0  0  0  0  0  0  0  0  0
    1.3770   44.1200   53.7310 C   0  0  0  0  0  0  0  0  0  0  0  0
    1.3500   43.1760   52.2430 S   0  0  0  0  0  0  0  0  0  0  0  0
    1.2720   44.1180   51.0750 O   0  0  0  0  0  0  0  0  0  0  0  0
    0.1580   42.2600   52.2120 O   0  0  0  0  0  0  0  0  0  0  0  0
    2.7970   42.2260   52.1190 N   0  0  0  0  0  0  0  0  0  0  0  0
    4.0010   42.6660   51.4550 C   0  0  0  0  0  0  0  0  0  0  0  0
    4.6020   43.8990   51.7760 C   0  0  0  0  0  0  0  0  0  0  0  0
    5.7670   44.3200   51.1240 C   0  0  0  0  0  0  0  0  0  0  0  0
    6.5110   45.8660   51.5250 S   0  0  0  0  0  0  0  0  0  0  0  0
    7.1730   46.3830   50.2790 O   0  0  0  0  0  0  0  0  0  0  0  0
    5.4610   46.8640   51.9300 O   0  0  0  0  0  0  0  0  0  0  0  0
    7.7300   45.7310   52.7730 N   0  0  0  0  0  0  0  0  0  0  0  0
    8.8480   46.7100   52.7410 C   0  0  0  0  0  0  0  0  0  0  0  0
    8.3300   48.1170   52.3760 C   0  0  0  0  0  0  0  0  0  0  0  0
    9.4400   46.7900   54.1670 C   0  0  0  0  0  0  0  0  0  0  0  0
    9.9800   46.2930   51.7760 C   0  0  0  0  0  0  0  0  0  0  0  0
    6.3470   43.5070   50.1480 C   0  0  0  0  0  0  0  0  0  0  0  0
    5.7690   42.2800   49.8230 C   0  0  0  0  0  0  0  0  0  0  0  0
    4.5930   41.8480   50.4690 C   0  0  0  0  0  0  0  0  0  0  0  0
    3.9910   40.6180   50.1540 O   0  0  0  0  0  0  0  0  0  0  0  0
    3.5550   40.2400   48.8510 C   0  0  0  0  0  0  0  0  0  0  0  0
    0.2270   44.2310   54.5230 C   0  0  0  0  0  0  0  0  0  0  0  0
   -1.4456   46.1907   58.1070 H   0  0  0  0  0  0  0  0  0  0  0  0
   -0.8637   47.0885   56.6640 H   0  0  0  0  0  0  0  0  0  0  0  0
   -2.5029   46.3539   56.6640 H   0  0  0  0  0  0  0  0  0  0  0  0
    1.4840   46.1426   57.0658 H   0  0  0  0  0  0  0  0  0  0  0  0
    5.6975   45.3736   56.2169 H   0  0  0  0  0  0  0  0  0  0  0  0
    4.9970   44.6780   54.7162 H   0  0  0  0  0  0  0  0  0  0  0  0
    5.6313   46.3586   54.7162 H   0  0  0  0  0  0  0  0  0  0  0  0
    3.4639   44.6638   53.5102 H   0  0  0  0  0  0  0  0  0  0  0  0
    2.7540   41.2660   52.5280 H   0  0  0  0  0  0  0  0  0  0  0  0
    4.1503   44.5388   52.5484 H   0  0  0  0  0  0  0  0  0  0  0  0
    8.1190   44.7630   52.6820 H   0  0  0  0  0  0  0  0  0  0  0  0
    8.1222   48.6815   53.2969 H   0  0  0  0  0  0  0  0  0  0  0  0
    9.0921   48.6465   51.7854 H   0  0  0  0  0  0  0  0  0  0  0  0
    7.4065   48.0259   51.7854 H   0  0  0  0  0  0  0  0  0  0  0  0
    8.6325   46.6809   54.9059 H   0  0  0  0  0  0  0  0  0  0  0  0
   10.1746   45.9830   54.3048 H   0  0  0  0  0  0  0  0  0  0  0  0
    9.9341   47.7631   54.3048 H   0  0  0  0  0  0  0  0  0  0  0  0
   10.8566   45.9701   52.3568 H   0  0  0  0  0  0  0  0  0  0  0  0
    9.6343   45.4632   51.1420 H   0  0  0  0  0  0  0  0  0  0  0  0
   10.2552   47.1488   51.1420 H   0  0  0  0  0  0  0  0  0  0  0  0
    7.2624   43.8353   49.6340 H   0  0  0  0  0  0  0  0  0  0  0  0
    6.2349   41.6439   49.0560 H   0  0  0  0  0  0  0  0  0  0  0  0
    2.7263   39.5216   48.9357 H   0  0  0  0  0  0  0  0  0  0  0  0
    3.2127   41.1319   48.3058 H   0  0  0  0  0  0  0  0  0  0  0  0
    4.3894   39.7747   48.3058 H   0  0  0  0  0  0  0  0  0  0  0  0
   -0.7061   43.7460   54.2005 H   0  0  0  0  0  0  0  0  0  0  0  0
  1  2  1  0
  2  3  1  0
  3  4  2  0
  4  5  1  0
  5  6  1  0
  6  7  1  0
  5  8  2  0
  8  9  1  0
  9 10  1  0
 10 11  2  0
 10 12  2  0
 10 13  1  0
 13 14  1  0
 14 15  2  0
 15 16  1  0
 16 17  1  0
 17 18  2  0
 17 19  2  0
 17 20  1  0
 20 21  1  0
 21 22  1  0
 21 23  1  0
 21 24  1  0
 16 25  2  0
 25 26  1  0
 26 27  2  0
 27 28  1  0
 28 29  1  0
  9 30  2  0
 30  3  1  0
 27 14  1  0
  1 31  1  0
  1 32  1  0
  1 33  1  0
  4 34  1  0
  7 35  1  0
  7 36  1  0
  7 37  1  0
  8 38  1  0
 13 39  1  0
 15 40  1  0
 20 41  1  0
 22 42  1  0
 22 43  1  0
 22 44  1  0
 23 45  1  0
 23 46  1  0
 23 47  1  0
 24 48  1  0
 24 49  1  0
 24 50  1  0
 25 51  1  0
 26 52  1  0
 29 53  1  0
 29 54  1  0
 29 55  1  0
 30 56  1  0
M  END
>  <meeko>  (1) 
{"is_sidechain": [false], "free_energy": -8.448, "intermolecular_energy": -12.894, "internal_energy": -0.271}

$$$$
ligand_63_conformer_1_docked
     RDKit          3D

 56 57  0  0  0  0  0  0  0  0999 V2000
    0.9990   46.7870   58.3400 C   0  0  0  0  0  0  0  0  0  0  0  0
    1.3390   46.1360   57.1200 O   0  0  0  0  0  0  0  0  0  0  0  0
    0.4730   45.3030   56.3960 C   0  0  0  0  0  0  0  0  0  0  0  0
   -0.8330   45.0080   56.8330 C   0  0  0  0  0  0  0  0  0  0  0  0
   -1.6650   44.1610   56.0730 C   0  0  0  0  0  0  0  0  0  0  0  0
   -2.9720   43.8350   56.4700 O   0  0  0  0  0  0  0  0  0  0  0  0
   -3.2980   42.8200   57.4130 C   0  0  0  0  0  0  0  0  0  0  0  0
   -1.1830   43.6210   54.8760 C   0  0  0  0  0  0  0  0  0  0  0  0
    0.1120   43.9160   54.4320 C   0  0  0  0  0  0  0  0  0  0  0  0
    0.6840   43.2540   52.9030 S   0  0  0  0  0  0  0  0  0  0  0  0
    0.6940   44.3500   51.8760 O   0  0  0  0  0  0  0  0  0  0  0  0
   -0.2160   42.1480   52.4280 O   0  0  0  0  0  0  0  0  0  0  0  0
    2.2940   42.6300   53.0930 N   0  0  0  0  0  0  0  0  0  0  0  0
    3.4660   43.2170   52.4890 C   0  0  0  0  0  0  0  0  0  0  0  0
    4.2320   44.1830   53.1720 C   0  0  0  0  0  0  0  0  0  0  0  0
    5.3650   44.7510   52.5760 C   0  0  0  0  0  0  0  0  0  0  0  0
    6.3150   45.9620   53.4320 S   0  0  0  0  0  0  0  0  0  0  0  0
    5.7820   47.3110   53.0390 O   0  0  0  0  0  0  0  0  0  0  0  0
    6.1350   45.8180   54.9170 O   0  0  0  0  0  0  0  0  0  0  0  0
    8.0150   45.9090   53.0210 N   0  0  0  0  0  0  0  0  0  0  0  0
    8.7600   47.1950   53.0320 C   0  0  0  0  0  0  0  0  0  0  0  0
    8.8090   47.7830   54.4580 C   0  0  0  0  0  0  0  0  0  0  0  0
   10.2140   46.8980   52.6030 C   0  0  0  0  0  0  0  0  0  0  0  0
    8.1730   48.2330   52.0490 C   0  0  0  0  0  0  0  0  0  0  0  0
    5.7480   44.3510   51.2940 C   0  0  0  0  0  0  0  0  0  0  0  0
    5.0040   43.3910   50.6070 C   0  0  0  0  0  0  0  0  0  0  0  0
    3.8590   42.8170   51.1940 C   0  0  0  0  0  0  0  0  0  0  0  0
    3.0920   41.8520   50.5190 O   0  0  0  0  0  0  0  0  0  0  0  0
    3.6310   40.7840   49.7450 C   0  0  0  0  0  0  0  0  0  0  0  0
    0.9360   44.7510   55.1970 C   0  0  0  0  0  0  0  0  0  0  0  0
    1.3228   46.1671   59.1890 H   0  0  0  0  0  0  0  0  0  0  0  0
    1.5019   47.7642   58.3867 H   0  0  0  0  0  0  0  0  0  0  0  0
   -0.0903   46.9326   58.3867 H   0  0  0  0  0  0  0  0  0  0  0  0
   -1.2060   45.4411   57.7729 H   0  0  0  0  0  0  0  0  0  0  0  0
   -3.1719   43.2127   58.4327 H   0  0  0  0  0  0  0  0  0  0  0  0
   -4.3422   42.5061   57.2675 H   0  0  0  0  0  0  0  0  0  0  0  0
   -2.6319   41.9568   57.2675 H   0  0  0  0  0  0  0  0  0  0  0  0
   -1.8267   42.9589   54.2783 H   0  0  0  0  0  0  0  0  0  0  0  0
    2.3840   41.7550   53.6540 H   0  0  0  0  0  0  0  0  0  0  0  0
    3.9366   44.4944   54.1848 H   0  0  0  0  0  0  0  0  0  0  0  0
    8.0590   45.4960   52.0590 H   0  0  0  0  0  0  0  0  0  0  0  0
    8.7411   46.9677   55.1933 H   0  0  0  0  0  0  0  0  0  0  0  0
    9.7555   48.3256   54.5986 H   0  0  0  0  0  0  0  0  0  0  0  0
    7.9654   48.4748   54.5986 H   0  0  0  0  0  0  0  0  0  0  0  0
   10.8413   46.7699   53.4975 H   0  0  0  0  0  0  0  0  0  0  0  0
   10.2383   45.9763   52.0030 H   0  0  0  0  0  0  0  0  0  0  0  0
   10.5978   47.7363   52.0030 H   0  0  0  0  0  0  0  0  0  0  0  0
    7.7090   49.0535   52.6160 H   0  0  0  0  0  0  0  0  0  0  0  0
    8.9779   48.6343   51.4156 H   0  0  0  0  0  0  0  0  0  0  0  0
    7.4143   47.7501   51.4156 H   0  0  0  0  0  0  0  0  0  0  0  0
    6.6387   44.7940   50.8244 H   0  0  0  0  0  0  0  0  0  0  0  0
    5.3141   43.0797   49.5986 H   0  0  0  0  0  0  0  0  0  0  0  0
    4.0235   40.0062   50.4166 H   0  0  0  0  0  0  0  0  0  0  0  0
    2.8410   40.3560   49.1105 H   0  0  0  0  0  0  0  0  0  0  0  0
    4.4446   41.1653   49.1105 H   0  0  0  0  0  0  0  0  0  0  0  0
    1.9562   44.9747   54.8520 H   0  0  0  0  0  0  0  0  0  0  0  0
  1  2  1  0
  2  3  1  0
  3  4  2  0
  4  5  1  0
  5  6  1  0
  6  7  1  0
  5  8  2  0
  8  9  1  0
  9 10  1  0
 10 11  2  0
 10 12  2  0
 10 13  1  0
 13 14  1  0
 14 15  2  0
 15 16  1  0
 16 17  1  0
 17 18  2  0
 17 19  2  0
 17 20  1  0
 20 21  1  0
 21 22  1  0
 21 23  1  0
 21 24  1  0
 16 25  2  0
 25 26  1  0
 26 27  2  0
 27 28  1  0
 28 29  1  0
  9 30  2  0
 30  3  1  0
 27 14  1  0
  1 31  1  0
  1 32  1  0
  1 33  1  0
  4 34  1  0
  7 35  1  0
  7 36  1  0
  7 37  1  0
  8 38  1  0
 13 39  1  0
 15 40  1  0
 20 41  1  0
 22 42  1  0
 22 43  1  0
 22 44  1  0
 23 45  1  0
 23 46  1  0
 23 47  1  0
 24 48  1  0
 24 49  1  0
 24 50  1  0
 25 51  1  0
 26 52  1  0
 29 53  1  0
 29 54  1  0
 29 55  1  0
 30 56  1  0
M  END
>  <meeko>  (2) 
{"is_sidechain": [false], "free_energy": -8.427, "intermolecular_energy": -12.745, "internal_energy": -0.388}

$$$$
ligand_63_conformer_1_docked
     RDKit          3D

 56 57  0  0  0  0  0  0  0  0999 V2000
   -3.7330   42.5630   57.4480 C   0  0  0  0  0  0  0  0  0  0  0  0
   -3.2860   43.1260   56.2190 O   0  0  0  0  0  0  0  0  0  0  0  0
   -2.0500   43.7660   56.0410 C   0  0  0  0  0  0  0  0  0  0  0  0
   -1.4310   44.5110   57.0640 C   0  0  0  0  0  0  0  0  0  0  0  0
   -0.1900   45.1400   56.8360 C   0  0  0  0  0  0  0  0  0  0  0  0
    0.4630   45.8960   57.8230 O   0  0  0  0  0  0  0  0  0  0  0  0
    0.0370   47.1800   58.2680 C   0  0  0  0  0  0  0  0  0  0  0  0
    0.4230   45.0120   55.5860 C   0  0  0  0  0  0  0  0  0  0  0  0
   -0.1830   44.2680   54.5670 C   0  0  0  0  0  0  0  0  0  0  0  0
    0.6270   44.0910   53.0120 S   0  0  0  0  0  0  0  0  0  0  0  0
    0.9120   45.4580   52.4580 O   0  0  0  0  0  0  0  0  0  0  0  0
   -0.2400   43.3400   52.0400 O   0  0  0  0  0  0  0  0  0  0  0  0
    2.1210   43.2310   53.2180 N   0  0  0  0  0  0  0  0  0  0  0  0
    3.3900   43.6760   52.6960 C   0  0  0  0  0  0  0  0  0  0  0  0
    4.1930   44.5890   53.4070 C   0  0  0  0  0  0  0  0  0  0  0  0
    5.4210   45.0190   52.8900 C   0  0  0  0  0  0  0  0  0  0  0  0
    6.4180   46.1650   53.7820 S   0  0  0  0  0  0  0  0  0  0  0  0
    5.9860   47.5470   53.3770 O   0  0  0  0  0  0  0  0  0  0  0  0
    6.1790   46.0290   55.2600 O   0  0  0  0  0  0  0  0  0  0  0  0
    8.1240   46.0030   53.4280 N   0  0  0  0  0  0  0  0  0  0  0  0
    8.8920   47.2540   53.1900 C   0  0  0  0  0  0  0  0  0  0  0  0
    9.1950   47.9690   54.5230 C   0  0  0  0  0  0  0  0  0  0  0  0
   10.2450   46.8590   52.5570 C   0  0  0  0  0  0  0  0  0  0  0  0
    8.1740   48.2190   52.2200 C   0  0  0  0  0  0  0  0  0  0  0  0
    5.8620   44.5330   51.6570 C   0  0  0  0  0  0  0  0  0  0  0  0
    5.0820   43.6230   50.9420 C   0  0  0  0  0  0  0  0  0  0  0  0
    3.8420   43.1880   51.4500 C   0  0  0  0  0  0  0  0  0  0  0  0
    3.0380   42.2760   50.7450 O   0  0  0  0  0  0  0  0  0  0  0  0
    3.5310   41.1590   50.0120 C   0  0  0  0  0  0  0  0  0  0  0  0
   -1.4200   43.6530   54.7980 C   0  0  0  0  0  0  0  0  0  0  0  0
   -3.2915   43.1191   58.2881 H   0  0  0  0  0  0  0  0  0  0  0  0
   -4.8298   42.6259   57.5027 H   0  0  0  0  0  0  0  0  0  0  0  0
   -3.4230   41.5090   57.5027 H   0  0  0  0  0  0  0  0  0  0  0  0
   -1.9185   44.6024   58.0458 H   0  0  0  0  0  0  0  0  0  0  0  0
    0.0294   47.2030   59.3677 H   0  0  0  0  0  0  0  0  0  0  0  0
    0.7287   47.9472   57.8900 H   0  0  0  0  0  0  0  0  0  0  0  0
   -0.9762   47.3816   57.8900 H   0  0  0  0  0  0  0  0  0  0  0  0
    1.3910   45.5008   55.4015 H   0  0  0  0  0  0  0  0  0  0  0  0
    2.0610   42.3210   53.7260 H   0  0  0  0  0  0  0  0  0  0  0  0
    3.8509   44.9690   54.3809 H   0  0  0  0  0  0  0  0  0  0  0  0
    8.1770   45.4000   52.5730 H   0  0  0  0  0  0  0  0  0  0  0  0
    8.9174   47.3139   55.3619 H   0  0  0  0  0  0  0  0  0  0  0  0
   10.2688   48.2010   54.5788 H   0  0  0  0  0  0  0  0  0  0  0  0
    8.6149   48.9019   54.5788 H   0  0  0  0  0  0  0  0  0  0  0  0
   10.9739   46.6462   53.3528 H   0  0  0  0  0  0  0  0  0  0  0  0
   10.1105   45.9626   51.9337 H   0  0  0  0  0  0  0  0  0  0  0  0
   10.6139   47.6870   51.9337 H   0  0  0  0  0  0  0  0  0  0  0  0
    7.6150   48.9703   52.7971 H   0  0  0  0  0  0  0  0  0  0  0  0
    8.9185   48.7230   51.5862 H   0  0  0  0  0  0  0  0  0  0  0  0
    7.4774   47.6507   51.5862 H   0  0  0  0  0  0  0  0  0  0  0  0
    6.8267   44.8684   51.2484 H   0  0  0  0  0  0  0  0  0  0  0  0
    5.4384   43.2421   49.9735 H   0  0  0  0  0  0  0  0  0  0  0  0
    3.8735   40.3830   50.7124 H   0  0  0  0  0  0  0  0  0  0  0  0
    2.7285   40.7529   49.3787 H   0  0  0  0  0  0  0  0  0  0  0  0
    4.3718   41.4782   49.3787 H   0  0  0  0  0  0  0  0  0  0  0  0
   -1.9002   43.0758   53.9941 H   0  0  0  0  0  0  0  0  0  0  0  0
  1  2  1  0
  2  3  1  0
  3  4  2  0
  4  5  1  0
  5  6  1  0
  6  7  1  0
  5  8  2  0
  8  9  1  0
  9 10  1  0
 10 11  2  0
 10 12  2  0
 10 13  1  0
 13 14  1  0
 14 15  2  0
 15 16  1  0
 16 17  1  0
 17 18  2  0
 17 19  2  0
 17 20  1  0
 20 21  1  0
 21 22  1  0
 21 23  1  0
 21 24  1  0
 16 25  2  0
 25 26  1  0
 26 27  2  0
 27 28  1  0
 28 29  1  0
  9 30  2  0
 30  3  1  0
 27 14  1  0
  1 31  1  0
  1 32  1  0
  1 33  1  0
  4 34  1  0
  7 35  1  0
  7 36  1  0
  7 37  1  0
  8 38  1  0
 13 39  1  0
 15 40  1  0
 20 41  1  0
 22 42  1  0
 22 43  1  0
 22 44  1  0
 23 45  1  0
 23 46  1  0
 23 47  1  0
 24 48  1  0
 24 49  1  0
 24 50  1  0
 25 51  1  0
 26 52  1  0
 29 53  1  0
 29 54  1  0
 29 55  1  0
 30 56  1  0
M  END
>  <meeko>  (3) 
{"is_sidechain": [false], "free_energy": -8.362, "intermolecular_energy": -12.91, "internal_energy": -0.123}

$$$$
ligand_63_conformer_1_docked
     RDKit          3D

 56 57  0  0  0  0  0  0  0  0999 V2000
    5.1410   46.0880   54.9880 C   0  0  0  0  0  0  0  0  0  0  0  0
    3.8400   46.4070   55.4700 O   0  0  0  0  0  0  0  0  0  0  0  0
    2.6850   45.6590   55.1950 C   0  0  0  0  0  0  0  0  0  0  0  0
    1.5630   45.6580   56.0460 C   0  0  0  0  0  0  0  0  0  0  0  0
    0.4270   44.8860   55.7280 C   0  0  0  0  0  0  0  0  0  0  0  0
   -0.7120   44.8500   56.5480 O   0  0  0  0  0  0  0  0  0  0  0  0
   -1.5250   45.9790   56.8470 C   0  0  0  0  0  0  0  0  0  0  0  0
    0.4230   44.1240   54.5550 C   0  0  0  0  0  0  0  0  0  0  0  0
    1.5330   44.1250   53.7010 C   0  0  0  0  0  0  0  0  0  0  0  0
    1.4890   43.1880   52.2100 S   0  0  0  0  0  0  0  0  0  0  0  0
    1.4300   44.1350   51.0450 O   0  0  0  0  0  0  0  0  0  0  0  0
    0.2810   42.2940   52.1740 O   0  0  0  0  0  0  0  0  0  0  0  0
    2.9190   42.2110   52.0830 N   0  0  0  0  0  0  0  0  0  0  0  0
    4.1110   42.6080   51.3730 C   0  0  0  0  0  0  0  0  0  0  0  0
    4.7680   43.8190   51.6690 C   0  0  0  0  0  0  0  0  0  0  0  0
    5.9210   44.1980   50.9720 C   0  0  0  0  0  0  0  0  0  0  0  0
    6.7350   45.7150   51.3430 S   0  0  0  0  0  0  0  0  0  0  0  0
    7.5080   46.1210   50.1190 O   0  0  0  0  0  0  0  0  0  0  0  0
    5.7280   46.7960   51.6230 O   0  0  0  0  0  0  0  0  0  0  0  0
    7.8600   45.5760   52.6750 N   0  0  0  0  0  0  0  0  0  0  0  0
    8.9700   46.5640   52.7360 C   0  0  0  0  0  0  0  0  0  0  0  0
    8.4970   47.9450   52.2360 C   0  0  0  0  0  0  0  0  0  0  0  0
    9.3750   46.7220   54.2190 C   0  0  0  0  0  0  0  0  0  0  0  0
   10.2170   46.1090   51.9450 C   0  0  0  0  0  0  0  0  0  0  0  0
    6.4330   43.3650   49.9750 C   0  0  0  0  0  0  0  0  0  0  0  0
    5.7990   42.1590   49.6730 C   0  0  0  0  0  0  0  0  0  0  0  0
    4.6350   41.7700   50.3650 C   0  0  0  0  0  0  0  0  0  0  0  0
    3.9760   40.5630   50.0740 O   0  0  0  0  0  0  0  0  0  0  0  0
    3.5540   40.1630   48.7740 C   0  0  0  0  0  0  0  0  0  0  0  0
    2.6610   44.8890   54.0270 C   0  0  0  0  0  0  0  0  0  0  0  0
    5.8171   45.9222   55.8397 H   0  0  0  0  0  0  0  0  0  0  0  0
    5.0917   45.1753   54.3759 H   0  0  0  0  0  0  0  0  0  0  0  0
    5.5195   46.9200   54.3759 H   0  0  0  0  0  0  0  0  0  0  0  0
    1.5730   46.2633   56.9645 H   0  0  0  0  0  0  0  0  0  0  0  0
   -1.6071   46.0931   57.9380 H   0  0  0  0  0  0  0  0  0  0  0  0
   -1.0693   46.8832   56.4171 H   0  0  0  0  0  0  0  0  0  0  0  0
   -2.5270   45.8335   56.4171 H   0  0  0  0  0  0  0  0  0  0  0  0
   -0.4597   43.5187   54.3011 H   0  0  0  0  0  0  0  0  0  0  0  0
    2.8720   41.2680   52.5280 H   0  0  0  0  0  0  0  0  0  0  0  0
    4.3698   44.4745   52.4575 H   0  0  0  0  0  0  0  0  0  0  0  0
    8.2630   44.6120   52.6040 H   0  0  0  0  0  0  0  0  0  0  0  0
    8.2757   48.5911   53.0983 H   0  0  0  0  0  0  0  0  0  0  0  0
    9.2887   48.4052   51.6266 H   0  0  0  0  0  0  0  0  0  0  0  0
    7.5894   47.8232   51.6266 H   0  0  0  0  0  0  0  0  0  0  0  0
    8.5439   46.3978   54.8626 H   0  0  0  0  0  0  0  0  0  0  0  0
   10.2611   46.1036   54.4250 H   0  0  0  0  0  0  0  0  0  0  0  0
    9.6082   47.7771   54.4250 H   0  0  0  0  0  0  0  0  0  0  0  0
   11.0116   45.8191   52.6482 H   0  0  0  0  0  0  0  0  0  0  0  0
    9.9557   45.2483   51.3118 H   0  0  0  0  0  0  0  0  0  0  0  0
   10.5714   46.9358   51.3118 H   0  0  0  0  0  0  0  0  0  0  0  0
    7.3391   43.6604   49.4258 H   0  0  0  0  0  0  0  0  0  0  0  0
    6.2112   41.5071   48.8887 H   0  0  0  0  0  0  0  0  0  0  0  0
    2.7583   39.4087   48.8627 H   0  0  0  0  0  0  0  0  0  0  0  0
    3.1710   41.0375   48.2276 H   0  0  0  0  0  0  0  0  0  0  0  0
    4.4068   39.7338   48.2276 H   0  0  0  0  0  0  0  0  0  0  0  0
    3.5351   44.8835   53.3592 H   0  0  0  0  0  0  0  0  0  0  0  0
  1  2  1  0
  2  3  1  0
  3  4  2  0
  4  5  1  0
  5  6  1  0
  6  7  1  0
  5  8  2  0
  8  9  1  0
  9 10  1  0
 10 11  2  0
 10 12  2  0
 10 13  1  0
 13 14  1  0
 14 15  2  0
 15 16  1  0
 16 17  1  0
 17 18  2  0
 17 19  2  0
 17 20  1  0
 20 21  1  0
 21 22  1  0
 21 23  1  0
 21 24  1  0
 16 25  2  0
 25 26  1  0
 26 27  2  0
 27 28  1  0
 28 29  1  0
  9 30  2  0
 30  3  1  0
 27 14  1  0
  1 31  1  0
  1 32  1  0
  1 33  1  0
  4 34  1  0
  7 35  1  0
  7 36  1  0
  7 37  1  0
  8 38  1  0
 13 39  1  0
 15 40  1  0
 20 41  1  0
 22 42  1  0
 22 43  1  0
 22 44  1  0
 23 45  1  0
 23 46  1  0
 23 47  1  0
 24 48  1  0
 24 49  1  0
 24 50  1  0
 25 51  1  0
 26 52  1  0
 29 53  1  0
 29 54  1  0
 29 55  1  0
 30 56  1  0
M  END
>  <meeko>  (4) 
{"is_sidechain": [false], "free_energy": -8.326, "intermolecular_energy": -12.65, "internal_energy": -0.327}

$$$$
ligand_63_conformer_1_docked
     RDKit          3D

 56 57  0  0  0  0  0  0  0  0999 V2000
   10.0390   47.4760   55.1300 C   0  0  0  0  0  0  0  0  0  0  0  0
   10.0530   47.1960   53.7340 O   0  0  0  0  0  0  0  0  0  0  0  0
    8.9280   46.8110   52.9910 C   0  0  0  0  0  0  0  0  0  0  0  0
    9.0270   46.2680   51.6940 C   0  0  0  0  0  0  0  0  0  0  0  0
    7.8660   45.9010   50.9840 C   0  0  0  0  0  0  0  0  0  0  0  0
    7.9150   45.3610   49.6890 O   0  0  0  0  0  0  0  0  0  0  0  0
    8.3190   44.0300   49.3860 C   0  0  0  0  0  0  0  0  0  0  0  0
    6.6130   46.0750   51.5820 C   0  0  0  0  0  0  0  0  0  0  0  0
    6.5070   46.6080   52.8720 C   0  0  0  0  0  0  0  0  0  0  0  0
    4.9210   46.7830   53.6190 S   0  0  0  0  0  0  0  0  0  0  0  0
    4.7040   48.2300   53.9590 O   0  0  0  0  0  0  0  0  0  0  0  0
    4.8290   45.9660   54.8780 O   0  0  0  0  0  0  0  0  0  0  0  0
    3.6870   46.2620   52.5150 N   0  0  0  0  0  0  0  0  0  0  0  0
    2.8390   45.1140   52.7310 C   0  0  0  0  0  0  0  0  0  0  0  0
    1.5310   45.2580   53.2360 C   0  0  0  0  0  0  0  0  0  0  0  0
    0.7170   44.1380   53.4470 C   0  0  0  0  0  0  0  0  0  0  0  0
   -0.9150   44.3240   54.0840 S   0  0  0  0  0  0  0  0  0  0  0  0
   -1.8330   44.5360   52.9130 O   0  0  0  0  0  0  0  0  0  0  0  0
   -1.3520   43.0660   54.7820 O   0  0  0  0  0  0  0  0  0  0  0  0
   -1.0750   45.6970   55.1560 N   0  0  0  0  0  0  0  0  0  0  0  0
   -0.8580   45.4580   56.6070 C   0  0  0  0  0  0  0  0  0  0  0  0
    0.5810   44.9650   56.8690 C   0  0  0  0  0  0  0  0  0  0  0  0
   -1.0230   46.8110   57.3350 C   0  0  0  0  0  0  0  0  0  0  0  0
   -1.8780   44.4640   57.2070 C   0  0  0  0  0  0  0  0  0  0  0  0
    1.2010   42.8630   53.1480 C   0  0  0  0  0  0  0  0  0  0  0  0
    2.4910   42.7040   52.6410 C   0  0  0  0  0  0  0  0  0  0  0  0
    3.3220   43.8220   52.4290 C   0  0  0  0  0  0  0  0  0  0  0  0
    4.6260   43.6850   51.9250 O   0  0  0  0  0  0  0  0  0  0  0  0
    4.9920   42.8290   50.8470 C   0  0  0  0  0  0  0  0  0  0  0  0
    7.6650   46.9780   53.5690 C   0  0  0  0  0  0  0  0  0  0  0  0
   10.0862   46.5326   55.6937 H   0  0  0  0  0  0  0  0  0  0  0  0
   10.9070   48.1007   55.3874 H   0  0  0  0  0  0  0  0  0  0  0  0
    9.1130   48.0110   55.3874 H   0  0  0  0  0  0  0  0  0  0  0  0
   10.0162   46.1298   51.2332 H   0  0  0  0  0  0  0  0  0  0  0  0
    8.4872   43.4760   50.3213 H   0  0  0  0  0  0  0  0  0  0  0  0
    7.5316   43.5319   48.8013 H   0  0  0  0  0  0  0  0  0  0  0  0
    9.2504   44.0536   48.8013 H   0  0  0  0  0  0  0  0  0  0  0  0
    5.7030   45.7904   51.0334 H   0  0  0  0  0  0  0  0  0  0  0  0
    3.5990   46.8100   51.6310 H   0  0  0  0  0  0  0  0  0  0  0  0
    1.1450   46.2618   53.4671 H   0  0  0  0  0  0  0  0  0  0  0  0
   -2.0480   46.0570   55.0090 H   0  0  0  0  0  0  0  0  0  0  0  0
    0.7563   44.9049   57.9533 H   0  0  0  0  0  0  0  0  0  0  0  0
    0.7150   43.9697   56.4202 H   0  0  0  0  0  0  0  0  0  0  0  0
    1.2972   45.6690   56.4202 H   0  0  0  0  0  0  0  0  0  0  0  0
   -1.0030   46.6470   58.4225 H   0  0  0  0  0  0  0  0  0  0  0  0
   -0.2002   47.4833   57.0504 H   0  0  0  0  0  0  0  0  0  0  0  0
   -1.9833   47.2658   57.0504 H   0  0  0  0  0  0  0  0  0  0  0  0
   -1.8316   44.5092   58.3051 H   0  0  0  0  0  0  0  0  0  0  0  0
   -2.8910   44.7309   56.8715 H   0  0  0  0  0  0  0  0  0  0  0  0
   -1.6373   43.4444   56.8715 H   0  0  0  0  0  0  0  0  0  0  0  0
    0.5637   41.9817   53.3126 H   0  0  0  0  0  0  0  0  0  0  0  0
    2.8629   41.6962   52.4045 H   0  0  0  0  0  0  0  0  0  0  0  0
    5.3948   41.8869   51.2473 H   0  0  0  0  0  0  0  0  0  0  0  0
    4.1061   42.6164   50.2306 H   0  0  0  0  0  0  0  0  0  0  0  0
    5.7578   43.3226   50.2306 H   0  0  0  0  0  0  0  0  0  0  0  0
    7.5802   47.4036   54.5798 H   0  0  0  0  0  0  0  0  0  0  0  0
  1  2  1  0
  2  3  1  0
  3  4  2  0
  4  5  1  0
  5  6  1  0
  6  7  1  0
  5  8  2  0
  8  9  1  0
  9 10  1  0
 10 11  2  0
 10 12  2  0
 10 13  1  0
 13 14  1  0
 14 15  2  0
 15 16  1  0
 16 17  1  0
 17 18  2  0
 17 19  2  0
 17 20  1  0
 20 21  1  0
 21 22  1  0
 21 23  1  0
 21 24  1  0
 16 25  2  0
 25 26  1  0
 26 27  2  0
 27 28  1  0
 28 29  1  0
  9 30  2  0
 30  3  1  0
 27 14  1  0
  1 31  1  0
  1 32  1  0
  1 33  1  0
  4 34  1  0
  7 35  1  0
  7 36  1  0
  7 37  1  0
  8 38  1  0
 13 39  1  0
 15 40  1  0
 20 41  1  0
 22 42  1  0
 22 43  1  0
 22 44  1  0
 23 45  1  0
 23 46  1  0
 23 47  1  0
 24 48  1  0
 24 49  1  0
 24 50  1  0
 25 51  1  0
 26 52  1  0
 29 53  1  0
 29 54  1  0
 29 55  1  0
 30 56  1  0
M  END
>  <meeko>  (5) 
{"is_sidechain": [false], "free_energy": -8.251, "intermolecular_energy": -12.319, "internal_energy": -0.545}

$$$$
