ligand_11_conformer_5_docked
     RDKit          3D

 40 42  0  0  0  0  0  0  0  0999 V2000
    7.8020   44.2500   49.9810 O   0  0  0  0  0  0  0  0  0  0  0  0
    6.6040   44.0470   50.3210 C   0  0  0  0  0  0  0  0  0  0  0  0
    5.9700   44.9360   51.2570 N   0  0  0  0  0  0  0  0  0  0  0  0
    6.6900   45.7670   52.1830 C   0  0  0  0  0  0  0  0  0  0  0  0
    6.5200   45.5710   53.5610 C   0  0  0  0  0  0  0  0  0  0  0  0
    7.2260   46.3520   54.4810 C   0  0  0  0  0  0  0  0  0  0  0  0
    8.1240   47.3310   54.0420 C   0  0  0  0  0  0  0  0  0  0  0  0
    8.8060   48.0880   55.0070 O   0  0  0  0  0  0  0  0  0  0  0  0
   10.1770   47.9170   55.3540 C   0  0  0  0  0  0  0  0  0  0  0  0
   10.5420   46.5930   55.1960 F   0  0  0  0  0  0  0  0  0  0  0  0
   10.3580   48.2790   56.6750 F   0  0  0  0  0  0  0  0  0  0  0  0
    8.3140   47.5160   52.6600 C   0  0  0  0  0  0  0  0  0  0  0  0
    7.6070   46.7370   51.7400 C   0  0  0  0  0  0  0  0  0  0  0  0
    5.8530   42.9230   49.7110 C   0  0  0  0  0  0  0  0  0  0  0  0
    4.8320   42.2790   50.4330 C   0  0  0  0  0  0  0  0  0  0  0  0
    4.1140   41.2230   49.8630 C   0  0  0  0  0  0  0  0  0  0  0  0
    4.3880   40.8060   48.5490 C   0  0  0  0  0  0  0  0  0  0  0  0
    3.6800   39.7070   47.9500 N   0  0  0  0  0  0  0  0  0  0  0  0
    3.1490   39.7210   46.6170 C   0  0  0  0  0  0  0  0  0  0  0  0
    2.3280   40.7370   46.2330 N   0  0  0  0  0  0  0  0  0  0  0  0
    1.7840   40.7670   44.9900 C   0  0  0  0  0  0  0  0  0  0  0  0
    2.0560   39.7400   44.0860 C   0  0  0  0  0  0  0  0  0  0  0  0
    2.8860   38.6990   44.4970 C   0  0  0  0  0  0  0  0  0  0  0  0
    3.4110   38.7050   45.7490 N   0  0  0  0  0  0  0  0  0  0  0  0
    5.4130   41.4360   47.8330 C   0  0  0  0  0  0  0  0  0  0  0  0
    6.1330   42.4920   48.4020 C   0  0  0  0  0  0  0  0  0  0  0  0
    4.9360   45.0720   51.1820 H   0  0  0  0  0  0  0  0  0  0  0  0
    5.8261   44.7971   53.9208 H   0  0  0  0  0  0  0  0  0  0  0  0
    7.0741   46.1954   55.5592 H   0  0  0  0  0  0  0  0  0  0  0  0
   10.7977   48.5467   54.6996 H   0  0  0  0  0  0  0  0  0  0  0  0
    9.0225   48.2775   52.3021 H   0  0  0  0  0  0  0  0  0  0  0  0
    7.7689   46.8835   50.6619 H   0  0  0  0  0  0  0  0  0  0  0  0
    4.5961   42.6091   51.4555 H   0  0  0  0  0  0  0  0  0  0  0  0
    3.3309   40.7162   50.4459 H   0  0  0  0  0  0  0  0  0  0  0  0
    3.6170   38.8120   48.4850 H   0  0  0  0  0  0  0  0  0  0  0  0
    1.1292   41.6004   44.6956 H   0  0  0  0  0  0  0  0  0  0  0  0
    1.6259   39.7517   43.0737 H   0  0  0  0  0  0  0  0  0  0  0  0
    3.1157   37.8731   43.8077 H   0  0  0  0  0  0  0  0  0  0  0  0
    5.6543   41.0978   46.8145 H   0  0  0  0  0  0  0  0  0  0  0  0
    6.9240   42.9889   47.8211 H   0  0  0  0  0  0  0  0  0  0  0  0
  1  2  2  0
  2  3  1  0
  3  4  1  0
  4  5  2  0
  5  6  1  0
  6  7  2  0
  7  8  1  0
  8  9  1  0
  9 10  1  0
  9 11  1  0
  7 12  1  0
 12 13  2  0
  2 14  1  0
 14 15  2  0
 15 16  1  0
 16 17  2  0
 17 18  1  0
 18 19  1  0
 19 20  2  0
 20 21  1  0
 21 22  2  0
 22 23  1  0
 23 24  2  0
 17 25  1  0
 25 26  2  0
 13  4  1  0
 26 14  1  0
 24 19  1  0
  3 27  1  0
  5 28  1  0
  6 29  1  0
  9 30  1  0
 12 31  1  0
 13 32  1  0
 15 33  1  0
 16 34  1  0
 18 35  1  0
 21 36  1  0
 22 37  1  0
 23 38  1  0
 25 39  1  0
 26 40  1  0
M  END
>  <meeko>  (1) 
{"is_sidechain": [false], "free_energy": -8.233, "intermolecular_energy": -11.121, "internal_energy": -0.527}

$$$$
ligand_11_conformer_5_docked
     RDKit          3D

 40 42  0  0  0  0  0  0  0  0999 V2000
    6.8530   41.6310   50.1840 O   0  0  0  0  0  0  0  0  0  0  0  0
    6.5590   42.2110   49.1010 C   0  0  0  0  0  0  0  0  0  0  0  0
    7.2460   43.4200   48.7350 N   0  0  0  0  0  0  0  0  0  0  0  0
    7.9100   44.2800   49.6770 C   0  0  0  0  0  0  0  0  0  0  0  0
    9.2980   44.1780   49.8430 C   0  0  0  0  0  0  0  0  0  0  0  0
    9.9690   45.0180   50.7380 C   0  0  0  0  0  0  0  0  0  0  0  0
    9.2680   45.9820   51.4700 C   0  0  0  0  0  0  0  0  0  0  0  0
    9.9880   46.7980   52.3560 O   0  0  0  0  0  0  0  0  0  0  0  0
    9.5240   47.2140   53.6370 C   0  0  0  0  0  0  0  0  0  0  0  0
    8.9160   48.4510   53.5400 F   0  0  0  0  0  0  0  0  0  0  0  0
   10.6010   47.3090   54.4990 F   0  0  0  0  0  0  0  0  0  0  0  0
    7.8770   46.1010   51.2910 C   0  0  0  0  0  0  0  0  0  0  0  0
    7.2060   45.2610   50.3980 C   0  0  0  0  0  0  0  0  0  0  0  0
    5.5480   41.6070   48.2010 C   0  0  0  0  0  0  0  0  0  0  0  0
    5.6360   41.7960   46.8100 C   0  0  0  0  0  0  0  0  0  0  0  0
    4.6910   41.2240   45.9530 C   0  0  0  0  0  0  0  0  0  0  0  0
    3.6510   40.4320   46.4690 C   0  0  0  0  0  0  0  0  0  0  0  0
    2.6530   39.8540   45.6110 N   0  0  0  0  0  0  0  0  0  0  0  0
    1.6800   40.6130   44.8780 C   0  0  0  0  0  0  0  0  0  0  0  0
    0.9320   41.5470   45.5270 N   0  0  0  0  0  0  0  0  0  0  0  0
   -0.0170   42.2630   44.8720 C   0  0  0  0  0  0  0  0  0  0  0  0
   -0.2450   42.0400   43.5150 C   0  0  0  0  0  0  0  0  0  0  0  0
    0.5190   41.0700   42.8660 C   0  0  0  0  0  0  0  0  0  0  0  0
    1.4590   40.3750   43.5560 N   0  0  0  0  0  0  0  0  0  0  0  0
    3.5530   40.2540   47.8550 C   0  0  0  0  0  0  0  0  0  0  0  0
    4.4970   40.8250   48.7140 C   0  0  0  0  0  0  0  0  0  0  0  0
    7.3660   43.6270   47.7180 H   0  0  0  0  0  0  0  0  0  0  0  0
    9.8637   43.4321   49.2654 H   0  0  0  0  0  0  0  0  0  0  0  0
   11.0569   44.9196   50.8672 H   0  0  0  0  0  0  0  0  0  0  0  0
    8.7976   46.4796   54.0152 H   0  0  0  0  0  0  0  0  0  0  0  0
    7.3153   46.8589   51.8567 H   0  0  0  0  0  0  0  0  0  0  0  0
    6.1202   45.3679   50.2582 H   0  0  0  0  0  0  0  0  0  0  0  0
    6.4557   42.3993   46.3927 H   0  0  0  0  0  0  0  0  0  0  0  0
    4.7619   41.3948   44.8687 H   0  0  0  0  0  0  0  0  0  0  0  0
    2.6850   38.8230   45.4440 H   0  0  0  0  0  0  0  0  0  0  0  0
   -0.6060   43.0190   45.4119 H   0  0  0  0  0  0  0  0  0  0  0  0
   -1.0082   42.6145   42.9697 H   0  0  0  0  0  0  0  0  0  0  0  0
    0.3600   40.8685   41.7964 H   0  0  0  0  0  0  0  0  0  0  0  0
    2.7261   39.6598   48.2712 H   0  0  0  0  0  0  0  0  0  0  0  0
    4.4173   40.6616   49.7989 H   0  0  0  0  0  0  0  0  0  0  0  0
  1  2  2  0
  2  3  1  0
  3  4  1  0
  4  5  2  0
  5  6  1  0
  6  7  2  0
  7  8  1  0
  8  9  1  0
  9 10  1  0
  9 11  1  0
  7 12  1  0
 12 13  2  0
  2 14  1  0
 14 15  2  0
 15 16  1  0
 16 17  2  0
 17 18  1  0
 18 19  1  0
 19 20  2  0
 20 21  1  0
 21 22  2  0
 22 23  1  0
 23 24  2  0
 17 25  1  0
 25 26  2  0
 13  4  1  0
 26 14  1  0
 24 19  1  0
  3 27  1  0
  5 28  1  0
  6 29  1  0
  9 30  1  0
 12 31  1  0
 13 32  1  0
 15 33  1  0
 16 34  1  0
 18 35  1  0
 21 36  1  0
 22 37  1  0
 23 38  1  0
 25 39  1  0
 26 40  1  0
M  END
>  <meeko>  (2) 
{"is_sidechain": [false], "free_energy": -7.991, "intermolecular_energy": -10.585, "internal_energy": -0.736}

$$$$
ligand_11_conformer_5_docked
     RDKit          3D

 40 42  0  0  0  0  0  0  0  0999 V2000
    4.2160   43.2360   52.7160 O   0  0  0  0  0  0  0  0  0  0  0  0
    3.4120   43.9790   52.0870 C   0  0  0  0  0  0  0  0  0  0  0  0
    3.9180   45.0910   51.3280 N   0  0  0  0  0  0  0  0  0  0  0  0
    5.1920   45.7110   51.5710 C   0  0  0  0  0  0  0  0  0  0  0  0
    6.2980   45.3410   50.7940 C   0  0  0  0  0  0  0  0  0  0  0  0
    7.5420   45.9460   50.9970 C   0  0  0  0  0  0  0  0  0  0  0  0
    7.6990   46.9400   51.9690 C   0  0  0  0  0  0  0  0  0  0  0  0
    8.9690   47.5140   52.1340 O   0  0  0  0  0  0  0  0  0  0  0  0
    9.9160   47.1220   53.1240 C   0  0  0  0  0  0  0  0  0  0  0  0
    9.7320   45.7910   53.4500 F   0  0  0  0  0  0  0  0  0  0  0  0
    9.7300   47.8920   54.2560 F   0  0  0  0  0  0  0  0  0  0  0  0
    6.5870   47.3290   52.7370 C   0  0  0  0  0  0  0  0  0  0  0  0
    5.3430   46.7240   52.5350 C   0  0  0  0  0  0  0  0  0  0  0  0
    1.9640   43.6620   52.0990 C   0  0  0  0  0  0  0  0  0  0  0  0
    1.4520   42.7260   53.0160 C   0  0  0  0  0  0  0  0  0  0  0  0
    0.0870   42.4260   53.0390 C   0  0  0  0  0  0  0  0  0  0  0  0
   -0.7980   43.0730   52.1600 C   0  0  0  0  0  0  0  0  0  0  0  0
   -2.2020   42.7640   52.1480 N   0  0  0  0  0  0  0  0  0  0  0  0
   -2.8190   41.8480   51.2320 C   0  0  0  0  0  0  0  0  0  0  0  0
   -3.0950   40.5780   51.6380 N   0  0  0  0  0  0  0  0  0  0  0  0
   -3.6510   39.6760   50.7890 C   0  0  0  0  0  0  0  0  0  0  0  0
   -3.9400   40.0420   49.4750 C   0  0  0  0  0  0  0  0  0  0  0  0
   -3.6380   41.3410   49.0690 C   0  0  0  0  0  0  0  0  0  0  0  0
   -3.0830   42.2140   49.9480 N   0  0  0  0  0  0  0  0  0  0  0  0
   -0.2890   43.9950   51.2360 C   0  0  0  0  0  0  0  0  0  0  0  0
    1.0760   44.2960   51.2110 C   0  0  0  0  0  0  0  0  0  0  0  0
    3.3820   45.3910   50.4820 H   0  0  0  0  0  0  0  0  0  0  0  0
    6.1866   44.5688   50.0186 H   0  0  0  0  0  0  0  0  0  0  0  0
    8.4044   45.6380   50.3875 H   0  0  0  0  0  0  0  0  0  0  0  0
   10.9334   47.2642   52.7307 H   0  0  0  0  0  0  0  0  0  0  0  0
    6.6966   48.1133   53.5005 H   0  0  0  0  0  0  0  0  0  0  0  0
    4.4768   47.0422   53.1337 H   0  0  0  0  0  0  0  0  0  0  0  0
    2.1320   42.2257   53.7212 H   0  0  0  0  0  0  0  0  0  0  0  0
   -0.2967   41.6790   53.7494 H   0  0  0  0  0  0  0  0  0  0  0  0
   -2.8010   43.1680   52.9030 H   0  0  0  0  0  0  0  0  0  0  0  0
   -3.8734   38.6567   51.1378 H   0  0  0  0  0  0  0  0  0  0  0  0
   -4.3947   39.3241   48.7765 H   0  0  0  0  0  0  0  0  0  0  0  0
   -3.8493   41.6583   48.0372 H   0  0  0  0  0  0  0  0  0  0  0  0
   -0.9690   44.4861   50.5244 H   0  0  0  0  0  0  0  0  0  0  0  0
    1.4587   45.0345   50.4912 H   0  0  0  0  0  0  0  0  0  0  0  0
  1  2  2  0
  2  3  1  0
  3  4  1  0
  4  5  2  0
  5  6  1  0
  6  7  2  0
  7  8  1  0
  8  9  1  0
  9 10  1  0
  9 11  1  0
  7 12  1  0
 12 13  2  0
  2 14  1  0
 14 15  2  0
 15 16  1  0
 16 17  2  0
 17 18  1  0
 18 19  1  0
 19 20  2  0
 20 21  1  0
 21 22  2  0
 22 23  1  0
 23 24  2  0
 17 25  1  0
 25 26  2  0
 13  4  1  0
 26 14  1  0
 24 19  1  0
  3 27  1  0
  5 28  1  0
  6 29  1  0
  9 30  1  0
 12 31  1  0
 13 32  1  0
 15 33  1  0
 16 34  1  0
 18 35  1  0
 21 36  1  0
 22 37  1  0
 23 38  1  0
 25 39  1  0
 26 40  1  0
M  END
>  <meeko>  (3) 
{"is_sidechain": [false], "free_energy": -7.968, "intermolecular_energy": -10.461, "internal_energy": -0.829}

$$$$
ligand_11_conformer_5_docked
     RDKit          3D

 40 42  0  0  0  0  0  0  0  0999 V2000
    4.2170   43.3550   52.6940 O   0  0  0  0  0  0  0  0  0  0  0  0
    3.4010   44.2870   52.4490 C   0  0  0  0  0  0  0  0  0  0  0  0
    3.8460   45.4510   51.7330 N   0  0  0  0  0  0  0  0  0  0  0  0
    5.2210   45.8670   51.6590 C   0  0  0  0  0  0  0  0  0  0  0  0
    5.7040   46.8180   52.5690 C   0  0  0  0  0  0  0  0  0  0  0  0
    7.0420   47.2220   52.5300 C   0  0  0  0  0  0  0  0  0  0  0  0
    7.9230   46.6730   51.5920 C   0  0  0  0  0  0  0  0  0  0  0  0
    9.2550   47.1140   51.5940 O   0  0  0  0  0  0  0  0  0  0  0  0
   10.3250   46.4660   52.2780 C   0  0  0  0  0  0  0  0  0  0  0  0
   10.6710   45.3030   51.6150 F   0  0  0  0  0  0  0  0  0  0  0  0
    9.9160   46.1480   53.5590 F   0  0  0  0  0  0  0  0  0  0  0  0
    7.4480   45.7030   50.6900 C   0  0  0  0  0  0  0  0  0  0  0  0
    6.1090   45.3000   50.7280 C   0  0  0  0  0  0  0  0  0  0  0  0
    1.9840   44.1400   52.8580 C   0  0  0  0  0  0  0  0  0  0  0  0
    1.1060   45.2360   52.7750 C   0  0  0  0  0  0  0  0  0  0  0  0
   -0.2340   45.1060   53.1520 C   0  0  0  0  0  0  0  0  0  0  0  0
   -0.7290   43.8690   53.6000 C   0  0  0  0  0  0  0  0  0  0  0  0
   -2.0960   43.7150   54.0160 N   0  0  0  0  0  0  0  0  0  0  0  0
   -2.5660   43.9610   55.3500 C   0  0  0  0  0  0  0  0  0  0  0  0
   -2.8980   45.2280   55.7200 N   0  0  0  0  0  0  0  0  0  0  0  0
   -3.3180   45.5020   56.9820 C   0  0  0  0  0  0  0  0  0  0  0  0
   -3.4060   44.4780   57.9240 C   0  0  0  0  0  0  0  0  0  0  0  0
   -3.0490   43.1880   57.5350 C   0  0  0  0  0  0  0  0  0  0  0  0
   -2.6330   42.9540   56.2640 N   0  0  0  0  0  0  0  0  0  0  0  0
    0.1470   42.7790   53.6970 C   0  0  0  0  0  0  0  0  0  0  0  0
    1.4870   42.9080   53.3200 C   0  0  0  0  0  0  0  0  0  0  0  0
    3.1500   45.9590   51.1410 H   0  0  0  0  0  0  0  0  0  0  0  0
    5.0252   47.2495   53.3193 H   0  0  0  0  0  0  0  0  0  0  0  0
    7.4048   47.9775   53.2425 H   0  0  0  0  0  0  0  0  0  0  0  0
   11.1942   47.1392   52.3132 H   0  0  0  0  0  0  0  0  0  0  0  0
    8.1326   45.2597   49.9518 H   0  0  0  0  0  0  0  0  0  0  0  0
    5.7485   44.5346   50.0250 H   0  0  0  0  0  0  0  0  0  0  0  0
    1.4774   46.2049   52.4099 H   0  0  0  0  0  0  0  0  0  0  0  0
   -0.9045   45.9763   53.0978 H   0  0  0  0  0  0  0  0  0  0  0  0
   -2.8100   43.4880   53.2880 H   0  0  0  0  0  0  0  0  0  0  0  0
   -3.5886   46.5311   57.2608 H   0  0  0  0  0  0  0  0  0  0  0  0
   -3.7487   44.6830   58.9489 H   0  0  0  0  0  0  0  0  0  0  0  0
   -3.1043   42.3602   58.2573 H   0  0  0  0  0  0  0  0  0  0  0  0
   -0.2231   41.8138   54.0730 H   0  0  0  0  0  0  0  0  0  0  0  0
    2.1581   42.0389   53.3852 H   0  0  0  0  0  0  0  0  0  0  0  0
  1  2  2  0
  2  3  1  0
  3  4  1  0
  4  5  2  0
  5  6  1  0
  6  7  2  0
  7  8  1  0
  8  9  1  0
  9 10  1  0
  9 11  1  0
  7 12  1  0
 12 13  2  0
  2 14  1  0
 14 15  2  0
 15 16  1  0
 16 17  2  0
 17 18  1  0
 18 19  1  0
 19 20  2  0
 20 21  1  0
 21 22  2  0
 22 23  1  0
 23 24  2  0
 17 25  1  0
 25 26  2  0
 13  4  1  0
 26 14  1  0
 24 19  1  0
  3 27  1  0
  5 28  1  0
  6 29  1  0
  9 30  1  0
 12 31  1  0
 13 32  1  0
 15 33  1  0
 16 34  1  0
 18 35  1  0
 21 36  1  0
 22 37  1  0
 23 38  1  0
 25 39  1  0
 26 40  1  0
M  END
>  <meeko>  (4) 
{"is_sidechain": [false], "free_energy": -7.92, "intermolecular_energy": -10.433, "internal_energy": -0.792}

$$$$
ligand_11_conformer_5_docked
     RDKit          3D

 40 42  0  0  0  0  0  0  0  0999 V2000
    3.4420   43.7940   53.2270 O   0  0  0  0  0  0  0  0  0  0  0  0
    2.8870   44.8720   53.5790 C   0  0  0  0  0  0  0  0  0  0  0  0
    3.4250   46.1270   53.1310 N   0  0  0  0  0  0  0  0  0  0  0  0
    4.7840   46.3050   52.6960 C   0  0  0  0  0  0  0  0  0  0  0  0
    5.6800   47.0130   53.5090 C   0  0  0  0  0  0  0  0  0  0  0  0
    7.0120   47.1800   53.1180 C   0  0  0  0  0  0  0  0  0  0  0  0
    7.4750   46.6320   51.9170 C   0  0  0  0  0  0  0  0  0  0  0  0
    8.8200   46.8300   51.5690 O   0  0  0  0  0  0  0  0  0  0  0  0
    9.9320   46.4010   52.3500 C   0  0  0  0  0  0  0  0  0  0  0  0
   10.2660   47.3760   53.2720 F   0  0  0  0  0  0  0  0  0  0  0  0
   11.0120   46.1820   51.5160 F   0  0  0  0  0  0  0  0  0  0  0  0
    6.5840   45.9030   51.1080 C   0  0  0  0  0  0  0  0  0  0  0  0
    5.2510   45.7370   51.4980 C   0  0  0  0  0  0  0  0  0  0  0  0
    1.6570   44.8220   54.4050 C   0  0  0  0  0  0  0  0  0  0  0  0
    0.4600   44.3180   53.8650 C   0  0  0  0  0  0  0  0  0  0  0  0
   -0.7020   44.2610   54.6390 C   0  0  0  0  0  0  0  0  0  0  0  0
   -0.6860   44.6870   55.9780 C   0  0  0  0  0  0  0  0  0  0  0  0
   -1.8740   44.6610   56.7880 N   0  0  0  0  0  0  0  0  0  0  0  0
   -2.5170   45.8310   57.3130 C   0  0  0  0  0  0  0  0  0  0  0  0
   -2.8810   45.8630   58.6250 N   0  0  0  0  0  0  0  0  0  0  0  0
   -3.5170   46.9420   59.1490 C   0  0  0  0  0  0  0  0  0  0  0  0
   -3.8170   48.0350   58.3380 C   0  0  0  0  0  0  0  0  0  0  0  0
   -3.4520   47.9830   56.9940 C   0  0  0  0  0  0  0  0  0  0  0  0
   -2.8170   46.8860   56.5070 N   0  0  0  0  0  0  0  0  0  0  0  0
    0.5010   45.2020   56.5150 C   0  0  0  0  0  0  0  0  0  0  0  0
    1.6650   45.2600   55.7420 C   0  0  0  0  0  0  0  0  0  0  0  0
    2.7640   46.9280   53.0060 H   0  0  0  0  0  0  0  0  0  0  0  0
    5.3327   47.4402   54.4613 H   0  0  0  0  0  0  0  0  0  0  0  0
    7.7018   47.7472   53.7603 H   0  0  0  0  0  0  0  0  0  0  0  0
    9.6667   45.4743   52.8800 H   0  0  0  0  0  0  0  0  0  0  0  0
    6.9374   45.4616   50.1645 H   0  0  0  0  0  0  0  0  0  0  0  0
    4.5638   45.1583   50.8632 H   0  0  0  0  0  0  0  0  0  0  0  0
    0.4384   43.9653   52.8233 H   0  0  0  0  0  0  0  0  0  0  0  0
   -1.6348   43.8804   54.1975 H   0  0  0  0  0  0  0  0  0  0  0  0
   -2.3470   43.7420   56.9380 H   0  0  0  0  0  0  0  0  0  0  0  0
   -3.7954   46.9535   60.2131 H   0  0  0  0  0  0  0  0  0  0  0  0
   -4.3295   48.9174   58.7488 H   0  0  0  0  0  0  0  0  0  0  0  0
   -3.6780   48.8294   56.3287 H   0  0  0  0  0  0  0  0  0  0  0  0
    0.5176   45.5639   57.5536 H   0  0  0  0  0  0  0  0  0  0  0  0
    2.5939   45.6511   56.1827 H   0  0  0  0  0  0  0  0  0  0  0  0
  1  2  2  0
  2  3  1  0
  3  4  1  0
  4  5  2  0
  5  6  1  0
  6  7  2  0
  7  8  1  0
  8  9  1  0
  9 10  1  0
  9 11  1  0
  7 12  1  0
 12 13  2  0
  2 14  1  0
 14 15  2  0
 15 16  1  0
 16 17  2  0
 17 18  1  0
 18 19  1  0
 19 20  2  0
 20 21  1  0
 21 22  2  0
 22 23  1  0
 23 24  2  0
 17 25  1  0
 25 26  2  0
 13  4  1  0
 26 14  1  0
 24 19  1  0
  3 27  1  0
  5 28  1  0
  6 29  1  0
  9 30  1  0
 12 31  1  0
 13 32  1  0
 15 33  1  0
 16 34  1  0
 18 35  1  0
 21 36  1  0
 22 37  1  0
 23 38  1  0
 25 39  1  0
 26 40  1  0
M  END
>  <meeko>  (5) 
{"is_sidechain": [false], "free_energy": -7.718, "intermolecular_energy": -10.401, "internal_energy": -0.552}

$$$$
