MODEL 1
REMARK VINA RESULT:    -7.881      0.000      0.000
REMARK INTER + INTRA:         -11.303
REMARK INTER:                 -10.415
REMARK INTRA:                  -0.889
REMARK UNBOUND:                -0.889
REMARK SMILES Nc1ccc(C(=O)Nc2ccc(Cl)cc2OCC(F)(F)F)cn1
REMARK SMILES IDX 9 1 10 2 11 3 12 4 13 5 14 6 15 7 8 8 6 9 7 10 5 12 2 13
REMARK SMILES IDX 3 14 23 15 4 16 22 17 1 18 16 21 17 22 18 23 19 24 20 25
REMARK SMILES IDX 21 26
REMARK H PARENT 8 11 1 19 1 20
ROOT
ATOM      1  C   UNL     1       5.333  45.217  51.720  1.00  0.00     0.084 A 
ATOM      2  C   UNL     1       5.222  44.130  50.842  1.00  0.00     0.031 A 
ATOM      3  C   UNL     1       6.272  43.804  49.981  1.00  0.00     0.023 A 
ATOM      4  C   UNL     1       7.450  44.553  50.001  1.00  0.00     0.044 A 
ATOM      5  Cl  UNL     1       8.766  44.140  48.917  1.00  0.00    -0.084 Cl
ATOM      6  C   UNL     1       7.586  45.622  50.892  1.00  0.00     0.069 A 
ATOM      7  C   UNL     1       6.534  45.961  51.769  1.00  0.00     0.144 A 
ENDROOT
BRANCH   1   8
ATOM      8  N   UNL     1       4.233  45.524  52.590  1.00  0.00    -0.319 N 
ATOM      9  C   UNL     1       4.063  44.908  53.878  1.00  0.00     0.257 C 
ATOM     10  O   UNL     1       5.044  44.334  54.426  1.00  0.00    -0.269 OA
ATOM     11  H   UNL     1       3.646  46.357  52.360  1.00  0.00     0.170 HD
BRANCH   9  12
ATOM     12  C   UNL     1       2.762  44.970  54.587  1.00  0.00     0.058 A 
ATOM     13  C   UNL     1       0.315  45.113  55.919  1.00  0.00     0.123 A 
ATOM     14  C   UNL     1       0.411  44.381  54.732  1.00  0.00     0.047 A 
ATOM     15  N   UNL     1       1.410  45.753  56.408  1.00  0.00    -0.239 NA
ATOM     16  C   UNL     1       1.636  44.315  54.065  1.00  0.00     0.019 A 
ATOM     17  C   UNL     1       2.614  45.702  55.778  1.00  0.00     0.127 A 
BRANCH  13  18
ATOM     18  N   UNL     1      -0.928  45.197  56.620  1.00  0.00    -0.384 N 
ATOM     19  H   UNL     1      -1.290  46.115  56.962  1.00  0.00     0.158 HD
ATOM     20  H   UNL     1      -1.489  44.335  56.797  1.00  0.00     0.158 HD
ENDBRANCH  13  18
ENDBRANCH   9  12
ENDBRANCH   1   8
BRANCH   7  21
ATOM     21  O   UNL     1       6.652  46.990  52.720  1.00  0.00    -0.482 OA
BRANCH  21  22
ATOM     22  C   UNL     1       7.426  46.949  53.920  1.00  0.00     0.344 C 
BRANCH  22  23
ATOM     23  C   UNL     1       8.814  47.549  53.700  1.00  0.00     0.422 C 
ATOM     24  F   UNL     1       9.741  46.536  53.538  1.00  0.00    -0.167 F 
ATOM     25  F   UNL     1       9.185  48.333  54.777  1.00  0.00    -0.167 F 
ATOM     26  F   UNL     1       8.802  48.333  52.561  1.00  0.00    -0.167 F 
ENDBRANCH  22  23
ENDBRANCH  21  22
ENDBRANCH   7  21
TORSDOF 6
ENDMDL
MODEL 2
REMARK VINA RESULT:    -7.736      3.791      4.689
REMARK INTER + INTRA:         -11.112
REMARK INTER:                 -10.345
REMARK INTRA:                  -0.767
REMARK UNBOUND:                -0.889
REMARK SMILES Nc1ccc(C(=O)Nc2ccc(Cl)cc2OCC(F)(F)F)cn1
REMARK SMILES IDX 9 1 10 2 11 3 12 4 13 5 14 6 15 7 8 8 6 9 7 10 5 12 2 13
REMARK SMILES IDX 3 14 23 15 4 16 22 17 1 18 16 21 17 22 18 23 19 24 20 25
REMARK SMILES IDX 21 26
REMARK H PARENT 8 11 1 19 1 20
ROOT
ATOM      1  C   UNL     1       5.423  45.781  51.683  1.00  0.00     0.084 A 
ATOM      2  C   UNL     1       5.868  46.882  52.430  1.00  0.00     0.031 A 
ATOM      3  C   UNL     1       7.216  47.242  52.426  1.00  0.00     0.023 A 
ATOM      4  C   UNL     1       8.132  46.515  51.664  1.00  0.00     0.044 A 
ATOM      5  Cl  UNL     1       9.826  46.970  51.663  1.00  0.00    -0.084 Cl
ATOM      6  C   UNL     1       7.698  45.433  50.892  1.00  0.00     0.069 A 
ATOM      7  C   UNL     1       6.338  45.059  50.884  1.00  0.00     0.144 A 
ENDROOT
BRANCH   1   8
ATOM      8  N   UNL     1       4.029  45.439  51.712  1.00  0.00    -0.319 N 
ATOM      9  C   UNL     1       3.478  44.490  52.640  1.00  0.00     0.257 C 
ATOM     10  O   UNL     1       4.134  44.178  53.672  1.00  0.00    -0.269 OA
ATOM     11  H   UNL     1       3.368  46.040  51.169  1.00  0.00     0.170 HD
BRANCH   9  12
ATOM     12  C   UNL     1       2.136  43.899  52.421  1.00  0.00     0.058 A 
ATOM     13  C   UNL     1      -0.381  42.775  51.987  1.00  0.00     0.123 A 
ATOM     14  C   UNL     1       0.298  42.504  53.178  1.00  0.00     0.047 A 
ATOM     15  N   UNL     1       0.193  43.576  51.050  1.00  0.00    -0.239 NA
ATOM     16  C   UNL     1       1.559  43.064  53.391  1.00  0.00     0.019 A 
ATOM     17  C   UNL     1       1.419  44.135  51.235  1.00  0.00     0.127 A 
BRANCH  13  18
ATOM     18  N   UNL     1      -1.672  42.214  51.744  1.00  0.00    -0.384 N 
ATOM     19  H   UNL     1      -2.540  42.717  52.035  1.00  0.00     0.158 HD
ATOM     20  H   UNL     1      -1.761  41.288  51.270  1.00  0.00     0.158 HD
ENDBRANCH  13  18
ENDBRANCH   9  12
ENDBRANCH   1   8
BRANCH   7  21
ATOM     21  O   UNL     1       5.850  44.015  50.077  1.00  0.00    -0.482 OA
BRANCH  21  22
ATOM     22  C   UNL     1       6.637  43.057  49.367  1.00  0.00     0.344 C 
BRANCH  22  23
ATOM     23  C   UNL     1       6.264  41.631  49.771  1.00  0.00     0.422 C 
ATOM     24  F   UNL     1       5.298  41.663  50.761  1.00  0.00    -0.167 F 
ATOM     25  F   UNL     1       7.371  40.950  50.242  1.00  0.00    -0.167 F 
ATOM     26  F   UNL     1       5.759  40.959  48.674  1.00  0.00    -0.167 F 
ENDBRANCH  22  23
ENDBRANCH  21  22
ENDBRANCH   7  21
TORSDOF 6
ENDMDL
MODEL 3
REMARK VINA RESULT:    -7.575      3.552      6.622
REMARK INTER + INTRA:         -10.900
REMARK INTER:                  -9.848
REMARK INTRA:                  -1.052
REMARK UNBOUND:                -0.889
REMARK SMILES Nc1ccc(C(=O)Nc2ccc(Cl)cc2OCC(F)(F)F)cn1
REMARK SMILES IDX 9 1 10 2 11 3 12 4 13 5 14 6 15 7 8 8 6 9 7 10 5 12 2 13
REMARK SMILES IDX 3 14 23 15 4 16 22 17 1 18 16 21 17 22 18 23 19 24 20 25
REMARK SMILES IDX 21 26
REMARK H PARENT 8 11 1 19 1 20
ROOT
ATOM      1  C   UNL     1       2.101  44.708  53.438  1.00  0.00     0.084 A 
ATOM      2  C   UNL     1       0.740  44.523  53.155  1.00  0.00     0.031 A 
ATOM      3  C   UNL     1      -0.209  44.568  54.178  1.00  0.00     0.023 A 
ATOM      4  C   UNL     1       0.192  44.812  55.492  1.00  0.00     0.044 A 
ATOM      5  Cl  UNL     1      -1.004  44.866  56.775  1.00  0.00    -0.084 Cl
ATOM      6  C   UNL     1       1.542  45.028  55.785  1.00  0.00     0.069 A 
ATOM      7  C   UNL     1       2.511  44.989  54.761  1.00  0.00     0.144 A 
ENDROOT
BRANCH   1   8
ATOM      8  N   UNL     1       3.049  44.655  52.361  1.00  0.00    -0.319 N 
ATOM      9  C   UNL     1       3.755  43.454  52.003  1.00  0.00     0.257 C 
ATOM     10  O   UNL     1       3.323  42.338  52.401  1.00  0.00    -0.269 OA
ATOM     11  H   UNL     1       3.082  45.463  51.700  1.00  0.00     0.170 HD
BRANCH   9  12
ATOM     12  C   UNL     1       4.962  43.507  51.144  1.00  0.00     0.058 A 
ATOM     13  C   UNL     1       7.219  43.600  49.506  1.00  0.00     0.123 A 
ATOM     14  C   UNL     1       6.808  44.755  50.177  1.00  0.00     0.047 A 
ATOM     15  N   UNL     1       6.513  42.447  49.651  1.00  0.00    -0.239 NA
ATOM     16  C   UNL     1       5.676  44.707  50.993  1.00  0.00     0.019 A 
ATOM     17  C   UNL     1       5.409  42.375  50.442  1.00  0.00     0.127 A 
BRANCH  13  18
ATOM     18  N   UNL     1       8.374  43.623  48.665  1.00  0.00    -0.384 N 
ATOM     19  H   UNL     1       8.784  44.527  48.341  1.00  0.00     0.158 HD
ATOM     20  H   UNL     1       8.821  42.729  48.363  1.00  0.00     0.158 HD
ENDBRANCH  13  18
ENDBRANCH   9  12
ENDBRANCH   1   8
BRANCH   7  21
ATOM     21  O   UNL     1       3.871  45.257  55.003  1.00  0.00    -0.482 OA
BRANCH  21  22
ATOM     22  C   UNL     1       4.490  46.544  55.015  1.00  0.00     0.344 C 
BRANCH  22  23
ATOM     23  C   UNL     1       5.832  46.516  54.284  1.00  0.00     0.422 C 
ATOM     24  F   UNL     1       6.792  47.159  55.044  1.00  0.00    -0.167 F 
ATOM     25  F   UNL     1       5.734  47.143  53.056  1.00  0.00    -0.167 F 
ATOM     26  F   UNL     1       6.220  45.205  54.086  1.00  0.00    -0.167 F 
ENDBRANCH  22  23
ENDBRANCH  21  22
ENDBRANCH   7  21
TORSDOF 6
ENDMDL
MODEL 4
REMARK VINA RESULT:    -7.528      4.079      6.675
REMARK INTER + INTRA:         -10.838
REMARK INTER:                 -10.074
REMARK INTRA:                  -0.764
REMARK UNBOUND:                -0.889
REMARK SMILES Nc1ccc(C(=O)Nc2ccc(Cl)cc2OCC(F)(F)F)cn1
REMARK SMILES IDX 9 1 10 2 11 3 12 4 13 5 14 6 15 7 8 8 6 9 7 10 5 12 2 13
REMARK SMILES IDX 3 14 23 15 4 16 22 17 1 18 16 21 17 22 18 23 19 24 20 25
REMARK SMILES IDX 21 26
REMARK H PARENT 8 11 1 19 1 20
ROOT
ATOM      1  C   UNL     1       2.884  44.063  53.068  1.00  0.00     0.084 A 
ATOM      2  C   UNL     1       1.739  44.206  53.865  1.00  0.00     0.031 A 
ATOM      3  C   UNL     1       0.516  43.675  53.451  1.00  0.00     0.023 A 
ATOM      4  C   UNL     1       0.429  42.983  52.242  1.00  0.00     0.044 A 
ATOM      5  Cl  UNL     1      -1.110  42.318  51.724  1.00  0.00    -0.084 Cl
ATOM      6  C   UNL     1       1.569  42.807  51.451  1.00  0.00     0.069 A 
ATOM      7  C   UNL     1       2.811  43.336  51.859  1.00  0.00     0.144 A 
ENDROOT
BRANCH   1   8
ATOM      8  N   UNL     1       4.124  44.623  53.526  1.00  0.00    -0.319 N 
ATOM      9  C   UNL     1       4.595  45.917  53.111  1.00  0.00     0.257 C 
ATOM     10  O   UNL     1       3.785  46.738  52.601  1.00  0.00    -0.269 OA
ATOM     11  H   UNL     1       4.602  44.158  54.330  1.00  0.00     0.170 HD
BRANCH   9  12
ATOM     12  C   UNL     1       6.010  46.312  53.308  1.00  0.00     0.058 A 
ATOM     13  C   UNL     1       8.676  47.039  53.698  1.00  0.00     0.123 A 
ATOM     14  C   UNL     1       8.269  46.556  52.450  1.00  0.00     0.047 A 
ATOM     15  N   UNL     1       7.773  47.142  54.709  1.00  0.00    -0.239 NA
ATOM     16  C   UNL     1       6.936  46.190  52.259  1.00  0.00     0.019 A 
ATOM     17  C   UNL     1       6.469  46.793  54.547  1.00  0.00     0.127 A 
BRANCH  13  18
ATOM     18  N   UNL     1      10.035  47.420  53.919  1.00  0.00    -0.384 N 
ATOM     19  H   UNL     1      10.492  48.148  53.326  1.00  0.00     0.158 HD
ATOM     20  H   UNL     1      10.589  46.970  54.682  1.00  0.00     0.158 HD
ENDBRANCH  13  18
ENDBRANCH   9  12
ENDBRANCH   1   8
BRANCH   7  21
ATOM     21  O   UNL     1       3.992  43.132  51.122  1.00  0.00    -0.482 OA
BRANCH  21  22
ATOM     22  C   UNL     1       4.554  41.871  50.757  1.00  0.00     0.344 C 
BRANCH  22  23
ATOM     23  C   UNL     1       5.822  42.054  49.924  1.00  0.00     0.422 C 
ATOM     24  F   UNL     1       6.340  43.319  50.133  1.00  0.00    -0.167 F 
ATOM     25  F   UNL     1       5.552  41.893  48.578  1.00  0.00    -0.167 F 
ATOM     26  F   UNL     1       6.763  41.115  50.306  1.00  0.00    -0.167 F 
ENDBRANCH  22  23
ENDBRANCH  21  22
ENDBRANCH   7  21
TORSDOF 6
ENDMDL
MODEL 5
REMARK VINA RESULT:    -7.407      3.658      4.437
REMARK INTER + INTRA:         -10.678
REMARK INTER:                  -9.480
REMARK INTRA:                  -1.198
REMARK UNBOUND:                -0.889
REMARK SMILES Nc1ccc(C(=O)Nc2ccc(Cl)cc2OCC(F)(F)F)cn1
REMARK SMILES IDX 9 1 10 2 11 3 12 4 13 5 14 6 15 7 8 8 6 9 7 10 5 12 2 13
REMARK SMILES IDX 3 14 23 15 4 16 22 17 1 18 16 21 17 22 18 23 19 24 20 25
REMARK SMILES IDX 21 26
REMARK H PARENT 8 11 1 19 1 20
ROOT
ATOM      1  C   UNL     1       5.692  45.142  51.932  1.00  0.00     0.084 A 
ATOM      2  C   UNL     1       6.506  45.563  50.871  1.00  0.00     0.031 A 
ATOM      3  C   UNL     1       7.739  46.168  51.120  1.00  0.00     0.023 A 
ATOM      4  C   UNL     1       8.178  46.345  52.434  1.00  0.00     0.044 A 
ATOM      5  Cl  UNL     1       9.728  47.106  52.743  1.00  0.00    -0.084 Cl
ATOM      6  C   UNL     1       7.389  45.904  53.501  1.00  0.00     0.069 A 
ATOM      7  C   UNL     1       6.143  45.289  53.263  1.00  0.00     0.144 A 
ENDROOT
BRANCH   1   8
ATOM      8  N   UNL     1       4.429  44.525  51.637  1.00  0.00    -0.319 N 
ATOM      9  C   UNL     1       3.265  45.277  51.255  1.00  0.00     0.257 C 
ATOM     10  O   UNL     1       3.398  46.462  50.844  1.00  0.00    -0.269 OA
ATOM     11  H   UNL     1       4.411  43.488  51.512  1.00  0.00     0.170 HD
BRANCH   9  12
ATOM     12  C   UNL     1       1.914  44.667  51.304  1.00  0.00     0.058 A 
ATOM     13  C   UNL     1      -0.618  43.501  51.411  1.00  0.00     0.123 A 
ATOM     14  C   UNL     1      -0.428  44.783  51.935  1.00  0.00     0.047 A 
ATOM     15  N   UNL     1       0.432  42.833  50.863  1.00  0.00    -0.239 NA
ATOM     16  C   UNL     1       0.840  45.363  51.883  1.00  0.00     0.019 A 
ATOM     17  C   UNL     1       1.676  43.377  50.800  1.00  0.00     0.127 A 
BRANCH  13  18
ATOM     18  N   UNL     1      -1.907  42.885  51.451  1.00  0.00    -0.384 N 
ATOM     19  H   UNL     1      -2.720  43.308  50.952  1.00  0.00     0.158 HD
ATOM     20  H   UNL     1      -2.048  41.998  51.985  1.00  0.00     0.158 HD
ENDBRANCH  13  18
ENDBRANCH   9  12
ENDBRANCH   1   8
BRANCH   7  21
ATOM     21  O   UNL     1       5.346  44.779  54.304  1.00  0.00    -0.482 OA
BRANCH  21  22
ATOM     22  C   UNL     1       4.695  45.541  55.322  1.00  0.00     0.344 C 
BRANCH  22  23
ATOM     23  C   UNL     1       3.205  45.700  55.022  1.00  0.00     0.422 C 
ATOM     24  F   UNL     1       2.529  46.047  56.178  1.00  0.00    -0.167 F 
ATOM     25  F   UNL     1       2.676  44.523  54.525  1.00  0.00    -0.167 F 
ATOM     26  F   UNL     1       3.029  46.700  54.083  1.00  0.00    -0.167 F 
ENDBRANCH  22  23
ENDBRANCH  21  22
ENDBRANCH   7  21
TORSDOF 6
ENDMDL
