MODEL 1
REMARK VINA RESULT:    -8.625      0.000      0.000
REMARK INTER + INTRA:         -11.317
REMARK INTER:                 -10.642
REMARK INTRA:                  -0.675
REMARK UNBOUND:                -0.675
REMARK SMILES CN1CC[C@@H]2[C@H]1CCCN2C(=O)[C@@H]1CCN(c2ccc(-c3nn[nH]n3)cc2F)C1
REMARK SMILES IDX 13 1 14 2 15 3 16 4 29 5 11 6 12 7 10 8 2 9 3 10 6 11 4 12
REMARK SMILES IDX 5 13 7 14 8 15 9 16 1 17 17 18 18 19 27 20 19 21 26 22 20 23
REMARK SMILES IDX 28 24 21 25 22 26 25 27 23 28 24 29
REMARK H PARENT 24 30
ROOT
ATOM      1  C   UNL     1       0.839  43.677  52.337  1.00  0.00     0.100 C 
ATOM      2  C   UNL     1       1.614  42.652  51.501  1.00  0.00     0.037 C 
ATOM      3  C   UNL     1       3.019  43.228  51.373  1.00  0.00     0.117 C 
ATOM      4  N   UNL     1       3.141  44.195  52.459  1.00  0.00    -0.368 N 
ATOM      5  C   UNL     1       1.897  44.378  53.188  1.00  0.00     0.130 C 
ENDROOT
BRANCH   1   6
ATOM      6  C   UNL     1      -0.261  43.049  53.153  1.00  0.00     0.227 C 
ATOM      7  O   UNL     1      -0.167  41.844  53.518  1.00  0.00    -0.274 OA
BRANCH   6   8
ATOM      8  N   UNL     1      -1.448  43.801  53.466  1.00  0.00    -0.338 N 
ATOM      9  N   UNL     1      -2.817  44.842  56.351  1.00  0.00    -0.301 NA
ATOM     10  C   UNL     1      -1.429  44.941  56.822  1.00  0.00     0.086 C 
ATOM     11  C   UNL     1      -2.741  45.358  54.965  1.00  0.00     0.079 C 
ATOM     12  C   UNL     1      -0.521  44.660  55.629  1.00  0.00     0.042 C 
ATOM     13  C   UNL     1      -1.368  44.960  54.380  1.00  0.00     0.103 C 
ATOM     14  C   UNL     1      -3.980  45.082  54.072  1.00  0.00     0.023 C 
ATOM     15  C   UNL     1      -3.883  43.798  53.243  1.00  0.00     0.023 C 
ATOM     16  C   UNL     1      -2.555  43.744  52.505  1.00  0.00     0.120 C 
ATOM     17  C   UNL     1      -3.273  43.439  56.445  1.00  0.00     0.105 C 
ENDBRANCH   6   8
ENDBRANCH   1   6
BRANCH   4  18
ATOM     18  C   UNL     1       4.383  44.820  52.835  1.00  0.00     0.073 A 
ATOM     19  C   UNL     1       4.954  44.554  54.090  1.00  0.00     0.030 A 
ATOM     20  C   UNL     1       5.041  45.705  51.958  1.00  0.00     0.147 A 
ATOM     21  C   UNL     1       6.163  45.153  54.461  1.00  0.00     0.014 A 
ATOM     22  C   UNL     1       6.246  46.307  52.334  1.00  0.00     0.053 A 
ATOM     23  C   UNL     1       6.819  46.036  53.588  1.00  0.00     0.026 A 
ATOM     24  F   UNL     1       4.505  46.016  50.751  1.00  0.00    -0.205 F 
BRANCH  23  25
ATOM     25  C   UNL     1       8.086  46.686  53.984  1.00  0.00     0.204 A 
ATOM     26  N   UNL     1       8.191  47.648  54.926  1.00  0.00    -0.108 NA
ATOM     27  N   UNL     1       9.286  46.408  53.435  1.00  0.00    -0.134 NA
ATOM     28  N   UNL     1       9.477  47.958  54.952  1.00  0.00    -0.050 NA
ATOM     29  N   UNL     1      10.120  47.219  54.063  1.00  0.00    -0.177 N 
ATOM     30  H   UNL     1      11.147  47.268  53.882  1.00  0.00     0.216 HD
ENDBRANCH  23  25
ENDBRANCH   4  18
TORSDOF 4
ENDMDL
MODEL 2
REMARK VINA RESULT:    -8.441      1.062      2.426
REMARK INTER + INTRA:         -11.090
REMARK INTER:                 -10.337
REMARK INTRA:                  -0.753
REMARK UNBOUND:                -0.675
REMARK SMILES CN1CC[C@@H]2[C@H]1CCCN2C(=O)[C@@H]1CCN(c2ccc(-c3nn[nH]n3)cc2F)C1
REMARK SMILES IDX 13 1 14 2 15 3 16 4 29 5 11 6 12 7 10 8 2 9 3 10 6 11 4 12
REMARK SMILES IDX 5 13 7 14 8 15 9 16 1 17 17 18 18 19 27 20 19 21 26 22 20 23
REMARK SMILES IDX 28 24 21 25 22 26 25 27 23 28 24 29
REMARK H PARENT 24 30
ROOT
ATOM      1  C   UNL     1       0.873  43.610  52.242  1.00  0.00     0.100 C 
ATOM      2  C   UNL     1       1.650  42.679  51.304  1.00  0.00     0.037 C 
ATOM      3  C   UNL     1       3.038  43.299  51.193  1.00  0.00     0.117 C 
ATOM      4  N   UNL     1       3.165  44.173  52.355  1.00  0.00    -0.368 N 
ATOM      5  C   UNL     1       1.936  44.261  53.126  1.00  0.00     0.130 C 
ENDROOT
BRANCH   1   6
ATOM      6  C   UNL     1      -0.191  42.886  53.026  1.00  0.00     0.227 C 
ATOM      7  O   UNL     1       0.036  41.731  53.483  1.00  0.00    -0.274 OA
BRANCH   6   8
ATOM      8  N   UNL     1      -1.489  43.483  53.204  1.00  0.00    -0.338 N 
ATOM      9  N   UNL     1      -3.710  44.831  51.076  1.00  0.00    -0.301 NA
ATOM     10  C   UNL     1      -3.199  43.840  50.120  1.00  0.00     0.086 C 
ATOM     11  C   UNL     1      -3.782  44.071  52.344  1.00  0.00     0.079 C 
ATOM     12  C   UNL     1      -2.232  42.934  50.875  1.00  0.00     0.042 C 
ATOM     13  C   UNL     1      -2.622  43.051  52.358  1.00  0.00     0.103 C 
ATOM     14  C   UNL     1      -3.975  44.918  53.630  1.00  0.00     0.023 C 
ATOM     15  C   UNL     1      -2.667  45.308  54.327  1.00  0.00     0.023 C 
ATOM     16  C   UNL     1      -1.781  44.086  54.509  1.00  0.00     0.120 C 
ATOM     17  C   UNL     1      -2.796  45.992  51.123  1.00  0.00     0.105 C 
ENDBRANCH   6   8
ENDBRANCH   1   6
BRANCH   4  18
ATOM     18  C   UNL     1       4.401  44.794  52.754  1.00  0.00     0.073 A 
ATOM     19  C   UNL     1       4.944  44.533  54.023  1.00  0.00     0.030 A 
ATOM     20  C   UNL     1       5.082  45.673  51.888  1.00  0.00     0.147 A 
ATOM     21  C   UNL     1       6.147  45.128  54.417  1.00  0.00     0.014 A 
ATOM     22  C   UNL     1       6.280  46.271  52.287  1.00  0.00     0.053 A 
ATOM     23  C   UNL     1       6.825  46.004  53.554  1.00  0.00     0.026 A 
ATOM     24  F   UNL     1       4.572  45.980  50.669  1.00  0.00    -0.205 F 
BRANCH  23  25
ATOM     25  C   UNL     1       8.086  46.651  53.974  1.00  0.00     0.204 A 
ATOM     26  N   UNL     1       8.175  47.614  54.916  1.00  0.00    -0.108 NA
ATOM     27  N   UNL     1       9.296  46.368  53.450  1.00  0.00    -0.134 NA
ATOM     28  N   UNL     1       9.462  47.921  54.968  1.00  0.00    -0.050 NA
ATOM     29  N   UNL     1      10.120  47.178  54.092  1.00  0.00    -0.177 N 
ATOM     30  H   UNL     1      11.151  47.223  53.932  1.00  0.00     0.216 HD
ENDBRANCH  23  25
ENDBRANCH   4  18
TORSDOF 4
ENDMDL
MODEL 3
REMARK VINA RESULT:    -8.420      2.582      8.540
REMARK INTER + INTRA:         -11.064
REMARK INTER:                 -10.357
REMARK INTRA:                  -0.707
REMARK UNBOUND:                -0.675
REMARK SMILES CN1CC[C@@H]2[C@H]1CCCN2C(=O)[C@@H]1CCN(c2ccc(-c3nn[nH]n3)cc2F)C1
REMARK SMILES IDX 13 1 14 2 15 3 16 4 29 5 11 6 12 7 10 8 2 9 3 10 6 11 4 12
REMARK SMILES IDX 5 13 7 14 8 15 9 16 1 17 17 18 18 19 27 20 19 21 26 22 20 23
REMARK SMILES IDX 28 24 21 25 22 26 25 27 23 28 24 29
REMARK H PARENT 24 30
ROOT
ATOM      1  C   UNL     1       3.701  44.844  51.364  1.00  0.00     0.100 C 
ATOM      2  C   UNL     1       3.451  46.343  51.560  1.00  0.00     0.037 C 
ATOM      3  C   UNL     1       2.130  46.426  52.316  1.00  0.00     0.117 C 
ATOM      4  N   UNL     1       1.949  45.113  52.926  1.00  0.00    -0.368 N 
ATOM      5  C   UNL     1       2.973  44.163  52.522  1.00  0.00     0.130 C 
ENDROOT
BRANCH   1   6
ATOM      6  C   UNL     1       5.169  44.504  51.302  1.00  0.00     0.227 C 
ATOM      7  O   UNL     1       5.555  43.484  50.668  1.00  0.00    -0.274 OA
BRANCH   6   8
ATOM      8  N   UNL     1       6.126  45.307  52.018  1.00  0.00    -0.338 N 
ATOM      9  N   UNL     1       6.209  46.552  55.136  1.00  0.00    -0.301 NA
ATOM     10  C   UNL     1       5.466  45.338  55.500  1.00  0.00     0.086 C 
ATOM     11  C   UNL     1       7.210  46.056  54.165  1.00  0.00     0.079 C 
ATOM     12  C   UNL     1       5.399  44.454  54.259  1.00  0.00     0.042 C 
ATOM     13  C   UNL     1       6.571  44.897  53.367  1.00  0.00     0.103 C 
ATOM     14  C   UNL     1       7.945  47.143  53.336  1.00  0.00     0.023 C 
ATOM     15  C   UNL     1       7.287  47.459  51.990  1.00  0.00     0.023 C 
ATOM     16  C   UNL     1       7.004  46.175  51.226  1.00  0.00     0.120 C 
ATOM     17  C   UNL     1       5.278  47.555  54.579  1.00  0.00     0.105 C 
ENDBRANCH   6   8
ENDBRANCH   1   6
BRANCH   4  18
ATOM     18  C   UNL     1       0.932  44.819  53.902  1.00  0.00     0.073 A 
ATOM     19  C   UNL     1      -0.242  44.151  53.518  1.00  0.00     0.030 A 
ATOM     20  C   UNL     1       1.094  45.198  55.250  1.00  0.00     0.147 A 
ATOM     21  C   UNL     1      -1.232  43.857  54.463  1.00  0.00     0.014 A 
ATOM     22  C   UNL     1       0.100  44.908  56.189  1.00  0.00     0.053 A 
ATOM     23  C   UNL     1      -1.071  44.235  55.806  1.00  0.00     0.026 A 
ATOM     24  F   UNL     1       2.197  45.877  55.654  1.00  0.00    -0.205 F 
BRANCH  23  25
ATOM     25  C   UNL     1      -2.124  43.944  56.801  1.00  0.00     0.204 A 
ATOM     26  N   UNL     1      -2.443  44.751  57.837  1.00  0.00    -0.108 NA
ATOM     27  N   UNL     1      -2.877  42.826  56.806  1.00  0.00    -0.134 NA
ATOM     28  N   UNL     1      -3.408  44.114  58.479  1.00  0.00    -0.050 NA
ATOM     29  N   UNL     1      -3.659  42.971  57.862  1.00  0.00    -0.177 N 
ATOM     30  H   UNL     1      -4.378  42.277  58.166  1.00  0.00     0.216 HD
ENDBRANCH  23  25
ENDBRANCH   4  18
TORSDOF 4
ENDMDL
MODEL 4
REMARK VINA RESULT:    -7.956      2.724      8.954
REMARK INTER + INTRA:         -10.492
REMARK INTER:                 -11.119
REMARK INTRA:                   0.627
REMARK UNBOUND:                -0.675
REMARK SMILES CN1CC[C@@H]2[C@H]1CCCN2C(=O)[C@@H]1CCN(c2ccc(-c3nn[nH]n3)cc2F)C1
REMARK SMILES IDX 13 1 14 2 15 3 16 4 29 5 11 6 12 7 10 8 2 9 3 10 6 11 4 12
REMARK SMILES IDX 5 13 7 14 8 15 9 16 1 17 17 18 18 19 27 20 19 21 26 22 20 23
REMARK SMILES IDX 28 24 21 25 22 26 25 27 23 28 24 29
REMARK H PARENT 24 30
ROOT
ATOM      1  C   UNL     1       5.332  43.804  51.975  1.00  0.00     0.100 C 
ATOM      2  C   UNL     1       4.362  42.829  51.298  1.00  0.00     0.037 C 
ATOM      3  C   UNL     1       3.188  42.710  52.263  1.00  0.00     0.117 C 
ATOM      4  N   UNL     1       3.265  43.891  53.116  1.00  0.00    -0.368 N 
ATOM      5  C   UNL     1       4.456  44.686  52.864  1.00  0.00     0.130 C 
ENDROOT
BRANCH   1   6
ATOM      6  C   UNL     1       6.152  44.589  50.982  1.00  0.00     0.227 C 
ATOM      7  O   UNL     1       6.347  44.131  49.822  1.00  0.00    -0.274 OA
BRANCH   6   8
ATOM      8  N   UNL     1       6.764  45.832  51.373  1.00  0.00    -0.338 N 
ATOM      9  N   UNL     1       9.886  46.670  52.283  1.00  0.00    -0.301 NA
ATOM     10  C   UNL     1      10.302  45.612  51.354  1.00  0.00     0.086 C 
ATOM     11  C   UNL     1       8.777  47.335  51.564  1.00  0.00     0.079 C 
ATOM     12  C   UNL     1       9.050  45.117  50.637  1.00  0.00     0.042 C 
ATOM     13  C   UNL     1       8.029  46.263  50.740  1.00  0.00     0.103 C 
ATOM     14  C   UNL     1       7.898  48.292  52.413  1.00  0.00     0.023 C 
ATOM     15  C   UNL     1       6.660  47.630  53.027  1.00  0.00     0.023 C 
ATOM     16  C   UNL     1       5.895  46.854  51.966  1.00  0.00     0.120 C 
ATOM     17  C   UNL     1       9.491  46.068  53.575  1.00  0.00     0.105 C 
ENDBRANCH   6   8
ENDBRANCH   1   6
BRANCH   4  18
ATOM     18  C   UNL     1       2.225  44.284  54.031  1.00  0.00     0.073 A 
ATOM     19  C   UNL     1       0.884  43.976  53.748  1.00  0.00     0.030 A 
ATOM     20  C   UNL     1       2.531  44.983  55.216  1.00  0.00     0.147 A 
ATOM     21  C   UNL     1      -0.132  44.350  54.635  1.00  0.00     0.014 A 
ATOM     22  C   UNL     1       1.513  45.360  56.096  1.00  0.00     0.053 A 
ATOM     23  C   UNL     1       0.173  45.047  55.816  1.00  0.00     0.026 A 
ATOM     24  F   UNL     1       3.810  45.331  55.507  1.00  0.00    -0.205 F 
BRANCH  23  25
ATOM     25  C   UNL     1      -0.899  45.461  56.744  1.00  0.00     0.204 A 
ATOM     26  N   UNL     1      -1.812  44.623  57.283  1.00  0.00    -0.108 NA
ATOM     27  N   UNL     1      -1.106  46.731  57.148  1.00  0.00    -0.134 NA
ATOM     28  N   UNL     1      -2.584  45.397  58.029  1.00  0.00    -0.050 NA
ATOM     29  N   UNL     1      -2.160  46.647  57.941  1.00  0.00    -0.177 N 
ATOM     30  H   UNL     1      -2.597  47.457  58.434  1.00  0.00     0.216 HD
ENDBRANCH  23  25
ENDBRANCH   4  18
TORSDOF 4
ENDMDL
MODEL 5
REMARK VINA RESULT:    -7.779      4.959      8.563
REMARK INTER + INTRA:         -10.273
REMARK INTER:                  -9.817
REMARK INTRA:                  -0.456
REMARK UNBOUND:                -0.675
REMARK SMILES CN1CC[C@@H]2[C@H]1CCCN2C(=O)[C@@H]1CCN(c2ccc(-c3nn[nH]n3)cc2F)C1
REMARK SMILES IDX 13 1 14 2 15 3 16 4 29 5 11 6 12 7 10 8 2 9 3 10 6 11 4 12
REMARK SMILES IDX 5 13 7 14 8 15 9 16 1 17 17 18 18 19 27 20 19 21 26 22 20 23
REMARK SMILES IDX 28 24 21 25 22 26 25 27 23 28 24 29
REMARK H PARENT 24 30
ROOT
ATOM      1  C   UNL     1       6.798  44.364  50.897  1.00  0.00     0.100 C 
ATOM      2  C   UNL     1       7.771  44.323  49.713  1.00  0.00     0.037 C 
ATOM      3  C   UNL     1       7.391  43.070  48.933  1.00  0.00     0.117 C 
ATOM      4  N   UNL     1       6.028  42.755  49.347  1.00  0.00    -0.368 N 
ATOM      5  C   UNL     1       5.553  43.621  50.414  1.00  0.00     0.130 C 
ENDROOT
BRANCH   1   6
ATOM      6  C   UNL     1       6.510  45.768  51.363  1.00  0.00     0.227 C 
ATOM      7  O   UNL     1       7.438  46.623  51.406  1.00  0.00    -0.274 OA
BRANCH   6   8
ATOM      8  N   UNL     1       5.190  46.121  51.818  1.00  0.00    -0.338 N 
ATOM      9  N   UNL     1       3.411  45.323  54.551  1.00  0.00    -0.301 NA
ATOM     10  C   UNL     1       4.713  45.284  55.229  1.00  0.00     0.086 C 
ATOM     11  C   UNL     1       3.525  46.505  53.668  1.00  0.00     0.079 C 
ATOM     12  C   UNL     1       5.760  45.772  54.232  1.00  0.00     0.042 C 
ATOM     13  C   UNL     1       4.992  46.612  53.198  1.00  0.00     0.103 C 
ATOM     14  C   UNL     1       2.435  46.636  52.569  1.00  0.00     0.023 C 
ATOM     15  C   UNL     1       2.820  46.011  51.225  1.00  0.00     0.023 C 
ATOM     16  C   UNL     1       4.200  46.485  50.798  1.00  0.00     0.120 C 
ATOM     17  C   UNL     1       3.189  44.052  53.829  1.00  0.00     0.105 C 
ENDBRANCH   6   8
ENDBRANCH   1   6
BRANCH   4  18
ATOM     18  C   UNL     1       5.205  41.767  48.698  1.00  0.00     0.073 A 
ATOM     19  C   UNL     1       5.226  41.641  47.299  1.00  0.00     0.030 A 
ATOM     20  C   UNL     1       4.367  40.919  49.448  1.00  0.00     0.147 A 
ATOM     21  C   UNL     1       4.434  40.680  46.661  1.00  0.00     0.014 A 
ATOM     22  C   UNL     1       3.572  39.964  48.808  1.00  0.00     0.053 A 
ATOM     23  C   UNL     1       3.598  39.834  47.409  1.00  0.00     0.026 A 
ATOM     24  F   UNL     1       4.290  41.034  50.798  1.00  0.00    -0.205 F 
BRANCH  23  25
ATOM     25  C   UNL     1       2.745  38.832  46.738  1.00  0.00     0.204 A 
ATOM     26  N   UNL     1       3.071  37.531  46.581  1.00  0.00    -0.108 NA
ATOM     27  N   UNL     1       1.547  39.105  46.183  1.00  0.00    -0.134 NA
ATOM     28  N   UNL     1       2.052  37.003  45.921  1.00  0.00    -0.050 NA
ATOM     29  N   UNL     1       1.153  37.944  45.687  1.00  0.00    -0.177 N 
ATOM     30  H   UNL     1       0.252  37.792  45.181  1.00  0.00     0.216 HD
ENDBRANCH  23  25
ENDBRANCH   4  18
TORSDOF 4
ENDMDL
