MODEL 1
REMARK VINA RESULT:    -7.547      0.000      0.000
REMARK INTER + INTRA:         -10.080
REMARK INTER:                  -9.312
REMARK INTRA:                  -0.769
REMARK UNBOUND:                -0.769
REMARK SMILES CN1CC[C@@](C)(CNC(=O)Nc2ccc(-c3ncco3)cc2)C1
REMARK SMILES IDX 8 1 9 2 10 3 11 4 7 7 5 8 2 9 3 10 23 11 4 12 1 13 6 14
REMARK SMILES IDX 12 15 13 16 22 17 14 18 21 19 15 20 16 21 17 22 20 23 18 24
REMARK SMILES IDX 19 25
REMARK H PARENT 8 5 11 6
ROOT
ATOM      1  N   UNL     1       0.658  44.421  50.840  1.00  0.00    -0.337 N 
ATOM      2  C   UNL     1       2.001  44.545  51.332  1.00  0.00     0.319 C 
ATOM      3  O   UNL     1       2.465  43.682  52.126  1.00  0.00    -0.249 OA
ATOM      4  N   UNL     1       2.822  45.632  50.881  1.00  0.00    -0.308 N 
ATOM      5  H   UNL     1       0.291  45.164  50.205  1.00  0.00     0.165 HD
ATOM      6  H   UNL     1       2.509  46.153  50.031  1.00  0.00     0.171 HD
ENDROOT
BRANCH   1   7
ATOM      7  C   UNL     1      -0.230  43.314  51.206  1.00  0.00     0.125 C 
BRANCH   7   8
ATOM      8  C   UNL     1      -1.261  43.724  52.298  1.00  0.00    -0.001 C 
ATOM      9  N   UNL     1      -2.491  45.470  51.196  1.00  0.00    -0.306 NA
ATOM     10  C   UNL     1      -3.330  44.262  51.140  1.00  0.00     0.085 C 
ATOM     11  C   UNL     1      -1.490  45.239  52.244  1.00  0.00     0.092 C 
ATOM     12  C   UNL     1      -2.658  43.181  51.983  1.00  0.00     0.025 C 
ATOM     13  C   UNL     1      -3.281  46.682  51.456  1.00  0.00     0.105 C 
ATOM     14  C   UNL     1      -0.783  43.289  53.699  1.00  0.00     0.014 C 
ENDBRANCH   7   8
ENDBRANCH   1   7
BRANCH   4  15
ATOM     15  C   UNL     1       4.102  45.965  51.445  1.00  0.00     0.042 A 
ATOM     16  C   UNL     1       5.297  45.463  50.903  1.00  0.00     0.027 A 
ATOM     17  C   UNL     1       4.158  46.760  52.599  1.00  0.00     0.027 A 
ATOM     18  C   UNL     1       6.527  45.782  51.484  1.00  0.00     0.016 A 
ATOM     19  C   UNL     1       5.388  47.082  53.180  1.00  0.00     0.016 A 
ATOM     20  C   UNL     1       6.584  46.599  52.626  1.00  0.00     0.037 A 
BRANCH  20  21
ATOM     21  C   UNL     1       7.881  46.941  53.245  1.00  0.00     0.225 A 
ATOM     22  N   UNL     1       8.012  47.416  54.503  1.00  0.00    -0.218 NA
ATOM     23  O   UNL     1       9.038  46.816  52.632  1.00  0.00    -0.445 OA
ATOM     24  C   UNL     1       9.341  47.582  54.638  1.00  0.00     0.154 A 
ATOM     25  C   UNL     1       9.964  47.206  53.471  1.00  0.00     0.218 A 
ENDBRANCH  20  21
ENDBRANCH   4  15
TORSDOF 4
ENDMDL
MODEL 2
REMARK VINA RESULT:    -7.179      4.961      9.624
REMARK INTER + INTRA:          -9.626
REMARK INTER:                  -9.274
REMARK INTRA:                  -0.352
REMARK UNBOUND:                -0.769
REMARK SMILES CN1CC[C@@](C)(CNC(=O)Nc2ccc(-c3ncco3)cc2)C1
REMARK SMILES IDX 8 1 9 2 10 3 11 4 7 7 5 8 2 9 3 10 23 11 4 12 1 13 6 14
REMARK SMILES IDX 12 15 13 16 22 17 14 18 21 19 15 20 16 21 17 22 20 23 18 24
REMARK SMILES IDX 19 25
REMARK H PARENT 8 5 11 6
ROOT
ATOM      1  N   UNL     1       6.970  45.524  52.228  1.00  0.00    -0.337 N 
ATOM      2  C   UNL     1       6.272  44.811  51.196  1.00  0.00     0.319 C 
ATOM      3  O   UNL     1       5.487  45.425  50.424  1.00  0.00    -0.249 OA
ATOM      4  N   UNL     1       6.509  43.407  51.023  1.00  0.00    -0.308 N 
ATOM      5  H   UNL     1       7.594  44.986  52.869  1.00  0.00     0.165 HD
ATOM      6  H   UNL     1       7.354  42.998  51.483  1.00  0.00     0.171 HD
ENDROOT
BRANCH   1   7
ATOM      7  C   UNL     1       6.829  46.968  52.440  1.00  0.00     0.125 C 
BRANCH   7   8
ATOM      8  C   UNL     1       8.195  47.710  52.351  1.00  0.00    -0.001 C 
ATOM      9  N   UNL     1       9.313  46.943  54.335  1.00  0.00    -0.306 NA
ATOM     10  C   UNL     1       9.879  46.181  53.209  1.00  0.00     0.085 C 
ATOM     11  C   UNL     1       8.649  48.117  53.757  1.00  0.00     0.092 C 
ATOM     12  C   UNL     1       9.320  46.766  51.915  1.00  0.00     0.025 C 
ATOM     13  C   UNL     1      10.338  47.324  55.317  1.00  0.00     0.105 C 
ATOM     14  C   UNL     1       8.094  48.942  51.427  1.00  0.00     0.014 C 
ENDBRANCH   7   8
ENDBRANCH   1   7
BRANCH   4  15
ATOM     15  C   UNL     1       5.734  42.557  50.160  1.00  0.00     0.042 A 
ATOM     16  C   UNL     1       4.575  41.907  50.616  1.00  0.00     0.027 A 
ATOM     17  C   UNL     1       6.175  42.323  48.850  1.00  0.00     0.027 A 
ATOM     18  C   UNL     1       3.851  41.068  49.764  1.00  0.00     0.016 A 
ATOM     19  C   UNL     1       5.452  41.485  47.996  1.00  0.00     0.016 A 
ATOM     20  C   UNL     1       4.281  40.853  48.444  1.00  0.00     0.037 A 
BRANCH  20  21
ATOM     21  C   UNL     1       3.521  39.968  47.538  1.00  0.00     0.225 A 
ATOM     22  N   UNL     1       2.926  38.821  47.932  1.00  0.00    -0.218 NA
ATOM     23  O   UNL     1       3.347  40.210  46.257  1.00  0.00    -0.445 OA
ATOM     24  C   UNL     1       2.364  38.356  46.800  1.00  0.00     0.154 A 
ATOM     25  C   UNL     1       2.632  39.227  45.771  1.00  0.00     0.218 A 
ENDBRANCH  20  21
ENDBRANCH   4  15
TORSDOF 4
ENDMDL
MODEL 3
REMARK VINA RESULT:    -7.061      1.451      2.068
REMARK INTER + INTRA:          -9.481
REMARK INTER:                  -8.967
REMARK INTRA:                  -0.513
REMARK UNBOUND:                -0.769
REMARK SMILES CN1CC[C@@](C)(CNC(=O)Nc2ccc(-c3ncco3)cc2)C1
REMARK SMILES IDX 8 1 9 2 10 3 11 4 7 7 5 8 2 9 3 10 23 11 4 12 1 13 6 14
REMARK SMILES IDX 12 15 13 16 22 17 14 18 21 19 15 20 16 21 17 22 20 23 18 24
REMARK SMILES IDX 19 25
REMARK H PARENT 8 5 11 6
ROOT
ATOM      1  N   UNL     1       0.553  44.180  51.105  1.00  0.00    -0.337 N 
ATOM      2  C   UNL     1       1.684  44.758  51.773  1.00  0.00     0.319 C 
ATOM      3  O   UNL     1       1.539  45.788  52.485  1.00  0.00    -0.249 OA
ATOM      4  N   UNL     1       2.970  44.131  51.657  1.00  0.00    -0.308 N 
ATOM      5  H   UNL     1       0.708  43.342  50.501  1.00  0.00     0.165 HD
ATOM      6  H   UNL     1       2.999  43.149  51.301  1.00  0.00     0.171 HD
ENDROOT
BRANCH   1   7
ATOM      7  C   UNL     1      -0.804  44.722  51.213  1.00  0.00     0.125 C 
BRANCH   7   8
ATOM      8  C   UNL     1      -1.748  43.788  52.026  1.00  0.00    -0.001 C 
ATOM      9  N   UNL     1      -1.416  44.576  54.272  1.00  0.00    -0.306 NA
ATOM     10  C   UNL     1      -2.696  45.138  53.812  1.00  0.00     0.085 C 
ATOM     11  C   UNL     1      -1.101  43.457  53.376  1.00  0.00     0.092 C 
ATOM     12  C   UNL     1      -3.024  44.517  52.456  1.00  0.00     0.025 C 
ATOM     13  C   UNL     1      -1.473  44.148  55.678  1.00  0.00     0.105 C 
ATOM     14  C   UNL     1      -2.065  42.501  51.237  1.00  0.00     0.014 C 
ENDBRANCH   7   8
ENDBRANCH   1   7
BRANCH   4  15
ATOM     15  C   UNL     1       4.199  44.720  52.116  1.00  0.00     0.042 A 
ATOM     16  C   UNL     1       4.656  44.536  53.432  1.00  0.00     0.027 A 
ATOM     17  C   UNL     1       4.931  45.547  51.251  1.00  0.00     0.027 A 
ATOM     18  C   UNL     1       5.841  45.138  53.862  1.00  0.00     0.016 A 
ATOM     19  C   UNL     1       6.118  46.148  51.679  1.00  0.00     0.016 A 
ATOM     20  C   UNL     1       6.586  45.946  52.986  1.00  0.00     0.037 A 
BRANCH  20  21
ATOM     21  C   UNL     1       7.840  46.585  53.433  1.00  0.00     0.225 A 
ATOM     22  N   UNL     1       7.961  47.281  54.586  1.00  0.00    -0.218 NA
ATOM     23  O   UNL     1       8.965  46.540  52.754  1.00  0.00    -0.445 OA
ATOM     24  C   UNL     1       9.250  47.672  54.581  1.00  0.00     0.154 A 
ATOM     25  C   UNL     1       9.860  47.205  53.440  1.00  0.00     0.218 A 
ENDBRANCH  20  21
ENDBRANCH   4  15
TORSDOF 4
ENDMDL
MODEL 4
REMARK VINA RESULT:    -6.906      2.505      9.055
REMARK INTER + INTRA:          -9.289
REMARK INTER:                  -8.577
REMARK INTRA:                  -0.712
REMARK UNBOUND:                -0.769
REMARK SMILES CN1CC[C@@](C)(CNC(=O)Nc2ccc(-c3ncco3)cc2)C1
REMARK SMILES IDX 8 1 9 2 10 3 11 4 7 7 5 8 2 9 3 10 23 11 4 12 1 13 6 14
REMARK SMILES IDX 12 15 13 16 22 17 14 18 21 19 15 20 16 21 17 22 20 23 18 24
REMARK SMILES IDX 19 25
REMARK H PARENT 8 5 11 6
ROOT
ATOM      1  N   UNL     1       6.580  45.669  54.295  1.00  0.00    -0.337 N 
ATOM      2  C   UNL     1       5.305  45.502  53.658  1.00  0.00     0.319 C 
ATOM      3  O   UNL     1       4.662  46.510  53.256  1.00  0.00    -0.249 OA
ATOM      4  N   UNL     1       4.789  44.180  53.445  1.00  0.00    -0.308 N 
ATOM      5  H   UNL     1       7.077  44.819  54.642  1.00  0.00     0.165 HD
ATOM      6  H   UNL     1       5.456  43.381  53.532  1.00  0.00     0.171 HD
ENDROOT
BRANCH   1   7
ATOM      7  C   UNL     1       7.206  46.978  54.505  1.00  0.00     0.125 C 
BRANCH   7   8
ATOM      8  C   UNL     1       8.519  47.139  53.684  1.00  0.00    -0.001 C 
ATOM      9  N   UNL     1       7.963  46.031  51.626  1.00  0.00    -0.306 NA
ATOM     10  C   UNL     1       7.859  47.476  51.368  1.00  0.00     0.085 C 
ATOM     11  C   UNL     1       8.759  45.876  52.849  1.00  0.00     0.092 C 
ATOM     12  C   UNL     1       8.376  48.213  52.602  1.00  0.00     0.025 C 
ATOM     13  C   UNL     1       8.558  45.308  50.493  1.00  0.00     0.105 C 
ATOM     14  C   UNL     1       9.719  47.421  54.612  1.00  0.00     0.014 C 
ENDBRANCH   7   8
ENDBRANCH   1   7
BRANCH   4  15
ATOM     15  C   UNL     1       3.452  43.898  52.997  1.00  0.00     0.042 A 
ATOM     16  C   UNL     1       2.333  44.177  53.801  1.00  0.00     0.027 A 
ATOM     17  C   UNL     1       3.260  43.275  51.756  1.00  0.00     0.027 A 
ATOM     18  C   UNL     1       1.045  43.872  53.353  1.00  0.00     0.016 A 
ATOM     19  C   UNL     1       1.972  42.970  51.306  1.00  0.00     0.016 A 
ATOM     20  C   UNL     1       0.853  43.270  52.099  1.00  0.00     0.037 A 
BRANCH  20  21
ATOM     21  C   UNL     1      -0.506  42.945  51.619  1.00  0.00     0.225 A 
ATOM     22  N   UNL     1      -1.414  42.252  52.342  1.00  0.00    -0.218 NA
ATOM     23  O   UNL     1      -0.968  43.298  50.439  1.00  0.00    -0.445 OA
ATOM     24  C   UNL     1      -2.484  42.195  51.527  1.00  0.00     0.154 A 
ATOM     25  C   UNL     1      -2.194  42.848  50.352  1.00  0.00     0.218 A 
ENDBRANCH  20  21
ENDBRANCH   4  15
TORSDOF 4
ENDMDL
MODEL 5
REMARK VINA RESULT:    -6.785      2.683      9.070
REMARK INTER + INTRA:          -9.140
REMARK INTER:                  -8.384
REMARK INTRA:                  -0.757
REMARK UNBOUND:                -0.769
REMARK SMILES CN1CC[C@@](C)(CNC(=O)Nc2ccc(-c3ncco3)cc2)C1
REMARK SMILES IDX 8 1 9 2 10 3 11 4 7 7 5 8 2 9 3 10 23 11 4 12 1 13 6 14
REMARK SMILES IDX 12 15 13 16 22 17 14 18 21 19 15 20 16 21 17 22 20 23 18 24
REMARK SMILES IDX 19 25
REMARK H PARENT 8 5 11 6
ROOT
ATOM      1  N   UNL     1       6.526  45.954  54.561  1.00  0.00    -0.337 N 
ATOM      2  C   UNL     1       5.106  45.983  54.352  1.00  0.00     0.319 C 
ATOM      3  O   UNL     1       4.511  47.084  54.201  1.00  0.00    -0.249 OA
ATOM      4  N   UNL     1       4.379  44.748  54.274  1.00  0.00    -0.308 N 
ATOM      5  H   UNL     1       6.988  45.030  54.709  1.00  0.00     0.165 HD
ATOM      6  H   UNL     1       4.928  43.872  54.124  1.00  0.00     0.171 HD
ENDROOT
BRANCH   1   7
ATOM      7  C   UNL     1       7.354  47.163  54.600  1.00  0.00     0.125 C 
BRANCH   7   8
ATOM      8  C   UNL     1       8.545  47.092  53.600  1.00  0.00    -0.001 C 
ATOM      9  N   UNL     1       7.511  46.122  51.659  1.00  0.00    -0.306 NA
ATOM     10  C   UNL     1       7.635  47.565  51.395  1.00  0.00     0.085 C 
ATOM     11  C   UNL     1       8.433  45.815  52.759  1.00  0.00     0.092 C 
ATOM     12  C   UNL     1       8.446  48.184  52.530  1.00  0.00     0.025 C 
ATOM     13  C   UNL     1       7.800  45.314  50.465  1.00  0.00     0.105 C 
ATOM     14  C   UNL     1       9.895  47.144  54.344  1.00  0.00     0.014 C 
ENDBRANCH   7   8
ENDBRANCH   1   7
BRANCH   4  15
ATOM     15  C   UNL     1       2.943  44.657  54.261  1.00  0.00     0.042 A 
ATOM     16  C   UNL     1       2.238  44.333  53.090  1.00  0.00     0.027 A 
ATOM     17  C   UNL     1       2.226  44.956  55.428  1.00  0.00     0.027 A 
ATOM     18  C   UNL     1       0.842  44.273  53.097  1.00  0.00     0.016 A 
ATOM     19  C   UNL     1       0.829  44.895  55.438  1.00  0.00     0.016 A 
ATOM     20  C   UNL     1       0.125  44.549  54.274  1.00  0.00     0.037 A 
BRANCH  20  21
ATOM     21  C   UNL     1      -1.351  44.488  54.289  1.00  0.00     0.225 A 
ATOM     22  N   UNL     1      -2.072  43.546  53.641  1.00  0.00    -0.218 NA
ATOM     23  O   UNL     1      -2.111  45.344  54.936  1.00  0.00    -0.445 OA
ATOM     24  C   UNL     1      -3.345  43.874  53.929  1.00  0.00     0.154 A 
ATOM     25  C   UNL     1      -3.354  44.990  54.733  1.00  0.00     0.218 A 
ENDBRANCH  20  21
ENDBRANCH   4  15
TORSDOF 4
ENDMDL
