ligand_91_conformer_2_docked
     RDKit          3D

 38 40  0  0  0  0  0  0  0  0999 V2000
    5.0640   47.9440   53.7920 O   0  0  0  0  0  0  0  0  0  0  0  0
    5.7420   46.9040   54.0180 C   0  0  0  0  0  0  0  0  0  0  0  0
    5.1710   45.8440   54.7980 N   0  0  0  0  0  0  0  0  0  0  0  0
    4.0160   46.0650   55.6700 C   0  0  0  0  0  0  0  0  0  0  0  0
    2.7830   45.3140   55.1550 C   0  0  0  0  0  0  0  0  0  0  0  0
    2.8620   45.1100   53.6700 C   0  0  0  0  0  0  0  0  0  0  0  0
    1.9820   45.7060   52.7710 C   0  0  0  0  0  0  0  0  0  0  0  0
    2.3450   45.1170   51.2390 S   0  0  0  0  0  0  0  0  0  0  0  0
    3.5980   44.1250   51.7800 C   0  0  0  0  0  0  0  0  0  0  0  0
    4.4070   43.2110   50.9410 C   0  0  0  0  0  0  0  0  0  0  0  0
    5.6620   43.6250   50.4560 C   0  0  0  0  0  0  0  0  0  0  0  0
    6.4400   42.7630   49.6770 C   0  0  0  0  0  0  0  0  0  0  0  0
    5.9750   41.4820   49.3740 C   0  0  0  0  0  0  0  0  0  0  0  0
    4.7300   41.0600   49.8460 C   0  0  0  0  0  0  0  0  0  0  0  0
    3.9490   41.9180   50.6270 C   0  0  0  0  0  0  0  0  0  0  0  0
    3.7470   44.2340   53.1190 N   0  0  0  0  0  0  0  0  0  0  0  0
    7.1160   46.7920   53.4750 C   0  0  0  0  0  0  0  0  0  0  0  0
    7.3190   46.4080   52.1370 C   0  0  0  0  0  0  0  0  0  0  0  0
    8.6140   46.3100   51.6170 C   0  0  0  0  0  0  0  0  0  0  0  0
    9.7170   46.6020   52.4240 C   0  0  0  0  0  0  0  0  0  0  0  0
   10.9710   46.5080   51.9150 F   0  0  0  0  0  0  0  0  0  0  0  0
    9.5270   46.9970   53.7520 C   0  0  0  0  0  0  0  0  0  0  0  0
   10.5960   47.2940   54.5320 F   0  0  0  0  0  0  0  0  0  0  0  0
    8.2350   47.0950   54.2750 C   0  0  0  0  0  0  0  0  0  0  0  0
    5.5820   44.8860   54.7230 H   0  0  0  0  0  0  0  0  0  0  0  0
    4.2569   45.7083   56.6823 H   0  0  0  0  0  0  0  0  0  0  0  0
    3.7891   47.1413   55.6826 H   0  0  0  0  0  0  0  0  0  0  0  0
    2.7253   44.3337   55.6507 H   0  0  0  0  0  0  0  0  0  0  0  0
    1.8876   45.9118   55.3806 H   0  0  0  0  0  0  0  0  0  0  0  0
    1.1924   46.4308   53.0182 H   0  0  0  0  0  0  0  0  0  0  0  0
    6.0331   44.6334   50.6914 H   0  0  0  0  0  0  0  0  0  0  0  0
    7.4197   43.0946   49.3024 H   0  0  0  0  0  0  0  0  0  0  0  0
    6.5896   40.8045   48.7631 H   0  0  0  0  0  0  0  0  0  0  0  0
    4.3634   40.0517   49.6032 H   0  0  0  0  0  0  0  0  0  0  0  0
    2.9703   41.5799   50.9982 H   0  0  0  0  0  0  0  0  0  0  0  0
    6.4540   46.1834   51.4956 H   0  0  0  0  0  0  0  0  0  0  0  0
    8.7643   46.0027   50.5715 H   0  0  0  0  0  0  0  0  0  0  0  0
    8.0908   47.4110   55.3187 H   0  0  0  0  0  0  0  0  0  0  0  0
  1  2  2  0
  2  3  1  0
  3  4  1  0
  4  5  1  0
  5  6  1  0
  6  7  2  0
  7  8  1  0
  8  9  1  0
  9 10  1  0
 10 11  2  0
 11 12  1  0
 12 13  2  0
 13 14  1  0
 14 15  2  0
  9 16  2  0
  2 17  1  0
 17 18  2  0
 18 19  1  0
 19 20  2  0
 20 21  1  0
 20 22  1  0
 22 23  1  0
 22 24  2  0
 16  6  1  0
 24 17  1  0
 15 10  1  0
  3 25  1  0
  4 26  1  0
  4 27  1  0
  5 28  1  0
  5 29  1  0
  7 30  1  0
 11 31  1  0
 12 32  1  0
 13 33  1  0
 14 34  1  0
 15 35  1  0
 18 36  1  0
 19 37  1  0
 24 38  1  0
M  END
>  <meeko>  (1) 
{"is_sidechain": [false], "free_energy": -9.541, "intermolecular_energy": -12.33, "internal_energy": -0.895}

$$$$
ligand_91_conformer_2_docked
     RDKit          3D

 38 40  0  0  0  0  0  0  0  0999 V2000
    2.1610   42.2780   50.6850 O   0  0  0  0  0  0  0  0  0  0  0  0
    3.1490   42.5380   51.4260 C   0  0  0  0  0  0  0  0  0  0  0  0
    2.9510   42.6950   52.8380 N   0  0  0  0  0  0  0  0  0  0  0  0
    1.6290   42.9660   53.4050 C   0  0  0  0  0  0  0  0  0  0  0  0
    1.6650   44.1810   54.3390 C   0  0  0  0  0  0  0  0  0  0  0  0
    2.4670   45.2960   53.7330 C   0  0  0  0  0  0  0  0  0  0  0  0
    1.9500   46.1810   52.7900 C   0  0  0  0  0  0  0  0  0  0  0  0
    3.2060   47.1800   52.2900 S   0  0  0  0  0  0  0  0  0  0  0  0
    4.3540   46.4450   53.2830 C   0  0  0  0  0  0  0  0  0  0  0  0
    5.7930   46.7890   53.3510 C   0  0  0  0  0  0  0  0  0  0  0  0
    6.4030   47.4830   52.2880 C   0  0  0  0  0  0  0  0  0  0  0  0
    7.7570   47.8260   52.3510 C   0  0  0  0  0  0  0  0  0  0  0  0
    8.5150   47.4810   53.4710 C   0  0  0  0  0  0  0  0  0  0  0  0
    7.9230   46.7900   54.5310 C   0  0  0  0  0  0  0  0  0  0  0  0
    6.5690   46.4460   54.4740 C   0  0  0  0  0  0  0  0  0  0  0  0
    3.7950   45.4420   53.9950 N   0  0  0  0  0  0  0  0  0  0  0  0
    4.4980   42.6750   50.8290 C   0  0  0  0  0  0  0  0  0  0  0  0
    5.1490   41.5530   50.2850 C   0  0  0  0  0  0  0  0  0  0  0  0
    6.4190   41.6800   49.7120 C   0  0  0  0  0  0  0  0  0  0  0  0
    7.0470   42.9270   49.6680 C   0  0  0  0  0  0  0  0  0  0  0  0
    8.2760   43.0460   49.1090 F   0  0  0  0  0  0  0  0  0  0  0  0
    6.4040   44.0520   50.1930 C   0  0  0  0  0  0  0  0  0  0  0  0
    7.0050   45.2660   50.1380 F   0  0  0  0  0  0  0  0  0  0  0  0
    5.1360   43.9290   50.7680 C   0  0  0  0  0  0  0  0  0  0  0  0
    3.7710   42.5940   53.4760 H   0  0  0  0  0  0  0  0  0  0  0  0
    0.9211   43.1634   52.5865 H   0  0  0  0  0  0  0  0  0  0  0  0
    1.3131   42.0880   53.9875 H   0  0  0  0  0  0  0  0  0  0  0  0
    0.6371   44.5308   54.5154 H   0  0  0  0  0  0  0  0  0  0  0  0
    2.1362   43.8828   55.2872 H   0  0  0  0  0  0  0  0  0  0  0  0
    0.9090   46.2193   52.4367 H   0  0  0  0  0  0  0  0  0  0  0  0
    5.8104   47.7569   51.4026 H   0  0  0  0  0  0  0  0  0  0  0  0
    8.2255   48.3685   51.5166 H   0  0  0  0  0  0  0  0  0  0  0  0
    9.5796   47.7535   53.5191 H   0  0  0  0  0  0  0  0  0  0  0  0
    8.5228   46.5162   55.4115 H   0  0  0  0  0  0  0  0  0  0  0  0
    6.1072   45.9038   55.3123 H   0  0  0  0  0  0  0  0  0  0  0  0
    4.6565   40.5697   50.3103 H   0  0  0  0  0  0  0  0  0  0  0  0
    6.9240   40.7961   49.2953 H   0  0  0  0  0  0  0  0  0  0  0  0
    4.6328   44.8181   51.1758 H   0  0  0  0  0  0  0  0  0  0  0  0
  1  2  2  0
  2  3  1  0
  3  4  1  0
  4  5  1  0
  5  6  1  0
  6  7  2  0
  7  8  1  0
  8  9  1  0
  9 10  1  0
 10 11  2  0
 11 12  1  0
 12 13  2  0
 13 14  1  0
 14 15  2  0
  9 16  2  0
  2 17  1  0
 17 18  2  0
 18 19  1  0
 19 20  2  0
 20 21  1  0
 20 22  1  0
 22 23  1  0
 22 24  2  0
 16  6  1  0
 24 17  1  0
 15 10  1  0
  3 25  1  0
  4 26  1  0
  4 27  1  0
  5 28  1  0
  5 29  1  0
  7 30  1  0
 11 31  1  0
 12 32  1  0
 13 33  1  0
 14 34  1  0
 15 35  1  0
 18 36  1  0
 19 37  1  0
 24 38  1  0
M  END
>  <meeko>  (2) 
{"is_sidechain": [false], "free_energy": -9.501, "intermolecular_energy": -11.609, "internal_energy": -1.565}

$$$$
ligand_91_conformer_2_docked
     RDKit          3D

 38 40  0  0  0  0  0  0  0  0999 V2000
    5.2530   47.9400   54.6790 O   0  0  0  0  0  0  0  0  0  0  0  0
    5.6790   46.8290   54.2600 C   0  0  0  0  0  0  0  0  0  0  0  0
    4.8670   45.6560   54.4130 N   0  0  0  0  0  0  0  0  0  0  0  0
    3.7620   45.6050   55.3730 C   0  0  0  0  0  0  0  0  0  0  0  0
    2.4060   45.6560   54.6590 C   0  0  0  0  0  0  0  0  0  0  0  0
    2.3170   44.5900   53.6050 C   0  0  0  0  0  0  0  0  0  0  0  0
    1.2100   43.7590   53.4540 C   0  0  0  0  0  0  0  0  0  0  0  0
    1.5760   42.6410   52.2530 S   0  0  0  0  0  0  0  0  0  0  0  0
    3.1240   43.2520   51.9800 C   0  0  0  0  0  0  0  0  0  0  0  0
    4.1170   42.7070   51.0270 C   0  0  0  0  0  0  0  0  0  0  0  0
    3.8390   41.5210   50.3200 C   0  0  0  0  0  0  0  0  0  0  0  0
    4.7650   41.0080   49.4060 C   0  0  0  0  0  0  0  0  0  0  0  0
    5.9750   41.6690   49.1890 C   0  0  0  0  0  0  0  0  0  0  0  0
    6.2640   42.8450   49.8860 C   0  0  0  0  0  0  0  0  0  0  0  0
    5.3410   43.3630   50.8000 C   0  0  0  0  0  0  0  0  0  0  0  0
    3.3720   44.3010   52.7950 N   0  0  0  0  0  0  0  0  0  0  0  0
    7.0110   46.7490   53.6150 C   0  0  0  0  0  0  0  0  0  0  0  0
    8.1550   47.2020   54.2960 C   0  0  0  0  0  0  0  0  0  0  0  0
    9.4160   47.1190   53.6950 C   0  0  0  0  0  0  0  0  0  0  0  0
    9.5480   46.5780   52.4140 C   0  0  0  0  0  0  0  0  0  0  0  0
   10.7720   46.4980   51.8360 F   0  0  0  0  0  0  0  0  0  0  0  0
    8.4190   46.1120   51.7320 C   0  0  0  0  0  0  0  0  0  0  0  0
    8.5470   45.5740   50.4950 F   0  0  0  0  0  0  0  0  0  0  0  0
    7.1570   46.1940   52.3290 C   0  0  0  0  0  0  0  0  0  0  0  0
    5.0590   44.8270   53.8080 H   0  0  0  0  0  0  0  0  0  0  0  0
    3.8296   44.6702   55.9489 H   0  0  0  0  0  0  0  0  0  0  0  0
    3.8384   46.4768   56.0394 H   0  0  0  0  0  0  0  0  0  0  0  0
    1.6044   45.5018   55.3963 H   0  0  0  0  0  0  0  0  0  0  0  0
    2.2989   46.6386   54.1762 H   0  0  0  0  0  0  0  0  0  0  0  0
    0.2676   43.8225   54.0178 H   0  0  0  0  0  0  0  0  0  0  0  0
    2.8876   40.9949   50.4878 H   0  0  0  0  0  0  0  0  0  0  0  0
    4.5393   40.0818   48.8571 H   0  0  0  0  0  0  0  0  0  0  0  0
    6.7013   41.2640   48.4690 H   0  0  0  0  0  0  0  0  0  0  0  0
    7.2188   43.3640   49.7156 H   0  0  0  0  0  0  0  0  0  0  0  0
    5.5734   44.2897   51.3452 H   0  0  0  0  0  0  0  0  0  0  0  0
    8.0580   47.6241   55.3072 H   0  0  0  0  0  0  0  0  0  0  0  0
   10.3051   47.4805   54.2324 H   0  0  0  0  0  0  0  0  0  0  0  0
    6.2726   45.8226   51.7905 H   0  0  0  0  0  0  0  0  0  0  0  0
  1  2  2  0
  2  3  1  0
  3  4  1  0
  4  5  1  0
  5  6  1  0
  6  7  2  0
  7  8  1  0
  8  9  1  0
  9 10  1  0
 10 11  2  0
 11 12  1  0
 12 13  2  0
 13 14  1  0
 14 15  2  0
  9 16  2  0
  2 17  1  0
 17 18  2  0
 18 19  1  0
 19 20  2  0
 20 21  1  0
 20 22  1  0
 22 23  1  0
 22 24  2  0
 16  6  1  0
 24 17  1  0
 15 10  1  0
  3 25  1  0
  4 26  1  0
  4 27  1  0
  5 28  1  0
  5 29  1  0
  7 30  1  0
 11 31  1  0
 12 32  1  0
 13 33  1  0
 14 34  1  0
 15 35  1  0
 18 36  1  0
 19 37  1  0
 24 38  1  0
M  END
>  <meeko>  (3) 
{"is_sidechain": [false], "free_energy": -9.231, "intermolecular_energy": -11.998, "internal_energy": -0.827}

$$$$
ligand_91_conformer_2_docked
     RDKit          3D

 38 40  0  0  0  0  0  0  0  0999 V2000
    2.2690   43.0320   51.8920 O   0  0  0  0  0  0  0  0  0  0  0  0
    3.4370   43.3510   52.2440 C   0  0  0  0  0  0  0  0  0  0  0  0
    3.6770   43.7790   53.5920 N   0  0  0  0  0  0  0  0  0  0  0  0
    2.5910   44.2430   54.4580 C   0  0  0  0  0  0  0  0  0  0  0  0
    2.9980   45.5050   55.2270 C   0  0  0  0  0  0  0  0  0  0  0  0
    3.9570   46.3350   54.4240 C   0  0  0  0  0  0  0  0  0  0  0  0
    3.5480   47.2620   53.4700 C   0  0  0  0  0  0  0  0  0  0  0  0
    4.9280   47.8690   52.7270 S   0  0  0  0  0  0  0  0  0  0  0  0
    5.9870   46.9250   53.6400 C   0  0  0  0  0  0  0  0  0  0  0  0
    7.4610   46.8890   53.4990 C   0  0  0  0  0  0  0  0  0  0  0  0
    8.0430   46.5220   52.2700 C   0  0  0  0  0  0  0  0  0  0  0  0
    9.4330   46.5010   52.1240 C   0  0  0  0  0  0  0  0  0  0  0  0
   10.2560   46.8420   53.1990 C   0  0  0  0  0  0  0  0  0  0  0  0
    9.6910   47.2050   54.4240 C   0  0  0  0  0  0  0  0  0  0  0  0
    8.3010   47.2290   54.5750 C   0  0  0  0  0  0  0  0  0  0  0  0
    5.3030   46.1480   54.5080 N   0  0  0  0  0  0  0  0  0  0  0  0
    4.5450   43.2790   51.2630 C   0  0  0  0  0  0  0  0  0  0  0  0
    5.3380   44.4120   51.0060 C   0  0  0  0  0  0  0  0  0  0  0  0
    6.3910   44.3450   50.0880 C   0  0  0  0  0  0  0  0  0  0  0  0
    6.6690   43.1470   49.4250 C   0  0  0  0  0  0  0  0  0  0  0  0
    7.6920   43.0860   48.5370 F   0  0  0  0  0  0  0  0  0  0  0  0
    5.8960   42.0100   49.6820 C   0  0  0  0  0  0  0  0  0  0  0  0
    6.1730   40.8430   49.0500 F   0  0  0  0  0  0  0  0  0  0  0  0
    4.8410   42.0730   50.5970 C   0  0  0  0  0  0  0  0  0  0  0  0
    4.6500   43.7380   53.9690 H   0  0  0  0  0  0  0  0  0  0  0  0
    1.7097   44.4680   53.8394 H   0  0  0  0  0  0  0  0  0  0  0  0
    2.3614   43.4501   55.1851 H   0  0  0  0  0  0  0  0  0  0  0  0
    2.0990   46.1010   55.4428 H   0  0  0  0  0  0  0  0  0  0  0  0
    3.4920   45.2029   56.1622 H   0  0  0  0  0  0  0  0  0  0  0  0
    2.5097   47.5460   53.2433 H   0  0  0  0  0  0  0  0  0  0  0  0
    7.3998   46.2503   51.4200 H   0  0  0  0  0  0  0  0  0  0  0  0
    9.8794   46.2152   51.1601 H   0  0  0  0  0  0  0  0  0  0  0  0
   11.3496   46.8248   53.0814 H   0  0  0  0  0  0  0  0  0  0  0  0
   10.3403   47.4723   55.2708 H   0  0  0  0  0  0  0  0  0  0  0  0
    7.8614   47.5157   55.5417 H   0  0  0  0  0  0  0  0  0  0  0  0
    5.1287   45.3562   51.5301 H   0  0  0  0  0  0  0  0  0  0  0  0
    7.0018   45.2376   49.8875 H   0  0  0  0  0  0  0  0  0  0  0  0
    4.2380   41.1753   50.7984 H   0  0  0  0  0  0  0  0  0  0  0  0
  1  2  2  0
  2  3  1  0
  3  4  1  0
  4  5  1  0
  5  6  1  0
  6  7  2  0
  7  8  1  0
  8  9  1  0
  9 10  1  0
 10 11  2  0
 11 12  1  0
 12 13  2  0
 13 14  1  0
 14 15  2  0
  9 16  2  0
  2 17  1  0
 17 18  2  0
 18 19  1  0
 19 20  2  0
 20 21  1  0
 20 22  1  0
 22 23  1  0
 22 24  2  0
 16  6  1  0
 24 17  1  0
 15 10  1  0
  3 25  1  0
  4 26  1  0
  4 27  1  0
  5 28  1  0
  5 29  1  0
  7 30  1  0
 11 31  1  0
 12 32  1  0
 13 33  1  0
 14 34  1  0
 15 35  1  0
 18 36  1  0
 19 37  1  0
 24 38  1  0
M  END
>  <meeko>  (4) 
{"is_sidechain": [false], "free_energy": -9.026, "intermolecular_energy": -11.207, "internal_energy": -1.354}

$$$$
ligand_91_conformer_2_docked
     RDKit          3D

 38 40  0  0  0  0  0  0  0  0999 V2000
    8.7490   44.2030   48.3940 O   0  0  0  0  0  0  0  0  0  0  0  0
    8.2130   44.1770   49.5360 C   0  0  0  0  0  0  0  0  0  0  0  0
    7.2070   43.1960   49.8230 N   0  0  0  0  0  0  0  0  0  0  0  0
    6.4900   42.4930   48.7570 C   0  0  0  0  0  0  0  0  0  0  0  0
    5.4390   41.5370   49.3340 C   0  0  0  0  0  0  0  0  0  0  0  0
    4.7030   42.1780   50.4750 C   0  0  0  0  0  0  0  0  0  0  0  0
    3.4000   41.8390   50.8260 C   0  0  0  0  0  0  0  0  0  0  0  0
    2.9220   42.8740   52.0620 S   0  0  0  0  0  0  0  0  0  0  0  0
    4.3840   43.7140   52.0950 C   0  0  0  0  0  0  0  0  0  0  0  0
    4.7030   44.8710   52.9610 C   0  0  0  0  0  0  0  0  0  0  0  0
    3.9860   46.0750   52.8210 C   0  0  0  0  0  0  0  0  0  0  0  0
    4.2690   47.1680   53.6470 C   0  0  0  0  0  0  0  0  0  0  0  0
    5.2680   47.0730   54.6170 C   0  0  0  0  0  0  0  0  0  0  0  0
    5.9880   45.8850   54.7640 C   0  0  0  0  0  0  0  0  0  0  0  0
    5.7080   44.7890   53.9420 C   0  0  0  0  0  0  0  0  0  0  0  0
    5.2380   43.2170   51.1730 N   0  0  0  0  0  0  0  0  0  0  0  0
    8.6310   45.1580   50.5640 C   0  0  0  0  0  0  0  0  0  0  0  0
    9.9380   45.1280   51.0820 C   0  0  0  0  0  0  0  0  0  0  0  0
   10.3400   46.0590   52.0460 C   0  0  0  0  0  0  0  0  0  0  0  0
    9.4450   47.0330   52.4960 C   0  0  0  0  0  0  0  0  0  0  0  0
    9.8390   47.9350   53.4280 F   0  0  0  0  0  0  0  0  0  0  0  0
    8.1470   47.0820   51.9790 C   0  0  0  0  0  0  0  0  0  0  0  0
    7.2820   48.0350   52.4030 F   0  0  0  0  0  0  0  0  0  0  0  0
    7.7410   46.1530   51.0160 C   0  0  0  0  0  0  0  0  0  0  0  0
    6.9960   42.9660   50.8200 H   0  0  0  0  0  0  0  0  0  0  0  0
    5.9890   43.2314   48.1138 H   0  0  0  0  0  0  0  0  0  0  0  0
    7.2164   41.9042   48.1776 H   0  0  0  0  0  0  0  0  0  0  0  0
    4.7201   41.2726   48.5445 H   0  0  0  0  0  0  0  0  0  0  0  0
    5.9488   40.6359   49.7057 H   0  0  0  0  0  0  0  0  0  0  0  0
    2.7929   41.0393   50.3766 H   0  0  0  0  0  0  0  0  0  0  0  0
    3.1985   46.1565   52.0573 H   0  0  0  0  0  0  0  0  0  0  0  0
    3.7030   48.1042   53.5318 H   0  0  0  0  0  0  0  0  0  0  0  0
    5.4884   47.9336   55.2657 H   0  0  0  0  0  0  0  0  0  0  0  0
    6.7764   45.8116   55.5275 H   0  0  0  0  0  0  0  0  0  0  0  0
    6.2777   43.8559   54.0633 H   0  0  0  0  0  0  0  0  0  0  0  0
   10.6491   44.3675   50.7270 H   0  0  0  0  0  0  0  0  0  0  0  0
   11.3624   46.0241   52.4503 H   0  0  0  0  0  0  0  0  0  0  0  0
    6.7203   46.1991   50.6085 H   0  0  0  0  0  0  0  0  0  0  0  0
  1  2  2  0
  2  3  1  0
  3  4  1  0
  4  5  1  0
  5  6  1  0
  6  7  2  0
  7  8  1  0
  8  9  1  0
  9 10  1  0
 10 11  2  0
 11 12  1  0
 12 13  2  0
 13 14  1  0
 14 15  2  0
  9 16  2  0
  2 17  1  0
 17 18  2  0
 18 19  1  0
 19 20  2  0
 20 21  1  0
 20 22  1  0
 22 23  1  0
 22 24  2  0
 16  6  1  0
 24 17  1  0
 15 10  1  0
  3 25  1  0
  4 26  1  0
  4 27  1  0
  5 28  1  0
  5 29  1  0
  7 30  1  0
 11 31  1  0
 12 32  1  0
 13 33  1  0
 14 34  1  0
 15 35  1  0
 18 36  1  0
 19 37  1  0
 24 38  1  0
M  END
>  <meeko>  (5) 
{"is_sidechain": [false], "free_energy": -8.984, "intermolecular_energy": -11.519, "internal_energy": -0.987}

$$$$
