ligand_69_conformer_2_docked
     RDKit          3D

 43 46  0  0  0  0  0  0  0  0999 V2000
    2.2850   43.5720   51.1980 C   0  0  0  0  0  0  0  0  0  0  0  0
    2.6790   44.2410   52.4320 N   0  0  0  0  0  0  0  0  0  0  0  0
    2.2210   43.8680   53.7550 C   0  0  0  0  0  0  0  0  0  0  0  0
    2.8490   44.8970   54.7110 C   0  0  0  0  0  0  0  0  0  0  0  0
    4.0260   45.5790   53.9460 C   0  0  0  0  0  0  0  0  0  0  0  0
    5.4000   44.9670   54.3660 C   0  0  0  0  0  0  0  0  0  0  0  0
    6.5570   45.9840   54.4080 C   0  0  0  0  0  0  0  0  0  0  0  0
    6.3780   47.0510   53.4150 N   0  0  0  0  0  0  0  0  0  0  0  0
    7.5200   47.5790   52.7140 C   0  0  0  0  0  0  0  0  0  0  0  0
    7.6710   48.8290   52.6270 O   0  0  0  0  0  0  0  0  0  0  0  0
    8.5300   46.6990   52.0940 C   0  0  0  0  0  0  0  0  0  0  0  0
    9.8980   46.7340   52.3470 C   0  0  0  0  0  0  0  0  0  0  0  0
   10.4910   45.7700   51.5350 C   0  0  0  0  0  0  0  0  0  0  0  0
    9.4600   45.2050   50.8140 C   0  0  0  0  0  0  0  0  0  0  0  0
    9.5110   44.2190   49.8340 C   0  0  0  0  0  0  0  0  0  0  0  0
    8.3030   43.8580   49.2210 C   0  0  0  0  0  0  0  0  0  0  0  0
    7.1090   44.4980   49.6010 C   0  0  0  0  0  0  0  0  0  0  0  0
    7.1350   45.4570   50.5690 N   0  0  0  0  0  0  0  0  0  0  0  0
    8.2910   45.7680   51.1520 N   0  0  0  0  0  0  0  0  0  0  0  0
    5.1340   47.8330   53.4190 C   0  0  0  0  0  0  0  0  0  0  0  0
    3.9960   47.1120   54.1610 C   0  0  0  0  0  0  0  0  0  0  0  0
    3.7030   45.2100   52.5300 C   0  0  0  0  0  0  0  0  0  0  0  0
    4.3090   45.6580   51.5190 O   0  0  0  0  0  0  0  0  0  0  0  0
    1.7405   42.6474   51.4399 H   0  0  0  0  0  0  0  0  0  0  0  0
    1.6347   44.2377   50.6115 H   0  0  0  0  0  0  0  0  0  0  0  0
    3.1825   43.3262   50.6115 H   0  0  0  0  0  0  0  0  0  0  0  0
    1.1232   43.9127   53.8089 H   0  0  0  0  0  0  0  0  0  0  0  0
    2.5122   42.8392   54.0133 H   0  0  0  0  0  0  0  0  0  0  0  0
    2.1004   45.6497   54.9992 H   0  0  0  0  0  0  0  0  0  0  0  0
    3.2102   44.4086   55.6281 H   0  0  0  0  0  0  0  0  0  0  0  0
    5.2902   44.5276   55.3684 H   0  0  0  0  0  0  0  0  0  0  0  0
    5.6616   44.2214   53.6007 H   0  0  0  0  0  0  0  0  0  0  0  0
    6.6001   46.4338   55.4109 H   0  0  0  0  0  0  0  0  0  0  0  0
    7.4907   45.4513   54.1747 H   0  0  0  0  0  0  0  0  0  0  0  0
   10.4143   47.3984   53.0555 H   0  0  0  0  0  0  0  0  0  0  0  0
   11.5591   45.5129   51.4802 H   0  0  0  0  0  0  0  0  0  0  0  0
   10.4610   43.7418   49.5514 H   0  0  0  0  0  0  0  0  0  0  0  0
    8.2887   43.0775   48.4460 H   0  0  0  0  0  0  0  0  0  0  0  0
    6.1586   44.2255   49.1189 H   0  0  0  0  0  0  0  0  0  0  0  0
    5.3236   48.7974   53.9129 H   0  0  0  0  0  0  0  0  0  0  0  0
    4.8200   47.9728   52.3741 H   0  0  0  0  0  0  0  0  0  0  0  0
    4.0897   47.3192   55.2372 H   0  0  0  0  0  0  0  0  0  0  0  0
    3.0437   47.4875   53.7583 H   0  0  0  0  0  0  0  0  0  0  0  0
  1  2  1  0
  2  3  1  0
  3  4  1  0
  4  5  1  0
  5  6  1  0
  6  7  1  0
  7  8  1  0
  8  9  1  0
  9 10  2  0
  9 11  1  0
 11 12  2  0
 12 13  1  0
 13 14  2  0
 14 15  1  0
 15 16  2  0
 16 17  1  0
 17 18  2  0
 18 19  1  0
  8 20  1  0
 20 21  1  0
  5 22  1  0
 22 23  2  0
 22  2  1  0
 21  5  1  0
 19 11  1  0
 19 14  1  0
  1 24  1  0
  1 25  1  0
  1 26  1  0
  3 27  1  0
  3 28  1  0
  4 29  1  0
  4 30  1  0
  6 31  1  0
  6 32  1  0
  7 33  1  0
  7 34  1  0
 12 35  1  0
 13 36  1  0
 15 37  1  0
 16 38  1  0
 17 39  1  0
 20 40  1  0
 20 41  1  0
 21 42  1  0
 21 43  1  0
M  END
>  <meeko>  (1) 
{"is_sidechain": [false], "free_energy": -8.988, "intermolecular_energy": -9.514, "internal_energy": -0.325}

$$$$
ligand_69_conformer_2_docked
     RDKit          3D

 43 46  0  0  0  0  0  0  0  0999 V2000
    5.9070   41.9550   49.0320 C   0  0  0  0  0  0  0  0  0  0  0  0
    5.0230   42.3240   50.1320 N   0  0  0  0  0  0  0  0  0  0  0  0
    4.1640   41.4010   50.8450 C   0  0  0  0  0  0  0  0  0  0  0  0
    3.3870   42.2620   51.8560 C   0  0  0  0  0  0  0  0  0  0  0  0
    4.1570   43.6120   51.9990 C   0  0  0  0  0  0  0  0  0  0  0  0
    5.0350   43.6240   53.2920 C   0  0  0  0  0  0  0  0  0  0  0  0
    5.1230   44.9990   53.9800 C   0  0  0  0  0  0  0  0  0  0  0  0
    5.0350   46.0990   53.0120 N   0  0  0  0  0  0  0  0  0  0  0  0
    5.8300   47.2860   53.1960 C   0  0  0  0  0  0  0  0  0  0  0  0
    5.2860   48.4200   53.0950 O   0  0  0  0  0  0  0  0  0  0  0  0
    7.2710   47.2170   53.5070 C   0  0  0  0  0  0  0  0  0  0  0  0
    7.8790   47.7410   54.6440 C   0  0  0  0  0  0  0  0  0  0  0  0
    9.2450   47.4940   54.5310 C   0  0  0  0  0  0  0  0  0  0  0  0
    9.4080   46.8480   53.3240 C   0  0  0  0  0  0  0  0  0  0  0  0
   10.5790   46.4130   52.7120 C   0  0  0  0  0  0  0  0  0  0  0  0
   10.4620   45.8200   51.4470 C   0  0  0  0  0  0  0  0  0  0  0  0
    9.1940   45.6980   50.8480 C   0  0  0  0  0  0  0  0  0  0  0  0
    8.0900   46.1490   51.5070 N   0  0  0  0  0  0  0  0  0  0  0  0
    8.2230   46.6890   52.7170 N   0  0  0  0  0  0  0  0  0  0  0  0
    3.8830   46.1620   52.1010 C   0  0  0  0  0  0  0  0  0  0  0  0
    3.1710   44.8040   51.9700 C   0  0  0  0  0  0  0  0  0  0  0  0
    5.0270   43.5810   50.7800 C   0  0  0  0  0  0  0  0  0  0  0  0
    5.7430   44.5410   50.3870 O   0  0  0  0  0  0  0  0  0  0  0  0
    6.8510   41.5610   49.4366 H   0  0  0  0  0  0  0  0  0  0  0  0
    5.4224   41.1840   48.4149 H   0  0  0  0  0  0  0  0  0  0  0  0
    6.1143   42.8417   48.4149 H   0  0  0  0  0  0  0  0  0  0  0  0
    3.4710   40.9050   50.1495 H   0  0  0  0  0  0  0  0  0  0  0  0
    4.7407   40.6073   51.3424 H   0  0  0  0  0  0  0  0  0  0  0  0
    2.3669   42.4469   51.4883 H   0  0  0  0  0  0  0  0  0  0  0  0
    3.3104   41.7510   52.8271 H   0  0  0  0  0  0  0  0  0  0  0  0
    4.6062   42.9067   54.0073 H   0  0  0  0  0  0  0  0  0  0  0  0
    6.0568   43.3577   52.9838 H   0  0  0  0  0  0  0  0  0  0  0  0
    4.2961   45.0908   54.6996 H   0  0  0  0  0  0  0  0  0  0  0  0
    6.0970   45.0663   54.4867 H   0  0  0  0  0  0  0  0  0  0  0  0
    7.3750   48.2542   55.4762 H   0  0  0  0  0  0  0  0  0  0  0  0
   10.0303   47.7591   55.2542 H   0  0  0  0  0  0  0  0  0  0  0  0
   11.5575   46.5296   53.2009 H   0  0  0  0  0  0  0  0  0  0  0  0
   11.3573   45.4516   50.9248 H   0  0  0  0  0  0  0  0  0  0  0  0
    9.0949   45.2407   49.8525 H   0  0  0  0  0  0  0  0  0  0  0  0
    3.1664   46.9020   52.4867 H   0  0  0  0  0  0  0  0  0  0  0  0
    4.2547   46.4460   51.1054 H   0  0  0  0  0  0  0  0  0  0  0  0
    2.4621   44.6956   52.8041 H   0  0  0  0  0  0  0  0  0  0  0  0
    2.6572   44.7888   50.9975 H   0  0  0  0  0  0  0  0  0  0  0  0
  1  2  1  0
  2  3  1  0
  3  4  1  0
  4  5  1  0
  5  6  1  0
  6  7  1  0
  7  8  1  0
  8  9  1  0
  9 10  2  0
  9 11  1  0
 11 12  2  0
 12 13  1  0
 13 14  2  0
 14 15  1  0
 15 16  2  0
 16 17  1  0
 17 18  2  0
 18 19  1  0
  8 20  1  0
 20 21  1  0
  5 22  1  0
 22 23  2  0
 22  2  1  0
 21  5  1  0
 19 11  1  0
 19 14  1  0
  1 24  1  0
  1 25  1  0
  1 26  1  0
  3 27  1  0
  3 28  1  0
  4 29  1  0
  4 30  1  0
  6 31  1  0
  6 32  1  0
  7 33  1  0
  7 34  1  0
 12 35  1  0
 13 36  1  0
 15 37  1  0
 16 38  1  0
 17 39  1  0
 20 40  1  0
 20 41  1  0
 21 42  1  0
 21 43  1  0
M  END
>  <meeko>  (2) 
{"is_sidechain": [false], "free_energy": -8.315, "intermolecular_energy": -8.728, "internal_energy": -0.399}

$$$$
ligand_69_conformer_2_docked
     RDKit          3D

 43 46  0  0  0  0  0  0  0  0999 V2000
    0.2050   43.4230   50.1210 C   0  0  0  0  0  0  0  0  0  0  0  0
    0.6140   43.4950   51.5190 N   0  0  0  0  0  0  0  0  0  0  0  0
    0.2750   42.5130   52.5280 C   0  0  0  0  0  0  0  0  0  0  0  0
    0.8680   43.0540   53.8410 C   0  0  0  0  0  0  0  0  0  0  0  0
    1.9290   44.1320   53.4570 C   0  0  0  0  0  0  0  0  0  0  0  0
    3.3760   43.5470   53.5290 C   0  0  0  0  0  0  0  0  0  0  0  0
    4.4380   44.5520   54.0160 C   0  0  0  0  0  0  0  0  0  0  0  0
    4.1040   45.9280   53.6270 N   0  0  0  0  0  0  0  0  0  0  0  0
    5.1480   46.8370   53.2310 C   0  0  0  0  0  0  0  0  0  0  0  0
    5.1820   47.9970   53.7260 O   0  0  0  0  0  0  0  0  0  0  0  0
    6.1910   46.4500   52.2610 C   0  0  0  0  0  0  0  0  0  0  0  0
    5.9640   45.8470   51.0270 C   0  0  0  0  0  0  0  0  0  0  0  0
    7.2080   45.6180   50.4450 C   0  0  0  0  0  0  0  0  0  0  0  0
    8.1350   46.0760   51.3580 C   0  0  0  0  0  0  0  0  0  0  0  0
    9.5240   46.0490   51.2870 C   0  0  0  0  0  0  0  0  0  0  0  0
   10.2340   46.5460   52.3900 C   0  0  0  0  0  0  0  0  0  0  0  0
    9.5340   47.0320   53.5100 C   0  0  0  0  0  0  0  0  0  0  0  0
    8.1720   47.0250   53.5090 N   0  0  0  0  0  0  0  0  0  0  0  0
    7.5190   46.5690   52.4420 N   0  0  0  0  0  0  0  0  0  0  0  0
    2.7980   46.4830   54.0100 C   0  0  0  0  0  0  0  0  0  0  0  0
    1.7770   45.3850   54.3530 C   0  0  0  0  0  0  0  0  0  0  0  0
    1.5530   44.4170   52.0350 C   0  0  0  0  0  0  0  0  0  0  0  0
    2.0520   45.3380   51.3350 O   0  0  0  0  0  0  0  0  0  0  0  0
   -0.8769   43.2325   50.0648 H   0  0  0  0  0  0  0  0  0  0  0  0
    0.4360   44.3756   49.6218 H   0  0  0  0  0  0  0  0  0  0  0  0
    0.7474   42.6065   49.6218 H   0  0  0  0  0  0  0  0  0  0  0  0
   -0.8168   42.4096   52.6128 H   0  0  0  0  0  0  0  0  0  0  0  0
    0.6720   41.5177   52.2796 H   0  0  0  0  0  0  0  0  0  0  0  0
    0.0752   43.5069   54.4544 H   0  0  0  0  0  0  0  0  0  0  0  0
    1.3279   42.2435   54.4255 H   0  0  0  0  0  0  0  0  0  0  0  0
    3.3684   42.6908   54.2196 H   0  0  0  0  0  0  0  0  0  0  0  0
    3.6547   43.2634   52.5034 H   0  0  0  0  0  0  0  0  0  0  0  0
    4.5034   44.4977   55.1127 H   0  0  0  0  0  0  0  0  0  0  0  0
    5.3986   44.2879   53.5496 H   0  0  0  0  0  0  0  0  0  0  0  0
    4.9845   45.5979   50.5927 H   0  0  0  0  0  0  0  0  0  0  0  0
    7.4094   45.1663   49.4625 H   0  0  0  0  0  0  0  0  0  0  0  0
   10.0444   45.6540   50.4020 H   0  0  0  0  0  0  0  0  0  0  0  0
   11.3339   46.5558   52.3796 H   0  0  0  0  0  0  0  0  0  0  0  0
   10.0841   47.4156   54.3819 H   0  0  0  0  0  0  0  0  0  0  0  0
    2.9322   47.1291   54.8901 H   0  0  0  0  0  0  0  0  0  0  0  0
    2.4079   47.0502   53.1521 H   0  0  0  0  0  0  0  0  0  0  0  0
    1.9186   45.0873   55.4024 H   0  0  0  0  0  0  0  0  0  0  0  0
    0.7721   45.7982   54.1813 H   0  0  0  0  0  0  0  0  0  0  0  0
  1  2  1  0
  2  3  1  0
  3  4  1  0
  4  5  1  0
  5  6  1  0
  6  7  1  0
  7  8  1  0
  8  9  1  0
  9 10  2  0
  9 11  1  0
 11 12  2  0
 12 13  1  0
 13 14  2  0
 14 15  1  0
 15 16  2  0
 16 17  1  0
 17 18  2  0
 18 19  1  0
  8 20  1  0
 20 21  1  0
  5 22  1  0
 22 23  2  0
 22  2  1  0
 21  5  1  0
 19 11  1  0
 19 14  1  0
  1 24  1  0
  1 25  1  0
  1 26  1  0
  3 27  1  0
  3 28  1  0
  4 29  1  0
  4 30  1  0
  6 31  1  0
  6 32  1  0
  7 33  1  0
  7 34  1  0
 12 35  1  0
 13 36  1  0
 15 37  1  0
 16 38  1  0
 17 39  1  0
 20 40  1  0
 20 41  1  0
 21 42  1  0
 21 43  1  0
M  END
>  <meeko>  (3) 
{"is_sidechain": [false], "free_energy": -8.313, "intermolecular_energy": -8.813, "internal_energy": -0.312}

$$$$
ligand_69_conformer_2_docked
     RDKit          3D

 43 46  0  0  0  0  0  0  0  0999 V2000
    0.6220   46.0930   57.5610 C   0  0  0  0  0  0  0  0  0  0  0  0
    0.0590   45.5050   56.3520 N   0  0  0  0  0  0  0  0  0  0  0  0
   -1.2760   45.7640   55.8530 C   0  0  0  0  0  0  0  0  0  0  0  0
   -1.4270   44.8750   54.6070 C   0  0  0  0  0  0  0  0  0  0  0  0
    0.0080   44.4550   54.1640 C   0  0  0  0  0  0  0  0  0  0  0  0
    0.5070   45.3290   52.9690 C   0  0  0  0  0  0  0  0  0  0  0  0
    1.3790   44.5690   51.9520 C   0  0  0  0  0  0  0  0  0  0  0  0
    2.1530   43.4980   52.5920 N   0  0  0  0  0  0  0  0  0  0  0  0
    3.4960   43.2200   52.1530 C   0  0  0  0  0  0  0  0  0  0  0  0
    3.8400   42.0280   51.9210 O   0  0  0  0  0  0  0  0  0  0  0  0
    4.4910   44.2940   51.9600 C   0  0  0  0  0  0  0  0  0  0  0  0
    4.9800   44.7310   50.7330 C   0  0  0  0  0  0  0  0  0  0  0  0
    5.9190   45.7260   50.9950 C   0  0  0  0  0  0  0  0  0  0  0  0
    5.9700   45.8360   52.3690 C   0  0  0  0  0  0  0  0  0  0  0  0
    6.7720   46.6570   53.1550 C   0  0  0  0  0  0  0  0  0  0  0  0
    6.6520   46.5330   54.5460 C   0  0  0  0  0  0  0  0  0  0  0  0
    5.7530   45.5960   55.0890 C   0  0  0  0  0  0  0  0  0  0  0  0
    4.9990   44.8240   54.2560 N   0  0  0  0  0  0  0  0  0  0  0  0
    5.1150   44.9750   52.9380 N   0  0  0  0  0  0  0  0  0  0  0  0
    1.4490   42.4780   53.3830 C   0  0  0  0  0  0  0  0  0  0  0  0
    0.0490   42.9460   53.8200 C   0  0  0  0  0  0  0  0  0  0  0  0
    0.7960   44.7640   55.4000 C   0  0  0  0  0  0  0  0  0  0  0  0
    2.0080   44.4590   55.5710 O   0  0  0  0  0  0  0  0  0  0  0  0
    0.1687   45.6196   58.4444 H   0  0  0  0  0  0  0  0  0  0  0  0
    1.7098   45.9305   57.5755 H   0  0  0  0  0  0  0  0  0  0  0  0
    0.4124   47.1727   57.5755 H   0  0  0  0  0  0  0  0  0  0  0  0
   -2.0282   45.4966   56.6098 H   0  0  0  0  0  0  0  0  0  0  0  0
   -1.4246   46.8279   55.6164 H   0  0  0  0  0  0  0  0  0  0  0  0
   -2.0226   43.9828   54.8504 H   0  0  0  0  0  0  0  0  0  0  0  0
   -1.9418   45.4173   53.8003 H   0  0  0  0  0  0  0  0  0  0  0  0
   -0.3726   45.7257   52.4408 H   0  0  0  0  0  0  0  0  0  0  0  0
    1.1390   46.1203   53.3984 H   0  0  0  0  0  0  0  0  0  0  0  0
    0.7273   44.1274   51.1837 H   0  0  0  0  0  0  0  0  0  0  0  0
    2.0867   45.2835   51.5062 H   0  0  0  0  0  0  0  0  0  0  0  0
    4.6811   44.3602   49.7415 H   0  0  0  0  0  0  0  0  0  0  0  0
    6.4987   46.3034   50.2598 H   0  0  0  0  0  0  0  0  0  0  0  0
    7.4723   47.3748   52.7030 H   0  0  0  0  0  0  0  0  0  0  0  0
    7.2583   47.1657   55.2109 H   0  0  0  0  0  0  0  0  0  0  0  0
    5.6593   45.4872   56.1796 H   0  0  0  0  0  0  0  0  0  0  0  0
    1.3444   41.5675   52.7746 H   0  0  0  0  0  0  0  0  0  0  0  0
    2.0401   42.2868   54.2908 H   0  0  0  0  0  0  0  0  0  0  0  0
   -0.6593   42.7516   53.0012 H   0  0  0  0  0  0  0  0  0  0  0  0
   -0.2206   42.3888   54.7293 H   0  0  0  0  0  0  0  0  0  0  0  0
  1  2  1  0
  2  3  1  0
  3  4  1  0
  4  5  1  0
  5  6  1  0
  6  7  1  0
  7  8  1  0
  8  9  1  0
  9 10  2  0
  9 11  1  0
 11 12  2  0
 12 13  1  0
 13 14  2  0
 14 15  1  0
 15 16  2  0
 16 17  1  0
 17 18  2  0
 18 19  1  0
  8 20  1  0
 20 21  1  0
  5 22  1  0
 22 23  2  0
 22  2  1  0
 21  5  1  0
 19 11  1  0
 19 14  1  0
  1 24  1  0
  1 25  1  0
  1 26  1  0
  3 27  1  0
  3 28  1  0
  4 29  1  0
  4 30  1  0
  6 31  1  0
  6 32  1  0
  7 33  1  0
  7 34  1  0
 12 35  1  0
 13 36  1  0
 15 37  1  0
 16 38  1  0
 17 39  1  0
 20 40  1  0
 20 41  1  0
 21 42  1  0
 21 43  1  0
M  END
>  <meeko>  (4) 
{"is_sidechain": [false], "free_energy": -8.289, "intermolecular_energy": -8.579, "internal_energy": -0.52}

$$$$
ligand_69_conformer_2_docked
     RDKit          3D

 43 46  0  0  0  0  0  0  0  0999 V2000
    0.3580   45.1810   52.8390 C   0  0  0  0  0  0  0  0  0  0  0  0
    1.4900   45.4910   53.7040 N   0  0  0  0  0  0  0  0  0  0  0  0
    1.5140   45.2810   55.1370 C   0  0  0  0  0  0  0  0  0  0  0  0
    2.8780   45.8160   55.6060 C   0  0  0  0  0  0  0  0  0  0  0  0
    3.7930   45.9150   54.3450 C   0  0  0  0  0  0  0  0  0  0  0  0
    4.7670   44.6970   54.2590 C   0  0  0  0  0  0  0  0  0  0  0  0
    6.1560   45.0390   53.6890 C   0  0  0  0  0  0  0  0  0  0  0  0
    6.0890   46.1340   52.7130 N   0  0  0  0  0  0  0  0  0  0  0  0
    6.9330   46.1100   51.5460 C   0  0  0  0  0  0  0  0  0  0  0  0
    7.5870   47.1430   51.2310 O   0  0  0  0  0  0  0  0  0  0  0  0
    7.0610   44.9060   50.7030 C   0  0  0  0  0  0  0  0  0  0  0  0
    8.0890   44.6590   49.7980 C   0  0  0  0  0  0  0  0  0  0  0  0
    7.8150   43.4370   49.1870 C   0  0  0  0  0  0  0  0  0  0  0  0
    6.6250   43.0060   49.7350 C   0  0  0  0  0  0  0  0  0  0  0  0
    5.8890   41.8620   49.4460 C   0  0  0  0  0  0  0  0  0  0  0  0
    4.6750   41.6890   50.1260 C   0  0  0  0  0  0  0  0  0  0  0  0
    4.2470   42.6620   51.0490 C   0  0  0  0  0  0  0  0  0  0  0  0
    5.0210   43.7590   51.2800 N   0  0  0  0  0  0  0  0  0  0  0  0
    6.1800   43.8920   50.6380 N   0  0  0  0  0  0  0  0  0  0  0  0
    5.4740   47.4100   53.1070 C   0  0  0  0  0  0  0  0  0  0  0  0
    4.5610   47.2590   54.3370 C   0  0  0  0  0  0  0  0  0  0  0  0
    2.7780   45.8490   53.2440 C   0  0  0  0  0  0  0  0  0  0  0  0
    3.0350   46.0310   52.0240 O   0  0  0  0  0  0  0  0  0  0  0  0
   -0.5201   44.9405   53.4563 H   0  0  0  0  0  0  0  0  0  0  0  0
    0.1328   46.0505   52.2040 H   0  0  0  0  0  0  0  0  0  0  0  0
    0.6073   44.3180   52.2040 H   0  0  0  0  0  0  0  0  0  0  0  0
    0.6963   45.8352   55.6209 H   0  0  0  0  0  0  0  0  0  0  0  0
    1.3792   44.2207   55.3972 H   0  0  0  0  0  0  0  0  0  0  0  0
    2.7565   46.8094   56.0625 H   0  0  0  0  0  0  0  0  0  0  0  0
    3.3216   45.1481   56.3590 H   0  0  0  0  0  0  0  0  0  0  0  0
    4.9005   44.2898   55.2721 H   0  0  0  0  0  0  0  0  0  0  0  0
    4.3100   43.9749   53.5664 H   0  0  0  0  0  0  0  0  0  0  0  0
    6.8166   45.3387   54.5159 H   0  0  0  0  0  0  0  0  0  0  0  0
    6.5451   44.1468   53.1766 H   0  0  0  0  0  0  0  0  0  0  0  0
    8.9558   45.3072   49.6017 H   0  0  0  0  0  0  0  0  0  0  0  0
    8.4213   42.9233   48.4264 H   0  0  0  0  0  0  0  0  0  0  0  0
    6.2449   41.1226   48.7134 H   0  0  0  0  0  0  0  0  0  0  0  0
    4.0596   40.7967   49.9390 H   0  0  0  0  0  0  0  0  0  0  0  0
    3.2924   42.5371   51.5810 H   0  0  0  0  0  0  0  0  0  0  0  0
    6.2715   48.1296   53.3438 H   0  0  0  0  0  0  0  0  0  0  0  0
    4.8554   47.7606   52.2677 H   0  0  0  0  0  0  0  0  0  0  0  0
    5.1798   47.3169   55.2446 H   0  0  0  0  0  0  0  0  0  0  0  0
    3.8170   48.0684   54.3018 H   0  0  0  0  0  0  0  0  0  0  0  0
  1  2  1  0
  2  3  1  0
  3  4  1  0
  4  5  1  0
  5  6  1  0
  6  7  1  0
  7  8  1  0
  8  9  1  0
  9 10  2  0
  9 11  1  0
 11 12  2  0
 12 13  1  0
 13 14  2  0
 14 15  1  0
 15 16  2  0
 16 17  1  0
 17 18  2  0
 18 19  1  0
  8 20  1  0
 20 21  1  0
  5 22  1  0
 22 23  2  0
 22  2  1  0
 21  5  1  0
 19 11  1  0
 19 14  1  0
  1 24  1  0
  1 25  1  0
  1 26  1  0
  3 27  1  0
  3 28  1  0
  4 29  1  0
  4 30  1  0
  6 31  1  0
  6 32  1  0
  7 33  1  0
  7 34  1  0
 12 35  1  0
 13 36  1  0
 15 37  1  0
 16 38  1  0
 17 39  1  0
 20 40  1  0
 20 41  1  0
 21 42  1  0
 21 43  1  0
M  END
>  <meeko>  (5) 
{"is_sidechain": [false], "free_energy": -8.243, "intermolecular_energy": -9.749, "internal_energy": 0.699}

$$$$
