ligand_55_conformer_4_docked
     RDKit          3D

 39 41  0  0  0  0  0  0  0  0999 V2000
   10.5670   47.6740   55.0580 O   0  0  0  0  0  0  0  0  0  0  0  0
    9.7670   47.1660   54.2290 C   0  0  0  0  0  0  0  0  0  0  0  0
   10.2210   46.7940   52.8550 C   0  0  0  0  0  0  0  0  0  0  0  0
    9.1090   47.1430   51.8590 C   0  0  0  0  0  0  0  0  0  0  0  0
    7.7220   46.5280   52.2190 C   0  0  1  0  0  0  0  0  0  0  0  0
    7.4460   45.3790   51.3510 N   0  0  0  0  0  0  0  0  0  0  0  0
    6.1270   45.0820   50.8640 C   0  0  0  0  0  0  0  0  0  0  0  0
    5.2540   45.9930   50.8220 O   0  0  0  0  0  0  0  0  0  0  0  0
    5.7800   43.7260   50.3810 C   0  0  0  0  0  0  0  0  0  0  0  0
    4.7180   43.0250   50.9740 C   0  0  0  0  0  0  0  0  0  0  0  0
    4.3840   41.7450   50.5280 C   0  0  0  0  0  0  0  0  0  0  0  0
    5.1240   41.1670   49.4980 C   0  0  0  0  0  0  0  0  0  0  0  0
    6.1650   41.8430   48.9450 N   0  0  0  0  0  0  0  0  0  0  0  0
    6.5100   43.0940   49.3560 C   0  0  0  0  0  0  0  0  0  0  0  0
    7.5920   43.6890   48.7950 F   0  0  0  0  0  0  0  0  0  0  0  0
    7.5870   46.0870   53.7080 C   0  0  2  0  0  0  0  0  0  0  0  0
    6.1360   46.1010   54.1500 C   0  0  0  0  0  0  0  0  0  0  0  0
    5.3480   47.2560   53.9900 C   0  0  0  0  0  0  0  0  0  0  0  0
    4.0010   47.2490   54.3600 C   0  0  0  0  0  0  0  0  0  0  0  0
    3.4250   46.0890   54.8850 C   0  0  0  0  0  0  0  0  0  0  0  0
    4.1950   44.9340   55.0400 C   0  0  0  0  0  0  0  0  0  0  0  0
    5.5450   44.9370   54.6730 C   0  0  0  0  0  0  0  0  0  0  0  0
    8.4090   46.9210   54.5900 N   0  0  0  0  0  0  0  0  0  0  0  0
   11.1335   47.3539   52.6023 H   0  0  0  0  0  0  0  0  0  0  0  0
   10.4392   45.7168   52.8110 H   0  0  0  0  0  0  0  0  0  0  0  0
    9.0045   48.2375   51.8262 H   0  0  0  0  0  0  0  0  0  0  0  0
    9.4046   46.7176   50.8886 H   0  0  0  0  0  0  0  0  0  0  0  0
    6.9874   47.3313   52.0608 H   0  0  0  0  0  0  0  0  0  0  0  0
    8.2110   44.6850   51.1920 H   0  0  0  0  0  0  0  0  0  0  0  0
    4.1468   43.4861   51.7932 H   0  0  0  0  0  0  0  0  0  0  0  0
    3.5457   41.1984   50.9846 H   0  0  0  0  0  0  0  0  0  0  0  0
    4.8650   40.1624   49.1323 H   0  0  0  0  0  0  0  0  0  0  0  0
    7.9580   45.0541   53.7826 H   0  0  0  0  0  0  0  0  0  0  0  0
    5.7953   48.1695   53.5712 H   0  0  0  0  0  0  0  0  0  0  0  0
    3.3930   48.1576   54.2380 H   0  0  0  0  0  0  0  0  0  0  0  0
    2.3643   46.0855   55.1764 H   0  0  0  0  0  0  0  0  0  0  0  0
    3.7394   44.0210   55.4511 H   0  0  0  0  0  0  0  0  0  0  0  0
    6.1471   44.0244   54.7941 H   0  0  0  0  0  0  0  0  0  0  0  0
    8.0680   47.2080   55.5350 H   0  0  0  0  0  0  0  0  0  0  0  0
  1  2  2  0
  2  3  1  0
  3  4  1  0
  4  5  1  0
  5  6  1  0
  6  7  1  0
  7  8  2  0
  7  9  1  0
  9 10  2  0
 10 11  1  0
 11 12  2  0
 12 13  1  0
 13 14  2  0
 14 15  1  0
  5 16  1  0
 16 17  1  0
 17 18  2  0
 18 19  1  0
 19 20  2  0
 20 21  1  0
 21 22  2  0
 16 23  1  0
 23  2  1  0
 14  9  1  0
 22 17  1  0
  3 24  1  0
  3 25  1  0
  4 26  1  0
  4 27  1  0
  5 28  1  6
  6 29  1  0
 10 30  1  0
 11 31  1  0
 12 32  1  0
 16 33  1  6
 18 34  1  0
 19 35  1  0
 20 36  1  0
 21 37  1  0
 22 38  1  0
 23 39  1  0
M  END
>  <meeko>  (1) 
{"is_sidechain": [false], "free_energy": -9.613, "intermolecular_energy": -11.299, "internal_energy": -0.93}

$$$$
ligand_55_conformer_4_docked
     RDKit          3D

 39 41  0  0  0  0  0  0  0  0999 V2000
    0.1450   41.8900   53.5660 O   0  0  0  0  0  0  0  0  0  0  0  0
    1.1440   42.6400   53.4010 C   0  0  0  0  0  0  0  0  0  0  0  0
    1.2990   43.8960   54.1950 C   0  0  0  0  0  0  0  0  0  0  0  0
    1.8680   44.9870   53.2820 C   0  0  0  0  0  0  0  0  0  0  0  0
    3.1810   44.5760   52.5480 C   0  0  1  0  0  0  0  0  0  0  0  0
    4.3330   45.2180   53.1890 N   0  0  0  0  0  0  0  0  0  0  0  0
    4.8980   46.4460   52.7040 C   0  0  0  0  0  0  0  0  0  0  0  0
    4.2030   47.2150   51.9850 O   0  0  0  0  0  0  0  0  0  0  0  0
    6.2810   46.8420   53.0570 C   0  0  0  0  0  0  0  0  0  0  0  0
    7.2100   47.1150   52.0410 C   0  0  0  0  0  0  0  0  0  0  0  0
    8.5170   47.4860   52.3650 C   0  0  0  0  0  0  0  0  0  0  0  0
    8.8910   47.5690   53.7050 C   0  0  0  0  0  0  0  0  0  0  0  0
    7.9910   47.2800   54.6810 N   0  0  0  0  0  0  0  0  0  0  0  0
    6.7100   46.9220   54.3970 C   0  0  0  0  0  0  0  0  0  0  0  0
    5.8810   46.5970   55.4200 F   0  0  0  0  0  0  0  0  0  0  0  0
    3.4230   43.0370   52.4860 C   0  0  2  0  0  0  0  0  0  0  0  0
    4.2900   42.6700   51.2980 C   0  0  0  0  0  0  0  0  0  0  0  0
    5.4430   43.4160   50.9930 C   0  0  0  0  0  0  0  0  0  0  0  0
    6.2610   43.0470   49.9220 C   0  0  0  0  0  0  0  0  0  0  0  0
    5.9410   41.9270   49.1510 C   0  0  0  0  0  0  0  0  0  0  0  0
    4.8040   41.1730   49.4500 C   0  0  0  0  0  0  0  0  0  0  0  0
    3.9820   41.5390   50.5200 C   0  0  0  0  0  0  0  0  0  0  0  0
    2.1580   42.2970   52.4570 N   0  0  0  0  0  0  0  0  0  0  0  0
    0.3194   44.2118   54.5832 H   0  0  0  0  0  0  0  0  0  0  0  0
    1.9798   43.7228   55.0415 H   0  0  0  0  0  0  0  0  0  0  0  0
    1.1103   45.2340   52.5238 H   0  0  0  0  0  0  0  0  0  0  0  0
    2.1169   45.8438   53.9254 H   0  0  0  0  0  0  0  0  0  0  0  0
    3.0627   44.9179   51.5092 H   0  0  0  0  0  0  0  0  0  0  0  0
    4.8350   44.6930   53.9420 H   0  0  0  0  0  0  0  0  0  0  0  0
    6.9078   47.0365   50.9862 H   0  0  0  0  0  0  0  0  0  0  0  0
    9.2439   47.7104   51.5705 H   0  0  0  0  0  0  0  0  0  0  0  0
    9.9151   47.8686   53.9725 H   0  0  0  0  0  0  0  0  0  0  0  0
    3.9585   42.7488   53.4026 H   0  0  0  0  0  0  0  0  0  0  0  0
    5.7022   44.2951   51.6013 H   0  0  0  0  0  0  0  0  0  0  0  0
    7.1576   43.6389   49.6858 H   0  0  0  0  0  0  0  0  0  0  0  0
    6.5853   41.6385   48.3074 H   0  0  0  0  0  0  0  0  0  0  0  0
    4.5550   40.2902   48.8429 H   0  0  0  0  0  0  0  0  0  0  0  0
    3.0900   40.9397   50.7548 H   0  0  0  0  0  0  0  0  0  0  0  0
    2.0460   41.4410   51.8690 H   0  0  0  0  0  0  0  0  0  0  0  0
  1  2  2  0
  2  3  1  0
  3  4  1  0
  4  5  1  0
  5  6  1  0
  6  7  1  0
  7  8  2  0
  7  9  1  0
  9 10  2  0
 10 11  1  0
 11 12  2  0
 12 13  1  0
 13 14  2  0
 14 15  1  0
  5 16  1  0
 16 17  1  0
 17 18  2  0
 18 19  1  0
 19 20  2  0
 20 21  1  0
 21 22  2  0
 16 23  1  0
 23  2  1  0
 14  9  1  0
 22 17  1  0
  3 24  1  0
  3 25  1  0
  4 26  1  0
  4 27  1  0
  5 28  1  6
  6 29  1  0
 10 30  1  0
 11 31  1  0
 12 32  1  0
 16 33  1  1
 18 34  1  0
 19 35  1  0
 20 36  1  0
 21 37  1  0
 22 38  1  0
 23 39  1  0
M  END
>  <meeko>  (2) 
{"is_sidechain": [false], "free_energy": -9.041, "intermolecular_energy": -11.123, "internal_energy": -0.433}

$$$$
ligand_55_conformer_4_docked
     RDKit          3D

 39 41  0  0  0  0  0  0  0  0999 V2000
    9.0990   47.5670   51.2170 O   0  0  0  0  0  0  0  0  0  0  0  0
    8.0510   47.0210   51.6540 C   0  0  0  0  0  0  0  0  0  0  0  0
    7.3250   47.5910   52.8290 C   0  0  0  0  0  0  0  0  0  0  0  0
    6.8220   46.4360   53.7030 C   0  0  0  0  0  0  0  0  0  0  0  0
    5.9750   45.3800   52.9290 C   0  0  1  0  0  0  0  0  0  0  0  0
    4.5520   45.5620   53.2330 N   0  0  0  0  0  0  0  0  0  0  0  0
    3.9410   45.0140   54.4120 C   0  0  0  0  0  0  0  0  0  0  0  0
    4.6560   44.7170   55.4090 O   0  0  0  0  0  0  0  0  0  0  0  0
    2.4760   44.8160   54.4900 C   0  0  0  0  0  0  0  0  0  0  0  0
    1.8130   44.1040   53.4780 C   0  0  0  0  0  0  0  0  0  0  0  0
    0.4310   43.9140   53.5410 C   0  0  0  0  0  0  0  0  0  0  0  0
   -0.2830   44.4500   54.6120 C   0  0  0  0  0  0  0  0  0  0  0  0
    0.3640   45.1570   55.5750 N   0  0  0  0  0  0  0  0  0  0  0  0
    1.7090   45.3540   55.5420 C   0  0  0  0  0  0  0  0  0  0  0  0
    2.2810   46.1140   56.5090 F   0  0  0  0  0  0  0  0  0  0  0  0
    6.1760   45.4100   51.3830 C   0  0  2  0  0  0  0  0  0  0  0  0
    5.8710   44.0580   50.7690 C   0  0  0  0  0  0  0  0  0  0  0  0
    6.6900   43.5280   49.7550 C   0  0  0  0  0  0  0  0  0  0  0  0
    6.4280   42.2630   49.2230 C   0  0  0  0  0  0  0  0  0  0  0  0
    5.3530   41.5110   49.7020 C   0  0  0  0  0  0  0  0  0  0  0  0
    4.5380   42.0220   50.7150 C   0  0  0  0  0  0  0  0  0  0  0  0
    4.7950   43.2890   51.2490 C   0  0  0  0  0  0  0  0  0  0  0  0
    7.5270   45.8520   51.0270 N   0  0  0  0  0  0  0  0  0  0  0  0
    8.0068   48.2271   53.4125 H   0  0  0  0  0  0  0  0  0  0  0  0
    6.4751   48.1992   52.4857 H   0  0  0  0  0  0  0  0  0  0  0  0
    7.6939   45.9275   54.1403 H   0  0  0  0  0  0  0  0  0  0  0  0
    6.1633   46.8765   54.4659 H   0  0  0  0  0  0  0  0  0  0  0  0
    6.3319   44.3982   53.2734 H   0  0  0  0  0  0  0  0  0  0  0  0
    3.9430   45.9910   52.5000 H   0  0  0  0  0  0  0  0  0  0  0  0
    2.3844   43.6942   52.6321 H   0  0  0  0  0  0  0  0  0  0  0  0
   -0.0887   43.3476   52.7542 H   0  0  0  0  0  0  0  0  0  0  0  0
   -1.3708   44.3003   54.6773 H   0  0  0  0  0  0  0  0  0  0  0  0
    5.4656   46.1416   50.9707 H   0  0  0  0  0  0  0  0  0  0  0  0
    7.5419   44.1134   49.3788 H   0  0  0  0  0  0  0  0  0  0  0  0
    7.0692   41.8588   48.4258 H   0  0  0  0  0  0  0  0  0  0  0  0
    5.1479   40.5156   49.2813 H   0  0  0  0  0  0  0  0  0  0  0  0
    3.6933   41.4274   51.0931 H   0  0  0  0  0  0  0  0  0  0  0  0
    4.1524   43.6863   52.0485 H   0  0  0  0  0  0  0  0  0  0  0  0
    8.0430   45.4220   50.2270 H   0  0  0  0  0  0  0  0  0  0  0  0
  1  2  2  0
  2  3  1  0
  3  4  1  0
  4  5  1  0
  5  6  1  0
  6  7  1  0
  7  8  2  0
  7  9  1  0
  9 10  2  0
 10 11  1  0
 11 12  2  0
 12 13  1  0
 13 14  2  0
 14 15  1  0
  5 16  1  0
 16 17  1  0
 17 18  2  0
 18 19  1  0
 19 20  2  0
 20 21  1  0
 21 22  2  0
 16 23  1  0
 23  2  1  0
 14  9  1  0
 22 17  1  0
  3 24  1  0
  3 25  1  0
  4 26  1  0
  4 27  1  0
  5 28  1  1
  6 29  1  0
 10 30  1  0
 11 31  1  0
 12 32  1  0
 16 33  1  6
 18 34  1  0
 19 35  1  0
 20 36  1  0
 21 37  1  0
 22 38  1  0
 23 39  1  0
M  END
>  <meeko>  (3) 
{"is_sidechain": [false], "free_energy": -8.233, "intermolecular_energy": -10.213, "internal_energy": -0.394}

$$$$
ligand_55_conformer_4_docked
     RDKit          3D

 39 41  0  0  0  0  0  0  0  0999 V2000
    7.0580   47.9660   53.0480 O   0  0  0  0  0  0  0  0  0  0  0  0
    6.0380   47.2300   52.9720 C   0  0  0  0  0  0  0  0  0  0  0  0
    4.7670   47.6090   53.6600 C   0  0  0  0  0  0  0  0  0  0  0  0
    4.1270   46.3440   54.2430 C   0  0  0  0  0  0  0  0  0  0  0  0
    3.9280   45.2000   53.2020 C   0  0  1  0  0  0  0  0  0  0  0  0
    2.5170   45.1230   52.8100 N   0  0  0  0  0  0  0  0  0  0  0  0
    1.5340   44.4360   53.6020 C   0  0  0  0  0  0  0  0  0  0  0  0
    1.7490   44.2300   54.8280 O   0  0  0  0  0  0  0  0  0  0  0  0
    0.2550   43.9860   53.0080 C   0  0  0  0  0  0  0  0  0  0  0  0
   -0.5690   44.9090   52.3450 C   0  0  0  0  0  0  0  0  0  0  0  0
   -1.7790   44.4950   51.7840 C   0  0  0  0  0  0  0  0  0  0  0  0
   -2.1640   43.1600   51.9000 C   0  0  0  0  0  0  0  0  0  0  0  0
   -1.3710   42.2790   52.5640 N   0  0  0  0  0  0  0  0  0  0  0  0
   -0.1850   42.6520   53.1160 C   0  0  0  0  0  0  0  0  0  0  0  0
    0.5310   41.7310   53.8090 F   0  0  0  0  0  0  0  0  0  0  0  0
    4.8070   45.3410   51.9220 C   0  0  2  0  0  0  0  0  0  0  0  0
    5.0570   43.9890   51.2830 C   0  0  0  0  0  0  0  0  0  0  0  0
    4.2140   42.8970   51.5600 C   0  0  0  0  0  0  0  0  0  0  0  0
    4.4250   41.6650   50.9350 C   0  0  0  0  0  0  0  0  0  0  0  0
    5.4730   41.5130   50.0230 C   0  0  0  0  0  0  0  0  0  0  0  0
    6.3100   42.5920   49.7330 C   0  0  0  0  0  0  0  0  0  0  0  0
    6.1040   43.8270   50.3570 C   0  0  0  0  0  0  0  0  0  0  0  0
    6.0710   46.0220   52.2130 N   0  0  0  0  0  0  0  0  0  0  0  0
    4.9828   48.3215   54.4698 H   0  0  0  0  0  0  0  0  0  0  0  0
    4.0790   48.0804   52.9428 H   0  0  0  0  0  0  0  0  0  0  0  0
    4.7734   45.9692   55.0503 H   0  0  0  0  0  0  0  0  0  0  0  0
    3.1264   46.6280   54.6010 H   0  0  0  0  0  0  0  0  0  0  0  0
    4.2519   44.2771   53.7053 H   0  0  0  0  0  0  0  0  0  0  0  0
    2.2490   45.4680   51.8600 H   0  0  0  0  0  0  0  0  0  0  0  0
   -0.2606   45.9620   52.2671 H   0  0  0  0  0  0  0  0  0  0  0  0
   -2.4218   45.2148   51.2560 H   0  0  0  0  0  0  0  0  0  0  0  0
   -3.1101   42.8199   51.4538 H   0  0  0  0  0  0  0  0  0  0  0  0
    4.2504   45.9616   51.2044 H   0  0  0  0  0  0  0  0  0  0  0  0
    3.3842   43.0137   52.2726 H   0  0  0  0  0  0  0  0  0  0  0  0
    3.7656   40.8141   51.1611 H   0  0  0  0  0  0  0  0  0  0  0  0
    5.6385   40.5421   49.5331 H   0  0  0  0  0  0  0  0  0  0  0  0
    7.1326   42.4709   49.0128 H   0  0  0  0  0  0  0  0  0  0  0  0
    6.7637   44.6755   50.1226 H   0  0  0  0  0  0  0  0  0  0  0  0
    6.9630   45.7260   51.7560 H   0  0  0  0  0  0  0  0  0  0  0  0
  1  2  2  0
  2  3  1  0
  3  4  1  0
  4  5  1  0
  5  6  1  0
  6  7  1  0
  7  8  2  0
  7  9  1  0
  9 10  2  0
 10 11  1  0
 11 12  2  0
 12 13  1  0
 13 14  2  0
 14 15  1  0
  5 16  1  0
 16 17  1  0
 17 18  2  0
 18 19  1  0
 19 20  2  0
 20 21  1  0
 21 22  2  0
 16 23  1  0
 23  2  1  0
 14  9  1  0
 22 17  1  0
  3 24  1  0
  3 25  1  0
  4 26  1  0
  4 27  1  0
  5 28  1  1
  6 29  1  0
 10 30  1  0
 11 31  1  0
 12 32  1  0
 16 33  1  6
 18 34  1  0
 19 35  1  0
 20 36  1  0
 21 37  1  0
 22 38  1  0
 23 39  1  0
M  END
>  <meeko>  (4) 
{"is_sidechain": [false], "free_energy": -7.808, "intermolecular_energy": -9.806, "internal_energy": -0.302}

$$$$
