ligand_6_conformer_1_docked
     RDKit          3D

 44 47  0  0  0  0  0  0  0  0999 V2000
    3.2660   45.8520   55.7880 O   0  0  0  0  0  0  0  0  0  0  0  0
    3.0680   45.3070   54.6700 C   0  0  0  0  0  0  0  0  0  0  0  0
    4.1510   44.9090   53.7460 C   0  0  0  0  0  0  0  0  0  0  0  0
    3.3810   44.4650   52.4850 C   0  0  1  0  0  0  0  0  0  0  0  0
    3.9690   43.2670   51.8690 N   0  0  0  0  0  0  0  0  0  0  0  0
    5.1200   43.3320   51.0180 C   0  0  0  0  0  0  0  0  0  0  0  0
    5.4350   42.2690   50.2300 N   0  0  0  0  0  0  0  0  0  0  0  0
    6.5180   42.3010   49.4120 C   0  0  0  0  0  0  0  0  0  0  0  0
    7.3220   43.4380   49.3670 C   0  0  0  0  0  0  0  0  0  0  0  0
    6.9840   44.5280   50.1670 C   0  0  0  0  0  0  0  0  0  0  0  0
    7.7910   45.6720   50.1450 O   0  0  0  0  0  0  0  0  0  0  0  0
    8.3400   46.2910   51.2760 C   0  0  0  0  0  0  0  0  0  0  0  0
    9.6650   45.9990   51.6260 C   0  0  0  0  0  0  0  0  0  0  0  0
   10.2510   46.6030   52.7430 C   0  0  0  0  0  0  0  0  0  0  0  0
    9.5190   47.5130   53.5120 C   0  0  0  0  0  0  0  0  0  0  0  0
    8.2050   47.8280   53.1570 C   0  0  0  0  0  0  0  0  0  0  0  0
    7.6150   47.2260   52.0410 C   0  0  0  0  0  0  0  0  0  0  0  0
    5.8960   44.4500   50.9820 N   0  0  0  0  0  0  0  0  0  0  0  0
    1.8960   44.2780   52.9180 C   0  0  1  0  0  0  0  0  0  0  0  0
    1.4460   42.8150   53.1070 C   0  0  0  0  0  0  0  0  0  0  0  0
    0.0560   42.7030   53.7880 C   0  0  0  0  0  0  0  0  0  0  0  0
   -0.4900   44.0310   54.3510 C   0  0  0  0  0  0  0  0  0  0  0  0
    0.6010   44.8440   55.0570 C   0  0  0  0  0  0  0  0  0  0  0  0
    1.7810   44.9580   54.1990 N   0  0  0  0  0  0  0  0  0  0  0  0
    4.8154   45.7576   53.5259 H   0  0  0  0  0  0  0  0  0  0  0  0
    4.8050   44.1246   54.1548 H   0  0  0  0  0  0  0  0  0  0  0  0
    3.4443   45.2244   51.6917 H   0  0  0  0  0  0  0  0  0  0  0  0
    3.6010   42.3210   52.1130 H   0  0  0  0  0  0  0  0  0  0  0  0
    6.7605   41.4301   48.7853 H   0  0  0  0  0  0  0  0  0  0  0  0
    8.2058   43.4746   48.7132 H   0  0  0  0  0  0  0  0  0  0  0  0
   10.2476   45.2906   51.0187 H   0  0  0  0  0  0  0  0  0  0  0  0
   11.2887   46.3620   53.0169 H   0  0  0  0  0  0  0  0  0  0  0  0
    9.9774   47.9805   54.3959 H   0  0  0  0  0  0  0  0  0  0  0  0
    7.6330   48.5513   53.7567 H   0  0  0  0  0  0  0  0  0  0  0  0
    6.5830   47.4830   51.7600 H   0  0  0  0  0  0  0  0  0  0  0  0
    1.2540   44.6762   52.1185 H   0  0  0  0  0  0  0  0  0  0  0  0
    1.3952   42.3315   52.1203 H   0  0  0  0  0  0  0  0  0  0  0  0
    2.1794   42.3222   53.7622 H   0  0  0  0  0  0  0  0  0  0  0  0
   -0.6611   42.3244   53.0447 H   0  0  0  0  0  0  0  0  0  0  0  0
    0.1824   42.0278   54.6471 H   0  0  0  0  0  0  0  0  0  0  0  0
   -0.8979   44.6278   53.5219 H   0  0  0  0  0  0  0  0  0  0  0  0
   -1.2698   43.7932   55.0895 H   0  0  0  0  0  0  0  0  0  0  0  0
    0.2166   45.8498   55.2818 H   0  0  0  0  0  0  0  0  0  0  0  0
    0.8830   44.3329   55.9893 H   0  0  0  0  0  0  0  0  0  0  0  0
  1  2  2  0
  2  3  1  0
  3  4  1  0
  4  5  1  0
  5  6  1  0
  6  7  2  0
  7  8  1  0
  8  9  2  0
  9 10  1  0
 10 11  1  0
 11 12  1  0
 12 13  2  0
 13 14  1  0
 14 15  2  0
 15 16  1  0
 16 17  2  0
 10 18  2  0
  4 19  1  0
 19 20  1  0
 20 21  1  0
 21 22  1  0
 22 23  1  0
 23 24  1  0
 24  2  1  0
 18  6  1  0
 24 19  1  0
 17 12  1  0
  3 25  1  0
  3 26  1  0
  4 27  1  6
  5 28  1  0
  8 29  1  0
  9 30  1  0
 13 31  1  0
 14 32  1  0
 15 33  1  0
 16 34  1  0
 17 35  1  0
 19 36  1  6
 20 37  1  0
 20 38  1  0
 21 39  1  0
 21 40  1  0
 22 41  1  0
 22 42  1  0
 23 43  1  0
 23 44  1  0
M  END
>  <meeko>  (1) 
{"is_sidechain": [false], "free_energy": -9.283, "intermolecular_energy": -11.454, "internal_energy": -0.522}

$$$$
ligand_6_conformer_1_docked
     RDKit          3D

 44 47  0  0  0  0  0  0  0  0999 V2000
   -0.9800   45.6360   52.0070 O   0  0  0  0  0  0  0  0  0  0  0  0
   -0.0940   44.9900   52.6280 C   0  0  0  0  0  0  0  0  0  0  0  0
    1.2370   44.6750   52.0700 C   0  0  0  0  0  0  0  0  0  0  0  0
    1.8470   43.7440   53.1390 C   0  0  1  0  0  0  0  0  0  0  0  0
    3.2720   44.0200   53.3690 N   0  0  0  0  0  0  0  0  0  0  0  0
    4.2440   43.9460   52.3180 C   0  0  0  0  0  0  0  0  0  0  0  0
    4.3050   42.8350   51.5360 N   0  0  0  0  0  0  0  0  0  0  0  0
    5.2120   42.7350   50.5310 C   0  0  0  0  0  0  0  0  0  0  0  0
    6.0970   43.7840   50.2860 C   0  0  0  0  0  0  0  0  0  0  0  0
    6.0180   44.9250   51.0830 C   0  0  0  0  0  0  0  0  0  0  0  0
    6.9090   45.9810   50.8600 O   0  0  0  0  0  0  0  0  0  0  0  0
    7.9100   46.3910   51.7520 C   0  0  0  0  0  0  0  0  0  0  0  0
    9.2400   46.0530   51.4720 C   0  0  0  0  0  0  0  0  0  0  0  0
   10.2680   46.4520   52.3330 C   0  0  0  0  0  0  0  0  0  0  0  0
    9.9720   47.2020   53.4750 C   0  0  0  0  0  0  0  0  0  0  0  0
    8.6510   47.5640   53.7510 C   0  0  0  0  0  0  0  0  0  0  0  0
    7.6210   47.1670   52.8920 C   0  0  0  0  0  0  0  0  0  0  0  0
    5.1000   44.9790   52.0880 N   0  0  0  0  0  0  0  0  0  0  0  0
    0.9680   43.9030   54.4150 C   0  0  1  0  0  0  0  0  0  0  0  0
    1.5810   44.7730   55.5320 C   0  0  0  0  0  0  0  0  0  0  0  0
    0.5620   45.1120   56.6510 C   0  0  0  0  0  0  0  0  0  0  0  0
   -0.8960   44.7280   56.3270 C   0  0  0  0  0  0  0  0  0  0  0  0
   -1.2680   45.0700   54.8790 C   0  0  0  0  0  0  0  0  0  0  0  0
   -0.2570   44.5450   53.9610 N   0  0  0  0  0  0  0  0  0  0  0  0
    1.1486   44.1611   51.1015 H   0  0  0  0  0  0  0  0  0  0  0  0
    1.8477   45.5682   51.8721 H   0  0  0  0  0  0  0  0  0  0  0  0
    1.8352   42.6954   52.8067 H   0  0  0  0  0  0  0  0  0  0  0  0
    3.5930   44.3640   54.3000 H   0  0  0  0  0  0  0  0  0  0  0  0
    5.2487   41.8274   49.9106 H   0  0  0  0  0  0  0  0  0  0  0  0
    6.8424   43.7128   49.4802 H   0  0  0  0  0  0  0  0  0  0  0  0
    9.4777   45.4704   50.5698 H   0  0  0  0  0  0  0  0  0  0  0  0
   11.3094   46.1755   52.1113 H   0  0  0  0  0  0  0  0  0  0  0  0
   10.7795   47.5073   54.1567 H   0  0  0  0  0  0  0  0  0  0  0  0
    8.4207   48.1620   54.6451 H   0  0  0  0  0  0  0  0  0  0  0  0
    6.5831   47.4612   53.1069 H   0  0  0  0  0  0  0  0  0  0  0  0
    0.8356   42.9075   54.8639 H   0  0  0  0  0  0  0  0  0  0  0  0
    2.4264   44.2289   55.9784 H   0  0  0  0  0  0  0  0  0  0  0  0
    1.9036   45.7210   55.0768 H   0  0  0  0  0  0  0  0  0  0  0  0
    0.8634   44.5769   57.5636 H   0  0  0  0  0  0  0  0  0  0  0  0
    0.5785   46.2056   56.7679 H   0  0  0  0  0  0  0  0  0  0  0  0
   -1.0215   43.6460   56.4806 H   0  0  0  0  0  0  0  0  0  0  0  0
   -1.5564   45.3018   56.9938 H   0  0  0  0  0  0  0  0  0  0  0  0
   -2.2440   44.6229   54.6391 H   0  0  0  0  0  0  0  0  0  0  0  0
   -1.3192   46.1634   54.7699 H   0  0  0  0  0  0  0  0  0  0  0  0
  1  2  2  0
  2  3  1  0
  3  4  1  0
  4  5  1  0
  5  6  1  0
  6  7  2  0
  7  8  1  0
  8  9  2  0
  9 10  1  0
 10 11  1  0
 11 12  1  0
 12 13  2  0
 13 14  1  0
 14 15  2  0
 15 16  1  0
 16 17  2  0
 10 18  2  0
  4 19  1  0
 19 20  1  0
 20 21  1  0
 21 22  1  0
 22 23  1  0
 23 24  1  0
 24  2  1  0
 18  6  1  0
 24 19  1  0
 17 12  1  0
  3 25  1  0
  3 26  1  0
  4 27  1  6
  5 28  1  0
  8 29  1  0
  9 30  1  0
 13 31  1  0
 14 32  1  0
 15 33  1  0
 16 34  1  0
 17 35  1  0
 19 36  1  1
 20 37  1  0
 20 38  1  0
 21 39  1  0
 21 40  1  0
 22 41  1  0
 22 42  1  0
 23 43  1  0
 23 44  1  0
M  END
>  <meeko>  (2) 
{"is_sidechain": [false], "free_energy": -9.255, "intermolecular_energy": -11.381, "internal_energy": -0.561}

$$$$
ligand_6_conformer_1_docked
     RDKit          3D

 44 47  0  0  0  0  0  0  0  0999 V2000
    0.8480   45.6250   56.4410 O   0  0  0  0  0  0  0  0  0  0  0  0
    1.2440   45.2030   55.3210 C   0  0  0  0  0  0  0  0  0  0  0  0
    2.6640   44.9660   54.9880 C   0  0  0  0  0  0  0  0  0  0  0  0
    2.6120   44.6340   53.4820 C   0  0  1  0  0  0  0  0  0  0  0  0
    3.5300   43.5440   53.1220 N   0  0  0  0  0  0  0  0  0  0  0  0
    4.5150   43.6840   52.0900 C   0  0  0  0  0  0  0  0  0  0  0  0
    4.7130   42.6700   51.2070 N   0  0  0  0  0  0  0  0  0  0  0  0
    5.6360   42.7730   50.2170 C   0  0  0  0  0  0  0  0  0  0  0  0
    6.3960   43.9350   50.0930 C   0  0  0  0  0  0  0  0  0  0  0  0
    6.1760   44.9760   50.9930 C   0  0  0  0  0  0  0  0  0  0  0  0
    6.9410   46.1440   50.8920 O   0  0  0  0  0  0  0  0  0  0  0  0
    7.9870   46.4980   51.7550 C   0  0  0  0  0  0  0  0  0  0  0  0
    7.6870   47.2290   52.9120 C   0  0  0  0  0  0  0  0  0  0  0  0
    8.7020   47.5930   53.8020 C   0  0  0  0  0  0  0  0  0  0  0  0
   10.0240   47.2170   53.5480 C   0  0  0  0  0  0  0  0  0  0  0  0
   10.3310   46.4670   52.4090 C   0  0  0  0  0  0  0  0  0  0  0  0
    9.3190   46.1020   51.5160 C   0  0  0  0  0  0  0  0  0  0  0  0
    5.2480   44.8260   51.9790 N   0  0  0  0  0  0  0  0  0  0  0  0
    1.1220   44.3280   53.1490 C   0  0  1  0  0  0  0  0  0  0  0  0
    0.7770   42.8340   52.9870 C   0  0  0  0  0  0  0  0  0  0  0  0
   -0.7520   42.5780   52.9220 C   0  0  0  0  0  0  0  0  0  0  0  0
   -1.6210   43.8050   53.2650 C   0  0  0  0  0  0  0  0  0  0  0  0
   -1.0640   44.5820   54.4640 C   0  0  0  0  0  0  0  0  0  0  0  0
    0.3610   44.8500   54.2740 N   0  0  0  0  0  0  0  0  0  0  0  0
    3.2700   45.8648   55.1747 H   0  0  0  0  0  0  0  0  0  0  0  0
    3.1262   44.1720   55.5930 H   0  0  0  0  0  0  0  0  0  0  0  0
    2.9623   45.4820   52.8753 H   0  0  0  0  0  0  0  0  0  0  0  0
    3.5360   42.6620   53.6790 H   0  0  0  0  0  0  0  0  0  0  0  0
    5.7841   41.9405   49.5134 H   0  0  0  0  0  0  0  0  0  0  0  0
    7.1537   44.0283   49.3011 H   0  0  0  0  0  0  0  0  0  0  0  0
    6.6466   47.5183   53.1214 H   0  0  0  0  0  0  0  0  0  0  0  0
    8.4599   48.1758   54.7029 H   0  0  0  0  0  0  0  0  0  0  0  0
   10.8229   47.5113   54.2445 H   0  0  0  0  0  0  0  0  0  0  0  0
   11.3704   46.1635   52.2150 H   0  0  0  0  0  0  0  0  0  0  0  0
    9.5625   45.5046   50.6250 H   0  0  0  0  0  0  0  0  0  0  0  0
    0.8901   44.7846   52.1755 H   0  0  0  0  0  0  0  0  0  0  0  0
    1.2357   42.4653   52.0577 H   0  0  0  0  0  0  0  0  0  0  0  0
    1.1661   42.3048   53.8694 H   0  0  0  0  0  0  0  0  0  0  0  0
   -1.0030   42.2538   51.9013 H   0  0  0  0  0  0  0  0  0  0  0  0
   -0.9740   41.8149   53.6825 H   0  0  0  0  0  0  0  0  0  0  0  0
   -1.6533   44.4733   52.3919 H   0  0  0  0  0  0  0  0  0  0  0  0
   -2.6276   43.4476   53.5278 H   0  0  0  0  0  0  0  0  0  0  0  0
   -1.6033   45.5358   54.5612 H   0  0  0  0  0  0  0  0  0  0  0  0
   -1.1978   43.9804   55.3752 H   0  0  0  0  0  0  0  0  0  0  0  0
  1  2  2  0
  2  3  1  0
  3  4  1  0
  4  5  1  0
  5  6  1  0
  6  7  2  0
  7  8  1  0
  8  9  2  0
  9 10  1  0
 10 11  1  0
 11 12  1  0
 12 13  2  0
 13 14  1  0
 14 15  2  0
 15 16  1  0
 16 17  2  0
 10 18  2  0
  4 19  1  0
 19 20  1  0
 20 21  1  0
 21 22  1  0
 22 23  1  0
 23 24  1  0
 24  2  1  0
 18  6  1  0
 24 19  1  0
 17 12  1  0
  3 25  1  0
  3 26  1  0
  4 27  1  6
  5 28  1  0
  8 29  1  0
  9 30  1  0
 13 31  1  0
 14 32  1  0
 15 33  1  0
 16 34  1  0
 17 35  1  0
 19 36  1  6
 20 37  1  0
 20 38  1  0
 21 39  1  0
 21 40  1  0
 22 41  1  0
 22 42  1  0
 23 43  1  0
 23 44  1  0
M  END
>  <meeko>  (3) 
{"is_sidechain": [false], "free_energy": -9.103, "intermolecular_energy": -11.118, "internal_energy": -0.637}

$$$$
ligand_6_conformer_1_docked
     RDKit          3D

 44 47  0  0  0  0  0  0  0  0999 V2000
    7.8570   44.9230   49.8640 O   0  0  0  0  0  0  0  0  0  0  0  0
    7.3400   45.6490   50.7550 C   0  0  0  0  0  0  0  0  0  0  0  0
    5.8990   45.6480   51.0820 C   0  0  0  0  0  0  0  0  0  0  0  0
    5.7740   46.8100   52.0890 C   0  0  1  0  0  0  0  0  0  0  0  0
    4.8580   46.4920   53.1930 N   0  0  0  0  0  0  0  0  0  0  0  0
    3.9050   45.4240   53.1110 C   0  0  0  0  0  0  0  0  0  0  0  0
    2.6170   45.6420   53.4880 N   0  0  0  0  0  0  0  0  0  0  0  0
    1.6900   44.6520   53.4200 C   0  0  0  0  0  0  0  0  0  0  0  0
    2.0540   43.3910   52.9540 C   0  0  0  0  0  0  0  0  0  0  0  0
    3.3730   43.1800   52.5560 C   0  0  0  0  0  0  0  0  0  0  0  0
    3.7580   41.9140   52.0990 O   0  0  0  0  0  0  0  0  0  0  0  0
    4.2840   41.6430   50.8280 C   0  0  0  0  0  0  0  0  0  0  0  0
    3.4810   40.9690   49.8970 C   0  0  0  0  0  0  0  0  0  0  0  0
    3.9660   40.6890   48.6160 C   0  0  0  0  0  0  0  0  0  0  0  0
    5.2540   41.0920   48.2520 C   0  0  0  0  0  0  0  0  0  0  0  0
    6.0540   41.7850   49.1650 C   0  0  0  0  0  0  0  0  0  0  0  0
    5.5720   42.0670   50.4470 C   0  0  0  0  0  0  0  0  0  0  0  0
    4.2730   44.1980   52.6510 N   0  0  0  0  0  0  0  0  0  0  0  0
    7.2220   47.1450   52.5580 C   0  0  1  0  0  0  0  0  0  0  0  0
    7.5960   46.6220   53.9590 C   0  0  0  0  0  0  0  0  0  0  0  0
    9.1130   46.7510   54.2580 C   0  0  0  0  0  0  0  0  0  0  0  0
    9.9740   47.1420   53.0400 C   0  0  0  0  0  0  0  0  0  0  0  0
    9.5440   46.3950   51.7730 C   0  0  0  0  0  0  0  0  0  0  0  0
    8.0980   46.5070   51.5870 N   0  0  0  0  0  0  0  0  0  0  0  0
    5.2895   45.8339   50.1854 H   0  0  0  0  0  0  0  0  0  0  0  0
    5.5447   44.6864   51.4817 H   0  0  0  0  0  0  0  0  0  0  0  0
    5.3202   47.6956   51.6202 H   0  0  0  0  0  0  0  0  0  0  0  0
    4.9440   46.9940   54.1040 H   0  0  0  0  0  0  0  0  0  0  0  0
    0.6533   44.8457   53.7325 H   0  0  0  0  0  0  0  0  0  0  0  0
    1.3152   42.5777   52.9011 H   0  0  0  0  0  0  0  0  0  0  0  0
    2.4633   40.6587   50.1762 H   0  0  0  0  0  0  0  0  0  0  0  0
    3.3337   40.1513   47.8942 H   0  0  0  0  0  0  0  0  0  0  0  0
    5.6381   40.8637   47.2468 H   0  0  0  0  0  0  0  0  0  0  0  0
    7.0643   42.1090   48.8746 H   0  0  0  0  0  0  0  0  0  0  0  0
    6.2003   42.6213   51.1597 H   0  0  0  0  0  0  0  0  0  0  0  0
    7.3151   48.2391   52.6235 H   0  0  0  0  0  0  0  0  0  0  0  0
    7.0382   47.1992   54.7111 H   0  0  0  0  0  0  0  0  0  0  0  0
    7.3387   45.5532   53.9956 H   0  0  0  0  0  0  0  0  0  0  0  0
    9.2461   47.5195   55.0337 H   0  0  0  0  0  0  0  0  0  0  0  0
    9.4549   45.7550   54.5759 H   0  0  0  0  0  0  0  0  0  0  0  0
    9.8741   48.2236   52.8664 H   0  0  0  0  0  0  0  0  0  0  0  0
   11.0172   46.8702   53.2586 H   0  0  0  0  0  0  0  0  0  0  0  0
   10.0571   46.8303   50.9028 H   0  0  0  0  0  0  0  0  0  0  0  0
    9.8117   45.3329   51.8743 H   0  0  0  0  0  0  0  0  0  0  0  0
  1  2  2  0
  2  3  1  0
  3  4  1  0
  4  5  1  0
  5  6  1  0
  6  7  2  0
  7  8  1  0
  8  9  2  0
  9 10  1  0
 10 11  1  0
 11 12  1  0
 12 13  2  0
 13 14  1  0
 14 15  2  0
 15 16  1  0
 16 17  2  0
 10 18  2  0
  4 19  1  0
 19 20  1  0
 20 21  1  0
 21 22  1  0
 22 23  1  0
 23 24  1  0
 24  2  1  0
 18  6  1  0
 24 19  1  0
 17 12  1  0
  3 25  1  0
  3 26  1  0
  4 27  1  6
  5 28  1  0
  8 29  1  0
  9 30  1  0
 13 31  1  0
 14 32  1  0
 15 33  1  0
 16 34  1  0
 17 35  1  0
 19 36  1  1
 20 37  1  0
 20 38  1  0
 21 39  1  0
 21 40  1  0
 22 41  1  0
 22 42  1  0
 23 43  1  0
 23 44  1  0
M  END
>  <meeko>  (4) 
{"is_sidechain": [false], "free_energy": -8.806, "intermolecular_energy": -11.317, "internal_energy": -0.07}

$$$$
ligand_6_conformer_1_docked
     RDKit          3D

 44 47  0  0  0  0  0  0  0  0999 V2000
   -1.2210   44.7950   57.2570 O   0  0  0  0  0  0  0  0  0  0  0  0
   -0.2930   44.8890   56.4110 C   0  0  0  0  0  0  0  0  0  0  0  0
    1.1000   45.2460   56.7550 C   0  0  0  0  0  0  0  0  0  0  0  0
    1.7690   45.3910   55.3720 C   0  0  1  0  0  0  0  0  0  0  0  0
    3.1260   44.8290   55.3500 N   0  0  0  0  0  0  0  0  0  0  0  0
    4.2070   45.4660   54.6570 C   0  0  0  0  0  0  0  0  0  0  0  0
    5.1330   46.1720   55.3590 N   0  0  0  0  0  0  0  0  0  0  0  0
    6.1690   46.7850   54.7310 C   0  0  0  0  0  0  0  0  0  0  0  0
    6.2960   46.6920   53.3470 C   0  0  0  0  0  0  0  0  0  0  0  0
    5.3500   45.9550   52.6360 C   0  0  0  0  0  0  0  0  0  0  0  0
    5.4560   45.8640   51.2430 O   0  0  0  0  0  0  0  0  0  0  0  0
    6.2550   44.9390   50.5560 C   0  0  0  0  0  0  0  0  0  0  0  0
    5.7220   43.6780   50.2600 C   0  0  0  0  0  0  0  0  0  0  0  0
    6.4850   42.7330   49.5670 C   0  0  0  0  0  0  0  0  0  0  0  0
    7.7830   43.0460   49.1560 C   0  0  0  0  0  0  0  0  0  0  0  0
    8.3160   44.3100   49.4260 C   0  0  0  0  0  0  0  0  0  0  0  0
    7.5560   45.2580   50.1180 C   0  0  0  0  0  0  0  0  0  0  0  0
    4.3200   45.3650   53.3040 N   0  0  0  0  0  0  0  0  0  0  0  0
    0.8040   44.7290   54.3440 C   0  0  1  0  0  0  0  0  0  0  0  0
    1.2260   43.3290   53.8530 C   0  0  0  0  0  0  0  0  0  0  0  0
    0.1070   42.6160   53.0490 C   0  0  0  0  0  0  0  0  0  0  0  0
   -1.2640   43.3220   53.0950 C   0  0  0  0  0  0  0  0  0  0  0  0
   -1.5940   43.8350   54.5020 C   0  0  0  0  0  0  0  0  0  0  0  0
   -0.4690   44.6020   55.0370 N   0  0  0  0  0  0  0  0  0  0  0  0
    1.1395   46.1919   57.3151 H   0  0  0  0  0  0  0  0  0  0  0  0
    1.5924   44.5038   57.4006 H   0  0  0  0  0  0  0  0  0  0  0  0
    1.9207   46.4491   55.1123 H   0  0  0  0  0  0  0  0  0  0  0  0
    3.3500   43.9840   55.9200 H   0  0  0  0  0  0  0  0  0  0  0  0
    6.9073   47.3545   55.3146 H   0  0  0  0  0  0  0  0  0  0  0  0
    7.1264   47.1903   52.8253 H   0  0  0  0  0  0  0  0  0  0  0  0
    4.6976   43.4297   50.5744 H   0  0  0  0  0  0  0  0  0  0  0  0
    6.0626   41.7419   49.3452 H   0  0  0  0  0  0  0  0  0  0  0  0
    8.3856   42.2980   48.6200 H   0  0  0  0  0  0  0  0  0  0  0  0
    9.3346   44.5590   49.0936 H   0  0  0  0  0  0  0  0  0  0  0  0
    7.9744   46.2549   50.3209 H   0  0  0  0  0  0  0  0  0  0  0  0
    0.7839   45.3578   53.4416 H   0  0  0  0  0  0  0  0  0  0  0  0
    2.1109   43.4338   53.2081 H   0  0  0  0  0  0  0  0  0  0  0  0
    1.4409   42.7156   54.7405 H   0  0  0  0  0  0  0  0  0  0  0  0
    0.4259   42.5533   51.9981 H   0  0  0  0  0  0  0  0  0  0  0  0
   -0.0334   41.6300   53.5159 H   0  0  0  0  0  0  0  0  0  0  0  0
   -1.2490   44.1743   52.3998 H   0  0  0  0  0  0  0  0  0  0  0  0
   -2.0345   42.5911   52.8083 H   0  0  0  0  0  0  0  0  0  0  0  0
   -2.4836   44.4802   54.4541 H   0  0  0  0  0  0  0  0  0  0  0  0
   -1.7882   42.9758   55.1609 H   0  0  0  0  0  0  0  0  0  0  0  0
  1  2  2  0
  2  3  1  0
  3  4  1  0
  4  5  1  0
  5  6  1  0
  6  7  2  0
  7  8  1  0
  8  9  2  0
  9 10  1  0
 10 11  1  0
 11 12  1  0
 12 13  2  0
 13 14  1  0
 14 15  2  0
 15 16  1  0
 16 17  2  0
 10 18  2  0
  4 19  1  0
 19 20  1  0
 20 21  1  0
 21 22  1  0
 22 23  1  0
 23 24  1  0
 24  2  1  0
 18  6  1  0
 24 19  1  0
 17 12  1  0
  3 25  1  0
  3 26  1  0
  4 27  1  6
  5 28  1  0
  8 29  1  0
  9 30  1  0
 13 31  1  0
 14 32  1  0
 15 33  1  0
 16 34  1  0
 17 35  1  0
 19 36  1  6
 20 37  1  0
 20 38  1  0
 21 39  1  0
 21 40  1  0
 22 41  1  0
 22 42  1  0
 23 43  1  0
 23 44  1  0
M  END
>  <meeko>  (5) 
{"is_sidechain": [false], "free_energy": -8.663, "intermolecular_energy": -10.508, "internal_energy": -0.703}

$$$$
