ligand_72_conformer_3_docked
     RDKit          3D

 54 56  0  0  0  0  0  0  0  0999 V2000
    2.2840   40.6390   44.4960 C   0  0  0  0  0  0  0  0  0  0  0  0
    3.3080   39.9790   45.2350 O   0  0  0  0  0  0  0  0  0  0  0  0
    4.0000   40.5530   46.3140 C   0  0  0  0  0  0  0  0  0  0  0  0
    5.0880   41.4300   46.1330 C   0  0  0  0  0  0  0  0  0  0  0  0
    5.7380   41.9840   47.2410 C   0  0  0  0  0  0  0  0  0  0  0  0
    5.3230   41.6670   48.5460 C   0  0  0  0  0  0  0  0  0  0  0  0
    6.0150   42.3020   49.7380 C   0  0  2  0  0  0  0  0  0  0  0  0
    5.1530   43.3320   50.3340 N   0  0  0  0  0  0  0  0  0  0  0  0
    4.2190   43.0300   51.3850 C   0  0  0  0  0  0  0  0  0  0  0  0
    4.2260   41.8880   51.9220 O   0  0  0  0  0  0  0  0  0  0  0  0
    3.1830   44.0020   51.8100 C   0  0  0  0  0  0  0  0  0  0  0  0
    1.9670   44.0120   51.0970 C   0  0  0  0  0  0  0  0  0  0  0  0
    0.9050   44.8210   51.5050 C   0  0  0  0  0  0  0  0  0  0  0  0
    1.0310   45.6120   52.6450 C   0  0  0  0  0  0  0  0  0  0  0  0
    2.2210   45.6040   53.3730 C   0  0  0  0  0  0  0  0  0  0  0  0
    3.3130   44.8270   52.9550 C   0  0  0  0  0  0  0  0  0  0  0  0
    4.7960   44.8570   53.9770 S   0  0  0  0  0  0  0  0  0  0  0  0
    5.3430   46.5080   53.4010 C   0  0  0  0  0  0  0  0  0  0  0  0
    6.3770   46.3540   52.3220 C   0  0  0  0  0  0  0  0  0  0  0  0
    5.9930   46.1330   51.1400 O   0  0  0  0  0  0  0  0  0  0  0  0
    7.7820   46.4840   52.6010 N   0  0  0  0  0  0  0  0  0  0  0  0
    8.8010   46.4010   51.5720 C   0  0  0  0  0  0  0  0  0  0  0  0
   10.1020   46.8170   52.2470 C   0  0  0  0  0  0  0  0  0  0  0  0
    9.8410   46.7370   53.7480 C   0  0  0  0  0  0  0  0  0  0  0  0
    8.3290   46.7770   53.9130 C   0  0  0  0  0  0  0  0  0  0  0  0
    7.3680   42.8950   49.3320 C   0  0  0  0  0  0  0  0  0  0  0  0
    7.3810   44.2550   49.5960 F   0  0  0  0  0  0  0  0  0  0  0  0
    8.3820   42.2910   50.0550 F   0  0  0  0  0  0  0  0  0  0  0  0
    4.2400   40.7870   48.7200 C   0  0  0  0  0  0  0  0  0  0  0  0
    3.5870   40.2390   47.6110 C   0  0  0  0  0  0  0  0  0  0  0  0
    1.5684   41.1002   45.1925 H   0  0  0  0  0  0  0  0  0  0  0  0
    2.7331   41.4181   43.8625 H   0  0  0  0  0  0  0  0  0  0  0  0
    1.7600   39.9082   43.8625 H   0  0  0  0  0  0  0  0  0  0  0  0
    5.4274   41.6799   45.1169 H   0  0  0  0  0  0  0  0  0  0  0  0
    6.5814   42.6738   47.0896 H   0  0  0  0  0  0  0  0  0  0  0  0
    6.2010   41.5211   50.4901 H   0  0  0  0  0  0  0  0  0  0  0  0
    5.0750   44.2500   49.8460 H   0  0  0  0  0  0  0  0  0  0  0  0
    1.8535   43.3743   50.2079 H   0  0  0  0  0  0  0  0  0  0  0  0
   -0.0307   44.8339   50.9268 H   0  0  0  0  0  0  0  0  0  0  0  0
    0.1914   46.2434   52.9713 H   0  0  0  0  0  0  0  0  0  0  0  0
    2.3047   46.2134   54.2849 H   0  0  0  0  0  0  0  0  0  0  0  0
    4.4792   47.0605   53.0028 H   0  0  0  0  0  0  0  0  0  0  0  0
    5.7794   47.0611   54.2458 H   0  0  0  0  0  0  0  0  0  0  0  0
    8.8784   45.3721   51.1908 H   0  0  0  0  0  0  0  0  0  0  0  0
    8.5645   47.0461   50.7129 H   0  0  0  0  0  0  0  0  0  0  0  0
   10.9155   46.1330   51.9635 H   0  0  0  0  0  0  0  0  0  0  0  0
   10.4071   47.8296   51.9444 H   0  0  0  0  0  0  0  0  0  0  0  0
   10.2455   45.7994   54.1569 H   0  0  0  0  0  0  0  0  0  0  0  0
   10.3272   47.5639   54.2863 H   0  0  0  0  0  0  0  0  0  0  0  0
    8.0028   46.0206   54.6420 H   0  0  0  0  0  0  0  0  0  0  0  0
    7.9874   47.7538   54.2860 H   0  0  0  0  0  0  0  0  0  0  0  0
    7.5232   42.7211   48.2570 H   0  0  0  0  0  0  0  0  0  0  0  0
    3.9042   40.5279   49.7349 H   0  0  0  0  0  0  0  0  0  0  0  0
    2.7397   39.5539   47.7617 H   0  0  0  0  0  0  0  0  0  0  0  0
  1  2  1  0
  2  3  1  0
  3  4  2  0
  4  5  1  0
  5  6  2  0
  6  7  1  0
  7  8  1  0
  8  9  1  0
  9 10  2  0
  9 11  1  0
 11 12  2  0
 12 13  1  0
 13 14  2  0
 14 15  1  0
 15 16  2  0
 16 17  1  0
 17 18  1  0
 18 19  1  0
 19 20  2  0
 19 21  1  0
 21 22  1  0
 22 23  1  0
 23 24  1  0
 24 25  1  0
  7 26  1  0
 26 27  1  0
 26 28  1  0
  6 29  1  0
 29 30  2  0
 30  3  1  0
 16 11  1  0
 25 21  1  0
  1 31  1  0
  1 32  1  0
  1 33  1  0
  4 34  1  0
  5 35  1  0
  7 36  1  1
  8 37  1  0
 12 38  1  0
 13 39  1  0
 14 40  1  0
 15 41  1  0
 18 42  1  0
 18 43  1  0
 22 44  1  0
 22 45  1  0
 23 46  1  0
 23 47  1  0
 24 48  1  0
 24 49  1  0
 25 50  1  0
 25 51  1  0
 26 52  1  0
 29 53  1  0
 30 54  1  0
M  END
>  <meeko>  (1) 
{"is_sidechain": [false], "free_energy": -8.286, "intermolecular_energy": -12.161, "internal_energy": -1.621}

$$$$
ligand_72_conformer_3_docked
     RDKit          3D

 54 56  0  0  0  0  0  0  0  0999 V2000
   -1.8840   44.1580   56.6760 C   0  0  0  0  0  0  0  0  0  0  0  0
   -1.2540   43.9030   55.4250 O   0  0  0  0  0  0  0  0  0  0  0  0
   -0.0520   44.4990   55.0080 C   0  0  0  0  0  0  0  0  0  0  0  0
    0.9960   44.7930   55.9040 C   0  0  0  0  0  0  0  0  0  0  0  0
    2.1780   45.3780   55.4380 C   0  0  0  0  0  0  0  0  0  0  0  0
    2.3340   45.6880   54.0750 C   0  0  0  0  0  0  0  0  0  0  0  0
    3.6340   46.2900   53.5780 C   0  0  2  0  0  0  0  0  0  0  0  0
    4.4750   45.2490   52.9710 N   0  0  0  0  0  0  0  0  0  0  0  0
    4.5120   45.0320   51.5500 C   0  0  0  0  0  0  0  0  0  0  0  0
    3.9270   45.8390   50.7760 O   0  0  0  0  0  0  0  0  0  0  0  0
    5.1570   43.8330   50.9610 C   0  0  0  0  0  0  0  0  0  0  0  0
    4.4780   42.6040   51.0760 C   0  0  0  0  0  0  0  0  0  0  0  0
    4.9680   41.4550   50.4540 C   0  0  0  0  0  0  0  0  0  0  0  0
    6.1290   41.5190   49.6870 C   0  0  0  0  0  0  0  0  0  0  0  0
    6.8070   42.7300   49.5480 C   0  0  0  0  0  0  0  0  0  0  0  0
    6.3510   43.8880   50.1980 C   0  0  0  0  0  0  0  0  0  0  0  0
    7.2750   45.4120   49.9330 S   0  0  0  0  0  0  0  0  0  0  0  0
    8.1190   45.3610   51.5580 C   0  0  0  0  0  0  0  0  0  0  0  0
    7.8230   46.6170   52.3250 C   0  0  0  0  0  0  0  0  0  0  0  0
    6.7890   47.2800   52.0320 O   0  0  0  0  0  0  0  0  0  0  0  0
    8.6700   47.0610   53.4000 N   0  0  0  0  0  0  0  0  0  0  0  0
    8.3790   48.2360   54.2000 C   0  0  0  0  0  0  0  0  0  0  0  0
    9.3790   48.2100   55.3490 C   0  0  0  0  0  0  0  0  0  0  0  0
   10.4690   47.2260   54.9350 C   0  0  0  0  0  0  0  0  0  0  0  0
    9.8560   46.3560   53.8470 C   0  0  0  0  0  0  0  0  0  0  0  0
    4.3800   46.9940   54.7160 C   0  0  0  0  0  0  0  0  0  0  0  0
    5.6420   46.4410   54.8610 F   0  0  0  0  0  0  0  0  0  0  0  0
    4.5150   48.3410   54.4270 F   0  0  0  0  0  0  0  0  0  0  0  0
    1.2820   45.3970   53.1880 C   0  0  0  0  0  0  0  0  0  0  0  0
    0.1030   44.8070   53.6540 C   0  0  0  0  0  0  0  0  0  0  0  0
   -1.2015   43.8818   57.4933 H   0  0  0  0  0  0  0  0  0  0  0  0
   -2.1316   45.2272   56.7506 H   0  0  0  0  0  0  0  0  0  0  0  0
   -2.8056   43.5621   56.7506 H   0  0  0  0  0  0  0  0  0  0  0  0
    0.8837   44.5615   56.9735 H   0  0  0  0  0  0  0  0  0  0  0  0
    2.9927   45.5975   56.1437 H   0  0  0  0  0  0  0  0  0  0  0  0
    3.3986   47.0430   52.8115 H   0  0  0  0  0  0  0  0  0  0  0  0
    4.8910   44.5270   53.5970 H   0  0  0  0  0  0  0  0  0  0  0  0
    3.5497   42.5494   51.6636 H   0  0  0  0  0  0  0  0  0  0  0  0
    4.4373   40.4984   50.5694 H   0  0  0  0  0  0  0  0  0  0  0  0
    6.5111   40.6146   49.1910 H   0  0  0  0  0  0  0  0  0  0  0  0
    7.7099   42.7784   48.9215 H   0  0  0  0  0  0  0  0  0  0  0  0
    7.7602   44.4917   52.1286 H   0  0  0  0  0  0  0  0  0  0  0  0
    9.2046   45.2791   51.4007 H   0  0  0  0  0  0  0  0  0  0  0  0
    8.5070   49.1495   53.6007 H   0  0  0  0  0  0  0  0  0  0  0  0
    7.3412   48.2322   54.5646 H   0  0  0  0  0  0  0  0  0  0  0  0
    9.8072   49.2110   55.5059 H   0  0  0  0  0  0  0  0  0  0  0  0
    8.9010   47.9084   56.2927 H   0  0  0  0  0  0  0  0  0  0  0  0
   11.3440   47.7665   54.5448 H   0  0  0  0  0  0  0  0  0  0  0  0
   10.8128   46.6226   55.7880 H   0  0  0  0  0  0  0  0  0  0  0  0
   10.5631   46.2291   53.0140 H   0  0  0  0  0  0  0  0  0  0  0  0
    9.6129   45.3505   54.2211 H   0  0  0  0  0  0  0  0  0  0  0  0
    3.8070   46.8683   55.6465 H   0  0  0  0  0  0  0  0  0  0  0  0
    1.3875   45.6354   52.1193 H   0  0  0  0  0  0  0  0  0  0  0  0
   -0.7102   44.5832   52.9479 H   0  0  0  0  0  0  0  0  0  0  0  0
  1  2  1  0
  2  3  1  0
  3  4  2  0
  4  5  1  0
  5  6  2  0
  6  7  1  0
  7  8  1  0
  8  9  1  0
  9 10  2  0
  9 11  1  0
 11 12  2  0
 12 13  1  0
 13 14  2  0
 14 15  1  0
 15 16  2  0
 16 17  1  0
 17 18  1  0
 18 19  1  0
 19 20  2  0
 19 21  1  0
 21 22  1  0
 22 23  1  0
 23 24  1  0
 24 25  1  0
  7 26  1  0
 26 27  1  0
 26 28  1  0
  6 29  1  0
 29 30  2  0
 30  3  1  0
 16 11  1  0
 25 21  1  0
  1 31  1  0
  1 32  1  0
  1 33  1  0
  4 34  1  0
  5 35  1  0
  7 36  1  6
  8 37  1  0
 12 38  1  0
 13 39  1  0
 14 40  1  0
 15 41  1  0
 18 42  1  0
 18 43  1  0
 22 44  1  0
 22 45  1  0
 23 46  1  0
 23 47  1  0
 24 48  1  0
 24 49  1  0
 25 50  1  0
 25 51  1  0
 26 52  1  0
 29 53  1  0
 30 54  1  0
M  END
>  <meeko>  (2) 
{"is_sidechain": [false], "free_energy": -8.094, "intermolecular_energy": -11.662, "internal_energy": -1.838}

$$$$
ligand_72_conformer_3_docked
     RDKit          3D

 54 56  0  0  0  0  0  0  0  0999 V2000
   -0.3580   47.5560   58.5400 C   0  0  0  0  0  0  0  0  0  0  0  0
    0.4910   46.4440   58.2750 O   0  0  0  0  0  0  0  0  0  0  0  0
    0.5240   45.7440   57.0580 C   0  0  0  0  0  0  0  0  0  0  0  0
   -0.6070   45.0850   56.5350 C   0  0  0  0  0  0  0  0  0  0  0  0
   -0.5260   44.4110   55.3110 C   0  0  0  0  0  0  0  0  0  0  0  0
    0.6820   44.3740   54.5940 C   0  0  0  0  0  0  0  0  0  0  0  0
    0.7460   43.6680   53.2520 C   0  0  2  0  0  0  0  0  0  0  0  0
    2.1090   43.7390   52.7080 N   0  0  0  0  0  0  0  0  0  0  0  0
    2.4810   43.0660   51.4930 C   0  0  0  0  0  0  0  0  0  0  0  0
    1.5930   42.5140   50.7850 O   0  0  0  0  0  0  0  0  0  0  0  0
    3.8980   42.9290   51.0800 C   0  0  0  0  0  0  0  0  0  0  0  0
    4.3210   41.6710   50.6050 C   0  0  0  0  0  0  0  0  0  0  0  0
    5.6080   41.4940   50.0970 C   0  0  0  0  0  0  0  0  0  0  0  0
    6.4860   42.5730   50.0310 C   0  0  0  0  0  0  0  0  0  0  0  0
    6.0810   43.8300   50.4810 C   0  0  0  0  0  0  0  0  0  0  0  0
    4.8040   44.0190   51.0320 C   0  0  0  0  0  0  0  0  0  0  0  0
    4.3600   45.6840   51.5570 S   0  0  0  0  0  0  0  0  0  0  0  0
    6.0410   46.3720   51.3130 C   0  0  0  0  0  0  0  0  0  0  0  0
    6.5330   46.9810   52.5940 C   0  0  0  0  0  0  0  0  0  0  0  0
    5.6920   47.4770   53.3940 O   0  0  0  0  0  0  0  0  0  0  0  0
    7.9300   46.9820   52.9400 N   0  0  0  0  0  0  0  0  0  0  0  0
    8.4300   47.5080   54.1960 C   0  0  0  0  0  0  0  0  0  0  0  0
    9.8990   47.1070   54.2540 C   0  0  0  0  0  0  0  0  0  0  0  0
   10.2810   46.7090   52.8310 C   0  0  0  0  0  0  0  0  0  0  0  0
    8.9740   46.4040   52.1160 C   0  0  0  0  0  0  0  0  0  0  0  0
   -0.2620   44.2720   52.2690 C   0  0  0  0  0  0  0  0  0  0  0  0
   -1.5340   43.8010   52.5550 F   0  0  0  0  0  0  0  0  0  0  0  0
   -0.2620   45.6510   52.3830 F   0  0  0  0  0  0  0  0  0  0  0  0
    1.8080   45.0280   55.1240 C   0  0  0  0  0  0  0  0  0  0  0  0
    1.7240   45.7080   56.3440 C   0  0  0  0  0  0  0  0  0  0  0  0
   -0.4595   47.6889   59.6272 H   0  0  0  0  0  0  0  0  0  0  0  0
    0.0787   48.4641   58.0988 H   0  0  0  0  0  0  0  0  0  0  0  0
   -1.3491   47.3740   58.0988 H   0  0  0  0  0  0  0  0  0  0  0  0
   -1.5563   45.1005   57.0906 H   0  0  0  0  0  0  0  0  0  0  0  0
   -1.4156   43.9059   54.9068 H   0  0  0  0  0  0  0  0  0  0  0  0
    0.4810   42.6108   53.4007 H   0  0  0  0  0  0  0  0  0  0  0  0
    2.8640   44.1150   53.3210 H   0  0  0  0  0  0  0  0  0  0  0  0
    3.6272   40.8179   50.6353 H   0  0  0  0  0  0  0  0  0  0  0  0
    5.9296   40.5015   49.7483 H   0  0  0  0  0  0  0  0  0  0  0  0
    7.4985   42.4343   49.6242 H   0  0  0  0  0  0  0  0  0  0  0  0
    6.7708   44.6833   50.4030 H   0  0  0  0  0  0  0  0  0  0  0  0
    6.7241   45.5664   51.0058 H   0  0  0  0  0  0  0  0  0  0  0  0
    6.0063   47.1467   50.5328 H   0  0  0  0  0  0  0  0  0  0  0  0
    8.3299   48.6032   54.2204 H   0  0  0  0  0  0  0  0  0  0  0  0
    7.8668   47.1138   55.0547 H   0  0  0  0  0  0  0  0  0  0  0  0
   10.5137   47.9542   54.5923 H   0  0  0  0  0  0  0  0  0  0  0  0
   10.0645   46.2817   54.9622 H   0  0  0  0  0  0  0  0  0  0  0  0
   10.8064   47.5359   52.3308 H   0  0  0  0  0  0  0  0  0  0  0  0
   10.9567   45.8411   52.8230 H   0  0  0  0  0  0  0  0  0  0  0  0
    8.9691   46.8604   51.1152 H   0  0  0  0  0  0  0  0  0  0  0  0
    8.8299   45.3221   51.9789 H   0  0  0  0  0  0  0  0  0  0  0  0
    0.0234   43.9834   51.2466 H   0  0  0  0  0  0  0  0  0  0  0  0
    2.7615   45.0050   54.5759 H   0  0  0  0  0  0  0  0  0  0  0  0
    2.6117   46.2193   56.7448 H   0  0  0  0  0  0  0  0  0  0  0  0
  1  2  1  0
  2  3  1  0
  3  4  2  0
  4  5  1  0
  5  6  2  0
  6  7  1  0
  7  8  1  0
  8  9  1  0
  9 10  2  0
  9 11  1  0
 11 12  2  0
 12 13  1  0
 13 14  2  0
 14 15  1  0
 15 16  2  0
 16 17  1  0
 17 18  1  0
 18 19  1  0
 19 20  2  0
 19 21  1  0
 21 22  1  0
 22 23  1  0
 23 24  1  0
 24 25  1  0
  7 26  1  0
 26 27  1  0
 26 28  1  0
  6 29  1  0
 29 30  2  0
 30  3  1  0
 16 11  1  0
 25 21  1  0
  1 31  1  0
  1 32  1  0
  1 33  1  0
  4 34  1  0
  5 35  1  0
  7 36  1  1
  8 37  1  0
 12 38  1  0
 13 39  1  0
 14 40  1  0
 15 41  1  0
 18 42  1  0
 18 43  1  0
 22 44  1  0
 22 45  1  0
 23 46  1  0
 23 47  1  0
 24 48  1  0
 24 49  1  0
 25 50  1  0
 25 51  1  0
 26 52  1  0
 29 53  1  0
 30 54  1  0
M  END
>  <meeko>  (3) 
{"is_sidechain": [false], "free_energy": -8.064, "intermolecular_energy": -13.008, "internal_energy": -0.449}

$$$$
ligand_72_conformer_3_docked
     RDKit          3D

 54 56  0  0  0  0  0  0  0  0999 V2000
   -1.1340   43.1300   50.4900 C   0  0  0  0  0  0  0  0  0  0  0  0
    0.2870   43.0500   50.4370 O   0  0  0  0  0  0  0  0  0  0  0  0
    1.1510   43.7470   51.2970 C   0  0  0  0  0  0  0  0  0  0  0  0
    1.9220   44.8450   50.8660 C   0  0  0  0  0  0  0  0  0  0  0  0
    2.7610   45.5140   51.7650 C   0  0  0  0  0  0  0  0  0  0  0  0
    2.8520   45.0960   53.1040 C   0  0  0  0  0  0  0  0  0  0  0  0
    3.7380   45.8510   54.0750 C   0  0  2  0  0  0  0  0  0  0  0  0
    5.1460   45.7380   53.6690 N   0  0  0  0  0  0  0  0  0  0  0  0
    6.0700   46.8300   53.8120 C   0  0  0  0  0  0  0  0  0  0  0  0
    5.7200   47.8720   54.4330 O   0  0  0  0  0  0  0  0  0  0  0  0
    7.4110   46.8050   53.1790 C   0  0  0  0  0  0  0  0  0  0  0  0
    8.5090   47.2150   53.9600 C   0  0  0  0  0  0  0  0  0  0  0  0
    9.8120   47.1170   53.4710 C   0  0  0  0  0  0  0  0  0  0  0  0
   10.0420   46.5840   52.2040 C   0  0  0  0  0  0  0  0  0  0  0  0
    8.9690   46.1590   51.4210 C   0  0  0  0  0  0  0  0  0  0  0  0
    7.6490   46.2870   51.8810 C   0  0  0  0  0  0  0  0  0  0  0  0
    6.3310   45.6800   50.8120 S   0  0  0  0  0  0  0  0  0  0  0  0
    6.7260   43.9100   51.0750 C   0  0  0  0  0  0  0  0  0  0  0  0
    6.5310   43.1490   49.7960 C   0  0  0  0  0  0  0  0  0  0  0  0
    7.3680   43.3030   48.8630 O   0  0  0  0  0  0  0  0  0  0  0  0
    5.4360   42.2320   49.6240 N   0  0  0  0  0  0  0  0  0  0  0  0
    5.2540   41.4380   48.4240 C   0  0  0  0  0  0  0  0  0  0  0  0
    4.1360   40.4550   48.7470 C   0  0  0  0  0  0  0  0  0  0  0  0
    3.4470   40.9980   49.9950 C   0  0  0  0  0  0  0  0  0  0  0  0
    4.4430   41.9500   50.6420 C   0  0  0  0  0  0  0  0  0  0  0  0
    3.5440   45.3360   55.5050 C   0  0  0  0  0  0  0  0  0  0  0  0
    4.7630   44.9330   56.0270 F   0  0  0  0  0  0  0  0  0  0  0  0
    3.0300   46.3440   56.3020 F   0  0  0  0  0  0  0  0  0  0  0  0
    2.0840   43.9960   53.5260 C   0  0  0  0  0  0  0  0  0  0  0  0
    1.2410   43.3330   52.6290 C   0  0  0  0  0  0  0  0  0  0  0  0
   -1.4613   43.1484   51.5400 H   0  0  0  0  0  0  0  0  0  0  0  0
   -1.4686   44.0484   49.9855 H   0  0  0  0  0  0  0  0  0  0  0  0
   -1.5696   42.2550   49.9855 H   0  0  0  0  0  0  0  0  0  0  0  0
    1.8643   45.1777   49.8191 H   0  0  0  0  0  0  0  0  0  0  0  0
    3.3541   46.3741   51.4207 H   0  0  0  0  0  0  0  0  0  0  0  0
    3.4503   46.9125   54.0558 H   0  0  0  0  0  0  0  0  0  0  0  0
    5.4240   44.9240   53.0810 H   0  0  0  0  0  0  0  0  0  0  0  0
    8.3369   47.6179   54.9690 H   0  0  0  0  0  0  0  0  0  0  0  0
   10.6575   47.4603   54.0853 H   0  0  0  0  0  0  0  0  0  0  0  0
   11.0698   46.4985   51.8215 H   0  0  0  0  0  0  0  0  0  0  0  0
    9.1593   45.7183   50.4313 H   0  0  0  0  0  0  0  0  0  0  0  0
    7.7722   43.8140   51.4009 H   0  0  0  0  0  0  0  0  0  0  0  0
    6.0578   43.5000   51.8466 H   0  0  0  0  0  0  0  0  0  0  0  0
    4.9675   42.0806   47.5785 H   0  0  0  0  0  0  0  0  0  0  0  0
    6.1802   40.9195   48.1354 H   0  0  0  0  0  0  0  0  0  0  0  0
    3.4234   40.3983   47.9109 H   0  0  0  0  0  0  0  0  0  0  0  0
    4.5267   39.4400   48.9116 H   0  0  0  0  0  0  0  0  0  0  0  0
    2.5271   41.5353   49.7208 H   0  0  0  0  0  0  0  0  0  0  0  0
    3.1588   40.1881   50.6813 H   0  0  0  0  0  0  0  0  0  0  0  0
    3.9400   42.8771   50.9541 H   0  0  0  0  0  0  0  0  0  0  0  0
    4.8982   41.5106   51.5418 H   0  0  0  0  0  0  0  0  0  0  0  0
    2.8464   44.4858   55.4839 H   0  0  0  0  0  0  0  0  0  0  0  0
    2.1470   43.6546   54.5698 H   0  0  0  0  0  0  0  0  0  0  0  0
    0.6427   42.4772   52.9749 H   0  0  0  0  0  0  0  0  0  0  0  0
  1  2  1  0
  2  3  1  0
  3  4  2  0
  4  5  1  0
  5  6  2  0
  6  7  1  0
  7  8  1  0
  8  9  1  0
  9 10  2  0
  9 11  1  0
 11 12  2  0
 12 13  1  0
 13 14  2  0
 14 15  1  0
 15 16  2  0
 16 17  1  0
 17 18  1  0
 18 19  1  0
 19 20  2  0
 19 21  1  0
 21 22  1  0
 22 23  1  0
 23 24  1  0
 24 25  1  0
  7 26  1  0
 26 27  1  0
 26 28  1  0
  6 29  1  0
 29 30  2  0
 30  3  1  0
 16 11  1  0
 25 21  1  0
  1 31  1  0
  1 32  1  0
  1 33  1  0
  4 34  1  0
  5 35  1  0
  7 36  1  1
  8 37  1  0
 12 38  1  0
 13 39  1  0
 14 40  1  0
 15 41  1  0
 18 42  1  0
 18 43  1  0
 22 44  1  0
 22 45  1  0
 23 46  1  0
 23 47  1  0
 24 48  1  0
 24 49  1  0
 25 50  1  0
 25 51  1  0
 26 52  1  0
 29 53  1  0
 30 54  1  0
M  END
>  <meeko>  (4) 
{"is_sidechain": [false], "free_energy": -7.974, "intermolecular_energy": -11.955, "internal_energy": -1.369}

$$$$
ligand_72_conformer_3_docked
     RDKit          3D

 54 56  0  0  0  0  0  0  0  0999 V2000
   -1.5950   43.9490   55.4340 C   0  0  0  0  0  0  0  0  0  0  0  0
   -0.5480   43.5830   54.5400 O   0  0  0  0  0  0  0  0  0  0  0  0
    0.5130   44.4280   54.1760 C   0  0  0  0  0  0  0  0  0  0  0  0
    1.5550   44.7580   55.0650 C   0  0  0  0  0  0  0  0  0  0  0  0
    2.5960   45.5960   54.6510 C   0  0  0  0  0  0  0  0  0  0  0  0
    2.6120   46.1270   53.3500 C   0  0  0  0  0  0  0  0  0  0  0  0
    3.7640   47.0060   52.9030 C   0  0  2  0  0  0  0  0  0  0  0  0
    4.4800   46.3740   51.7860 N   0  0  0  0  0  0  0  0  0  0  0  0
    5.3030   45.2090   51.9700 C   0  0  0  0  0  0  0  0  0  0  0  0
    5.3090   44.6140   53.0840 O   0  0  0  0  0  0  0  0  0  0  0  0
    6.2160   44.7240   50.9080 C   0  0  0  0  0  0  0  0  0  0  0  0
    7.3710   45.4860   50.6420 C   0  0  0  0  0  0  0  0  0  0  0  0
    8.3310   45.0370   49.7330 C   0  0  0  0  0  0  0  0  0  0  0  0
    8.1670   43.8090   49.0960 C   0  0  0  0  0  0  0  0  0  0  0  0
    7.0380   43.0320   49.3580 C   0  0  0  0  0  0  0  0  0  0  0  0
    6.0430   43.4860   50.2380 C   0  0  0  0  0  0  0  0  0  0  0  0
    4.6360   42.3990   50.5380 S   0  0  0  0  0  0  0  0  0  0  0  0
    5.2380   41.0670   49.4330 C   0  0  0  0  0  0  0  0  0  0  0  0
    4.1430   40.6510   48.4940 C   0  0  0  0  0  0  0  0  0  0  0  0
    3.1210   40.0810   48.9660 O   0  0  0  0  0  0  0  0  0  0  0  0
    4.2200   40.9160   47.0820 N   0  0  0  0  0  0  0  0  0  0  0  0
    3.1530   40.5820   46.1570 C   0  0  0  0  0  0  0  0  0  0  0  0
    3.5370   41.2310   44.8340 C   0  0  0  0  0  0  0  0  0  0  0  0
    5.0180   41.5790   44.9510 C   0  0  0  0  0  0  0  0  0  0  0  0
    5.3270   41.6000   46.4410 C   0  0  0  0  0  0  0  0  0  0  0  0
    4.7190   47.2900   54.0680 C   0  0  0  0  0  0  0  0  0  0  0  0
    5.9720   47.6190   53.5770 F   0  0  0  0  0  0  0  0  0  0  0  0
    4.2420   48.3500   54.8180 F   0  0  0  0  0  0  0  0  0  0  0  0
    1.5660   45.7990   52.4690 C   0  0  0  0  0  0  0  0  0  0  0  0
    0.5290   44.9560   52.8820 C   0  0  0  0  0  0  0  0  0  0  0  0
   -1.2501   43.8284   56.4715 H   0  0  0  0  0  0  0  0  0  0  0  0
   -1.8753   44.9984   55.2604 H   0  0  0  0  0  0  0  0  0  0  0  0
   -2.4681   43.3028   55.2604 H   0  0  0  0  0  0  0  0  0  0  0  0
    1.5500   44.3552   56.0886 H   0  0  0  0  0  0  0  0  0  0  0  0
    3.4091   45.8414   55.3500 H   0  0  0  0  0  0  0  0  0  0  0  0
    3.3552   47.9676   52.5593 H   0  0  0  0  0  0  0  0  0  0  0  0
    4.5540   46.9000   50.8890 H   0  0  0  0  0  0  0  0  0  0  0  0
    7.5182   46.4468   51.1570 H   0  0  0  0  0  0  0  0  0  0  0  0
    9.2170   45.6531   49.5198 H   0  0  0  0  0  0  0  0  0  0  0  0
    8.9277   43.4518   48.3863 H   0  0  0  0  0  0  0  0  0  0  0  0
    6.9264   42.0528   48.8695 H   0  0  0  0  0  0  0  0  0  0  0  0
    6.0969   41.4346   48.8523 H   0  0  0  0  0  0  0  0  0  0  0  0
    5.5437   40.2021   50.0401 H   0  0  0  0  0  0  0  0  0  0  0  0
    3.0739   39.4911   46.0404 H   0  0  0  0  0  0  0  0  0  0  0  0
    2.1769   40.9396   46.5166 H   0  0  0  0  0  0  0  0  0  0  0  0
    3.3736   40.5296   44.0025 H   0  0  0  0  0  0  0  0  0  0  0  0
    2.9278   42.1242   44.6314 H   0  0  0  0  0  0  0  0  0  0  0  0
    5.6305   40.8188   44.4442 H   0  0  0  0  0  0  0  0  0  0  0  0
    5.2432   42.5467   44.4789 H   0  0  0  0  0  0  0  0  0  0  0  0
    6.2717   41.0744   46.6441 H   0  0  0  0  0  0  0  0  0  0  0  0
    5.4415   42.6274   46.8171 H   0  0  0  0  0  0  0  0  0  0  0  0
    4.7887   46.3903   54.6970 H   0  0  0  0  0  0  0  0  0  0  0  0
    1.5633   46.2083   51.4480 H   0  0  0  0  0  0  0  0  0  0  0  0
   -0.2817   44.7062   52.1817 H   0  0  0  0  0  0  0  0  0  0  0  0
  1  2  1  0
  2  3  1  0
  3  4  2  0
  4  5  1  0
  5  6  2  0
  6  7  1  0
  7  8  1  0
  8  9  1  0
  9 10  2  0
  9 11  1  0
 11 12  2  0
 12 13  1  0
 13 14  2  0
 14 15  1  0
 15 16  2  0
 16 17  1  0
 17 18  1  0
 18 19  1  0
 19 20  2  0
 19 21  1  0
 21 22  1  0
 22 23  1  0
 23 24  1  0
 24 25  1  0
  7 26  1  0
 26 27  1  0
 26 28  1  0
  6 29  1  0
 29 30  2  0
 30  3  1  0
 16 11  1  0
 25 21  1  0
  1 31  1  0
  1 32  1  0
  1 33  1  0
  4 34  1  0
  5 35  1  0
  7 36  1  6
  8 37  1  0
 12 38  1  0
 13 39  1  0
 14 40  1  0
 15 41  1  0
 18 42  1  0
 18 43  1  0
 22 44  1  0
 22 45  1  0
 23 46  1  0
 23 47  1  0
 24 48  1  0
 24 49  1  0
 25 50  1  0
 25 51  1  0
 26 52  1  0
 29 53  1  0
 30 54  1  0
M  END
>  <meeko>  (5) 
{"is_sidechain": [false], "free_energy": -7.636, "intermolecular_energy": -12.324, "internal_energy": -0.504}

$$$$
