ligand_34_conformer_5_docked
     RDKit          3D

 48 51  0  0  0  0  0  0  0  0999 V2000
   -0.3160   43.9920   54.4030 C   0  0  0  0  0  0  0  0  0  0  0  0
    0.7790   44.9810   54.8530 C   0  0  0  0  0  0  0  0  0  0  0  0
    0.4280   45.5660   56.2370 C   0  0  0  0  0  0  0  0  0  0  0  0
    0.8850   46.0260   53.9150 O   0  0  0  0  0  0  0  0  0  0  0  0
    2.1420   44.2660   54.9160 C   0  0  0  0  0  0  0  0  0  0  0  0
    3.1270   45.1300   55.4350 O   0  0  0  0  0  0  0  0  0  0  0  0
    4.2060   45.0340   54.6150 N   0  0  0  0  0  0  0  0  0  0  0  0
    4.6020   46.1410   53.8000 C   0  0  0  0  0  0  0  0  0  0  0  0
    3.7950   47.0860   53.5920 O   0  0  0  0  0  0  0  0  0  0  0  0
    5.9330   46.1680   53.1680 C   0  0  0  0  0  0  0  0  0  0  0  0
    6.9930   46.8640   53.7870 C   0  0  0  0  0  0  0  0  0  0  0  0
    8.2490   47.0070   53.1270 C   0  0  0  0  0  0  0  0  0  0  0  0
    9.4280   47.7540   53.7160 C   0  0  0  0  0  0  0  0  0  0  0  0
    9.3140   48.2050   55.1650 C   0  0  0  0  0  0  0  0  0  0  0  0
   10.2380   47.0500   54.7960 C   0  0  0  0  0  0  0  0  0  0  0  0
    8.4190   46.4580   51.8850 N   0  0  0  0  0  0  0  0  0  0  0  0
    7.4050   45.7710   51.3110 C   0  0  0  0  0  0  0  0  0  0  0  0
    7.4220   45.1870   50.1410 O   0  0  0  0  0  0  0  0  0  0  0  0
    6.2790   44.5920   49.9270 N   0  0  0  0  0  0  0  0  0  0  0  0
    5.4940   44.8050   51.0120 C   0  0  0  0  0  0  0  0  0  0  0  0
    4.1740   44.1740   51.1790 C   0  0  0  0  0  0  0  0  0  0  0  0
    2.9970   44.8920   50.9070 C   0  0  0  0  0  0  0  0  0  0  0  0
    1.7490   44.2780   51.0580 C   0  0  0  0  0  0  0  0  0  0  0  0
    1.6680   42.9540   51.4980 C   0  0  0  0  0  0  0  0  0  0  0  0
    2.8340   42.2450   51.7980 C   0  0  0  0  0  0  0  0  0  0  0  0
    4.0840   42.8540   51.6490 C   0  0  0  0  0  0  0  0  0  0  0  0
    6.1990   45.5900   51.9180 C   0  0  0  0  0  0  0  0  0  0  0  0
   -0.8008   43.5541   55.2880 H   0  0  0  0  0  0  0  0  0  0  0  0
   -1.0660   44.5248   53.8000 H   0  0  0  0  0  0  0  0  0  0  0  0
    0.1380   43.1918   53.8000 H   0  0  0  0  0  0  0  0  0  0  0  0
    0.8232   44.9074   57.0244 H   0  0  0  0  0  0  0  0  0  0  0  0
    0.8755   46.5659   56.3366 H   0  0  0  0  0  0  0  0  0  0  0  0
   -0.6649   45.6418   56.3366 H   0  0  0  0  0  0  0  0  0  0  0  0
    0.6110   45.6710   53.0280 H   0  0  0  0  0  0  0  0  0  0  0  0
    2.0576   43.3816   55.5646 H   0  0  0  0  0  0  0  0  0  0  0  0
    2.4331   43.9631   53.8994 H   0  0  0  0  0  0  0  0  0  0  0  0
    4.8170   44.1880   54.6780 H   0  0  0  0  0  0  0  0  0  0  0  0
    6.8493   47.2998   54.7867 H   0  0  0  0  0  0  0  0  0  0  0  0
    9.6685   48.2476   52.7629 H   0  0  0  0  0  0  0  0  0  0  0  0
    9.7383   49.1713   55.4754 H   0  0  0  0  0  0  0  0  0  0  0  0
    8.4844   48.3415   55.8743 H   0  0  0  0  0  0  0  0  0  0  0  0
   11.3291   47.1827   54.8398 H   0  0  0  0  0  0  0  0  0  0  0  0
   10.3517   46.0076   55.1284 H   0  0  0  0  0  0  0  0  0  0  0  0
    3.0571   45.9389   50.5747 H   0  0  0  0  0  0  0  0  0  0  0  0
    0.8302   44.8382   50.8301 H   0  0  0  0  0  0  0  0  0  0  0  0
    0.6863   42.4701   51.6081 H   0  0  0  0  0  0  0  0  0  0  0  0
    2.7686   41.2056   52.1521 H   0  0  0  0  0  0  0  0  0  0  0  0
    4.9989   42.2976   51.9006 H   0  0  0  0  0  0  0  0  0  0  0  0
  1  2  1  0
  2  3  1  0
  2  4  1  0
  2  5  1  0
  5  6  1  0
  6  7  1  0
  7  8  1  0
  8  9  2  0
  8 10  1  0
 10 11  2  0
 11 12  1  0
 12 13  1  0
 13 14  1  0
 14 15  1  0
 12 16  2  0
 16 17  1  0
 17 18  1  0
 18 19  1  0
 19 20  2  0
 20 21  1  0
 21 22  2  0
 22 23  1  0
 23 24  2  0
 24 25  1  0
 25 26  2  0
 20 27  1  0
 27 10  1  0
 15 13  1  0
 27 17  2  0
 26 21  1  0
  1 28  1  0
  1 29  1  0
  1 30  1  0
  3 31  1  0
  3 32  1  0
  3 33  1  0
  4 34  1  0
  5 35  1  0
  5 36  1  0
  7 37  1  0
 11 38  1  0
 13 39  1  0
 14 40  1  0
 14 41  1  0
 15 42  1  0
 15 43  1  0
 22 44  1  0
 23 45  1  0
 24 46  1  0
 25 47  1  0
 26 48  1  0
M  END
>  <meeko>  (1) 
{"is_sidechain": [false], "free_energy": -8.553, "intermolecular_energy": -11.803, "internal_energy": -1.903}

$$$$
ligand_34_conformer_5_docked
     RDKit          3D

 48 51  0  0  0  0  0  0  0  0999 V2000
    9.9460   46.8680   52.9540 C   0  0  0  0  0  0  0  0  0  0  0  0
    8.5960   47.4960   53.3560 C   0  0  0  0  0  0  0  0  0  0  0  0
    8.0720   48.4000   52.2210 C   0  0  0  0  0  0  0  0  0  0  0  0
    8.7610   48.2590   54.5270 O   0  0  0  0  0  0  0  0  0  0  0  0
    7.5680   46.3880   53.6590 C   0  0  0  0  0  0  0  0  0  0  0  0
    6.8190   46.7140   54.8070 O   0  0  0  0  0  0  0  0  0  0  0  0
    5.5150   46.4820   54.5040 N   0  0  0  0  0  0  0  0  0  0  0  0
    4.9650   45.1650   54.6140 C   0  0  0  0  0  0  0  0  0  0  0  0
    5.7340   44.1690   54.6810 O   0  0  0  0  0  0  0  0  0  0  0  0
    3.5060   44.9590   54.6100 C   0  0  0  0  0  0  0  0  0  0  0  0
    2.7480   45.2670   55.7590 C   0  0  0  0  0  0  0  0  0  0  0  0
    1.3570   44.9540   55.8140 C   0  0  0  0  0  0  0  0  0  0  0  0
    0.4790   45.2340   57.0170 C   0  0  0  0  0  0  0  0  0  0  0  0
   -0.6100   46.2850   56.8550 C   0  0  0  0  0  0  0  0  0  0  0  0
   -0.9800   44.8080   56.9360 C   0  0  0  0  0  0  0  0  0  0  0  0
    0.7620   44.3540   54.7380 N   0  0  0  0  0  0  0  0  0  0  0  0
    1.4920   44.0870   53.6310 C   0  0  0  0  0  0  0  0  0  0  0  0
    1.0630   43.5300   52.5280 O   0  0  0  0  0  0  0  0  0  0  0  0
    2.0370   43.4580   51.6610 N   0  0  0  0  0  0  0  0  0  0  0  0
    3.1400   43.9960   52.2350 C   0  0  0  0  0  0  0  0  0  0  0  0
    4.4030   44.2010   51.5030 C   0  0  0  0  0  0  0  0  0  0  0  0
    4.8490   45.4970   51.1940 C   0  0  0  0  0  0  0  0  0  0  0  0
    6.0550   45.6800   50.5090 C   0  0  0  0  0  0  0  0  0  0  0  0
    6.8110   44.5730   50.1150 C   0  0  0  0  0  0  0  0  0  0  0  0
    6.3570   43.2810   50.3940 C   0  0  0  0  0  0  0  0  0  0  0  0
    5.1520   43.0930   51.0780 C   0  0  0  0  0  0  0  0  0  0  0  0
    2.8160   44.3920   53.5280 C   0  0  0  0  0  0  0  0  0  0  0  0
   10.5121   46.6047   53.8597 H   0  0  0  0  0  0  0  0  0  0  0  0
    9.7656   45.9614   52.3578 H   0  0  0  0  0  0  0  0  0  0  0  0
   10.5232   47.5900   52.3578 H   0  0  0  0  0  0  0  0  0  0  0  0
    7.5648   49.2750   52.6537 H   0  0  0  0  0  0  0  0  0  0  0  0
    8.9158   48.7352   51.6000 H   0  0  0  0  0  0  0  0  0  0  0  0
    7.3617   47.8344   51.6000 H   0  0  0  0  0  0  0  0  0  0  0  0
    8.2190   49.0870   54.4340 H   0  0  0  0  0  0  0  0  0  0  0  0
    6.8880   46.2799   52.8011 H   0  0  0  0  0  0  0  0  0  0  0  0
    8.1032   45.4438   53.8382 H   0  0  0  0  0  0  0  0  0  0  0  0
    4.8860   47.2940   54.3110 H   0  0  0  0  0  0  0  0  0  0  0  0
    3.2328   45.7521   56.6190 H   0  0  0  0  0  0  0  0  0  0  0  0
    1.2986   45.0649   57.7309 H   0  0  0  0  0  0  0  0  0  0  0  0
   -0.8522   46.9594   57.6896 H   0  0  0  0  0  0  0  0  0  0  0  0
   -0.8064   47.0984   56.1410 H   0  0  0  0  0  0  0  0  0  0  0  0
   -1.4892   44.4166   57.8290 H   0  0  0  0  0  0  0  0  0  0  0  0
   -1.5541   44.1138   56.3047 H   0  0  0  0  0  0  0  0  0  0  0  0
    4.2487   46.3695   51.4913 H   0  0  0  0  0  0  0  0  0  0  0  0
    6.4084   46.6963   50.2804 H   0  0  0  0  0  0  0  0  0  0  0  0
    7.7639   44.7184   49.5850 H   0  0  0  0  0  0  0  0  0  0  0  0
    6.9487   42.4103   50.0749 H   0  0  0  0  0  0  0  0  0  0  0  0
    4.7905   42.0746   51.2833 H   0  0  0  0  0  0  0  0  0  0  0  0
  1  2  1  0
  2  3  1  0
  2  4  1  0
  2  5  1  0
  5  6  1  0
  6  7  1  0
  7  8  1  0
  8  9  2  0
  8 10  1  0
 10 11  2  0
 11 12  1  0
 12 13  1  0
 13 14  1  0
 14 15  1  0
 12 16  2  0
 16 17  1  0
 17 18  1  0
 18 19  1  0
 19 20  2  0
 20 21  1  0
 21 22  2  0
 22 23  1  0
 23 24  2  0
 24 25  1  0
 25 26  2  0
 20 27  1  0
 27 10  1  0
 15 13  1  0
 27 17  2  0
 26 21  1  0
  1 28  1  0
  1 29  1  0
  1 30  1  0
  3 31  1  0
  3 32  1  0
  3 33  1  0
  4 34  1  0
  5 35  1  0
  5 36  1  0
  7 37  1  0
 11 38  1  0
 13 39  1  0
 14 40  1  0
 14 41  1  0
 15 42  1  0
 15 43  1  0
 22 44  1  0
 23 45  1  0
 24 46  1  0
 25 47  1  0
 26 48  1  0
M  END
>  <meeko>  (2) 
{"is_sidechain": [false], "free_energy": -8.415, "intermolecular_energy": -12.457, "internal_energy": -1.057}

$$$$
ligand_34_conformer_5_docked
     RDKit          3D

 48 51  0  0  0  0  0  0  0  0999 V2000
    4.1850   40.6300   48.9130 C   0  0  0  0  0  0  0  0  0  0  0  0
    5.5110   41.4180   48.8640 C   0  0  0  0  0  0  0  0  0  0  0  0
    5.7820   41.9120   47.4280 C   0  0  0  0  0  0  0  0  0  0  0  0
    6.5680   40.5880   49.2840 O   0  0  0  0  0  0  0  0  0  0  0  0
    5.4460   42.6190   49.8280 C   0  0  0  0  0  0  0  0  0  0  0  0
    6.1590   43.7120   49.2990 O   0  0  0  0  0  0  0  0  0  0  0  0
    6.6680   44.3980   50.3560 N   0  0  0  0  0  0  0  0  0  0  0  0
    5.8980   45.4160   51.0020 C   0  0  0  0  0  0  0  0  0  0  0  0
    4.8910   45.9030   50.4220 O   0  0  0  0  0  0  0  0  0  0  0  0
    6.2940   45.9290   52.3260 C   0  0  0  0  0  0  0  0  0  0  0  0
    7.4870   46.6690   52.4670 C   0  0  0  0  0  0  0  0  0  0  0  0
    7.9470   47.0610   53.7580 C   0  0  0  0  0  0  0  0  0  0  0  0
    9.2260   47.8380   53.9950 C   0  0  0  0  0  0  0  0  0  0  0  0
    9.4460   48.4100   55.3890 C   0  0  0  0  0  0  0  0  0  0  0  0
   10.2670   47.2160   54.9160 C   0  0  0  0  0  0  0  0  0  0  0  0
    7.2180   46.7160   54.8630 N   0  0  0  0  0  0  0  0  0  0  0  0
    6.0620   46.0290   54.7150 C   0  0  0  0  0  0  0  0  0  0  0  0
    5.2570   45.6400   55.6700 O   0  0  0  0  0  0  0  0  0  0  0  0
    4.2220   45.0320   55.1560 N   0  0  0  0  0  0  0  0  0  0  0  0
    4.3710   45.0320   53.8090 C   0  0  0  0  0  0  0  0  0  0  0  0
    3.3290   44.5420   52.8900 C   0  0  0  0  0  0  0  0  0  0  0  0
    2.3340   45.4090   52.4060 C   0  0  0  0  0  0  0  0  0  0  0  0
    1.3580   44.9340   51.5240 C   0  0  0  0  0  0  0  0  0  0  0  0
    1.3580   43.5920   51.1350 C   0  0  0  0  0  0  0  0  0  0  0  0
    2.3270   42.7190   51.6360 C   0  0  0  0  0  0  0  0  0  0  0  0
    3.3050   43.1890   52.5180 C   0  0  0  0  0  0  0  0  0  0  0  0
    5.5740   45.6570   53.4990 C   0  0  0  0  0  0  0  0  0  0  0  0
    3.8983   40.4596   49.9612 H   0  0  0  0  0  0  0  0  0  0  0  0
    3.3970   41.2065   48.4064 H   0  0  0  0  0  0  0  0  0  0  0  0
    4.3146   39.6623   48.4064 H   0  0  0  0  0  0  0  0  0  0  0  0
    6.3108   42.8759   47.4655 H   0  0  0  0  0  0  0  0  0  0  0  0
    6.4017   41.1742   46.8973 H   0  0  0  0  0  0  0  0  0  0  0  0
    4.8268   42.0382   46.8973 H   0  0  0  0  0  0  0  0  0  0  0  0
    6.8170   39.9980   48.5230 H   0  0  0  0  0  0  0  0  0  0  0  0
    4.3952   42.9089   49.9756 H   0  0  0  0  0  0  0  0  0  0  0  0
    5.8968   42.3302   50.7889 H   0  0  0  0  0  0  0  0  0  0  0  0
    7.5770   44.0900   50.7710 H   0  0  0  0  0  0  0  0  0  0  0  0
    8.0665   46.9455   51.5739 H   0  0  0  0  0  0  0  0  0  0  0  0
    9.2380   48.2466   52.9738 H   0  0  0  0  0  0  0  0  0  0  0  0
    9.9245   49.3929   55.5111 H   0  0  0  0  0  0  0  0  0  0  0  0
    8.8012   48.6164   56.2560 H   0  0  0  0  0  0  0  0  0  0  0  0
   11.3381   47.3371   54.6967 H   0  0  0  0  0  0  0  0  0  0  0  0
   10.4603   46.2035   55.3001 H   0  0  0  0  0  0  0  0  0  0  0  0
    2.3230   46.4627   52.7214 H   0  0  0  0  0  0  0  0  0  0  0  0
    0.5890   45.6181   51.1359 H   0  0  0  0  0  0  0  0  0  0  0  0
    0.5949   43.2227   50.4341 H   0  0  0  0  0  0  0  0  0  0  0  0
    2.3205   41.6607   51.3362 H   0  0  0  0  0  0  0  0  0  0  0  0
    4.0579   42.4960   52.9216 H   0  0  0  0  0  0  0  0  0  0  0  0
  1  2  1  0
  2  3  1  0
  2  4  1  0
  2  5  1  0
  5  6  1  0
  6  7  1  0
  7  8  1  0
  8  9  2  0
  8 10  1  0
 10 11  2  0
 11 12  1  0
 12 13  1  0
 13 14  1  0
 14 15  1  0
 12 16  2  0
 16 17  1  0
 17 18  1  0
 18 19  1  0
 19 20  2  0
 20 21  1  0
 21 22  2  0
 22 23  1  0
 23 24  2  0
 24 25  1  0
 25 26  2  0
 20 27  1  0
 27 10  1  0
 15 13  1  0
 27 17  2  0
 26 21  1  0
  1 28  1  0
  1 29  1  0
  1 30  1  0
  3 31  1  0
  3 32  1  0
  3 33  1  0
  4 34  1  0
  5 35  1  0
  5 36  1  0
  7 37  1  0
 11 38  1  0
 13 39  1  0
 14 40  1  0
 14 41  1  0
 15 42  1  0
 15 43  1  0
 22 44  1  0
 23 45  1  0
 24 46  1  0
 25 47  1  0
 26 48  1  0
M  END
>  <meeko>  (3) 
{"is_sidechain": [false], "free_energy": -8.21, "intermolecular_energy": -12.149, "internal_energy": -1.083}

$$$$
ligand_34_conformer_5_docked
     RDKit          3D

 48 51  0  0  0  0  0  0  0  0999 V2000
    5.4230   41.2880   48.3460 C   0  0  0  0  0  0  0  0  0  0  0  0
    6.2150   41.7000   49.6030 C   0  0  0  0  0  0  0  0  0  0  0  0
    6.9070   43.0600   49.3720 C   0  0  0  0  0  0  0  0  0  0  0  0
    7.1860   40.7210   49.8910 O   0  0  0  0  0  0  0  0  0  0  0  0
    5.2690   41.7930   50.8160 C   0  0  0  0  0  0  0  0  0  0  0  0
    4.1420   42.5770   50.5010 O   0  0  0  0  0  0  0  0  0  0  0  0
    4.4470   43.8570   50.8390 N   0  0  0  0  0  0  0  0  0  0  0  0
    4.8100   44.1890   52.1830 C   0  0  0  0  0  0  0  0  0  0  0  0
    4.5490   43.3860   53.1180 O   0  0  0  0  0  0  0  0  0  0  0  0
    5.4510   45.4800   52.4900 C   0  0  0  0  0  0  0  0  0  0  0  0
    6.7640   45.7380   52.0420 C   0  0  0  0  0  0  0  0  0  0  0  0
    7.4420   46.9280   52.4380 C   0  0  0  0  0  0  0  0  0  0  0  0
    8.8570   47.2700   52.0170 C   0  0  0  0  0  0  0  0  0  0  0  0
    9.9730   46.9560   53.0040 C   0  0  0  0  0  0  0  0  0  0  0  0
    9.8080   46.1120   51.7450 C   0  0  0  0  0  0  0  0  0  0  0  0
    6.8060   47.8220   53.2560 N   0  0  0  0  0  0  0  0  0  0  0  0
    5.5380   47.5770   53.6590 C   0  0  0  0  0  0  0  0  0  0  0  0
    4.8020   48.3370   54.4280 O   0  0  0  0  0  0  0  0  0  0  0  0
    3.6210   47.8020   54.5790 N   0  0  0  0  0  0  0  0  0  0  0  0
    3.5990   46.6450   53.8730 C   0  0  0  0  0  0  0  0  0  0  0  0
    2.3820   45.8320   53.7090 C   0  0  0  0  0  0  0  0  0  0  0  0
    2.0090   44.8940   54.6880 C   0  0  0  0  0  0  0  0  0  0  0  0
    0.8450   44.1360   54.5270 C   0  0  0  0  0  0  0  0  0  0  0  0
    0.0580   44.2950   53.3830 C   0  0  0  0  0  0  0  0  0  0  0  0
    0.4390   45.2050   52.3930 C   0  0  0  0  0  0  0  0  0  0  0  0
    1.6030   45.9650   52.5500 C   0  0  0  0  0  0  0  0  0  0  0  0
    4.8460   46.4660   53.2830 C   0  0  0  0  0  0  0  0  0  0  0  0
    4.4845   40.7998   48.6476 H   0  0  0  0  0  0  0  0  0  0  0  0
    5.1952   42.1819   47.7468 H   0  0  0  0  0  0  0  0  0  0  0  0
    6.0242   40.5883   47.7468 H   0  0  0  0  0  0  0  0  0  0  0  0
    7.1418   43.5215   50.3425 H   0  0  0  0  0  0  0  0  0  0  0  0
    7.8367   42.9066   48.8044 H   0  0  0  0  0  0  0  0  0  0  0  0
    6.2357   43.7212   48.8044 H   0  0  0  0  0  0  0  0  0  0  0  0
    7.7160   40.5620   49.0650 H   0  0  0  0  0  0  0  0  0  0  0  0
    4.9399   40.7818   51.0973 H   0  0  0  0  0  0  0  0  0  0  0  0
    5.8071   42.2619   51.6530 H   0  0  0  0  0  0  0  0  0  0  0  0
    4.5360   44.5740   50.0830 H   0  0  0  0  0  0  0  0  0  0  0  0
    7.2679   45.0160   51.3827 H   0  0  0  0  0  0  0  0  0  0  0  0
    8.5399   48.1624   51.4575 H   0  0  0  0  0  0  0  0  0  0  0  0
   10.8303   47.6384   53.1003 H   0  0  0  0  0  0  0  0  0  0  0  0
   10.0211   46.7436   54.0822 H   0  0  0  0  0  0  0  0  0  0  0  0
   10.5462   46.1855   50.9328 H   0  0  0  0  0  0  0  0  0  0  0  0
    9.6876   45.0383   51.5382 H   0  0  0  0  0  0  0  0  0  0  0  0
    2.6343   44.7562   55.5825 H   0  0  0  0  0  0  0  0  0  0  0  0
    0.5484   43.4137   55.3017 H   0  0  0  0  0  0  0  0  0  0  0  0
   -0.8616   43.7037   53.2618 H   0  0  0  0  0  0  0  0  0  0  0  0
   -0.1770   45.3238   51.4894 H   0  0  0  0  0  0  0  0  0  0  0  0
    1.9084   46.6692   51.7620 H   0  0  0  0  0  0  0  0  0  0  0  0
  1  2  1  0
  2  3  1  0
  2  4  1  0
  2  5  1  0
  5  6  1  0
  6  7  1  0
  7  8  1  0
  8  9  2  0
  8 10  1  0
 10 11  2  0
 11 12  1  0
 12 13  1  0
 13 14  1  0
 14 15  1  0
 12 16  2  0
 16 17  1  0
 17 18  1  0
 18 19  1  0
 19 20  2  0
 20 21  1  0
 21 22  2  0
 22 23  1  0
 23 24  2  0
 24 25  1  0
 25 26  2  0
 20 27  1  0
 27 10  1  0
 15 13  1  0
 27 17  2  0
 26 21  1  0
  1 28  1  0
  1 29  1  0
  1 30  1  0
  3 31  1  0
  3 32  1  0
  3 33  1  0
  4 34  1  0
  5 35  1  0
  5 36  1  0
  7 37  1  0
 11 38  1  0
 13 39  1  0
 14 40  1  0
 14 41  1  0
 15 42  1  0
 15 43  1  0
 22 44  1  0
 23 45  1  0
 24 46  1  0
 25 47  1  0
 26 48  1  0
M  END
>  <meeko>  (4) 
{"is_sidechain": [false], "free_energy": -8.024, "intermolecular_energy": -12.496, "internal_energy": -0.48}

$$$$
ligand_34_conformer_5_docked
     RDKit          3D

 48 51  0  0  0  0  0  0  0  0999 V2000
    1.6530   46.0570   52.7050 C   0  0  0  0  0  0  0  0  0  0  0  0
    2.4010   45.3740   53.8680 C   0  0  0  0  0  0  0  0  0  0  0  0
    1.5090   45.3420   55.1270 C   0  0  0  0  0  0  0  0  0  0  0  0
    3.5850   46.0820   54.1480 O   0  0  0  0  0  0  0  0  0  0  0  0
    2.7960   43.9380   53.4700 C   0  0  0  0  0  0  0  0  0  0  0  0
    3.0960   43.8750   52.0950 O   0  0  0  0  0  0  0  0  0  0  0  0
    4.4480   43.9580   51.9830 N   0  0  0  0  0  0  0  0  0  0  0  0
    5.0500   44.9510   51.1480 C   0  0  0  0  0  0  0  0  0  0  0  0
    4.3570   45.5420   50.2780 O   0  0  0  0  0  0  0  0  0  0  0  0
    6.4860   45.2630   51.2700 C   0  0  0  0  0  0  0  0  0  0  0  0
    6.9140   46.2770   52.1530 C   0  0  0  0  0  0  0  0  0  0  0  0
    8.2830   46.6760   52.1870 C   0  0  0  0  0  0  0  0  0  0  0  0
    8.8180   47.7680   53.0910 C   0  0  0  0  0  0  0  0  0  0  0  0
    8.5210   47.6490   54.5790 C   0  0  0  0  0  0  0  0  0  0  0  0
    9.9320   47.3960   54.0600 C   0  0  0  0  0  0  0  0  0  0  0  0
    9.1810   46.0620   51.3570 N   0  0  0  0  0  0  0  0  0  0  0  0
    8.7650   45.0730   50.5330 C   0  0  0  0  0  0  0  0  0  0  0  0
    9.5030   44.3920   49.6960 O   0  0  0  0  0  0  0  0  0  0  0  0
    8.7730   43.4960   49.0900 N   0  0  0  0  0  0  0  0  0  0  0  0
    7.5070   43.6080   49.5610 C   0  0  0  0  0  0  0  0  0  0  0  0
    6.4310   42.6710   49.1950 C   0  0  0  0  0  0  0  0  0  0  0  0
    5.7160   41.9770   50.1860 C   0  0  0  0  0  0  0  0  0  0  0  0
    4.6890   41.0990   49.8260 C   0  0  0  0  0  0  0  0  0  0  0  0
    4.3810   40.8950   48.4780 C   0  0  0  0  0  0  0  0  0  0  0  0
    5.1090   41.5590   47.4870 C   0  0  0  0  0  0  0  0  0  0  0  0
    6.1370   42.4390   47.8420 C   0  0  0  0  0  0  0  0  0  0  0  0
    7.4720   44.6450   50.4880 C   0  0  0  0  0  0  0  0  0  0  0  0
    0.8976   46.7467   53.1096 H   0  0  0  0  0  0  0  0  0  0  0  0
    2.3695   46.6190   52.0879 H   0  0  0  0  0  0  0  0  0  0  0  0
    1.1583   45.2925   52.0879 H   0  0  0  0  0  0  0  0  0  0  0  0
    2.1426   45.3647   56.0259 H   0  0  0  0  0  0  0  0  0  0  0  0
    0.8421   46.2168   55.1262 H   0  0  0  0  0  0  0  0  0  0  0  0
    0.9065   44.4217   55.1262 H   0  0  0  0  0  0  0  0  0  0  0  0
    3.9570   46.4120   53.2880 H   0  0  0  0  0  0  0  0  0  0  0  0
    3.6801   43.6317   54.0484 H   0  0  0  0  0  0  0  0  0  0  0  0
    1.9532   43.2639   53.6828 H   0  0  0  0  0  0  0  0  0  0  0  0
    5.0450   43.3710   52.6090 H   0  0  0  0  0  0  0  0  0  0  0  0
    6.1867   46.7632   52.8199 H   0  0  0  0  0  0  0  0  0  0  0  0
    8.6806   48.5493   52.3290 H   0  0  0  0  0  0  0  0  0  0  0  0
    8.3061   48.5509   55.1709 H   0  0  0  0  0  0  0  0  0  0  0  0
    7.8014   47.0796   55.1856 H   0  0  0  0  0  0  0  0  0  0  0  0
   10.7353   48.1154   54.2772 H   0  0  0  0  0  0  0  0  0  0  0  0
   10.6527   46.5685   54.1366 H   0  0  0  0  0  0  0  0  0  0  0  0
    5.9648   42.1248   51.2472 H   0  0  0  0  0  0  0  0  0  0  0  0
    4.1225   40.5679   50.6051 H   0  0  0  0  0  0  0  0  0  0  0  0
    3.5658   40.2120   48.1972 H   0  0  0  0  0  0  0  0  0  0  0  0
    4.8733   41.3894   46.4260 H   0  0  0  0  0  0  0  0  0  0  0  0
    6.7163   42.9504   47.0591 H   0  0  0  0  0  0  0  0  0  0  0  0
  1  2  1  0
  2  3  1  0
  2  4  1  0
  2  5  1  0
  5  6  1  0
  6  7  1  0
  7  8  1  0
  8  9  2  0
  8 10  1  0
 10 11  2  0
 11 12  1  0
 12 13  1  0
 13 14  1  0
 14 15  1  0
 12 16  2  0
 16 17  1  0
 17 18  1  0
 18 19  1  0
 19 20  2  0
 20 21  1  0
 21 22  2  0
 22 23  1  0
 23 24  2  0
 24 25  1  0
 25 26  2  0
 20 27  1  0
 27 10  1  0
 15 13  1  0
 27 17  2  0
 26 21  1  0
  1 28  1  0
  1 29  1  0
  1 30  1  0
  3 31  1  0
  3 32  1  0
  3 33  1  0
  4 34  1  0
  5 35  1  0
  5 36  1  0
  7 37  1  0
 11 38  1  0
 13 39  1  0
 14 40  1  0
 14 41  1  0
 15 42  1  0
 15 43  1  0
 22 44  1  0
 23 45  1  0
 24 46  1  0
 25 47  1  0
 26 48  1  0
M  END
>  <meeko>  (5) 
{"is_sidechain": [false], "free_energy": -7.923, "intermolecular_energy": -11.965, "internal_energy": -0.872}

$$$$
