ligand_70_conformer_4_docked
     RDKit          3D

 51 53  0  0  0  0  0  0  0  0999 V2000
    7.5360   45.1690   49.9910 C   0  0  0  0  0  0  0  0  0  0  0  0
    8.4330   44.1380   49.3860 C   0  0  0  0  0  0  0  0  0  0  0  0
    9.6580   44.1170   49.6950 O   0  0  0  0  0  0  0  0  0  0  0  0
    7.9030   43.1840   48.5090 O   0  0  0  0  0  0  0  0  0  0  0  0
    6.5360   42.7820   48.5470 C   0  0  0  0  0  0  0  0  0  0  0  0
    6.2880   41.9570   49.7780 C   0  0  0  0  0  0  0  0  0  0  0  0
    7.0880   41.0170   50.0410 O   0  0  0  0  0  0  0  0  0  0  0  0
    5.1410   42.1920   50.6260 N   0  0  0  0  0  0  0  0  0  0  0  0
    3.9180   41.3830   50.4540 C   0  0  0  0  0  0  0  0  0  0  0  0
    2.6730   42.2750   50.5320 C   0  0  0  0  0  0  0  0  0  0  0  0
    2.7600   43.1360   51.7040 N   0  0  0  0  0  0  0  0  0  0  0  0
    1.7280   43.7130   52.3020 N   0  0  0  0  0  0  0  0  0  0  0  0
    2.2230   44.4860   53.2940 C   0  0  0  0  0  0  0  0  0  0  0  0
    3.6070   44.3960   53.3010 C   0  0  0  0  0  0  0  0  0  0  0  0
    4.7260   45.2140   54.3820 S   0  0  1  0  0  6  0  0  0  0  0  0
    3.8410   46.4140   55.3600 C   0  0  0  0  0  0  0  0  0  0  0  0
    5.3560   44.2060   55.3010 O   0  0  0  0  0  0  0  0  0  0  0  0
    5.8480   45.9060   53.5210 N   0  0  0  0  0  0  0  0  0  0  0  0
    6.9020   46.6960   54.0820 C   0  0  0  0  0  0  0  0  0  0  0  0
    6.6450   47.7050   54.7970 O   0  0  0  0  0  0  0  0  0  0  0  0
    8.3290   46.3640   53.7450 C   0  0  2  0  0  0  0  0  0  0  0  0
    9.3300   47.4340   54.1970 C   0  0  0  0  0  0  0  0  0  0  0  0
    9.0510   47.2390   52.7110 C   0  0  0  0  0  0  0  0  0  0  0  0
   10.1450   46.5330   51.9070 C   0  0  0  0  0  0  0  0  0  0  0  0
    8.2840   48.3750   52.0140 C   0  0  0  0  0  0  0  0  0  0  0  0
    3.9100   43.5340   52.2710 C   0  0  0  0  0  0  0  0  0  0  0  0
    5.2610   43.0710   51.8080 C   0  0  0  0  0  0  0  0  0  0  0  0
    7.5915   45.1052   51.0877 H   0  0  0  0  0  0  0  0  0  0  0  0
    7.8557   46.1698   49.6653 H   0  0  0  0  0  0  0  0  0  0  0  0
    6.5006   44.9908   49.6653 H   0  0  0  0  0  0  0  0  0  0  0  0
    5.8925   43.6739   48.5681 H   0  0  0  0  0  0  0  0  0  0  0  0
    6.3060   42.1834   47.6533 H   0  0  0  0  0  0  0  0  0  0  0  0
    3.9470   40.8858   49.4732 H   0  0  0  0  0  0  0  0  0  0  0  0
    3.8705   40.6322   51.2565 H   0  0  0  0  0  0  0  0  0  0  0  0
    2.6102   42.8956   49.6259 H   0  0  0  0  0  0  0  0  0  0  0  0
    1.7758   41.6432   50.6092 H   0  0  0  0  0  0  0  0  0  0  0  0
    1.6219   45.0921   53.9877 H   0  0  0  0  0  0  0  0  0  0  0  0
    3.9966   46.2030   56.4283 H   0  0  0  0  0  0  0  0  0  0  0  0
    4.2130   47.4227   55.1275 H   0  0  0  0  0  0  0  0  0  0  0  0
    2.7674   46.3566   55.1275 H   0  0  0  0  0  0  0  0  0  0  0  0
    8.2020   45.2772   53.8579 H   0  0  0  0  0  0  0  0  0  0  0  0
    8.9723   48.3396   54.7088 H   0  0  0  0  0  0  0  0  0  0  0  0
   10.2342   47.4359   54.8234 H   0  0  0  0  0  0  0  0  0  0  0  0
   10.8650   46.0684   52.5968 H   0  0  0  0  0  0  0  0  0  0  0  0
    9.6912   45.7569   51.2731 H   0  0  0  0  0  0  0  0  0  0  0  0
   10.6652   47.2662   51.2731 H   0  0  0  0  0  0  0  0  0  0  0  0
    7.8381   49.0355   52.7722 H   0  0  0  0  0  0  0  0  0  0  0  0
    8.9770   48.9537   51.3856 H   0  0  0  0  0  0  0  0  0  0  0  0
    7.4883   47.9485   51.3856 H   0  0  0  0  0  0  0  0  0  0  0  0
    5.8712   43.9475   51.5445 H   0  0  0  0  0  0  0  0  0  0  0  0
    5.7356   42.5028   52.6216 H   0  0  0  0  0  0  0  0  0  0  0  0
  1  2  1  0
  2  3  2  0
  2  4  1  0
  4  5  1  0
  5  6  1  0
  6  7  2  0
  6  8  1  0
  8  9  1  0
  9 10  1  0
 10 11  1  0
 11 12  1  0
 12 13  2  0
 13 14  1  0
 14 15  1  0
 15 16  1  1
 15 17  2  0
 15 18  2  0
 18 19  1  0
 19 20  2  0
 19 21  1  0
 21 22  1  0
 22 23  1  0
 23 24  1  0
 23 25  1  0
 14 26  2  0
 26 27  1  0
 27  8  1  0
 26 11  1  0
 23 21  1  0
  1 28  1  0
  1 29  1  0
  1 30  1  0
  5 31  1  0
  5 32  1  0
  9 33  1  0
  9 34  1  0
 10 35  1  0
 10 36  1  0
 13 37  1  0
 16 38  1  0
 16 39  1  0
 16 40  1  0
 21 41  1  6
 22 42  1  0
 22 43  1  0
 24 44  1  0
 24 45  1  0
 24 46  1  0
 25 47  1  0
 25 48  1  0
 25 49  1  0
 27 50  1  0
 27 51  1  0
M  END
>  <meeko>  (1) 
{"is_sidechain": [false], "free_energy": -8.686, "intermolecular_energy": -12.24, "internal_energy": -0.787}

$$$$
ligand_70_conformer_4_docked
     RDKit          3D

 51 53  0  0  0  0  0  0  0  0999 V2000
    5.2560   42.4560   44.7050 C   0  0  0  0  0  0  0  0  0  0  0  0
    5.1330   41.8170   46.0510 C   0  0  0  0  0  0  0  0  0  0  0  0
    4.2810   40.9020   46.2320 O   0  0  0  0  0  0  0  0  0  0  0  0
    5.9850   42.2140   47.0890 O   0  0  0  0  0  0  0  0  0  0  0  0
    5.9760   41.5890   48.3700 C   0  0  0  0  0  0  0  0  0  0  0  0
    6.1230   42.6330   49.4400 C   0  0  0  0  0  0  0  0  0  0  0  0
    7.0930   43.4360   49.3640 O   0  0  0  0  0  0  0  0  0  0  0  0
    5.2110   42.6990   50.5600 N   0  0  0  0  0  0  0  0  0  0  0  0
    4.3100   41.5660   50.8460 C   0  0  0  0  0  0  0  0  0  0  0  0
    2.9060   42.0760   51.1950 C   0  0  0  0  0  0  0  0  0  0  0  0
    3.0020   43.1370   52.1890 N   0  0  0  0  0  0  0  0  0  0  0  0
    2.0240   43.5100   53.0010 N   0  0  0  0  0  0  0  0  0  0  0  0
    2.4770   44.5660   53.7130 C   0  0  0  0  0  0  0  0  0  0  0  0
    3.7720   44.8660   53.3170 C   0  0  0  0  0  0  0  0  0  0  0  0
    4.8030   46.1540   53.9240 S   0  0  1  0  0  6  0  0  0  0  0  0
    4.5640   47.6230   52.9410 C   0  0  0  0  0  0  0  0  0  0  0  0
    4.4360   46.4560   55.3490 O   0  0  0  0  0  0  0  0  0  0  0  0
    6.3010   45.6750   53.8630 N   0  0  0  0  0  0  0  0  0  0  0  0
    7.4120   46.4950   54.2440 C   0  0  0  0  0  0  0  0  0  0  0  0
    7.2410   47.5260   54.9520 O   0  0  0  0  0  0  0  0  0  0  0  0
    8.7830   46.1630   53.7240 C   0  0  2  0  0  0  0  0  0  0  0  0
    9.7940   47.3040   53.8920 C   0  0  0  0  0  0  0  0  0  0  0  0
    9.2970   46.9320   52.4990 C   0  0  0  0  0  0  0  0  0  0  0  0
   10.2840   46.1670   51.6150 C   0  0  0  0  0  0  0  0  0  0  0  0
    8.3830   47.9580   51.8110 C   0  0  0  0  0  0  0  0  0  0  0  0
    4.0670   43.9400   52.3430 C   0  0  0  0  0  0  0  0  0  0  0  0
    5.3350   43.7890   51.5520 C   0  0  0  0  0  0  0  0  0  0  0  0
    5.4627   43.5296   44.8263 H   0  0  0  0  0  0  0  0  0  0  0  0
    6.0799   41.9845   44.1492 H   0  0  0  0  0  0  0  0  0  0  0  0
    4.3160   42.3241   44.1492 H   0  0  0  0  0  0  0  0  0  0  0  0
    5.0256   41.0530   48.5094 H   0  0  0  0  0  0  0  0  0  0  0  0
    6.8124   40.8776   48.4357 H   0  0  0  0  0  0  0  0  0  0  0  0
    4.2503   40.9173   49.9596 H   0  0  0  0  0  0  0  0  0  0  0  0
    4.7076   41.0003   51.7015 H   0  0  0  0  0  0  0  0  0  0  0  0
    2.4232   42.4677   50.2875 H   0  0  0  0  0  0  0  0  0  0  0  0
    2.3084   41.2475   51.6030 H   0  0  0  0  0  0  0  0  0  0  0  0
    1.9076   45.1034   54.4857 H   0  0  0  0  0  0  0  0  0  0  0  0
    4.4231   48.4891   53.6043 H   0  0  0  0  0  0  0  0  0  0  0  0
    5.4472   47.7871   52.3062 H   0  0  0  0  0  0  0  0  0  0  0  0
    3.6743   47.4987   52.3062 H   0  0  0  0  0  0  0  0  0  0  0  0
    8.7231   45.0935   53.9740 H   0  0  0  0  0  0  0  0  0  0  0  0
    9.4803   48.2527   54.3520 H   0  0  0  0  0  0  0  0  0  0  0  0
   10.7833   47.4017   54.3630 H   0  0  0  0  0  0  0  0  0  0  0  0
   10.9941   45.6166   52.2496 H   0  0  0  0  0  0  0  0  0  0  0  0
    9.7335   45.4573   50.9799 H   0  0  0  0  0  0  0  0  0  0  0  0
   10.8339   46.8771   50.9799 H   0  0  0  0  0  0  0  0  0  0  0  0
    7.8561   48.5495   52.5742 H   0  0  0  0  0  0  0  0  0  0  0  0
    8.9900   48.6269   51.1832 H   0  0  0  0  0  0  0  0  0  0  0  0
    7.6487   47.4320   51.1832 H   0  0  0  0  0  0  0  0  0  0  0  0
    5.5462   44.7320   51.0265 H   0  0  0  0  0  0  0  0  0  0  0  0
    6.1540   43.5432   52.2440 H   0  0  0  0  0  0  0  0  0  0  0  0
  1  2  1  0
  2  3  2  0
  2  4  1  0
  4  5  1  0
  5  6  1  0
  6  7  2  0
  6  8  1  0
  8  9  1  0
  9 10  1  0
 10 11  1  0
 11 12  1  0
 12 13  2  0
 13 14  1  0
 14 15  1  0
 15 16  1  6
 15 17  2  0
 15 18  2  0
 18 19  1  0
 19 20  2  0
 19 21  1  0
 21 22  1  0
 22 23  1  0
 23 24  1  0
 23 25  1  0
 14 26  2  0
 26 27  1  0
 27  8  1  0
 26 11  1  0
 23 21  1  0
  1 28  1  0
  1 29  1  0
  1 30  1  0
  5 31  1  0
  5 32  1  0
  9 33  1  0
  9 34  1  0
 10 35  1  0
 10 36  1  0
 13 37  1  0
 16 38  1  0
 16 39  1  0
 16 40  1  0
 21 41  1  6
 22 42  1  0
 22 43  1  0
 24 44  1  0
 24 45  1  0
 24 46  1  0
 25 47  1  0
 25 48  1  0
 25 49  1  0
 27 50  1  0
 27 51  1  0
M  END
>  <meeko>  (2) 
{"is_sidechain": [false], "free_energy": -8.627, "intermolecular_energy": -12.604, "internal_energy": -0.34}

$$$$
ligand_70_conformer_4_docked
     RDKit          3D

 51 53  0  0  0  0  0  0  0  0999 V2000
   -3.1310   43.1330   58.1170 C   0  0  0  0  0  0  0  0  0  0  0  0
   -2.3040   43.6110   56.9660 C   0  0  0  0  0  0  0  0  0  0  0  0
   -2.5670   43.2060   55.7980 O   0  0  0  0  0  0  0  0  0  0  0  0
   -1.2690   44.5270   57.1870 O   0  0  0  0  0  0  0  0  0  0  0  0
   -0.8640   45.4790   56.2060 C   0  0  0  0  0  0  0  0  0  0  0  0
    0.6150   45.3610   55.9720 C   0  0  0  0  0  0  0  0  0  0  0  0
    1.3990   45.8090   56.8520 O   0  0  0  0  0  0  0  0  0  0  0  0
    1.1430   44.7920   54.7510 N   0  0  0  0  0  0  0  0  0  0  0  0
    0.3170   43.8670   53.9510 C   0  0  0  0  0  0  0  0  0  0  0  0
    1.1590   42.6780   53.4720 C   0  0  0  0  0  0  0  0  0  0  0  0
    2.4020   43.1620   52.8870 N   0  0  0  0  0  0  0  0  0  0  0  0
    3.1530   42.4860   52.0300 N   0  0  0  0  0  0  0  0  0  0  0  0
    4.2500   43.2350   51.7820 C   0  0  0  0  0  0  0  0  0  0  0  0
    4.1840   44.4070   52.5220 C   0  0  0  0  0  0  0  0  0  0  0  0
    5.3620   45.7100   52.5680 S   0  0  1  0  0  6  0  0  0  0  0  0
    6.4330   45.5960   51.1470 C   0  0  0  0  0  0  0  0  0  0  0  0
    4.6460   47.0300   52.5340 O   0  0  0  0  0  0  0  0  0  0  0  0
    6.1870   45.5990   53.9040 N   0  0  0  0  0  0  0  0  0  0  0  0
    7.2620   46.4810   54.2470 C   0  0  0  0  0  0  0  0  0  0  0  0
    7.0450   47.5470   54.8880 O   0  0  0  0  0  0  0  0  0  0  0  0
    8.6510   46.1690   53.7650 C   0  0  2  0  0  0  0  0  0  0  0  0
    9.6830   47.2420   54.1350 C   0  0  0  0  0  0  0  0  0  0  0  0
    9.2600   47.0680   52.6800 C   0  0  0  0  0  0  0  0  0  0  0  0
   10.2750   46.3870   51.7600 C   0  0  0  0  0  0  0  0  0  0  0  0
    8.4190   48.2070   52.0820 C   0  0  0  0  0  0  0  0  0  0  0  0
    2.9980   44.3190   53.2160 C   0  0  0  0  0  0  0  0  0  0  0  0
    2.4070   45.3040   54.1820 C   0  0  0  0  0  0  0  0  0  0  0  0
   -2.6428   43.4152   59.0615 H   0  0  0  0  0  0  0  0  0  0  0  0
   -4.1287   43.5937   58.0680 H   0  0  0  0  0  0  0  0  0  0  0  0
   -3.2298   42.0385   58.0680 H   0  0  0  0  0  0  0  0  0  0  0  0
   -1.4003   45.2863   55.2651 H   0  0  0  0  0  0  0  0  0  0  0  0
   -1.0985   46.4932   56.5616 H   0  0  0  0  0  0  0  0  0  0  0  0
   -0.5147   43.4970   54.5686 H   0  0  0  0  0  0  0  0  0  0  0  0
   -0.0738   44.4043   53.0743 H   0  0  0  0  0  0  0  0  0  0  0  0
    1.3872   42.0236   54.3262 H   0  0  0  0  0  0  0  0  0  0  0  0
    0.5952   42.1133   52.7149 H   0  0  0  0  0  0  0  0  0  0  0  0
    5.0677   42.9588   51.1000 H   0  0  0  0  0  0  0  0  0  0  0  0
    7.4751   45.4851   51.4812 H   0  0  0  0  0  0  0  0  0  0  0  0
    6.1472   44.7232   50.5416 H   0  0  0  0  0  0  0  0  0  0  0  0
    6.3374   46.5094   50.5416 H   0  0  0  0  0  0  0  0  0  0  0  0
    8.5449   45.0793   53.8708 H   0  0  0  0  0  0  0  0  0  0  0  0
    9.3698   48.1355   54.6951 H   0  0  0  0  0  0  0  0  0  0  0  0
   10.6446   47.2430   54.6692 H   0  0  0  0  0  0  0  0  0  0  0  0
   11.0362   45.8763   52.3681 H   0  0  0  0  0  0  0  0  0  0  0  0
    9.7589   45.6517   51.1252 H   0  0  0  0  0  0  0  0  0  0  0  0
   10.7597   47.1434   51.1252 H   0  0  0  0  0  0  0  0  0  0  0  0
    7.9787   48.8033   52.8947 H   0  0  0  0  0  0  0  0  0  0  0  0
    9.0607   48.8499   51.4617 H   0  0  0  0  0  0  0  0  0  0  0  0
    7.6157   47.7829   51.4617 H   0  0  0  0  0  0  0  0  0  0  0  0
    3.1230   45.4821   54.9978 H   0  0  0  0  0  0  0  0  0  0  0  0
    2.1962   46.2401   53.6442 H   0  0  0  0  0  0  0  0  0  0  0  0
  1  2  1  0
  2  3  2  0
  2  4  1  0
  4  5  1  0
  5  6  1  0
  6  7  2  0
  6  8  1  0
  8  9  1  0
  9 10  1  0
 10 11  1  0
 11 12  1  0
 12 13  2  0
 13 14  1  0
 14 15  1  0
 15 16  1  6
 15 17  2  0
 15 18  2  0
 18 19  1  0
 19 20  2  0
 19 21  1  0
 21 22  1  0
 22 23  1  0
 23 24  1  0
 23 25  1  0
 14 26  2  0
 26 27  1  0
 27  8  1  0
 26 11  1  0
 23 21  1  0
  1 28  1  0
  1 29  1  0
  1 30  1  0
  5 31  1  0
  5 32  1  0
  9 33  1  0
  9 34  1  0
 10 35  1  0
 10 36  1  0
 13 37  1  0
 16 38  1  0
 16 39  1  0
 16 40  1  0
 21 41  1  6
 22 42  1  0
 22 43  1  0
 24 44  1  0
 24 45  1  0
 24 46  1  0
 25 47  1  0
 25 48  1  0
 25 49  1  0
 27 50  1  0
 27 51  1  0
M  END
>  <meeko>  (3) 
{"is_sidechain": [false], "free_energy": -8.537, "intermolecular_energy": -12.432, "internal_energy": -0.387}

$$$$
ligand_70_conformer_4_docked
     RDKit          3D

 51 53  0  0  0  0  0  0  0  0999 V2000
   -1.3540   47.6280   57.8450 C   0  0  0  0  0  0  0  0  0  0  0  0
   -0.0280   47.1920   58.3810 C   0  0  0  0  0  0  0  0  0  0  0  0
    0.5620   47.9040   59.2420 O   0  0  0  0  0  0  0  0  0  0  0  0
    0.5320   45.9830   57.9510 O   0  0  0  0  0  0  0  0  0  0  0  0
    1.2310   45.8580   56.7150 C   0  0  0  0  0  0  0  0  0  0  0  0
    0.4680   44.9480   55.7950 C   0  0  0  0  0  0  0  0  0  0  0  0
   -0.6920   44.5860   56.1360 O   0  0  0  0  0  0  0  0  0  0  0  0
    1.0510   44.4530   54.5670 N   0  0  0  0  0  0  0  0  0  0  0  0
    0.2950   43.5100   53.7200 C   0  0  0  0  0  0  0  0  0  0  0  0
    1.2140   42.3880   53.2200 C   0  0  0  0  0  0  0  0  0  0  0  0
    2.4370   42.9630   52.6760 N   0  0  0  0  0  0  0  0  0  0  0  0
    3.2420   42.3610   51.8120 N   0  0  0  0  0  0  0  0  0  0  0  0
    4.2970   43.1810   51.6120 C   0  0  0  0  0  0  0  0  0  0  0  0
    4.1480   44.3210   52.3880 C   0  0  0  0  0  0  0  0  0  0  0  0
    5.2480   45.6880   52.5010 S   0  0  1  0  0  6  0  0  0  0  0  0
    6.3450   45.6880   51.0960 C   0  0  0  0  0  0  0  0  0  0  0  0
    4.4560   46.9640   52.5010 O   0  0  0  0  0  0  0  0  0  0  0  0
    6.0570   45.5770   53.8470 N   0  0  0  0  0  0  0  0  0  0  0  0
    7.0720   46.5070   54.2390 C   0  0  0  0  0  0  0  0  0  0  0  0
    6.7730   47.5800   54.8330 O   0  0  0  0  0  0  0  0  0  0  0  0
    8.5030   46.2340   53.8650 C   0  0  2  0  0  0  0  0  0  0  0  0
    9.4720   47.3400   54.3030 C   0  0  0  0  0  0  0  0  0  0  0  0
    9.1640   47.1460   52.8220 C   0  0  0  0  0  0  0  0  0  0  0  0
   10.2650   46.4900   51.9860 C   0  0  0  0  0  0  0  0  0  0  0  0
    8.3370   48.2550   52.1540 C   0  0  0  0  0  0  0  0  0  0  0  0
    2.9570   44.1410   53.0550 C   0  0  0  0  0  0  0  0  0  0  0  0
    2.2920   45.0570   54.0410 C   0  0  0  0  0  0  0  0  0  0  0  0
   -2.0323   47.8510   58.6817 H   0  0  0  0  0  0  0  0  0  0  0  0
   -1.2220   48.5301   57.2295 H   0  0  0  0  0  0  0  0  0  0  0  0
   -1.7831   46.8236   57.2295 H   0  0  0  0  0  0  0  0  0  0  0  0
    1.3313   46.8494   56.2491 H   0  0  0  0  0  0  0  0  0  0  0  0
    2.2297   45.4361   56.9009 H   0  0  0  0  0  0  0  0  0  0  0  0
   -0.5254   43.0722   54.3076 H   0  0  0  0  0  0  0  0  0  0  0  0
   -0.1099   44.0533   52.8535 H   0  0  0  0  0  0  0  0  0  0  0  0
    1.4646   41.7198   54.0571 H   0  0  0  0  0  0  0  0  0  0  0  0
    0.6982   41.8167   52.4341 H   0  0  0  0  0  0  0  0  0  0  0  0
    5.1424   42.9764   50.9386 H   0  0  0  0  0  0  0  0  0  0  0  0
    6.5706   44.6509   50.8070 H   0  0  0  0  0  0  0  0  0  0  0  0
    5.8627   46.2065   50.2543 H   0  0  0  0  0  0  0  0  0  0  0  0
    7.2786   46.2065   51.3597 H   0  0  0  0  0  0  0  0  0  0  0  0
    8.4222   45.1421   53.9710 H   0  0  0  0  0  0  0  0  0  0  0  0
    9.0913   48.2262   54.8318 H   0  0  0  0  0  0  0  0  0  0  0  0
   10.3906   47.3730   54.9072 H   0  0  0  0  0  0  0  0  0  0  0  0
   11.0156   46.0428   52.6543 H   0  0  0  0  0  0  0  0  0  0  0  0
    9.8257   45.7062   51.3514 H   0  0  0  0  0  0  0  0  0  0  0  0
   10.7452   47.2494   51.3514 H   0  0  0  0  0  0  0  0  0  0  0  0
    7.8700   48.8812   52.9285 H   0  0  0  0  0  0  0  0  0  0  0  0
    8.9944   48.8759   51.5276 H   0  0  0  0  0  0  0  0  0  0  0  0
    7.5544   47.8020   51.5276 H   0  0  0  0  0  0  0  0  0  0  0  0
    2.9815   45.2487   54.8764 H   0  0  0  0  0  0  0  0  0  0  0  0
    2.0365   45.9973   53.5305 H   0  0  0  0  0  0  0  0  0  0  0  0
  1  2  1  0
  2  3  2  0
  2  4  1  0
  4  5  1  0
  5  6  1  0
  6  7  2  0
  6  8  1  0
  8  9  1  0
  9 10  1  0
 10 11  1  0
 11 12  1  0
 12 13  2  0
 13 14  1  0
 14 15  1  0
 15 16  1  6
 15 17  2  0
 15 18  2  0
 18 19  1  0
 19 20  2  0
 19 21  1  0
 21 22  1  0
 22 23  1  0
 23 24  1  0
 23 25  1  0
 14 26  2  0
 26 27  1  0
 27  8  1  0
 26 11  1  0
 23 21  1  0
  1 28  1  0
  1 29  1  0
  1 30  1  0
  5 31  1  0
  5 32  1  0
  9 33  1  0
  9 34  1  0
 10 35  1  0
 10 36  1  0
 13 37  1  0
 16 38  1  0
 16 39  1  0
 16 40  1  0
 21 41  1  6
 22 42  1  0
 22 43  1  0
 24 44  1  0
 24 45  1  0
 24 46  1  0
 25 47  1  0
 25 48  1  0
 25 49  1  0
 27 50  1  0
 27 51  1  0
M  END
>  <meeko>  (4) 
{"is_sidechain": [false], "free_energy": -8.456, "intermolecular_energy": -12.295, "internal_energy": -0.409}

$$$$
ligand_70_conformer_4_docked
     RDKit          3D

 51 53  0  0  0  0  0  0  0  0999 V2000
    6.4590   43.6180   49.9520 C   0  0  0  0  0  0  0  0  0  0  0  0
    6.0570   42.1790   49.8800 C   0  0  0  0  0  0  0  0  0  0  0  0
    6.9140   41.2790   50.1070 O   0  0  0  0  0  0  0  0  0  0  0  0
    4.7290   41.8420   49.5940 O   0  0  0  0  0  0  0  0  0  0  0  0
    3.8540   41.2780   50.5670 C   0  0  0  0  0  0  0  0  0  0  0  0
    2.7590   42.2570   50.8870 C   0  0  0  0  0  0  0  0  0  0  0  0
    1.9250   42.5390   49.9840 O   0  0  0  0  0  0  0  0  0  0  0  0
    2.6770   42.9020   52.1790 N   0  0  0  0  0  0  0  0  0  0  0  0
    1.8670   42.2980   53.2550 C   0  0  0  0  0  0  0  0  0  0  0  0
    1.0570   43.3780   53.9830 C   0  0  0  0  0  0  0  0  0  0  0  0
    1.9280   44.4930   54.3310 N   0  0  0  0  0  0  0  0  0  0  0  0
    1.6880   45.3760   55.2880 N   0  0  0  0  0  0  0  0  0  0  0  0
    2.6830   46.2890   55.2480 C   0  0  0  0  0  0  0  0  0  0  0  0
    3.5600   45.9690   54.2220 C   0  0  0  0  0  0  0  0  0  0  0  0
    5.0090   46.8410   53.7440 S   0  0  1  0  0  6  0  0  0  0  0  0
    5.3430   46.5430   52.0180 C   0  0  0  0  0  0  0  0  0  0  0  0
    4.7940   48.3140   53.9510 O   0  0  0  0  0  0  0  0  0  0  0  0
    6.2100   46.3590   54.6400 N   0  0  0  0  0  0  0  0  0  0  0  0
    7.5520   46.8360   54.4910 C   0  0  0  0  0  0  0  0  0  0  0  0
    7.9240   47.9070   55.0470 O   0  0  0  0  0  0  0  0  0  0  0  0
    8.5000   46.0920   53.5930 C   0  0  2  0  0  0  0  0  0  0  0  0
    9.8870   46.7390   53.4960 C   0  0  0  0  0  0  0  0  0  0  0  0
    8.9510   46.7730   52.2930 C   0  0  0  0  0  0  0  0  0  0  0  0
    9.2980   45.8240   51.1440 C   0  0  0  0  0  0  0  0  0  0  0  0
    8.3780   48.1500   51.9230 C   0  0  0  0  0  0  0  0  0  0  0  0
    3.0420   44.8250   53.6590 C   0  0  0  0  0  0  0  0  0  0  0  0
    3.5740   44.0310   52.5010 C   0  0  0  0  0  0  0  0  0  0  0  0
    6.5441   43.9227   51.0055 H   0  0  0  0  0  0  0  0  0  0  0  0
    7.4293   43.7531   49.4517 H   0  0  0  0  0  0  0  0  0  0  0  0
    5.6992   44.2364   49.4517 H   0  0  0  0  0  0  0  0  0  0  0  0
    3.4128   40.3520   50.1698 H   0  0  0  0  0  0  0  0  0  0  0  0
    4.4214   41.0521   51.4819 H   0  0  0  0  0  0  0  0  0  0  0  0
    1.1778   41.5597   52.8193 H   0  0  0  0  0  0  0  0  0  0  0  0
    2.5383   41.8081   53.9757 H   0  0  0  0  0  0  0  0  0  0  0  0
    0.2502   43.7352   53.3261 H   0  0  0  0  0  0  0  0  0  0  0  0
    0.6246   42.9529   54.9008 H   0  0  0  0  0  0  0  0  0  0  0  0
    2.7822   47.1514   55.9235 H   0  0  0  0  0  0  0  0  0  0  0  0
    6.1608   45.8134   51.9234 H   0  0  0  0  0  0  0  0  0  0  0  0
    4.4392   46.1457   51.5329 H   0  0  0  0  0  0  0  0  0  0  0  0
    5.6351   47.4861   51.5329 H   0  0  0  0  0  0  0  0  0  0  0  0
    8.0858   45.0988   53.8211 H   0  0  0  0  0  0  0  0  0  0  0  0
   10.1016   47.6640   54.0512 H   0  0  0  0  0  0  0  0  0  0  0  0
   10.9176   46.3953   53.6682 H   0  0  0  0  0  0  0  0  0  0  0  0
    9.6486   44.8652   51.5535 H   0  0  0  0  0  0  0  0  0  0  0  0
    8.4039   45.6539   50.5262 H   0  0  0  0  0  0  0  0  0  0  0  0
   10.0910   46.2707   50.5262 H   0  0  0  0  0  0  0  0  0  0  0  0
    8.1453   48.7091   52.8413 H   0  0  0  0  0  0  0  0  0  0  0  0
    9.1185   48.7084   51.3314 H   0  0  0  0  0  0  0  0  0  0  0  0
    7.4600   48.0182   51.3314 H   0  0  0  0  0  0  0  0  0  0  0  0
    3.6566   44.6873   51.6221 H   0  0  0  0  0  0  0  0  0  0  0  0
    4.5606   43.6288   52.7745 H   0  0  0  0  0  0  0  0  0  0  0  0
  1  2  1  0
  2  3  2  0
  2  4  1  0
  4  5  1  0
  5  6  1  0
  6  7  2  0
  6  8  1  0
  8  9  1  0
  9 10  1  0
 10 11  1  0
 11 12  1  0
 12 13  2  0
 13 14  1  0
 14 15  1  0
 15 16  1  6
 15 17  2  0
 15 18  2  0
 18 19  1  0
 19 20  2  0
 19 21  1  0
 21 22  1  0
 22 23  1  0
 23 24  1  0
 23 25  1  0
 14 26  2  0
 26 27  1  0
 27  8  1  0
 26 11  1  0
 23 21  1  0
  1 28  1  0
  1 29  1  0
  1 30  1  0
  5 31  1  0
  5 32  1  0
  9 33  1  0
  9 34  1  0
 10 35  1  0
 10 36  1  0
 13 37  1  0
 16 38  1  0
 16 39  1  0
 16 40  1  0
 21 41  1  6
 22 42  1  0
 22 43  1  0
 24 44  1  0
 24 45  1  0
 24 46  1  0
 25 47  1  0
 25 48  1  0
 25 49  1  0
 27 50  1  0
 27 51  1  0
M  END
>  <meeko>  (5) 
{"is_sidechain": [false], "free_energy": -8.132, "intermolecular_energy": -11.811, "internal_energy": -0.437}

$$$$
