MODEL 1
REMARK VINA RESULT:    -9.710      0.000      0.000
REMARK INTER + INTRA:         -11.127
REMARK INTER:                 -10.846
REMARK INTRA:                  -0.282
REMARK UNBOUND:                -0.282
REMARK SMILES O=C1N[C@@]2(CCc3ccccc32)C(=O)N1Cc1ncc(Cl)cc1Cl
REMARK SMILES IDX 16 1 15 2 1 3 2 4 3 5 4 6 13 7 5 8 12 9 14 10 6 11 11 12
REMARK SMILES IDX 7 13 10 14 8 15 9 16 17 18 18 19 23 20 19 21 22 22 20 23
REMARK SMILES IDX 24 24 21 25
REMARK H PARENT 3 17
ROOT
ATOM      1  C   UNL     1       3.576  45.507  54.985  1.00  0.00     0.188 C 
ENDROOT
BRANCH   1   2
ATOM      2  N   UNL     1       4.380  46.084  53.908  1.00  0.00    -0.256 N 
ATOM      3  O   UNL     1       2.746  47.337  52.747  1.00  0.00    -0.248 OA
ATOM      4  C   UNL     1       3.903  46.844  52.807  1.00  0.00     0.325 C 
ATOM      5  N   UNL     1       4.856  46.966  51.759  1.00  0.00    -0.319 N 
ATOM      6  C   UNL     1       6.046  46.211  52.147  1.00  0.00     0.147 C 
ATOM      7  C   UNL     1       5.674  45.658  53.496  1.00  0.00     0.261 C 
ATOM      8  C   UNL     1       7.313  47.102  52.176  1.00  0.00     0.048 C 
ATOM      9  C   UNL     1       6.357  45.146  51.160  1.00  0.00    -0.010 A 
ATOM     10  O   UNL     1       6.403  44.891  54.182  1.00  0.00    -0.271 OA
ATOM     11  C   UNL     1       8.342  46.448  51.232  1.00  0.00     0.039 C 
ATOM     12  C   UNL     1       5.521  44.105  50.740  1.00  0.00     0.007 A 
ATOM     13  C   UNL     1       7.627  45.282  50.656  1.00  0.00    -0.042 A 
ATOM     14  C   UNL     1       6.005  43.192  49.790  1.00  0.00     0.000 A 
ATOM     15  C   UNL     1       8.128  44.383  49.711  1.00  0.00     0.004 A 
ATOM     16  C   UNL     1       7.307  43.331  49.277  1.00  0.00     0.000 A 
ATOM     17  H   UNL     1       4.707  47.465  50.853  1.00  0.00     0.166 HD
ENDBRANCH   1   2
BRANCH   1  18
ATOM     18  C   UNL     1       2.502  44.621  54.421  1.00  0.00     0.079 A 
ATOM     19  N   UNL     1       2.796  43.829  53.353  1.00  0.00    -0.256 NA
ATOM     20  C   UNL     1       1.195  44.613  54.951  1.00  0.00     0.065 A 
ATOM     21  C   UNL     1       1.870  43.017  52.779  1.00  0.00     0.132 A 
ATOM     22  C   UNL     1       0.232  43.783  54.371  1.00  0.00     0.044 A 
ATOM     23  C   UNL     1       0.567  42.979  53.280  1.00  0.00     0.060 A 
ATOM     24  Cl  UNL     1       0.739  45.619  56.322  1.00  0.00    -0.082 Cl
ATOM     25  Cl  UNL     1      -0.635  41.936  52.544  1.00  0.00    -0.083 Cl
ENDBRANCH   1  18
TORSDOF 2
ENDMDL
MODEL 2
REMARK VINA RESULT:    -9.630      2.960      6.190
REMARK INTER + INTRA:         -11.037
REMARK INTER:                 -10.533
REMARK INTRA:                  -0.504
REMARK UNBOUND:                -0.282
REMARK SMILES O=C1N[C@@]2(CCc3ccccc32)C(=O)N1Cc1ncc(Cl)cc1Cl
REMARK SMILES IDX 16 1 15 2 1 3 2 4 3 5 4 6 13 7 5 8 12 9 14 10 6 11 11 12
REMARK SMILES IDX 7 13 10 14 8 15 9 16 17 18 18 19 23 20 19 21 22 22 20 23
REMARK SMILES IDX 24 24 21 25
REMARK H PARENT 3 17
ROOT
ATOM      1  C   UNL     1       5.747  47.556  53.350  1.00  0.00     0.188 C 
ENDROOT
BRANCH   1   2
ATOM      2  N   UNL     1       4.868  46.703  54.150  1.00  0.00    -0.256 N 
ATOM      3  O   UNL     1       6.451  45.401  55.327  1.00  0.00    -0.248 OA
ATOM      4  C   UNL     1       5.262  45.617  54.976  1.00  0.00     0.325 C 
ATOM      5  N   UNL     1       4.177  44.774  55.343  1.00  0.00    -0.319 N 
ATOM      6  C   UNL     1       2.971  45.291  54.698  1.00  0.00     0.147 C 
ATOM      7  C   UNL     1       3.477  46.489  53.940  1.00  0.00     0.261 C 
ATOM      8  C   UNL     1       1.866  45.636  55.727  1.00  0.00     0.048 C 
ATOM      9  C   UNL     1       2.354  44.273  53.809  1.00  0.00    -0.010 A 
ATOM     10  O   UNL     1       2.769  47.213  53.190  1.00  0.00    -0.271 OA
ATOM     11  C   UNL     1       0.614  44.830  55.326  1.00  0.00     0.039 C 
ATOM     12  C   UNL     1       2.953  43.608  52.734  1.00  0.00     0.007 A 
ATOM     13  C   UNL     1       1.051  44.021  54.162  1.00  0.00    -0.042 A 
ATOM     14  C   UNL     1       2.195  42.673  52.012  1.00  0.00     0.000 A 
ATOM     15  C   UNL     1       0.280  43.095  53.455  1.00  0.00     0.004 A 
ATOM     16  C   UNL     1       0.860  42.417  52.373  1.00  0.00     0.000 A 
ATOM     17  H   UNL     1       4.245  43.912  55.929  1.00  0.00     0.166 HD
ENDBRANCH   1   2
BRANCH   1  18
ATOM     18  C   UNL     1       6.436  46.747  52.287  1.00  0.00     0.079 A 
ATOM     19  N   UNL     1       5.682  45.980  51.451  1.00  0.00    -0.256 NA
ATOM     20  C   UNL     1       7.840  46.741  52.155  1.00  0.00     0.065 A 
ATOM     21  C   UNL     1       6.238  45.209  50.480  1.00  0.00     0.132 A 
ATOM     22  C   UNL     1       8.425  45.953  51.161  1.00  0.00     0.044 A 
ATOM     23  C   UNL     1       7.624  45.182  50.317  1.00  0.00     0.060 A 
ATOM     24  Cl  UNL     1       8.879  47.697  53.207  1.00  0.00    -0.082 Cl
ATOM     25  Cl  UNL     1       8.350  44.188  49.068  1.00  0.00    -0.083 Cl
ENDBRANCH   1  18
TORSDOF 2
ENDMDL
MODEL 3
REMARK VINA RESULT:    -9.284      1.546      2.583
REMARK INTER + INTRA:         -10.651
REMARK INTER:                 -10.141
REMARK INTRA:                  -0.510
REMARK UNBOUND:                -0.282
REMARK SMILES O=C1N[C@@]2(CCc3ccccc32)C(=O)N1Cc1ncc(Cl)cc1Cl
REMARK SMILES IDX 16 1 15 2 1 3 2 4 3 5 4 6 13 7 5 8 12 9 14 10 6 11 11 12
REMARK SMILES IDX 7 13 10 14 8 15 9 16 17 18 18 19 23 20 19 21 22 22 20 23
REMARK SMILES IDX 24 24 21 25
REMARK H PARENT 3 17
ROOT
ATOM      1  C   UNL     1       2.229  43.579  53.513  1.00  0.00     0.188 C 
ENDROOT
BRANCH   1   2
ATOM      2  N   UNL     1       3.034  44.548  52.771  1.00  0.00    -0.256 N 
ATOM      3  O   UNL     1       1.470  45.302  51.168  1.00  0.00    -0.248 OA
ATOM      4  C   UNL     1       2.653  45.242  51.592  1.00  0.00     0.325 C 
ATOM      5  N   UNL     1       3.753  45.837  50.915  1.00  0.00    -0.319 N 
ATOM      6  C   UNL     1       4.969  45.499  51.654  1.00  0.00     0.147 C 
ATOM      7  C   UNL     1       4.453  44.664  52.795  1.00  0.00     0.261 C 
ATOM      8  C   UNL     1       5.737  46.763  52.115  1.00  0.00     0.048 C 
ATOM      9  C   UNL     1       5.934  44.762  50.800  1.00  0.00    -0.010 A 
ATOM     10  O   UNL     1       5.179  44.111  53.664  1.00  0.00    -0.271 OA
ATOM     11  C   UNL     1       7.165  46.652  51.545  1.00  0.00     0.039 C 
ATOM     12  C   UNL     1       5.717  43.567  50.107  1.00  0.00     0.007 A 
ATOM     13  C   UNL     1       7.146  45.405  50.741  1.00  0.00    -0.042 A 
ATOM     14  C   UNL     1       6.766  43.026  49.347  1.00  0.00     0.000 A 
ATOM     15  C   UNL     1       8.204  44.882  49.992  1.00  0.00     0.004 A 
ATOM     16  C   UNL     1       8.008  43.683  49.291  1.00  0.00     0.000 A 
ATOM     17  H   UNL     1       3.701  46.377  50.022  1.00  0.00     0.166 HD
ENDBRANCH   1   2
BRANCH   1  18
ATOM     18  C   UNL     1       1.319  44.284  54.480  1.00  0.00     0.079 A 
ATOM     19  N   UNL     1       1.869  44.948  55.535  1.00  0.00    -0.256 NA
ATOM     20  C   UNL     1      -0.083  44.251  54.336  1.00  0.00     0.065 A 
ATOM     21  C   UNL     1       1.108  45.592  56.458  1.00  0.00     0.132 A 
ATOM     22  C   UNL     1      -0.878  44.908  55.278  1.00  0.00     0.044 A 
ATOM     23  C   UNL     1      -0.284  45.584  56.345  1.00  0.00     0.060 A 
ATOM     24  Cl  UNL     1      -0.863  43.403  53.005  1.00  0.00    -0.082 Cl
ATOM     25  Cl  UNL     1      -1.274  46.411  57.533  1.00  0.00    -0.083 Cl
ENDBRANCH   1  18
TORSDOF 2
ENDMDL
MODEL 4
REMARK VINA RESULT:    -8.842      3.085      7.156
REMARK INTER + INTRA:         -10.158
REMARK INTER:                  -9.617
REMARK INTRA:                  -0.541
REMARK UNBOUND:                -0.282
REMARK SMILES O=C1N[C@@]2(CCc3ccccc32)C(=O)N1Cc1ncc(Cl)cc1Cl
REMARK SMILES IDX 16 1 15 2 1 3 2 4 3 5 4 6 13 7 5 8 12 9 14 10 6 11 11 12
REMARK SMILES IDX 7 13 10 14 8 15 9 16 17 18 18 19 23 20 19 21 22 22 20 23
REMARK SMILES IDX 24 24 21 25
REMARK H PARENT 3 17
ROOT
ATOM      1  C   UNL     1       4.236  45.633  51.107  1.00  0.00     0.188 C 
ENDROOT
BRANCH   1   2
ATOM      2  N   UNL     1       3.575  45.025  52.261  1.00  0.00    -0.256 N 
ATOM      3  O   UNL     1       4.048  42.737  51.898  1.00  0.00    -0.248 OA
ATOM      4  C   UNL     1       3.417  43.636  52.514  1.00  0.00     0.325 C 
ATOM      5  N   UNL     1       2.444  43.359  53.513  1.00  0.00    -0.319 N 
ATOM      6  C   UNL     1       1.872  44.633  53.946  1.00  0.00     0.147 C 
ATOM      7  C   UNL     1       2.605  45.640  53.102  1.00  0.00     0.261 C 
ATOM      8  C   UNL     1       2.049  44.860  55.468  1.00  0.00     0.048 C 
ATOM      9  C   UNL     1       0.403  44.668  53.728  1.00  0.00    -0.010 A 
ATOM     10  O   UNL     1       2.384  46.881  53.113  1.00  0.00    -0.271 OA
ATOM     11  C   UNL     1       0.641  45.090  56.053  1.00  0.00     0.039 C 
ATOM     12  C   UNL     1      -0.283  44.477  52.523  1.00  0.00     0.007 A 
ATOM     13  C   UNL     1      -0.273  44.920  54.896  1.00  0.00    -0.042 A 
ATOM     14  C   UNL     1      -1.685  44.550  52.526  1.00  0.00     0.000 A 
ATOM     15  C   UNL     1      -1.668  44.998  54.919  1.00  0.00     0.004 A 
ATOM     16  C   UNL     1      -2.376  44.811  53.723  1.00  0.00     0.000 A 
ATOM     17  H   UNL     1       2.158  42.409  53.839  1.00  0.00     0.166 HD
ENDBRANCH   1   2
BRANCH   1  18
ATOM     18  C   UNL     1       5.668  45.956  51.433  1.00  0.00     0.079 A 
ATOM     19  N   UNL     1       5.932  46.977  52.295  1.00  0.00    -0.256 NA
ATOM     20  C   UNL     1       6.738  45.248  50.849  1.00  0.00     0.065 A 
ATOM     21  C   UNL     1       7.200  47.337  52.621  1.00  0.00     0.132 A 
ATOM     22  C   UNL     1       8.048  45.607  51.174  1.00  0.00     0.044 A 
ATOM     23  C   UNL     1       8.285  46.655  52.065  1.00  0.00     0.060 A 
ATOM     24  Cl  UNL     1       6.472  43.925  49.718  1.00  0.00    -0.082 Cl
ATOM     25  Cl  UNL     1       9.926  47.114  52.478  1.00  0.00    -0.083 Cl
ENDBRANCH   1  18
TORSDOF 2
ENDMDL
MODEL 5
REMARK VINA RESULT:    -8.840      1.805      3.671
REMARK INTER + INTRA:         -10.156
REMARK INTER:                  -9.651
REMARK INTRA:                  -0.505
REMARK UNBOUND:                -0.282
REMARK SMILES O=C1N[C@@]2(CCc3ccccc32)C(=O)N1Cc1ncc(Cl)cc1Cl
REMARK SMILES IDX 16 1 15 2 1 3 2 4 3 5 4 6 13 7 5 8 12 9 14 10 6 11 11 12
REMARK SMILES IDX 7 13 10 14 8 15 9 16 17 18 18 19 23 20 19 21 22 22 20 23
REMARK SMILES IDX 24 24 21 25
REMARK H PARENT 3 17
ROOT
ATOM      1  C   UNL     1       1.764  44.461  51.329  1.00  0.00     0.188 C 
ENDROOT
BRANCH   1   2
ATOM      2  N   UNL     1       3.209  44.274  51.200  1.00  0.00    -0.256 N 
ATOM      3  O   UNL     1       3.446  42.051  51.969  1.00  0.00    -0.248 OA
ATOM      4  C   UNL     1       3.961  43.151  51.636  1.00  0.00     0.325 C 
ATOM      5  N   UNL     1       5.359  43.403  51.692  1.00  0.00    -0.319 N 
ATOM      6  C   UNL     1       5.577  44.797  51.308  1.00  0.00     0.147 C 
ATOM      7  C   UNL     1       4.185  45.298  51.037  1.00  0.00     0.261 C 
ATOM      8  C   UNL     1       6.524  44.920  50.088  1.00  0.00     0.048 C 
ATOM      9  C   UNL     1       6.256  45.557  52.389  1.00  0.00    -0.010 A 
ATOM     10  O   UNL     1       3.898  46.484  50.721  1.00  0.00    -0.271 OA
ATOM     11  C   UNL     1       7.695  45.826  50.519  1.00  0.00     0.039 C 
ATOM     12  C   UNL     1       5.827  45.721  53.711  1.00  0.00     0.007 A 
ATOM     13  C   UNL     1       7.427  46.122  51.948  1.00  0.00    -0.042 A 
ATOM     14  C   UNL     1       6.617  46.483  54.587  1.00  0.00     0.000 A 
ATOM     15  C   UNL     1       8.226  46.885  52.804  1.00  0.00     0.004 A 
ATOM     16  C   UNL     1       7.814  47.064  54.133  1.00  0.00     0.000 A 
ATOM     17  H   UNL     1       6.091  42.725  52.003  1.00  0.00     0.166 HD
ENDBRANCH   1   2
BRANCH   1  18
ATOM     18  C   UNL     1       1.381  44.606  52.774  1.00  0.00     0.079 A 
ATOM     19  N   UNL     1       2.032  45.526  53.539  1.00  0.00    -0.256 NA
ATOM     20  C   UNL     1       0.388  43.795  53.362  1.00  0.00     0.065 A 
ATOM     21  C   UNL     1       1.752  45.699  54.857  1.00  0.00     0.132 A 
ATOM     22  C   UNL     1       0.089  43.961  54.716  1.00  0.00     0.044 A 
ATOM     23  C   UNL     1       0.771  44.917  55.471  1.00  0.00     0.060 A 
ATOM     24  Cl  UNL     1      -0.486  42.577  52.439  1.00  0.00    -0.082 Cl
ATOM     25  Cl  UNL     1       0.404  45.131  57.172  1.00  0.00    -0.083 Cl
ENDBRANCH   1  18
TORSDOF 2
ENDMDL
