ligand_29_conformer_5_docked
     RDKit          3D

 46 48  0  0  0  0  0  0  0  0999 V2000
   10.3650   47.5070   55.6090 C   0  0  0  0  0  0  0  0  0  0  0  0
    9.7070   47.2630   54.2830 C   0  0  0  0  0  0  0  0  0  0  0  0
   10.4560   46.8000   53.1900 C   0  0  0  0  0  0  0  0  0  0  0  0
    9.8400   46.5940   51.9530 C   0  0  0  0  0  0  0  0  0  0  0  0
    8.4810   46.8720   51.7910 C   0  0  0  0  0  0  0  0  0  0  0  0
    7.7240   47.3580   52.8690 C   0  0  0  0  0  0  0  0  0  0  0  0
    6.2660   47.6930   52.6890 C   0  0  0  0  0  0  0  0  0  0  0  0
    5.3600   46.9200   53.6710 C   0  0  1  0  0  0  0  0  0  0  0  0
    4.6060   47.8850   54.6040 C   0  0  0  0  0  0  0  0  0  0  0  0
    4.2070   49.0360   53.9070 O   0  0  0  0  0  0  0  0  0  0  0  0
    4.4220   46.0190   52.9850 N   0  0  0  0  0  0  0  0  0  0  0  0
    4.1210   44.6760   53.4110 C   0  0  0  0  0  0  0  0  0  0  0  0
    4.6720   44.2050   54.4440 O   0  0  0  0  0  0  0  0  0  0  0  0
    3.2210   43.7890   52.6330 C   0  0  0  0  0  0  0  0  0  0  0  0
    1.8820   43.5950   52.9130 C   0  0  0  0  0  0  0  0  0  0  0  0
    1.3980   42.6510   52.0920 N   0  0  0  0  0  0  0  0  0  0  0  0
    2.3570   42.2240   51.2870 N   0  0  0  0  0  0  0  0  0  0  0  0
    3.4800   42.9050   51.5840 C   0  0  0  0  0  0  0  0  0  0  0  0
    4.7360   42.6950   50.8470 C   0  0  0  0  0  0  0  0  0  0  0  0
    5.0520   41.4140   50.3680 C   0  0  0  0  0  0  0  0  0  0  0  0
    6.2310   41.2020   49.6460 C   0  0  0  0  0  0  0  0  0  0  0  0
    7.0860   42.2700   49.3740 C   0  0  0  0  0  0  0  0  0  0  0  0
    6.7650   43.5560   49.8230 C   0  0  0  0  0  0  0  0  0  0  0  0
    7.8200   44.8960   49.4310 Cl  0  0  0  0  0  0  0  0  0  0  0  0
    5.5940   43.7700   50.5620 C   0  0  0  0  0  0  0  0  0  0  0  0
    8.3430   47.5440   54.1160 C   0  0  0  0  0  0  0  0  0  0  0  0
    9.6664   47.2479   56.4182 H   0  0  0  0  0  0  0  0  0  0  0  0
   11.2678   46.8839   55.6905 H   0  0  0  0  0  0  0  0  0  0  0  0
   10.6433   48.5681   55.6905 H   0  0  0  0  0  0  0  0  0  0  0  0
   11.5310   46.5988   53.3076 H   0  0  0  0  0  0  0  0  0  0  0  0
   10.4268   46.2119   51.1047 H   0  0  0  0  0  0  0  0  0  0  0  0
    8.0015   46.7095   50.8144 H   0  0  0  0  0  0  0  0  0  0  0  0
    6.1280   48.7716   52.8552 H   0  0  0  0  0  0  0  0  0  0  0  0
    5.9784   47.4030   51.6676 H   0  0  0  0  0  0  0  0  0  0  0  0
    6.0233   46.2884   54.2803 H   0  0  0  0  0  0  0  0  0  0  0  0
    3.7157   47.3784   55.0048 H   0  0  0  0  0  0  0  0  0  0  0  0
    5.2767   48.1818   55.4238 H   0  0  0  0  0  0  0  0  0  0  0  0
    4.8270   49.7620   54.1790 H   0  0  0  0  0  0  0  0  0  0  0  0
    4.0720   46.3500   52.0620 H   0  0  0  0  0  0  0  0  0  0  0  0
    1.3063   44.1281   53.6840 H   0  0  0  0  0  0  0  0  0  0  0  0
    0.4210   42.2840   52.0870 H   0  0  0  0  0  0  0  0  0  0  0  0
    4.3695   40.5733   50.5613 H   0  0  0  0  0  0  0  0  0  0  0  0
    6.4843   40.1917   49.2922 H   0  0  0  0  0  0  0  0  0  0  0  0
    8.0130   42.1013   48.8063 H   0  0  0  0  0  0  0  0  0  0  0  0
    5.3464   44.7805   50.9192 H   0  0  0  0  0  0  0  0  0  0  0  0
    7.7535   47.9129   54.9683 H   0  0  0  0  0  0  0  0  0  0  0  0
  1  2  1  0
  2  3  2  0
  3  4  1  0
  4  5  2  0
  5  6  1  0
  6  7  1  0
  7  8  1  0
  8  9  1  0
  9 10  1  0
  8 11  1  0
 11 12  1  0
 12 13  2  0
 12 14  1  0
 14 15  2  0
 15 16  1  0
 16 17  1  0
 17 18  2  0
 18 19  1  0
 19 20  2  0
 20 21  1  0
 21 22  2  0
 22 23  1  0
 23 24  1  0
 23 25  2  0
  6 26  2  0
 26  2  1  0
 18 14  1  0
 25 19  1  0
  1 27  1  0
  1 28  1  0
  1 29  1  0
  3 30  1  0
  4 31  1  0
  5 32  1  0
  7 33  1  0
  7 34  1  0
  8 35  1  1
  9 36  1  0
  9 37  1  0
 10 38  1  0
 11 39  1  0
 15 40  1  0
 16 41  1  0
 20 42  1  0
 21 43  1  0
 22 44  1  0
 25 45  1  0
 26 46  1  0
M  END
>  <meeko>  (1) 
{"is_sidechain": [false], "free_energy": -9.529, "intermolecular_energy": -13.149, "internal_energy": -0.81}

$$$$
ligand_29_conformer_5_docked
     RDKit          3D

 46 48  0  0  0  0  0  0  0  0999 V2000
   10.5130   47.4660   55.4280 C   0  0  0  0  0  0  0  0  0  0  0  0
    9.6690   47.1380   54.2320 C   0  0  0  0  0  0  0  0  0  0  0  0
   10.2660   46.7840   53.0120 C   0  0  0  0  0  0  0  0  0  0  0  0
    9.4730   46.5000   51.8980 C   0  0  0  0  0  0  0  0  0  0  0  0
    8.0830   46.5910   51.9850 C   0  0  0  0  0  0  0  0  0  0  0  0
    7.4710   46.9680   53.1910 C   0  0  0  0  0  0  0  0  0  0  0  0
    5.9730   47.1030   53.2790 C   0  0  0  0  0  0  0  0  0  0  0  0
    5.3320   45.9890   54.1340 C   0  0  1  0  0  0  0  0  0  0  0  0
    3.9950   46.4560   54.7380 C   0  0  0  0  0  0  0  0  0  0  0  0
    3.5490   45.5480   55.7100 O   0  0  0  0  0  0  0  0  0  0  0  0
    5.1560   44.7340   53.3880 N   0  0  0  0  0  0  0  0  0  0  0  0
    4.6770   44.6490   52.0320 C   0  0  0  0  0  0  0  0  0  0  0  0
    4.3860   45.7020   51.4010 O   0  0  0  0  0  0  0  0  0  0  0  0
    4.4510   43.3460   51.3600 C   0  0  0  0  0  0  0  0  0  0  0  0
    5.4140   42.6560   50.6490 C   0  0  0  0  0  0  0  0  0  0  0  0
    4.8480   41.5810   50.0790 N   0  0  0  0  0  0  0  0  0  0  0  0
    3.5630   41.5360   50.3890 N   0  0  0  0  0  0  0  0  0  0  0  0
    3.2900   42.5920   51.1780 C   0  0  0  0  0  0  0  0  0  0  0  0
    1.9470   42.8250   51.7320 C   0  0  0  0  0  0  0  0  0  0  0  0
    1.7300   42.6730   53.1100 C   0  0  0  0  0  0  0  0  0  0  0  0
    0.4650   42.9120   53.6570 C   0  0  0  0  0  0  0  0  0  0  0  0
   -0.5820   43.3320   52.8360 C   0  0  0  0  0  0  0  0  0  0  0  0
   -0.3680   43.5130   51.4650 C   0  0  0  0  0  0  0  0  0  0  0  0
   -1.6770   44.0890   50.4560 Cl  0  0  0  0  0  0  0  0  0  0  0  0
    0.8930   43.2570   50.9100 C   0  0  0  0  0  0  0  0  0  0  0  0
    8.2710   47.2330   54.3150 C   0  0  0  0  0  0  0  0  0  0  0  0
    9.9486   47.2467   56.3463 H   0  0  0  0  0  0  0  0  0  0  0  0
   11.4300   46.8588   55.4073 H   0  0  0  0  0  0  0  0  0  0  0  0
   10.7793   48.5331   55.4073 H   0  0  0  0  0  0  0  0  0  0  0  0
   11.3618   46.7301   52.9331 H   0  0  0  0  0  0  0  0  0  0  0  0
    9.9451   46.2038   50.9496 H   0  0  0  0  0  0  0  0  0  0  0  0
    7.4638   46.3662   51.1041 H   0  0  0  0  0  0  0  0  0  0  0  0
    5.7318   48.0772   53.7293 H   0  0  0  0  0  0  0  0  0  0  0  0
    5.5678   47.0192   52.2598 H   0  0  0  0  0  0  0  0  0  0  0  0
    6.0343   45.7787   54.9541 H   0  0  0  0  0  0  0  0  0  0  0  0
    4.1332   47.4437   55.2021 H   0  0  0  0  0  0  0  0  0  0  0  0
    3.2444   46.5145   53.9360 H   0  0  0  0  0  0  0  0  0  0  0  0
    4.0610   44.7080   55.5730 H   0  0  0  0  0  0  0  0  0  0  0  0
    5.2630   43.8600   53.9450 H   0  0  0  0  0  0  0  0  0  0  0  0
    6.4729   42.9415   50.5640 H   0  0  0  0  0  0  0  0  0  0  0  0
    5.3290   40.8860   49.4670 H   0  0  0  0  0  0  0  0  0  0  0  0
    2.5592   42.3642   53.7636 H   0  0  0  0  0  0  0  0  0  0  0  0
    0.2957   42.7688   54.7344 H   0  0  0  0  0  0  0  0  0  0  0  0
   -1.5764   43.5210   53.2667 H   0  0  0  0  0  0  0  0  0  0  0  0
    1.0574   43.3943   49.8311 H   0  0  0  0  0  0  0  0  0  0  0  0
    7.7985   47.5170   55.2669 H   0  0  0  0  0  0  0  0  0  0  0  0
  1  2  1  0
  2  3  2  0
  3  4  1  0
  4  5  2  0
  5  6  1  0
  6  7  1  0
  7  8  1  0
  8  9  1  0
  9 10  1  0
  8 11  1  0
 11 12  1  0
 12 13  2  0
 12 14  1  0
 14 15  2  0
 15 16  1  0
 16 17  1  0
 17 18  2  0
 18 19  1  0
 19 20  2  0
 20 21  1  0
 21 22  2  0
 22 23  1  0
 23 24  1  0
 23 25  2  0
  6 26  2  0
 26  2  1  0
 18 14  1  0
 25 19  1  0
  1 27  1  0
  1 28  1  0
  1 29  1  0
  3 30  1  0
  4 31  1  0
  5 32  1  0
  7 33  1  0
  7 34  1  0
  8 35  1  1
  9 36  1  0
  9 37  1  0
 10 38  1  0
 11 39  1  0
 15 40  1  0
 16 41  1  0
 20 42  1  0
 21 43  1  0
 22 44  1  0
 25 45  1  0
 26 46  1  0
M  END
>  <meeko>  (2) 
{"is_sidechain": [false], "free_energy": -8.94, "intermolecular_energy": -12.607, "internal_energy": -0.539}

$$$$
ligand_29_conformer_5_docked
     RDKit          3D

 46 48  0  0  0  0  0  0  0  0999 V2000
    9.9140   47.6380   55.0580 C   0  0  0  0  0  0  0  0  0  0  0  0
    9.4140   47.0970   53.7510 C   0  0  0  0  0  0  0  0  0  0  0  0
   10.3050   46.5440   52.8190 C   0  0  0  0  0  0  0  0  0  0  0  0
    9.8340   46.0610   51.5970 C   0  0  0  0  0  0  0  0  0  0  0  0
    8.4750   46.1490   51.2850 C   0  0  0  0  0  0  0  0  0  0  0  0
    7.5740   46.7220   52.1970 C   0  0  0  0  0  0  0  0  0  0  0  0
    6.1140   46.8520   51.8480 C   0  0  0  0  0  0  0  0  0  0  0  0
    5.1980   46.6570   53.0750 C   0  0  1  0  0  0  0  0  0  0  0  0
    4.7020   48.0100   53.6160 C   0  0  0  0  0  0  0  0  0  0  0  0
    4.6350   47.9870   55.0180 O   0  0  0  0  0  0  0  0  0  0  0  0
    4.0660   45.7600   52.7990 N   0  0  0  0  0  0  0  0  0  0  0  0
    3.4580   44.8880   53.7710 C   0  0  0  0  0  0  0  0  0  0  0  0
    3.8910   44.8680   54.9560 O   0  0  0  0  0  0  0  0  0  0  0  0
    2.3660   43.9500   53.4110 C   0  0  0  0  0  0  0  0  0  0  0  0
    1.1510   43.8790   54.0650 C   0  0  0  0  0  0  0  0  0  0  0  0
    0.4460   42.8540   53.5620 N   0  0  0  0  0  0  0  0  0  0  0  0
    1.1420   42.2580   52.6090 N   0  0  0  0  0  0  0  0  0  0  0  0
    2.3150   42.9080   52.4840 C   0  0  0  0  0  0  0  0  0  0  0  0
    3.3190   42.5180   51.4820 C   0  0  0  0  0  0  0  0  0  0  0  0
    4.6150   43.0510   51.5570 C   0  0  0  0  0  0  0  0  0  0  0  0
    5.5890   42.6740   50.6270 C   0  0  0  0  0  0  0  0  0  0  0  0
    5.2830   41.7410   49.6350 C   0  0  0  0  0  0  0  0  0  0  0  0
    4.0010   41.1830   49.5700 C   0  0  0  0  0  0  0  0  0  0  0  0
    3.6460   39.9770   48.3530 Cl  0  0  0  0  0  0  0  0  0  0  0  0
    3.0180   41.5720   50.4890 C   0  0  0  0  0  0  0  0  0  0  0  0
    8.0500   47.1880   53.4330 C   0  0  0  0  0  0  0  0  0  0  0  0
    9.4230   47.1067   55.8866 H   0  0  0  0  0  0  0  0  0  0  0  0
   11.0024   47.4924   55.1228 H   0  0  0  0  0  0  0  0  0  0  0  0
    9.6832   48.7116   55.1228 H   0  0  0  0  0  0  0  0  0  0  0  0
   11.3787   46.4908   53.0521 H   0  0  0  0  0  0  0  0  0  0  0  0
   10.5342   45.6102   50.8783 H   0  0  0  0  0  0  0  0  0  0  0  0
    8.1091   45.7676   50.3203 H   0  0  0  0  0  0  0  0  0  0  0  0
    5.9380   47.8546   51.4311 H   0  0  0  0  0  0  0  0  0  0  0  0
    5.8713   46.0650   51.1188 H   0  0  0  0  0  0  0  0  0  0  0  0
    5.8100   46.1718   53.8496 H   0  0  0  0  0  0  0  0  0  0  0  0
    5.3968   48.8022   53.3002 H   0  0  0  0  0  0  0  0  0  0  0  0
    3.6959   48.2045   53.2161 H   0  0  0  0  0  0  0  0  0  0  0  0
    3.8870   48.5870   55.2770 H   0  0  0  0  0  0  0  0  0  0  0  0
    3.7960   45.6700   51.7970 H   0  0  0  0  0  0  0  0  0  0  0  0
    0.8161   44.5529   54.8673 H   0  0  0  0  0  0  0  0  0  0  0  0
   -0.5010   42.5490   53.8760 H   0  0  0  0  0  0  0  0  0  0  0  0
    4.8661   43.7691   52.3515 H   0  0  0  0  0  0  0  0  0  0  0  0
    6.5964   43.1128   50.6773 H   0  0  0  0  0  0  0  0  0  0  0  0
    6.0496   41.4442   48.9041 H   0  0  0  0  0  0  0  0  0  0  0  0
    2.0096   41.1361   50.4327 H   0  0  0  0  0  0  0  0  0  0  0  0
    7.3487   47.6277   54.1575 H   0  0  0  0  0  0  0  0  0  0  0  0
  1  2  1  0
  2  3  2  0
  3  4  1  0
  4  5  2  0
  5  6  1  0
  6  7  1  0
  7  8  1  0
  8  9  1  0
  9 10  1  0
  8 11  1  0
 11 12  1  0
 12 13  2  0
 12 14  1  0
 14 15  2  0
 15 16  1  0
 16 17  1  0
 17 18  2  0
 18 19  1  0
 19 20  2  0
 20 21  1  0
 21 22  2  0
 22 23  1  0
 23 24  1  0
 23 25  2  0
  6 26  2  0
 26  2  1  0
 18 14  1  0
 25 19  1  0
  1 27  1  0
  1 28  1  0
  1 29  1  0
  3 30  1  0
  4 31  1  0
  5 32  1  0
  7 33  1  0
  7 34  1  0
  8 35  1  1
  9 36  1  0
  9 37  1  0
 10 38  1  0
 11 39  1  0
 15 40  1  0
 16 41  1  0
 20 42  1  0
 21 43  1  0
 22 44  1  0
 25 45  1  0
 26 46  1  0
M  END
>  <meeko>  (3) 
{"is_sidechain": [false], "free_energy": -8.815, "intermolecular_energy": -12.578, "internal_energy": -0.396}

$$$$
ligand_29_conformer_5_docked
     RDKit          3D

 46 48  0  0  0  0  0  0  0  0999 V2000
    9.8970   47.5280   54.9530 C   0  0  0  0  0  0  0  0  0  0  0  0
    9.3730   47.0040   53.6480 C   0  0  0  0  0  0  0  0  0  0  0  0
   10.2550   46.6220   52.6260 C   0  0  0  0  0  0  0  0  0  0  0  0
    9.7590   46.1550   51.4070 C   0  0  0  0  0  0  0  0  0  0  0  0
    8.3810   46.0880   51.1900 C   0  0  0  0  0  0  0  0  0  0  0  0
    7.4850   46.4900   52.1950 C   0  0  0  0  0  0  0  0  0  0  0  0
    5.9990   46.4540   51.9510 C   0  0  0  0  0  0  0  0  0  0  0  0
    5.1910   46.3500   53.2620 C   0  0  1  0  0  0  0  0  0  0  0  0
    4.4150   47.6500   53.5380 C   0  0  0  0  0  0  0  0  0  0  0  0
    4.5840   48.0540   54.8710 O   0  0  0  0  0  0  0  0  0  0  0  0
    4.2870   45.1900   53.2800 N   0  0  0  0  0  0  0  0  0  0  0  0
    2.8510   45.2740   53.3430 C   0  0  0  0  0  0  0  0  0  0  0  0
    2.2880   46.4030   53.3790 O   0  0  0  0  0  0  0  0  0  0  0  0
    1.9970   44.0650   53.4340 C   0  0  0  0  0  0  0  0  0  0  0  0
    2.1570   42.9350   52.6530 C   0  0  0  0  0  0  0  0  0  0  0  0
    1.1530   42.0830   52.9100 N   0  0  0  0  0  0  0  0  0  0  0  0
    0.3500   42.6020   53.8240 N   0  0  0  0  0  0  0  0  0  0  0  0
    0.8410   43.8060   54.1720 C   0  0  0  0  0  0  0  0  0  0  0  0
    0.1990   44.6420   55.1990 C   0  0  0  0  0  0  0  0  0  0  0  0
   -1.1930   44.8180   55.1780 C   0  0  0  0  0  0  0  0  0  0  0  0
   -1.8220   45.5910   56.1600 C   0  0  0  0  0  0  0  0  0  0  0  0
   -1.0690   46.1680   57.1830 C   0  0  0  0  0  0  0  0  0  0  0  0
    0.3160   45.9740   57.2280 C   0  0  0  0  0  0  0  0  0  0  0  0
    1.2420   46.6610   58.5450 Cl  0  0  0  0  0  0  0  0  0  0  0  0
    0.9530   45.2150   56.2370 C   0  0  0  0  0  0  0  0  0  0  0  0
    7.9890   46.9400   53.4260 C   0  0  0  0  0  0  0  0  0  0  0  0
    9.3873   47.0183   55.7839 H   0  0  0  0  0  0  0  0  0  0  0  0
   10.9790   47.3398   55.0158 H   0  0  0  0  0  0  0  0  0  0  0  0
    9.7088   48.6100   55.0158 H   0  0  0  0  0  0  0  0  0  0  0  0
   11.3412   46.6906   52.7855 H   0  0  0  0  0  0  0  0  0  0  0  0
   10.4551   45.8392   50.6160 H   0  0  0  0  0  0  0  0  0  0  0  0
    7.9954   45.7189   50.2282 H   0  0  0  0  0  0  0  0  0  0  0  0
    5.7045   47.3749   51.4264 H   0  0  0  0  0  0  0  0  0  0  0  0
    5.7790   45.5600   51.3490 H   0  0  0  0  0  0  0  0  0  0  0  0
    5.9221   46.1985   54.0698 H   0  0  0  0  0  0  0  0  0  0  0  0
    4.7871   48.4414   52.8707 H   0  0  0  0  0  0  0  0  0  0  0  0
    3.3454   47.4693   53.3557 H   0  0  0  0  0  0  0  0  0  0  0  0
    4.3870   47.2620   55.4360 H   0  0  0  0  0  0  0  0  0  0  0  0
    4.7470   44.2620   53.3890 H   0  0  0  0  0  0  0  0  0  0  0  0
    2.9745   42.7627   51.9374 H   0  0  0  0  0  0  0  0  0  0  0  0
    1.0030   41.1560   52.4550 H   0  0  0  0  0  0  0  0  0  0  0  0
   -1.7925   44.3460   54.3857 H   0  0  0  0  0  0  0  0  0  0  0  0
   -2.9108   45.7439   56.1255 H   0  0  0  0  0  0  0  0  0  0  0  0
   -1.5643   46.7757   57.9546 H   0  0  0  0  0  0  0  0  0  0  0  0
    2.0426   45.0679   56.2717 H   0  0  0  0  0  0  0  0  0  0  0  0
    7.2937   47.2446   54.2221 H   0  0  0  0  0  0  0  0  0  0  0  0
  1  2  1  0
  2  3  2  0
  3  4  1  0
  4  5  2  0
  5  6  1  0
  6  7  1  0
  7  8  1  0
  8  9  1  0
  9 10  1  0
  8 11  1  0
 11 12  1  0
 12 13  2  0
 12 14  1  0
 14 15  2  0
 15 16  1  0
 16 17  1  0
 17 18  2  0
 18 19  1  0
 19 20  2  0
 20 21  1  0
 21 22  2  0
 22 23  1  0
 23 24  1  0
 23 25  2  0
  6 26  2  0
 26  2  1  0
 18 14  1  0
 25 19  1  0
  1 27  1  0
  1 28  1  0
  1 29  1  0
  3 30  1  0
  4 31  1  0
  5 32  1  0
  7 33  1  0
  7 34  1  0
  8 35  1  1
  9 36  1  0
  9 37  1  0
 10 38  1  0
 11 39  1  0
 15 40  1  0
 16 41  1  0
 20 42  1  0
 21 43  1  0
 22 44  1  0
 25 45  1  0
 26 46  1  0
M  END
>  <meeko>  (4) 
{"is_sidechain": [false], "free_energy": -8.516, "intermolecular_energy": -12.896, "internal_energy": 0.334}

$$$$
ligand_29_conformer_5_docked
     RDKit          3D

 46 48  0  0  0  0  0  0  0  0999 V2000
   10.2560   47.4600   55.1920 C   0  0  0  0  0  0  0  0  0  0  0  0
    9.4950   47.0790   53.9570 C   0  0  0  0  0  0  0  0  0  0  0  0
   10.1730   46.6820   52.7940 C   0  0  0  0  0  0  0  0  0  0  0  0
    9.4570   46.3480   51.6420 C   0  0  0  0  0  0  0  0  0  0  0  0
    8.0630   46.4310   51.6340 C   0  0  0  0  0  0  0  0  0  0  0  0
    7.3720   46.8490   52.7830 C   0  0  0  0  0  0  0  0  0  0  0  0
    5.8700   46.9750   52.7660 C   0  0  0  0  0  0  0  0  0  0  0  0
    5.1730   45.7700   53.4330 C   0  0  1  0  0  0  0  0  0  0  0  0
    5.1500   45.9220   54.9650 C   0  0  0  0  0  0  0  0  0  0  0  0
    4.0810   46.7370   55.3660 O   0  0  0  0  0  0  0  0  0  0  0  0
    3.8160   45.5430   52.9130 N   0  0  0  0  0  0  0  0  0  0  0  0
    3.2180   44.2450   52.7300 C   0  0  0  0  0  0  0  0  0  0  0  0
    3.8650   43.2060   53.0340 O   0  0  0  0  0  0  0  0  0  0  0  0
    1.8710   44.0790   52.1300 C   0  0  0  0  0  0  0  0  0  0  0  0
    1.6370   43.8660   50.7840 C   0  0  0  0  0  0  0  0  0  0  0  0
    0.3120   43.8770   50.5670 N   0  0  0  0  0  0  0  0  0  0  0  0
   -0.3260   44.0810   51.7070 N   0  0  0  0  0  0  0  0  0  0  0  0
    0.5950   44.1980   52.6820 C   0  0  0  0  0  0  0  0  0  0  0  0
    0.2180   44.4020   54.0900 C   0  0  0  0  0  0  0  0  0  0  0  0
    1.0370   45.1820   54.9210 C   0  0  0  0  0  0  0  0  0  0  0  0
    0.6810   45.4050   56.2550 C   0  0  0  0  0  0  0  0  0  0  0  0
   -0.5070   44.8750   56.7590 C   0  0  0  0  0  0  0  0  0  0  0  0
   -1.3440   44.1190   55.9300 C   0  0  0  0  0  0  0  0  0  0  0  0
   -2.8550   43.5030   56.5610 Cl  0  0  0  0  0  0  0  0  0  0  0  0
   -0.9830   43.8790   54.5980 C   0  0  0  0  0  0  0  0  0  0  0  0
    8.0940   47.1650   53.9450 C   0  0  0  0  0  0  0  0  0  0  0  0
    9.6784   47.1708   56.0824 H   0  0  0  0  0  0  0  0  0  0  0  0
   11.2259   46.9412   55.1997 H   0  0  0  0  0  0  0  0  0  0  0  0
   10.4218   48.5474   55.1997 H   0  0  0  0  0  0  0  0  0  0  0  0
   11.2719   46.6337   52.7896 H   0  0  0  0  0  0  0  0  0  0  0  0
    9.9924   46.0189   50.7392 H   0  0  0  0  0  0  0  0  0  0  0  0
    7.5039   46.1679   50.7240 H   0  0  0  0  0  0  0  0  0  0  0  0
    5.5858   47.8908   53.3050 H   0  0  0  0  0  0  0  0  0  0  0  0
    5.5474   47.0107   51.7150 H   0  0  0  0  0  0  0  0  0  0  0  0
    5.7686   44.8815   53.1764 H   0  0  0  0  0  0  0  0  0  0  0  0
    5.0393   44.9289   55.4249 H   0  0  0  0  0  0  0  0  0  0  0  0
    6.0919   46.3892   55.2884 H   0  0  0  0  0  0  0  0  0  0  0  0
    4.4520   47.3970   56.0090 H   0  0  0  0  0  0  0  0  0  0  0  0
    3.3320   46.3830   52.5330 H   0  0  0  0  0  0  0  0  0  0  0  0
    2.4099   43.7126   50.0165 H   0  0  0  0  0  0  0  0  0  0  0  0
   -0.1580   43.7600   49.6430 H   0  0  0  0  0  0  0  0  0  0  0  0
    1.9634   45.6201   54.5212 H   0  0  0  0  0  0  0  0  0  0  0  0
    1.3382   45.9987   56.9073 H   0  0  0  0  0  0  0  0  0  0  0  0
   -0.7861   45.0513   57.8083 H   0  0  0  0  0  0  0  0  0  0  0  0
   -1.6400   43.2809   53.9495 H   0  0  0  0  0  0  0  0  0  0  0  0
    7.5582   47.4820   54.8519 H   0  0  0  0  0  0  0  0  0  0  0  0
  1  2  1  0
  2  3  2  0
  3  4  1  0
  4  5  2  0
  5  6  1  0
  6  7  1  0
  7  8  1  0
  8  9  1  0
  9 10  1  0
  8 11  1  0
 11 12  1  0
 12 13  2  0
 12 14  1  0
 14 15  2  0
 15 16  1  0
 16 17  1  0
 17 18  2  0
 18 19  1  0
 19 20  2  0
 20 21  1  0
 21 22  2  0
 22 23  1  0
 23 24  1  0
 23 25  2  0
  6 26  2  0
 26  2  1  0
 18 14  1  0
 25 19  1  0
  1 27  1  0
  1 28  1  0
  1 29  1  0
  3 30  1  0
  4 31  1  0
  5 32  1  0
  7 33  1  0
  7 34  1  0
  8 35  1  1
  9 36  1  0
  9 37  1  0
 10 38  1  0
 11 39  1  0
 15 40  1  0
 16 41  1  0
 20 42  1  0
 21 43  1  0
 22 44  1  0
 25 45  1  0
 26 46  1  0
M  END
>  <meeko>  (5) 
{"is_sidechain": [false], "free_energy": -8.326, "intermolecular_energy": -11.914, "internal_energy": -0.385}

$$$$
