ligand_76_conformer_2_docked
     RDKit          3D

 39 40  0  0  0  0  0  0  0  0999 V2000
   10.2710   46.2460   51.9470 C   0  0  0  0  0  0  0  0  0  0  0  0
    8.8250   46.4720   52.4040 C   0  0  0  0  0  0  0  0  0  0  0  0
    8.6610   47.3470   53.6820 C   0  0  1  0  0  0  0  0  0  0  0  0
    9.9790   47.3800   54.4820 C   0  0  0  0  0  0  0  0  0  0  0  0
    8.3840   48.6690   53.2790 O   0  0  0  0  0  0  0  0  0  0  0  0
    7.5020   46.8180   54.5750 C   0  0  0  0  0  0  0  0  0  0  0  0
    6.2150   46.6620   53.8190 C   0  0  0  0  0  0  0  0  0  0  0  0
    5.5720   45.4800   53.5200 C   0  0  0  0  0  0  0  0  0  0  0  0
    4.4460   45.8280   52.8740 N   0  0  0  0  0  0  0  0  0  0  0  0
    3.4610   44.9250   52.2920 C   0  0  0  0  0  0  0  0  0  0  0  0
    4.1600   43.7920   51.5890 C   0  0  0  0  0  0  0  0  0  0  0  0
    5.3120   44.0430   50.8290 C   0  0  0  0  0  0  0  0  0  0  0  0
    5.9330   42.9910   50.1420 C   0  0  0  0  0  0  0  0  0  0  0  0
    7.1660   43.2440   49.3240 C   0  0  0  0  0  0  0  0  0  0  0  0
    7.5780   44.5590   49.4580 F   0  0  0  0  0  0  0  0  0  0  0  0
    6.9000   42.9930   47.9900 F   0  0  0  0  0  0  0  0  0  0  0  0
    8.1830   42.4100   49.7500 F   0  0  0  0  0  0  0  0  0  0  0  0
    5.4040   41.7380   50.2100 N   0  0  0  0  0  0  0  0  0  0  0  0
    4.2820   41.4690   50.9280 C   0  0  0  0  0  0  0  0  0  0  0  0
    3.6350   42.4910   51.6270 C   0  0  0  0  0  0  0  0  0  0  0  0
    2.5060   42.2130   52.3270 F   0  0  0  0  0  0  0  0  0  0  0  0
    4.4060   47.1470   52.7720 N   0  0  0  0  0  0  0  0  0  0  0  0
    5.4720   47.6850   53.3510 N   0  0  0  0  0  0  0  0  0  0  0  0
   10.9222   46.1442   52.8277 H   0  0  0  0  0  0  0  0  0  0  0  0
   10.3254   45.3284   51.3427 H   0  0  0  0  0  0  0  0  0  0  0  0
   10.6028   47.1032   51.3427 H   0  0  0  0  0  0  0  0  0  0  0  0
    8.2819   46.9636   51.5834 H   0  0  0  0  0  0  0  0  0  0  0  0
    8.4283   45.4789   52.6618 H   0  0  0  0  0  0  0  0  0  0  0  0
    9.7545   47.3744   55.5588 H   0  0  0  0  0  0  0  0  0  0  0  0
   10.5838   46.4967   54.2289 H   0  0  0  0  0  0  0  0  0  0  0  0
   10.5388   48.2924   54.2289 H   0  0  0  0  0  0  0  0  0  0  0  0
    9.2190   49.2000   53.3720 H   0  0  0  0  0  0  0  0  0  0  0  0
    7.7912   45.8386   54.9838 H   0  0  0  0  0  0  0  0  0  0  0  0
    7.3323   47.5567   55.3722 H   0  0  0  0  0  0  0  0  0  0  0  0
    5.9107   44.4615   53.7606 H   0  0  0  0  0  0  0  0  0  0  0  0
    2.8206   44.5202   53.0895 H   0  0  0  0  0  0  0  0  0  0  0  0
    2.8456   45.4777   51.5669 H   0  0  0  0  0  0  0  0  0  0  0  0
    5.7260   45.0606   50.7725 H   0  0  0  0  0  0  0  0  0  0  0  0
    3.8825   40.4446   50.9589 H   0  0  0  0  0  0  0  0  0  0  0  0
  1  2  1  0
  2  3  1  0
  3  4  1  0
  3  5  1  6
  3  6  1  0
  6  7  1  0
  7  8  2  0
  8  9  1  0
  9 10  1  0
 10 11  1  0
 11 12  2  0
 12 13  1  0
 13 14  1  0
 14 15  1  0
 14 16  1  0
 14 17  1  0
 13 18  2  0
 18 19  1  0
 19 20  2  0
 20 21  1  0
  9 22  1  0
 22 23  2  0
 23  7  1  0
 20 11  1  0
  1 24  1  0
  1 25  1  0
  1 26  1  0
  2 27  1  0
  2 28  1  0
  4 29  1  0
  4 30  1  0
  4 31  1  0
  5 32  1  0
  6 33  1  0
  6 34  1  0
  8 35  1  0
 10 36  1  0
 10 37  1  0
 12 38  1  0
 19 39  1  0
M  END
>  <meeko>  (1) 
{"is_sidechain": [false], "free_energy": -8.647, "intermolecular_energy": -11.933, "internal_energy": -0.67}

$$$$
ligand_76_conformer_2_docked
     RDKit          3D

 39 40  0  0  0  0  0  0  0  0999 V2000
    2.1340   42.7190   50.8440 C   0  0  0  0  0  0  0  0  0  0  0  0
    0.9270   43.2480   51.6280 C   0  0  0  0  0  0  0  0  0  0  0  0
    0.9470   42.9510   53.1570 C   0  0  1  0  0  0  0  0  0  0  0  0
   -0.1990   41.9890   53.5310 C   0  0  0  0  0  0  0  0  0  0  0  0
    2.1580   42.2970   53.4630 O   0  0  0  0  0  0  0  0  0  0  0  0
    0.8370   44.2650   53.9820 C   0  0  0  0  0  0  0  0  0  0  0  0
    2.1260   45.0310   54.0230 C   0  0  0  0  0  0  0  0  0  0  0  0
    2.5050   46.0560   53.1830 C   0  0  0  0  0  0  0  0  0  0  0  0
    3.7090   46.4630   53.6180 N   0  0  0  0  0  0  0  0  0  0  0  0
    4.5550   47.4830   53.0130 C   0  0  0  0  0  0  0  0  0  0  0  0
    5.7650   46.8390   52.3900 C   0  0  0  0  0  0  0  0  0  0  0  0
    7.0410   47.0880   52.9150 C   0  0  0  0  0  0  0  0  0  0  0  0
    8.1670   46.5200   52.3040 C   0  0  0  0  0  0  0  0  0  0  0  0
    9.5390   46.7770   52.8550 C   0  0  0  0  0  0  0  0  0  0  0  0
   10.4700   46.8420   51.8320 F   0  0  0  0  0  0  0  0  0  0  0  0
    9.8940   45.7570   53.7190 F   0  0  0  0  0  0  0  0  0  0  0  0
    9.5450   47.9780   53.5410 F   0  0  0  0  0  0  0  0  0  0  0  0
    8.0100   45.7420   51.1970 N   0  0  0  0  0  0  0  0  0  0  0  0
    6.7880   45.4960   50.6590 C   0  0  0  0  0  0  0  0  0  0  0  0
    5.6420   46.0430   51.2400 C   0  0  0  0  0  0  0  0  0  0  0  0
    4.4270   45.8030   50.6830 F   0  0  0  0  0  0  0  0  0  0  0  0
    4.0560   45.7220   54.6590 N   0  0  0  0  0  0  0  0  0  0  0  0
    3.1010   44.8430   54.9360 N   0  0  0  0  0  0  0  0  0  0  0  0
    2.9083   42.3797   51.5478 H   0  0  0  0  0  0  0  0  0  0  0  0
    1.8193   41.8763   50.2109 H   0  0  0  0  0  0  0  0  0  0  0  0
    2.5403   43.5215   50.2109 H   0  0  0  0  0  0  0  0  0  0  0  0
    0.8858   44.3390   51.4938 H   0  0  0  0  0  0  0  0  0  0  0  0
    0.0482   42.7222   51.2265 H   0  0  0  0  0  0  0  0  0  0  0  0
   -0.2788   41.9220   54.6260 H   0  0  0  0  0  0  0  0  0  0  0  0
   -1.1452   42.3673   53.1168 H   0  0  0  0  0  0  0  0  0  0  0  0
    0.0097   40.9915   53.1168 H   0  0  0  0  0  0  0  0  0  0  0  0
    2.8200   42.9880   53.7310 H   0  0  0  0  0  0  0  0  0  0  0  0
    0.0632   44.9018   53.5284 H   0  0  0  0  0  0  0  0  0  0  0  0
    0.5811   43.9886   55.0155 H   0  0  0  0  0  0  0  0  0  0  0  0
    1.9376   46.4584   52.3308 H   0  0  0  0  0  0  0  0  0  0  0  0
    3.9857   48.0168   52.2378 H   0  0  0  0  0  0  0  0  0  0  0  0
    4.8801   48.1919   53.7887 H   0  0  0  0  0  0  0  0  0  0  0  0
    7.1578   47.7267   53.8030 H   0  0  0  0  0  0  0  0  0  0  0  0
    6.7004   44.8640   49.7629 H   0  0  0  0  0  0  0  0  0  0  0  0
  1  2  1  0
  2  3  1  0
  3  4  1  0
  3  5  1  1
  3  6  1  0
  6  7  1  0
  7  8  2  0
  8  9  1  0
  9 10  1  0
 10 11  1  0
 11 12  2  0
 12 13  1  0
 13 14  1  0
 14 15  1  0
 14 16  1  0
 14 17  1  0
 13 18  2  0
 18 19  1  0
 19 20  2  0
 20 21  1  0
  9 22  1  0
 22 23  2  0
 23  7  1  0
 20 11  1  0
  1 24  1  0
  1 25  1  0
  1 26  1  0
  2 27  1  0
  2 28  1  0
  4 29  1  0
  4 30  1  0
  4 31  1  0
  5 32  1  0
  6 33  1  0
  6 34  1  0
  8 35  1  0
 10 36  1  0
 10 37  1  0
 12 38  1  0
 19 39  1  0
M  END
>  <meeko>  (2) 
{"is_sidechain": [false], "free_energy": -8.141, "intermolecular_energy": -10.93, "internal_energy": -0.975}

$$$$
ligand_76_conformer_2_docked
     RDKit          3D

 39 40  0  0  0  0  0  0  0  0999 V2000
   10.4510   46.0000   51.8600 C   0  0  0  0  0  0  0  0  0  0  0  0
    9.7650   46.5620   53.1110 C   0  0  0  0  0  0  0  0  0  0  0  0
    8.2780   46.9850   52.9200 C   0  0  1  0  0  0  0  0  0  0  0  0
    8.1960   48.3770   52.2630 C   0  0  0  0  0  0  0  0  0  0  0  0
    7.6700   46.0700   52.0360 O   0  0  0  0  0  0  0  0  0  0  0  0
    7.5190   46.9840   54.2780 C   0  0  0  0  0  0  0  0  0  0  0  0
    6.0490   46.7320   54.1180 C   0  0  0  0  0  0  0  0  0  0  0  0
    5.3300   45.6790   54.6410 C   0  0  0  0  0  0  0  0  0  0  0  0
    4.0540   45.8880   54.2780 N   0  0  0  0  0  0  0  0  0  0  0  0
    2.9190   45.0100   54.5360 C   0  0  0  0  0  0  0  0  0  0  0  0
    2.5010   44.3290   53.2600 C   0  0  0  0  0  0  0  0  0  0  0  0
    3.3940   43.4750   52.5960 C   0  0  0  0  0  0  0  0  0  0  0  0
    3.0140   42.8780   51.3860 C   0  0  0  0  0  0  0  0  0  0  0  0
    3.9580   41.9620   50.6640 C   0  0  0  0  0  0  0  0  0  0  0  0
    4.4870   41.0230   51.5350 F   0  0  0  0  0  0  0  0  0  0  0  0
    4.9940   42.6970   50.1170 F   0  0  0  0  0  0  0  0  0  0  0  0
    3.2820   41.3040   49.6530 F   0  0  0  0  0  0  0  0  0  0  0  0
    1.7860   43.1440   50.8620 N   0  0  0  0  0  0  0  0  0  0  0  0
    0.9070   43.9780   51.4770 C   0  0  0  0  0  0  0  0  0  0  0  0
    1.2480   44.5910   52.6840 C   0  0  0  0  0  0  0  0  0  0  0  0
    0.3680   45.4350   53.2800 F   0  0  0  0  0  0  0  0  0  0  0  0
    3.9940   47.0000   53.5620 N   0  0  0  0  0  0  0  0  0  0  0  0
    5.2000   47.5440   53.4560 N   0  0  0  0  0  0  0  0  0  0  0  0
   11.2695   45.3294   52.1606 H   0  0  0  0  0  0  0  0  0  0  0  0
    9.7186   45.4389   51.2610 H   0  0  0  0  0  0  0  0  0  0  0  0
   10.8570   46.8285   51.2610 H   0  0  0  0  0  0  0  0  0  0  0  0
    9.8012   45.7905   53.8943 H   0  0  0  0  0  0  0  0  0  0  0  0
   10.3119   47.4801   53.3720 H   0  0  0  0  0  0  0  0  0  0  0  0
    8.1505   49.1494   53.0449 H   0  0  0  0  0  0  0  0  0  0  0  0
    9.0861   48.5403   51.6376 H   0  0  0  0  0  0  0  0  0  0  0  0
    7.2929   48.4347   51.6376 H   0  0  0  0  0  0  0  0  0  0  0  0
    8.3310   45.8390   51.3300 H   0  0  0  0  0  0  0  0  0  0  0  0
    7.9436   46.1967   54.9182 H   0  0  0  0  0  0  0  0  0  0  0  0
    7.6388   47.9811   54.7269 H   0  0  0  0  0  0  0  0  0  0  0  0
    5.7211   44.8393   55.2343 H   0  0  0  0  0  0  0  0  0  0  0  0
    3.2060   44.2506   55.2782 H   0  0  0  0  0  0  0  0  0  0  0  0
    2.0789   45.6061   54.9217 H   0  0  0  0  0  0  0  0  0  0  0  0
    4.3878   43.2747   53.0228 H   0  0  0  0  0  0  0  0  0  0  0  0
   -0.0760   44.1707   51.0225 H   0  0  0  0  0  0  0  0  0  0  0  0
  1  2  1  0
  2  3  1  0
  3  4  1  0
  3  5  1  6
  3  6  1  0
  6  7  1  0
  7  8  2  0
  8  9  1  0
  9 10  1  0
 10 11  1  0
 11 12  2  0
 12 13  1  0
 13 14  1  0
 14 15  1  0
 14 16  1  0
 14 17  1  0
 13 18  2  0
 18 19  1  0
 19 20  2  0
 20 21  1  0
  9 22  1  0
 22 23  2  0
 23  7  1  0
 20 11  1  0
  1 24  1  0
  1 25  1  0
  1 26  1  0
  2 27  1  0
  2 28  1  0
  4 29  1  0
  4 30  1  0
  4 31  1  0
  5 32  1  0
  6 33  1  0
  6 34  1  0
  8 35  1  0
 10 36  1  0
 10 37  1  0
 12 38  1  0
 19 39  1  0
M  END
>  <meeko>  (3) 
{"is_sidechain": [false], "free_energy": -7.738, "intermolecular_energy": -10.529, "internal_energy": -0.82}

$$$$
ligand_76_conformer_2_docked
     RDKit          3D

 39 40  0  0  0  0  0  0  0  0999 V2000
   -0.9860   43.8750   54.7700 C   0  0  0  0  0  0  0  0  0  0  0  0
    0.1210   43.8800   53.7090 C   0  0  0  0  0  0  0  0  0  0  0  0
   -0.2680   44.5220   52.3450 C   0  0  1  0  0  0  0  0  0  0  0  0
   -1.7710   44.3180   52.0660 C   0  0  0  0  0  0  0  0  0  0  0  0
   -0.0450   45.9120   52.4330 O   0  0  0  0  0  0  0  0  0  0  0  0
    0.5810   43.9270   51.1860 C   0  0  0  0  0  0  0  0  0  0  0  0
    1.9990   44.4170   51.1970 C   0  0  0  0  0  0  0  0  0  0  0  0
    3.1230   43.6850   51.5140 C   0  0  0  0  0  0  0  0  0  0  0  0
    4.1640   44.5190   51.3480 N   0  0  0  0  0  0  0  0  0  0  0  0
    5.5650   44.2280   51.6250 C   0  0  0  0  0  0  0  0  0  0  0  0
    6.0880   45.1830   52.6640 C   0  0  0  0  0  0  0  0  0  0  0  0
    7.1100   46.0860   52.3360 C   0  0  0  0  0  0  0  0  0  0  0  0
    7.6230   46.9420   53.3210 C   0  0  0  0  0  0  0  0  0  0  0  0
    8.7160   47.9130   52.9850 C   0  0  0  0  0  0  0  0  0  0  0  0
    9.6820   47.3070   52.1990 F   0  0  0  0  0  0  0  0  0  0  0  0
    9.3090   48.3690   54.1480 F   0  0  0  0  0  0  0  0  0  0  0  0
    8.1860   48.9870   52.2930 F   0  0  0  0  0  0  0  0  0  0  0  0
    7.1310   46.8790   54.5890 N   0  0  0  0  0  0  0  0  0  0  0  0
    6.1510   46.0050   54.9370 C   0  0  0  0  0  0  0  0  0  0  0  0
    5.6140   45.1360   53.9850 C   0  0  0  0  0  0  0  0  0  0  0  0
    4.6470   44.2560   54.3490 F   0  0  0  0  0  0  0  0  0  0  0  0
    3.7040   45.6990   50.9630 N   0  0  0  0  0  0  0  0  0  0  0  0
    2.3820   45.6640   50.8530 N   0  0  0  0  0  0  0  0  0  0  0  0
   -0.5331   43.8770   55.7724 H   0  0  0  0  0  0  0  0  0  0  0  0
   -1.6136   44.7703   54.6494 H   0  0  0  0  0  0  0  0  0  0  0  0
   -1.6055   42.9740   54.6494 H   0  0  0  0  0  0  0  0  0  0  0  0
    0.9782   44.4373   54.1148 H   0  0  0  0  0  0  0  0  0  0  0  0
    0.3430   42.8239   53.4959 H   0  0  0  0  0  0  0  0  0  0  0  0
   -2.3142   44.2443   53.0196 H   0  0  0  0  0  0  0  0  0  0  0  0
   -2.1562   45.1721   51.4897 H   0  0  0  0  0  0  0  0  0  0  0  0
   -1.9146   43.3921   51.4897 H   0  0  0  0  0  0  0  0  0  0  0  0
   -0.8060   46.3150   52.9290 H   0  0  0  0  0  0  0  0  0  0  0  0
    0.5865   42.8311   51.2804 H   0  0  0  0  0  0  0  0  0  0  0  0
    0.1245   44.2512   50.2391 H   0  0  0  0  0  0  0  0  0  0  0  0
    3.1605   42.6340   51.8366 H   0  0  0  0  0  0  0  0  0  0  0  0
    5.6572   43.1970   51.9972 H   0  0  0  0  0  0  0  0  0  0  0  0
    6.1494   44.3417   50.7001 H   0  0  0  0  0  0  0  0  0  0  0  0
    7.5072   46.1225   51.3109 H   0  0  0  0  0  0  0  0  0  0  0  0
    5.7793   45.9818   55.9720 H   0  0  0  0  0  0  0  0  0  0  0  0
  1  2  1  0
  2  3  1  0
  3  4  1  0
  3  5  1  1
  3  6  1  0
  6  7  1  0
  7  8  2  0
  8  9  1  0
  9 10  1  0
 10 11  1  0
 11 12  2  0
 12 13  1  0
 13 14  1  0
 14 15  1  0
 14 16  1  0
 14 17  1  0
 13 18  2  0
 18 19  1  0
 19 20  2  0
 20 21  1  0
  9 22  1  0
 22 23  2  0
 23  7  1  0
 20 11  1  0
  1 24  1  0
  1 25  1  0
  1 26  1  0
  2 27  1  0
  2 28  1  0
  4 29  1  0
  4 30  1  0
  4 31  1  0
  5 32  1  0
  6 33  1  0
  6 34  1  0
  8 35  1  0
 10 36  1  0
 10 37  1  0
 12 38  1  0
 19 39  1  0
M  END
>  <meeko>  (4) 
{"is_sidechain": [false], "free_energy": -7.712, "intermolecular_energy": -10.388, "internal_energy": -0.924}

$$$$
ligand_76_conformer_2_docked
     RDKit          3D

 39 40  0  0  0  0  0  0  0  0999 V2000
   10.2690   45.7850   51.8140 C   0  0  0  0  0  0  0  0  0  0  0  0
    9.6860   47.1920   51.9930 C   0  0  0  0  0  0  0  0  0  0  0  0
    8.7420   47.3690   53.2180 C   0  0  1  0  0  0  0  0  0  0  0  0
    9.5660   47.5680   54.5060 C   0  0  0  0  0  0  0  0  0  0  0  0
    7.9830   48.5410   53.0220 O   0  0  0  0  0  0  0  0  0  0  0  0
    7.7910   46.1480   53.3700 C   0  0  0  0  0  0  0  0  0  0  0  0
    6.3500   46.5480   53.4930 C   0  0  0  0  0  0  0  0  0  0  0  0
    5.3300   46.2400   52.6200 C   0  0  0  0  0  0  0  0  0  0  0  0
    4.2160   46.7700   53.1530 N   0  0  0  0  0  0  0  0  0  0  0  0
    2.8830   46.7680   52.5650 C   0  0  0  0  0  0  0  0  0  0  0  0
    2.0820   45.6210   53.1190 C   0  0  0  0  0  0  0  0  0  0  0  0
    1.3690   45.7770   54.3170 C   0  0  0  0  0  0  0  0  0  0  0  0
    0.6600   44.6910   54.8500 C   0  0  0  0  0  0  0  0  0  0  0  0
   -0.1070   44.8430   56.1310 C   0  0  0  0  0  0  0  0  0  0  0  0
   -0.8080   46.0370   56.1400 F   0  0  0  0  0  0  0  0  0  0  0  0
    0.7670   44.8290   57.2030 F   0  0  0  0  0  0  0  0  0  0  0  0
   -1.0030   43.7980   56.2600 F   0  0  0  0  0  0  0  0  0  0  0  0
    0.6830   43.4920   54.2050 N   0  0  0  0  0  0  0  0  0  0  0  0
    1.3760   43.3090   53.0510 C   0  0  0  0  0  0  0  0  0  0  0  0
    2.0930   44.3670   52.4880 C   0  0  0  0  0  0  0  0  0  0  0  0
    2.7950   44.1670   51.3440 F   0  0  0  0  0  0  0  0  0  0  0  0
    4.5370   47.3780   54.2850 N   0  0  0  0  0  0  0  0  0  0  0  0
    5.8350   47.2500   54.5230 N   0  0  0  0  0  0  0  0  0  0  0  0
   10.4547   45.3367   52.8012 H   0  0  0  0  0  0  0  0  0  0  0  0
    9.5555   45.1607   51.2562 H   0  0  0  0  0  0  0  0  0  0  0  0
   11.2150   45.8483   51.2562 H   0  0  0  0  0  0  0  0  0  0  0  0
   10.5241   47.8956   52.1051 H   0  0  0  0  0  0  0  0  0  0  0  0
    9.0684   47.3813   51.1027 H   0  0  0  0  0  0  0  0  0  0  0  0
    8.9198   47.4120   55.3824 H   0  0  0  0  0  0  0  0  0  0  0  0
   10.3938   46.8440   54.5272 H   0  0  0  0  0  0  0  0  0  0  0  0
    9.9721   48.5901   54.5272 H   0  0  0  0  0  0  0  0  0  0  0  0
    7.7670   48.9200   53.9150 H   0  0  0  0  0  0  0  0  0  0  0  0
    7.9029   45.5027   52.4862 H   0  0  0  0  0  0  0  0  0  0  0  0
    8.0701   45.6227   54.2953 H   0  0  0  0  0  0  0  0  0  0  0  0
    5.4108   45.6758   51.6792 H   0  0  0  0  0  0  0  0  0  0  0  0
    2.3773   47.7153   52.8038 H   0  0  0  0  0  0  0  0  0  0  0  0
    2.9681   46.6574   51.4739 H   0  0  0  0  0  0  0  0  0  0  0  0
    1.3661   46.7469   54.8359 H   0  0  0  0  0  0  0  0  0  0  0  0
    1.3724   42.3252   52.5589 H   0  0  0  0  0  0  0  0  0  0  0  0
  1  2  1  0
  2  3  1  0
  3  4  1  0
  3  5  1  6
  3  6  1  0
  6  7  1  0
  7  8  2  0
  8  9  1  0
  9 10  1  0
 10 11  1  0
 11 12  2  0
 12 13  1  0
 13 14  1  0
 14 15  1  0
 14 16  1  0
 14 17  1  0
 13 18  2  0
 18 19  1  0
 19 20  2  0
 20 21  1  0
  9 22  1  0
 22 23  2  0
 23  7  1  0
 20 11  1  0
  1 24  1  0
  1 25  1  0
  1 26  1  0
  2 27  1  0
  2 28  1  0
  4 29  1  0
  4 30  1  0
  4 31  1  0
  5 32  1  0
  6 33  1  0
  6 34  1  0
  8 35  1  0
 10 36  1  0
 10 37  1  0
 12 38  1  0
 19 39  1  0
M  END
>  <meeko>  (5) 
{"is_sidechain": [false], "free_energy": -7.54, "intermolecular_energy": -10.163, "internal_energy": -0.913}

$$$$
