ligand_63_conformer_2_docked
     RDKit          3D

 56 57  0  0  0  0  0  0  0  0999 V2000
   -3.2370   42.9460   57.5480 C   0  0  0  0  0  0  0  0  0  0  0  0
   -2.9340   43.7280   56.3980 O   0  0  0  0  0  0  0  0  0  0  0  0
   -1.6390   44.1060   56.0140 C   0  0  0  0  0  0  0  0  0  0  0  0
   -0.8220   44.9270   56.8150 C   0  0  0  0  0  0  0  0  0  0  0  0
    0.4750   45.2750   56.3890 C   0  0  0  0  0  0  0  0  0  0  0  0
    1.3280   46.0830   57.1570 O   0  0  0  0  0  0  0  0  0  0  0  0
    0.9300   46.7950   58.3230 C   0  0  0  0  0  0  0  0  0  0  0  0
    0.9420   44.8020   55.1590 C   0  0  0  0  0  0  0  0  0  0  0  0
    0.1380   43.9820   54.3590 C   0  0  0  0  0  0  0  0  0  0  0  0
    0.7530   43.3180   52.8470 S   0  0  0  0  0  0  0  0  0  0  0  0
   -0.1630   42.2160   52.3960 O   0  0  0  0  0  0  0  0  0  0  0  0
    0.8090   44.3760   51.7810 O   0  0  0  0  0  0  0  0  0  0  0  0
    2.3490   42.6780   53.0950 N   0  0  0  0  0  0  0  0  0  0  0  0
    3.5280   43.2450   52.4930 C   0  0  0  0  0  0  0  0  0  0  0  0
    4.2650   44.2440   53.1520 C   0  0  0  0  0  0  0  0  0  0  0  0
    5.4280   44.7710   52.5820 C   0  0  0  0  0  0  0  0  0  0  0  0
    6.3410   45.9970   53.4550 S   0  0  0  0  0  0  0  0  0  0  0  0
    5.8620   47.3400   52.9810 O   0  0  0  0  0  0  0  0  0  0  0  0
    6.0680   45.9070   54.9310 O   0  0  0  0  0  0  0  0  0  0  0  0
    8.0610   45.8920   53.1550 N   0  0  0  0  0  0  0  0  0  0  0  0
    8.8210   47.1650   53.0660 C   0  0  0  0  0  0  0  0  0  0  0  0
   10.2270   46.8090   52.5460 C   0  0  0  0  0  0  0  0  0  0  0  0
    8.1850   48.1540   52.0660 C   0  0  0  0  0  0  0  0  0  0  0  0
    8.9790   47.8430   54.4470 C   0  0  0  0  0  0  0  0  0  0  0  0
    5.8530   44.3160   51.3300 C   0  0  0  0  0  0  0  0  0  0  0  0
    5.1170   43.3430   50.6510 C   0  0  0  0  0  0  0  0  0  0  0  0
    3.9510   42.7970   51.2240 C   0  0  0  0  0  0  0  0  0  0  0  0
    3.2020   41.8060   50.5680 O   0  0  0  0  0  0  0  0  0  0  0  0
    3.7410   40.8550   49.6560 C   0  0  0  0  0  0  0  0  0  0  0  0
   -1.1490   43.6410   54.7890 C   0  0  0  0  0  0  0  0  0  0  0  0
   -3.0123   43.5259   58.4553 H   0  0  0  0  0  0  0  0  0  0  0  0
   -4.3039   42.6784   57.5387 H   0  0  0  0  0  0  0  0  0  0  0  0
   -2.6290   42.0294   57.5387 H   0  0  0  0  0  0  0  0  0  0  0  0
   -1.1988   45.2989   57.7792 H   0  0  0  0  0  0  0  0  0  0  0  0
    1.2421   46.2367   59.2179 H   0  0  0  0  0  0  0  0  0  0  0  0
    1.4041   47.7876   58.3262 H   0  0  0  0  0  0  0  0  0  0  0  0
   -0.1638   46.9111   58.3262 H   0  0  0  0  0  0  0  0  0  0  0  0
    1.9507   45.0769   54.8169 H   0  0  0  0  0  0  0  0  0  0  0  0
    2.4450   41.9270   53.8140 H   0  0  0  0  0  0  0  0  0  0  0  0
    3.9225   44.6161   54.1288 H   0  0  0  0  0  0  0  0  0  0  0  0
    8.4730   45.2850   53.9020 H   0  0  0  0  0  0  0  0  0  0  0  0
   10.9009   46.6384   53.3985 H   0  0  0  0  0  0  0  0  0  0  0  0
   10.1715   45.8966   51.9341 H   0  0  0  0  0  0  0  0  0  0  0  0
   10.6124   47.6379   51.9341 H   0  0  0  0  0  0  0  0  0  0  0  0
    7.6705   48.9540   52.6185 H   0  0  0  0  0  0  0  0  0  0  0  0
    8.9711   48.5922   51.4334 H   0  0  0  0  0  0  0  0  0  0  0  0
    7.4602   47.6206   51.4334 H   0  0  0  0  0  0  0  0  0  0  0  0
    8.8063   47.1018   55.2413 H   0  0  0  0  0  0  0  0  0  0  0  0
    9.9963   48.2509   54.5410 H   0  0  0  0  0  0  0  0  0  0  0  0
    8.2468   48.6585   54.5410 H   0  0  0  0  0  0  0  0  0  0  0  0
    6.7690   44.7254   50.8791 H   0  0  0  0  0  0  0  0  0  0  0  0
    5.4501   42.9997   49.6604 H   0  0  0  0  0  0  0  0  0  0  0  0
    4.2074   40.0321   50.2174 H   0  0  0  0  0  0  0  0  0  0  0  0
    2.9347   40.4562   49.0229 H   0  0  0  0  0  0  0  0  0  0  0  0
    4.4974   41.3419   49.0229 H   0  0  0  0  0  0  0  0  0  0  0  0
   -1.7821   43.0006   54.1573 H   0  0  0  0  0  0  0  0  0  0  0  0
  1  2  1  0
  2  3  1  0
  3  4  2  0
  4  5  1  0
  5  6  1  0
  6  7  1  0
  5  8  2  0
  8  9  1  0
  9 10  1  0
 10 11  2  0
 10 12  2  0
 10 13  1  0
 13 14  1  0
 14 15  2  0
 15 16  1  0
 16 17  1  0
 17 18  2  0
 17 19  2  0
 17 20  1  0
 20 21  1  0
 21 22  1  0
 21 23  1  0
 21 24  1  0
 16 25  2  0
 25 26  1  0
 26 27  2  0
 27 28  1  0
 28 29  1  0
  9 30  2  0
 30  3  1  0
 27 14  1  0
  1 31  1  0
  1 32  1  0
  1 33  1  0
  4 34  1  0
  7 35  1  0
  7 36  1  0
  7 37  1  0
  8 38  1  0
 13 39  1  0
 15 40  1  0
 20 41  1  0
 22 42  1  0
 22 43  1  0
 22 44  1  0
 23 45  1  0
 23 46  1  0
 23 47  1  0
 24 48  1  0
 24 49  1  0
 24 50  1  0
 25 51  1  0
 26 52  1  0
 29 53  1  0
 29 54  1  0
 29 55  1  0
 30 56  1  0
M  END
>  <meeko>  (1) 
{"is_sidechain": [false], "free_energy": -8.478, "intermolecular_energy": -12.938, "internal_energy": -0.298}

$$$$
ligand_63_conformer_2_docked
     RDKit          3D

 56 57  0  0  0  0  0  0  0  0999 V2000
    0.9560   46.9520   58.6560 C   0  0  0  0  0  0  0  0  0  0  0  0
    1.3180   46.3260   57.4290 O   0  0  0  0  0  0  0  0  0  0  0  0
    0.4710   45.4940   56.6820 C   0  0  0  0  0  0  0  0  0  0  0  0
   -0.8280   45.1580   57.1090 C   0  0  0  0  0  0  0  0  0  0  0  0
   -1.6440   44.3230   56.3210 C   0  0  0  0  0  0  0  0  0  0  0  0
   -2.9470   43.9680   56.7010 O   0  0  0  0  0  0  0  0  0  0  0  0
   -3.2620   43.1100   57.7930 C   0  0  0  0  0  0  0  0  0  0  0  0
   -1.1490   43.8280   55.1100 C   0  0  0  0  0  0  0  0  0  0  0  0
    0.1390   44.1610   54.6760 C   0  0  0  0  0  0  0  0  0  0  0  0
    0.7340   43.6050   53.1140 S   0  0  0  0  0  0  0  0  0  0  0  0
   -0.1880   42.5350   52.6000 O   0  0  0  0  0  0  0  0  0  0  0  0
    0.7750   44.7340   52.1230 O   0  0  0  0  0  0  0  0  0  0  0  0
    2.3330   42.9510   53.2960 N   0  0  0  0  0  0  0  0  0  0  0  0
    3.5000   43.5480   52.7000 C   0  0  0  0  0  0  0  0  0  0  0  0
    4.2890   44.4630   53.4200 C   0  0  0  0  0  0  0  0  0  0  0  0
    5.4410   45.0170   52.8540 C   0  0  0  0  0  0  0  0  0  0  0  0
    6.4200   46.1340   53.8000 S   0  0  0  0  0  0  0  0  0  0  0  0
    5.9770   47.5270   53.4530 O   0  0  0  0  0  0  0  0  0  0  0  0
    6.1810   45.9290   55.2700 O   0  0  0  0  0  0  0  0  0  0  0  0
    8.1270   45.9960   53.4440 N   0  0  0  0  0  0  0  0  0  0  0  0
    8.8910   47.2550   53.2540 C   0  0  0  0  0  0  0  0  0  0  0  0
   10.2580   46.8610   52.6610 C   0  0  0  0  0  0  0  0  0  0  0  0
    8.2020   48.2100   52.2570 C   0  0  0  0  0  0  0  0  0  0  0  0
    9.1430   47.9860   54.5930 C   0  0  0  0  0  0  0  0  0  0  0  0
    5.8030   44.6760   51.5470 C   0  0  0  0  0  0  0  0  0  0  0  0
    5.0160   43.7890   50.8100 C   0  0  0  0  0  0  0  0  0  0  0  0
    3.8610   43.2150   51.3780 C   0  0  0  0  0  0  0  0  0  0  0  0
    3.0610   42.3090   50.6630 O   0  0  0  0  0  0  0  0  0  0  0  0
    3.5440   41.1300   50.0270 C   0  0  0  0  0  0  0  0  0  0  0  0
    0.9430   44.9900   55.4660 C   0  0  0  0  0  0  0  0  0  0  0  0
    1.3101   46.3397   59.4984 H   0  0  0  0  0  0  0  0  0  0  0  0
    1.4167   47.9495   58.7086 H   0  0  0  0  0  0  0  0  0  0  0  0
   -0.1383   47.0503   58.7086 H   0  0  0  0  0  0  0  0  0  0  0  0
   -1.2079   45.5501   58.0640 H   0  0  0  0  0  0  0  0  0  0  0  0
   -3.0690   43.6356   58.7398 H   0  0  0  0  0  0  0  0  0  0  0  0
   -4.3233   42.8253   57.7414 H   0  0  0  0  0  0  0  0  0  0  0  0
   -2.6370   42.2063   57.7414 H   0  0  0  0  0  0  0  0  0  0  0  0
   -1.7785   43.1703   54.4926 H   0  0  0  0  0  0  0  0  0  0  0  0
    2.4420   42.1620   53.9710 H   0  0  0  0  0  0  0  0  0  0  0  0
    3.9959   44.7464   54.4416 H   0  0  0  0  0  0  0  0  0  0  0  0
    8.5620   45.4290   54.2080 H   0  0  0  0  0  0  0  0  0  0  0  0
   10.9666   46.6568   53.4772 H   0  0  0  0  0  0  0  0  0  0  0  0
   10.1428   45.9595   52.0413 H   0  0  0  0  0  0  0  0  0  0  0  0
   10.6402   47.6855   52.0413 H   0  0  0  0  0  0  0  0  0  0  0  0
    7.6462   48.9804   52.8116 H   0  0  0  0  0  0  0  0  0  0  0  0
    8.9627   48.6907   51.6243 H   0  0  0  0  0  0  0  0  0  0  0  0
    7.5059   47.6397   51.6243 H   0  0  0  0  0  0  0  0  0  0  0  0
    8.9101   47.3103   55.4291 H   0  0  0  0  0  0  0  0  0  0  0  0
   10.1982   48.2912   54.6512 H   0  0  0  0  0  0  0  0  0  0  0  0
    8.5000   48.8766   54.6512 H   0  0  0  0  0  0  0  0  0  0  0  0
    6.7099   45.1076   51.0985 H   0  0  0  0  0  0  0  0  0  0  0  0
    5.2997   43.5362   49.7777 H   0  0  0  0  0  0  0  0  0  0  0  0
    3.8440   40.3978   50.7911 H   0  0  0  0  0  0  0  0  0  0  0  0
    2.7495   40.7003   49.3993 H   0  0  0  0  0  0  0  0  0  0  0  0
    4.4117   41.3812   49.3993 H   0  0  0  0  0  0  0  0  0  0  0  0
    1.9571   45.2480   55.1269 H   0  0  0  0  0  0  0  0  0  0  0  0
  1  2  1  0
  2  3  1  0
  3  4  2  0
  4  5  1  0
  5  6  1  0
  6  7  1  0
  5  8  2  0
  8  9  1  0
  9 10  1  0
 10 11  2  0
 10 12  2  0
 10 13  1  0
 13 14  1  0
 14 15  2  0
 15 16  1  0
 16 17  1  0
 17 18  2  0
 17 19  2  0
 17 20  1  0
 20 21  1  0
 21 22  1  0
 21 23  1  0
 21 24  1  0
 16 25  2  0
 25 26  1  0
 26 27  2  0
 27 28  1  0
 28 29  1  0
  9 30  2  0
 30  3  1  0
 27 14  1  0
  1 31  1  0
  1 32  1  0
  1 33  1  0
  4 34  1  0
  7 35  1  0
  7 36  1  0
  7 37  1  0
  8 38  1  0
 13 39  1  0
 15 40  1  0
 20 41  1  0
 22 42  1  0
 22 43  1  0
 22 44  1  0
 23 45  1  0
 23 46  1  0
 23 47  1  0
 24 48  1  0
 24 49  1  0
 24 50  1  0
 25 51  1  0
 26 52  1  0
 29 53  1  0
 29 54  1  0
 29 55  1  0
 30 56  1  0
M  END
>  <meeko>  (2) 
{"is_sidechain": [false], "free_energy": -8.384, "intermolecular_energy": -12.8, "internal_energy": -0.294}

$$$$
ligand_63_conformer_2_docked
     RDKit          3D

 56 57  0  0  0  0  0  0  0  0999 V2000
    4.8670   46.0990   55.0430 C   0  0  0  0  0  0  0  0  0  0  0  0
    3.6280   46.1370   55.7440 O   0  0  0  0  0  0  0  0  0  0  0  0
    2.4730   45.4450   55.3510 C   0  0  0  0  0  0  0  0  0  0  0  0
    1.2840   45.4690   56.1060 C   0  0  0  0  0  0  0  0  0  0  0  0
    0.1470   44.7620   55.6680 C   0  0  0  0  0  0  0  0  0  0  0  0
   -1.0610   44.7620   56.3810 O   0  0  0  0  0  0  0  0  0  0  0  0
   -2.2070   43.9960   56.0260 C   0  0  0  0  0  0  0  0  0  0  0  0
    0.2120   44.0320   54.4760 C   0  0  0  0  0  0  0  0  0  0  0  0
    1.3880   44.0080   53.7180 C   0  0  0  0  0  0  0  0  0  0  0  0
    1.4470   43.1560   52.1760 S   0  0  0  0  0  0  0  0  0  0  0  0
    0.2440   42.2610   52.0740 O   0  0  0  0  0  0  0  0  0  0  0  0
    1.4350   44.1250   51.0280 O   0  0  0  0  0  0  0  0  0  0  0  0
    2.8910   42.1950   52.0930 N   0  0  0  0  0  0  0  0  0  0  0  0
    4.0740   42.6110   51.3840 C   0  0  0  0  0  0  0  0  0  0  0  0
    4.6790   43.8510   51.6550 C   0  0  0  0  0  0  0  0  0  0  0  0
    5.8450   44.2400   50.9910 C   0  0  0  0  0  0  0  0  0  0  0  0
    6.5900   45.7870   51.3830 S   0  0  0  0  0  0  0  0  0  0  0  0
    7.3410   46.2470   50.1660 O   0  0  0  0  0  0  0  0  0  0  0  0
    5.5380   46.8160   51.6900 O   0  0  0  0  0  0  0  0  0  0  0  0
    7.7210   45.6690   52.7120 N   0  0  0  0  0  0  0  0  0  0  0  0
    8.7660   46.7180   52.8190 C   0  0  0  0  0  0  0  0  0  0  0  0
    9.1110   46.8530   54.3150 C   0  0  0  0  0  0  0  0  0  0  0  0
   10.0590   46.3320   52.0700 C   0  0  0  0  0  0  0  0  0  0  0  0
    8.2600   48.0920   52.3190 C   0  0  0  0  0  0  0  0  0  0  0  0
    6.4080   43.3960   50.0280 C   0  0  0  0  0  0  0  0  0  0  0  0
    5.8050   42.1740   49.7290 C   0  0  0  0  0  0  0  0  0  0  0  0
    4.6360   41.7670   50.4040 C   0  0  0  0  0  0  0  0  0  0  0  0
    4.0190   40.5350   50.1320 O   0  0  0  0  0  0  0  0  0  0  0  0
    3.5630   40.1230   48.8480 C   0  0  0  0  0  0  0  0  0  0  0  0
    2.5130   44.7120   54.1610 C   0  0  0  0  0  0  0  0  0  0  0  0
    5.6963   46.0736   55.7652 H   0  0  0  0  0  0  0  0  0  0  0  0
    4.9033   45.1993   54.4111 H   0  0  0  0  0  0  0  0  0  0  0  0
    4.9584   46.9948   54.4111 H   0  0  0  0  0  0  0  0  0  0  0  0
    1.2431   46.0433   57.0433 H   0  0  0  0  0  0  0  0  0  0  0  0
   -2.7172   43.6549   56.9389 H   0  0  0  0  0  0  0  0  0  0  0  0
   -2.8938   44.6172   55.4324 H   0  0  0  0  0  0  0  0  0  0  0  0
   -1.8956   43.1238   55.4324 H   0  0  0  0  0  0  0  0  0  0  0  0
   -0.6697   43.4717   54.1315 H   0  0  0  0  0  0  0  0  0  0  0  0
    2.9200   41.3410   52.6940 H   0  0  0  0  0  0  0  0  0  0  0  0
    4.2283   44.5236   52.3996 H   0  0  0  0  0  0  0  0  0  0  0  0
    7.1630   45.6330   53.5960 H   0  0  0  0  0  0  0  0  0  0  0  0
    8.2556   46.5183   54.9202 H   0  0  0  0  0  0  0  0  0  0  0  0
    9.9891   46.2321   54.5463 H   0  0  0  0  0  0  0  0  0  0  0  0
    9.3345   47.9049   54.5463 H   0  0  0  0  0  0  0  0  0  0  0  0
   10.8485   46.0963   52.7988 H   0  0  0  0  0  0  0  0  0  0  0  0
    9.8681   45.4517   51.4387 H   0  0  0  0  0  0  0  0  0  0  0  0
   10.3820   47.1729   51.4387 H   0  0  0  0  0  0  0  0  0  0  0  0
    8.0243   48.7321   53.1820 H   0  0  0  0  0  0  0  0  0  0  0  0
    9.0408   48.5707   51.7098 H   0  0  0  0  0  0  0  0  0  0  0  0
    7.3552   47.9500   51.7098 H   0  0  0  0  0  0  0  0  0  0  0  0
    7.3281   43.6964   49.5054 H   0  0  0  0  0  0  0  0  0  0  0  0
    6.2454   41.5224   48.9600 H   0  0  0  0  0  0  0  0  0  0  0  0
    2.7514   39.3897   48.9650 H   0  0  0  0  0  0  0  0  0  0  0  0
    3.1905   40.9969   48.2934 H   0  0  0  0  0  0  0  0  0  0  0  0
    4.3947   39.6640   48.2934 H   0  0  0  0  0  0  0  0  0  0  0  0
    3.4385   44.6886   53.5670 H   0  0  0  0  0  0  0  0  0  0  0  0
  1  2  1  0
  2  3  1  0
  3  4  2  0
  4  5  1  0
  5  6  1  0
  6  7  1  0
  5  8  2  0
  8  9  1  0
  9 10  1  0
 10 11  2  0
 10 12  2  0
 10 13  1  0
 13 14  1  0
 14 15  2  0
 15 16  1  0
 16 17  1  0
 17 18  2  0
 17 19  2  0
 17 20  1  0
 20 21  1  0
 21 22  1  0
 21 23  1  0
 21 24  1  0
 16 25  2  0
 25 26  1  0
 26 27  2  0
 27 28  1  0
 28 29  1  0
  9 30  2  0
 30  3  1  0
 27 14  1  0
  1 31  1  0
  1 32  1  0
  1 33  1  0
  4 34  1  0
  7 35  1  0
  7 36  1  0
  7 37  1  0
  8 38  1  0
 13 39  1  0
 15 40  1  0
 20 41  1  0
 22 42  1  0
 22 43  1  0
 22 44  1  0
 23 45  1  0
 23 46  1  0
 23 47  1  0
 24 48  1  0
 24 49  1  0
 24 50  1  0
 25 51  1  0
 26 52  1  0
 29 53  1  0
 29 54  1  0
 29 55  1  0
 30 56  1  0
M  END
>  <meeko>  (3) 
{"is_sidechain": [false], "free_energy": -8.363, "intermolecular_energy": -12.642, "internal_energy": -0.419}

$$$$
ligand_63_conformer_2_docked
     RDKit          3D

 56 57  0  0  0  0  0  0  0  0999 V2000
   -1.7980   44.0990   56.6950 C   0  0  0  0  0  0  0  0  0  0  0  0
   -0.9530   45.1860   56.3330 O   0  0  0  0  0  0  0  0  0  0  0  0
    0.2530   45.0550   55.6290 C   0  0  0  0  0  0  0  0  0  0  0  0
    1.4600   45.6190   56.0850 C   0  0  0  0  0  0  0  0  0  0  0  0
    2.6480   45.4550   55.3460 C   0  0  0  0  0  0  0  0  0  0  0  0
    3.8750   45.9920   55.7640 O   0  0  0  0  0  0  0  0  0  0  0  0
    5.1490   45.4720   55.3970 C   0  0  0  0  0  0  0  0  0  0  0  0
    2.6160   44.7280   54.1510 C   0  0  0  0  0  0  0  0  0  0  0  0
    1.4220   44.1600   53.6940 C   0  0  0  0  0  0  0  0  0  0  0  0
    1.3950   43.1760   52.2320 S   0  0  0  0  0  0  0  0  0  0  0  0
    0.2040   42.2620   52.2880 O   0  0  0  0  0  0  0  0  0  0  0  0
    1.2920   44.0410   51.0070 O   0  0  0  0  0  0  0  0  0  0  0  0
    2.8480   42.2290   52.1380 N   0  0  0  0  0  0  0  0  0  0  0  0
    4.0310   42.6690   51.4450 C   0  0  0  0  0  0  0  0  0  0  0  0
    4.6210   43.9100   51.7400 C   0  0  0  0  0  0  0  0  0  0  0  0
    5.7880   44.3230   51.0910 C   0  0  0  0  0  0  0  0  0  0  0  0
    6.5130   45.8700   51.5140 S   0  0  0  0  0  0  0  0  0  0  0  0
    7.1670   46.4160   50.2760 O   0  0  0  0  0  0  0  0  0  0  0  0
    5.4560   46.8490   51.9420 O   0  0  0  0  0  0  0  0  0  0  0  0
    7.7340   45.7220   52.7580 N   0  0  0  0  0  0  0  0  0  0  0  0
    8.8310   46.7220   52.7650 C   0  0  0  0  0  0  0  0  0  0  0  0
    9.3020   46.8560   54.2270 C   0  0  0  0  0  0  0  0  0  0  0  0
   10.0400   46.2660   51.9210 C   0  0  0  0  0  0  0  0  0  0  0  0
    8.3510   48.1120   52.2880 C   0  0  0  0  0  0  0  0  0  0  0  0
    6.3670   43.5010   50.1190 C   0  0  0  0  0  0  0  0  0  0  0  0
    5.7790   42.2770   49.7950 C   0  0  0  0  0  0  0  0  0  0  0  0
    4.6100   41.8480   50.4540 C   0  0  0  0  0  0  0  0  0  0  0  0
    4.0080   40.6130   50.1580 O   0  0  0  0  0  0  0  0  0  0  0  0
    3.5560   40.2220   48.8660 C   0  0  0  0  0  0  0  0  0  0  0  0
    0.2460   44.3290   54.4340 C   0  0  0  0  0  0  0  0  0  0  0  0
   -1.8538   44.0272   57.7912 H   0  0  0  0  0  0  0  0  0  0  0  0
   -2.8057   44.2661   56.2867 H   0  0  0  0  0  0  0  0  0  0  0  0
   -1.3875   43.1637   56.2867 H   0  0  0  0  0  0  0  0  0  0  0  0
    1.4753   46.1913   57.0243 H   0  0  0  0  0  0  0  0  0  0  0  0
    5.7244   45.2371   56.3046 H   0  0  0  0  0  0  0  0  0  0  0  0
    5.0139   44.5571   54.8015 H   0  0  0  0  0  0  0  0  0  0  0  0
    5.6927   46.2202   54.8015 H   0  0  0  0  0  0  0  0  0  0  0  0
    3.5385   44.6018   53.5652 H   0  0  0  0  0  0  0  0  0  0  0  0
    2.8800   41.3630   52.7200 H   0  0  0  0  0  0  0  0  0  0  0  0
    4.1579   44.5655   52.4922 H   0  0  0  0  0  0  0  0  0  0  0  0
    7.2420   45.7280   53.6820 H   0  0  0  0  0  0  0  0  0  0  0  0
    8.4681   46.6188   54.9041 H   0  0  0  0  0  0  0  0  0  0  0  0
   10.1327   46.1585   54.4100 H   0  0  0  0  0  0  0  0  0  0  0  0
    9.6412   47.8863   54.4100 H   0  0  0  0  0  0  0  0  0  0  0  0
   10.8579   45.9575   52.5888 H   0  0  0  0  0  0  0  0  0  0  0  0
    9.7449   45.4174   51.2863 H   0  0  0  0  0  0  0  0  0  0  0  0
   10.3789   47.0981   51.2863 H   0  0  0  0  0  0  0  0  0  0  0  0
    8.1327   48.7441   53.1614 H   0  0  0  0  0  0  0  0  0  0  0  0
    9.1383   48.5836   51.6816 H   0  0  0  0  0  0  0  0  0  0  0  0
    7.4404   47.9973   51.6816 H   0  0  0  0  0  0  0  0  0  0  0  0
    7.2878   43.8196   49.6086 H   0  0  0  0  0  0  0  0  0  0  0  0
    6.2320   41.6425   49.0190 H   0  0  0  0  0  0  0  0  0  0  0  0
    2.7277   39.5055   48.9686 H   0  0  0  0  0  0  0  0  0  0  0  0
    3.2079   41.1085   48.3155 H   0  0  0  0  0  0  0  0  0  0  0  0
    4.3831   39.7499   48.3155 H   0  0  0  0  0  0  0  0  0  0  0  0
   -0.6935   43.8861   54.0717 H   0  0  0  0  0  0  0  0  0  0  0  0
  1  2  1  0
  2  3  1  0
  3  4  2  0
  4  5  1  0
  5  6  1  0
  6  7  1  0
  5  8  2  0
  8  9  1  0
  9 10  1  0
 10 11  2  0
 10 12  2  0
 10 13  1  0
 13 14  1  0
 14 15  2  0
 15 16  1  0
 16 17  1  0
 17 18  2  0
 17 19  2  0
 17 20  1  0
 20 21  1  0
 21 22  1  0
 21 23  1  0
 21 24  1  0
 16 25  2  0
 25 26  1  0
 26 27  2  0
 27 28  1  0
 28 29  1  0
  9 30  2  0
 30  3  1  0
 27 14  1  0
  1 31  1  0
  1 32  1  0
  1 33  1  0
  4 34  1  0
  7 35  1  0
  7 36  1  0
  7 37  1  0
  8 38  1  0
 13 39  1  0
 15 40  1  0
 20 41  1  0
 22 42  1  0
 22 43  1  0
 22 44  1  0
 23 45  1  0
 23 46  1  0
 23 47  1  0
 24 48  1  0
 24 49  1  0
 24 50  1  0
 25 51  1  0
 26 52  1  0
 29 53  1  0
 29 54  1  0
 29 55  1  0
 30 56  1  0
M  END
>  <meeko>  (4) 
{"is_sidechain": [false], "free_energy": -8.35, "intermolecular_energy": -12.748, "internal_energy": -0.293}

$$$$
ligand_63_conformer_2_docked
     RDKit          3D

 56 57  0  0  0  0  0  0  0  0999 V2000
    8.4710   44.1970   49.4080 C   0  0  0  0  0  0  0  0  0  0  0  0
    7.8260   45.4250   49.7320 O   0  0  0  0  0  0  0  0  0  0  0  0
    7.7820   45.9830   51.0180 C   0  0  0  0  0  0  0  0  0  0  0  0
    8.9310   46.4670   51.6720 C   0  0  0  0  0  0  0  0  0  0  0  0
    8.8350   47.0240   52.9630 C   0  0  0  0  0  0  0  0  0  0  0  0
    9.9500   47.5270   53.6510 O   0  0  0  0  0  0  0  0  0  0  0  0
   10.2180   47.2940   55.0290 C   0  0  0  0  0  0  0  0  0  0  0  0
    7.5860   47.0880   53.5900 C   0  0  0  0  0  0  0  0  0  0  0  0
    6.4390   46.6130   52.9440 C   0  0  0  0  0  0  0  0  0  0  0  0
    4.8540   46.7660   53.6990 S   0  0  0  0  0  0  0  0  0  0  0  0
    4.8180   45.8980   54.9250 O   0  0  0  0  0  0  0  0  0  0  0  0
    4.5870   48.1900   54.1000 O   0  0  0  0  0  0  0  0  0  0  0  0
    3.6240   46.2500   52.5870 N   0  0  0  0  0  0  0  0  0  0  0  0
    2.7990   45.0910   52.8080 C   0  0  0  0  0  0  0  0  0  0  0  0
    1.4920   45.2210   53.3090 C   0  0  0  0  0  0  0  0  0  0  0  0
    0.6780   44.1000   53.4930 C   0  0  0  0  0  0  0  0  0  0  0  0
   -0.9640   44.3090   54.0920 S   0  0  0  0  0  0  0  0  0  0  0  0
   -1.8530   44.5370   52.9020 O   0  0  0  0  0  0  0  0  0  0  0  0
   -1.4360   43.0620   54.7850 O   0  0  0  0  0  0  0  0  0  0  0  0
   -1.1180   45.6850   55.1610 N   0  0  0  0  0  0  0  0  0  0  0  0
   -0.8730   45.4600   56.6080 C   0  0  0  0  0  0  0  0  0  0  0  0
   -1.0400   46.8240   57.3060 C   0  0  0  0  0  0  0  0  0  0  0  0
   -1.8970   44.4860   57.2280 C   0  0  0  0  0  0  0  0  0  0  0  0
    0.5630   44.9550   56.8810 C   0  0  0  0  0  0  0  0  0  0  0  0
    1.1760   42.8270   53.1950 C   0  0  0  0  0  0  0  0  0  0  0  0
    2.4800   42.6780   52.7210 C   0  0  0  0  0  0  0  0  0  0  0  0
    3.3030   43.8050   52.5200 C   0  0  0  0  0  0  0  0  0  0  0  0
    4.6130   43.6830   52.0300 O   0  0  0  0  0  0  0  0  0  0  0  0
    4.9770   42.9440   50.8680 C   0  0  0  0  0  0  0  0  0  0  0  0
    6.5430   46.0600   51.6630 C   0  0  0  0  0  0  0  0  0  0  0  0
    8.7467   43.6721   50.3345 H   0  0  0  0  0  0  0  0  0  0  0  0
    7.7871   43.5677   48.8196 H   0  0  0  0  0  0  0  0  0  0  0  0
    9.3773   44.4030   48.8196 H   0  0  0  0  0  0  0  0  0  0  0  0
    9.9093   46.4101   51.1724 H   0  0  0  0  0  0  0  0  0  0  0  0
    9.5292   47.8929   55.6429 H   0  0  0  0  0  0  0  0  0  0  0  0
   10.0767   46.2267   55.2547 H   0  0  0  0  0  0  0  0  0  0  0  0
   11.2553   47.5823   55.2547 H   0  0  0  0  0  0  0  0  0  0  0  0
    7.5047   47.5157   54.6002 H   0  0  0  0  0  0  0  0  0  0  0  0
    3.4110   46.8940   51.7930 H   0  0  0  0  0  0  0  0  0  0  0  0
    1.1044   46.2194   53.5598 H   0  0  0  0  0  0  0  0  0  0  0  0
   -0.4770   46.4320   54.8050 H   0  0  0  0  0  0  0  0  0  0  0  0
   -1.0227   46.6823   58.3967 H   0  0  0  0  0  0  0  0  0  0  0  0
   -0.2168   47.4907   57.0097 H   0  0  0  0  0  0  0  0  0  0  0  0
   -1.9998   47.2724   57.0097 H   0  0  0  0  0  0  0  0  0  0  0  0
   -1.8384   44.5417   58.3250 H   0  0  0  0  0  0  0  0  0  0  0  0
   -2.9102   44.7618   56.9004 H   0  0  0  0  0  0  0  0  0  0  0  0
   -1.6722   43.4602   56.9004 H   0  0  0  0  0  0  0  0  0  0  0  0
    0.7308   44.8960   57.9665 H   0  0  0  0  0  0  0  0  0  0  0  0
    0.6919   43.9576   56.4353 H   0  0  0  0  0  0  0  0  0  0  0  0
    1.2878   45.6522   56.4353 H   0  0  0  0  0  0  0  0  0  0  0  0
    0.5383   41.9417   53.3346 H   0  0  0  0  0  0  0  0  0  0  0  0
    2.8692   41.6727   52.5023 H   0  0  0  0  0  0  0  0  0  0  0  0
    5.4445   41.9948   51.1687 H   0  0  0  0  0  0  0  0  0  0  0  0
    4.0781   42.7364   50.2690 H   0  0  0  0  0  0  0  0  0  0  0  0
    5.6895   43.5301   50.2690 H   0  0  0  0  0  0  0  0  0  0  0  0
    5.6417   45.6821   51.1581 H   0  0  0  0  0  0  0  0  0  0  0  0
  1  2  1  0
  2  3  1  0
  3  4  2  0
  4  5  1  0
  5  6  1  0
  6  7  1  0
  5  8  2  0
  8  9  1  0
  9 10  1  0
 10 11  2  0
 10 12  2  0
 10 13  1  0
 13 14  1  0
 14 15  2  0
 15 16  1  0
 16 17  1  0
 17 18  2  0
 17 19  2  0
 17 20  1  0
 20 21  1  0
 21 22  1  0
 21 23  1  0
 21 24  1  0
 16 25  2  0
 25 26  1  0
 26 27  2  0
 27 28  1  0
 28 29  1  0
  9 30  2  0
 30  3  1  0
 27 14  1  0
  1 31  1  0
  1 32  1  0
  1 33  1  0
  4 34  1  0
  7 35  1  0
  7 36  1  0
  7 37  1  0
  8 38  1  0
 13 39  1  0
 15 40  1  0
 20 41  1  0
 22 42  1  0
 22 43  1  0
 22 44  1  0
 23 45  1  0
 23 46  1  0
 23 47  1  0
 24 48  1  0
 24 49  1  0
 24 50  1  0
 25 51  1  0
 26 52  1  0
 29 53  1  0
 29 54  1  0
 29 55  1  0
 30 56  1  0
M  END
>  <meeko>  (5) 
{"is_sidechain": [false], "free_energy": -8.204, "intermolecular_energy": -12.319, "internal_energy": -0.499}

$$$$
