MODEL 1
REMARK VINA RESULT:    -8.281      0.000      0.000
REMARK INTER + INTRA:         -12.178
REMARK INTER:                 -11.427
REMARK INTRA:                  -0.751
REMARK UNBOUND:                -0.751
REMARK SMILES CC[C@](C)(O)Cc1cn(Cc2cc(C(F)(F)F)ncc2F)nn1
REMARK SMILES IDX 7 1 8 2 9 3 22 4 23 5 6 6 3 7 4 8 2 9 1 10 5 11 10 13 11 14
REMARK SMILES IDX 12 15 20 16 13 17 19 18 18 19 21 20 14 21 15 22 16 23 17 24
REMARK H PARENT 5 12
ROOT
ATOM      1  C   UNL     1       6.410  46.870  53.749  1.00  0.00     0.086 A 
ATOM      2  C   UNL     1       6.079  46.087  52.664  1.00  0.00     0.135 A 
ATOM      3  N   UNL     1       4.862  46.494  52.270  1.00  0.00    -0.248 N 
ATOM      4  N   UNL     1       4.451  47.451  53.087  1.00  0.00    -0.067 NA
ATOM      5  N   UNL     1       5.378  47.702  54.002  1.00  0.00    -0.135 NA
ENDROOT
BRANCH   1   6
ATOM      6  C   UNL     1       7.648  46.762  54.596  1.00  0.00     0.094 C 
BRANCH   6   7
ATOM      7  C   UNL     1       8.830  47.679  54.152  1.00  0.00     0.067 C 
ATOM      8  C   UNL     1       9.842  46.806  53.384  1.00  0.00     0.042 C 
BRANCH   7   9
ATOM      9  C   UNL     1       9.599  48.319  55.354  1.00  0.00     0.032 C 
ATOM     10  C   UNL     1      10.803  47.532  55.880  1.00  0.00     0.007 C 
ENDBRANCH   7   9
BRANCH   7  11
ATOM     11  O   UNL     1       8.391  48.665  53.246  1.00  0.00    -0.390 OA
ATOM     12  H   UNL     1       9.178  49.128  52.866  1.00  0.00     0.211 HD
ENDBRANCH   7  11
ENDBRANCH   6   7
ENDBRANCH   1   6
BRANCH   3  13
ATOM     13  C   UNL     1       4.054  45.920  51.202  1.00  0.00     0.184 C 
BRANCH  13  14
ATOM     14  C   UNL     1       4.205  44.423  51.193  1.00  0.00     0.013 A 
ATOM     15  C   UNL     1       5.142  43.819  50.341  1.00  0.00     0.042 A 
ATOM     16  C   UNL     1       3.373  43.610  51.980  1.00  0.00     0.146 A 
ATOM     17  C   UNL     1       5.252  42.421  50.307  1.00  0.00     0.144 A 
ATOM     18  C   UNL     1       3.512  42.222  51.918  1.00  0.00     0.151 A 
ATOM     19  N   UNL     1       4.436  41.664  51.093  1.00  0.00    -0.249 NA
ATOM     20  F   UNL     1       2.436  44.154  52.797  1.00  0.00    -0.205 F 
BRANCH  17  21
ATOM     21  C   UNL     1       6.249  41.761  49.402  1.00  0.00     0.433 C 
ATOM     22  F   UNL     1       5.603  40.850  48.585  1.00  0.00    -0.165 F 
ATOM     23  F   UNL     1       6.870  42.716  48.618  1.00  0.00    -0.165 F 
ATOM     24  F   UNL     1       7.211  41.095  50.142  1.00  0.00    -0.165 F 
ENDBRANCH  17  21
ENDBRANCH  13  14
ENDBRANCH   3  13
TORSDOF 7
ENDMDL
MODEL 2
REMARK VINA RESULT:    -7.837      3.827      6.860
REMARK INTER + INTRA:         -11.565
REMARK INTER:                 -10.676
REMARK INTRA:                  -0.889
REMARK UNBOUND:                -0.751
REMARK SMILES CC[C@](C)(O)Cc1cn(Cc2cc(C(F)(F)F)ncc2F)nn1
REMARK SMILES IDX 7 1 8 2 9 3 22 4 23 5 6 6 3 7 4 8 2 9 1 10 5 11 10 13 11 14
REMARK SMILES IDX 12 15 20 16 13 17 19 18 18 19 21 20 14 21 15 22 16 23 17 24
REMARK H PARENT 5 12
ROOT
ATOM      1  C   UNL     1       2.711  43.492  51.472  1.00  0.00     0.086 A 
ATOM      2  C   UNL     1       3.028  44.758  51.030  1.00  0.00     0.135 A 
ATOM      3  N   UNL     1       4.342  44.911  51.252  1.00  0.00    -0.248 N 
ATOM      4  N   UNL     1       4.804  43.813  51.831  1.00  0.00    -0.067 NA
ATOM      5  N   UNL     1       3.828  42.928  51.978  1.00  0.00    -0.135 NA
ENDROOT
BRANCH   1   6
ATOM      6  C   UNL     1       1.345  42.863  51.506  1.00  0.00     0.094 C 
BRANCH   6   7
ATOM      7  C   UNL     1       0.704  42.759  52.925  1.00  0.00     0.067 C 
ATOM      8  C   UNL     1      -0.700  42.145  52.763  1.00  0.00     0.042 C 
BRANCH   7   9
ATOM      9  C   UNL     1       0.519  44.147  53.621  1.00  0.00     0.032 C 
ATOM     10  C   UNL     1       1.455  44.442  54.797  1.00  0.00     0.007 C 
ENDBRANCH   7   9
BRANCH   7  11
ATOM     11  O   UNL     1       1.432  41.872  53.744  1.00  0.00    -0.390 OA
ATOM     12  H   UNL     1       1.121  41.965  54.678  1.00  0.00     0.211 HD
ENDBRANCH   7  11
ENDBRANCH   6   7
ENDBRANCH   1   6
BRANCH   3  13
ATOM     13  C   UNL     1       5.134  46.112  51.018  1.00  0.00     0.184 C 
BRANCH  13  14
ATOM     14  C   UNL     1       5.904  46.469  52.260  1.00  0.00     0.013 A 
ATOM     15  C   UNL     1       7.305  46.521  52.224  1.00  0.00     0.042 A 
ATOM     16  C   UNL     1       5.243  46.685  53.480  1.00  0.00     0.146 A 
ATOM     17  C   UNL     1       8.021  46.815  53.394  1.00  0.00     0.144 A 
ATOM     18  C   UNL     1       5.991  46.974  54.624  1.00  0.00     0.151 A 
ATOM     19  N   UNL     1       7.346  47.031  54.557  1.00  0.00    -0.249 NA
ATOM     20  F   UNL     1       3.891  46.616  53.564  1.00  0.00    -0.205 F 
BRANCH  17  21
ATOM     21  C   UNL     1       9.519  46.876  53.370  1.00  0.00     0.433 C 
ATOM     22  F   UNL     1       9.946  47.325  52.134  1.00  0.00    -0.165 F 
ATOM     23  F   UNL     1       9.966  47.744  54.349  1.00  0.00    -0.165 F 
ATOM     24  F   UNL     1      10.061  45.623  53.602  1.00  0.00    -0.165 F 
ENDBRANCH  17  21
ENDBRANCH  13  14
ENDBRANCH   3  13
TORSDOF 7
ENDMDL
MODEL 3
REMARK VINA RESULT:    -7.796      1.677      2.269
REMARK INTER + INTRA:         -11.509
REMARK INTER:                 -10.484
REMARK INTRA:                  -1.025
REMARK UNBOUND:                -0.751
REMARK SMILES CC[C@](C)(O)Cc1cn(Cc2cc(C(F)(F)F)ncc2F)nn1
REMARK SMILES IDX 7 1 8 2 9 3 22 4 23 5 6 6 3 7 4 8 2 9 1 10 5 11 10 13 11 14
REMARK SMILES IDX 12 15 20 16 13 17 19 18 18 19 21 20 14 21 15 22 16 23 17 24
REMARK H PARENT 5 12
ROOT
ATOM      1  C   UNL     1       6.428  46.455  54.449  1.00  0.00     0.086 A 
ATOM      2  C   UNL     1       5.541  46.401  53.396  1.00  0.00     0.135 A 
ATOM      3  N   UNL     1       4.780  45.315  53.606  1.00  0.00    -0.248 N 
ATOM      4  N   UNL     1       5.198  44.713  54.708  1.00  0.00    -0.067 NA
ATOM      5  N   UNL     1       6.205  45.388  55.245  1.00  0.00    -0.135 NA
ENDROOT
BRANCH   1   6
ATOM      6  C   UNL     1       7.538  47.450  54.643  1.00  0.00     0.094 C 
BRANCH   6   7
ATOM      7  C   UNL     1       8.891  47.065  53.967  1.00  0.00     0.067 C 
ATOM      8  C   UNL     1      10.029  47.481  54.921  1.00  0.00     0.042 C 
BRANCH   7   9
ATOM      9  C   UNL     1       9.137  47.806  52.612  1.00  0.00     0.032 C 
ATOM     10  C   UNL     1       8.490  47.178  51.374  1.00  0.00     0.007 C 
ENDBRANCH   7   9
BRANCH   7  11
ATOM     11  O   UNL     1       8.998  45.668  53.810  1.00  0.00    -0.390 OA
ATOM     12  H   UNL     1       8.997  45.451  52.846  1.00  0.00     0.211 HD
ENDBRANCH   7  11
ENDBRANCH   6   7
ENDBRANCH   1   6
BRANCH   3  13
ATOM     13  C   UNL     1       3.742  44.793  52.726  1.00  0.00     0.184 C 
BRANCH  13  14
ATOM     14  C   UNL     1       4.312  43.713  51.846  1.00  0.00     0.013 A 
ATOM     15  C   UNL     1       5.427  43.984  51.040  1.00  0.00     0.042 A 
ATOM     16  C   UNL     1       3.701  42.451  51.768  1.00  0.00     0.146 A 
ATOM     17  C   UNL     1       5.931  42.986  50.191  1.00  0.00     0.144 A 
ATOM     18  C   UNL     1       4.231  41.484  50.910  1.00  0.00     0.151 A 
ATOM     19  N   UNL     1       5.320  41.769  50.150  1.00  0.00    -0.249 NA
ATOM     20  F   UNL     1       2.604  42.158  52.510  1.00  0.00    -0.205 F 
BRANCH  17  21
ATOM     21  C   UNL     1       7.123  43.260  49.324  1.00  0.00     0.433 C 
ATOM     22  F   UNL     1       7.514  44.578  49.475  1.00  0.00    -0.165 F 
ATOM     23  F   UNL     1       8.167  42.431  49.692  1.00  0.00    -0.165 F 
ATOM     24  F   UNL     1       6.819  43.033  47.993  1.00  0.00    -0.165 F 
ENDBRANCH  17  21
ENDBRANCH  13  14
ENDBRANCH   3  13
TORSDOF 7
ENDMDL
MODEL 4
REMARK VINA RESULT:    -7.785      1.965      2.597
REMARK INTER + INTRA:         -11.493
REMARK INTER:                 -10.753
REMARK INTRA:                  -0.740
REMARK UNBOUND:                -0.751
REMARK SMILES CC[C@](C)(O)Cc1cn(Cc2cc(C(F)(F)F)ncc2F)nn1
REMARK SMILES IDX 7 1 8 2 9 3 22 4 23 5 6 6 3 7 4 8 2 9 1 10 5 11 10 13 11 14
REMARK SMILES IDX 12 15 20 16 13 17 19 18 18 19 21 20 14 21 15 22 16 23 17 24
REMARK H PARENT 5 12
ROOT
ATOM      1  C   UNL     1       6.055  46.655  54.143  1.00  0.00     0.086 A 
ATOM      2  C   UNL     1       5.338  45.504  54.389  1.00  0.00     0.135 A 
ATOM      3  N   UNL     1       4.045  45.834  54.250  1.00  0.00    -0.248 N 
ATOM      4  N   UNL     1       3.966  47.125  53.966  1.00  0.00    -0.067 NA
ATOM      5  N   UNL     1       5.181  47.653  53.896  1.00  0.00    -0.135 NA
ENDROOT
BRANCH   1   6
ATOM      6  C   UNL     1       7.545  46.827  54.241  1.00  0.00     0.094 C 
BRANCH   6   7
ATOM      7  C   UNL     1       8.230  47.364  52.945  1.00  0.00     0.067 C 
ATOM      8  C   UNL     1       7.666  46.571  51.750  1.00  0.00     0.042 C 
BRANCH   7   9
ATOM      9  C   UNL     1       9.781  47.160  52.938  1.00  0.00     0.032 C 
ATOM     10  C   UNL     1      10.321  46.131  51.940  1.00  0.00     0.007 C 
ENDBRANCH   7   9
BRANCH   7  11
ATOM     11  O   UNL     1       7.894  48.714  52.719  1.00  0.00    -0.390 OA
ATOM     12  H   UNL     1       8.722  49.232  52.564  1.00  0.00     0.211 HD
ENDBRANCH   7  11
ENDBRANCH   6   7
ENDBRANCH   1   6
BRANCH   3  13
ATOM     13  C   UNL     1       2.893  44.971  54.480  1.00  0.00     0.184 C 
BRANCH  13  14
ATOM     14  C   UNL     1       2.495  44.295  53.196  1.00  0.00     0.013 A 
ATOM     15  C   UNL     1       3.391  43.425  52.556  1.00  0.00     0.042 A 
ATOM     16  C   UNL     1       1.260  44.574  52.588  1.00  0.00     0.146 A 
ATOM     17  C   UNL     1       3.031  42.828  51.339  1.00  0.00     0.144 A 
ATOM     18  C   UNL     1       0.939  43.960  51.375  1.00  0.00     0.151 A 
ATOM     19  N   UNL     1       1.820  43.112  50.784  1.00  0.00    -0.249 NA
ATOM     20  F   UNL     1       0.378  45.430  53.160  1.00  0.00    -0.205 F 
BRANCH  17  21
ATOM     21  C   UNL     1       3.978  41.895  50.644  1.00  0.00     0.433 C 
ATOM     22  F   UNL     1       4.988  42.623  50.041  1.00  0.00    -0.165 F 
ATOM     23  F   UNL     1       4.530  41.022  51.562  1.00  0.00    -0.165 F 
ATOM     24  F   UNL     1       3.315  41.163  49.674  1.00  0.00    -0.165 F 
ENDBRANCH  17  21
ENDBRANCH  13  14
ENDBRANCH   3  13
TORSDOF 7
ENDMDL
MODEL 5
REMARK VINA RESULT:    -7.730      2.972      5.101
REMARK INTER + INTRA:         -11.418
REMARK INTER:                 -10.580
REMARK INTRA:                  -0.839
REMARK UNBOUND:                -0.751
REMARK SMILES CC[C@](C)(O)Cc1cn(Cc2cc(C(F)(F)F)ncc2F)nn1
REMARK SMILES IDX 7 1 8 2 9 3 22 4 23 5 6 6 3 7 4 8 2 9 1 10 5 11 10 13 11 14
REMARK SMILES IDX 12 15 20 16 13 17 19 18 18 19 21 20 14 21 15 22 16 23 17 24
REMARK H PARENT 5 12
ROOT
ATOM      1  C   UNL     1       6.246  46.729  53.476  1.00  0.00     0.086 A 
ATOM      2  C   UNL     1       5.269  46.343  52.583  1.00  0.00     0.135 A 
ATOM      3  N   UNL     1       4.142  46.958  52.978  1.00  0.00    -0.248 N 
ATOM      4  N   UNL     1       4.403  47.656  54.072  1.00  0.00    -0.067 NA
ATOM      5  N   UNL     1       5.682  47.534  54.400  1.00  0.00    -0.135 NA
ENDROOT
BRANCH   1   6
ATOM      6  C   UNL     1       7.674  46.259  53.508  1.00  0.00     0.094 C 
BRANCH   6   7
ATOM      7  C   UNL     1       8.738  47.372  53.256  1.00  0.00     0.067 C 
ATOM      8  C   UNL     1       8.329  48.136  51.982  1.00  0.00     0.042 C 
BRANCH   7   9
ATOM      9  C   UNL     1      10.175  46.807  53.009  1.00  0.00     0.032 C 
ATOM     10  C   UNL     1      10.381  46.038  51.700  1.00  0.00     0.007 C 
ENDBRANCH   7   9
BRANCH   7  11
ATOM     11  O   UNL     1       8.736  48.317  54.302  1.00  0.00    -0.390 OA
ATOM     12  H   UNL     1       8.482  47.866  55.145  1.00  0.00     0.211 HD
ENDBRANCH   7  11
ENDBRANCH   6   7
ENDBRANCH   1   6
BRANCH   3  13
ATOM     13  C   UNL     1       2.816  46.808  52.393  1.00  0.00     0.184 C 
BRANCH  13  14
ATOM     14  C   UNL     1       2.126  45.611  52.988  1.00  0.00     0.013 A 
ATOM     15  C   UNL     1       1.382  45.747  54.169  1.00  0.00     0.042 A 
ATOM     16  C   UNL     1       2.270  44.338  52.413  1.00  0.00     0.146 A 
ATOM     17  C   UNL     1       0.774  44.620  54.742  1.00  0.00     0.144 A 
ATOM     18  C   UNL     1       1.650  43.240  53.014  1.00  0.00     0.151 A 
ATOM     19  N   UNL     1       0.925  43.402  54.151  1.00  0.00    -0.249 NA
ATOM     20  F   UNL     1       3.004  44.159  51.287  1.00  0.00    -0.205 F 
BRANCH  17  21
ATOM     21  C   UNL     1      -0.026  44.750  56.004  1.00  0.00     0.433 C 
ATOM     22  F   UNL     1      -1.036  43.806  56.013  1.00  0.00    -0.165 F 
ATOM     23  F   UNL     1       0.795  44.550  57.098  1.00  0.00    -0.165 F 
ATOM     24  F   UNL     1      -0.591  46.010  56.094  1.00  0.00    -0.165 F 
ENDBRANCH  17  21
ENDBRANCH  13  14
ENDBRANCH   3  13
TORSDOF 7
ENDMDL
