MODEL 1
REMARK VINA RESULT:    -8.900      0.000      0.000
REMARK INTER + INTRA:         -12.208
REMARK INTER:                 -10.981
REMARK INTRA:                  -1.227
REMARK UNBOUND:                -1.227
REMARK SMILES O=S1(=O)CCCN1c1cccc(CNc2ncnc3nc[nH]c23)c1
REMARK SMILES IDX 13 1 12 2 8 3 9 4 24 5 10 6 11 7 7 8 1 9 2 10 3 11 4 12 5 13
REMARK SMILES IDX 6 14 14 15 15 17 16 18 23 19 17 20 22 21 19 22 18 23 21 24
REMARK SMILES IDX 20 25
REMARK H PARENT 14 16 22 26
ROOT
ATOM      1  C   UNL     1       7.098  44.301  49.952  1.00  0.00     0.150 C 
ENDROOT
BRANCH   1   2
ATOM      2  C   UNL     1       5.947  43.444  50.404  1.00  0.00    -0.027 A 
ATOM      3  C   UNL     1       3.944  43.157  51.782  1.00  0.00     0.052 A 
ATOM      4  C   UNL     1       3.826  41.840  51.297  1.00  0.00     0.027 A 
ATOM      5  C   UNL     1       5.016  43.950  51.326  1.00  0.00     0.032 A 
ATOM      6  C   UNL     1       4.752  41.335  50.381  1.00  0.00     0.003 A 
ATOM      7  C   UNL     1       5.808  42.130  49.935  1.00  0.00     0.006 A 
BRANCH   3   8
ATOM      8  N   UNL     1       2.994  43.681  52.739  1.00  0.00    -0.270 N 
ATOM      9  O   UNL     1       3.420  46.279  53.145  1.00  0.00    -0.206 OA
ATOM     10  S   UNL     1       3.333  44.951  53.843  1.00  0.00     0.235 S 
ATOM     11  O   UNL     1       4.567  44.667  54.652  1.00  0.00    -0.206 OA
ATOM     12  C   UNL     1       1.875  44.828  54.820  1.00  0.00     0.162 C 
ATOM     13  C   UNL     1       0.899  44.022  53.957  1.00  0.00     0.041 C 
ATOM     14  C   UNL     1       1.681  43.094  53.001  1.00  0.00     0.136 C 
ENDBRANCH   3   8
ENDBRANCH   1   2
BRANCH   1  15
ATOM     15  N   UNL     1       7.026  45.617  50.583  1.00  0.00    -0.364 N 
ATOM     16  H   UNL     1       6.222  46.235  50.335  1.00  0.00     0.162 HD
BRANCH  15  17
ATOM     17  C   UNL     1       8.007  46.071  51.528  1.00  0.00     0.155 A 
ATOM     18  N   UNL     1       9.342  46.033  51.230  1.00  0.00    -0.217 NA
ATOM     19  C   UNL     1       7.649  46.565  52.780  1.00  0.00     0.128 A 
ATOM     20  C   UNL     1      10.290  46.458  52.125  1.00  0.00     0.226 A 
ATOM     21  N   UNL     1       6.444  46.712  53.346  1.00  0.00    -0.340 N 
ATOM     22  C   UNL     1       8.600  46.979  53.649  1.00  0.00     0.182 A 
ATOM     23  N   UNL     1       9.920  46.938  53.352  1.00  0.00    -0.215 NA
ATOM     24  C   UNL     1       6.723  47.225  54.571  1.00  0.00     0.199 A 
ATOM     25  N   UNL     1       8.052  47.406  54.799  1.00  0.00    -0.217 NA
ATOM     26  H   UNL     1       5.504  46.484  52.953  1.00  0.00     0.168 HD
ENDBRANCH  15  17
ENDBRANCH   1  15
TORSDOF 4
ENDMDL
MODEL 2
REMARK VINA RESULT:    -8.375      1.953      5.773
REMARK INTER + INTRA:         -11.561
REMARK INTER:                 -10.381
REMARK INTRA:                  -1.180
REMARK UNBOUND:                -1.227
REMARK SMILES O=S1(=O)CCCN1c1cccc(CNc2ncnc3nc[nH]c23)c1
REMARK SMILES IDX 13 1 12 2 8 3 9 4 24 5 10 6 11 7 7 8 1 9 2 10 3 11 4 12 5 13
REMARK SMILES IDX 6 14 14 15 15 17 16 18 23 19 17 20 22 21 19 22 18 23 21 24
REMARK SMILES IDX 20 25
REMARK H PARENT 14 16 22 26
ROOT
ATOM      1  C   UNL     1       3.969  41.493  50.621  1.00  0.00     0.150 C 
ENDROOT
BRANCH   1   2
ATOM      2  C   UNL     1       5.170  42.264  50.147  1.00  0.00    -0.027 A 
ATOM      3  C   UNL     1       6.697  44.160  50.408  1.00  0.00     0.052 A 
ATOM      4  C   UNL     1       7.376  43.743  49.246  1.00  0.00     0.027 A 
ATOM      5  C   UNL     1       5.590  43.408  50.847  1.00  0.00     0.032 A 
ATOM      6  C   UNL     1       6.959  42.608  48.548  1.00  0.00     0.003 A 
ATOM      7  C   UNL     1       5.862  41.870  48.994  1.00  0.00     0.006 A 
BRANCH   3   8
ATOM      8  N   UNL     1       7.119  45.341  51.128  1.00  0.00    -0.270 N 
ATOM      9  O   UNL     1       6.215  45.275  53.632  1.00  0.00    -0.206 OA
ATOM     10  S   UNL     1       6.206  46.093  52.372  1.00  0.00     0.235 S 
ATOM     11  O   UNL     1       4.806  46.404  51.922  1.00  0.00    -0.206 OA
ATOM     12  C   UNL     1       7.172  47.554  52.542  1.00  0.00     0.162 C 
ATOM     13  C   UNL     1       8.507  47.214  51.873  1.00  0.00     0.041 C 
ATOM     14  C   UNL     1       8.294  46.140  50.784  1.00  0.00     0.136 C 
ENDBRANCH   3   8
ENDBRANCH   1   2
BRANCH   1  15
ATOM     15  N   UNL     1       3.513  42.008  51.910  1.00  0.00    -0.364 N 
ATOM     16  H   UNL     1       3.993  41.665  52.772  1.00  0.00     0.162 HD
BRANCH  15  17
ATOM     17  C   UNL     1       2.451  42.969  52.022  1.00  0.00     0.155 A 
ATOM     18  N   UNL     1       1.385  42.941  51.165  1.00  0.00    -0.217 NA
ATOM     19  C   UNL     1       2.458  43.963  52.997  1.00  0.00     0.128 A 
ATOM     20  C   UNL     1       0.366  43.855  51.257  1.00  0.00     0.226 A 
ATOM     21  N   UNL     1       3.355  44.241  53.951  1.00  0.00    -0.340 N 
ATOM     22  C   UNL     1       1.443  44.856  53.070  1.00  0.00     0.182 A 
ATOM     23  N   UNL     1       0.390  44.827  52.219  1.00  0.00    -0.215 NA
ATOM     24  C   UNL     1       2.832  45.321  54.583  1.00  0.00     0.199 A 
ATOM     25  N   UNL     1       1.643  45.735  54.065  1.00  0.00    -0.217 NA
ATOM     26  H   UNL     1       4.253  43.754  54.166  1.00  0.00     0.168 HD
ENDBRANCH  15  17
ENDBRANCH   1  15
TORSDOF 4
ENDMDL
MODEL 3
REMARK VINA RESULT:    -8.163      2.965      6.108
REMARK INTER + INTRA:         -11.299
REMARK INTER:                 -10.777
REMARK INTRA:                  -0.523
REMARK UNBOUND:                -1.227
REMARK SMILES O=S1(=O)CCCN1c1cccc(CNc2ncnc3nc[nH]c23)c1
REMARK SMILES IDX 13 1 12 2 8 3 9 4 24 5 10 6 11 7 7 8 1 9 2 10 3 11 4 12 5 13
REMARK SMILES IDX 6 14 14 15 15 17 16 18 23 19 17 20 22 21 19 22 18 23 21 24
REMARK SMILES IDX 20 25
REMARK H PARENT 14 16 22 26
ROOT
ATOM      1  C   UNL     1       7.539  43.488  49.002  1.00  0.00     0.150 C 
ENDROOT
BRANCH   1   2
ATOM      2  C   UNL     1       7.447  44.578  50.035  1.00  0.00    -0.027 A 
ATOM      3  C   UNL     1       6.099  45.901  51.592  1.00  0.00     0.052 A 
ATOM      4  C   UNL     1       7.250  46.643  51.922  1.00  0.00     0.027 A 
ATOM      5  C   UNL     1       6.214  44.868  50.640  1.00  0.00     0.032 A 
ATOM      6  C   UNL     1       8.477  46.357  51.319  1.00  0.00     0.003 A 
ATOM      7  C   UNL     1       8.578  45.330  50.380  1.00  0.00     0.006 A 
BRANCH   3   8
ATOM      8  N   UNL     1       4.824  46.201  52.206  1.00  0.00    -0.270 N 
ATOM      9  O   UNL     1       5.183  47.496  54.505  1.00  0.00    -0.206 OA
ATOM     10  S   UNL     1       4.560  46.269  53.901  1.00  0.00     0.235 S 
ATOM     11  O   UNL     1       5.024  45.015  54.586  1.00  0.00    -0.206 OA
ATOM     12  C   UNL     1       2.804  46.382  53.875  1.00  0.00     0.162 C 
ATOM     13  C   UNL     1       2.466  46.809  52.443  1.00  0.00     0.041 C 
ATOM     14  C   UNL     1       3.565  46.324  51.473  1.00  0.00     0.136 C 
ENDBRANCH   3   8
ENDBRANCH   1   2
BRANCH   1  15
ATOM     15  N   UNL     1       7.105  42.214  49.572  1.00  0.00    -0.364 N 
ATOM     16  H   UNL     1       7.769  41.707  50.198  1.00  0.00     0.162 HD
BRANCH  15  17
ATOM     17  C   UNL     1       5.807  41.657  49.311  1.00  0.00     0.155 A 
ATOM     18  N   UNL     1       4.951  41.357  50.336  1.00  0.00    -0.217 NA
ATOM     19  C   UNL     1       5.366  41.397  48.016  1.00  0.00     0.128 A 
ATOM     20  C   UNL     1       3.712  40.821  50.101  1.00  0.00     0.226 A 
ATOM     21  N   UNL     1       5.974  41.572  46.837  1.00  0.00    -0.340 N 
ATOM     22  C   UNL     1       4.139  40.865  47.807  1.00  0.00     0.182 A 
ATOM     23  N   UNL     1       3.295  40.568  48.823  1.00  0.00    -0.215 NA
ATOM     24  C   UNL     1       5.064  41.129  45.934  1.00  0.00     0.199 A 
ATOM     25  N   UNL     1       3.909  40.681  46.496  1.00  0.00    -0.217 NA
ATOM     26  H   UNL     1       6.927  41.954  46.643  1.00  0.00     0.168 HD
ENDBRANCH  15  17
ENDBRANCH   1  15
TORSDOF 4
ENDMDL
MODEL 4
REMARK VINA RESULT:    -8.105      2.289      6.639
REMARK INTER + INTRA:         -11.227
REMARK INTER:                 -10.425
REMARK INTRA:                  -0.803
REMARK UNBOUND:                -1.227
REMARK SMILES O=S1(=O)CCCN1c1cccc(CNc2ncnc3nc[nH]c23)c1
REMARK SMILES IDX 13 1 12 2 8 3 9 4 24 5 10 6 11 7 7 8 1 9 2 10 3 11 4 12 5 13
REMARK SMILES IDX 6 14 14 15 15 17 16 18 23 19 17 20 22 21 19 22 18 23 21 24
REMARK SMILES IDX 20 25
REMARK H PARENT 14 16 22 26
ROOT
ATOM      1  C   UNL     1       3.113  42.489  51.788  1.00  0.00     0.150 C 
ENDROOT
BRANCH   1   2
ATOM      2  C   UNL     1       3.551  43.922  51.650  1.00  0.00    -0.027 A 
ATOM      3  C   UNL     1       5.178  45.686  52.130  1.00  0.00     0.052 A 
ATOM      4  C   UNL     1       4.353  46.601  51.447  1.00  0.00     0.027 A 
ATOM      5  C   UNL     1       4.760  44.344  52.225  1.00  0.00     0.032 A 
ATOM      6  C   UNL     1       3.149  46.183  50.876  1.00  0.00     0.003 A 
ATOM      7  C   UNL     1       2.747  44.851  50.975  1.00  0.00     0.006 A 
BRANCH   3   8
ATOM      8  N   UNL     1       6.421  46.117  52.731  1.00  0.00    -0.270 N 
ATOM      9  O   UNL     1       6.456  45.511  55.325  1.00  0.00    -0.206 OA
ATOM     10  S   UNL     1       6.574  46.653  54.355  1.00  0.00     0.235 S 
ATOM     11  O   UNL     1       5.600  47.752  54.671  1.00  0.00    -0.206 OA
ATOM     12  C   UNL     1       8.225  47.256  54.264  1.00  0.00     0.162 C 
ATOM     13  C   UNL     1       8.803  46.608  53.002  1.00  0.00     0.041 C 
ATOM     14  C   UNL     1       7.671  46.306  51.996  1.00  0.00     0.136 C 
ENDBRANCH   3   8
ENDBRANCH   1   2
BRANCH   1  15
ATOM     15  N   UNL     1       2.472  42.279  53.084  1.00  0.00    -0.364 N 
ATOM     16  H   UNL     1       2.944  41.647  53.768  1.00  0.00     0.162 HD
BRANCH  15  17
ATOM     17  C   UNL     1       1.236  42.918  53.442  1.00  0.00     0.155 A 
ATOM     18  N   UNL     1       0.063  42.577  52.826  1.00  0.00    -0.217 NA
ATOM     19  C   UNL     1       1.176  43.906  54.423  1.00  0.00     0.128 A 
ATOM     20  C   UNL     1      -1.123  43.183  53.155  1.00  0.00     0.226 A 
ATOM     21  N   UNL     1       2.143  44.445  55.176  1.00  0.00    -0.340 N 
ATOM     22  C   UNL     1      -0.004  44.491  54.731  1.00  0.00     0.182 A 
ATOM     23  N   UNL     1      -1.163  44.153  54.119  1.00  0.00    -0.215 NA
ATOM     24  C   UNL     1       1.490  45.361  55.934  1.00  0.00     0.199 A 
ATOM     25  N   UNL     1       0.153  45.421  55.688  1.00  0.00    -0.217 NA
ATOM     26  H   UNL     1       3.164  44.226  55.185  1.00  0.00     0.168 HD
ENDBRANCH  15  17
ENDBRANCH   1  15
TORSDOF 4
ENDMDL
MODEL 5
REMARK VINA RESULT:    -7.801      1.283      2.224
REMARK INTER + INTRA:         -10.852
REMARK INTER:                 -10.173
REMARK INTRA:                  -0.679
REMARK UNBOUND:                -1.227
REMARK SMILES O=S1(=O)CCCN1c1cccc(CNc2ncnc3nc[nH]c23)c1
REMARK SMILES IDX 13 1 12 2 8 3 9 4 24 5 10 6 11 7 7 8 1 9 2 10 3 11 4 12 5 13
REMARK SMILES IDX 6 14 14 15 15 17 16 18 23 19 17 20 22 21 19 22 18 23 21 24
REMARK SMILES IDX 20 25
REMARK H PARENT 14 16 22 26
ROOT
ATOM      1  C   UNL     1       6.672  44.257  50.666  1.00  0.00     0.150 C 
ENDROOT
BRANCH   1   2
ATOM      2  C   UNL     1       5.411  43.440  50.721  1.00  0.00    -0.027 A 
ATOM      3  C   UNL     1       3.014  43.290  51.193  1.00  0.00     0.052 A 
ATOM      4  C   UNL     1       3.061  41.917  50.881  1.00  0.00     0.027 A 
ATOM      5  C   UNL     1       4.203  44.041  51.110  1.00  0.00     0.032 A 
ATOM      6  C   UNL     1       4.263  41.317  50.497  1.00  0.00     0.003 A 
ATOM      7  C   UNL     1       5.433  42.072  50.416  1.00  0.00     0.006 A 
BRANCH   3   8
ATOM      8  N   UNL     1       1.774  43.913  51.602  1.00  0.00    -0.270 N 
ATOM      9  O   UNL     1       2.203  46.434  52.347  1.00  0.00    -0.206 OA
ATOM     10  S   UNL     1       1.653  45.117  52.819  1.00  0.00     0.235 S 
ATOM     11  O   UNL     1       2.296  44.675  54.103  1.00  0.00    -0.206 OA
ATOM     12  C   UNL     1      -0.101  45.161  52.954  1.00  0.00     0.162 C 
ATOM     13  C   UNL     1      -0.603  44.490  51.671  1.00  0.00     0.041 C 
ATOM     14  C   UNL     1       0.450  43.487  51.152  1.00  0.00     0.136 C 
ENDBRANCH   3   8
ENDBRANCH   1   2
BRANCH   1  15
ATOM     15  N   UNL     1       6.403  45.632  51.082  1.00  0.00    -0.364 N 
ATOM     16  H   UNL     1       5.888  46.252  50.418  1.00  0.00     0.162 HD
BRANCH  15  17
ATOM     17  C   UNL     1       6.807  46.141  52.363  1.00  0.00     0.155 A 
ATOM     18  N   UNL     1       5.892  46.345  53.359  1.00  0.00    -0.217 NA
ATOM     19  C   UNL     1       8.135  46.448  52.646  1.00  0.00     0.128 A 
ATOM     20  C   UNL     1       6.263  46.834  54.585  1.00  0.00     0.226 A 
ATOM     21  N   UNL     1       9.231  46.364  51.881  1.00  0.00    -0.340 N 
ATOM     22  C   UNL     1       8.480  46.932  53.862  1.00  0.00     0.182 A 
ATOM     23  N   UNL     1       7.572  47.134  54.845  1.00  0.00    -0.215 NA
ATOM     24  C   UNL     1      10.225  46.811  52.688  1.00  0.00     0.199 A 
ATOM     25  N   UNL     1       9.800  47.175  53.929  1.00  0.00    -0.217 NA
ATOM     26  H   UNL     1       9.315  46.038  50.892  1.00  0.00     0.168 HD
ENDBRANCH  15  17
ENDBRANCH   1  15
TORSDOF 4
ENDMDL
