ligand_42_conformer_4_docked
     RDKit          3D

 47 49  0  0  0  0  0  0  0  0999 V2000
    0.6280   45.1990   55.8740 C   0  0  0  0  0  0  0  0  0  0  0  0
    1.3620   44.2210   55.1560 O   0  0  0  0  0  0  0  0  0  0  0  0
    1.4790   44.5100   53.7640 C   0  0  2  0  0  0  0  0  0  0  0  0
    2.3750   45.7170   53.4780 C   0  0  0  0  0  0  0  0  0  0  0  0
    2.0070   46.7540   52.6940 N   0  0  0  0  0  0  0  0  0  0  0  0
    3.0470   47.5710   52.6000 N   0  0  0  0  0  0  0  0  0  0  0  0
    4.0360   47.0170   53.3230 C   0  0  0  0  0  0  0  0  0  0  0  0
    3.6500   45.8690   53.9000 N   0  0  0  0  0  0  0  0  0  0  0  0
    4.5390   44.9610   54.6190 C   0  0  0  0  0  0  0  0  0  0  0  0
    5.7120   45.7490   55.2130 C   0  0  0  0  0  0  0  0  0  0  0  0
    6.2940   46.6610   54.2100 N   0  0  0  0  0  0  0  0  0  0  0  0
    7.7190   46.8730   54.1780 C   0  0  0  0  0  0  0  0  0  0  0  0
    8.2480   47.6970   54.9740 O   0  0  0  0  0  0  0  0  0  0  0  0
    8.5100   46.1620   53.2610 O   0  0  0  0  0  0  0  0  0  0  0  0
    8.7910   46.5390   51.9040 C   0  0  0  0  0  0  0  0  0  0  0  0
    8.6040   48.0570   51.7120 C   0  0  0  0  0  0  0  0  0  0  0  0
   10.2620   46.1830   51.6310 C   0  0  0  0  0  0  0  0  0  0  0  0
    7.8990   45.7520   50.9260 C   0  0  0  0  0  0  0  0  0  0  0  0
    5.4180   47.5750   53.4530 C   0  0  0  0  0  0  0  0  0  0  0  0
    0.0870   44.7390   53.2110 C   0  0  0  0  0  0  0  0  0  0  0  0
   -0.3720   43.3590   52.7670 C   0  0  0  0  0  0  0  0  0  0  0  0
    0.7230   42.4740   52.7690 O   0  0  0  0  0  0  0  0  0  0  0  0
    1.8750   43.2520   52.9770 C   0  0  0  0  0  0  0  0  0  0  0  0
    0.7534   45.0319   56.9540 H   0  0  0  0  0  0  0  0  0  0  0  0
    0.9989   46.2010   55.6125 H   0  0  0  0  0  0  0  0  0  0  0  0
   -0.4377   45.1228   55.6125 H   0  0  0  0  0  0  0  0  0  0  0  0
    3.9814   44.4689   55.4295 H   0  0  0  0  0  0  0  0  0  0  0  0
    4.9254   44.2022   53.9227 H   0  0  0  0  0  0  0  0  0  0  0  0
    5.3533   46.3377   56.0702 H   0  0  0  0  0  0  0  0  0  0  0  0
    6.4873   45.0376   55.5336 H   0  0  0  0  0  0  0  0  0  0  0  0
    8.5437   48.5463   52.6953 H   0  0  0  0  0  0  0  0  0  0  0  0
    9.4588   48.4638   51.1518 H   0  0  0  0  0  0  0  0  0  0  0  0
    7.6760   48.2442   51.1518 H   0  0  0  0  0  0  0  0  0  0  0  0
   10.7916   46.0548   52.5865 H   0  0  0  0  0  0  0  0  0  0  0  0
   10.3120   45.2468   51.0556 H   0  0  0  0  0  0  0  0  0  0  0  0
   10.7345   46.9927   51.0556 H   0  0  0  0  0  0  0  0  0  0  0  0
    7.1927   45.1289   51.4942 H   0  0  0  0  0  0  0  0  0  0  0  0
    7.3393   46.4560   50.2926 H   0  0  0  0  0  0  0  0  0  0  0  0
    8.5278   45.1090   50.2926 H   0  0  0  0  0  0  0  0  0  0  0  0
    5.3672   48.5402   53.9782 H   0  0  0  0  0  0  0  0  0  0  0  0
    5.8377   47.7036   52.4444 H   0  0  0  0  0  0  0  0  0  0  0  0
   -0.5800   45.1403   53.9882 H   0  0  0  0  0  0  0  0  0  0  0  0
    0.0760   45.4703   52.3894 H   0  0  0  0  0  0  0  0  0  0  0  0
   -1.1429   42.9893   53.4592 H   0  0  0  0  0  0  0  0  0  0  0  0
   -0.7891   43.4219   51.7511 H   0  0  0  0  0  0  0  0  0  0  0  0
    2.6147   42.6736   53.5500 H   0  0  0  0  0  0  0  0  0  0  0  0
    2.3171   43.5360   52.0106 H   0  0  0  0  0  0  0  0  0  0  0  0
  1  2  1  0
  3  2  1  1
  3  4  1  0
  4  5  2  0
  5  6  1  0
  6  7  2  0
  7  8  1  0
  8  9  1  0
  9 10  1  0
 10 11  1  0
 11 12  1  0
 12 13  2  0
 12 14  1  0
 14 15  1  0
 15 16  1  0
 15 17  1  0
 15 18  1  0
 11 19  1  0
  3 20  1  0
 20 21  1  0
 21 22  1  0
 22 23  1  0
 23  3  1  0
  8  4  1  0
 19  7  1  0
  1 24  1  0
  1 25  1  0
  1 26  1  0
  9 27  1  0
  9 28  1  0
 10 29  1  0
 10 30  1  0
 16 31  1  0
 16 32  1  0
 16 33  1  0
 17 34  1  0
 17 35  1  0
 17 36  1  0
 18 37  1  0
 18 38  1  0
 18 39  1  0
 19 40  1  0
 19 41  1  0
 20 42  1  0
 20 43  1  0
 21 44  1  0
 21 45  1  0
 23 46  1  0
 23 47  1  0
M  END
>  <meeko>  (1) 
{"is_sidechain": [false], "free_energy": -8.054, "intermolecular_energy": -10.408, "internal_energy": -0.59}

$$$$
ligand_42_conformer_4_docked
     RDKit          3D

 47 49  0  0  0  0  0  0  0  0999 V2000
   -0.4050   44.8170   51.6020 C   0  0  0  0  0  0  0  0  0  0  0  0
    0.4940   45.5370   52.4290 O   0  0  0  0  0  0  0  0  0  0  0  0
    1.2270   44.7060   53.3270 C   0  0  2  0  0  0  0  0  0  0  0  0
    2.3470   43.9250   52.6380 C   0  0  0  0  0  0  0  0  0  0  0  0
    2.4500   42.5770   52.6680 N   0  0  0  0  0  0  0  0  0  0  0  0
    3.5730   42.2490   52.0450 N   0  0  0  0  0  0  0  0  0  0  0  0
    4.1430   43.4010   51.6510 C   0  0  0  0  0  0  0  0  0  0  0  0
    3.4000   44.4660   51.9860 N   0  0  0  0  0  0  0  0  0  0  0  0
    3.8220   45.8550   51.8310 C   0  0  0  0  0  0  0  0  0  0  0  0
    4.8220   45.9650   50.6740 C   0  0  0  0  0  0  0  0  0  0  0  0
    5.8570   44.9190   50.7730 N   0  0  0  0  0  0  0  0  0  0  0  0
    7.2180   45.2200   50.4050 C   0  0  0  0  0  0  0  0  0  0  0  0
    7.9130   44.3500   49.8120 O   0  0  0  0  0  0  0  0  0  0  0  0
    7.7610   46.4790   50.7080 O   0  0  0  0  0  0  0  0  0  0  0  0
    8.3440   46.8790   51.9570 C   0  0  0  0  0  0  0  0  0  0  0  0
    9.8580   46.5930   51.9660 C   0  0  0  0  0  0  0  0  0  0  0  0
    8.1250   48.3940   52.0950 C   0  0  0  0  0  0  0  0  0  0  0  0
    7.6480   46.1670   53.1330 C   0  0  0  0  0  0  0  0  0  0  0  0
    5.4620   43.5080   50.9520 C   0  0  0  0  0  0  0  0  0  0  0  0
    0.2510   43.7580   53.9950 C   0  0  0  0  0  0  0  0  0  0  0  0
   -0.2020   44.5030   55.2400 C   0  0  0  0  0  0  0  0  0  0  0  0
    0.6280   45.6200   55.4510 O   0  0  0  0  0  0  0  0  0  0  0  0
    1.7000   45.5060   54.5500 C   0  0  0  0  0  0  0  0  0  0  0  0
   -1.1096   44.2527   52.2306 H   0  0  0  0  0  0  0  0  0  0  0  0
   -0.9629   45.5209   50.9669 H   0  0  0  0  0  0  0  0  0  0  0  0
    0.1600   44.1188   50.9669 H   0  0  0  0  0  0  0  0  0  0  0  0
    2.9441   46.4821   51.6165 H   0  0  0  0  0  0  0  0  0  0  0  0
    4.3012   46.1961   52.7605 H   0  0  0  0  0  0  0  0  0  0  0  0
    4.2845   45.8510   49.7211 H   0  0  0  0  0  0  0  0  0  0  0  0
    5.3106   46.9493   50.7236 H   0  0  0  0  0  0  0  0  0  0  0  0
   10.2123   46.5261   53.0052 H   0  0  0  0  0  0  0  0  0  0  0  0
   10.0545   45.6418   51.4496 H   0  0  0  0  0  0  0  0  0  0  0  0
   10.3880   47.4069   51.4496 H   0  0  0  0  0  0  0  0  0  0  0  0
    8.0861   48.6633   53.1608 H   0  0  0  0  0  0  0  0  0  0  0  0
    8.9550   48.9300   51.6115 H   0  0  0  0  0  0  0  0  0  0  0  0
    7.1772   48.6730   51.6115 H   0  0  0  0  0  0  0  0  0  0  0  0
    8.0357   46.5636   54.0830 H   0  0  0  0  0  0  0  0  0  0  0  0
    6.5635   46.3424   53.0778 H   0  0  0  0  0  0  0  0  0  0  0  0
    7.8480   45.0867   53.0778 H   0  0  0  0  0  0  0  0  0  0  0  0
    5.3851   43.0287   49.9649 H   0  0  0  0  0  0  0  0  0  0  0  0
    6.2244   43.0077   51.5671 H   0  0  0  0  0  0  0  0  0  0  0  0
   -0.6028   43.5480   53.3340 H   0  0  0  0  0  0  0  0  0  0  0  0
    0.7045   42.7836   54.2294 H   0  0  0  0  0  0  0  0  0  0  0  0
   -1.2410   44.8390   55.1076 H   0  0  0  0  0  0  0  0  0  0  0  0
   -0.1394   43.8323   56.1096 H   0  0  0  0  0  0  0  0  0  0  0  0
    2.0271   46.5076   54.2341 H   0  0  0  0  0  0  0  0  0  0  0  0
    2.5444   44.9920   55.0325 H   0  0  0  0  0  0  0  0  0  0  0  0
  1  2  1  0
  3  2  1  6
  3  4  1  0
  4  5  2  0
  5  6  1  0
  6  7  2  0
  7  8  1  0
  8  9  1  0
  9 10  1  0
 10 11  1  0
 11 12  1  0
 12 13  2  0
 12 14  1  0
 14 15  1  0
 15 16  1  0
 15 17  1  0
 15 18  1  0
 11 19  1  0
  3 20  1  0
 20 21  1  0
 21 22  1  0
 22 23  1  0
 23  3  1  0
  8  4  1  0
 19  7  1  0
  1 24  1  0
  1 25  1  0
  1 26  1  0
  9 27  1  0
  9 28  1  0
 10 29  1  0
 10 30  1  0
 16 31  1  0
 16 32  1  0
 16 33  1  0
 17 34  1  0
 17 35  1  0
 17 36  1  0
 18 37  1  0
 18 38  1  0
 18 39  1  0
 19 40  1  0
 19 41  1  0
 20 42  1  0
 20 43  1  0
 21 44  1  0
 21 45  1  0
 23 46  1  0
 23 47  1  0
M  END
>  <meeko>  (2) 
{"is_sidechain": [false], "free_energy": -7.378, "intermolecular_energy": -9.632, "internal_energy": -0.493}

$$$$
ligand_42_conformer_4_docked
     RDKit          3D

 47 49  0  0  0  0  0  0  0  0999 V2000
   -0.6390   44.7820   51.4950 C   0  0  0  0  0  0  0  0  0  0  0  0
   -0.1600   45.3860   52.6840 O   0  0  0  0  0  0  0  0  0  0  0  0
    0.4730   44.4660   53.5720 C   0  0  2  0  0  0  0  0  0  0  0  0
    1.9080   44.1310   53.1620 C   0  0  0  0  0  0  0  0  0  0  0  0
    2.2860   42.9310   52.6680 N   0  0  0  0  0  0  0  0  0  0  0  0
    3.6010   42.9640   52.5010 N   0  0  0  0  0  0  0  0  0  0  0  0
    4.0060   44.1820   52.9010 C   0  0  0  0  0  0  0  0  0  0  0  0
    2.9780   44.9440   53.3030 N   0  0  0  0  0  0  0  0  0  0  0  0
    3.1120   46.2540   53.9320 C   0  0  0  0  0  0  0  0  0  0  0  0
    4.4110   46.9220   53.4650 C   0  0  0  0  0  0  0  0  0  0  0  0
    5.5440   45.9800   53.5440 N   0  0  0  0  0  0  0  0  0  0  0  0
    6.8440   46.4570   53.9440 C   0  0  0  0  0  0  0  0  0  0  0  0
    6.9470   47.2600   54.9120 O   0  0  0  0  0  0  0  0  0  0  0  0
    7.9880   46.0240   53.2550 O   0  0  0  0  0  0  0  0  0  0  0  0
    9.0430   46.8540   52.7460 C   0  0  0  0  0  0  0  0  0  0  0  0
    9.9210   46.0690   51.7530 C   0  0  0  0  0  0  0  0  0  0  0  0
    8.3800   48.0250   52.0040 C   0  0  0  0  0  0  0  0  0  0  0  0
    9.8960   47.4160   53.9010 C   0  0  0  0  0  0  0  0  0  0  0  0
    5.4300   44.6410   52.9360 C   0  0  0  0  0  0  0  0  0  0  0  0
   -0.3710   43.2080   53.6280 C   0  0  0  0  0  0  0  0  0  0  0  0
   -1.3440   43.4600   54.7690 C   0  0  0  0  0  0  0  0  0  0  0  0
   -0.9320   44.5900   55.5000 O   0  0  0  0  0  0  0  0  0  0  0  0
    0.3460   44.9370   55.0280 C   0  0  0  0  0  0  0  0  0  0  0  0
   -1.3037   43.9439   51.7515 H   0  0  0  0  0  0  0  0  0  0  0  0
   -1.1963   45.5247   50.9052 H   0  0  0  0  0  0  0  0  0  0  0  0
    0.2111   44.4085   50.9052 H   0  0  0  0  0  0  0  0  0  0  0  0
    2.2553   46.8840   53.6505 H   0  0  0  0  0  0  0  0  0  0  0  0
    3.1380   46.1320   55.0249 H   0  0  0  0  0  0  0  0  0  0  0  0
    4.2909   47.2547   52.4234 H   0  0  0  0  0  0  0  0  0  0  0  0
    4.6206   47.7804   54.1201 H   0  0  0  0  0  0  0  0  0  0  0  0
   10.6283   45.4366   52.3095 H   0  0  0  0  0  0  0  0  0  0  0  0
    9.2822   45.4354   51.1202 H   0  0  0  0  0  0  0  0  0  0  0  0
   10.4794   46.7745   51.1202 H   0  0  0  0  0  0  0  0  0  0  0  0
    7.9751   48.7402   52.7351 H   0  0  0  0  0  0  0  0  0  0  0  0
    9.1267   48.5290   51.3729 H   0  0  0  0  0  0  0  0  0  0  0  0
    7.5636   47.6440   51.3729 H   0  0  0  0  0  0  0  0  0  0  0  0
    9.4501   47.1222   54.8627 H   0  0  0  0  0  0  0  0  0  0  0  0
   10.9173   47.0134   53.8321 H   0  0  0  0  0  0  0  0  0  0  0  0
    9.9291   48.5133   53.8321 H   0  0  0  0  0  0  0  0  0  0  0  0
    5.8200   44.6792   51.9082 H   0  0  0  0  0  0  0  0  0  0  0  0
    6.0098   43.9315   53.5447 H   0  0  0  0  0  0  0  0  0  0  0  0
   -0.9107   43.0582   52.6813 H   0  0  0  0  0  0  0  0  0  0  0  0
    0.2337   42.3023   53.7831 H   0  0  0  0  0  0  0  0  0  0  0  0
   -2.3501   43.6353   54.3602 H   0  0  0  0  0  0  0  0  0  0  0  0
   -1.3638   42.5829   55.4326 H   0  0  0  0  0  0  0  0  0  0  0  0
    0.4760   46.0282   55.0775 H   0  0  0  0  0  0  0  0  0  0  0  0
    1.1189   44.4585   55.6474 H   0  0  0  0  0  0  0  0  0  0  0  0
  1  2  1  0
  3  2  1  6
  3  4  1  0
  4  5  2  0
  5  6  1  0
  6  7  2  0
  7  8  1  0
  8  9  1  0
  9 10  1  0
 10 11  1  0
 11 12  1  0
 12 13  2  0
 12 14  1  0
 14 15  1  0
 15 16  1  0
 15 17  1  0
 15 18  1  0
 11 19  1  0
  3 20  1  0
 20 21  1  0
 21 22  1  0
 22 23  1  0
 23  3  1  0
  8  4  1  0
 19  7  1  0
  1 24  1  0
  1 25  1  0
  1 26  1  0
  9 27  1  0
  9 28  1  0
 10 29  1  0
 10 30  1  0
 16 31  1  0
 16 32  1  0
 16 33  1  0
 17 34  1  0
 17 35  1  0
 17 36  1  0
 18 37  1  0
 18 38  1  0
 18 39  1  0
 19 40  1  0
 19 41  1  0
 20 42  1  0
 20 43  1  0
 21 44  1  0
 21 45  1  0
 23 46  1  0
 23 47  1  0
M  END
>  <meeko>  (3) 
{"is_sidechain": [false], "free_energy": -7.28, "intermolecular_energy": -9.887, "internal_energy": -0.111}

$$$$
ligand_42_conformer_4_docked
     RDKit          3D

 47 49  0  0  0  0  0  0  0  0999 V2000
    0.2700   41.9480   53.5990 C   0  0  0  0  0  0  0  0  0  0  0  0
    0.5270   42.9780   52.6580 O   0  0  0  0  0  0  0  0  0  0  0  0
    0.5350   44.2820   53.2360 C   0  0  2  0  0  0  0  0  0  0  0  0
    1.8720   44.6360   53.8900 C   0  0  0  0  0  0  0  0  0  0  0  0
    1.9920   45.0530   55.1710 N   0  0  0  0  0  0  0  0  0  0  0  0
    3.2680   45.3470   55.3760 N   0  0  0  0  0  0  0  0  0  0  0  0
    3.9070   45.1130   54.2160 C   0  0  0  0  0  0  0  0  0  0  0  0
    3.0730   44.6520   53.2720 N   0  0  0  0  0  0  0  0  0  0  0  0
    3.4350   44.4500   51.8720 C   0  0  0  0  0  0  0  0  0  0  0  0
    4.9360   44.1580   51.7620 C   0  0  0  0  0  0  0  0  0  0  0  0
    5.7170   45.1210   52.5630 N   0  0  0  0  0  0  0  0  0  0  0  0
    6.9870   45.5960   52.0720 C   0  0  0  0  0  0  0  0  0  0  0  0
    7.2060   45.6270   50.8300 O   0  0  0  0  0  0  0  0  0  0  0  0
    7.9700   46.0230   52.9780 O   0  0  0  0  0  0  0  0  0  0  0  0
    8.9850   47.0090   52.7350 C   0  0  0  0  0  0  0  0  0  0  0  0
    8.4000   48.2130   51.9710 C   0  0  0  0  0  0  0  0  0  0  0  0
    9.4880   47.4890   54.1050 C   0  0  0  0  0  0  0  0  0  0  0  0
   10.1650   46.3930   51.9590 C   0  0  0  0  0  0  0  0  0  0  0  0
    5.3620   45.3610   53.9750 C   0  0  0  0  0  0  0  0  0  0  0  0
   -0.5900   44.3580   54.2480 C   0  0  0  0  0  0  0  0  0  0  0  0
   -1.7840   44.8480   53.4460 C   0  0  0  0  0  0  0  0  0  0  0  0
   -1.3520   45.3020   52.1860 O   0  0  0  0  0  0  0  0  0  0  0  0
    0.0520   45.3310   52.2230 C   0  0  0  0  0  0  0  0  0  0  0  0
    0.3701   42.3492   54.6183 H   0  0  0  0  0  0  0  0  0  0  0  0
   -0.7511   41.5655   53.4542 H   0  0  0  0  0  0  0  0  0  0  0  0
    0.9917   41.1306   53.4542 H   0  0  0  0  0  0  0  0  0  0  0  0
    2.8667   43.5999   51.4666 H   0  0  0  0  0  0  0  0  0  0  0  0
    3.1985   45.3595   51.3003 H   0  0  0  0  0  0  0  0  0  0  0  0
    5.1333   43.1399   52.1289 H   0  0  0  0  0  0  0  0  0  0  0  0
    5.2369   44.2499   50.7080 H   0  0  0  0  0  0  0  0  0  0  0  0
    8.0362   48.9618   52.6900 H   0  0  0  0  0  0  0  0  0  0  0  0
    9.1810   48.6607   51.3389 H   0  0  0  0  0  0  0  0  0  0  0  0
    7.5653   47.8757   51.3389 H   0  0  0  0  0  0  0  0  0  0  0  0
    8.9390   46.9651   54.9013 H   0  0  0  0  0  0  0  0  0  0  0  0
   10.5626   47.2730   54.1973 H   0  0  0  0  0  0  0  0  0  0  0  0
    9.3225   48.5726   54.1973 H   0  0  0  0  0  0  0  0  0  0  0  0
   10.9088   46.0047   52.6703 H   0  0  0  0  0  0  0  0  0  0  0  0
    9.7987   45.5711   51.3264 H   0  0  0  0  0  0  0  0  0  0  0  0
   10.6299   47.1635   51.3264 H   0  0  0  0  0  0  0  0  0  0  0  0
    5.9516   44.6862   54.6130 H   0  0  0  0  0  0  0  0  0  0  0  0
    5.5810   46.4118   54.2157 H   0  0  0  0  0  0  0  0  0  0  0  0
   -0.7918   43.3673   54.6814 H   0  0  0  0  0  0  0  0  0  0  0  0
   -0.3510   45.0203   55.0931 H   0  0  0  0  0  0  0  0  0  0  0  0
   -2.4989   44.0227   53.3124 H   0  0  0  0  0  0  0  0  0  0  0  0
   -2.2717   45.6740   53.9845 H   0  0  0  0  0  0  0  0  0  0  0  0
    0.4543   45.0970   51.2263 H   0  0  0  0  0  0  0  0  0  0  0  0
    0.4005   46.3309   52.5209 H   0  0  0  0  0  0  0  0  0  0  0  0
  1  2  1  0
  3  2  1  6
  3  4  1  0
  4  5  2  0
  5  6  1  0
  6  7  2  0
  7  8  1  0
  8  9  1  0
  9 10  1  0
 10 11  1  0
 11 12  1  0
 12 13  2  0
 12 14  1  0
 14 15  1  0
 15 16  1  0
 15 17  1  0
 15 18  1  0
 11 19  1  0
  3 20  1  0
 20 21  1  0
 21 22  1  0
 22 23  1  0
 23  3  1  0
  8  4  1  0
 19  7  1  0
  1 24  1  0
  1 25  1  0
  1 26  1  0
  9 27  1  0
  9 28  1  0
 10 29  1  0
 10 30  1  0
 16 31  1  0
 16 32  1  0
 16 33  1  0
 17 34  1  0
 17 35  1  0
 17 36  1  0
 18 37  1  0
 18 38  1  0
 18 39  1  0
 19 40  1  0
 19 41  1  0
 20 42  1  0
 20 43  1  0
 21 44  1  0
 21 45  1  0
 23 46  1  0
 23 47  1  0
M  END
>  <meeko>  (4) 
{"is_sidechain": [false], "free_energy": -7.068, "intermolecular_energy": -9.575, "internal_energy": -0.15}

$$$$
ligand_42_conformer_4_docked
     RDKit          3D

 47 49  0  0  0  0  0  0  0  0999 V2000
    9.5780   47.9390   55.0480 C   0  0  0  0  0  0  0  0  0  0  0  0
    8.7630   48.3680   53.9710 O   0  0  0  0  0  0  0  0  0  0  0  0
    8.2200   47.2920   53.2070 C   0  0  2  0  0  0  0  0  0  0  0  0
    6.8270   46.8700   53.6770 C   0  0  0  0  0  0  0  0  0  0  0  0
    6.2530   47.3160   54.8160 N   0  0  0  0  0  0  0  0  0  0  0  0
    5.0940   46.6870   54.9520 N   0  0  0  0  0  0  0  0  0  0  0  0
    4.9820   45.8600   53.8970 C   0  0  0  0  0  0  0  0  0  0  0  0
    6.0340   45.9590   53.0720 N   0  0  0  0  0  0  0  0  0  0  0  0
    6.2750   45.0860   51.9260 C   0  0  0  0  0  0  0  0  0  0  0  0
    4.9400   44.5560   51.3900 C   0  0  0  0  0  0  0  0  0  0  0  0
    4.0910   44.0610   52.4900 N   0  0  0  0  0  0  0  0  0  0  0  0
    3.2710   42.8920   52.2910 C   0  0  0  0  0  0  0  0  0  0  0  0
    3.6470   41.9920   51.4900 O   0  0  0  0  0  0  0  0  0  0  0  0
    2.0610   42.7610   52.9910 O   0  0  0  0  0  0  0  0  0  0  0  0
    0.7830   43.2750   52.5880 C   0  0  0  0  0  0  0  0  0  0  0  0
    0.8480   43.8290   51.1510 C   0  0  0  0  0  0  0  0  0  0  0  0
   -0.2090   42.1010   52.6220 C   0  0  0  0  0  0  0  0  0  0  0  0
    0.3010   44.3610   53.5690 C   0  0  0  0  0  0  0  0  0  0  0  0
    3.8470   44.9120   53.6700 C   0  0  0  0  0  0  0  0  0  0  0  0
    9.1850   46.1260   53.2850 C   0  0  0  0  0  0  0  0  0  0  0  0
   10.1220   46.3350   52.1060 C   0  0  0  0  0  0  0  0  0  0  0  0
    9.5970   47.3260   51.2560 O   0  0  0  0  0  0  0  0  0  0  0  0
    8.2930   47.5990   51.7040 C   0  0  0  0  0  0  0  0  0  0  0  0
    9.0914   48.1951   56.0007 H   0  0  0  0  0  0  0  0  0  0  0  0
    9.7193   46.8497   54.9897 H   0  0  0  0  0  0  0  0  0  0  0  0
   10.5560   48.4392   54.9897 H   0  0  0  0  0  0  0  0  0  0  0  0
    6.7869   45.6538   51.1351 H   0  0  0  0  0  0  0  0  0  0  0  0
    6.9036   44.2393   52.2390 H   0  0  0  0  0  0  0  0  0  0  0  0
    4.4141   45.3680   50.8664 H   0  0  0  0  0  0  0  0  0  0  0  0
    5.1435   43.7232   50.7007 H   0  0  0  0  0  0  0  0  0  0  0  0
    0.9761   44.9210   51.1845 H   0  0  0  0  0  0  0  0  0  0  0  0
    1.6992   43.3760   50.6215 H   0  0  0  0  0  0  0  0  0  0  0  0
   -0.0849   43.5853   50.6215 H   0  0  0  0  0  0  0  0  0  0  0  0
   -0.4308   41.8385   53.6669 H   0  0  0  0  0  0  0  0  0  0  0  0
   -1.1390   42.3919   52.1117 H   0  0  0  0  0  0  0  0  0  0  0  0
    0.2330   41.2326   52.1117 H   0  0  0  0  0  0  0  0  0  0  0  0
    0.4542   44.0159   54.6022 H   0  0  0  0  0  0  0  0  0  0  0  0
    0.8733   45.2855   53.4026 H   0  0  0  0  0  0  0  0  0  0  0  0
   -0.7686   44.5568   53.4026 H   0  0  0  0  0  0  0  0  0  0  0  0
    2.9238   45.4888   53.5117 H   0  0  0  0  0  0  0  0  0  0  0  0
    3.7524   44.2637   54.5536 H   0  0  0  0  0  0  0  0  0  0  0  0
    9.7420   46.1438   54.2334 H   0  0  0  0  0  0  0  0  0  0  0  0
    8.6729   45.1532   53.2478 H   0  0  0  0  0  0  0  0  0  0  0  0
   11.1084   46.6535   52.4742 H   0  0  0  0  0  0  0  0  0  0  0  0
   10.2240   45.3921   51.5487 H   0  0  0  0  0  0  0  0  0  0  0  0
    8.0550   48.6587   51.5297 H   0  0  0  0  0  0  0  0  0  0  0  0
    7.5686   46.9778   51.1568 H   0  0  0  0  0  0  0  0  0  0  0  0
  1  2  1  0
  3  2  1  1
  3  4  1  0
  4  5  2  0
  5  6  1  0
  6  7  2  0
  7  8  1  0
  8  9  1  0
  9 10  1  0
 10 11  1  0
 11 12  1  0
 12 13  2  0
 12 14  1  0
 14 15  1  0
 15 16  1  0
 15 17  1  0
 15 18  1  0
 11 19  1  0
  3 20  1  0
 20 21  1  0
 21 22  1  0
 22 23  1  0
 23  3  1  0
  8  4  1  0
 19  7  1  0
  1 24  1  0
  1 25  1  0
  1 26  1  0
  9 27  1  0
  9 28  1  0
 10 29  1  0
 10 30  1  0
 16 31  1  0
 16 32  1  0
 16 33  1  0
 17 34  1  0
 17 35  1  0
 17 36  1  0
 18 37  1  0
 18 38  1  0
 18 39  1  0
 19 40  1  0
 19 41  1  0
 20 42  1  0
 20 43  1  0
 21 44  1  0
 21 45  1  0
 23 46  1  0
 23 47  1  0
M  END
>  <meeko>  (5) 
{"is_sidechain": [false], "free_energy": -6.995, "intermolecular_energy": -9.631, "internal_energy": 0.001}

$$$$
