ligand_14_conformer_1_docked
     RDKit          3D

 47 50  0  0  0  0  0  0  0  0999 V2000
   10.4130   46.0280   51.0850 C   0  0  0  0  0  0  0  0  0  0  0  0
    9.3040   46.3490   52.0430 C   0  0  0  0  0  0  0  0  0  0  0  0
    9.5790   47.0190   53.2430 C   0  0  0  0  0  0  0  0  0  0  0  0
    8.5460   47.3460   54.1240 C   0  0  0  0  0  0  0  0  0  0  0  0
    8.8360   47.9770   55.2900 F   0  0  0  0  0  0  0  0  0  0  0  0
    7.2210   47.0250   53.8050 C   0  0  0  0  0  0  0  0  0  0  0  0
    6.2250   47.3310   54.6770 N   0  0  0  0  0  0  0  0  0  0  0  0
    4.9250   47.0360   54.4200 C   0  0  0  0  0  0  0  0  0  0  0  0
    3.9510   47.3710   55.3560 O   0  0  0  0  0  0  0  0  0  0  0  0
    4.5760   46.4060   53.2220 C   0  0  0  0  0  0  0  0  0  0  0  0
    5.5680   46.0870   52.2850 C   0  0  0  0  0  0  0  0  0  0  0  0
    5.1560   45.4490   51.0190 C   0  0  0  0  0  0  0  0  0  0  0  0
    4.7190   46.1740   50.0850 O   0  0  0  0  0  0  0  0  0  0  0  0
    5.2650   44.0270   50.8300 N   0  0  0  0  0  0  0  0  0  0  0  0
    4.2840   43.0850   51.3400 C   0  0  0  0  0  0  0  0  0  0  0  0
    4.6280   41.7460   50.6990 C   0  0  0  0  0  0  0  0  0  0  0  0
    6.0680   41.8870   50.1940 C   0  0  1  0  0  0  0  0  0  0  0  0
    6.2830   41.1310   48.9510 N   0  0  0  0  0  0  0  0  0  0  0  0
    5.3790   41.1500   47.8280 C   0  0  0  0  0  0  0  0  0  0  0  0
    4.1450   40.4690   47.8490 C   0  0  0  0  0  0  0  0  0  0  0  0
    3.2960   40.5090   46.7380 C   0  0  0  0  0  0  0  0  0  0  0  0
    3.6680   41.2210   45.5960 C   0  0  0  0  0  0  0  0  0  0  0  0
    4.8910   41.8930   45.5610 C   0  0  0  0  0  0  0  0  0  0  0  0
    5.7430   41.8570   46.6690 C   0  0  0  0  0  0  0  0  0  0  0  0
    6.2770   43.3920   50.0020 C   0  0  0  0  0  0  0  0  0  0  0  0
    6.9210   46.3800   52.5800 C   0  0  0  0  0  0  0  0  0  0  0  0
    7.9760   46.0390   51.7100 C   0  0  0  0  0  0  0  0  0  0  0  0
   11.3202   45.7654   51.6490 H   0  0  0  0  0  0  0  0  0  0  0  0
   10.1163   45.1789   50.4518 H   0  0  0  0  0  0  0  0  0  0  0  0
   10.6157   46.9043   50.4518 H   0  0  0  0  0  0  0  0  0  0  0  0
   10.6157   47.2891   53.4925 H   0  0  0  0  0  0  0  0  0  0  0  0
    3.8210   48.3270   55.6680 H   0  0  0  0  0  0  0  0  0  0  0  0
    3.5238   46.1609   53.0150 H   0  0  0  0  0  0  0  0  0  0  0  0
    4.3527   43.0149   52.4356 H   0  0  0  0  0  0  0  0  0  0  0  0
    3.2570   43.3982   51.1010 H   0  0  0  0  0  0  0  0  0  0  0  0
    4.5590   40.9365   51.4406 H   0  0  0  0  0  0  0  0  0  0  0  0
    3.9339   41.4957   49.8832 H   0  0  0  0  0  0  0  0  0  0  0  0
    6.7964   41.4695   50.9047 H   0  0  0  0  0  0  0  0  0  0  0  0
    7.1450   40.5470   48.8630 H   0  0  0  0  0  0  0  0  0  0  0  0
    3.8480   39.9029   48.7441 H   0  0  0  0  0  0  0  0  0  0  0  0
    2.3329   39.9782   46.7641 H   0  0  0  0  0  0  0  0  0  0  0  0
    2.9977   41.2524   44.7244 H   0  0  0  0  0  0  0  0  0  0  0  0
    5.1849   42.4518   44.6602 H   0  0  0  0  0  0  0  0  0  0  0  0
    6.7065   42.3865   46.6334 H   0  0  0  0  0  0  0  0  0  0  0  0
    7.2846   43.6864   50.3308 H   0  0  0  0  0  0  0  0  0  0  0  0
    6.1885   43.6875   48.9461 H   0  0  0  0  0  0  0  0  0  0  0  0
    7.7570   45.5256   50.7621 H   0  0  0  0  0  0  0  0  0  0  0  0
  1  2  1  0
  2  3  2  0
  3  4  1  0
  4  5  1  0
  4  6  2  0
  6  7  1  0
  7  8  2  0
  8  9  1  0
  8 10  1  0
 10 11  2  0
 11 12  1  0
 12 13  2  0
 12 14  1  0
 14 15  1  0
 15 16  1  0
 16 17  1  0
 17 18  1  0
 18 19  1  0
 19 20  2  0
 20 21  1  0
 21 22  2  0
 22 23  1  0
 23 24  2  0
 17 25  1  0
 11 26  1  0
 26 27  2  0
 27  2  1  0
 26  6  1  0
 25 14  1  0
 24 19  1  0
  1 28  1  0
  1 29  1  0
  1 30  1  0
  3 31  1  0
  9 32  1  0
 10 33  1  0
 15 34  1  0
 15 35  1  0
 16 36  1  0
 16 37  1  0
 17 38  1  1
 18 39  1  0
 20 40  1  0
 21 41  1  0
 22 42  1  0
 23 43  1  0
 24 44  1  0
 25 45  1  0
 25 46  1  0
 27 47  1  0
M  END
>  <meeko>  (1) 
{"is_sidechain": [false], "free_energy": -9.823, "intermolecular_energy": -12.407, "internal_energy": -0.482}

$$$$
ligand_14_conformer_1_docked
     RDKit          3D

 47 50  0  0  0  0  0  0  0  0999 V2000
    8.7330   48.3680   54.5750 C   0  0  0  0  0  0  0  0  0  0  0  0
    8.8310   47.4180   53.4170 C   0  0  0  0  0  0  0  0  0  0  0  0
   10.0770   46.9110   53.0230 C   0  0  0  0  0  0  0  0  0  0  0  0
   10.1680   46.0030   51.9650 C   0  0  0  0  0  0  0  0  0  0  0  0
   11.3870   45.5390   51.5870 F   0  0  0  0  0  0  0  0  0  0  0  0
    9.0130   45.5760   51.3020 C   0  0  0  0  0  0  0  0  0  0  0  0
    9.1140   44.7070   50.2630 N   0  0  0  0  0  0  0  0  0  0  0  0
    8.0270   44.2660   49.5810 C   0  0  0  0  0  0  0  0  0  0  0  0
    8.1970   43.3790   48.5210 O   0  0  0  0  0  0  0  0  0  0  0  0
    6.7500   44.7000   49.9490 C   0  0  0  0  0  0  0  0  0  0  0  0
    6.5940   45.5830   51.0270 C   0  0  0  0  0  0  0  0  0  0  0  0
    5.2280   45.9940   51.4040 C   0  0  0  0  0  0  0  0  0  0  0  0
    4.3980   46.2610   50.4930 O   0  0  0  0  0  0  0  0  0  0  0  0
    4.8270   46.0750   52.7830 N   0  0  0  0  0  0  0  0  0  0  0  0
    4.4100   47.3150   53.4130 C   0  0  0  0  0  0  0  0  0  0  0  0
    3.8250   46.9140   54.7620 C   0  0  0  0  0  0  0  0  0  0  0  0
    4.3400   45.4960   55.0320 C   0  0  1  0  0  0  0  0  0  0  0  0
    3.3490   44.6880   55.7570 N   0  0  0  0  0  0  0  0  0  0  0  0
    1.9280   44.7480   55.5200 C   0  0  0  0  0  0  0  0  0  0  0  0
    1.3370   44.1840   54.3720 C   0  0  0  0  0  0  0  0  0  0  0  0
   -0.0460   44.2660   54.1760 C   0  0  0  0  0  0  0  0  0  0  0  0
   -0.8510   44.9120   55.1160 C   0  0  0  0  0  0  0  0  0  0  0  0
   -0.2750   45.4820   56.2530 C   0  0  0  0  0  0  0  0  0  0  0  0
    1.1060   45.4030   56.4540 C   0  0  0  0  0  0  0  0  0  0  0  0
    4.6610   44.9190   53.6500 C   0  0  0  0  0  0  0  0  0  0  0  0
    7.7420   46.0500   51.7100 C   0  0  0  0  0  0  0  0  0  0  0  0
    7.6670   46.9810   52.7660 C   0  0  0  0  0  0  0  0  0  0  0  0
    8.7912   47.8042   55.5177 H   0  0  0  0  0  0  0  0  0  0  0  0
    9.5614   49.0902   54.5279 H   0  0  0  0  0  0  0  0  0  0  0  0
    7.7746   48.9058   54.5279 H   0  0  0  0  0  0  0  0  0  0  0  0
   10.9885   47.2299   53.5498 H   0  0  0  0  0  0  0  0  0  0  0  0
    8.1040   42.3780   48.6470 H   0  0  0  0  0  0  0  0  0  0  0  0
    5.8681   44.3490   49.3932 H   0  0  0  0  0  0  0  0  0  0  0  0
    5.2722   47.9837   53.5521 H   0  0  0  0  0  0  0  0  0  0  0  0
    3.6776   47.8577   52.7973 H   0  0  0  0  0  0  0  0  0  0  0  0
    4.1673   47.6027   55.5485 H   0  0  0  0  0  0  0  0  0  0  0  0
    2.7257   46.9525   54.7555 H   0  0  0  0  0  0  0  0  0  0  0  0
    5.2280   45.4973   55.6811 H   0  0  0  0  0  0  0  0  0  0  0  0
    3.6850   44.0190   56.4870 H   0  0  0  0  0  0  0  0  0  0  0  0
    1.9662   43.6765   53.6259 H   0  0  0  0  0  0  0  0  0  0  0  0
   -0.5002   43.8202   53.2788 H   0  0  0  0  0  0  0  0  0  0  0  0
   -1.9384   44.9719   54.9610 H   0  0  0  0  0  0  0  0  0  0  0  0
   -0.9090   45.9941   56.9918 H   0  0  0  0  0  0  0  0  0  0  0  0
    1.5535   45.8571   57.3504 H   0  0  0  0  0  0  0  0  0  0  0  0
    5.5874   44.3269   53.6849 H   0  0  0  0  0  0  0  0  0  0  0  0
    3.8680   44.2465   53.2910 H   0  0  0  0  0  0  0  0  0  0  0  0
    6.6873   47.3684   53.0826 H   0  0  0  0  0  0  0  0  0  0  0  0
  1  2  1  0
  2  3  2  0
  3  4  1  0
  4  5  1  0
  4  6  2  0
  6  7  1  0
  7  8  2  0
  8  9  1  0
  8 10  1  0
 10 11  2  0
 11 12  1  0
 12 13  2  0
 12 14  1  0
 14 15  1  0
 15 16  1  0
 16 17  1  0
 17 18  1  0
 18 19  1  0
 19 20  2  0
 20 21  1  0
 21 22  2  0
 22 23  1  0
 23 24  2  0
 17 25  1  0
 11 26  1  0
 26 27  2  0
 27  2  1  0
 26  6  1  0
 25 14  1  0
 24 19  1  0
  1 28  1  0
  1 29  1  0
  1 30  1  0
  3 31  1  0
  9 32  1  0
 10 33  1  0
 15 34  1  0
 15 35  1  0
 16 36  1  0
 16 37  1  0
 17 38  1  1
 18 39  1  0
 20 40  1  0
 21 41  1  0
 22 42  1  0
 23 43  1  0
 24 44  1  0
 25 45  1  0
 25 46  1  0
 27 47  1  0
M  END
>  <meeko>  (2) 
{"is_sidechain": [false], "free_energy": -9.794, "intermolecular_energy": -12.615, "internal_energy": -0.238}

$$$$
ligand_14_conformer_1_docked
     RDKit          3D

 47 50  0  0  0  0  0  0  0  0999 V2000
    7.5000   44.0290   49.7300 C   0  0  0  0  0  0  0  0  0  0  0  0
    6.1390   43.5020   50.0800 C   0  0  0  0  0  0  0  0  0  0  0  0
    5.7580   42.2120   49.6850 C   0  0  0  0  0  0  0  0  0  0  0  0
    4.5030   41.7080   50.0350 C   0  0  0  0  0  0  0  0  0  0  0  0
    4.1460   40.4630   49.6260 F   0  0  0  0  0  0  0  0  0  0  0  0
    3.6230   42.4780   50.8030 C   0  0  0  0  0  0  0  0  0  0  0  0
    2.3980   41.9850   51.1230 N   0  0  0  0  0  0  0  0  0  0  0  0
    1.5040   42.6930   51.8590 C   0  0  0  0  0  0  0  0  0  0  0  0
    0.2620   42.1350   52.1490 O   0  0  0  0  0  0  0  0  0  0  0  0
    1.8370   43.9700   52.3200 C   0  0  0  0  0  0  0  0  0  0  0  0
    3.0960   44.5130   52.0300 C   0  0  0  0  0  0  0  0  0  0  0  0
    3.4210   45.8520   52.5610 C   0  0  0  0  0  0  0  0  0  0  0  0
    2.7790   46.8490   52.1330 O   0  0  0  0  0  0  0  0  0  0  0  0
    4.4360   46.0300   53.5640 N   0  0  0  0  0  0  0  0  0  0  0  0
    4.8100   44.9860   54.5030 C   0  0  0  0  0  0  0  0  0  0  0  0
    6.0760   45.4860   55.1890 C   0  0  0  0  0  0  0  0  0  0  0  0
    6.1200   46.9950   54.9280 C   0  0  1  0  0  0  0  0  0  0  0  0
    7.5000   47.4790   54.7740 N   0  0  0  0  0  0  0  0  0  0  0  0
    8.3300   47.2000   53.6290 C   0  0  0  0  0  0  0  0  0  0  0  0
    9.4660   46.3690   53.7130 C   0  0  0  0  0  0  0  0  0  0  0  0
   10.2480   46.1250   52.5790 C   0  0  0  0  0  0  0  0  0  0  0  0
    9.9110   46.7070   51.3550 C   0  0  0  0  0  0  0  0  0  0  0  0
    8.7930   47.5370   51.2620 C   0  0  0  0  0  0  0  0  0  0  0  0
    8.0080   47.7850   52.3920 C   0  0  0  0  0  0  0  0  0  0  0  0
    5.2870   47.2050   53.6610 C   0  0  0  0  0  0  0  0  0  0  0  0
    4.0060   43.7700   51.2410 C   0  0  0  0  0  0  0  0  0  0  0  0
    5.2670   44.2740   50.8640 C   0  0  0  0  0  0  0  0  0  0  0  0
    8.0580   44.2451   50.6530 H   0  0  0  0  0  0  0  0  0  0  0  0
    8.0440   43.2765   49.1402 H   0  0  0  0  0  0  0  0  0  0  0  0
    7.3954   44.9516   49.1402 H   0  0  0  0  0  0  0  0  0  0  0  0
    6.4511   41.5932   49.0962 H   0  0  0  0  0  0  0  0  0  0  0  0
    0.1790   41.2710   52.6720 H   0  0  0  0  0  0  0  0  0  0  0  0
    1.1110   44.5485   52.9102 H   0  0  0  0  0  0  0  0  0  0  0  0
    4.0098   44.8288   55.2412 H   0  0  0  0  0  0  0  0  0  0  0  0
    4.9744   44.0232   53.9970 H   0  0  0  0  0  0  0  0  0  0  0  0
    6.0319   45.2847   56.2695 H   0  0  0  0  0  0  0  0  0  0  0  0
    6.9737   44.9807   54.8032 H   0  0  0  0  0  0  0  0  0  0  0  0
    5.7145   47.5703   55.7733 H   0  0  0  0  0  0  0  0  0  0  0  0
    7.9120   48.0680   55.5330 H   0  0  0  0  0  0  0  0  0  0  0  0
    9.7387   45.9103   54.6749 H   0  0  0  0  0  0  0  0  0  0  0  0
   11.1309   45.4729   52.6516 H   0  0  0  0  0  0  0  0  0  0  0  0
   10.5266   46.5113   50.4646 H   0  0  0  0  0  0  0  0  0  0  0  0
    8.5290   47.9968   50.2982 H   0  0  0  0  0  0  0  0  0  0  0  0
    7.1306   48.4437   52.3124 H   0  0  0  0  0  0  0  0  0  0  0  0
    4.6774   48.1166   53.7471 H   0  0  0  0  0  0  0  0  0  0  0  0
    5.9194   47.3289   52.7695 H   0  0  0  0  0  0  0  0  0  0  0  0
    5.5706   45.2808   51.1868 H   0  0  0  0  0  0  0  0  0  0  0  0
  1  2  1  0
  2  3  2  0
  3  4  1  0
  4  5  1  0
  4  6  2  0
  6  7  1  0
  7  8  2  0
  8  9  1  0
  8 10  1  0
 10 11  2  0
 11 12  1  0
 12 13  2  0
 12 14  1  0
 14 15  1  0
 15 16  1  0
 16 17  1  0
 17 18  1  0
 18 19  1  0
 19 20  2  0
 20 21  1  0
 21 22  2  0
 22 23  1  0
 23 24  2  0
 17 25  1  0
 11 26  1  0
 26 27  2  0
 27  2  1  0
 26  6  1  0
 25 14  1  0
 24 19  1  0
  1 28  1  0
  1 29  1  0
  1 30  1  0
  3 31  1  0
  9 32  1  0
 10 33  1  0
 15 34  1  0
 15 35  1  0
 16 36  1  0
 16 37  1  0
 17 38  1  1
 18 39  1  0
 20 40  1  0
 21 41  1  0
 22 42  1  0
 23 43  1  0
 24 44  1  0
 25 45  1  0
 25 46  1  0
 27 47  1  0
M  END
>  <meeko>  (3) 
{"is_sidechain": [false], "free_energy": -9.521, "intermolecular_energy": -11.769, "internal_energy": -0.739}

$$$$
ligand_14_conformer_1_docked
     RDKit          3D

 47 50  0  0  0  0  0  0  0  0999 V2000
   10.9860   45.9310   51.5240 C   0  0  0  0  0  0  0  0  0  0  0  0
    9.8040   46.3190   52.3640 C   0  0  0  0  0  0  0  0  0  0  0  0
    9.9800   47.1230   53.4990 C   0  0  0  0  0  0  0  0  0  0  0  0
    8.8790   47.5120   54.2660 C   0  0  0  0  0  0  0  0  0  0  0  0
    9.0720   48.2740   55.3730 F   0  0  0  0  0  0  0  0  0  0  0  0
    7.5880   47.1190   53.8950 C   0  0  0  0  0  0  0  0  0  0  0  0
    6.5260   47.4880   54.6590 N   0  0  0  0  0  0  0  0  0  0  0  0
    5.2550   47.1290   54.3480 C   0  0  0  0  0  0  0  0  0  0  0  0
    4.2090   47.5330   55.1730 O   0  0  0  0  0  0  0  0  0  0  0  0
    5.0050   46.3620   53.2060 C   0  0  0  0  0  0  0  0  0  0  0  0
    6.0680   45.9740   52.3780 C   0  0  0  0  0  0  0  0  0  0  0  0
    5.7610   45.1910   51.1650 C   0  0  0  0  0  0  0  0  0  0  0  0
    6.3050   45.5170   50.0750 O   0  0  0  0  0  0  0  0  0  0  0  0
    4.8750   44.0590   51.2120 N   0  0  0  0  0  0  0  0  0  0  0  0
    5.2680   42.7300   50.7780 C   0  0  0  0  0  0  0  0  0  0  0  0
    4.1540   41.8000   51.2420 C   0  0  0  0  0  0  0  0  0  0  0  0
    2.9530   42.7070   51.5320 C   0  0  1  0  0  0  0  0  0  0  0  0
    2.1520   42.2020   52.6580 N   0  0  0  0  0  0  0  0  0  0  0  0
    0.9630   42.8470   53.1560 C   0  0  0  0  0  0  0  0  0  0  0  0
    0.9870   43.6980   54.2780 C   0  0  0  0  0  0  0  0  0  0  0  0
   -0.1890   44.3030   54.7320 C   0  0  0  0  0  0  0  0  0  0  0  0
   -1.4000   44.0630   54.0780 C   0  0  0  0  0  0  0  0  0  0  0  0
   -1.4370   43.2150   52.9700 C   0  0  0  0  0  0  0  0  0  0  0  0
   -0.2640   42.6090   52.5120 C   0  0  0  0  0  0  0  0  0  0  0  0
    3.5540   44.0850   51.8190 C   0  0  0  0  0  0  0  0  0  0  0  0
    7.3900   46.3370   52.7310 C   0  0  0  0  0  0  0  0  0  0  0  0
    8.5110   45.9360   51.9780 C   0  0  0  0  0  0  0  0  0  0  0  0
   11.8261   45.6552   52.1783 H   0  0  0  0  0  0  0  0  0  0  0  0
   10.7189   45.0734   50.8891 H   0  0  0  0  0  0  0  0  0  0  0  0
   11.2791   46.7801   50.8891 H   0  0  0  0  0  0  0  0  0  0  0  0
   10.9902   47.4492   53.7871 H   0  0  0  0  0  0  0  0  0  0  0  0
    4.3720   48.1070   55.9920 H   0  0  0  0  0  0  0  0  0  0  0  0
    3.9759   46.0634   52.9575 H   0  0  0  0  0  0  0  0  0  0  0  0
    5.3644   42.6968   49.6827 H   0  0  0  0  0  0  0  0  0  0  0  0
    6.2424   42.4374   51.1961 H   0  0  0  0  0  0  0  0  0  0  0  0
    3.9057   41.0749   50.4530 H   0  0  0  0  0  0  0  0  0  0  0  0
    4.4504   41.2214   52.1293 H   0  0  0  0  0  0  0  0  0  0  0  0
    2.2522   42.7455   50.6850 H   0  0  0  0  0  0  0  0  0  0  0  0
    2.4520   41.3190   53.1290 H   0  0  0  0  0  0  0  0  0  0  0  0
    1.9364   43.8878   54.8002 H   0  0  0  0  0  0  0  0  0  0  0  0
   -0.1606   44.9697   55.6065 H   0  0  0  0  0  0  0  0  0  0  0  0
   -2.3234   44.5418   54.4359 H   0  0  0  0  0  0  0  0  0  0  0  0
   -2.3908   43.0234   52.4566 H   0  0  0  0  0  0  0  0  0  0  0  0
   -0.3010   41.9398   51.6398 H   0  0  0  0  0  0  0  0  0  0  0  0
    2.9376   44.8763   51.3675 H   0  0  0  0  0  0  0  0  0  0  0  0
    3.6013   44.2962   52.8975 H   0  0  0  0  0  0  0  0  0  0  0  0
    8.3711   45.3171   51.0794 H   0  0  0  0  0  0  0  0  0  0  0  0
  1  2  1  0
  2  3  2  0
  3  4  1  0
  4  5  1  0
  4  6  2  0
  6  7  1  0
  7  8  2  0
  8  9  1  0
  8 10  1  0
 10 11  2  0
 11 12  1  0
 12 13  2  0
 12 14  1  0
 14 15  1  0
 15 16  1  0
 16 17  1  0
 17 18  1  0
 18 19  1  0
 19 20  2  0
 20 21  1  0
 21 22  2  0
 22 23  1  0
 23 24  2  0
 17 25  1  0
 11 26  1  0
 26 27  2  0
 27  2  1  0
 26  6  1  0
 25 14  1  0
 24 19  1  0
  1 28  1  0
  1 29  1  0
  1 30  1  0
  3 31  1  0
  9 32  1  0
 10 33  1  0
 15 34  1  0
 15 35  1  0
 16 36  1  0
 16 37  1  0
 17 38  1  6
 18 39  1  0
 20 40  1  0
 21 41  1  0
 22 42  1  0
 23 43  1  0
 24 44  1  0
 25 45  1  0
 25 46  1  0
 27 47  1  0
M  END
>  <meeko>  (4) 
{"is_sidechain": [false], "free_energy": -9.497, "intermolecular_energy": -12.638, "internal_energy": 0.16}

$$$$
ligand_14_conformer_1_docked
     RDKit          3D

 47 50  0  0  0  0  0  0  0  0999 V2000
   -3.3580   43.8280   53.2800 C   0  0  0  0  0  0  0  0  0  0  0  0
   -2.5630   44.4170   54.4090 C   0  0  0  0  0  0  0  0  0  0  0  0
   -3.2090   44.8510   55.5750 C   0  0  0  0  0  0  0  0  0  0  0  0
   -2.4700   45.3720   56.6400 C   0  0  0  0  0  0  0  0  0  0  0  0
   -3.1160   45.8060   57.7520 F   0  0  0  0  0  0  0  0  0  0  0  0
   -1.0750   45.4440   56.5600 C   0  0  0  0  0  0  0  0  0  0  0  0
   -0.3670   45.9690   57.5950 N   0  0  0  0  0  0  0  0  0  0  0  0
    0.9860   46.0690   57.5660 C   0  0  0  0  0  0  0  0  0  0  0  0
    1.6540   46.6210   58.6560 O   0  0  0  0  0  0  0  0  0  0  0  0
    1.6960   45.6150   56.4500 C   0  0  0  0  0  0  0  0  0  0  0  0
    1.0100   45.0500   55.3670 C   0  0  0  0  0  0  0  0  0  0  0  0
    1.7960   44.5550   54.2200 C   0  0  0  0  0  0  0  0  0  0  0  0
    1.6130   43.3730   53.8210 O   0  0  0  0  0  0  0  0  0  0  0  0
    2.7450   45.4000   53.5460 N   0  0  0  0  0  0  0  0  0  0  0  0
    2.3530   46.4210   52.5900 C   0  0  0  0  0  0  0  0  0  0  0  0
    3.6080   47.2440   52.3300 C   0  0  0  0  0  0  0  0  0  0  0  0
    4.7770   46.3780   52.8130 C   0  0  1  0  0  0  0  0  0  0  0  0
    5.8580   47.1970   53.3820 N   0  0  0  0  0  0  0  0  0  0  0  0
    7.2560   47.0140   53.0790 C   0  0  0  0  0  0  0  0  0  0  0  0
    8.2640   47.2210   54.0420 C   0  0  0  0  0  0  0  0  0  0  0  0
    9.6090   47.0350   53.7070 C   0  0  0  0  0  0  0  0  0  0  0  0
    9.9640   46.6470   52.4140 C   0  0  0  0  0  0  0  0  0  0  0  0
    8.9750   46.4460   51.4500 C   0  0  0  0  0  0  0  0  0  0  0  0
    7.6280   46.6310   51.7790 C   0  0  0  0  0  0  0  0  0  0  0  0
    4.1680   45.4240   53.8430 C   0  0  0  0  0  0  0  0  0  0  0  0
   -0.4030   44.9760   55.4040 C   0  0  0  0  0  0  0  0  0  0  0  0
   -1.1630   44.4720   54.3300 C   0  0  0  0  0  0  0  0  0  0  0  0
   -4.1789   43.2198   53.6878 H   0  0  0  0  0  0  0  0  0  0  0  0
   -3.7735   44.6380   52.6625 H   0  0  0  0  0  0  0  0  0  0  0  0
   -2.7042   43.1946   52.6625 H   0  0  0  0  0  0  0  0  0  0  0  0
   -4.3041   44.7809   55.6518 H   0  0  0  0  0  0  0  0  0  0  0  0
    1.5940   46.2080   59.5790 H   0  0  0  0  0  0  0  0  0  0  0  0
    2.7923   45.7015   56.4225 H   0  0  0  0  0  0  0  0  0  0  0  0
    1.9980   45.9577   51.6577 H   0  0  0  0  0  0  0  0  0  0  0  0
    1.5311   47.0432   52.9739 H   0  0  0  0  0  0  0  0  0  0  0  0
    3.7091   47.4611   51.2564 H   0  0  0  0  0  0  0  0  0  0  0  0
    3.5755   48.2115   52.8524 H   0  0  0  0  0  0  0  0  0  0  0  0
    5.2488   45.8254   51.9872 H   0  0  0  0  0  0  0  0  0  0  0  0
    5.6090   47.9660   54.0440 H   0  0  0  0  0  0  0  0  0  0  0  0
    7.9916   47.5303   55.0619 H   0  0  0  0  0  0  0  0  0  0  0  0
   10.3898   47.1950   54.4651 H   0  0  0  0  0  0  0  0  0  0  0  0
   11.0229   46.4997   52.1549 H   0  0  0  0  0  0  0  0  0  0  0  0
    9.2549   46.1418   50.4306 H   0  0  0  0  0  0  0  0  0  0  0  0
    6.8534   46.4754   51.0137 H   0  0  0  0  0  0  0  0  0  0  0  0
    4.6006   44.4179   53.7399 H   0  0  0  0  0  0  0  0  0  0  0  0
    4.3672   45.7508   54.8743 H   0  0  0  0  0  0  0  0  0  0  0  0
   -0.6542   44.1183   53.4211 H   0  0  0  0  0  0  0  0  0  0  0  0
  1  2  1  0
  2  3  2  0
  3  4  1  0
  4  5  1  0
  4  6  2  0
  6  7  1  0
  7  8  2  0
  8  9  1  0
  8 10  1  0
 10 11  2  0
 11 12  1  0
 12 13  2  0
 12 14  1  0
 14 15  1  0
 15 16  1  0
 16 17  1  0
 17 18  1  0
 18 19  1  0
 19 20  2  0
 20 21  1  0
 21 22  2  0
 22 23  1  0
 23 24  2  0
 17 25  1  0
 11 26  1  0
 26 27  2  0
 27  2  1  0
 26  6  1  0
 25 14  1  0
 24 19  1  0
  1 28  1  0
  1 29  1  0
  1 30  1  0
  3 31  1  0
  9 32  1  0
 10 33  1  0
 15 34  1  0
 15 35  1  0
 16 36  1  0
 16 37  1  0
 17 38  1  6
 18 39  1  0
 20 40  1  0
 21 41  1  0
 22 42  1  0
 23 43  1  0
 24 44  1  0
 25 45  1  0
 25 46  1  0
 27 47  1  0
M  END
>  <meeko>  (5) 
{"is_sidechain": [false], "free_energy": -8.978, "intermolecular_energy": -11.425, "internal_energy": -0.396}

$$$$
