ligand_37_conformer_4_docked
     RDKit          3D

 44 46  0  0  0  0  0  0  0  0999 V2000
   11.0290   47.5770   56.3600 C   0  0  0  0  0  0  0  0  0  0  0  0
    9.8690   48.0750   55.7040 O   0  0  0  0  0  0  0  0  0  0  0  0
    9.3000   47.4430   54.5940 C   0  0  0  0  0  0  0  0  0  0  0  0
   10.0760   47.2190   53.4580 C   0  0  0  0  0  0  0  0  0  0  0  0
    9.4890   46.5860   52.3650 C   0  0  0  0  0  0  0  0  0  0  0  0
    8.1870   46.2020   52.4220 N   0  0  0  0  0  0  0  0  0  0  0  0
    7.4330   46.4300   53.5330 C   0  0  0  0  0  0  0  0  0  0  0  0
    6.0520   46.0110   53.5770 N   0  0  0  0  0  0  0  0  0  0  0  0
    5.4900   45.4980   54.8290 C   0  0  0  0  0  0  0  0  0  0  0  0
    5.2860   45.8790   52.3650 C   0  0  0  0  0  0  0  0  0  0  0  0
    4.5100   46.8120   52.0240 O   0  0  0  0  0  0  0  0  0  0  0  0
    5.4110   44.6800   51.5010 C   0  0  0  0  0  0  0  0  0  0  0  0
    4.5740   43.5690   51.7020 C   0  0  0  0  0  0  0  0  0  0  0  0
    4.6880   42.4380   50.8900 C   0  0  0  0  0  0  0  0  0  0  0  0
    5.6470   42.3970   49.8620 C   0  0  0  0  0  0  0  0  0  0  0  0
    5.7910   41.2860   49.0170 O   0  0  0  0  0  0  0  0  0  0  0  0
    5.0340   41.0450   47.8630 C   0  0  0  0  0  0  0  0  0  0  0  0
    5.4720   41.5600   46.6410 C   0  0  0  0  0  0  0  0  0  0  0  0
    4.7340   41.3080   45.4830 C   0  0  0  0  0  0  0  0  0  0  0  0
    3.5520   40.5530   45.5490 C   0  0  0  0  0  0  0  0  0  0  0  0
    2.7730   40.2300   44.3010 C   0  0  0  0  0  0  0  0  0  0  0  0
    2.1530   38.9980   44.4180 F   0  0  0  0  0  0  0  0  0  0  0  0
    1.7980   41.1860   44.0730 F   0  0  0  0  0  0  0  0  0  0  0  0
    3.6350   40.2000   43.2210 F   0  0  0  0  0  0  0  0  0  0  0  0
    3.1670   40.0260   46.7920 C   0  0  0  0  0  0  0  0  0  0  0  0
    3.9050   40.2830   47.9050 N   0  0  0  0  0  0  0  0  0  0  0  0
    6.4570   43.5150   49.6390 C   0  0  0  0  0  0  0  0  0  0  0  0
    6.3450   44.6470   50.4510 C   0  0  0  0  0  0  0  0  0  0  0  0
    7.9990   47.0430   54.6090 N   0  0  0  0  0  0  0  0  0  0  0  0
   10.8885   47.6373   57.4493 H   0  0  0  0  0  0  0  0  0  0  0  0
   11.1934   46.5290   56.0689 H   0  0  0  0  0  0  0  0  0  0  0  0
   11.9020   48.1796   56.0689 H   0  0  0  0  0  0  0  0  0  0  0  0
   11.1291   47.5353   53.4254 H   0  0  0  0  0  0  0  0  0  0  0  0
   10.0792   46.3971   51.4562 H   0  0  0  0  0  0  0  0  0  0  0  0
    6.0039   45.9671   55.6810 H   0  0  0  0  0  0  0  0  0  0  0  0
    4.4166   45.7342   54.8730 H   0  0  0  0  0  0  0  0  0  0  0  0
    5.6276   44.4075   54.8730 H   0  0  0  0  0  0  0  0  0  0  0  0
    3.8229   43.5902   52.5054 H   0  0  0  0  0  0  0  0  0  0  0  0
    4.0250   41.5760   51.0553 H   0  0  0  0  0  0  0  0  0  0  0  0
    6.3924   42.1603   46.5912 H   0  0  0  0  0  0  0  0  0  0  0  0
    5.0796   41.7021   44.5159 H   0  0  0  0  0  0  0  0  0  0  0  0
    2.2640   39.4022   46.8660 H   0  0  0  0  0  0  0  0  0  0  0  0
    7.1885   43.5033   48.8175 H   0  0  0  0  0  0  0  0  0  0  0  0
    6.9918   45.5176   50.2673 H   0  0  0  0  0  0  0  0  0  0  0  0
  1  2  1  0
  2  3  1  0
  3  4  2  0
  4  5  1  0
  5  6  2  0
  6  7  1  0
  7  8  1  0
  8  9  1  0
  8 10  1  0
 10 11  2  0
 10 12  1  0
 12 13  2  0
 13 14  1  0
 14 15  2  0
 15 16  1  0
 16 17  1  0
 17 18  2  0
 18 19  1  0
 19 20  2  0
 20 21  1  0
 21 22  1  0
 21 23  1  0
 21 24  1  0
 20 25  1  0
 25 26  2  0
 15 27  1  0
 27 28  2  0
  7 29  2  0
 29  3  1  0
 28 12  1  0
 26 17  1  0
  1 30  1  0
  1 31  1  0
  1 32  1  0
  4 33  1  0
  5 34  1  0
  9 35  1  0
  9 36  1  0
  9 37  1  0
 13 38  1  0
 14 39  1  0
 18 40  1  0
 19 41  1  0
 25 42  1  0
 27 43  1  0
 28 44  1  0
M  END
>  <meeko>  (1) 
{"is_sidechain": [false], "free_energy": -9.071, "intermolecular_energy": -12.783, "internal_energy": -0.48}

$$$$
ligand_37_conformer_4_docked
     RDKit          3D

 44 46  0  0  0  0  0  0  0  0999 V2000
    0.9160   46.0460   57.5140 C   0  0  0  0  0  0  0  0  0  0  0  0
   -0.5000   45.9390   57.6070 O   0  0  0  0  0  0  0  0  0  0  0  0
   -1.2480   45.0970   56.7780 C   0  0  0  0  0  0  0  0  0  0  0  0
   -2.4970   44.6460   57.2050 C   0  0  0  0  0  0  0  0  0  0  0  0
   -3.2260   43.8110   56.3610 C   0  0  0  0  0  0  0  0  0  0  0  0
   -2.7170   43.4540   55.1540 N   0  0  0  0  0  0  0  0  0  0  0  0
   -1.4940   43.8930   54.7470 C   0  0  0  0  0  0  0  0  0  0  0  0
   -0.9700   43.5060   53.4590 N   0  0  0  0  0  0  0  0  0  0  0  0
   -1.8680   43.4380   52.3020 C   0  0  0  0  0  0  0  0  0  0  0  0
    0.3610   42.9710   53.3380 C   0  0  0  0  0  0  0  0  0  0  0  0
    0.6120   41.8320   53.8210 O   0  0  0  0  0  0  0  0  0  0  0  0
    1.4330   43.7190   52.6380 C   0  0  0  0  0  0  0  0  0  0  0  0
    1.3090   45.1020   52.4220 C   0  0  0  0  0  0  0  0  0  0  0  0
    2.3170   45.8110   51.7630 C   0  0  0  0  0  0  0  0  0  0  0  0
    3.4680   45.1450   51.3040 C   0  0  0  0  0  0  0  0  0  0  0  0
    4.5090   45.8180   50.6460 O   0  0  0  0  0  0  0  0  0  0  0  0
    5.7870   46.0430   51.1740 C   0  0  0  0  0  0  0  0  0  0  0  0
    5.9130   46.7190   52.3890 C   0  0  0  0  0  0  0  0  0  0  0  0
    7.1820   46.9290   52.9310 C   0  0  0  0  0  0  0  0  0  0  0  0
    8.3240   46.4740   52.2530 C   0  0  0  0  0  0  0  0  0  0  0  0
    9.6960   46.6490   52.8510 C   0  0  0  0  0  0  0  0  0  0  0  0
    9.9470   45.6650   53.7920 F   0  0  0  0  0  0  0  0  0  0  0  0
   10.6700   46.5690   51.8700 F   0  0  0  0  0  0  0  0  0  0  0  0
    9.7720   47.8860   53.4620 F   0  0  0  0  0  0  0  0  0  0  0  0
    8.1490   45.7690   51.0520 C   0  0  0  0  0  0  0  0  0  0  0  0
    6.9020   45.5750   50.5460 N   0  0  0  0  0  0  0  0  0  0  0  0
    3.6080   43.7760   51.5490 C   0  0  0  0  0  0  0  0  0  0  0  0
    2.6010   43.0650   52.2070 C   0  0  0  0  0  0  0  0  0  0  0  0
   -0.7750   44.7140   55.5610 N   0  0  0  0  0  0  0  0  0  0  0  0
    1.3484   46.0787   58.5249 H   0  0  0  0  0  0  0  0  0  0  0  0
    1.3147   45.1754   56.9726 H   0  0  0  0  0  0  0  0  0  0  0  0
    1.1794   46.9666   56.9726 H   0  0  0  0  0  0  0  0  0  0  0  0
   -2.8972   44.9428   58.1857 H   0  0  0  0  0  0  0  0  0  0  0  0
   -4.2139   43.4410   56.6725 H   0  0  0  0  0  0  0  0  0  0  0  0
   -2.9086   43.3592   52.6497 H   0  0  0  0  0  0  0  0  0  0  0  0
   -1.7524   44.3475   51.6941 H   0  0  0  0  0  0  0  0  0  0  0  0
   -1.6167   42.5563   51.6941 H   0  0  0  0  0  0  0  0  0  0  0  0
    0.4112   45.6308   52.7745 H   0  0  0  0  0  0  0  0  0  0  0  0
    2.2100   46.8940   51.6026 H   0  0  0  0  0  0  0  0  0  0  0  0
    5.0186   47.0835   52.9154 H   0  0  0  0  0  0  0  0  0  0  0  0
    7.2876   47.4527   53.8925 H   0  0  0  0  0  0  0  0  0  0  0  0
    9.0246   45.3717   50.5177 H   0  0  0  0  0  0  0  0  0  0  0  0
    4.5189   43.2538   51.2209 H   0  0  0  0  0  0  0  0  0  0  0  0
    2.7226   41.9870   52.3890 H   0  0  0  0  0  0  0  0  0  0  0  0
  1  2  1  0
  2  3  1  0
  3  4  2  0
  4  5  1  0
  5  6  2  0
  6  7  1  0
  7  8  1  0
  8  9  1  0
  8 10  1  0
 10 11  2  0
 10 12  1  0
 12 13  2  0
 13 14  1  0
 14 15  2  0
 15 16  1  0
 16 17  1  0
 17 18  2  0
 18 19  1  0
 19 20  2  0
 20 21  1  0
 21 22  1  0
 21 23  1  0
 21 24  1  0
 20 25  1  0
 25 26  2  0
 15 27  1  0
 27 28  2  0
  7 29  2  0
 29  3  1  0
 28 12  1  0
 26 17  1  0
  1 30  1  0
  1 31  1  0
  1 32  1  0
  4 33  1  0
  5 34  1  0
  9 35  1  0
  9 36  1  0
  9 37  1  0
 13 38  1  0
 14 39  1  0
 18 40  1  0
 19 41  1  0
 25 42  1  0
 27 43  1  0
 28 44  1  0
M  END
>  <meeko>  (2) 
{"is_sidechain": [false], "free_energy": -8.884, "intermolecular_energy": -11.992, "internal_energy": -1.007}

$$$$
ligand_37_conformer_4_docked
     RDKit          3D

 44 46  0  0  0  0  0  0  0  0999 V2000
   10.6980   45.4060   51.3860 C   0  0  0  0  0  0  0  0  0  0  0  0
    9.7070   46.4230   51.4730 O   0  0  0  0  0  0  0  0  0  0  0  0
    9.0200   46.7070   52.6570 C   0  0  0  0  0  0  0  0  0  0  0  0
    9.5970   47.5560   53.6000 C   0  0  0  0  0  0  0  0  0  0  0  0
    8.8920   47.8270   54.7710 C   0  0  0  0  0  0  0  0  0  0  0  0
    7.6710   47.2680   54.9730 N   0  0  0  0  0  0  0  0  0  0  0  0
    7.1160   46.4340   54.0500 C   0  0  0  0  0  0  0  0  0  0  0  0
    5.8160   45.8520   54.2800 N   0  0  0  0  0  0  0  0  0  0  0  0
    5.5540   45.1330   55.5300 C   0  0  0  0  0  0  0  0  0  0  0  0
    4.8500   45.7700   53.2150 C   0  0  0  0  0  0  0  0  0  0  0  0
    4.1290   46.7740   52.9600 O   0  0  0  0  0  0  0  0  0  0  0  0
    4.7030   44.5400   52.3990 C   0  0  0  0  0  0  0  0  0  0  0  0
    5.5620   44.3020   51.3130 C   0  0  0  0  0  0  0  0  0  0  0  0
    5.4260   43.1450   50.5410 C   0  0  0  0  0  0  0  0  0  0  0  0
    4.4240   42.2060   50.8410 C   0  0  0  0  0  0  0  0  0  0  0  0
    4.2580   41.0260   50.0990 O   0  0  0  0  0  0  0  0  0  0  0  0
    4.3160   40.9350   48.7030 C   0  0  0  0  0  0  0  0  0  0  0  0
    5.3920   41.5130   48.0260 C   0  0  0  0  0  0  0  0  0  0  0  0
    5.4670   41.4090   46.6360 C   0  0  0  0  0  0  0  0  0  0  0  0
    4.4610   40.7390   45.9220 C   0  0  0  0  0  0  0  0  0  0  0  0
    4.5550   40.5760   44.4270 C   0  0  0  0  0  0  0  0  0  0  0  0
    5.3470   41.5680   43.8770 F   0  0  0  0  0  0  0  0  0  0  0  0
    5.1100   39.3500   44.1050 F   0  0  0  0  0  0  0  0  0  0  0  0
    3.2880   40.6550   43.8800 F   0  0  0  0  0  0  0  0  0  0  0  0
    3.4150   40.1430   46.6450 C   0  0  0  0  0  0  0  0  0  0  0  0
    3.3670   40.2560   48.0000 N   0  0  0  0  0  0  0  0  0  0  0  0
    3.5910   42.4240   51.9430 C   0  0  0  0  0  0  0  0  0  0  0  0
    3.7240   43.5820   52.7150 C   0  0  0  0  0  0  0  0  0  0  0  0
    7.7940   46.1670   52.9000 N   0  0  0  0  0  0  0  0  0  0  0  0
   10.9977   45.0985   52.3987 H   0  0  0  0  0  0  0  0  0  0  0  0
   10.2880   44.5398   50.8460 H   0  0  0  0  0  0  0  0  0  0  0  0
   11.5745   45.7934   50.8460 H   0  0  0  0  0  0  0  0  0  0  0  0
   10.5869   48.0021   53.4237 H   0  0  0  0  0  0  0  0  0  0  0  0
    9.3244   48.4936   55.5317 H   0  0  0  0  0  0  0  0  0  0  0  0
    5.7913   45.7842   56.3842 H   0  0  0  0  0  0  0  0  0  0  0  0
    4.4932   44.8451   55.5720 H   0  0  0  0  0  0  0  0  0  0  0  0
    6.1809   44.2301   55.5720 H   0  0  0  0  0  0  0  0  0  0  0  0
    6.3477   45.0320   51.0685 H   0  0  0  0  0  0  0  0  0  0  0  0
    6.1062   42.9684   49.6947 H   0  0  0  0  0  0  0  0  0  0  0  0
    6.1752   42.0467   48.5844 H   0  0  0  0  0  0  0  0  0  0  0  0
    6.3174   41.8536   46.0982 H   0  0  0  0  0  0  0  0  0  0  0  0
    2.6315   39.5827   46.1138 H   0  0  0  0  0  0  0  0  0  0  0  0
    2.8253   41.6787   52.2044 H   0  0  0  0  0  0  0  0  0  0  0  0
    3.0582   43.7445   53.5754 H   0  0  0  0  0  0  0  0  0  0  0  0
  1  2  1  0
  2  3  1  0
  3  4  2  0
  4  5  1  0
  5  6  2  0
  6  7  1  0
  7  8  1  0
  8  9  1  0
  8 10  1  0
 10 11  2  0
 10 12  1  0
 12 13  2  0
 13 14  1  0
 14 15  2  0
 15 16  1  0
 16 17  1  0
 17 18  2  0
 18 19  1  0
 19 20  2  0
 20 21  1  0
 21 22  1  0
 21 23  1  0
 21 24  1  0
 20 25  1  0
 25 26  2  0
 15 27  1  0
 27 28  2  0
  7 29  2  0
 29  3  1  0
 28 12  1  0
 26 17  1  0
  1 30  1  0
  1 31  1  0
  1 32  1  0
  4 33  1  0
  5 34  1  0
  9 35  1  0
  9 36  1  0
  9 37  1  0
 13 38  1  0
 14 39  1  0
 18 40  1  0
 19 41  1  0
 25 42  1  0
 27 43  1  0
 28 44  1  0
M  END
>  <meeko>  (3) 
{"is_sidechain": [false], "free_energy": -8.535, "intermolecular_energy": -12.211, "internal_energy": -0.297}

$$$$
ligand_37_conformer_4_docked
     RDKit          3D

 44 46  0  0  0  0  0  0  0  0999 V2000
   10.1460   47.5570   55.2100 C   0  0  0  0  0  0  0  0  0  0  0  0
    8.7600   47.8010   55.0020 O   0  0  0  0  0  0  0  0  0  0  0  0
    8.0770   47.3530   53.8670 C   0  0  0  0  0  0  0  0  0  0  0  0
    8.7770   47.1560   52.6780 C   0  0  0  0  0  0  0  0  0  0  0  0
    8.0750   46.7060   51.5600 C   0  0  0  0  0  0  0  0  0  0  0  0
    6.7410   46.4710   51.6460 N   0  0  0  0  0  0  0  0  0  0  0  0
    6.0620   46.6730   52.8100 C   0  0  0  0  0  0  0  0  0  0  0  0
    4.6440   46.4150   52.8840 N   0  0  0  0  0  0  0  0  0  0  0  0
    3.6970   47.5210   52.7210 C   0  0  0  0  0  0  0  0  0  0  0  0
    4.1530   45.1400   53.3370 C   0  0  0  0  0  0  0  0  0  0  0  0
    3.8400   44.9970   54.5500 O   0  0  0  0  0  0  0  0  0  0  0  0
    3.9860   44.0010   52.4020 C   0  0  0  0  0  0  0  0  0  0  0  0
    2.7020   43.5860   52.0090 C   0  0  0  0  0  0  0  0  0  0  0  0
    2.5410   42.5130   51.1290 C   0  0  0  0  0  0  0  0  0  0  0  0
    3.6640   41.8320   50.6270 C   0  0  0  0  0  0  0  0  0  0  0  0
    3.5490   40.7560   49.7340 O   0  0  0  0  0  0  0  0  0  0  0  0
    3.9260   40.7820   48.3850 C   0  0  0  0  0  0  0  0  0  0  0  0
    5.1040   41.4350   48.0190 C   0  0  0  0  0  0  0  0  0  0  0  0
    5.4970   41.4480   46.6790 C   0  0  0  0  0  0  0  0  0  0  0  0
    4.7060   40.8190   45.7050 C   0  0  0  0  0  0  0  0  0  0  0  0
    5.1440   40.7810   44.2640 C   0  0  0  0  0  0  0  0  0  0  0  0
    5.6020   42.0240   43.8600 F   0  0  0  0  0  0  0  0  0  0  0  0
    6.1660   39.8640   44.0880 F   0  0  0  0  0  0  0  0  0  0  0  0
    4.0710   40.4180   43.4720 F   0  0  0  0  0  0  0  0  0  0  0  0
    3.5480   40.1440   46.1220 C   0  0  0  0  0  0  0  0  0  0  0  0
    3.1890   40.1440   47.4340 N   0  0  0  0  0  0  0  0  0  0  0  0
    4.9430   42.2650   50.9890 C   0  0  0  0  0  0  0  0  0  0  0  0
    5.1070   43.3370   51.8710 C   0  0  0  0  0  0  0  0  0  0  0  0
    6.7390   47.1070   53.9090 N   0  0  0  0  0  0  0  0  0  0  0  0
   10.3539   47.5204   56.2896 H   0  0  0  0  0  0  0  0  0  0  0  0
   10.4222   46.5964   54.7506 H   0  0  0  0  0  0  0  0  0  0  0  0
   10.7336   48.3655   54.7506 H   0  0  0  0  0  0  0  0  0  0  0  0
    9.8582   47.3509   52.6226 H   0  0  0  0  0  0  0  0  0  0  0  0
    8.6024   46.5416   50.6088 H   0  0  0  0  0  0  0  0  0  0  0  0
    3.3850   47.8854   53.7109 H   0  0  0  0  0  0  0  0  0  0  0  0
    4.1797   48.3381   52.1649 H   0  0  0  0  0  0  0  0  0  0  0  0
    2.8153   47.1698   52.1649 H   0  0  0  0  0  0  0  0  0  0  0  0
    1.8165   44.1104   52.3975 H   0  0  0  0  0  0  0  0  0  0  0  0
    1.5307   42.1994   50.8274 H   0  0  0  0  0  0  0  0  0  0  0  0
    5.7189   41.9362   48.7811 H   0  0  0  0  0  0  0  0  0  0  0  0
    6.4294   41.9528   46.3859 H   0  0  0  0  0  0  0  0  0  0  0  0
    2.9282   39.6128   45.3846 H   0  0  0  0  0  0  0  0  0  0  0  0
    5.8276   41.7579   50.5764 H   0  0  0  0  0  0  0  0  0  0  0  0
    6.1192   43.6636   52.1518 H   0  0  0  0  0  0  0  0  0  0  0  0
  1  2  1  0
  2  3  1  0
  3  4  2  0
  4  5  1  0
  5  6  2  0
  6  7  1  0
  7  8  1  0
  8  9  1  0
  8 10  1  0
 10 11  2  0
 10 12  1  0
 12 13  2  0
 13 14  1  0
 14 15  2  0
 15 16  1  0
 16 17  1  0
 17 18  2  0
 18 19  1  0
 19 20  2  0
 20 21  1  0
 21 22  1  0
 21 23  1  0
 21 24  1  0
 20 25  1  0
 25 26  2  0
 15 27  1  0
 27 28  2  0
  7 29  2  0
 29  3  1  0
 28 12  1  0
 26 17  1  0
  1 30  1  0
  1 31  1  0
  1 32  1  0
  4 33  1  0
  5 34  1  0
  9 35  1  0
  9 36  1  0
  9 37  1  0
 13 38  1  0
 14 39  1  0
 18 40  1  0
 19 41  1  0
 25 42  1  0
 27 43  1  0
 28 44  1  0
M  END
>  <meeko>  (4) 
{"is_sidechain": [false], "free_energy": -8.325, "intermolecular_energy": -11.694, "internal_energy": -0.518}

$$$$
ligand_37_conformer_4_docked
     RDKit          3D

 44 46  0  0  0  0  0  0  0  0999 V2000
   -3.9710   47.5560   51.5290 C   0  0  0  0  0  0  0  0  0  0  0  0
   -3.4800   46.7290   50.4810 O   0  0  0  0  0  0  0  0  0  0  0  0
   -2.8900   45.4840   50.7160 C   0  0  0  0  0  0  0  0  0  0  0  0
   -2.8590   44.5350   49.6950 C   0  0  0  0  0  0  0  0  0  0  0  0
   -2.2640   43.3010   49.9510 C   0  0  0  0  0  0  0  0  0  0  0  0
   -1.7310   43.0460   51.1740 N   0  0  0  0  0  0  0  0  0  0  0  0
   -1.7710   43.9760   52.1690 C   0  0  0  0  0  0  0  0  0  0  0  0
   -1.1960   43.6880   53.4610 N   0  0  0  0  0  0  0  0  0  0  0  0
   -1.9690   43.9610   54.6750 C   0  0  0  0  0  0  0  0  0  0  0  0
    0.1990   43.3530   53.5860 C   0  0  0  0  0  0  0  0  0  0  0  0
    0.5360   42.1380   53.6420 O   0  0  0  0  0  0  0  0  0  0  0  0
    1.2450   44.4030   53.6240 C   0  0  0  0  0  0  0  0  0  0  0  0
    1.4550   45.2370   52.5120 C   0  0  0  0  0  0  0  0  0  0  0  0
    2.4390   46.2280   52.5440 C   0  0  0  0  0  0  0  0  0  0  0  0
    3.2370   46.3990   53.6890 C   0  0  0  0  0  0  0  0  0  0  0  0
    4.2310   47.3870   53.7680 O   0  0  0  0  0  0  0  0  0  0  0  0
    5.6000   47.1740   53.5610 C   0  0  0  0  0  0  0  0  0  0  0  0
    6.0500   46.8330   52.2840 C   0  0  0  0  0  0  0  0  0  0  0  0
    7.4150   46.6380   52.0650 C   0  0  0  0  0  0  0  0  0  0  0  0
    8.3270   46.7730   53.1240 C   0  0  0  0  0  0  0  0  0  0  0  0
    9.8070   46.6160   52.8910 C   0  0  0  0  0  0  0  0  0  0  0  0
   10.2100   45.3210   53.1680 F   0  0  0  0  0  0  0  0  0  0  0  0
   10.1270   46.8970   51.5740 F   0  0  0  0  0  0  0  0  0  0  0  0
   10.4930   47.4880   53.7170 F   0  0  0  0  0  0  0  0  0  0  0  0
    7.8340   47.1510   54.3830 C   0  0  0  0  0  0  0  0  0  0  0  0
    6.5000   47.3370   54.5700 N   0  0  0  0  0  0  0  0  0  0  0  0
    3.0060   45.5930   54.8090 C   0  0  0  0  0  0  0  0  0  0  0  0
    2.0220   44.6010   54.7780 C   0  0  0  0  0  0  0  0  0  0  0  0
   -2.3450   45.1860   51.9270 N   0  0  0  0  0  0  0  0  0  0  0  0
   -3.7075   47.1122   52.5004 H   0  0  0  0  0  0  0  0  0  0  0  0
   -3.5203   48.5562   51.4485 H   0  0  0  0  0  0  0  0  0  0  0  0
   -5.0649   47.6392   51.4485 H   0  0  0  0  0  0  0  0  0  0  0  0
   -3.2945   44.7554   48.7092 H   0  0  0  0  0  0  0  0  0  0  0  0
   -2.2261   42.5342   49.1633 H   0  0  0  0  0  0  0  0  0  0  0  0
   -1.3521   43.7431   55.5593 H   0  0  0  0  0  0  0  0  0  0  0  0
   -2.2686   45.0193   54.6887 H   0  0  0  0  0  0  0  0  0  0  0  0
   -2.8668   43.3256   54.6887 H   0  0  0  0  0  0  0  0  0  0  0  0
    0.8395   45.1082   51.6094 H   0  0  0  0  0  0  0  0  0  0  0  0
    2.5903   46.8777   51.6693 H   0  0  0  0  0  0  0  0  0  0  0  0
    5.3343   46.7188   51.4565 H   0  0  0  0  0  0  0  0  0  0  0  0
    7.7772   46.3777   51.0595 H   0  0  0  0  0  0  0  0  0  0  0  0
    8.5301   47.2974   55.2221 H   0  0  0  0  0  0  0  0  0  0  0  0
    3.6033   45.7412   55.7208 H   0  0  0  0  0  0  0  0  0  0  0  0
    1.8545   43.9705   55.6636 H   0  0  0  0  0  0  0  0  0  0  0  0
  1  2  1  0
  2  3  1  0
  3  4  2  0
  4  5  1  0
  5  6  2  0
  6  7  1  0
  7  8  1  0
  8  9  1  0
  8 10  1  0
 10 11  2  0
 10 12  1  0
 12 13  2  0
 13 14  1  0
 14 15  2  0
 15 16  1  0
 16 17  1  0
 17 18  2  0
 18 19  1  0
 19 20  2  0
 20 21  1  0
 21 22  1  0
 21 23  1  0
 21 24  1  0
 20 25  1  0
 25 26  2  0
 15 27  1  0
 27 28  2  0
  7 29  2  0
 29  3  1  0
 28 12  1  0
 26 17  1  0
  1 30  1  0
  1 31  1  0
  1 32  1  0
  4 33  1  0
  5 34  1  0
  9 35  1  0
  9 36  1  0
  9 37  1  0
 13 38  1  0
 14 39  1  0
 18 40  1  0
 19 41  1  0
 25 42  1  0
 27 43  1  0
 28 44  1  0
M  END
>  <meeko>  (5) 
{"is_sidechain": [false], "free_energy": -8.23, "intermolecular_energy": -11.179, "internal_energy": -0.899}

$$$$
