ligand_46_conformer_1_docked
     RDKit          3D

 53 57  0  0  0  0  0  0  0  0999 V2000
   -0.1830   41.8460   53.4490 O   0  0  0  0  0  0  0  0  0  0  0  0
    0.3770   42.9380   53.7360 C   0  0  0  0  0  0  0  0  0  0  0  0
    1.6900   43.2610   53.1390 C   0  0  0  0  0  0  0  0  0  0  0  0
    2.0840   42.6350   51.9270 C   0  0  0  0  0  0  0  0  0  0  0  0
    3.3280   42.9240   51.3390 C   0  0  0  0  0  0  0  0  0  0  0  0
    4.1590   43.8320   51.9880 C   0  0  0  0  0  0  0  0  0  0  0  0
    5.4130   44.2940   51.6570 C   0  0  0  0  0  0  0  0  0  0  0  0
    5.7620   45.1730   52.6860 C   0  0  0  0  0  0  0  0  0  0  0  0
    7.0370   45.9280   52.7790 C   0  0  0  0  0  0  0  0  0  0  0  0
    7.7400   46.2940   51.6160 C   0  0  0  0  0  0  0  0  0  0  0  0
    8.9400   47.0060   51.7060 C   0  0  0  0  0  0  0  0  0  0  0  0
    9.4540   47.3590   52.9550 C   0  0  0  0  0  0  0  0  0  0  0  0
    8.7680   47.0030   54.1170 C   0  0  0  0  0  0  0  0  0  0  0  0
    7.5650   46.2930   54.0330 C   0  0  0  0  0  0  0  0  0  0  0  0
    4.7660   45.2460   53.6060 N   0  0  0  0  0  0  0  0  0  0  0  0
    3.7980   44.4260   53.1650 C   0  0  0  0  0  0  0  0  0  0  0  0
    2.5720   44.1640   53.7740 C   0  0  0  0  0  0  0  0  0  0  0  0
   -0.2980   43.8570   54.5990 N   0  0  0  0  0  0  0  0  0  0  0  0
   -0.1890   45.2640   55.0300 C   0  0  0  0  0  0  0  0  0  0  0  0
   -1.4990   45.3070   55.7640 C   0  0  0  0  0  0  0  0  0  0  0  0
   -1.3860   45.4230   57.2290 N   0  0  0  0  0  0  0  0  0  0  0  0
   -1.8930   46.7120   57.7310 C   0  0  0  0  0  0  0  0  0  0  0  0
   -3.0840   46.4620   58.6740 C   0  0  0  0  0  0  0  0  0  0  0  0
   -3.3790   47.6850   59.5630 C   0  0  0  0  0  0  0  0  0  0  0  0
   -2.8060   48.8600   59.0240 O   0  0  0  0  0  0  0  0  0  0  0  0
   -1.3930   48.7920   59.1190 C   0  0  0  0  0  0  0  0  0  0  0  0
   -0.8040   47.5230   58.4630 C   0  0  0  0  0  0  0  0  0  0  0  0
   -1.5850   43.8800   55.3200 C   0  0  0  0  0  0  0  0  0  0  0  0
    1.4079   41.9153   51.4423 H   0  0  0  0  0  0  0  0  0  0  0  0
    3.6345   42.4476   50.3961 H   0  0  0  0  0  0  0  0  0  0  0  0
    6.0114   44.0285   50.7730 H   0  0  0  0  0  0  0  0  0  0  0  0
    7.3422   46.0177   50.6283 H   0  0  0  0  0  0  0  0  0  0  0  0
    9.4803   47.2887   50.7905 H   0  0  0  0  0  0  0  0  0  0  0  0
   10.3992   47.9175   53.0232 H   0  0  0  0  0  0  0  0  0  0  0  0
    9.1737   47.2810   55.1009 H   0  0  0  0  0  0  0  0  0  0  0  0
    7.0279   46.0180   54.9527 H   0  0  0  0  0  0  0  0  0  0  0  0
    4.7330   45.8300   54.4700 H   0  0  0  0  0  0  0  0  0  0  0  0
    2.2984   44.6472   54.7235 H   0  0  0  0  0  0  0  0  0  0  0  0
    0.6734   45.4405   55.6896 H   0  0  0  0  0  0  0  0  0  0  0  0
   -0.0294   46.0178   54.2449 H   0  0  0  0  0  0  0  0  0  0  0  0
   -2.2614   46.0796   55.5854 H   0  0  0  0  0  0  0  0  0  0  0  0
   -0.4020   45.2660   57.5550 H   0  0  0  0  0  0  0  0  0  0  0  0
   -2.2145   47.3068   56.8633 H   0  0  0  0  0  0  0  0  0  0  0  0
   -3.9754   46.2384   58.0695 H   0  0  0  0  0  0  0  0  0  0  0  0
   -2.8279   45.6172   59.3303 H   0  0  0  0  0  0  0  0  0  0  0  0
   -4.4682   47.8192   59.6385 H   0  0  0  0  0  0  0  0  0  0  0  0
   -2.9399   47.5075   60.5558 H   0  0  0  0  0  0  0  0  0  0  0  0
   -0.9653   49.6747   58.6210 H   0  0  0  0  0  0  0  0  0  0  0  0
   -1.1364   48.7590   60.1881 H   0  0  0  0  0  0  0  0  0  0  0  0
   -0.0312   47.8200   57.7388 H   0  0  0  0  0  0  0  0  0  0  0  0
   -0.3744   46.8912   59.2544 H   0  0  0  0  0  0  0  0  0  0  0  0
   -1.6107   43.1746   56.1636 H   0  0  0  0  0  0  0  0  0  0  0  0
   -2.4804   43.5872   54.7521 H   0  0  0  0  0  0  0  0  0  0  0  0
  1  2  2  0
  2  3  1  0
  3  4  2  0
  4  5  1  0
  5  6  2  0
  6  7  1  0
  7  8  2  0
  8  9  1  0
  9 10  2  0
 10 11  1  0
 11 12  2  0
 12 13  1  0
 13 14  2  0
  8 15  1  0
 15 16  1  0
 16 17  2  0
  2 18  1  0
 18 19  1  0
 19 20  1  0
 20 21  1  0
 21 22  1  0
 22 23  1  0
 23 24  1  0
 24 25  1  0
 25 26  1  0
 26 27  1  0
 20 28  1  0
 17  3  1  0
 28 18  1  0
 16  6  1  0
 27 22  1  0
 14  9  1  0
  4 29  1  0
  5 30  1  0
  7 31  1  0
 10 32  1  0
 11 33  1  0
 12 34  1  0
 13 35  1  0
 14 36  1  0
 15 37  1  0
 17 38  1  0
 19 39  1  0
 19 40  1  0
 20 41  1  0
 21 42  1  0
 22 43  1  0
 23 44  1  0
 23 45  1  0
 24 46  1  0
 24 47  1  0
 26 48  1  0
 26 49  1  0
 27 50  1  0
 27 51  1  0
 28 52  1  0
 28 53  1  0
M  END
>  <meeko>  (1) 
{"is_sidechain": [false], "free_energy": -8.994, "intermolecular_energy": -11.097, "internal_energy": -0.328}

$$$$
ligand_46_conformer_1_docked
     RDKit          3D

 53 57  0  0  0  0  0  0  0  0999 V2000
    0.8930   42.3430   52.0840 O   0  0  0  0  0  0  0  0  0  0  0  0
    1.0820   43.4280   52.6960 C   0  0  0  0  0  0  0  0  0  0  0  0
    2.2690   44.2470   52.3740 C   0  0  0  0  0  0  0  0  0  0  0  0
    2.2660   45.0630   51.2120 C   0  0  0  0  0  0  0  0  0  0  0  0
    3.3830   45.8520   50.8820 C   0  0  0  0  0  0  0  0  0  0  0  0
    4.4890   45.7970   51.7240 C   0  0  0  0  0  0  0  0  0  0  0  0
    5.7030   46.4420   51.6510 C   0  0  0  0  0  0  0  0  0  0  0  0
    6.4250   45.9870   52.7590 C   0  0  0  0  0  0  0  0  0  0  0  0
    7.8070   46.3990   53.1140 C   0  0  0  0  0  0  0  0  0  0  0  0
    8.8870   46.0920   52.2650 C   0  0  0  0  0  0  0  0  0  0  0  0
   10.1870   46.4810   52.6020 C   0  0  0  0  0  0  0  0  0  0  0  0
   10.4250   47.1780   53.7880 C   0  0  0  0  0  0  0  0  0  0  0  0
    9.3630   47.4890   54.6400 C   0  0  0  0  0  0  0  0  0  0  0  0
    8.0600   47.1040   54.3070 C   0  0  0  0  0  0  0  0  0  0  0  0
    5.6860   45.1030   53.4770 N   0  0  0  0  0  0  0  0  0  0  0  0
    4.5100   45.0010   52.8360 C   0  0  0  0  0  0  0  0  0  0  0  0
    3.4200   44.2090   53.1930 C   0  0  0  0  0  0  0  0  0  0  0  0
    0.1140   43.8600   53.6560 N   0  0  0  0  0  0  0  0  0  0  0  0
   -0.2300   45.0740   54.4210 C   0  0  0  0  0  0  0  0  0  0  0  0
   -1.5320   44.5570   54.9630 C   0  0  0  0  0  0  0  0  0  0  0  0
   -1.5420   44.3030   56.4150 N   0  0  0  0  0  0  0  0  0  0  0  0
   -2.2180   45.3740   57.1680 C   0  0  0  0  0  0  0  0  0  0  0  0
   -1.1920   46.4580   57.5480 C   0  0  0  0  0  0  0  0  0  0  0  0
   -1.8760   47.7840   57.9340 C   0  0  0  0  0  0  0  0  0  0  0  0
   -3.2340   47.5810   58.2700 O   0  0  0  0  0  0  0  0  0  0  0  0
   -3.9690   47.2270   57.1100 C   0  0  0  0  0  0  0  0  0  0  0  0
   -3.3790   46.0040   56.3720 C   0  0  0  0  0  0  0  0  0  0  0  0
   -1.1590   43.3340   54.1830 C   0  0  0  0  0  0  0  0  0  0  0  0
    1.3790   45.0784   50.5616 H   0  0  0  0  0  0  0  0  0  0  0  0
    3.3819   46.4917   49.9871 H   0  0  0  0  0  0  0  0  0  0  0  0
    6.0338   47.1602   50.8863 H   0  0  0  0  0  0  0  0  0  0  0  0
    8.7069   45.5420   51.3295 H   0  0  0  0  0  0  0  0  0  0  0  0
   11.0241   46.2373   51.9312 H   0  0  0  0  0  0  0  0  0  0  0  0
   11.4488   47.4822   54.0514 H   0  0  0  0  0  0  0  0  0  0  0  0
    9.5515   48.0377   55.5746 H   0  0  0  0  0  0  0  0  0  0  0  0
    7.2274   47.3535   54.9812 H   0  0  0  0  0  0  0  0  0  0  0  0
    5.9510   44.6140   54.3600 H   0  0  0  0  0  0  0  0  0  0  0  0
    3.4548   43.5712   54.0886 H   0  0  0  0  0  0  0  0  0  0  0  0
    0.5003   45.2983   55.2125 H   0  0  0  0  0  0  0  0  0  0  0  0
   -0.2598   46.0237   53.8668 H   0  0  0  0  0  0  0  0  0  0  0  0
   -2.4799   45.1080   54.8746 H   0  0  0  0  0  0  0  0  0  0  0  0
   -0.5750   44.1490   56.7890 H   0  0  0  0  0  0  0  0  0  0  0  0
   -2.6504   44.9261   58.0749 H   0  0  0  0  0  0  0  0  0  0  0  0
   -0.5980   46.1019   58.4026 H   0  0  0  0  0  0  0  0  0  0  0  0
   -0.5528   46.6454   56.6726 H   0  0  0  0  0  0  0  0  0  0  0  0
   -1.3536   48.2184   58.7991 H   0  0  0  0  0  0  0  0  0  0  0  0
   -1.8292   48.4638   57.0705 H   0  0  0  0  0  0  0  0  0  0  0  0
   -5.0018   46.9925   57.4073 H   0  0  0  0  0  0  0  0  0  0  0  0
   -3.9250   48.0815   56.4187 H   0  0  0  0  0  0  0  0  0  0  0  0
   -4.1700   45.2517   56.2365 H   0  0  0  0  0  0  0  0  0  0  0  0
   -2.9902   46.3404   55.3995 H   0  0  0  0  0  0  0  0  0  0  0  0
   -1.0198   42.4498   54.8224 H   0  0  0  0  0  0  0  0  0  0  0  0
   -1.8908   42.9690   53.4473 H   0  0  0  0  0  0  0  0  0  0  0  0
  1  2  2  0
  2  3  1  0
  3  4  2  0
  4  5  1  0
  5  6  2  0
  6  7  1  0
  7  8  2  0
  8  9  1  0
  9 10  2  0
 10 11  1  0
 11 12  2  0
 12 13  1  0
 13 14  2  0
  8 15  1  0
 15 16  1  0
 16 17  2  0
  2 18  1  0
 18 19  1  0
 19 20  1  0
 20 21  1  0
 21 22  1  0
 22 23  1  0
 23 24  1  0
 24 25  1  0
 25 26  1  0
 26 27  1  0
 20 28  1  0
 17  3  1  0
 28 18  1  0
 16  6  1  0
 27 22  1  0
 14  9  1  0
  4 29  1  0
  5 30  1  0
  7 31  1  0
 10 32  1  0
 11 33  1  0
 12 34  1  0
 13 35  1  0
 14 36  1  0
 15 37  1  0
 17 38  1  0
 19 39  1  0
 19 40  1  0
 20 41  1  0
 21 42  1  0
 22 43  1  0
 23 44  1  0
 23 45  1  0
 24 46  1  0
 24 47  1  0
 26 48  1  0
 26 49  1  0
 27 50  1  0
 27 51  1  0
 28 52  1  0
 28 53  1  0
M  END
>  <meeko>  (2) 
{"is_sidechain": [false], "free_energy": -8.877, "intermolecular_energy": -10.7, "internal_energy": -0.581}

$$$$
ligand_46_conformer_1_docked
     RDKit          3D

 53 57  0  0  0  0  0  0  0  0999 V2000
    0.1430   41.8270   53.9800 O   0  0  0  0  0  0  0  0  0  0  0  0
    0.3650   42.8980   53.3550 C   0  0  0  0  0  0  0  0  0  0  0  0
    1.5100   43.7450   53.7490 C   0  0  0  0  0  0  0  0  0  0  0  0
    1.4260   44.5410   54.9220 C   0  0  0  0  0  0  0  0  0  0  0  0
    2.5010   45.3570   55.3180 C   0  0  0  0  0  0  0  0  0  0  0  0
    3.6390   45.3660   54.5180 C   0  0  0  0  0  0  0  0  0  0  0  0
    4.8210   46.0590   54.6500 C   0  0  0  0  0  0  0  0  0  0  0  0
    5.5890   45.6860   53.5430 C   0  0  0  0  0  0  0  0  0  0  0  0
    6.9570   46.1760   53.2390 C   0  0  0  0  0  0  0  0  0  0  0  0
    7.4770   46.0870   51.9340 C   0  0  0  0  0  0  0  0  0  0  0  0
    8.7660   46.5500   51.6500 C   0  0  0  0  0  0  0  0  0  0  0  0
    9.5500   47.1040   52.6630 C   0  0  0  0  0  0  0  0  0  0  0  0
    9.0480   47.1990   53.9620 C   0  0  0  0  0  0  0  0  0  0  0  0
    7.7590   46.7400   54.2520 C   0  0  0  0  0  0  0  0  0  0  0  0
    4.9070   44.8050   52.7680 N   0  0  0  0  0  0  0  0  0  0  0  0
    3.7250   44.6180   53.3760 C   0  0  0  0  0  0  0  0  0  0  0  0
    2.6790   43.7980   52.9560 C   0  0  0  0  0  0  0  0  0  0  0  0
   -0.4720   43.2410   52.2480 N   0  0  0  0  0  0  0  0  0  0  0  0
   -0.4950   44.1940   51.1220 C   0  0  0  0  0  0  0  0  0  0  0  0
   -1.6770   43.5870   50.4230 C   0  0  0  0  0  0  0  0  0  0  0  0
   -2.8960   44.4170   50.4330 N   0  0  0  0  0  0  0  0  0  0  0  0
   -3.4110   44.6750   49.0770 C   0  0  0  0  0  0  0  0  0  0  0  0
   -3.0520   46.1130   48.6580 C   0  0  0  0  0  0  0  0  0  0  0  0
   -3.1580   46.3090   47.1340 C   0  0  0  0  0  0  0  0  0  0  0  0
   -3.9560   45.3030   46.5420 O   0  0  0  0  0  0  0  0  0  0  0  0
   -3.2840   44.0560   46.6070 C   0  0  0  0  0  0  0  0  0  0  0  0
   -2.8610   43.6720   48.0430 C   0  0  0  0  0  0  0  0  0  0  0  0
   -1.6380   42.6350   51.5780 C   0  0  0  0  0  0  0  0  0  0  0  0
    0.5086   44.5191   55.5286 H   0  0  0  0  0  0  0  0  0  0  0  0
    2.4437   45.9683   56.2307 H   0  0  0  0  0  0  0  0  0  0  0  0
    5.1010   46.7561   55.4535 H   0  0  0  0  0  0  0  0  0  0  0  0
    6.8649   45.6500   51.1313 H   0  0  0  0  0  0  0  0  0  0  0  0
    9.1624   46.4773   50.6265 H   0  0  0  0  0  0  0  0  0  0  0  0
   10.5640   47.4660   52.4377 H   0  0  0  0  0  0  0  0  0  0  0  0
    9.6674   47.6357   54.7592 H   0  0  0  0  0  0  0  0  0  0  0  0
    7.3685   46.8196   55.2772 H   0  0  0  0  0  0  0  0  0  0  0  0
    5.2290   44.3400   51.8910 H   0  0  0  0  0  0  0  0  0  0  0  0
    2.7611   43.2075   52.0316 H   0  0  0  0  0  0  0  0  0  0  0  0
   -0.6788   45.2291   51.4456 H   0  0  0  0  0  0  0  0  0  0  0  0
    0.4310   44.3017   50.5382 H   0  0  0  0  0  0  0  0  0  0  0  0
   -1.6657   43.3039   49.3601 H   0  0  0  0  0  0  0  0  0  0  0  0
   -2.7470   45.3200   50.9450 H   0  0  0  0  0  0  0  0  0  0  0  0
   -4.5035   44.5493   49.1028 H   0  0  0  0  0  0  0  0  0  0  0  0
   -3.7413   46.8112   49.1554 H   0  0  0  0  0  0  0  0  0  0  0  0
   -2.0106   46.3055   48.9555 H   0  0  0  0  0  0  0  0  0  0  0  0
   -3.6091   47.2912   46.9293 H   0  0  0  0  0  0  0  0  0  0  0  0
   -2.1471   46.2485   46.7045 H   0  0  0  0  0  0  0  0  0  0  0  0
   -3.9550   43.2756   46.2187 H   0  0  0  0  0  0  0  0  0  0  0  0
   -2.3667   44.1449   46.0065 H   0  0  0  0  0  0  0  0  0  0  0  0
   -3.2495   42.6693   48.2748 H   0  0  0  0  0  0  0  0  0  0  0  0
   -1.7624   43.6861   48.0965 H   0  0  0  0  0  0  0  0  0  0  0  0
   -2.5492   42.6771   52.1928 H   0  0  0  0  0  0  0  0  0  0  0  0
   -1.5749   41.5631   51.3392 H   0  0  0  0  0  0  0  0  0  0  0  0
  1  2  2  0
  2  3  1  0
  3  4  2  0
  4  5  1  0
  5  6  2  0
  6  7  1  0
  7  8  2  0
  8  9  1  0
  9 10  2  0
 10 11  1  0
 11 12  2  0
 12 13  1  0
 13 14  2  0
  8 15  1  0
 15 16  1  0
 16 17  2  0
  2 18  1  0
 18 19  1  0
 19 20  1  0
 20 21  1  0
 21 22  1  0
 22 23  1  0
 23 24  1  0
 24 25  1  0
 25 26  1  0
 26 27  1  0
 20 28  1  0
 17  3  1  0
 28 18  1  0
 16  6  1  0
 27 22  1  0
 14  9  1  0
  4 29  1  0
  5 30  1  0
  7 31  1  0
 10 32  1  0
 11 33  1  0
 12 34  1  0
 13 35  1  0
 14 36  1  0
 15 37  1  0
 17 38  1  0
 19 39  1  0
 19 40  1  0
 20 41  1  0
 21 42  1  0
 22 43  1  0
 23 44  1  0
 23 45  1  0
 24 46  1  0
 24 47  1  0
 26 48  1  0
 26 49  1  0
 27 50  1  0
 27 51  1  0
 28 52  1  0
 28 53  1  0
M  END
>  <meeko>  (3) 
{"is_sidechain": [false], "free_energy": -8.545, "intermolecular_energy": -10.159, "internal_energy": -0.712}

$$$$
ligand_46_conformer_1_docked
     RDKit          3D

 53 57  0  0  0  0  0  0  0  0999 V2000
    2.8230   42.5310   51.0700 O   0  0  0  0  0  0  0  0  0  0  0  0
    2.8790   43.3780   52.0010 C   0  0  0  0  0  0  0  0  0  0  0  0
    1.7260   43.5360   52.9110 C   0  0  0  0  0  0  0  0  0  0  0  0
    0.6610   42.5990   52.8650 C   0  0  0  0  0  0  0  0  0  0  0  0
   -0.4490   42.7260   53.7200 C   0  0  0  0  0  0  0  0  0  0  0  0
   -0.4710   43.8040   54.6000 C   0  0  0  0  0  0  0  0  0  0  0  0
   -1.4120   44.1800   55.5310 C   0  0  0  0  0  0  0  0  0  0  0  0
   -0.9080   45.3500   56.1070 C   0  0  0  0  0  0  0  0  0  0  0  0
   -1.5740   46.1410   57.1730 C   0  0  0  0  0  0  0  0  0  0  0  0
   -0.8890   47.1850   57.8240 C   0  0  0  0  0  0  0  0  0  0  0  0
   -1.5180   47.9290   58.8280 C   0  0  0  0  0  0  0  0  0  0  0  0
   -2.8340   47.6400   59.1940 C   0  0  0  0  0  0  0  0  0  0  0  0
   -3.5250   46.6080   58.5560 C   0  0  0  0  0  0  0  0  0  0  0  0
   -2.9020   45.8620   57.5510 C   0  0  0  0  0  0  0  0  0  0  0  0
    0.2880   45.6750   55.5530 N   0  0  0  0  0  0  0  0  0  0  0  0
    0.5410   44.7230   54.6400 C   0  0  0  0  0  0  0  0  0  0  0  0
    1.6550   44.6250   53.8090 C   0  0  0  0  0  0  0  0  0  0  0  0
    4.0810   44.1330   52.1800 N   0  0  0  0  0  0  0  0  0  0  0  0
    4.7010   45.0180   53.1850 C   0  0  0  0  0  0  0  0  0  0  0  0
    6.0440   45.1000   52.5180 C   0  0  0  0  0  0  0  0  0  0  0  0
    6.3750   46.4210   51.9540 N   0  0  0  0  0  0  0  0  0  0  0  0
    7.7520   46.8400   52.2740 C   0  0  0  0  0  0  0  0  0  0  0  0
    7.9960   46.6810   53.7860 C   0  0  0  0  0  0  0  0  0  0  0  0
    9.4990   46.6720   54.1250 C   0  0  0  0  0  0  0  0  0  0  0  0
   10.2640   47.2350   53.0780 O   0  0  0  0  0  0  0  0  0  0  0  0
   10.2380   46.3770   51.9490 C   0  0  0  0  0  0  0  0  0  0  0  0
    8.8040   46.0370   51.4830 C   0  0  0  0  0  0  0  0  0  0  0  0
    5.3920   44.2070   51.5090 C   0  0  0  0  0  0  0  0  0  0  0  0
    0.7040   41.7627   52.1517 H   0  0  0  0  0  0  0  0  0  0  0  0
   -1.2725   41.9972   53.6938 H   0  0  0  0  0  0  0  0  0  0  0  0
   -2.3568   43.6701   55.7704 H   0  0  0  0  0  0  0  0  0  0  0  0
    0.1483   47.4172   57.5410 H   0  0  0  0  0  0  0  0  0  0  0  0
   -0.9747   48.7432   59.3300 H   0  0  0  0  0  0  0  0  0  0  0  0
   -3.3263   48.2251   59.9847 H   0  0  0  0  0  0  0  0  0  0  0  0
   -4.5620   46.3814   58.8448 H   0  0  0  0  0  0  0  0  0  0  0  0
   -3.4529   45.0512   57.0518 H   0  0  0  0  0  0  0  0  0  0  0  0
    0.9070   46.4800   55.7920 H   0  0  0  0  0  0  0  0  0  0  0  0
    2.4581   45.3755   53.8507 H   0  0  0  0  0  0  0  0  0  0  0  0
    4.2016   45.9956   53.2557 H   0  0  0  0  0  0  0  0  0  0  0  0
    4.6811   44.6792   54.2313 H   0  0  0  0  0  0  0  0  0  0  0  0
    6.9885   44.8906   53.0415 H   0  0  0  0  0  0  0  0  0  0  0  0
    5.6910   47.1560   52.2570 H   0  0  0  0  0  0  0  0  0  0  0  0
    7.8601   47.8949   51.9814 H   0  0  0  0  0  0  0  0  0  0  0  0
    7.5169   47.5186   54.3140 H   0  0  0  0  0  0  0  0  0  0  0  0
    7.5684   45.7181   54.1020 H   0  0  0  0  0  0  0  0  0  0  0  0
    9.6630   47.2557   55.0428 H   0  0  0  0  0  0  0  0  0  0  0  0
    9.8174   45.6286   54.2660 H   0  0  0  0  0  0  0  0  0  0  0  0
   10.7680   46.8706   51.1211 H   0  0  0  0  0  0  0  0  0  0  0  0
   10.7219   45.4334   52.2411 H   0  0  0  0  0  0  0  0  0  0  0  0
    8.7084   46.2772   50.4138 H   0  0  0  0  0  0  0  0  0  0  0  0
    8.6269   44.9657   51.6589 H   0  0  0  0  0  0  0  0  0  0  0  0
    5.3320   44.6675   50.5118 H   0  0  0  0  0  0  0  0  0  0  0  0
    5.8940   43.2533   51.2890 H   0  0  0  0  0  0  0  0  0  0  0  0
  1  2  2  0
  2  3  1  0
  3  4  2  0
  4  5  1  0
  5  6  2  0
  6  7  1  0
  7  8  2  0
  8  9  1  0
  9 10  2  0
 10 11  1  0
 11 12  2  0
 12 13  1  0
 13 14  2  0
  8 15  1  0
 15 16  1  0
 16 17  2  0
  2 18  1  0
 18 19  1  0
 19 20  1  0
 20 21  1  0
 21 22  1  0
 22 23  1  0
 23 24  1  0
 24 25  1  0
 25 26  1  0
 26 27  1  0
 20 28  1  0
 17  3  1  0
 28 18  1  0
 16  6  1  0
 27 22  1  0
 14  9  1  0
  4 29  1  0
  5 30  1  0
  7 31  1  0
 10 32  1  0
 11 33  1  0
 12 34  1  0
 13 35  1  0
 14 36  1  0
 15 37  1  0
 17 38  1  0
 19 39  1  0
 19 40  1  0
 20 41  1  0
 21 42  1  0
 22 43  1  0
 23 44  1  0
 23 45  1  0
 24 46  1  0
 24 47  1  0
 26 48  1  0
 26 49  1  0
 27 50  1  0
 27 51  1  0
 28 52  1  0
 28 53  1  0
M  END
>  <meeko>  (4) 
{"is_sidechain": [false], "free_energy": -8.315, "intermolecular_energy": -10.229, "internal_energy": -0.358}

$$$$
ligand_46_conformer_1_docked
     RDKit          3D

 53 57  0  0  0  0  0  0  0  0999 V2000
    0.5190   45.2520   55.0480 O   0  0  0  0  0  0  0  0  0  0  0  0
    0.6690   45.0110   53.8200 C   0  0  0  0  0  0  0  0  0  0  0  0
    1.9390   45.3740   53.1580 C   0  0  0  0  0  0  0  0  0  0  0  0
    1.9460   45.6760   51.7700 C   0  0  0  0  0  0  0  0  0  0  0  0
    3.1420   46.0240   51.1150 C   0  0  0  0  0  0  0  0  0  0  0  0
    4.3110   46.0520   51.8680 C   0  0  0  0  0  0  0  0  0  0  0  0
    5.6050   46.3450   51.5010 C   0  0  0  0  0  0  0  0  0  0  0  0
    6.3580   46.1940   52.6690 C   0  0  0  0  0  0  0  0  0  0  0  0
    7.8250   46.4010   52.7820 C   0  0  0  0  0  0  0  0  0  0  0  0
    8.3880   46.9060   53.9680 C   0  0  0  0  0  0  0  0  0  0  0  0
    9.7690   47.1010   54.0720 C   0  0  0  0  0  0  0  0  0  0  0  0
   10.6030   46.7940   52.9940 C   0  0  0  0  0  0  0  0  0  0  0  0
   10.0580   46.2920   51.8110 C   0  0  0  0  0  0  0  0  0  0  0  0
    8.6770   46.0950   51.7030 C   0  0  0  0  0  0  0  0  0  0  0  0
    5.5610   45.8250   53.7040 N   0  0  0  0  0  0  0  0  0  0  0  0
    4.3190   45.7450   53.2000 C   0  0  0  0  0  0  0  0  0  0  0  0
    3.1530   45.3980   53.8800 C   0  0  0  0  0  0  0  0  0  0  0  0
   -0.3800   44.3460   53.1120 N   0  0  0  0  0  0  0  0  0  0  0  0
   -0.5970   43.6740   51.8160 C   0  0  0  0  0  0  0  0  0  0  0  0
   -1.9570   43.1300   52.1440 C   0  0  0  0  0  0  0  0  0  0  0  0
   -3.0680   43.7400   51.3910 N   0  0  0  0  0  0  0  0  0  0  0  0
   -3.5390   42.8810   50.2900 C   0  0  0  0  0  0  0  0  0  0  0  0
   -2.8290   43.2840   48.9850 C   0  0  0  0  0  0  0  0  0  0  0  0
   -2.9280   42.1810   47.9140 C   0  0  0  0  0  0  0  0  0  0  0  0
   -3.9800   41.2810   48.2010 O   0  0  0  0  0  0  0  0  0  0  0  0
   -3.6560   40.5140   49.3490 C   0  0  0  0  0  0  0  0  0  0  0  0
   -3.3040   41.3840   50.5770 C   0  0  0  0  0  0  0  0  0  0  0  0
   -1.7180   43.8240   53.4490 C   0  0  0  0  0  0  0  0  0  0  0  0
    1.0057   45.6374   51.2005 H   0  0  0  0  0  0  0  0  0  0  0  0
    3.1519   46.2661   50.0420 H   0  0  0  0  0  0  0  0  0  0  0  0
    5.9680   46.6352   50.5040 H   0  0  0  0  0  0  0  0  0  0  0  0
    7.7369   47.1495   54.8205 H   0  0  0  0  0  0  0  0  0  0  0  0
   10.1992   47.4967   55.0039 H   0  0  0  0  0  0  0  0  0  0  0  0
   11.6890   46.9479   53.0775 H   0  0  0  0  0  0  0  0  0  0  0  0
   10.7152   46.0509   50.9625 H   0  0  0  0  0  0  0  0  0  0  0  0
    8.2536   45.6982   50.7685 H   0  0  0  0  0  0  0  0  0  0  0  0
    5.8360   45.6560   54.6970 H   0  0  0  0  0  0  0  0  0  0  0  0
    3.1774   45.1492   54.9512 H   0  0  0  0  0  0  0  0  0  0  0  0
   -0.6138   44.3775   50.9706 H   0  0  0  0  0  0  0  0  0  0  0  0
    0.1667   42.9515   51.4924 H   0  0  0  0  0  0  0  0  0  0  0  0
   -2.2239   42.0698   52.0223 H   0  0  0  0  0  0  0  0  0  0  0  0
   -2.8140   44.6900   51.0280 H   0  0  0  0  0  0  0  0  0  0  0  0
   -4.6247   43.0276   50.1907 H   0  0  0  0  0  0  0  0  0  0  0  0
   -3.2946   44.2012   48.5952 H   0  0  0  0  0  0  0  0  0  0  0  0
   -1.7647   43.4455   49.2113 H   0  0  0  0  0  0  0  0  0  0  0  0
   -3.1122   42.6474   46.9349 H   0  0  0  0  0  0  0  0  0  0  0  0
   -1.9824   41.6191   47.9050 H   0  0  0  0  0  0  0  0  0  0  0  0
   -4.5195   39.8817   49.6033 H   0  0  0  0  0  0  0  0  0  0  0  0
   -2.7664   39.9151   49.1042 H   0  0  0  0  0  0  0  0  0  0  0  0
   -3.9346   41.0786   51.4250 H   0  0  0  0  0  0  0  0  0  0  0  0
   -2.2391   41.2387   50.8113 H   0  0  0  0  0  0  0  0  0  0  0  0
   -2.4480   44.6235   53.6437 H   0  0  0  0  0  0  0  0  0  0  0  0
   -1.8007   43.2144   54.3609 H   0  0  0  0  0  0  0  0  0  0  0  0
  1  2  2  0
  2  3  1  0
  3  4  2  0
  4  5  1  0
  5  6  2  0
  6  7  1  0
  7  8  2  0
  8  9  1  0
  9 10  2  0
 10 11  1  0
 11 12  2  0
 12 13  1  0
 13 14  2  0
  8 15  1  0
 15 16  1  0
 16 17  2  0
  2 18  1  0
 18 19  1  0
 19 20  1  0
 20 21  1  0
 21 22  1  0
 22 23  1  0
 23 24  1  0
 24 25  1  0
 25 26  1  0
 26 27  1  0
 20 28  1  0
 17  3  1  0
 28 18  1  0
 16  6  1  0
 27 22  1  0
 14  9  1  0
  4 29  1  0
  5 30  1  0
  7 31  1  0
 10 32  1  0
 11 33  1  0
 12 34  1  0
 13 35  1  0
 14 36  1  0
 15 37  1  0
 17 38  1  0
 19 39  1  0
 19 40  1  0
 20 41  1  0
 21 42  1  0
 22 43  1  0
 23 44  1  0
 23 45  1  0
 24 46  1  0
 24 47  1  0
 26 48  1  0
 26 49  1  0
 27 50  1  0
 27 51  1  0
 28 52  1  0
 28 53  1  0
M  END
>  <meeko>  (5) 
{"is_sidechain": [false], "free_energy": -8.219, "intermolecular_energy": -10.138, "internal_energy": -0.331}

$$$$
