MODEL 1
REMARK VINA RESULT:    -8.901      0.000      0.000
REMARK INTER + INTRA:         -12.365
REMARK INTER:                 -11.503
REMARK INTRA:                  -0.862
REMARK UNBOUND:                -0.862
REMARK SMILES O=C(c1ccc(-n2cnc3ccccc32)cc1)N1CCC[C@@](O)(CO)C1
REMARK SMILES IDX 18 1 19 2 20 3 21 4 22 5 26 6 2 7 1 8 3 9 4 10 17 11 5 12
REMARK SMILES IDX 16 13 6 14 7 15 8 16 15 17 9 18 14 19 10 20 13 21 11 22
REMARK SMILES IDX 12 23 23 24 24 26 25 27
REMARK H PARENT 23 25 25 28
ROOT
ATOM      1  N   UNL     1       0.489  44.874  54.426  1.00  0.00    -0.336 N 
ATOM      2  C   UNL     1       1.055  45.526  55.615  1.00  0.00     0.120 C 
ATOM      3  C   UNL     1       0.386  45.023  56.898  1.00  0.00     0.025 C 
ATOM      4  C   UNL     1      -1.137  45.078  56.746  1.00  0.00     0.041 C 
ATOM      5  C   UNL     1      -1.670  44.262  55.520  1.00  0.00     0.105 C 
ATOM      6  C   UNL     1      -0.514  43.810  54.584  1.00  0.00     0.157 C 
ENDROOT
BRANCH   1   7
ATOM      7  C   UNL     1       0.916  45.307  53.121  1.00  0.00     0.253 C 
ATOM      8  O   UNL     1       0.048  45.609  52.257  1.00  0.00    -0.269 OA
BRANCH   7   9
ATOM      9  C   UNL     1       2.350  45.421  52.769  1.00  0.00     0.040 A 
ATOM     10  C   UNL     1       2.862  46.635  52.280  1.00  0.00     0.016 A 
ATOM     11  C   UNL     1       3.223  44.335  52.946  1.00  0.00     0.016 A 
ATOM     12  C   UNL     1       4.216  46.753  51.955  1.00  0.00     0.027 A 
ATOM     13  C   UNL     1       4.577  44.454  52.620  1.00  0.00     0.027 A 
ATOM     14  C   UNL     1       5.087  45.667  52.133  1.00  0.00     0.047 A 
BRANCH  14  15
ATOM     15  N   UNL     1       6.478  45.776  51.784  1.00  0.00    -0.299 N 
ATOM     16  C   UNL     1       7.062  45.333  50.644  1.00  0.00     0.205 A 
ATOM     17  C   UNL     1       7.486  46.328  52.484  1.00  0.00     0.073 A 
ATOM     18  N   UNL     1       8.395  45.590  50.587  1.00  0.00    -0.236 NA
ATOM     19  C   UNL     1       7.481  46.881  53.767  1.00  0.00     0.029 A 
ATOM     20  C   UNL     1       8.635  46.214  51.755  1.00  0.00     0.089 A 
ATOM     21  C   UNL     1       8.703  47.360  54.277  1.00  0.00     0.002 A 
ATOM     22  C   UNL     1       9.859  46.675  52.231  1.00  0.00     0.030 A 
ATOM     23  C   UNL     1       9.887  47.261  53.510  1.00  0.00     0.002 A 
ENDBRANCH  14  15
ENDBRANCH   7   9
ENDBRANCH   1   7
BRANCH   5  24
ATOM     24  O   UNL     1      -2.328  43.116  56.012  1.00  0.00    -0.386 OA
ATOM     25  H   UNL     1      -1.824  42.788  56.803  1.00  0.00     0.211 HD
ENDBRANCH   5  24
BRANCH   5  26
ATOM     26  C   UNL     1      -2.681  45.121  54.716  1.00  0.00     0.193 C 
BRANCH  26  27
ATOM     27  O   UNL     1      -2.684  46.447  55.177  1.00  0.00    -0.393 OA
ATOM     28  H   UNL     1      -3.591  46.813  55.012  1.00  0.00     0.210 HD
ENDBRANCH  26  27
ENDBRANCH   5  26
TORSDOF 6
ENDMDL
MODEL 2
REMARK VINA RESULT:    -8.704      1.847      2.731
REMARK INTER + INTRA:         -12.111
REMARK INTER:                 -11.224
REMARK INTRA:                  -0.887
REMARK UNBOUND:                -0.862
REMARK SMILES O=C(c1ccc(-n2cnc3ccccc32)cc1)N1CCC[C@@](O)(CO)C1
REMARK SMILES IDX 18 1 19 2 20 3 21 4 22 5 26 6 2 7 1 8 3 9 4 10 17 11 5 12
REMARK SMILES IDX 16 13 6 14 7 15 8 16 15 17 9 18 14 19 10 20 13 21 11 22
REMARK SMILES IDX 12 23 23 24 24 26 25 27
REMARK H PARENT 23 25 25 28
ROOT
ATOM      1  N   UNL     1       0.040  44.432  54.463  1.00  0.00    -0.336 N 
ATOM      2  C   UNL     1      -1.212  45.002  53.945  1.00  0.00     0.120 C 
ATOM      3  C   UNL     1      -2.100  43.922  53.320  1.00  0.00     0.025 C 
ATOM      4  C   UNL     1      -1.278  43.074  52.344  1.00  0.00     0.041 C 
ATOM      5  C   UNL     1      -0.024  42.407  53.002  1.00  0.00     0.105 C 
ATOM      6  C   UNL     1       0.251  42.977  54.423  1.00  0.00     0.157 C 
ENDROOT
BRANCH   1   7
ATOM      7  C   UNL     1       1.050  45.317  54.982  1.00  0.00     0.253 C 
ATOM      8  O   UNL     1       0.815  45.972  56.034  1.00  0.00    -0.269 OA
BRANCH   7   9
ATOM      9  C   UNL     1       2.366  45.470  54.319  1.00  0.00     0.040 A 
ATOM     10  C   UNL     1       2.468  46.181  53.112  1.00  0.00     0.016 A 
ATOM     11  C   UNL     1       3.529  44.936  54.896  1.00  0.00     0.016 A 
ATOM     12  C   UNL     1       3.707  46.338  52.485  1.00  0.00     0.027 A 
ATOM     13  C   UNL     1       4.768  45.092  54.269  1.00  0.00     0.027 A 
ATOM     14  C   UNL     1       4.869  45.804  53.064  1.00  0.00     0.047 A 
BRANCH  14  15
ATOM     15  N   UNL     1       6.145  45.946  52.416  1.00  0.00    -0.299 N 
ATOM     16  C   UNL     1       6.448  45.593  51.142  1.00  0.00     0.205 A 
ATOM     17  C   UNL     1       7.292  46.449  52.906  1.00  0.00     0.073 A 
ATOM     18  N   UNL     1       7.736  45.860  50.802  1.00  0.00    -0.236 NA
ATOM     19  C   UNL     1       7.588  46.905  54.193  1.00  0.00     0.029 A 
ATOM     20  C   UNL     1       8.243  46.396  51.927  1.00  0.00     0.089 A 
ATOM     21  C   UNL     1       8.899  47.351  54.444  1.00  0.00     0.002 A 
ATOM     22  C   UNL     1       9.549  46.826  52.144  1.00  0.00     0.030 A 
ATOM     23  C   UNL     1       9.875  47.315  53.422  1.00  0.00     0.002 A 
ENDBRANCH  14  15
ENDBRANCH   7   9
ENDBRANCH   1   7
BRANCH   5  24
ATOM     24  O   UNL     1      -0.271  41.023  53.110  1.00  0.00    -0.386 OA
ATOM     25  H   UNL     1      -0.811  40.870  53.930  1.00  0.00     0.211 HD
ENDBRANCH   5  24
BRANCH   5  26
ATOM     26  C   UNL     1       1.222  42.631  52.105  1.00  0.00     0.193 C 
BRANCH  26  27
ATOM     27  O   UNL     1       2.395  42.261  52.783  1.00  0.00    -0.393 OA
ATOM     28  H   UNL     1       2.853  43.099  53.056  1.00  0.00     0.210 HD
ENDBRANCH  26  27
ENDBRANCH   5  26
TORSDOF 6
ENDMDL
MODEL 3
REMARK VINA RESULT:    -8.627      2.054      3.157
REMARK INTER + INTRA:         -12.011
REMARK INTER:                 -11.276
REMARK INTRA:                  -0.735
REMARK UNBOUND:                -0.862
REMARK SMILES O=C(c1ccc(-n2cnc3ccccc32)cc1)N1CCC[C@@](O)(CO)C1
REMARK SMILES IDX 18 1 19 2 20 3 21 4 22 5 26 6 2 7 1 8 3 9 4 10 17 11 5 12
REMARK SMILES IDX 16 13 6 14 7 15 8 16 15 17 9 18 14 19 10 20 13 21 11 22
REMARK SMILES IDX 12 23 23 24 24 26 25 27
REMARK H PARENT 23 25 25 28
ROOT
ATOM      1  N   UNL     1       0.134  44.045  51.266  1.00  0.00    -0.336 N 
ATOM      2  C   UNL     1      -0.991  43.429  50.548  1.00  0.00     0.120 C 
ATOM      3  C   UNL     1      -2.336  43.899  51.112  1.00  0.00     0.025 C 
ATOM      4  C   UNL     1      -2.337  43.757  52.637  1.00  0.00     0.041 C 
ATOM      5  C   UNL     1      -1.172  44.537  53.336  1.00  0.00     0.105 C 
ATOM      6  C   UNL     1      -0.125  45.050  52.307  1.00  0.00     0.157 C 
ENDROOT
BRANCH   1   7
ATOM      7  C   UNL     1       1.477  43.631  50.948  1.00  0.00     0.253 C 
ATOM      8  O   UNL     1       1.655  42.694  50.123  1.00  0.00    -0.269 OA
BRANCH   7   9
ATOM      9  C   UNL     1       2.657  44.286  51.557  1.00  0.00     0.040 A 
ATOM     10  C   UNL     1       3.085  45.541  51.091  1.00  0.00     0.016 A 
ATOM     11  C   UNL     1       3.346  43.684  52.622  1.00  0.00     0.016 A 
ATOM     12  C   UNL     1       4.192  46.170  51.666  1.00  0.00     0.027 A 
ATOM     13  C   UNL     1       4.454  44.313  53.197  1.00  0.00     0.027 A 
ATOM     14  C   UNL     1       4.879  45.567  52.731  1.00  0.00     0.047 A 
BRANCH  14  15
ATOM     15  N   UNL     1       6.029  46.201  53.316  1.00  0.00    -0.299 N 
ATOM     16  C   UNL     1       6.077  46.850  54.506  1.00  0.00     0.205 A 
ATOM     17  C   UNL     1       7.283  46.290  52.836  1.00  0.00     0.073 A 
ATOM     18  N   UNL     1       7.309  47.337  54.805  1.00  0.00    -0.236 NA
ATOM     19  C   UNL     1       7.801  45.860  51.612  1.00  0.00     0.029 A 
ATOM     20  C   UNL     1       8.046  46.973  53.740  1.00  0.00     0.089 A 
ATOM     21  C   UNL     1       9.160  46.118  51.351  1.00  0.00     0.002 A 
ATOM     22  C   UNL     1       9.392  47.247  53.510  1.00  0.00     0.030 A 
ATOM     23  C   UNL     1       9.954  46.805  52.297  1.00  0.00     0.002 A 
ENDBRANCH  14  15
ENDBRANCH   7   9
ENDBRANCH   1   7
BRANCH   5  24
ATOM     24  O   UNL     1      -1.730  45.645  54.006  1.00  0.00    -0.386 OA
ATOM     25  H   UNL     1      -1.416  46.470  53.549  1.00  0.00     0.211 HD
ENDBRANCH   5  24
BRANCH   5  26
ATOM     26  C   UNL     1      -0.472  43.619  54.372  1.00  0.00     0.193 C 
BRANCH  26  27
ATOM     27  O   UNL     1      -0.592  42.270  54.001  1.00  0.00    -0.393 OA
ATOM     28  H   UNL     1      -1.406  42.191  53.440  1.00  0.00     0.210 HD
ENDBRANCH  26  27
ENDBRANCH   5  26
TORSDOF 6
ENDMDL
MODEL 4
REMARK VINA RESULT:    -8.503      1.770      2.628
REMARK INTER + INTRA:         -11.850
REMARK INTER:                 -11.147
REMARK INTRA:                  -0.704
REMARK UNBOUND:                -0.862
REMARK SMILES O=C(c1ccc(-n2cnc3ccccc32)cc1)N1CCC[C@@](O)(CO)C1
REMARK SMILES IDX 18 1 19 2 20 3 21 4 22 5 26 6 2 7 1 8 3 9 4 10 17 11 5 12
REMARK SMILES IDX 16 13 6 14 7 15 8 16 15 17 9 18 14 19 10 20 13 21 11 22
REMARK SMILES IDX 12 23 23 24 24 26 25 27
REMARK H PARENT 23 25 25 28
ROOT
ATOM      1  N   UNL     1       0.303  44.124  52.183  1.00  0.00    -0.336 N 
ATOM      2  C   UNL     1      -0.887  43.280  52.354  1.00  0.00     0.120 C 
ATOM      3  C   UNL     1      -1.720  43.727  53.559  1.00  0.00     0.025 C 
ATOM      4  C   UNL     1      -0.814  43.890  54.784  1.00  0.00     0.041 C 
ATOM      5  C   UNL     1       0.365  44.895  54.558  1.00  0.00     0.105 C 
ATOM      6  C   UNL     1       0.505  45.288  53.060  1.00  0.00     0.157 C 
ENDROOT
BRANCH   1   7
ATOM      7  C   UNL     1       1.265  43.780  51.169  1.00  0.00     0.253 C 
ATOM      8  O   UNL     1       0.903  43.072  50.190  1.00  0.00    -0.269 OA
BRANCH   7   9
ATOM      9  C   UNL     1       2.669  44.248  51.237  1.00  0.00     0.040 A 
ATOM     10  C   UNL     1       3.682  43.376  51.669  1.00  0.00     0.016 A 
ATOM     11  C   UNL     1       3.013  45.552  50.846  1.00  0.00     0.016 A 
ATOM     12  C   UNL     1       5.010  43.806  51.728  1.00  0.00     0.027 A 
ATOM     13  C   UNL     1       4.341  45.983  50.905  1.00  0.00     0.027 A 
ATOM     14  C   UNL     1       5.352  45.110  51.335  1.00  0.00     0.047 A 
BRANCH  14  15
ATOM     15  N   UNL     1       6.714  45.566  51.409  1.00  0.00    -0.299 N 
ATOM     16  C   UNL     1       7.662  45.438  50.448  1.00  0.00     0.205 A 
ATOM     17  C   UNL     1       7.340  46.205  52.413  1.00  0.00     0.073 A 
ATOM     18  N   UNL     1       8.859  45.979  50.797  1.00  0.00    -0.236 NA
ATOM     19  C   UNL     1       6.871  46.541  53.686  1.00  0.00     0.029 A 
ATOM     20  C   UNL     1       8.629  46.452  52.035  1.00  0.00     0.089 A 
ATOM     21  C   UNL     1       7.763  47.185  54.563  1.00  0.00     0.002 A 
ATOM     22  C   UNL     1       9.537  47.085  52.880  1.00  0.00     0.030 A 
ATOM     23  C   UNL     1       9.090  47.460  54.161  1.00  0.00     0.002 A 
ENDBRANCH  14  15
ENDBRANCH   7   9
ENDBRANCH   1   7
BRANCH   5  24
ATOM     24  O   UNL     1       0.097  46.058  55.308  1.00  0.00    -0.386 OA
ATOM     25  H   UNL     1       0.058  45.804  56.267  1.00  0.00     0.211 HD
ENDBRANCH   5  24
BRANCH   5  26
ATOM     26  C   UNL     1       1.694  44.267  55.054  1.00  0.00     0.193 C 
BRANCH  26  27
ATOM     27  O   UNL     1       2.049  44.783  56.311  1.00  0.00    -0.393 OA
ATOM     28  H   UNL     1       1.555  45.636  56.428  1.00  0.00     0.210 HD
ENDBRANCH  26  27
ENDBRANCH   5  26
TORSDOF 6
ENDMDL
MODEL 5
REMARK VINA RESULT:    -8.447      2.840      7.973
REMARK INTER + INTRA:         -11.778
REMARK INTER:                 -10.910
REMARK INTRA:                  -0.867
REMARK UNBOUND:                -0.862
REMARK SMILES O=C(c1ccc(-n2cnc3ccccc32)cc1)N1CCC[C@@](O)(CO)C1
REMARK SMILES IDX 18 1 19 2 20 3 21 4 22 5 26 6 2 7 1 8 3 9 4 10 17 11 5 12
REMARK SMILES IDX 16 13 6 14 7 15 8 16 15 17 9 18 14 19 10 20 13 21 11 22
REMARK SMILES IDX 12 23 23 24 24 26 25 27
REMARK H PARENT 23 25 25 28
ROOT
ATOM      1  N   UNL     1       6.655  45.332  51.666  1.00  0.00    -0.336 N 
ATOM      2  C   UNL     1       7.632  46.062  50.846  1.00  0.00     0.120 C 
ATOM      3  C   UNL     1       8.492  46.996  51.703  1.00  0.00     0.025 C 
ATOM      4  C   UNL     1       7.593  47.840  52.613  1.00  0.00     0.041 C 
ATOM      5  C   UNL     1       6.663  46.984  53.538  1.00  0.00     0.105 C 
ATOM      6  C   UNL     1       6.669  45.484  53.128  1.00  0.00     0.157 C 
ENDROOT
BRANCH   1   7
ATOM      7  C   UNL     1       5.683  44.493  51.013  1.00  0.00     0.253 C 
ATOM      8  O   UNL     1       5.999  43.893  49.950  1.00  0.00    -0.269 OA
BRANCH   7   9
ATOM      9  C   UNL     1       4.322  44.305  51.567  1.00  0.00     0.040 A 
ATOM     10  C   UNL     1       3.360  45.320  51.432  1.00  0.00     0.016 A 
ATOM     11  C   UNL     1       3.963  43.105  52.204  1.00  0.00     0.016 A 
ATOM     12  C   UNL     1       2.071  45.146  51.944  1.00  0.00     0.027 A 
ATOM     13  C   UNL     1       2.674  42.932  52.715  1.00  0.00     0.027 A 
ATOM     14  C   UNL     1       1.714  43.947  52.579  1.00  0.00     0.047 A 
BRANCH  14  15
ATOM     15  N   UNL     1       0.395  43.768  53.123  1.00  0.00    -0.299 N 
ATOM     16  C   UNL     1      -0.659  43.176  52.508  1.00  0.00     0.205 A 
ATOM     17  C   UNL     1      -0.082  44.131  54.327  1.00  0.00     0.073 A 
ATOM     18  N   UNL     1      -1.780  43.139  53.276  1.00  0.00    -0.236 NA
ATOM     19  C   UNL     1       0.543  44.842  55.355  1.00  0.00     0.029 A 
ATOM     20  C   UNL     1      -1.389  43.746  54.412  1.00  0.00     0.089 A 
ATOM     21  C   UNL     1      -0.212  45.120  56.510  1.00  0.00     0.002 A 
ATOM     22  C   UNL     1      -2.164  44.007  55.539  1.00  0.00     0.030 A 
ATOM     23  C   UNL     1      -1.559  44.701  56.604  1.00  0.00     0.002 A 
ENDBRANCH  14  15
ENDBRANCH   7   9
ENDBRANCH   1   7
BRANCH   5  24
ATOM     24  O   UNL     1       7.141  47.095  54.859  1.00  0.00    -0.386 OA
ATOM     25  H   UNL     1       7.921  47.710  54.853  1.00  0.00     0.211 HD
ENDBRANCH   5  24
BRANCH   5  26
ATOM     26  C   UNL     1       5.213  47.531  53.476  1.00  0.00     0.193 C 
BRANCH  26  27
ATOM     27  O   UNL     1       4.765  47.898  54.755  1.00  0.00    -0.393 OA
ATOM     28  H   UNL     1       4.119  48.643  54.638  1.00  0.00     0.210 HD
ENDBRANCH  26  27
ENDBRANCH   5  26
TORSDOF 6
ENDMDL
