ligand_85_conformer_4_docked
     RDKit          3D

 44 47  0  0  0  0  0  0  0  0999 V2000
    3.9130   40.4360   48.4960 C   0  0  0  0  0  0  0  0  0  0  0  0
    3.2840   41.0830   49.7270 C   0  0  0  0  0  0  0  0  0  0  0  0
    4.3060   41.3380   50.8390 C   0  0  0  0  0  0  0  0  0  0  0  0
    4.7300   42.7380   50.8530 N   0  0  0  0  0  0  0  0  0  0  0  0
    3.9960   43.7160   51.3760 N   0  0  0  0  0  0  0  0  0  0  0  0
    4.6780   44.8760   51.2160 C   0  0  0  0  0  0  0  0  0  0  0  0
    4.2390   46.1480   51.7130 N   0  0  0  0  0  0  0  0  0  0  0  0
    4.2230   46.4670   53.1400 C   0  0  0  0  0  0  0  0  0  0  0  0
    5.6020   46.7670   53.6380 C   0  0  0  0  0  0  0  0  0  0  0  0
    6.4970   47.5280   52.9790 N   0  0  0  0  0  0  0  0  0  0  0  0
    7.5610   47.4540   53.8050 C   0  0  0  0  0  0  0  0  0  0  0  0
    8.8970   48.0430   53.4850 C   0  0  0  0  0  0  0  0  0  0  0  0
    9.9390   46.9220   53.3730 C   0  0  0  0  0  0  0  0  0  0  0  0
    9.4390   45.6060   52.7960 C   0  0  0  0  0  0  0  0  0  0  0  0
   10.3090   46.5240   51.9510 C   0  0  0  0  0  0  0  0  0  0  0  0
    7.3210   46.7000   54.8950 N   0  0  0  0  0  0  0  0  0  0  0  0
    6.0950   46.3000   54.7580 O   0  0  0  0  0  0  0  0  0  0  0  0
    5.8690   44.6200   50.5700 C   0  0  0  0  0  0  0  0  0  0  0  0
    6.9240   45.4380   50.1710 C   0  0  0  0  0  0  0  0  0  0  0  0
    8.0090   44.8250   49.5180 C   0  0  0  0  0  0  0  0  0  0  0  0
    8.0120   43.4310   49.2850 C   0  0  0  0  0  0  0  0  0  0  0  0
    6.9310   42.6330   49.7060 C   0  0  0  0  0  0  0  0  0  0  0  0
    5.8680   43.2690   50.3530 C   0  0  0  0  0  0  0  0  0  0  0  0
    4.6472   39.6808   48.8134 H   0  0  0  0  0  0  0  0  0  0  0  0
    3.1286   39.9544   47.8937 H   0  0  0  0  0  0  0  0  0  0  0  0
    4.4166   41.2065   47.8937 H   0  0  0  0  0  0  0  0  0  0  0  0
    2.8364   42.0434   49.4315 H   0  0  0  0  0  0  0  0  0  0  0  0
    2.5263   40.3893   50.1204 H   0  0  0  0  0  0  0  0  0  0  0  0
    3.8505   41.0908   51.8093 H   0  0  0  0  0  0  0  0  0  0  0  0
    5.1882   40.7074   50.6544 H   0  0  0  0  0  0  0  0  0  0  0  0
    3.9170   46.8750   51.0370 H   0  0  0  0  0  0  0  0  0  0  0  0
    3.5819   47.3455   53.3050 H   0  0  0  0  0  0  0  0  0  0  0  0
    3.8336   45.5971   53.6892 H   0  0  0  0  0  0  0  0  0  0  0  0
    8.8388   48.5857   52.5300 H   0  0  0  0  0  0  0  0  0  0  0  0
    9.1917   48.7377   54.2853 H   0  0  0  0  0  0  0  0  0  0  0  0
   10.4960   47.2104   54.2766 H   0  0  0  0  0  0  0  0  0  0  0  0
    9.8441   44.6533   53.1679 H   0  0  0  0  0  0  0  0  0  0  0  0
    8.4518   45.1373   52.6701 H   0  0  0  0  0  0  0  0  0  0  0  0
   11.3432   46.2353   51.7121 H   0  0  0  0  0  0  0  0  0  0  0  0
   10.2117   46.9942   50.9613 H   0  0  0  0  0  0  0  0  0  0  0  0
    6.9092   46.5217   50.3594 H   0  0  0  0  0  0  0  0  0  0  0  0
    8.8617   45.4355   49.1862 H   0  0  0  0  0  0  0  0  0  0  0  0
    8.8657   42.9657   48.7706 H   0  0  0  0  0  0  0  0  0  0  0  0
    6.9235   41.5469   49.5317 H   0  0  0  0  0  0  0  0  0  0  0  0
  1  2  1  0
  2  3  1  0
  3  4  1  0
  4  5  1  0
  5  6  2  0
  6  7  1  0
  7  8  1  0
  8  9  1  0
  9 10  2  0
 10 11  1  0
 11 12  1  0
 12 13  1  0
 13 14  1  0
 14 15  1  0
 11 16  2  0
 16 17  1  0
  6 18  1  0
 18 19  2  0
 19 20  1  0
 20 21  2  0
 21 22  1  0
 22 23  2  0
 23  4  1  0
 17  9  1  0
 23 18  1  0
 15 13  1  0
  1 24  1  0
  1 25  1  0
  1 26  1  0
  2 27  1  0
  2 28  1  0
  3 29  1  0
  3 30  1  0
  7 31  1  0
  8 32  1  0
  8 33  1  0
 12 34  1  0
 12 35  1  0
 13 36  1  0
 14 37  1  0
 14 38  1  0
 15 39  1  0
 15 40  1  0
 19 41  1  0
 20 42  1  0
 21 43  1  0
 22 44  1  0
M  END
>  <meeko>  (1) 
{"is_sidechain": [false], "free_energy": -8.251, "intermolecular_energy": -11.627, "internal_energy": -1.128}

$$$$
ligand_85_conformer_4_docked
     RDKit          3D

 44 47  0  0  0  0  0  0  0  0999 V2000
    7.3070   42.9860   49.2720 C   0  0  0  0  0  0  0  0  0  0  0  0
    6.6430   44.1690   49.9740 C   0  0  0  0  0  0  0  0  0  0  0  0
    7.5960   45.3570   50.1420 C   0  0  0  0  0  0  0  0  0  0  0  0
    7.3200   46.0800   51.3830 N   0  0  0  0  0  0  0  0  0  0  0  0
    6.0980   46.4470   51.7560 N   0  0  0  0  0  0  0  0  0  0  0  0
    6.2030   47.0950   52.9410 C   0  0  0  0  0  0  0  0  0  0  0  0
    5.0880   47.5870   53.6970 N   0  0  0  0  0  0  0  0  0  0  0  0
    4.3830   46.7620   54.6780 C   0  0  0  0  0  0  0  0  0  0  0  0
    3.4590   45.7970   54.0020 C   0  0  0  0  0  0  0  0  0  0  0  0
    3.7890   44.5320   53.6790 N   0  0  0  0  0  0  0  0  0  0  0  0
    2.6580   44.1140   53.0740 C   0  0  0  0  0  0  0  0  0  0  0  0
    2.5210   42.7830   52.4070 C   0  0  0  0  0  0  0  0  0  0  0  0
    3.4650   42.7140   51.1980 C   0  0  0  0  0  0  0  0  0  0  0  0
    4.4420   41.5490   51.1850 C   0  0  0  0  0  0  0  0  0  0  0  0
    3.2310   41.5360   50.2640 C   0  0  0  0  0  0  0  0  0  0  0  0
    1.7050   45.0660   53.0390 N   0  0  0  0  0  0  0  0  0  0  0  0
    2.2380   46.0900   53.6310 O   0  0  0  0  0  0  0  0  0  0  0  0
    7.5290   47.1410   53.3200 C   0  0  0  0  0  0  0  0  0  0  0  0
    8.1770   47.6730   54.4320 C   0  0  0  0  0  0  0  0  0  0  0  0
    9.5760   47.5360   54.4940 C   0  0  0  0  0  0  0  0  0  0  0  0
   10.2800   46.8780   53.4600 C   0  0  0  0  0  0  0  0  0  0  0  0
    9.5920   46.3470   52.3520 C   0  0  0  0  0  0  0  0  0  0  0  0
    8.2030   46.4970   52.3180 C   0  0  0  0  0  0  0  0  0  0  0  0
    7.6997   42.2864   50.0246 H   0  0  0  0  0  0  0  0  0  0  0  0
    6.5665   42.4702   48.6429 H   0  0  0  0  0  0  0  0  0  0  0  0
    8.1330   43.3494   48.6429 H   0  0  0  0  0  0  0  0  0  0  0  0
    5.7765   44.4924   49.3785 H   0  0  0  0  0  0  0  0  0  0  0  0
    6.3401   43.8369   50.9779 H   0  0  0  0  0  0  0  0  0  0  0  0
    8.6316   44.9868   50.1642 H   0  0  0  0  0  0  0  0  0  0  0  0
    7.4503   46.0450   49.2962 H   0  0  0  0  0  0  0  0  0  0  0  0
    4.7620   48.5670   53.5450 H   0  0  0  0  0  0  0  0  0  0  0  0
    5.1194   46.1998   55.2709 H   0  0  0  0  0  0  0  0  0  0  0  0
    3.7879   47.4209   55.3274 H   0  0  0  0  0  0  0  0  0  0  0  0
    2.7811   41.9873   53.1206 H   0  0  0  0  0  0  0  0  0  0  0  0
    1.4830   42.6488   52.0685 H   0  0  0  0  0  0  0  0  0  0  0  0
    3.5568   43.8036   51.0778 H   0  0  0  0  0  0  0  0  0  0  0  0
    5.4503   41.6815   50.7658 H   0  0  0  0  0  0  0  0  0  0  0  0
    4.8479   40.8659   51.9457 H   0  0  0  0  0  0  0  0  0  0  0  0
    3.3637   41.6594   49.1790 H   0  0  0  0  0  0  0  0  0  0  0  0
    2.3986   40.8400   50.0829 H   0  0  0  0  0  0  0  0  0  0  0  0
    7.6168   48.1807   55.2310 H   0  0  0  0  0  0  0  0  0  0  0  0
   10.1264   47.9444   55.3544 H   0  0  0  0  0  0  0  0  0  0  0  0
   11.3739   46.7799   53.5213 H   0  0  0  0  0  0  0  0  0  0  0  0
   10.1290   45.8322   51.5417 H   0  0  0  0  0  0  0  0  0  0  0  0
  1  2  1  0
  2  3  1  0
  3  4  1  0
  4  5  1  0
  5  6  2  0
  6  7  1  0
  7  8  1  0
  8  9  1  0
  9 10  2  0
 10 11  1  0
 11 12  1  0
 12 13  1  0
 13 14  1  0
 14 15  1  0
 11 16  2  0
 16 17  1  0
  6 18  1  0
 18 19  2  0
 19 20  1  0
 20 21  2  0
 21 22  1  0
 22 23  2  0
 23  4  1  0
 17  9  1  0
 23 18  1  0
 15 13  1  0
  1 24  1  0
  1 25  1  0
  1 26  1  0
  2 27  1  0
  2 28  1  0
  3 29  1  0
  3 30  1  0
  7 31  1  0
  8 32  1  0
  8 33  1  0
 12 34  1  0
 12 35  1  0
 13 36  1  0
 14 37  1  0
 14 38  1  0
 15 39  1  0
 15 40  1  0
 19 41  1  0
 20 42  1  0
 21 43  1  0
 22 44  1  0
M  END
>  <meeko>  (2) 
{"is_sidechain": [false], "free_energy": -8.221, "intermolecular_energy": -11.581, "internal_energy": -1.131}

$$$$
ligand_85_conformer_4_docked
     RDKit          3D

 44 47  0  0  0  0  0  0  0  0999 V2000
   11.0400   47.5230   56.2440 C   0  0  0  0  0  0  0  0  0  0  0  0
   10.2440   47.0960   55.0130 C   0  0  0  0  0  0  0  0  0  0  0  0
    9.1580   48.1110   54.6410 C   0  0  0  0  0  0  0  0  0  0  0  0
    8.1210   47.4920   53.8160 N   0  0  0  0  0  0  0  0  0  0  0  0
    6.8260   47.5510   54.1100 N   0  0  0  0  0  0  0  0  0  0  0  0
    6.1520   46.8750   53.1480 C   0  0  0  0  0  0  0  0  0  0  0  0
    4.7230   46.7710   53.0810 N   0  0  0  0  0  0  0  0  0  0  0  0
    3.9690   45.8160   53.8920 C   0  0  0  0  0  0  0  0  0  0  0  0
    3.6350   44.5890   53.1030 C   0  0  0  0  0  0  0  0  0  0  0  0
    4.5520   43.7650   52.5580 N   0  0  0  0  0  0  0  0  0  0  0  0
    3.7590   42.8660   51.9390 C   0  0  0  0  0  0  0  0  0  0  0  0
    4.2790   41.7710   51.0650 C   0  0  0  0  0  0  0  0  0  0  0  0
    5.3790   42.3240   50.1470 C   0  0  0  0  0  0  0  0  0  0  0  0
    6.6360   41.4750   50.0320 C   0  0  0  0  0  0  0  0  0  0  0  0
    5.6350   41.5120   48.8860 C   0  0  0  0  0  0  0  0  0  0  0  0
    2.4480   43.1280   52.1050 N   0  0  0  0  0  0  0  0  0  0  0  0
    2.4140   44.1970   52.8380 O   0  0  0  0  0  0  0  0  0  0  0  0
    7.0500   46.3730   52.2290 C   0  0  0  0  0  0  0  0  0  0  0  0
    6.8930   45.6230   51.0650 C   0  0  0  0  0  0  0  0  0  0  0  0
    8.0580   45.2760   50.3560 C   0  0  0  0  0  0  0  0  0  0  0  0
    9.3290   45.6830   50.8190 C   0  0  0  0  0  0  0  0  0  0  0  0
    9.4510   46.4450   51.9980 C   0  0  0  0  0  0  0  0  0  0  0  0
    8.2770   46.7750   52.6810 C   0  0  0  0  0  0  0  0  0  0  0  0
   10.4943   47.2303   57.1532 H   0  0  0  0  0  0  0  0  0  0  0  0
   12.0241   47.0317   56.2328 H   0  0  0  0  0  0  0  0  0  0  0  0
   11.1750   48.6146   56.2328 H   0  0  0  0  0  0  0  0  0  0  0  0
   10.9353   46.9907   54.1639 H   0  0  0  0  0  0  0  0  0  0  0  0
    9.7473   46.1430   55.2477 H   0  0  0  0  0  0  0  0  0  0  0  0
    8.6997   48.5009   55.5618 H   0  0  0  0  0  0  0  0  0  0  0  0
    9.6226   48.9257   54.0662 H   0  0  0  0  0  0  0  0  0  0  0  0
    4.1960   47.3960   52.4320 H   0  0  0  0  0  0  0  0  0  0  0  0
    4.5737   45.5289   54.7649 H   0  0  0  0  0  0  0  0  0  0  0  0
    3.0310   46.2925   54.2131 H   0  0  0  0  0  0  0  0  0  0  0  0
    4.6944   40.9682   51.6918 H   0  0  0  0  0  0  0  0  0  0  0  0
    3.4578   41.3714   50.4519 H   0  0  0  0  0  0  0  0  0  0  0  0
    5.1762   43.3818   50.3704 H   0  0  0  0  0  0  0  0  0  0  0  0
    7.6178   41.9583   49.9205 H   0  0  0  0  0  0  0  0  0  0  0  0
    7.0960   40.6803   50.6377 H   0  0  0  0  0  0  0  0  0  0  0  0
    5.8933   42.0221   47.9463 H   0  0  0  0  0  0  0  0  0  0  0  0
    5.0718   40.7552   48.3203 H   0  0  0  0  0  0  0  0  0  0  0  0
    5.8972   45.3143   50.7141 H   0  0  0  0  0  0  0  0  0  0  0  0
    7.9782   44.6826   49.4332 H   0  0  0  0  0  0  0  0  0  0  0  0
   10.2307   45.4028   50.2547 H   0  0  0  0  0  0  0  0  0  0  0  0
   10.4352   46.7686   52.3677 H   0  0  0  0  0  0  0  0  0  0  0  0
  1  2  1  0
  2  3  1  0
  3  4  1  0
  4  5  1  0
  5  6  2  0
  6  7  1  0
  7  8  1  0
  8  9  1  0
  9 10  2  0
 10 11  1  0
 11 12  1  0
 12 13  1  0
 13 14  1  0
 14 15  1  0
 11 16  2  0
 16 17  1  0
  6 18  1  0
 18 19  2  0
 19 20  1  0
 20 21  2  0
 21 22  1  0
 22 23  2  0
 23  4  1  0
 17  9  1  0
 23 18  1  0
 15 13  1  0
  1 24  1  0
  1 25  1  0
  1 26  1  0
  2 27  1  0
  2 28  1  0
  3 29  1  0
  3 30  1  0
  7 31  1  0
  8 32  1  0
  8 33  1  0
 12 34  1  0
 12 35  1  0
 13 36  1  0
 14 37  1  0
 14 38  1  0
 15 39  1  0
 15 40  1  0
 19 41  1  0
 20 42  1  0
 21 43  1  0
 22 44  1  0
M  END
>  <meeko>  (3) 
{"is_sidechain": [false], "free_energy": -8.191, "intermolecular_energy": -11.882, "internal_energy": -0.789}

$$$$
ligand_85_conformer_4_docked
     RDKit          3D

 44 47  0  0  0  0  0  0  0  0999 V2000
   -0.5780   43.3390   53.4460 C   0  0  0  0  0  0  0  0  0  0  0  0
    0.8790   43.1510   53.8660 C   0  0  0  0  0  0  0  0  0  0  0  0
    1.7330   42.5390   52.7500 C   0  0  0  0  0  0  0  0  0  0  0  0
    2.7350   43.4920   52.2730 N   0  0  0  0  0  0  0  0  0  0  0  0
    2.6550   44.8020   52.4890 N   0  0  0  0  0  0  0  0  0  0  0  0
    3.7350   45.3820   51.9120 C   0  0  0  0  0  0  0  0  0  0  0  0
    4.0370   46.7830   51.9860 N   0  0  0  0  0  0  0  0  0  0  0  0
    4.2150   47.4780   53.2600 C   0  0  0  0  0  0  0  0  0  0  0  0
    5.6520   47.4720   53.6780 C   0  0  0  0  0  0  0  0  0  0  0  0
    6.6870   47.6670   52.8380 N   0  0  0  0  0  0  0  0  0  0  0  0
    7.7340   47.5270   53.6760 C   0  0  0  0  0  0  0  0  0  0  0  0
    9.1600   47.5360   53.2260 C   0  0  0  0  0  0  0  0  0  0  0  0
    9.5470   46.1400   52.7180 C   0  0  0  0  0  0  0  0  0  0  0  0
    9.2120   45.8470   51.2630 C   0  0  0  0  0  0  0  0  0  0  0  0
   10.6520   46.1190   51.6720 C   0  0  0  0  0  0  0  0  0  0  0  0
    7.3550   47.2690   54.9430 N   0  0  0  0  0  0  0  0  0  0  0  0
    6.0580   47.2510   54.9040 O   0  0  0  0  0  0  0  0  0  0  0  0
    4.5110   44.4120   51.3150 C   0  0  0  0  0  0  0  0  0  0  0  0
    5.7080   44.4610   50.6040 C   0  0  0  0  0  0  0  0  0  0  0  0
    6.2290   43.2450   50.1240 C   0  0  0  0  0  0  0  0  0  0  0  0
    5.5520   42.0290   50.3660 C   0  0  0  0  0  0  0  0  0  0  0  0
    4.3450   42.0140   51.0930 C   0  0  0  0  0  0  0  0  0  0  0  0
    3.8520   43.2360   51.5570 C   0  0  0  0  0  0  0  0  0  0  0  0
   -1.2104   43.4206   54.3424 H   0  0  0  0  0  0  0  0  0  0  0  0
   -0.6713   44.2566   52.8466 H   0  0  0  0  0  0  0  0  0  0  0  0
   -0.9012   42.4751   52.8466 H   0  0  0  0  0  0  0  0  0  0  0  0
    1.2987   44.1316   54.1350 H   0  0  0  0  0  0  0  0  0  0  0  0
    0.8957   42.4582   54.7202 H   0  0  0  0  0  0  0  0  0  0  0  0
    2.2431   41.6445   53.1370 H   0  0  0  0  0  0  0  0  0  0  0  0
    1.0739   42.2742   51.9101 H   0  0  0  0  0  0  0  0  0  0  0  0
    4.1330   47.3300   51.1030 H   0  0  0  0  0  0  0  0  0  0  0  0
    3.8760   48.5189   53.1523 H   0  0  0  0  0  0  0  0  0  0  0  0
    3.6243   46.9579   54.0285 H   0  0  0  0  0  0  0  0  0  0  0  0
    9.2835   48.2684   52.4146 H   0  0  0  0  0  0  0  0  0  0  0  0
    9.8086   47.8107   54.0709 H   0  0  0  0  0  0  0  0  0  0  0  0
    9.3621   45.6281   53.6739 H   0  0  0  0  0  0  0  0  0  0  0  0
    8.9078   44.8337   50.9620 H   0  0  0  0  0  0  0  0  0  0  0  0
    8.5196   46.2747   50.5229 H   0  0  0  0  0  0  0  0  0  0  0  0
   11.3889   45.3023   51.6667 H   0  0  0  0  0  0  0  0  0  0  0  0
   11.4319   46.8248   51.3502 H   0  0  0  0  0  0  0  0  0  0  0  0
    6.2265   45.4144   50.4245 H   0  0  0  0  0  0  0  0  0  0  0  0
    7.1709   43.2414   49.5558 H   0  0  0  0  0  0  0  0  0  0  0  0
    5.9704   41.0862   49.9838 H   0  0  0  0  0  0  0  0  0  0  0  0
    3.8097   41.0731   51.2883 H   0  0  0  0  0  0  0  0  0  0  0  0
  1  2  1  0
  2  3  1  0
  3  4  1  0
  4  5  1  0
  5  6  2  0
  6  7  1  0
  7  8  1  0
  8  9  1  0
  9 10  2  0
 10 11  1  0
 11 12  1  0
 12 13  1  0
 13 14  1  0
 14 15  1  0
 11 16  2  0
 16 17  1  0
  6 18  1  0
 18 19  2  0
 19 20  1  0
 20 21  2  0
 21 22  1  0
 22 23  2  0
 23  4  1  0
 17  9  1  0
 23 18  1  0
 15 13  1  0
  1 24  1  0
  1 25  1  0
  1 26  1  0
  2 27  1  0
  2 28  1  0
  3 29  1  0
  3 30  1  0
  7 31  1  0
  8 32  1  0
  8 33  1  0
 12 34  1  0
 12 35  1  0
 13 36  1  0
 14 37  1  0
 14 38  1  0
 15 39  1  0
 15 40  1  0
 19 41  1  0
 20 42  1  0
 21 43  1  0
 22 44  1  0
M  END
>  <meeko>  (4) 
{"is_sidechain": [false], "free_energy": -7.973, "intermolecular_energy": -11.367, "internal_energy": -0.996}

$$$$
ligand_85_conformer_4_docked
     RDKit          3D

 44 47  0  0  0  0  0  0  0  0999 V2000
    9.9590   47.1930   54.2160 C   0  0  0  0  0  0  0  0  0  0  0  0
    9.9280   46.8610   52.7260 C   0  0  0  0  0  0  0  0  0  0  0  0
    8.8820   47.6840   51.9670 C   0  0  0  0  0  0  0  0  0  0  0  0
    7.5370   47.1520   52.1830 N   0  0  0  0  0  0  0  0  0  0  0  0
    6.6900   47.6560   53.0760 N   0  0  0  0  0  0  0  0  0  0  0  0
    5.5480   46.9290   53.0180 C   0  0  0  0  0  0  0  0  0  0  0  0
    4.3700   47.2090   53.7880 N   0  0  0  0  0  0  0  0  0  0  0  0
    4.0080   46.4340   54.9730 C   0  0  0  0  0  0  0  0  0  0  0  0
    2.7350   45.6780   54.7510 C   0  0  0  0  0  0  0  0  0  0  0  0
    2.0350   45.6950   53.6010 N   0  0  0  0  0  0  0  0  0  0  0  0
    0.9850   44.9110   53.9220 C   0  0  0  0  0  0  0  0  0  0  0  0
   -0.1830   44.6830   53.0180 C   0  0  0  0  0  0  0  0  0  0  0  0
    0.3140   44.4410   51.5860 C   0  0  0  0  0  0  0  0  0  0  0  0
    1.0180   43.1140   51.3430 C   0  0  0  0  0  0  0  0  0  0  0  0
   -0.4000   43.3270   50.8350 C   0  0  0  0  0  0  0  0  0  0  0  0
    1.0520   44.4460   55.1850 N   0  0  0  0  0  0  0  0  0  0  0  0
    2.1540   44.9370   55.6610 O   0  0  0  0  0  0  0  0  0  0  0  0
    5.6840   45.9400   52.0670 C   0  0  0  0  0  0  0  0  0  0  0  0
    4.8260   44.9410   51.6110 C   0  0  0  0  0  0  0  0  0  0  0  0
    5.3060   44.0830   50.6040 C   0  0  0  0  0  0  0  0  0  0  0  0
    6.6100   44.2460   50.0850 C   0  0  0  0  0  0  0  0  0  0  0  0
    7.4500   45.2700   50.5650 C   0  0  0  0  0  0  0  0  0  0  0  0
    6.9460   46.1060   51.5640 C   0  0  0  0  0  0  0  0  0  0  0  0
    9.8724   46.2651   54.8003 H   0  0  0  0  0  0  0  0  0  0  0  0
   10.9077   47.6931   54.4606 H   0  0  0  0  0  0  0  0  0  0  0  0
    9.1192   47.8601   54.4606 H   0  0  0  0  0  0  0  0  0  0  0  0
   10.9196   47.0677   52.2971 H   0  0  0  0  0  0  0  0  0  0  0  0
    9.6587   45.7994   52.6240 H   0  0  0  0  0  0  0  0  0  0  0  0
    8.9179   48.7250   52.3207 H   0  0  0  0  0  0  0  0  0  0  0  0
    9.1098   47.6334   50.8920 H   0  0  0  0  0  0  0  0  0  0  0  0
    3.7450   47.9930   53.4960 H   0  0  0  0  0  0  0  0  0  0  0  0
    4.8153   45.7212   55.1972 H   0  0  0  0  0  0  0  0  0  0  0  0
    3.8618   47.1275   55.8142 H   0  0  0  0  0  0  0  0  0  0  0  0
   -0.7471   43.8040   53.3632 H   0  0  0  0  0  0  0  0  0  0  0  0
   -0.8354   45.5685   53.0336 H   0  0  0  0  0  0  0  0  0  0  0  0
    0.5547   45.4948   51.3823 H   0  0  0  0  0  0  0  0  0  0  0  0
    1.8546   43.0575   50.6310 H   0  0  0  0  0  0  0  0  0  0  0  0
    1.5113   42.3667   51.9820 H   0  0  0  0  0  0  0  0  0  0  0  0
   -0.5887   43.4244   49.7557 H   0  0  0  0  0  0  0  0  0  0  0  0
   -1.3567   42.7974   50.9545 H   0  0  0  0  0  0  0  0  0  0  0  0
    3.8122   44.8274   52.0225 H   0  0  0  0  0  0  0  0  0  0  0  0
    4.6613   43.2796   50.2182 H   0  0  0  0  0  0  0  0  0  0  0  0
    6.9726   43.5672   49.2990 H   0  0  0  0  0  0  0  0  0  0  0  0
    8.4665   45.4063   50.1673 H   0  0  0  0  0  0  0  0  0  0  0  0
  1  2  1  0
  2  3  1  0
  3  4  1  0
  4  5  1  0
  5  6  2  0
  6  7  1  0
  7  8  1  0
  8  9  1  0
  9 10  2  0
 10 11  1  0
 11 12  1  0
 12 13  1  0
 13 14  1  0
 14 15  1  0
 11 16  2  0
 16 17  1  0
  6 18  1  0
 18 19  2  0
 19 20  1  0
 20 21  2  0
 21 22  1  0
 22 23  2  0
 23  4  1  0
 17  9  1  0
 23 18  1  0
 15 13  1  0
  1 24  1  0
  1 25  1  0
  1 26  1  0
  2 27  1  0
  2 28  1  0
  3 29  1  0
  3 30  1  0
  7 31  1  0
  8 32  1  0
  8 33  1  0
 12 34  1  0
 12 35  1  0
 13 36  1  0
 14 37  1  0
 14 38  1  0
 15 39  1  0
 15 40  1  0
 19 41  1  0
 20 42  1  0
 21 43  1  0
 22 44  1  0
M  END
>  <meeko>  (5) 
{"is_sidechain": [false], "free_energy": -7.929, "intermolecular_energy": -11.296, "internal_energy": -1.005}

$$$$
