MODEL 1
REMARK VINA RESULT:    -9.012      0.000      0.000
REMARK INTER + INTRA:         -12.415
REMARK INTER:                 -11.646
REMARK INTRA:                  -0.769
REMARK UNBOUND:                -0.769
REMARK SMILES O=C(c1ccc(-n2cnc3ccccc32)cc1)N1CCC[C@](O)(CO)C1
REMARK SMILES IDX 18 1 19 2 20 3 21 4 22 5 26 6 2 7 1 8 3 9 4 10 17 11 5 12
REMARK SMILES IDX 16 13 6 14 7 15 8 16 15 17 9 18 14 19 10 20 13 21 11 22
REMARK SMILES IDX 12 23 23 24 24 26 25 27
REMARK H PARENT 23 25 25 28
ROOT
ATOM      1  N   UNL     1       0.516  45.218  54.616  1.00  0.00    -0.336 N 
ATOM      2  C   UNL     1      -0.315  44.046  54.922  1.00  0.00     0.120 C 
ATOM      3  C   UNL     1      -1.416  44.386  55.942  1.00  0.00     0.025 C 
ATOM      4  C   UNL     1      -1.035  45.520  56.915  1.00  0.00     0.041 C 
ATOM      5  C   UNL     1       0.494  45.671  57.085  1.00  0.00     0.105 C 
ATOM      6  C   UNL     1       1.115  46.010  55.702  1.00  0.00     0.157 C 
ENDROOT
BRANCH   1   7
ATOM      7  C   UNL     1       0.939  45.471  53.265  1.00  0.00     0.253 C 
ATOM      8  O   UNL     1       0.069  45.598  52.359  1.00  0.00    -0.269 OA
BRANCH   7   9
ATOM      9  C   UNL     1       2.374  45.559  52.910  1.00  0.00     0.040 A 
ATOM     10  C   UNL     1       3.222  44.452  53.080  1.00  0.00     0.016 A 
ATOM     11  C   UNL     1       2.901  46.744  52.373  1.00  0.00     0.016 A 
ATOM     12  C   UNL     1       4.574  44.535  52.735  1.00  0.00     0.027 A 
ATOM     13  C   UNL     1       4.253  46.828  52.029  1.00  0.00     0.027 A 
ATOM     14  C   UNL     1       5.097  45.720  52.197  1.00  0.00     0.047 A 
BRANCH  14  15
ATOM     15  N   UNL     1       6.490  45.817  51.855  1.00  0.00    -0.299 N 
ATOM     16  C   UNL     1       7.077  45.371  50.715  1.00  0.00     0.205 A 
ATOM     17  C   UNL     1       7.501  46.358  52.559  1.00  0.00     0.073 A 
ATOM     18  N   UNL     1       8.411  45.617  50.663  1.00  0.00    -0.236 NA
ATOM     19  C   UNL     1       7.496  46.910  53.843  1.00  0.00     0.029 A 
ATOM     20  C   UNL     1       8.652  46.236  51.833  1.00  0.00     0.089 A 
ATOM     21  C   UNL     1       8.720  47.377  54.358  1.00  0.00     0.002 A 
ATOM     22  C   UNL     1       9.879  46.686  52.316  1.00  0.00     0.030 A 
ATOM     23  C   UNL     1       9.905  47.270  53.597  1.00  0.00     0.002 A 
ENDBRANCH  14  15
ENDBRANCH   7   9
ENDBRANCH   1   7
BRANCH   5  24
ATOM     24  O   UNL     1       1.008  44.449  57.564  1.00  0.00    -0.386 OA
ATOM     25  H   UNL     1       1.996  44.473  57.472  1.00  0.00     0.211 HD
ENDBRANCH   5  24
BRANCH   5  26
ATOM     26  C   UNL     1       0.809  46.782  58.116  1.00  0.00     0.193 C 
BRANCH  26  27
ATOM     27  O   UNL     1       1.944  46.463  58.874  1.00  0.00    -0.393 OA
ATOM     28  H   UNL     1       2.412  45.741  58.381  1.00  0.00     0.210 HD
ENDBRANCH  26  27
ENDBRANCH   5  26
TORSDOF 6
ENDMDL
MODEL 2
REMARK VINA RESULT:    -8.576      2.204      3.366
REMARK INTER + INTRA:         -11.851
REMARK INTER:                 -11.118
REMARK INTRA:                  -0.733
REMARK UNBOUND:                -0.769
REMARK SMILES O=C(c1ccc(-n2cnc3ccccc32)cc1)N1CCC[C@](O)(CO)C1
REMARK SMILES IDX 18 1 19 2 20 3 21 4 22 5 26 6 2 7 1 8 3 9 4 10 17 11 5 12
REMARK SMILES IDX 16 13 6 14 7 15 8 16 15 17 9 18 14 19 10 20 13 21 11 22
REMARK SMILES IDX 12 23 23 24 24 26 25 27
REMARK H PARENT 23 25 25 28
ROOT
ATOM      1  N   UNL     1       0.167  43.770  51.681  1.00  0.00    -0.336 N 
ATOM      2  C   UNL     1      -1.004  43.600  50.811  1.00  0.00     0.120 C 
ATOM      3  C   UNL     1      -2.041  44.714  51.038  1.00  0.00     0.025 C 
ATOM      4  C   UNL     1      -2.036  45.286  52.471  1.00  0.00     0.041 C 
ATOM      5  C   UNL     1      -1.472  44.291  53.509  1.00  0.00     0.105 C 
ATOM      6  C   UNL     1      -0.002  43.960  53.130  1.00  0.00     0.157 C 
ENDROOT
BRANCH   1   7
ATOM      7  C   UNL     1       1.489  43.527  51.167  1.00  0.00     0.253 C 
ATOM      8  O   UNL     1       1.645  42.693  50.233  1.00  0.00    -0.269 OA
BRANCH   7   9
ATOM      9  C   UNL     1       2.673  44.217  51.731  1.00  0.00     0.040 A 
ATOM     10  C   UNL     1       2.947  45.553  51.399  1.00  0.00     0.016 A 
ATOM     11  C   UNL     1       3.522  43.549  52.628  1.00  0.00     0.016 A 
ATOM     12  C   UNL     1       4.059  46.205  51.940  1.00  0.00     0.027 A 
ATOM     13  C   UNL     1       4.635  44.200  53.168  1.00  0.00     0.027 A 
ATOM     14  C   UNL     1       4.905  45.537  52.838  1.00  0.00     0.047 A 
BRANCH  14  15
ATOM     15  N   UNL     1       6.060  46.195  53.386  1.00  0.00    -0.299 N 
ATOM     16  C   UNL     1       6.131  46.847  54.574  1.00  0.00     0.205 A 
ATOM     17  C   UNL     1       7.296  46.311  52.868  1.00  0.00     0.073 A 
ATOM     18  N   UNL     1       7.361  47.360  54.834  1.00  0.00    -0.236 NA
ATOM     19  C   UNL     1       7.785  45.889  51.628  1.00  0.00     0.029 A 
ATOM     20  C   UNL     1       8.073  47.010  53.748  1.00  0.00     0.089 A 
ATOM     21  C   UNL     1       9.129  46.175  51.326  1.00  0.00     0.002 A 
ATOM     22  C   UNL     1       9.406  47.311  53.475  1.00  0.00     0.030 A 
ATOM     23  C   UNL     1       9.937  46.879  52.246  1.00  0.00     0.002 A 
ENDBRANCH  14  15
ENDBRANCH   7   9
ENDBRANCH   1   7
BRANCH   5  24
ATOM     24  O   UNL     1      -2.260  43.122  53.473  1.00  0.00    -0.386 OA
ATOM     25  H   UNL     1      -2.978  43.214  54.154  1.00  0.00     0.211 HD
ENDBRANCH   5  24
BRANCH   5  26
ATOM     26  C   UNL     1      -1.549  44.900  54.930  1.00  0.00     0.193 C 
BRANCH  26  27
ATOM     27  O   UNL     1      -0.406  45.658  55.219  1.00  0.00    -0.393 OA
ATOM     28  H   UNL     1      -0.358  45.719  56.208  1.00  0.00     0.210 HD
ENDBRANCH  26  27
ENDBRANCH   5  26
TORSDOF 6
ENDMDL
MODEL 3
REMARK VINA RESULT:    -8.429      2.271      3.259
REMARK INTER + INTRA:         -11.661
REMARK INTER:                 -10.986
REMARK INTRA:                  -0.675
REMARK UNBOUND:                -0.769
REMARK SMILES O=C(c1ccc(-n2cnc3ccccc32)cc1)N1CCC[C@](O)(CO)C1
REMARK SMILES IDX 18 1 19 2 20 3 21 4 22 5 26 6 2 7 1 8 3 9 4 10 17 11 5 12
REMARK SMILES IDX 16 13 6 14 7 15 8 16 15 17 9 18 14 19 10 20 13 21 11 22
REMARK SMILES IDX 12 23 23 24 24 26 25 27
REMARK H PARENT 23 25 25 28
ROOT
ATOM      1  N   UNL     1       0.362  44.245  52.427  1.00  0.00    -0.336 N 
ATOM      2  C   UNL     1       0.845  45.049  53.557  1.00  0.00     0.120 C 
ATOM      3  C   UNL     1       0.244  44.568  54.889  1.00  0.00     0.025 C 
ATOM      4  C   UNL     1      -1.153  43.930  54.748  1.00  0.00     0.041 C 
ATOM      5  C   UNL     1      -1.906  44.417  53.489  1.00  0.00     0.105 C 
ATOM      6  C   UNL     1      -1.079  44.022  52.234  1.00  0.00     0.157 C 
ENDROOT
BRANCH   1   7
ATOM      7  C   UNL     1       1.266  43.860  51.376  1.00  0.00     0.253 C 
ATOM      8  O   UNL     1       0.848  43.119  50.444  1.00  0.00    -0.269 OA
BRANCH   7   9
ATOM      9  C   UNL     1       2.682  44.294  51.380  1.00  0.00     0.040 A 
ATOM     10  C   UNL     1       3.044  45.559  50.890  1.00  0.00     0.016 A 
ATOM     11  C   UNL     1       3.679  43.454  51.902  1.00  0.00     0.016 A 
ATOM     12  C   UNL     1       4.380  45.970  50.905  1.00  0.00     0.027 A 
ATOM     13  C   UNL     1       5.015  43.865  51.916  1.00  0.00     0.027 A 
ATOM     14  C   UNL     1       5.374  45.130  51.428  1.00  0.00     0.047 A 
BRANCH  14  15
ATOM     15  N   UNL     1       6.752  45.540  51.431  1.00  0.00    -0.299 N 
ATOM     16  C   UNL     1       7.652  45.360  50.432  1.00  0.00     0.205 A 
ATOM     17  C   UNL     1       7.446  46.178  52.392  1.00  0.00     0.073 A 
ATOM     18  N   UNL     1       8.880  45.866  50.714  1.00  0.00    -0.236 NA
ATOM     19  C   UNL     1       7.045  46.556  53.677  1.00  0.00     0.029 A 
ATOM     20  C   UNL     1       8.724  46.373  51.951  1.00  0.00     0.089 A 
ATOM     21  C   UNL     1       7.997  47.187  54.498  1.00  0.00     0.002 A 
ATOM     22  C   UNL     1       9.690  46.992  52.741  1.00  0.00     0.030 A 
ATOM     23  C   UNL     1       9.312  47.407  54.032  1.00  0.00     0.002 A 
ENDBRANCH  14  15
ENDBRANCH   7   9
ENDBRANCH   1   7
BRANCH   5  24
ATOM     24  O   UNL     1      -2.036  45.819  53.567  1.00  0.00    -0.386 OA
ATOM     25  H   UNL     1      -2.077  46.072  54.527  1.00  0.00     0.211 HD
ENDBRANCH   5  24
BRANCH   5  26
ATOM     26  C   UNL     1      -3.320  43.788  53.437  1.00  0.00     0.193 C 
BRANCH  26  27
ATOM     27  O   UNL     1      -3.342  42.660  52.604  1.00  0.00    -0.393 OA
ATOM     28  H   UNL     1      -2.612  42.788  51.945  1.00  0.00     0.210 HD
ENDBRANCH  26  27
ENDBRANCH   5  26
TORSDOF 6
ENDMDL
MODEL 4
REMARK VINA RESULT:    -8.297      1.967      3.740
REMARK INTER + INTRA:         -11.491
REMARK INTER:                 -10.719
REMARK INTRA:                  -0.773
REMARK UNBOUND:                -0.769
REMARK SMILES O=C(c1ccc(-n2cnc3ccccc32)cc1)N1CCC[C@](O)(CO)C1
REMARK SMILES IDX 18 1 19 2 20 3 21 4 22 5 26 6 2 7 1 8 3 9 4 10 17 11 5 12
REMARK SMILES IDX 16 13 6 14 7 15 8 16 15 17 9 18 14 19 10 20 13 21 11 22
REMARK SMILES IDX 12 23 23 24 24 26 25 27
REMARK H PARENT 23 25 25 28
ROOT
ATOM      1  N   UNL     1       0.018  44.335  53.501  1.00  0.00    -0.336 N 
ATOM      2  C   UNL     1      -0.253  42.934  53.845  1.00  0.00     0.120 C 
ATOM      3  C   UNL     1      -0.496  42.081  52.588  1.00  0.00     0.025 C 
ATOM      4  C   UNL     1      -1.099  42.870  51.407  1.00  0.00     0.041 C 
ATOM      5  C   UNL     1      -1.873  44.127  51.863  1.00  0.00     0.105 C 
ATOM      6  C   UNL     1      -0.888  45.072  52.606  1.00  0.00     0.157 C 
ENDROOT
BRANCH   1   7
ATOM      7  C   UNL     1       1.036  45.068  54.205  1.00  0.00     0.253 C 
ATOM      8  O   UNL     1       0.760  45.597  55.317  1.00  0.00    -0.269 OA
BRANCH   7   9
ATOM      9  C   UNL     1       2.395  45.236  53.639  1.00  0.00     0.040 A 
ATOM     10  C   UNL     1       2.892  46.515  53.339  1.00  0.00     0.016 A 
ATOM     11  C   UNL     1       3.216  44.118  53.421  1.00  0.00     0.016 A 
ATOM     12  C   UNL     1       4.178  46.672  52.815  1.00  0.00     0.027 A 
ATOM     13  C   UNL     1       4.502  44.274  52.897  1.00  0.00     0.027 A 
ATOM     14  C   UNL     1       4.997  45.553  52.600  1.00  0.00     0.047 A 
BRANCH  14  15
ATOM     15  N   UNL     1       6.315  45.705  52.047  1.00  0.00    -0.299 N 
ATOM     16  C   UNL     1       6.717  45.343  50.802  1.00  0.00     0.205 A 
ATOM     17  C   UNL     1       7.419  46.227  52.613  1.00  0.00     0.073 A 
ATOM     18  N   UNL     1       8.022  45.623  50.553  1.00  0.00    -0.236 NA
ATOM     19  C   UNL     1       7.613  46.700  53.914  1.00  0.00     0.029 A 
ATOM     20  C   UNL     1       8.439  46.177  51.706  1.00  0.00     0.089 A 
ATOM     21  C   UNL     1       8.896  47.165  54.255  1.00  0.00     0.002 A 
ATOM     22  C   UNL     1       9.722  46.627  52.015  1.00  0.00     0.030 A 
ATOM     23  C   UNL     1       9.945  47.132  53.309  1.00  0.00     0.002 A 
ENDBRANCH  14  15
ENDBRANCH   7   9
ENDBRANCH   1   7
BRANCH   5  24
ATOM     24  O   UNL     1      -2.906  43.719  52.731  1.00  0.00    -0.386 OA
ATOM     25  H   UNL     1      -3.527  43.136  52.219  1.00  0.00     0.211 HD
ENDBRANCH   5  24
BRANCH   5  26
ATOM     26  C   UNL     1      -2.502  44.839  50.640  1.00  0.00     0.193 C 
BRANCH  26  27
ATOM     27  O   UNL     1      -1.914  44.405  49.444  1.00  0.00    -0.393 OA
ATOM     28  H   UNL     1      -1.225  43.739  49.700  1.00  0.00     0.210 HD
ENDBRANCH  26  27
ENDBRANCH   5  26
TORSDOF 6
ENDMDL
MODEL 5
REMARK VINA RESULT:    -8.282      3.010      7.974
REMARK INTER + INTRA:         -11.472
REMARK INTER:                 -10.881
REMARK INTRA:                  -0.591
REMARK UNBOUND:                -0.769
REMARK SMILES O=C(c1ccc(-n2cnc3ccccc32)cc1)N1CCC[C@](O)(CO)C1
REMARK SMILES IDX 18 1 19 2 20 3 21 4 22 5 26 6 2 7 1 8 3 9 4 10 17 11 5 12
REMARK SMILES IDX 16 13 6 14 7 15 8 16 15 17 9 18 14 19 10 20 13 21 11 22
REMARK SMILES IDX 12 23 23 24 24 26 25 27
REMARK H PARENT 23 25 25 28
ROOT
ATOM      1  N   UNL     1       7.489  45.921  51.586  1.00  0.00    -0.336 N 
ATOM      2  C   UNL     1       8.614  46.430  50.791  1.00  0.00     0.120 C 
ATOM      3  C   UNL     1       9.919  46.446  51.607  1.00  0.00     0.025 C 
ATOM      4  C   UNL     1       9.704  46.638  53.123  1.00  0.00     0.041 C 
ATOM      5  C   UNL     1       8.373  47.351  53.450  1.00  0.00     0.105 C 
ATOM      6  C   UNL     1       7.201  46.483  52.915  1.00  0.00     0.157 C 
ENDROOT
BRANCH   1   7
ATOM      7  C   UNL     1       6.526  45.036  50.989  1.00  0.00     0.253 C 
ATOM      8  O   UNL     1       6.878  44.298  50.028  1.00  0.00    -0.269 OA
BRANCH   7   9
ATOM      9  C   UNL     1       5.122  44.992  51.462  1.00  0.00     0.040 A 
ATOM     10  C   UNL     1       4.234  46.037  51.163  1.00  0.00     0.016 A 
ATOM     11  C   UNL     1       4.656  43.888  52.194  1.00  0.00     0.016 A 
ATOM     12  C   UNL     1       2.907  45.987  51.602  1.00  0.00     0.027 A 
ATOM     13  C   UNL     1       3.330  43.839  52.634  1.00  0.00     0.027 A 
ATOM     14  C   UNL     1       2.442  44.883  52.332  1.00  0.00     0.047 A 
BRANCH  14  15
ATOM     15  N   UNL     1       1.084  44.833  52.800  1.00  0.00    -0.299 N 
ATOM     16  C   UNL     1      -0.030  44.702  52.037  1.00  0.00     0.205 A 
ATOM     17  C   UNL     1       0.619  44.899  54.061  1.00  0.00     0.073 A 
ATOM     18  N   UNL     1      -1.179  44.670  52.762  1.00  0.00    -0.236 NA
ATOM     19  C   UNL     1       1.313  45.105  55.257  1.00  0.00     0.029 A 
ATOM     20  C   UNL     1      -0.743  44.797  54.029  1.00  0.00     0.089 A 
ATOM     21  C   UNL     1       0.562  45.166  56.445  1.00  0.00     0.002 A 
ATOM     22  C   UNL     1      -1.515  44.856  55.187  1.00  0.00     0.030 A 
ATOM     23  C   UNL     1      -0.845  45.037  56.412  1.00  0.00     0.002 A 
ENDBRANCH  14  15
ENDBRANCH   7   9
ENDBRANCH   1   7
BRANCH   5  24
ATOM     24  O   UNL     1       8.379  48.609  52.814  1.00  0.00    -0.386 OA
ATOM     25  H   UNL     1       8.143  49.298  53.490  1.00  0.00     0.211 HD
ENDBRANCH   5  24
BRANCH   5  26
ATOM     26  C   UNL     1       8.245  47.566  54.978  1.00  0.00     0.193 C 
BRANCH  26  27
ATOM     27  O   UNL     1       9.037  48.640  55.407  1.00  0.00    -0.393 OA
ATOM     28  H   UNL     1       9.038  48.605  56.398  1.00  0.00     0.210 HD
ENDBRANCH  26  27
ENDBRANCH   5  26
TORSDOF 6
ENDMDL
