ligand_72_conformer_1_docked
     RDKit          3D

 54 56  0  0  0  0  0  0  0  0999 V2000
   10.7230   47.7210   56.1630 C   0  0  0  0  0  0  0  0  0  0  0  0
   10.6760   47.3860   54.7800 O   0  0  0  0  0  0  0  0  0  0  0  0
    9.4940   47.1600   54.0600 C   0  0  0  0  0  0  0  0  0  0  0  0
    8.3070   46.9700   54.7750 C   0  0  0  0  0  0  0  0  0  0  0  0
    7.1010   46.7530   54.1040 C   0  0  0  0  0  0  0  0  0  0  0  0
    7.0620   46.7110   52.7010 C   0  0  0  0  0  0  0  0  0  0  0  0
    5.7380   46.5230   51.9910 C   0  0  2  0  0  0  0  0  0  0  0  0
    4.7470   45.9110   52.8820 N   0  0  0  0  0  0  0  0  0  0  0  0
    3.4740   46.5210   53.1500 C   0  0  0  0  0  0  0  0  0  0  0  0
    3.2450   47.6960   52.7560 O   0  0  0  0  0  0  0  0  0  0  0  0
    2.4420   45.8050   53.9350 C   0  0  0  0  0  0  0  0  0  0  0  0
    2.3120   46.0980   55.3040 C   0  0  0  0  0  0  0  0  0  0  0  0
    1.3700   45.4290   56.0890 C   0  0  0  0  0  0  0  0  0  0  0  0
    0.5420   44.4640   55.5160 C   0  0  0  0  0  0  0  0  0  0  0  0
    0.6450   44.1730   54.1550 C   0  0  0  0  0  0  0  0  0  0  0  0
    1.5790   44.8440   53.3530 C   0  0  0  0  0  0  0  0  0  0  0  0
    1.5940   44.4820   51.5890 S   0  0  0  0  0  0  0  0  0  0  0  0
    1.9950   42.7170   51.8070 C   0  0  0  0  0  0  0  0  0  0  0  0
    3.4790   42.5440   51.6970 C   0  0  0  0  0  0  0  0  0  0  0  0
    4.2190   43.0680   52.5740 O   0  0  0  0  0  0  0  0  0  0  0  0
    4.0730   41.8770   50.5690 N   0  0  0  0  0  0  0  0  0  0  0  0
    5.4790   42.0040   50.2290 C   0  0  0  0  0  0  0  0  0  0  0  0
    5.6200   41.4000   48.8390 C   0  0  0  0  0  0  0  0  0  0  0  0
    4.3630   40.5640   48.6120 C   0  0  0  0  0  0  0  0  0  0  0  0
    3.3330   41.0750   49.6110 C   0  0  0  0  0  0  0  0  0  0  0  0
    5.9120   45.6830   50.7180 C   0  0  0  0  0  0  0  0  0  0  0  0
    4.6720   45.3450   50.2050 F   0  0  0  0  0  0  0  0  0  0  0  0
    6.6210   44.5240   50.9840 F   0  0  0  0  0  0  0  0  0  0  0  0
    8.2540   46.9100   51.9810 C   0  0  0  0  0  0  0  0  0  0  0  0
    9.4610   47.1250   52.6530 C   0  0  0  0  0  0  0  0  0  0  0  0
   10.5951   46.8096   56.7656 H   0  0  0  0  0  0  0  0  0  0  0  0
   11.6945   48.1813   56.3960 H   0  0  0  0  0  0  0  0  0  0  0  0
    9.9157   48.4309   56.3960 H   0  0  0  0  0  0  0  0  0  0  0  0
    8.3232   46.9916   55.8747 H   0  0  0  0  0  0  0  0  0  0  0  0
    6.1741   46.6138   54.6797 H   0  0  0  0  0  0  0  0  0  0  0  0
    5.3689   47.5171   51.6985 H   0  0  0  0  0  0  0  0  0  0  0  0
    5.0110   45.0570   53.4230 H   0  0  0  0  0  0  0  0  0  0  0  0
    2.9584   46.8615   55.7613 H   0  0  0  0  0  0  0  0  0  0  0  0
    1.2812   45.6635   57.1600 H   0  0  0  0  0  0  0  0  0  0  0  0
   -0.1931   43.9317   56.1375 H   0  0  0  0  0  0  0  0  0  0  0  0
   -0.0113   43.4117   53.7082 H   0  0  0  0  0  0  0  0  0  0  0  0
    1.6556   42.3800   52.7976 H   0  0  0  0  0  0  0  0  0  0  0  0
    1.4899   42.1198   51.0336 H   0  0  0  0  0  0  0  0  0  0  0  0
    5.7777   43.0626   50.2198 H   0  0  0  0  0  0  0  0  0  0  0  0
    6.1225   41.4946   50.9614 H   0  0  0  0  0  0  0  0  0  0  0  0
    5.6915   42.1953   48.0825 H   0  0  0  0  0  0  0  0  0  0  0  0
    6.5303   40.7880   48.7569 H   0  0  0  0  0  0  0  0  0  0  0  0
    3.9964   40.6966   47.5834 H   0  0  0  0  0  0  0  0  0  0  0  0
    4.5619   39.4912   48.7515 H   0  0  0  0  0  0  0  0  0  0  0  0
    2.5767   41.6894   49.1006 H   0  0  0  0  0  0  0  0  0  0  0  0
    2.8009   40.2471   50.1023 H   0  0  0  0  0  0  0  0  0  0  0  0
    6.4714   46.2839   49.9860 H   0  0  0  0  0  0  0  0  0  0  0  0
    8.2363   46.8964   50.8812 H   0  0  0  0  0  0  0  0  0  0  0  0
   10.3890   47.2674   52.0798 H   0  0  0  0  0  0  0  0  0  0  0  0
  1  2  1  0
  2  3  1  0
  3  4  2  0
  4  5  1  0
  5  6  2  0
  6  7  1  0
  7  8  1  0
  8  9  1  0
  9 10  2  0
  9 11  1  0
 11 12  2  0
 12 13  1  0
 13 14  2  0
 14 15  1  0
 15 16  2  0
 16 17  1  0
 17 18  1  0
 18 19  1  0
 19 20  2  0
 19 21  1  0
 21 22  1  0
 22 23  1  0
 23 24  1  0
 24 25  1  0
  7 26  1  0
 26 27  1  0
 26 28  1  0
  6 29  1  0
 29 30  2  0
 30  3  1  0
 16 11  1  0
 25 21  1  0
  1 31  1  0
  1 32  1  0
  1 33  1  0
  4 34  1  0
  5 35  1  0
  7 36  1  6
  8 37  1  0
 12 38  1  0
 13 39  1  0
 14 40  1  0
 15 41  1  0
 18 42  1  0
 18 43  1  0
 22 44  1  0
 22 45  1  0
 23 46  1  0
 23 47  1  0
 24 48  1  0
 24 49  1  0
 25 50  1  0
 25 51  1  0
 26 52  1  0
 29 53  1  0
 30 54  1  0
M  END
>  <meeko>  (1) 
{"is_sidechain": [false], "free_energy": -8.464, "intermolecular_energy": -12.422, "internal_energy": -1.785}

$$$$
ligand_72_conformer_1_docked
     RDKit          3D

 54 56  0  0  0  0  0  0  0  0999 V2000
   -3.0270   43.1770   57.2430 C   0  0  0  0  0  0  0  0  0  0  0  0
   -2.5730   43.2860   55.8980 O   0  0  0  0  0  0  0  0  0  0  0  0
   -1.3320   43.8180   55.5210 C   0  0  0  0  0  0  0  0  0  0  0  0
   -0.7780   43.4110   54.3030 C   0  0  0  0  0  0  0  0  0  0  0  0
    0.4510   43.9200   53.8760 C   0  0  0  0  0  0  0  0  0  0  0  0
    1.1550   44.8420   54.6670 C   0  0  0  0  0  0  0  0  0  0  0  0
    2.4620   45.4200   54.1650 C   0  0  2  0  0  0  0  0  0  0  0  0
    3.2230   44.4190   53.4100 N   0  0  0  0  0  0  0  0  0  0  0  0
    3.2210   44.3740   51.9750 C   0  0  0  0  0  0  0  0  0  0  0  0
    2.4180   45.0970   51.3250 O   0  0  0  0  0  0  0  0  0  0  0  0
    4.1150   43.4460   51.2450 C   0  0  0  0  0  0  0  0  0  0  0  0
    3.8230   42.0710   51.2680 C   0  0  0  0  0  0  0  0  0  0  0  0
    4.6530   41.1570   50.6160 C   0  0  0  0  0  0  0  0  0  0  0  0
    5.7810   41.6030   49.9280 C   0  0  0  0  0  0  0  0  0  0  0  0
    6.0760   42.9670   49.8790 C   0  0  0  0  0  0  0  0  0  0  0  0
    5.2460   43.8970   50.5200 C   0  0  0  0  0  0  0  0  0  0  0  0
    5.6370   45.6460   50.3400 S   0  0  0  0  0  0  0  0  0  0  0  0
    7.2540   45.5180   51.1730 C   0  0  0  0  0  0  0  0  0  0  0  0
    7.0930   45.9370   52.6030 C   0  0  0  0  0  0  0  0  0  0  0  0
    5.9460   45.8870   53.1260 O   0  0  0  0  0  0  0  0  0  0  0  0
    8.1940   46.4790   53.3530 N   0  0  0  0  0  0  0  0  0  0  0  0
    8.0180   47.2290   54.5830 C   0  0  0  0  0  0  0  0  0  0  0  0
    9.3720   47.8570   54.8790 C   0  0  0  0  0  0  0  0  0  0  0  0
   10.3860   47.0930   54.0300 C   0  0  0  0  0  0  0  0  0  0  0  0
    9.5830   46.4070   52.9330 C   0  0  0  0  0  0  0  0  0  0  0  0
    3.3000   45.9730   55.3260 C   0  0  0  0  0  0  0  0  0  0  0  0
    3.8900   47.1670   54.9520 F   0  0  0  0  0  0  0  0  0  0  0  0
    4.2890   45.0760   55.6940 F   0  0  0  0  0  0  0  0  0  0  0  0
    0.5940   45.2580   55.8890 C   0  0  0  0  0  0  0  0  0  0  0  0
   -0.6340   44.7460   56.3160 C   0  0  0  0  0  0  0  0  0  0  0  0
   -2.1913   43.3777   57.9295 H   0  0  0  0  0  0  0  0  0  0  0  0
   -3.8299   43.9079   57.4193 H   0  0  0  0  0  0  0  0  0  0  0  0
   -3.4106   42.1612   57.4193 H   0  0  0  0  0  0  0  0  0  0  0  0
   -1.3146   42.6838   53.6758 H   0  0  0  0  0  0  0  0  0  0  0  0
    0.8705   43.5958   52.9122 H   0  0  0  0  0  0  0  0  0  0  0  0
    2.2231   46.2526   53.4871 H   0  0  0  0  0  0  0  0  0  0  0  0
    3.7000   43.6470   53.9300 H   0  0  0  0  0  0  0  0  0  0  0  0
    2.9324   41.7119   51.8046 H   0  0  0  0  0  0  0  0  0  0  0  0
    4.4167   40.0831   50.6451 H   0  0  0  0  0  0  0  0  0  0  0  0
    6.4388   40.8799   49.4236 H   0  0  0  0  0  0  0  0  0  0  0  0
    6.9660   43.3141   49.3336 H   0  0  0  0  0  0  0  0  0  0  0  0
    7.6112   44.4785   51.1299 H   0  0  0  0  0  0  0  0  0  0  0  0
    7.9859   46.1687   50.6722 H   0  0  0  0  0  0  0  0  0  0  0  0
    7.2540   48.0092   54.4506 H   0  0  0  0  0  0  0  0  0  0  0  0
    7.6805   46.5837   55.4075 H   0  0  0  0  0  0  0  0  0  0  0  0
    9.3678   48.9218   54.6031 H   0  0  0  0  0  0  0  0  0  0  0  0
    9.6177   47.7981   55.9496 H   0  0  0  0  0  0  0  0  0  0  0  0
   11.1173   47.7875   53.5909 H   0  0  0  0  0  0  0  0  0  0  0  0
   10.9487   46.3649   54.6326 H   0  0  0  0  0  0  0  0  0  0  0  0
    9.7206   46.9290   51.9746 H   0  0  0  0  0  0  0  0  0  0  0  0
    9.9072   45.3663   52.7854 H   0  0  0  0  0  0  0  0  0  0  0  0
    2.6302   46.1361   56.1832 H   0  0  0  0  0  0  0  0  0  0  0  0
    1.1262   45.9916   56.5124 H   0  0  0  0  0  0  0  0  0  0  0  0
   -1.0572   45.0699   57.2783 H   0  0  0  0  0  0  0  0  0  0  0  0
  1  2  1  0
  2  3  1  0
  3  4  2  0
  4  5  1  0
  5  6  2  0
  6  7  1  0
  7  8  1  0
  8  9  1  0
  9 10  2  0
  9 11  1  0
 11 12  2  0
 12 13  1  0
 13 14  2  0
 14 15  1  0
 15 16  2  0
 16 17  1  0
 17 18  1  0
 18 19  1  0
 19 20  2  0
 19 21  1  0
 21 22  1  0
 22 23  1  0
 23 24  1  0
 24 25  1  0
  7 26  1  0
 26 27  1  0
 26 28  1  0
  6 29  1  0
 29 30  2  0
 30  3  1  0
 16 11  1  0
 25 21  1  0
  1 31  1  0
  1 32  1  0
  1 33  1  0
  4 34  1  0
  5 35  1  0
  7 36  1  6
  8 37  1  0
 12 38  1  0
 13 39  1  0
 14 40  1  0
 15 41  1  0
 18 42  1  0
 18 43  1  0
 22 44  1  0
 22 45  1  0
 23 46  1  0
 23 47  1  0
 24 48  1  0
 24 49  1  0
 25 50  1  0
 25 51  1  0
 26 52  1  0
 29 53  1  0
 30 54  1  0
M  END
>  <meeko>  (2) 
{"is_sidechain": [false], "free_energy": -8.229, "intermolecular_energy": -12.514, "internal_energy": -1.348}

$$$$
ligand_72_conformer_1_docked
     RDKit          3D

 54 56  0  0  0  0  0  0  0  0999 V2000
   -1.2730   42.7750   51.7860 C   0  0  0  0  0  0  0  0  0  0  0  0
   -0.0180   43.1600   51.2360 O   0  0  0  0  0  0  0  0  0  0  0  0
    0.9590   43.8930   51.9260 C   0  0  0  0  0  0  0  0  0  0  0  0
    0.7800   45.2740   52.0590 C   0  0  0  0  0  0  0  0  0  0  0  0
    1.7180   46.0470   52.7470 C   0  0  0  0  0  0  0  0  0  0  0  0
    2.8610   45.4530   53.3060 C   0  0  0  0  0  0  0  0  0  0  0  0
    3.8430   46.3010   54.0900 C   0  0  2  0  0  0  0  0  0  0  0  0
    5.2200   46.0500   53.6520 N   0  0  0  0  0  0  0  0  0  0  0  0
    6.0970   47.1060   53.2310 C   0  0  0  0  0  0  0  0  0  0  0  0
    5.6430   48.2710   53.0640 O   0  0  0  0  0  0  0  0  0  0  0  0
    7.5230   46.8340   52.9380 C   0  0  0  0  0  0  0  0  0  0  0  0
    8.4770   47.0880   53.9400 C   0  0  0  0  0  0  0  0  0  0  0  0
    9.8350   46.8710   53.7000 C   0  0  0  0  0  0  0  0  0  0  0  0
   10.2580   46.3930   52.4590 C   0  0  0  0  0  0  0  0  0  0  0  0
    9.3230   46.1180   51.4600 C   0  0  0  0  0  0  0  0  0  0  0  0
    7.9560   46.3210   51.6910 C   0  0  0  0  0  0  0  0  0  0  0  0
    6.8000   45.8610   50.3880 S   0  0  0  0  0  0  0  0  0  0  0  0
    6.5270   44.1760   51.0270 C   0  0  0  0  0  0  0  0  0  0  0  0
    6.6960   43.2020   49.9000 C   0  0  0  0  0  0  0  0  0  0  0  0
    7.7000   43.3130   49.1450 O   0  0  0  0  0  0  0  0  0  0  0  0
    5.6940   42.2110   49.6110 N   0  0  0  0  0  0  0  0  0  0  0  0
    5.6230   41.5070   48.3440 C   0  0  0  0  0  0  0  0  0  0  0  0
    4.2800   40.7920   48.3450 C   0  0  0  0  0  0  0  0  0  0  0  0
    3.8140   40.7710   49.8000 C   0  0  0  0  0  0  0  0  0  0  0  0
    4.6070   41.8610   50.5090 C   0  0  0  0  0  0  0  0  0  0  0  0
    3.7010   46.0520   55.5970 C   0  0  0  0  0  0  0  0  0  0  0  0
    4.5630   45.0430   55.9900 F   0  0  0  0  0  0  0  0  0  0  0  0
    2.4040   45.6880   55.9190 F   0  0  0  0  0  0  0  0  0  0  0  0
    3.0370   44.0630   53.1790 C   0  0  0  0  0  0  0  0  0  0  0  0
    2.0990   43.2900   52.4890 C   0  0  0  0  0  0  0  0  0  0  0  0
   -1.2132   42.7934   52.8842 H   0  0  0  0  0  0  0  0  0  0  0  0
   -2.0513   43.4757   51.4494 H   0  0  0  0  0  0  0  0  0  0  0  0
   -1.5245   41.7584   51.4494 H   0  0  0  0  0  0  0  0  0  0  0  0
   -0.1060   45.7546   51.6185 H   0  0  0  0  0  0  0  0  0  0  0  0
    1.5600   47.1305   52.8519 H   0  0  0  0  0  0  0  0  0  0  0  0
    3.6081   47.3574   53.8929 H   0  0  0  0  0  0  0  0  0  0  0  0
    5.5440   45.0620   53.5410 H   0  0  0  0  0  0  0  0  0  0  0  0
    8.1500   47.4611   54.9218 H   0  0  0  0  0  0  0  0  0  0  0  0
   10.5723   47.0770   54.4899 H   0  0  0  0  0  0  0  0  0  0  0  0
   11.3294   46.2328   52.2680 H   0  0  0  0  0  0  0  0  0  0  0  0
    9.6616   45.7392   50.4844 H   0  0  0  0  0  0  0  0  0  0  0  0
    7.2589   43.9571   51.8185 H   0  0  0  0  0  0  0  0  0  0  0  0
    5.5130   44.0932   51.4454 H   0  0  0  0  0  0  0  0  0  0  0  0
    5.6783   42.2180   47.5065 H   0  0  0  0  0  0  0  0  0  0  0  0
    6.4584   40.8015   48.2242 H   0  0  0  0  0  0  0  0  0  0  0  0
    3.5568   41.3365   47.7201 H   0  0  0  0  0  0  0  0  0  0  0  0
    4.3652   39.7749   47.9349 H   0  0  0  0  0  0  0  0  0  0  0  0
    2.7361   40.9821   49.8595 H   0  0  0  0  0  0  0  0  0  0  0  0
    3.9788   39.7866   50.2623 H   0  0  0  0  0  0  0  0  0  0  0  0
    3.9691   42.7372   50.6973 H   0  0  0  0  0  0  0  0  0  0  0  0
    4.9834   41.5173   51.4838 H   0  0  0  0  0  0  0  0  0  0  0  0
    3.9499   46.9862   56.1217 H   0  0  0  0  0  0  0  0  0  0  0  0
    3.9191   43.5811   53.6259 H   0  0  0  0  0  0  0  0  0  0  0  0
    2.2526   42.2057   52.3856 H   0  0  0  0  0  0  0  0  0  0  0  0
  1  2  1  0
  2  3  1  0
  3  4  2  0
  4  5  1  0
  5  6  2  0
  6  7  1  0
  7  8  1  0
  8  9  1  0
  9 10  2  0
  9 11  1  0
 11 12  2  0
 12 13  1  0
 13 14  2  0
 14 15  1  0
 15 16  2  0
 16 17  1  0
 17 18  1  0
 18 19  1  0
 19 20  2  0
 19 21  1  0
 21 22  1  0
 22 23  1  0
 23 24  1  0
 24 25  1  0
  7 26  1  0
 26 27  1  0
 26 28  1  0
  6 29  1  0
 29 30  2  0
 30  3  1  0
 16 11  1  0
 25 21  1  0
  1 31  1  0
  1 32  1  0
  1 33  1  0
  4 34  1  0
  5 35  1  0
  7 36  1  1
  8 37  1  0
 12 38  1  0
 13 39  1  0
 14 40  1  0
 15 41  1  0
 18 42  1  0
 18 43  1  0
 22 44  1  0
 22 45  1  0
 23 46  1  0
 23 47  1  0
 24 48  1  0
 24 49  1  0
 25 50  1  0
 25 51  1  0
 26 52  1  0
 29 53  1  0
 30 54  1  0
M  END
>  <meeko>  (3) 
{"is_sidechain": [false], "free_energy": -8.205, "intermolecular_energy": -12.271, "internal_energy": -1.557}

$$$$
ligand_72_conformer_1_docked
     RDKit          3D

 54 56  0  0  0  0  0  0  0  0999 V2000
    0.9370   46.7330   58.3190 C   0  0  0  0  0  0  0  0  0  0  0  0
    0.0380   45.8830   57.6160 O   0  0  0  0  0  0  0  0  0  0  0  0
    0.3280   45.2610   56.3930 C   0  0  0  0  0  0  0  0  0  0  0  0
   -0.7020   44.5800   55.7350 C   0  0  0  0  0  0  0  0  0  0  0  0
   -0.4680   43.9540   54.5080 C   0  0  0  0  0  0  0  0  0  0  0  0
    0.8070   43.9880   53.9210 C   0  0  0  0  0  0  0  0  0  0  0  0
    1.0300   43.3450   52.5680 C   0  0  2  0  0  0  0  0  0  0  0  0
    2.2820   43.8120   51.9640 N   0  0  0  0  0  0  0  0  0  0  0  0
    3.4820   43.0240   51.9770 C   0  0  0  0  0  0  0  0  0  0  0  0
    3.5350   41.9700   52.6670 O   0  0  0  0  0  0  0  0  0  0  0  0
    4.6840   43.4620   51.2290 C   0  0  0  0  0  0  0  0  0  0  0  0
    5.3280   42.5380   50.3890 C   0  0  0  0  0  0  0  0  0  0  0  0
    6.4790   42.8990   49.6840 C   0  0  0  0  0  0  0  0  0  0  0  0
    6.9970   44.1880   49.8060 C   0  0  0  0  0  0  0  0  0  0  0  0
    6.3590   45.1240   50.6220 C   0  0  0  0  0  0  0  0  0  0  0  0
    5.1980   44.7780   51.3260 C   0  0  0  0  0  0  0  0  0  0  0  0
    4.3780   46.0620   52.2880 S   0  0  0  0  0  0  0  0  0  0  0  0
    5.7890   47.2150   52.2220 C   0  0  0  0  0  0  0  0  0  0  0  0
    6.5190   47.1580   53.5290 C   0  0  0  0  0  0  0  0  0  0  0  0
    5.8670   47.3190   54.5980 O   0  0  0  0  0  0  0  0  0  0  0  0
    7.9490   47.0190   53.5820 N   0  0  0  0  0  0  0  0  0  0  0  0
    8.7280   47.3260   54.7680 C   0  0  0  0  0  0  0  0  0  0  0  0
   10.1810   47.3320   54.3150 C   0  0  0  0  0  0  0  0  0  0  0  0
   10.2070   46.6060   52.9710 C   0  0  0  0  0  0  0  0  0  0  0  0
    8.7760   46.6360   52.4510 C   0  0  0  0  0  0  0  0  0  0  0  0
   -0.1560   43.6130   51.6310 C   0  0  0  0  0  0  0  0  0  0  0  0
    0.1110   43.0940   50.3760 F   0  0  0  0  0  0  0  0  0  0  0  0
   -0.3980   44.9720   51.5160 F   0  0  0  0  0  0  0  0  0  0  0  0
    1.8410   44.6790   54.5790 C   0  0  0  0  0  0  0  0  0  0  0  0
    1.6060   45.3040   55.8070 C   0  0  0  0  0  0  0  0  0  0  0  0
    0.7964   46.6000   59.4018 H   0  0  0  0  0  0  0  0  0  0  0  0
    1.9718   46.4754   58.0493 H   0  0  0  0  0  0  0  0  0  0  0  0
    0.7377   47.7806   58.0493 H   0  0  0  0  0  0  0  0  0  0  0  0
   -1.7038   44.5371   56.1872 H   0  0  0  0  0  0  0  0  0  0  0  0
   -1.2896   43.4301   53.9976 H   0  0  0  0  0  0  0  0  0  0  0  0
    1.1082   42.2585   52.7207 H   0  0  0  0  0  0  0  0  0  0  0  0
    2.3350   44.7920   51.6030 H   0  0  0  0  0  0  0  0  0  0  0  0
    4.9222   41.5208   50.2854 H   0  0  0  0  0  0  0  0  0  0  0  0
    6.9769   42.1660   49.0323 H   0  0  0  0  0  0  0  0  0  0  0  0
    7.9093   44.4676   49.2587 H   0  0  0  0  0  0  0  0  0  0  0  0
    6.7706   46.1401   50.7129 H   0  0  0  0  0  0  0  0  0  0  0  0
    6.4672   46.9234   51.4065 H   0  0  0  0  0  0  0  0  0  0  0  0
    5.4282   48.2379   52.0391 H   0  0  0  0  0  0  0  0  0  0  0  0
    8.4465   48.3115   55.1675 H   0  0  0  0  0  0  0  0  0  0  0  0
    8.5551   46.5922   55.5690 H   0  0  0  0  0  0  0  0  0  0  0  0
   10.5405   48.3650   54.1982 H   0  0  0  0  0  0  0  0  0  0  0  0
   10.8341   46.8402   55.0509 H   0  0  0  0  0  0  0  0  0  0  0  0
   10.8794   47.1226   52.2703 H   0  0  0  0  0  0  0  0  0  0  0  0
   10.5762   45.5752   53.0766 H   0  0  0  0  0  0  0  0  0  0  0  0
    8.6792   47.3723   51.6396 H   0  0  0  0  0  0  0  0  0  0  0  0
    8.4744   45.6602   52.0424 H   0  0  0  0  0  0  0  0  0  0  0  0
   -1.0459   43.1274   52.0579 H   0  0  0  0  0  0  0  0  0  0  0  0
    2.8413   44.7277   54.1239 H   0  0  0  0  0  0  0  0  0  0  0  0
    2.4247   45.8322   56.3177 H   0  0  0  0  0  0  0  0  0  0  0  0
  1  2  1  0
  2  3  1  0
  3  4  2  0
  4  5  1  0
  5  6  2  0
  6  7  1  0
  7  8  1  0
  8  9  1  0
  9 10  2  0
  9 11  1  0
 11 12  2  0
 12 13  1  0
 13 14  2  0
 14 15  1  0
 15 16  2  0
 16 17  1  0
 17 18  1  0
 18 19  1  0
 19 20  2  0
 19 21  1  0
 21 22  1  0
 22 23  1  0
 23 24  1  0
 24 25  1  0
  7 26  1  0
 26 27  1  0
 26 28  1  0
  6 29  1  0
 29 30  2  0
 30  3  1  0
 16 11  1  0
 25 21  1  0
  1 31  1  0
  1 32  1  0
  1 33  1  0
  4 34  1  0
  5 35  1  0
  7 36  1  1
  8 37  1  0
 12 38  1  0
 13 39  1  0
 14 40  1  0
 15 41  1  0
 18 42  1  0
 18 43  1  0
 22 44  1  0
 22 45  1  0
 23 46  1  0
 23 47  1  0
 24 48  1  0
 24 49  1  0
 25 50  1  0
 25 51  1  0
 26 52  1  0
 29 53  1  0
 30 54  1  0
M  END
>  <meeko>  (4) 
{"is_sidechain": [false], "free_energy": -7.897, "intermolecular_energy": -12.648, "internal_energy": -0.726}

$$$$
ligand_72_conformer_1_docked
     RDKit          3D

 54 56  0  0  0  0  0  0  0  0999 V2000
   -2.7190   43.3750   52.5750 C   0  0  0  0  0  0  0  0  0  0  0  0
   -1.5160   42.6800   52.8850 O   0  0  0  0  0  0  0  0  0  0  0  0
   -0.2660   43.2930   53.0550 C   0  0  0  0  0  0  0  0  0  0  0  0
   -0.2340   44.6310   53.4600 C   0  0  0  0  0  0  0  0  0  0  0  0
    0.9850   45.2850   53.6540 C   0  0  0  0  0  0  0  0  0  0  0  0
    2.1980   44.6120   53.4350 C   0  0  0  0  0  0  0  0  0  0  0  0
    3.5100   45.3230   53.6980 C   0  0  2  0  0  0  0  0  0  0  0  0
    4.5830   44.7680   52.8660 N   0  0  0  0  0  0  0  0  0  0  0  0
    4.8530   45.2460   51.5390 C   0  0  0  0  0  0  0  0  0  0  0  0
    4.0530   46.0490   50.9860 O   0  0  0  0  0  0  0  0  0  0  0  0
    6.0350   44.7670   50.7870 C   0  0  0  0  0  0  0  0  0  0  0  0
    7.1400   45.6250   50.6500 C   0  0  0  0  0  0  0  0  0  0  0  0
    8.2670   45.2250   49.9270 C   0  0  0  0  0  0  0  0  0  0  0  0
    8.3070   43.9620   49.3380 C   0  0  0  0  0  0  0  0  0  0  0  0
    7.2260   43.0900   49.4800 C   0  0  0  0  0  0  0  0  0  0  0  0
    6.0930   43.4740   50.2110 C   0  0  0  0  0  0  0  0  0  0  0  0
    4.7760   42.2650   50.4280 S   0  0  0  0  0  0  0  0  0  0  0  0
    5.3920   41.1460   49.1270 C   0  0  0  0  0  0  0  0  0  0  0  0
    4.2510   40.7850   48.2240 C   0  0  0  0  0  0  0  0  0  0  0  0
    3.2080   40.2870   48.7310 O   0  0  0  0  0  0  0  0  0  0  0  0
    4.3610   40.9060   46.7950 N   0  0  0  0  0  0  0  0  0  0  0  0
    3.4580   40.2390   45.8750 C   0  0  0  0  0  0  0  0  0  0  0  0
    4.0910   40.3860   44.4990 C   0  0  0  0  0  0  0  0  0  0  0  0
    5.1240   41.5040   44.6270 C   0  0  0  0  0  0  0  0  0  0  0  0
    5.4170   41.6360   46.1160 C   0  0  0  0  0  0  0  0  0  0  0  0
    3.8860   45.2510   55.1830 C   0  0  0  0  0  0  0  0  0  0  0  0
    3.8900   46.5230   55.7290 F   0  0  0  0  0  0  0  0  0  0  0  0
    5.1390   44.6850   55.3500 F   0  0  0  0  0  0  0  0  0  0  0  0
    2.1660   43.2640   53.0350 C   0  0  0  0  0  0  0  0  0  0  0  0
    0.9450   42.6110   52.8400 C   0  0  0  0  0  0  0  0  0  0  0  0
   -3.2244   43.6670   53.5074 H   0  0  0  0  0  0  0  0  0  0  0  0
   -2.4818   44.2752   51.9891 H   0  0  0  0  0  0  0  0  0  0  0  0
   -3.3804   42.7198   51.9891 H   0  0  0  0  0  0  0  0  0  0  0  0
   -1.1765   45.1730   53.6272 H   0  0  0  0  0  0  0  0  0  0  0  0
    0.9949   46.3353   53.9808 H   0  0  0  0  0  0  0  0  0  0  0  0
    3.3789   46.3814   53.4287 H   0  0  0  0  0  0  0  0  0  0  0  0
    5.1030   43.9270   53.2050 H   0  0  0  0  0  0  0  0  0  0  0  0
    7.1174   46.6210   51.1164 H   0  0  0  0  0  0  0  0  0  0  0  0
    9.1234   45.9073   49.8225 H   0  0  0  0  0  0  0  0  0  0  0  0
    9.1909   43.6523   48.7610 H   0  0  0  0  0  0  0  0  0  0  0  0
    7.2635   42.0939   49.0147 H   0  0  0  0  0  0  0  0  0  0  0  0
    6.1782   41.6507   48.5464 H   0  0  0  0  0  0  0  0  0  0  0  0
    5.8119   40.2369   49.5823 H   0  0  0  0  0  0  0  0  0  0  0  0
    3.3571   39.1760   46.1394 H   0  0  0  0  0  0  0  0  0  0  0  0
    2.4492   40.6763   45.9070 H   0  0  0  0  0  0  0  0  0  0  0  0
    4.5796   39.4466   44.2009 H   0  0  0  0  0  0  0  0  0  0  0  0
    3.3377   40.6198   43.7323 H   0  0  0  0  0  0  0  0  0  0  0  0
    6.0409   41.2419   44.0787 H   0  0  0  0  0  0  0  0  0  0  0  0
    4.7503   42.4484   44.2045 H   0  0  0  0  0  0  0  0  0  0  0  0
    6.3981   41.1988   46.3532 H   0  0  0  0  0  0  0  0  0  0  0  0
    5.4464   42.6897   46.4303 H   0  0  0  0  0  0  0  0  0  0  0  0
    3.1403   44.6237   55.6933 H   0  0  0  0  0  0  0  0  0  0  0  0
    3.1082   42.7195   52.8744 H   0  0  0  0  0  0  0  0  0  0  0  0
    0.9316   41.5595   52.5171 H   0  0  0  0  0  0  0  0  0  0  0  0
  1  2  1  0
  2  3  1  0
  3  4  2  0
  4  5  1  0
  5  6  2  0
  6  7  1  0
  7  8  1  0
  8  9  1  0
  9 10  2  0
  9 11  1  0
 11 12  2  0
 12 13  1  0
 13 14  2  0
 14 15  1  0
 15 16  2  0
 16 17  1  0
 17 18  1  0
 18 19  1  0
 19 20  2  0
 19 21  1  0
 21 22  1  0
 22 23  1  0
 23 24  1  0
 24 25  1  0
  7 26  1  0
 26 27  1  0
 26 28  1  0
  6 29  1  0
 29 30  2  0
 30  3  1  0
 16 11  1  0
 25 21  1  0
  1 31  1  0
  1 32  1  0
  1 33  1  0
  4 34  1  0
  5 35  1  0
  7 36  1  6
  8 37  1  0
 12 38  1  0
 13 39  1  0
 14 40  1  0
 15 41  1  0
 18 42  1  0
 18 43  1  0
 22 44  1  0
 22 45  1  0
 23 46  1  0
 23 47  1  0
 24 48  1  0
 24 49  1  0
 25 50  1  0
 25 51  1  0
 26 52  1  0
 29 53  1  0
 30 54  1  0
M  END
>  <meeko>  (5) 
{"is_sidechain": [false], "free_energy": -7.816, "intermolecular_energy": -12.072, "internal_energy": -1.184}

$$$$
