ligand_32_conformer_2_docked
     RDKit          3D

 42 45  0  0  0  0  0  0  0  0999 V2000
    6.3170   45.1440   51.8860 O   0  0  0  0  0  0  0  0  0  0  0  0
    6.4410   46.3970   51.9690 C   0  0  0  0  0  0  0  0  0  0  0  0
    5.4630   47.1880   52.6600 N   0  0  0  0  0  0  0  0  0  0  0  0
    4.2970   46.6490   53.3060 C   0  0  0  0  0  0  0  0  0  0  0  0
    4.3420   46.1570   54.6200 C   0  0  0  0  0  0  0  0  0  0  0  0
    3.1830   45.6620   55.2220 C   0  0  0  0  0  0  0  0  0  0  0  0
    1.9740   45.6740   54.5090 C   0  0  0  0  0  0  0  0  0  0  0  0
    0.7650   45.1710   55.1020 N   0  0  0  0  0  0  0  0  0  0  0  0
    0.3750   45.3520   56.3790 C   0  0  0  0  0  0  0  0  0  0  0  0
   -0.8360   44.7180   56.5580 C   0  0  0  0  0  0  0  0  0  0  0  0
   -1.1270   44.1620   55.3260 C   0  0  0  0  0  0  0  0  0  0  0  0
   -0.1400   44.4510   54.4570 N   0  0  0  0  0  0  0  0  0  0  0  0
    1.9510   46.1780   53.2440 N   0  0  0  0  0  0  0  0  0  0  0  0
    3.0660   46.6650   52.6390 C   0  0  0  0  0  0  0  0  0  0  0  0
    7.6300   47.0750   51.3460 C   0  0  1  0  0  0  0  0  0  0  0  0
    8.0090   48.4350   51.9280 C   0  0  0  0  0  0  0  0  0  0  0  0
    8.8870   47.2210   52.2120 C   0  0  1  0  0  0  0  0  0  0  0  0
    8.8610   46.7520   53.6870 C   0  0  0  0  0  0  0  0  0  0  0  0
    8.2700   47.8420   54.5900 C   0  0  0  0  0  0  0  0  0  0  0  0
    9.4400   48.4530   55.3380 C   0  0  0  0  0  0  0  0  0  0  0  0
   10.4580   47.3380   55.4580 C   0  0  0  0  0  0  0  0  0  0  0  0
   10.2840   46.4900   54.2060 C   0  0  0  0  0  0  0  0  0  0  0  0
    5.5420   48.2280   52.5880 H   0  0  0  0  0  0  0  0  0  0  0  0
    5.2911   46.1613   55.1761 H   0  0  0  0  0  0  0  0  0  0  0  0
    3.2174   45.2656   56.2475 H   0  0  0  0  0  0  0  0  0  0  0  0
    0.9287   45.9107   57.1479 H   0  0  0  0  0  0  0  0  0  0  0  0
   -1.4376   44.6660   57.4775 H   0  0  0  0  0  0  0  0  0  0  0  0
   -2.0266   43.5739   55.0918 H   0  0  0  0  0  0  0  0  0  0  0  0
    3.0012   47.0739   51.6199 H   0  0  0  0  0  0  0  0  0  0  0  0
    7.4250   46.6794   50.3403 H   0  0  0  0  0  0  0  0  0  0  0  0
    8.3738   49.2335   51.2652 H   0  0  0  0  0  0  0  0  0  0  0  0
    7.4954   49.1835   52.5492 H   0  0  0  0  0  0  0  0  0  0  0  0
    9.9359   46.9255   52.0621 H   0  0  0  0  0  0  0  0  0  0  0  0
    8.2547   45.8346   53.7159 H   0  0  0  0  0  0  0  0  0  0  0  0
    7.7642   48.6072   53.9829 H   0  0  0  0  0  0  0  0  0  0  0  0
    7.5240   47.4267   55.2835 H   0  0  0  0  0  0  0  0  0  0  0  0
    9.8591   49.2994   54.7741 H   0  0  0  0  0  0  0  0  0  0  0  0
    9.1408   48.8451   56.3212 H   0  0  0  0  0  0  0  0  0  0  0  0
   11.4765   47.7510   55.5038 H   0  0  0  0  0  0  0  0  0  0  0  0
   10.3095   46.7474   56.3741 H   0  0  0  0  0  0  0  0  0  0  0  0
   11.0240   46.7807   53.4458 H   0  0  0  0  0  0  0  0  0  0  0  0
   10.4332   45.4230   54.4279 H   0  0  0  0  0  0  0  0  0  0  0  0
  1  2  2  0
  2  3  1  0
  3  4  1  0
  4  5  2  0
  5  6  1  0
  6  7  2  0
  7  8  1  0
  8  9  1  0
  9 10  2  0
 10 11  1  0
 11 12  2  0
  7 13  1  0
 13 14  2  0
  2 15  1  0
 15 16  1  0
 16 17  1  0
 17 18  1  0
 18 19  1  0
 19 20  1  0
 20 21  1  0
 21 22  1  0
 14  4  1  0
 17 15  1  0
 22 18  1  0
 12  8  1  0
  3 23  1  0
  5 24  1  0
  6 25  1  0
  9 26  1  0
 10 27  1  0
 11 28  1  0
 14 29  1  0
 15 30  1  6
 16 31  1  0
 16 32  1  0
 17 33  1  6
 18 34  1  0
 19 35  1  0
 19 36  1  0
 20 37  1  0
 20 38  1  0
 21 39  1  0
 21 40  1  0
 22 41  1  0
 22 42  1  0
M  END
>  <meeko>  (1) 
{"is_sidechain": [false], "free_energy": -7.883, "intermolecular_energy": -9.726, "internal_energy": -0.632}

$$$$
ligand_32_conformer_2_docked
     RDKit          3D

 42 45  0  0  0  0  0  0  0  0999 V2000
    4.4470   45.7490   51.2820 O   0  0  0  0  0  0  0  0  0  0  0  0
    4.6890   45.1640   52.3740 C   0  0  0  0  0  0  0  0  0  0  0  0
    4.6910   43.7320   52.4560 N   0  0  0  0  0  0  0  0  0  0  0  0
    4.4350   42.8580   51.3440 C   0  0  0  0  0  0  0  0  0  0  0  0
    5.4660   42.4080   50.5060 C   0  0  0  0  0  0  0  0  0  0  0  0
    5.1800   41.5410   49.4490 C   0  0  0  0  0  0  0  0  0  0  0  0
    3.8600   41.1140   49.2420 C   0  0  0  0  0  0  0  0  0  0  0  0
    3.5360   40.2220   48.1620 N   0  0  0  0  0  0  0  0  0  0  0  0
    3.7220   40.4660   46.8500 C   0  0  0  0  0  0  0  0  0  0  0  0
    3.2860   39.3700   46.1370 C   0  0  0  0  0  0  0  0  0  0  0  0
    2.8400   38.4810   47.0970 C   0  0  0  0  0  0  0  0  0  0  0  0
    3.0010   39.0200   48.3200 N   0  0  0  0  0  0  0  0  0  0  0  0
    2.8800   41.5450   50.0830 N   0  0  0  0  0  0  0  0  0  0  0  0
    3.1350   42.3880   51.1180 C   0  0  0  0  0  0  0  0  0  0  0  0
    4.9900   45.9740   53.6060 C   0  0  1  0  0  0  0  0  0  0  0  0
    5.9120   45.3180   54.6310 C   0  0  0  0  0  0  0  0  0  0  0  0
    6.4280   46.4750   53.7820 C   0  0  1  0  0  0  0  0  0  0  0  0
    7.5120   46.0710   52.7540 C   0  0  0  0  0  0  0  0  0  0  0  0
    8.8800   45.9410   53.4350 C   0  0  0  0  0  0  0  0  0  0  0  0
    9.6750   47.1680   53.0280 C   0  0  0  0  0  0  0  0  0  0  0  0
    9.1430   47.5470   51.6610 C   0  0  0  0  0  0  0  0  0  0  0  0
    7.6730   47.1500   51.6710 C   0  0  0  0  0  0  0  0  0  0  0  0
    4.7670   43.3020   53.4060 H   0  0  0  0  0  0  0  0  0  0  0  0
    6.5005   42.7382   50.6815 H   0  0  0  0  0  0  0  0  0  0  0  0
    5.9846   41.1953   48.7833 H   0  0  0  0  0  0  0  0  0  0  0  0
    4.1493   41.3842   46.4207 H   0  0  0  0  0  0  0  0  0  0  0  0
    3.2917   39.2330   45.0456 H   0  0  0  0  0  0  0  0  0  0  0  0
    2.4182   37.4858   46.8929 H   0  0  0  0  0  0  0  0  0  0  0  0
    2.3162   42.7029   51.7817 H   0  0  0  0  0  0  0  0  0  0  0  0
    3.9977   46.4481   53.6301 H   0  0  0  0  0  0  0  0  0  0  0  0
    5.7302   45.4641   55.7060 H   0  0  0  0  0  0  0  0  0  0  0  0
    6.2476   44.2888   54.8264 H   0  0  0  0  0  0  0  0  0  0  0  0
    6.8557   47.4749   53.9471 H   0  0  0  0  0  0  0  0  0  0  0  0
    7.1896   45.1155   52.3147 H   0  0  0  0  0  0  0  0  0  0  0  0
    8.7602   45.9097   54.5280 H   0  0  0  0  0  0  0  0  0  0  0  0
    9.3909   45.0147   53.1336 H   0  0  0  0  0  0  0  0  0  0  0  0
    9.5157   47.9868   53.7451 H   0  0  0  0  0  0  0  0  0  0  0  0
   10.7570   46.9706   53.0091 H   0  0  0  0  0  0  0  0  0  0  0  0
    9.2476   48.6293   51.4945 H   0  0  0  0  0  0  0  0  0  0  0  0
    9.6958   47.0433   50.8544 H   0  0  0  0  0  0  0  0  0  0  0  0
    7.0467   48.0223   51.9094 H   0  0  0  0  0  0  0  0  0  0  0  0
    7.3596   46.7715   50.6869 H   0  0  0  0  0  0  0  0  0  0  0  0
  1  2  2  0
  2  3  1  0
  3  4  1  0
  4  5  2  0
  5  6  1  0
  6  7  2  0
  7  8  1  0
  8  9  1  0
  9 10  2  0
 10 11  1  0
 11 12  2  0
  7 13  1  0
 13 14  2  0
  2 15  1  0
 15 16  1  0
 16 17  1  0
 17 18  1  0
 18 19  1  0
 19 20  1  0
 20 21  1  0
 21 22  1  0
 14  4  1  0
 17 15  1  0
 22 18  1  0
 12  8  1  0
  3 23  1  0
  5 24  1  0
  6 25  1  0
  9 26  1  0
 10 27  1  0
 11 28  1  0
 14 29  1  0
 15 30  1  1
 16 31  1  0
 16 32  1  0
 17 33  1  1
 18 34  1  0
 19 35  1  0
 19 36  1  0
 20 37  1  0
 20 38  1  0
 21 39  1  0
 21 40  1  0
 22 41  1  0
 22 42  1  0
M  END
>  <meeko>  (2) 
{"is_sidechain": [false], "free_energy": -7.815, "intermolecular_energy": -9.603, "internal_energy": -0.671}

$$$$
ligand_32_conformer_2_docked
     RDKit          3D

 42 45  0  0  0  0  0  0  0  0999 V2000
    3.6070   45.9270   51.8610 O   0  0  0  0  0  0  0  0  0  0  0  0
    4.2260   44.9120   52.2840 C   0  0  0  0  0  0  0  0  0  0  0  0
    3.7620   44.1960   53.4370 N   0  0  0  0  0  0  0  0  0  0  0  0
    2.5880   44.5470   54.1890 C   0  0  0  0  0  0  0  0  0  0  0  0
    1.3160   44.0720   53.8370 C   0  0  0  0  0  0  0  0  0  0  0  0
    0.2030   44.4170   54.6060 C   0  0  0  0  0  0  0  0  0  0  0  0
    0.3690   45.2280   55.7380 C   0  0  0  0  0  0  0  0  0  0  0  0
   -0.7590   45.6010   56.5490 N   0  0  0  0  0  0  0  0  0  0  0  0
   -1.8590   44.8530   56.7670 C   0  0  0  0  0  0  0  0  0  0  0  0
   -2.7060   45.5570   57.5960 C   0  0  0  0  0  0  0  0  0  0  0  0
   -2.0460   46.7450   57.8460 C   0  0  0  0  0  0  0  0  0  0  0  0
   -0.8650   46.7490   57.1990 N   0  0  0  0  0  0  0  0  0  0  0  0
    1.6170   45.6580   56.0740 N   0  0  0  0  0  0  0  0  0  0  0  0
    2.7140   45.3340   55.3410 C   0  0  0  0  0  0  0  0  0  0  0  0
    5.4610   44.4370   51.5680 C   0  0  1  0  0  0  0  0  0  0  0  0
    5.9890   45.3500   50.4640 C   0  0  0  0  0  0  0  0  0  0  0  0
    6.7480   45.2400   51.7820 C   0  0  1  0  0  0  0  0  0  0  0  0
    6.7150   46.5280   52.6410 C   0  0  0  0  0  0  0  0  0  0  0  0
    7.6120   47.6100   52.0260 C   0  0  0  0  0  0  0  0  0  0  0  0
    8.8550   47.6730   52.8950 C   0  0  0  0  0  0  0  0  0  0  0  0
    8.3920   47.2630   54.2770 C   0  0  0  0  0  0  0  0  0  0  0  0
    7.2660   46.2640   54.0510 C   0  0  0  0  0  0  0  0  0  0  0  0
    4.3800   43.4460   53.8220 H   0  0  0  0  0  0  0  0  0  0  0  0
    1.1953   43.4270   52.9542 H   0  0  0  0  0  0  0  0  0  0  0  0
   -0.7973   44.0552   54.3259 H   0  0  0  0  0  0  0  0  0  0  0  0
   -2.0485   43.8514   56.3537 H   0  0  0  0  0  0  0  0  0  0  0  0
   -3.6897   45.2426   57.9747 H   0  0  0  0  0  0  0  0  0  0  0  0
   -2.4268   47.5619   58.4766 H   0  0  0  0  0  0  0  0  0  0  0  0
    3.7062   45.6915   55.6537 H   0  0  0  0  0  0  0  0  0  0  0  0
    5.1910   43.3736   51.6475 H   0  0  0  0  0  0  0  0  0  0  0  0
    6.4139   44.9146   49.5475 H   0  0  0  0  0  0  0  0  0  0  0  0
    5.5699   46.1802   49.8766 H   0  0  0  0  0  0  0  0  0  0  0  0
    7.7575   44.9580   52.1157 H   0  0  0  0  0  0  0  0  0  0  0  0
    5.6648   46.8527   52.6824 H   0  0  0  0  0  0  0  0  0  0  0  0
    7.8813   47.3409   50.9940 H   0  0  0  0  0  0  0  0  0  0  0  0
    7.0992   48.5824   51.9884 H   0  0  0  0  0  0  0  0  0  0  0  0
    9.6220   46.9779   52.5228 H   0  0  0  0  0  0  0  0  0  0  0  0
    9.3086   48.6751   52.8930 H   0  0  0  0  0  0  0  0  0  0  0  0
    9.2159   46.7935   54.8345 H   0  0  0  0  0  0  0  0  0  0  0  0
    8.0564   48.1283   54.8675 H   0  0  0  0  0  0  0  0  0  0  0  0
    7.6519   45.2363   54.1205 H   0  0  0  0  0  0  0  0  0  0  0  0
    6.4785   46.3783   54.8104 H   0  0  0  0  0  0  0  0  0  0  0  0
  1  2  2  0
  2  3  1  0
  3  4  1  0
  4  5  2  0
  5  6  1  0
  6  7  2  0
  7  8  1  0
  8  9  1  0
  9 10  2  0
 10 11  1  0
 11 12  2  0
  7 13  1  0
 13 14  2  0
  2 15  1  0
 15 16  1  0
 16 17  1  0
 17 18  1  0
 18 19  1  0
 19 20  1  0
 20 21  1  0
 21 22  1  0
 14  4  1  0
 17 15  1  0
 22 18  1  0
 12  8  1  0
  3 23  1  0
  5 24  1  0
  6 25  1  0
  9 26  1  0
 10 27  1  0
 11 28  1  0
 14 29  1  0
 15 30  1  6
 16 31  1  0
 16 32  1  0
 17 33  1  6
 18 34  1  0
 19 35  1  0
 19 36  1  0
 20 37  1  0
 20 38  1  0
 21 39  1  0
 21 40  1  0
 22 41  1  0
 22 42  1  0
M  END
>  <meeko>  (3) 
{"is_sidechain": [false], "free_energy": -7.401, "intermolecular_energy": -9.158, "internal_energy": -0.606}

$$$$
ligand_32_conformer_2_docked
     RDKit          3D

 42 45  0  0  0  0  0  0  0  0999 V2000
    2.0410   44.1270   52.4140 O   0  0  0  0  0  0  0  0  0  0  0  0
    1.4320   45.2300   52.3530 C   0  0  0  0  0  0  0  0  0  0  0  0
    2.1390   46.4690   52.5120 N   0  0  0  0  0  0  0  0  0  0  0  0
    3.5550   46.5690   52.7380 C   0  0  0  0  0  0  0  0  0  0  0  0
    4.4860   46.3090   51.7210 C   0  0  0  0  0  0  0  0  0  0  0  0
    5.8530   46.4400   51.9730 C   0  0  0  0  0  0  0  0  0  0  0  0
    6.2860   46.8450   53.2450 C   0  0  0  0  0  0  0  0  0  0  0  0
    7.6870   46.9880   53.5340 N   0  0  0  0  0  0  0  0  0  0  0  0
    8.7030   46.5220   52.7810 C   0  0  0  0  0  0  0  0  0  0  0  0
    9.8900   46.8610   53.3940 C   0  0  0  0  0  0  0  0  0  0  0  0
    9.5140   47.5430   54.5350 C   0  0  0  0  0  0  0  0  0  0  0  0
    8.1700   47.6080   54.6000 N   0  0  0  0  0  0  0  0  0  0  0  0
    5.3630   47.1150   54.2090 N   0  0  0  0  0  0  0  0  0  0  0  0
    4.0280   46.9950   53.9850 C   0  0  0  0  0  0  0  0  0  0  0  0
   -0.0500   45.2540   52.1030 C   0  0  1  0  0  0  0  0  0  0  0  0
   -0.7500   43.8970   52.0900 C   0  0  0  0  0  0  0  0  0  0  0  0
   -0.9640   44.8460   53.2640 C   0  0  1  0  0  0  0  0  0  0  0  0
   -0.3420   44.3570   54.5950 C   0  0  0  0  0  0  0  0  0  0  0  0
   -1.3340   43.4760   55.3630 C   0  0  0  0  0  0  0  0  0  0  0  0
   -1.8550   44.3250   56.5090 C   0  0  0  0  0  0  0  0  0  0  0  0
   -0.7260   45.2790   56.8380 C   0  0  0  0  0  0  0  0  0  0  0  0
   -0.0160   45.5430   55.5180 C   0  0  0  0  0  0  0  0  0  0  0  0
    1.5710   47.3440   52.5840 H   0  0  0  0  0  0  0  0  0  0  0  0
    4.1384   46.0015   50.7237 H   0  0  0  0  0  0  0  0  0  0  0  0
    6.5853   46.2273   51.1802 H   0  0  0  0  0  0  0  0  0  0  0  0
    8.6020   45.9656   51.8375 H   0  0  0  0  0  0  0  0  0  0  0  0
   10.9109   46.6379   53.0506 H   0  0  0  0  0  0  0  0  0  0  0  0
   10.2061   47.9679   55.2769 H   0  0  0  0  0  0  0  0  0  0  0  0
    3.3151   47.2339   54.7879 H   0  0  0  0  0  0  0  0  0  0  0  0
    0.0008   46.1197   51.4263 H   0  0  0  0  0  0  0  0  0  0  0  0
   -1.5688   43.7083   51.3801 H   0  0  0  0  0  0  0  0  0  0  0  0
   -0.4179   42.8535   51.9863 H   0  0  0  0  0  0  0  0  0  0  0  0
   -1.8095   45.3452   53.7600 H   0  0  0  0  0  0  0  0  0  0  0  0
    0.5689   43.7993   54.3320 H   0  0  0  0  0  0  0  0  0  0  0  0
   -2.1624   43.1724   54.7060 H   0  0  0  0  0  0  0  0  0  0  0  0
   -0.8532   42.5575   55.7308 H   0  0  0  0  0  0  0  0  0  0  0  0
   -2.7528   44.8808   56.2008 H   0  0  0  0  0  0  0  0  0  0  0  0
   -2.1441   43.7137   57.3766 H   0  0  0  0  0  0  0  0  0  0  0  0
   -1.1241   46.2162   57.2541 H   0  0  0  0  0  0  0  0  0  0  0  0
   -0.0432   44.8577   57.5905 H   0  0  0  0  0  0  0  0  0  0  0  0
   -0.3799   46.4808   55.0729 H   0  0  0  0  0  0  0  0  0  0  0  0
    1.0695   45.6421   55.6659 H   0  0  0  0  0  0  0  0  0  0  0  0
  1  2  2  0
  2  3  1  0
  3  4  1  0
  4  5  2  0
  5  6  1  0
  6  7  2  0
  7  8  1  0
  8  9  1  0
  9 10  2  0
 10 11  1  0
 11 12  2  0
  7 13  1  0
 13 14  2  0
  2 15  1  0
 15 16  1  0
 16 17  1  0
 17 18  1  0
 18 19  1  0
 19 20  1  0
 20 21  1  0
 21 22  1  0
 14  4  1  0
 17 15  1  0
 22 18  1  0
 12  8  1  0
  3 23  1  0
  5 24  1  0
  6 25  1  0
  9 26  1  0
 10 27  1  0
 11 28  1  0
 14 29  1  0
 15 30  1  6
 16 31  1  0
 16 32  1  0
 17 33  1  1
 18 34  1  0
 19 35  1  0
 19 36  1  0
 20 37  1  0
 20 38  1  0
 21 39  1  0
 21 40  1  0
 22 41  1  0
 22 42  1  0
M  END
>  <meeko>  (4) 
{"is_sidechain": [false], "free_energy": -7.179, "intermolecular_energy": -9.117, "internal_energy": -0.373}

$$$$
ligand_32_conformer_2_docked
     RDKit          3D

 42 45  0  0  0  0  0  0  0  0999 V2000
    5.3200   45.2620   50.0950 O   0  0  0  0  0  0  0  0  0  0  0  0
    6.2730   44.7330   50.7310 C   0  0  0  0  0  0  0  0  0  0  0  0
    6.5190   43.3210   50.6460 N   0  0  0  0  0  0  0  0  0  0  0  0
    5.7390   42.4110   49.8530 C   0  0  0  0  0  0  0  0  0  0  0  0
    4.6230   41.7410   50.3800 C   0  0  0  0  0  0  0  0  0  0  0  0
    3.8770   40.8820   49.5710 C   0  0  0  0  0  0  0  0  0  0  0  0
    4.2420   40.7050   48.2270 C   0  0  0  0  0  0  0  0  0  0  0  0
    3.4930   39.8260   47.3710 N   0  0  0  0  0  0  0  0  0  0  0  0
    3.3560   39.9490   46.0360 C   0  0  0  0  0  0  0  0  0  0  0  0
    2.5670   38.9140   45.5820 C   0  0  0  0  0  0  0  0  0  0  0  0
    2.2540   38.1890   46.7160 C   0  0  0  0  0  0  0  0  0  0  0  0
    2.8280   38.7610   47.7910 N   0  0  0  0  0  0  0  0  0  0  0  0
    5.3140   41.3840   47.7330 N   0  0  0  0  0  0  0  0  0  0  0  0
    6.0540   42.2250   48.5010 C   0  0  0  0  0  0  0  0  0  0  0  0
    7.1710   45.5880   51.5820 C   0  0  1  0  0  0  0  0  0  0  0  0
    6.5720   46.9010   52.0800 C   0  0  0  0  0  0  0  0  0  0  0  0
    6.7910   45.7510   53.0580 C   0  0  1  0  0  0  0  0  0  0  0  0
    5.4830   45.1140   53.5880 C   0  0  0  0  0  0  0  0  0  0  0  0
    4.3220   46.1110   53.4990 C   0  0  0  0  0  0  0  0  0  0  0  0
    4.0630   46.5880   54.9160 C   0  0  0  0  0  0  0  0  0  0  0  0
    4.4720   45.4310   55.8030 C   0  0  0  0  0  0  0  0  0  0  0  0
    5.6160   44.7420   55.0730 C   0  0  0  0  0  0  0  0  0  0  0  0
    7.2340   42.9150   51.2910 H   0  0  0  0  0  0  0  0  0  0  0  0
    4.3364   41.8932   51.4311 H   0  0  0  0  0  0  0  0  0  0  0  0
    3.0089   40.3473   49.9839 H   0  0  0  0  0  0  0  0  0  0  0  0
    3.7987   40.7410   45.4141 H   0  0  0  0  0  0  0  0  0  0  0  0
    2.2556   38.7104   44.5468 H   0  0  0  0  0  0  0  0  0  0  0  0
    1.6309   37.2828   46.7371 H   0  0  0  0  0  0  0  0  0  0  0  0
    6.9054   42.7630   48.0587 H   0  0  0  0  0  0  0  0  0  0  0  0
    8.0861   45.2938   51.0471 H   0  0  0  0  0  0  0  0  0  0  0  0
    7.1997   47.8022   52.1425 H   0  0  0  0  0  0  0  0  0  0  0  0
    5.7101   47.5200   51.7904 H   0  0  0  0  0  0  0  0  0  0  0  0
    7.3406   45.5757   53.9946 H   0  0  0  0  0  0  0  0  0  0  0  0
    5.2938   44.2223   52.9723 H   0  0  0  0  0  0  0  0  0  0  0  0
    4.5968   46.9596   52.8554 H   0  0  0  0  0  0  0  0  0  0  0  0
    3.4261   45.6446   53.0633 H   0  0  0  0  0  0  0  0  0  0  0  0
    4.6679   47.4790   55.1401 H   0  0  0  0  0  0  0  0  0  0  0  0
    3.0116   46.8729   55.0691 H   0  0  0  0  0  0  0  0  0  0  0  0
    4.8081   45.7988   56.7837 H   0  0  0  0  0  0  0  0  0  0  0  0
    3.6337   44.7433   55.9882 H   0  0  0  0  0  0  0  0  0  0  0  0
    6.5817   45.0924   55.4662 H   0  0  0  0  0  0  0  0  0  0  0  0
    5.5733   43.6517   55.2122 H   0  0  0  0  0  0  0  0  0  0  0  0
  1  2  2  0
  2  3  1  0
  3  4  1  0
  4  5  2  0
  5  6  1  0
  6  7  2  0
  7  8  1  0
  8  9  1  0
  9 10  2  0
 10 11  1  0
 11 12  2  0
  7 13  1  0
 13 14  2  0
  2 15  1  0
 15 16  1  0
 16 17  1  0
 17 18  1  0
 18 19  1  0
 19 20  1  0
 20 21  1  0
 21 22  1  0
 14  4  1  0
 17 15  1  0
 22 18  1  0
 12  8  1  0
  3 23  1  0
  5 24  1  0
  6 25  1  0
  9 26  1  0
 10 27  1  0
 11 28  1  0
 14 29  1  0
 15 30  1  1
 16 31  1  0
 16 32  1  0
 17 33  1  1
 18 34  1  0
 19 35  1  0
 19 36  1  0
 20 37  1  0
 20 38  1  0
 21 39  1  0
 21 40  1  0
 22 41  1  0
 22 42  1  0
M  END
>  <meeko>  (5) 
{"is_sidechain": [false], "free_energy": -6.997, "intermolecular_energy": -8.55, "internal_energy": -0.716}

$$$$
