MODEL 1
REMARK VINA RESULT:    -8.553      0.000      0.000
REMARK INTER + INTRA:         -10.594
REMARK INTER:                 -10.053
REMARK INTRA:                  -0.541
REMARK UNBOUND:                -0.541
REMARK SMILES CN1CCc2ccc(NC(=O)CN3CCCNC3=O)cc2C1=O
REMARK SMILES IDX 9 1 10 2 11 3 8 5 2 6 3 7 22 8 4 9 21 10 23 11 5 12 20 13
REMARK SMILES IDX 6 14 7 15 1 16 12 17 13 18 14 19 18 20 15 21 17 22 19 23
REMARK SMILES IDX 16 24
REMARK H PARENT 9 4 17 25
ROOT
ATOM      1  N   UNL     1       4.242  45.658  50.940  1.00  0.00    -0.325 N 
ATOM      2  C   UNL     1       3.421  44.520  51.245  1.00  0.00     0.244 C 
ATOM      3  O   UNL     1       3.940  43.433  51.618  1.00  0.00    -0.273 OA
ATOM      4  H   UNL     1       3.812  46.436  50.392  1.00  0.00     0.169 HD
ENDROOT
BRANCH   1   5
ATOM      5  C   UNL     1       5.649  45.735  51.225  1.00  0.00     0.042 A 
ATOM      6  N   UNL     1       9.443  47.203  54.053  1.00  0.00    -0.341 N 
ATOM      7  C   UNL     1      10.286  47.142  52.852  1.00  0.00     0.124 C 
ATOM      8  C   UNL     1       8.029  46.967  53.922  1.00  0.00     0.253 C 
ATOM      9  C   UNL     1       9.903  45.937  51.985  1.00  0.00     0.058 C 
ATOM     10  C   UNL     1       7.507  46.384  52.667  1.00  0.00     0.045 A 
ATOM     11  O   UNL     1       7.248  47.239  54.874  1.00  0.00    -0.269 OA
ATOM     12  C   UNL     1       8.421  45.920  51.700  1.00  0.00    -0.033 A 
ATOM     13  C   UNL     1       6.126  46.298  52.421  1.00  0.00     0.040 A 
ATOM     14  C   UNL     1       7.941  45.364  50.506  1.00  0.00     0.007 A 
ATOM     15  C   UNL     1       6.568  45.287  50.265  1.00  0.00     0.026 A 
ATOM     16  C   UNL     1      10.013  47.552  55.355  1.00  0.00     0.147 C 
ENDBRANCH   1   5
BRANCH   2  17
ATOM     17  C   UNL     1       1.938  44.595  51.044  1.00  0.00     0.221 C 
BRANCH  17  18
ATOM     18  N   UNL     1       1.253  44.621  52.341  1.00  0.00    -0.315 N 
ATOM     19  C   UNL     1       0.362  43.519  52.726  1.00  0.00     0.124 C 
ATOM     20  C   UNL     1       1.392  45.751  53.224  1.00  0.00     0.317 C 
ATOM     21  C   UNL     1       0.417  43.283  54.237  1.00  0.00     0.043 C 
ATOM     22  N   UNL     1       0.857  45.689  54.551  1.00  0.00    -0.338 N 
ATOM     23  O   UNL     1       2.005  46.786  52.848  1.00  0.00    -0.249 OA
ATOM     24  C   UNL     1       0.037  44.561  54.989  1.00  0.00     0.119 C 
ATOM     25  H   UNL     1       0.942  46.523  55.174  1.00  0.00     0.165 HD
ENDBRANCH  17  18
ENDBRANCH   2  17
TORSDOF 3
ENDMDL
MODEL 2
REMARK VINA RESULT:    -8.178      1.969      3.071
REMARK INTER + INTRA:         -10.153
REMARK INTER:                  -9.761
REMARK INTRA:                  -0.392
REMARK UNBOUND:                -0.541
REMARK SMILES CN1CCc2ccc(NC(=O)CN3CCCNC3=O)cc2C1=O
REMARK SMILES IDX 9 1 10 2 11 3 8 5 2 6 3 7 22 8 4 9 21 10 23 11 5 12 20 13
REMARK SMILES IDX 6 14 7 15 1 16 12 17 13 18 14 19 18 20 15 21 17 22 19 23
REMARK SMILES IDX 16 24
REMARK H PARENT 9 4 17 25
ROOT
ATOM      1  N   UNL     1       2.939  43.939  53.581  1.00  0.00    -0.325 N 
ATOM      2  C   UNL     1       1.860  44.809  53.962  1.00  0.00     0.244 C 
ATOM      3  O   UNL     1       1.994  46.062  53.910  1.00  0.00    -0.273 OA
ATOM      4  H   UNL     1       2.888  42.941  53.883  1.00  0.00     0.169 HD
ENDROOT
BRANCH   1   5
ATOM      5  C   UNL     1       4.140  44.385  52.929  1.00  0.00     0.042 A 
ATOM      6  N   UNL     1       8.392  46.927  52.909  1.00  0.00    -0.341 N 
ATOM      7  C   UNL     1       8.269  47.009  51.447  1.00  0.00     0.124 C 
ATOM      8  C   UNL     1       7.320  46.335  53.665  1.00  0.00     0.253 C 
ATOM      9  C   UNL     1       7.717  45.696  50.879  1.00  0.00     0.058 C 
ATOM     10  C   UNL     1       6.275  45.565  52.956  1.00  0.00     0.045 A 
ATOM     11  O   UNL     1       7.283  46.458  54.920  1.00  0.00    -0.269 OA
ATOM     12  C   UNL     1       6.445  45.290  51.584  1.00  0.00    -0.033 A 
ATOM     13  C   UNL     1       5.119  45.121  53.620  1.00  0.00     0.040 A 
ATOM     14  C   UNL     1       5.463  44.561  50.898  1.00  0.00     0.007 A 
ATOM     15  C   UNL     1       4.315  44.126  51.563  1.00  0.00     0.026 A 
ATOM     16  C   UNL     1       9.557  47.485  53.597  1.00  0.00     0.147 C 
ENDBRANCH   1   5
BRANCH   2  17
ATOM     17  C   UNL     1       0.589  44.228  54.503  1.00  0.00     0.221 C 
BRANCH  17  18
ATOM     18  N   UNL     1      -0.324  43.900  53.402  1.00  0.00    -0.315 N 
ATOM     19  C   UNL     1      -1.021  44.972  52.680  1.00  0.00     0.124 C 
ATOM     20  C   UNL     1      -0.600  42.528  53.058  1.00  0.00     0.317 C 
ATOM     21  C   UNL     1      -1.212  44.597  51.209  1.00  0.00     0.043 C 
ATOM     22  N   UNL     1      -1.357  42.228  51.880  1.00  0.00    -0.338 N 
ATOM     23  O   UNL     1      -0.157  41.588  53.770  1.00  0.00    -0.249 OA
ATOM     24  C   UNL     1      -1.990  43.283  51.093  1.00  0.00     0.119 C 
ATOM     25  H   UNL     1      -1.572  41.231  51.654  1.00  0.00     0.165 HD
ENDBRANCH  17  18
ENDBRANCH   2  17
TORSDOF 3
ENDMDL
MODEL 3
REMARK VINA RESULT:    -8.140      1.932      2.933
REMARK INTER + INTRA:         -10.108
REMARK INTER:                  -9.633
REMARK INTRA:                  -0.475
REMARK UNBOUND:                -0.541
REMARK SMILES CN1CCc2ccc(NC(=O)CN3CCCNC3=O)cc2C1=O
REMARK SMILES IDX 9 1 10 2 11 3 8 5 2 6 3 7 22 8 4 9 21 10 23 11 5 12 20 13
REMARK SMILES IDX 6 14 7 15 1 16 12 17 13 18 14 19 18 20 15 21 17 22 19 23
REMARK SMILES IDX 16 24
REMARK H PARENT 9 4 17 25
ROOT
ATOM      1  N   UNL     1       2.943  43.799  53.510  1.00  0.00    -0.325 N 
ATOM      2  C   UNL     1       1.738  44.563  53.679  1.00  0.00     0.244 C 
ATOM      3  O   UNL     1       1.724  45.802  53.446  1.00  0.00    -0.273 OA
ATOM      4  H   UNL     1       2.987  42.856  53.957  1.00  0.00     0.169 HD
ENDROOT
BRANCH   1   5
ATOM      5  C   UNL     1       4.134  44.302  52.883  1.00  0.00     0.042 A 
ATOM      6  N   UNL     1       8.285  47.005  52.965  1.00  0.00    -0.341 N 
ATOM      7  C   UNL     1       8.177  47.110  51.504  1.00  0.00     0.124 C 
ATOM      8  C   UNL     1       7.227  46.359  53.696  1.00  0.00     0.253 C 
ATOM      9  C   UNL     1       7.683  45.789  50.904  1.00  0.00     0.058 C 
ATOM     10  C   UNL     1       6.221  45.563  52.959  1.00  0.00     0.045 A 
ATOM     11  O   UNL     1       7.170  46.456  54.952  1.00  0.00    -0.269 OA
ATOM     12  C   UNL     1       6.419  45.320  51.585  1.00  0.00    -0.033 A 
ATOM     13  C   UNL     1       5.076  45.062  53.599  1.00  0.00     0.040 A 
ATOM     14  C   UNL     1       5.475  44.567  50.873  1.00  0.00     0.007 A 
ATOM     15  C   UNL     1       4.336  44.077  51.514  1.00  0.00     0.026 A 
ATOM     16  C   UNL     1       9.419  47.595  53.679  1.00  0.00     0.147 C 
ENDBRANCH   1   5
BRANCH   2  17
ATOM     17  C   UNL     1       0.504  43.901  54.213  1.00  0.00     0.221 C 
BRANCH  17  18
ATOM     18  N   UNL     1      -0.068  44.703  55.301  1.00  0.00    -0.315 N 
ATOM     19  C   UNL     1       0.657  44.846  56.570  1.00  0.00     0.124 C 
ATOM     20  C   UNL     1      -1.371  45.303  55.166  1.00  0.00     0.317 C 
ATOM     21  C   UNL     1       0.406  46.225  57.183  1.00  0.00     0.043 C 
ATOM     22  N   UNL     1      -1.840  46.216  56.164  1.00  0.00    -0.338 N 
ATOM     23  O   UNL     1      -2.091  45.053  54.163  1.00  0.00    -0.249 OA
ATOM     24  C   UNL     1      -1.094  46.444  57.400  1.00  0.00     0.119 C 
ATOM     25  H   UNL     1      -2.797  46.627  56.070  1.00  0.00     0.165 HD
ENDBRANCH  17  18
ENDBRANCH   2  17
TORSDOF 3
ENDMDL
MODEL 4
REMARK VINA RESULT:    -7.809      2.485      7.715
REMARK INTER + INTRA:          -9.720
REMARK INTER:                  -9.390
REMARK INTRA:                  -0.329
REMARK UNBOUND:                -0.541
REMARK SMILES CN1CCc2ccc(NC(=O)CN3CCCNC3=O)cc2C1=O
REMARK SMILES IDX 9 1 10 2 11 3 8 5 2 6 3 7 22 8 4 9 21 10 23 11 5 12 20 13
REMARK SMILES IDX 6 14 7 15 1 16 12 17 13 18 14 19 18 20 15 21 17 22 19 23
REMARK SMILES IDX 16 24
REMARK H PARENT 9 4 17 25
ROOT
ATOM      1  N   UNL     1       5.180  44.249  52.217  1.00  0.00    -0.325 N 
ATOM      2  C   UNL     1       5.424  45.093  51.080  1.00  0.00     0.244 C 
ATOM      3  O   UNL     1       4.664  46.066  50.826  1.00  0.00    -0.273 OA
ATOM      4  H   UNL     1       5.657  43.320  52.244  1.00  0.00     0.169 HD
ENDROOT
BRANCH   1   5
ATOM      5  C   UNL     1       4.224  44.545  53.249  1.00  0.00     0.042 A 
ATOM      6  N   UNL     1      -0.375  44.416  55.085  1.00  0.00    -0.341 N 
ATOM      7  C   UNL     1      -0.028  45.600  55.882  1.00  0.00     0.124 C 
ATOM      8  C   UNL     1       0.581  43.914  54.133  1.00  0.00     0.253 C 
ATOM      9  C   UNL     1       1.413  45.501  56.395  1.00  0.00     0.058 C 
ATOM     10  C   UNL     1       1.977  44.400  54.186  1.00  0.00     0.045 A 
ATOM     11  O   UNL     1       0.234  43.056  53.276  1.00  0.00    -0.269 OA
ATOM     12  C   UNL     1       2.375  45.212  55.267  1.00  0.00    -0.033 A 
ATOM     13  C   UNL     1       2.900  44.079  53.177  1.00  0.00     0.040 A 
ATOM     14  C   UNL     1       3.694  45.680  55.332  1.00  0.00     0.007 A 
ATOM     15  C   UNL     1       4.606  45.361  54.323  1.00  0.00     0.026 A 
ATOM     16  C   UNL     1      -1.690  43.784  55.211  1.00  0.00     0.147 C 
ENDBRANCH   1   5
BRANCH   2  17
ATOM     17  C   UNL     1       6.544  44.770  50.138  1.00  0.00     0.221 C 
BRANCH  17  18
ATOM     18  N   UNL     1       7.804  45.324  50.644  1.00  0.00    -0.315 N 
ATOM     19  C   UNL     1       7.791  46.494  51.531  1.00  0.00     0.124 C 
ATOM     20  C   UNL     1       9.070  44.773  50.229  1.00  0.00     0.317 C 
ATOM     21  C   UNL     1       8.939  46.419  52.541  1.00  0.00     0.043 C 
ATOM     22  N   UNL     1      10.278  45.212  50.859  1.00  0.00    -0.338 N 
ATOM     23  O   UNL     1       9.120  43.887  49.334  1.00  0.00    -0.249 OA
ATOM     24  C   UNL     1      10.281  46.319  51.812  1.00  0.00     0.119 C 
ATOM     25  H   UNL     1      11.193  44.825  50.533  1.00  0.00     0.165 HD
ENDBRANCH  17  18
ENDBRANCH   2  17
TORSDOF 3
ENDMDL
MODEL 5
REMARK VINA RESULT:    -7.792      1.917      7.233
REMARK INTER + INTRA:          -9.699
REMARK INTER:                  -9.265
REMARK INTRA:                  -0.434
REMARK UNBOUND:                -0.541
REMARK SMILES CN1CCc2ccc(NC(=O)CN3CCCNC3=O)cc2C1=O
REMARK SMILES IDX 9 1 10 2 11 3 8 5 2 6 3 7 22 8 4 9 21 10 23 11 5 12 20 13
REMARK SMILES IDX 6 14 7 15 1 16 12 17 13 18 14 19 18 20 15 21 17 22 19 23
REMARK SMILES IDX 16 24
REMARK H PARENT 9 4 17 25
ROOT
ATOM      1  N   UNL     1       6.120  44.242  51.652  1.00  0.00    -0.325 N 
ATOM      2  C   UNL     1       6.510  45.342  50.815  1.00  0.00     0.244 C 
ATOM      3  O   UNL     1       5.666  45.924  50.082  1.00  0.00    -0.273 OA
ATOM      4  H   UNL     1       6.875  43.628  52.032  1.00  0.00     0.169 HD
ENDROOT
BRANCH   1   5
ATOM      5  C   UNL     1       4.756  43.856  51.891  1.00  0.00     0.042 A 
ATOM      6  N   UNL     1       0.569  44.078  54.528  1.00  0.00    -0.341 N 
ATOM      7  C   UNL     1       0.240  42.744  54.011  1.00  0.00     0.124 C 
ATOM      8  C   UNL     1       1.849  44.653  54.208  1.00  0.00     0.253 C 
ATOM      9  C   UNL     1       0.663  42.616  52.543  1.00  0.00     0.058 C 
ATOM     10  C   UNL     1       2.670  44.038  53.142  1.00  0.00     0.045 A 
ATOM     11  O   UNL     1       2.257  45.678  54.818  1.00  0.00    -0.269 OA
ATOM     12  C   UNL     1       2.108  43.012  52.356  1.00  0.00    -0.033 A 
ATOM     13  C   UNL     1       3.994  44.448  52.913  1.00  0.00     0.040 A 
ATOM     14  C   UNL     1       2.874  42.420  51.342  1.00  0.00     0.007 A 
ATOM     15  C   UNL     1       4.191  42.829  51.122  1.00  0.00     0.026 A 
ATOM     16  C   UNL     1      -0.362  44.796  55.402  1.00  0.00     0.147 C 
ENDBRANCH   1   5
BRANCH   2  17
ATOM     17  C   UNL     1       7.950  45.755  50.748  1.00  0.00     0.221 C 
BRANCH  17  18
ATOM     18  N   UNL     1       8.336  46.439  51.987  1.00  0.00    -0.315 N 
ATOM     19  C   UNL     1       7.338  47.196  52.753  1.00  0.00     0.124 C 
ATOM     20  C   UNL     1       9.706  46.434  52.433  1.00  0.00     0.317 C 
ATOM     21  C   UNL     1       7.632  47.115  54.253  1.00  0.00     0.043 C 
ATOM     22  N   UNL     1      10.036  46.960  53.724  1.00  0.00    -0.338 N 
ATOM     23  O   UNL     1      10.614  45.947  51.709  1.00  0.00    -0.249 OA
ATOM     24  C   UNL     1       9.040  47.642  54.546  1.00  0.00     0.119 C 
ATOM     25  H   UNL     1      11.036  46.974  54.028  1.00  0.00     0.165 HD
ENDBRANCH  17  18
ENDBRANCH   2  17
TORSDOF 3
ENDMDL
