ligand_21_conformer_4_docked
     RDKit          3D

 39 42  0  0  0  0  0  0  0  0999 V2000
    2.8350   42.4480   52.1860 C   0  0  0  0  0  0  0  0  0  0  0  0
    2.6700   43.9440   52.4670 C   0  0  1  0  0  0  0  0  0  0  0  0
    2.3220   44.6530   51.2180 N   0  0  0  0  0  0  0  0  0  0  0  0
    2.7290   46.0700   51.2120 C   0  0  0  0  0  0  0  0  0  0  0  0
    4.0980   46.2740   51.8010 C   0  0  0  0  0  0  0  0  0  0  0  0
    5.1980   45.9200   51.0740 N   0  0  0  0  0  0  0  0  0  0  0  0
    6.4290   46.1400   51.5900 C   0  0  0  0  0  0  0  0  0  0  0  0
    7.9170   45.7860   50.8580 S   0  0  0  0  0  0  0  0  0  0  0  0
    8.7760   46.3930   52.1820 C   0  0  0  0  0  0  0  0  0  0  0  0
    7.9530   46.8530   53.1480 C   0  0  0  0  0  0  0  0  0  0  0  0
    6.6040   46.7210   52.8350 C   0  0  0  0  0  0  0  0  0  0  0  0
    5.4790   47.0860   53.5720 C   0  0  0  0  0  0  0  0  0  0  0  0
    5.5920   47.6200   54.7070 O   0  0  0  0  0  0  0  0  0  0  0  0
    4.2430   46.8560   53.0360 N   0  0  0  0  0  0  0  0  0  0  0  0
    8.6890   47.3990   54.3060 C   0  0  0  0  0  0  0  0  0  0  0  0
   10.1740   47.1960   53.9000 C   0  0  0  0  0  0  0  0  0  0  0  0
   10.2060   46.5380   52.4960 C   0  0  0  0  0  0  0  0  0  0  0  0
    1.6060   44.1410   53.5150 C   0  0  0  0  0  0  0  0  0  0  0  0
    1.7750   44.8060   54.7230 C   0  0  0  0  0  0  0  0  0  0  0  0
    0.6070   44.8520   55.4910 C   0  0  0  0  0  0  0  0  0  0  0  0
    0.5190   45.7020   57.1960 Br  0  0  0  0  0  0  0  0  0  0  0  0
   -0.4820   44.2280   54.8990 C   0  0  0  0  0  0  0  0  0  0  0  0
    0.0090   43.6170   53.4110 S   0  0  0  0  0  0  0  0  0  0  0  0
    2.8954   41.9005   53.1382 H   0  0  0  0  0  0  0  0  0  0  0  0
    1.9714   42.0859   51.6090 H   0  0  0  0  0  0  0  0  0  0  0  0
    3.7568   42.2828   51.6090 H   0  0  0  0  0  0  0  0  0  0  0  0
    3.6158   44.3597   52.8447 H   0  0  0  0  0  0  0  0  0  0  0  0
    2.7960   44.1760   50.4150 H   0  0  0  0  0  0  0  0  0  0  0  0
    2.7333   46.4323   50.1734 H   0  0  0  0  0  0  0  0  0  0  0  0
    2.0106   46.6288   51.8298 H   0  0  0  0  0  0  0  0  0  0  0  0
    3.3930   47.1320   53.5790 H   0  0  0  0  0  0  0  0  0  0  0  0
    8.4610   48.4650   54.4530 H   0  0  0  0  0  0  0  0  0  0  0  0
    8.4278   46.9106   55.2564 H   0  0  0  0  0  0  0  0  0  0  0  0
   10.6876   48.1682   53.8676 H   0  0  0  0  0  0  0  0  0  0  0  0
   10.6842   46.5536   54.6328 H   0  0  0  0  0  0  0  0  0  0  0  0
   10.7103   47.1862   51.7642 H   0  0  0  0  0  0  0  0  0  0  0  0
   10.7604   45.5883   52.4684 H   0  0  0  0  0  0  0  0  0  0  0  0
    2.7291   45.2505   55.0425 H   0  0  0  0  0  0  0  0  0  0  0  0
   -1.4914   44.1470   55.3285 H   0  0  0  0  0  0  0  0  0  0  0  0
  1  2  1  0
  2  3  1  0
  3  4  1  0
  4  5  1  0
  5  6  2  0
  6  7  1  0
  7  8  1  0
  8  9  1  0
  9 10  2  0
 10 11  1  0
 11 12  1  0
 12 13  2  0
 12 14  1  0
 10 15  1  0
 15 16  1  0
 16 17  1  0
  2 18  1  0
 18 19  2  0
 19 20  1  0
 20 21  1  0
 20 22  2  0
 22 23  1  0
 14  5  1  0
 23 18  1  0
 11  7  2  0
 17  9  1  0
  1 24  1  0
  1 25  1  0
  1 26  1  0
  2 27  1  1
  3 28  1  0
  4 29  1  0
  4 30  1  0
 14 31  1  0
 15 32  1  0
 15 33  1  0
 16 34  1  0
 16 35  1  0
 17 36  1  0
 17 37  1  0
 19 38  1  0
 22 39  1  0
M  END
>  <meeko>  (1) 
{"is_sidechain": [false], "free_energy": -8.757, "intermolecular_energy": -10.805, "internal_energy": -0.479}

$$$$
ligand_21_conformer_4_docked
     RDKit          3D

 39 42  0  0  0  0  0  0  0  0999 V2000
    0.5080   43.2760   51.4700 C   0  0  0  0  0  0  0  0  0  0  0  0
    0.7280   42.6110   52.8310 C   0  0  1  0  0  0  0  0  0  0  0  0
    2.1720   42.3870   53.0520 N   0  0  0  0  0  0  0  0  0  0  0  0
    3.0100   42.7580   51.8980 C   0  0  0  0  0  0  0  0  0  0  0  0
    4.1620   43.6430   52.2890 C   0  0  0  0  0  0  0  0  0  0  0  0
    5.0560   44.0360   51.3360 N   0  0  0  0  0  0  0  0  0  0  0  0
    6.0700   44.8630   51.6820 C   0  0  0  0  0  0  0  0  0  0  0  0
    7.2770   45.4750   50.6610 S   0  0  0  0  0  0  0  0  0  0  0  0
    7.9900   46.3380   51.9280 C   0  0  0  0  0  0  0  0  0  0  0  0
    7.3260   46.1650   53.0910 C   0  0  0  0  0  0  0  0  0  0  0  0
    6.2210   45.3260   52.9780 C   0  0  0  0  0  0  0  0  0  0  0  0
    5.3040   44.9260   53.9480 C   0  0  0  0  0  0  0  0  0  0  0  0
    5.4030   45.3260   55.1380 O   0  0  0  0  0  0  0  0  0  0  0  0
    4.2870   44.0910   53.5810 N   0  0  0  0  0  0  0  0  0  0  0  0
    7.9290   46.9240   54.2050 C   0  0  0  0  0  0  0  0  0  0  0  0
    9.1360   47.6290   53.5310 C   0  0  0  0  0  0  0  0  0  0  0  0
    9.1530   47.2330   52.0320 C   0  0  0  0  0  0  0  0  0  0  0  0
    0.1440   43.4810   53.9130 C   0  0  0  0  0  0  0  0  0  0  0  0
    0.8650   44.1140   54.9190 C   0  0  0  0  0  0  0  0  0  0  0  0
    0.0600   44.8740   55.7740 C   0  0  0  0  0  0  0  0  0  0  0  0
    0.7560   45.8660   57.2460 Br  0  0  0  0  0  0  0  0  0  0  0  0
   -1.2900   44.8460   55.4510 C   0  0  0  0  0  0  0  0  0  0  0  0
   -1.4840   43.8710   54.0940 S   0  0  0  0  0  0  0  0  0  0  0  0
    0.1657   44.3108   51.6186 H   0  0  0  0  0  0  0  0  0  0  0  0
    1.4528   43.2797   50.9067 H   0  0  0  0  0  0  0  0  0  0  0  0
   -0.2526   42.7155   50.9067 H   0  0  0  0  0  0  0  0  0  0  0  0
    0.2223   41.6344   52.8551 H   0  0  0  0  0  0  0  0  0  0  0  0
    2.4810   42.9590   53.8740 H   0  0  0  0  0  0  0  0  0  0  0  0
    3.4084   41.8403   51.4408 H   0  0  0  0  0  0  0  0  0  0  0  0
    2.3801   43.3185   51.1915 H   0  0  0  0  0  0  0  0  0  0  0  0
    3.5900   43.7900   54.3010 H   0  0  0  0  0  0  0  0  0  0  0  0
    7.2192   47.6585   54.6133 H   0  0  0  0  0  0  0  0  0  0  0  0
    8.2164   46.2903   55.0570 H   0  0  0  0  0  0  0  0  0  0  0  0
    9.0312   48.7198   53.6268 H   0  0  0  0  0  0  0  0  0  0  0  0
   10.0745   47.3221   54.0158 H   0  0  0  0  0  0  0  0  0  0  0  0
    9.0350   48.1155   51.3860 H   0  0  0  0  0  0  0  0  0  0  0  0
   10.0963   46.7667   51.7115 H   0  0  0  0  0  0  0  0  0  0  0  0
    1.9558   44.0263   55.0311 H   0  0  0  0  0  0  0  0  0  0  0  0
   -2.0934   45.3704   55.9891 H   0  0  0  0  0  0  0  0  0  0  0  0
  1  2  1  0
  2  3  1  0
  3  4  1  0
  4  5  1  0
  5  6  2  0
  6  7  1  0
  7  8  1  0
  8  9  1  0
  9 10  2  0
 10 11  1  0
 11 12  1  0
 12 13  2  0
 12 14  1  0
 10 15  1  0
 15 16  1  0
 16 17  1  0
  2 18  1  0
 18 19  2  0
 19 20  1  0
 20 21  1  0
 20 22  2  0
 22 23  1  0
 14  5  1  0
 23 18  1  0
 11  7  2  0
 17  9  1  0
  1 24  1  0
  1 25  1  0
  1 26  1  0
  2 27  1  6
  3 28  1  0
  4 29  1  0
  4 30  1  0
 14 31  1  0
 15 32  1  0
 15 33  1  0
 16 34  1  0
 16 35  1  0
 17 36  1  0
 17 37  1  0
 19 38  1  0
 22 39  1  0
M  END
>  <meeko>  (2) 
{"is_sidechain": [false], "free_energy": -8.6, "intermolecular_energy": -10.574, "internal_energy": -0.516}

$$$$
ligand_21_conformer_4_docked
     RDKit          3D

 39 42  0  0  0  0  0  0  0  0999 V2000
    0.3670   43.2070   51.1830 C   0  0  0  0  0  0  0  0  0  0  0  0
    1.0350   42.8360   52.5100 C   0  0  1  0  0  0  0  0  0  0  0  0
    2.4840   43.1120   52.4360 N   0  0  0  0  0  0  0  0  0  0  0  0
    2.8370   44.1610   51.4620 C   0  0  0  0  0  0  0  0  0  0  0  0
    4.1990   44.7460   51.7200 C   0  0  0  0  0  0  0  0  0  0  0  0
    4.4590   45.3270   52.9270 N   0  0  0  0  0  0  0  0  0  0  0  0
    5.6960   45.8180   53.1690 C   0  0  0  0  0  0  0  0  0  0  0  0
    6.2320   46.5680   54.5930 S   0  0  0  0  0  0  0  0  0  0  0  0
    7.7830   46.7890   53.9600 C   0  0  0  0  0  0  0  0  0  0  0  0
    7.8890   46.3040   52.7040 C   0  0  0  0  0  0  0  0  0  0  0  0
    6.7080   45.7420   52.2270 C   0  0  0  0  0  0  0  0  0  0  0  0
    6.4400   45.1430   50.9980 C   0  0  0  0  0  0  0  0  0  0  0  0
    7.3320   45.0490   50.1130 O   0  0  0  0  0  0  0  0  0  0  0  0
    5.1850   44.6520   50.7690 N   0  0  0  0  0  0  0  0  0  0  0  0
    9.2430   46.4770   52.1420 C   0  0  0  0  0  0  0  0  0  0  0  0
   10.0080   47.1860   53.2920 C   0  0  0  0  0  0  0  0  0  0  0  0
    9.0290   47.3750   54.4800 C   0  0  0  0  0  0  0  0  0  0  0  0
    0.3930   43.6140   53.6280 C   0  0  0  0  0  0  0  0  0  0  0  0
    1.0630   44.1990   54.6950 C   0  0  0  0  0  0  0  0  0  0  0  0
    0.2100   44.8770   55.5730 C   0  0  0  0  0  0  0  0  0  0  0  0
    0.8320   45.7870   57.1290 Br  0  0  0  0  0  0  0  0  0  0  0  0
   -1.1280   44.8310   55.2070 C   0  0  0  0  0  0  0  0  0  0  0  0
   -1.2520   43.9440   53.7830 S   0  0  0  0  0  0  0  0  0  0  0  0
   -0.5786   43.7322   51.3828 H   0  0  0  0  0  0  0  0  0  0  0  0
    1.0360   43.8628   50.6065 H   0  0  0  0  0  0  0  0  0  0  0  0
    0.1638   42.2925   50.6065 H   0  0  0  0  0  0  0  0  0  0  0  0
    0.9005   41.7623   52.7078 H   0  0  0  0  0  0  0  0  0  0  0  0
    2.8180   43.4210   53.3800 H   0  0  0  0  0  0  0  0  0  0  0  0
    2.8251   43.7245   50.4524 H   0  0  0  0  0  0  0  0  0  0  0  0
    2.0994   44.9713   51.5585 H   0  0  0  0  0  0  0  0  0  0  0  0
    4.9760   44.1960   49.8520 H   0  0  0  0  0  0  0  0  0  0  0  0
    9.6995   45.5051   51.9033 H   0  0  0  0  0  0  0  0  0  0  0  0
    9.2529   47.0440   51.1995 H   0  0  0  0  0  0  0  0  0  0  0  0
   10.8619   46.5685   53.6076 H   0  0  0  0  0  0  0  0  0  0  0  0
   10.3864   48.1614   52.9523 H   0  0  0  0  0  0  0  0  0  0  0  0
    9.3790   46.8371   55.3734 H   0  0  0  0  0  0  0  0  0  0  0  0
    8.9222   48.4224   54.7988 H   0  0  0  0  0  0  0  0  0  0  0  0
    2.1522   44.1358   54.8353 H   0  0  0  0  0  0  0  0  0  0  0  0
   -1.9627   45.2943   55.7534 H   0  0  0  0  0  0  0  0  0  0  0  0
  1  2  1  0
  2  3  1  0
  3  4  1  0
  4  5  1  0
  5  6  2  0
  6  7  1  0
  7  8  1  0
  8  9  1  0
  9 10  2  0
 10 11  1  0
 11 12  1  0
 12 13  2  0
 12 14  1  0
 10 15  1  0
 15 16  1  0
 16 17  1  0
  2 18  1  0
 18 19  2  0
 19 20  1  0
 20 21  1  0
 20 22  2  0
 22 23  1  0
 14  5  1  0
 23 18  1  0
 11  7  2  0
 17  9  1  0
  1 24  1  0
  1 25  1  0
  1 26  1  0
  2 27  1  1
  3 28  1  0
  4 29  1  0
  4 30  1  0
 14 31  1  0
 15 32  1  0
 15 33  1  0
 16 34  1  0
 16 35  1  0
 17 36  1  0
 17 37  1  0
 19 38  1  0
 22 39  1  0
M  END
>  <meeko>  (3) 
{"is_sidechain": [false], "free_energy": -8.153, "intermolecular_energy": -10.116, "internal_energy": -0.423}

$$$$
ligand_21_conformer_4_docked
     RDKit          3D

 39 42  0  0  0  0  0  0  0  0999 V2000
    0.4960   44.5180   54.8110 C   0  0  0  0  0  0  0  0  0  0  0  0
    0.9330   45.2870   53.5610 C   0  0  1  0  0  0  0  0  0  0  0  0
    2.0180   46.2290   53.9050 N   0  0  0  0  0  0  0  0  0  0  0  0
    2.6710   46.8320   52.7300 C   0  0  0  0  0  0  0  0  0  0  0  0
    4.1710   46.7430   52.7990 C   0  0  0  0  0  0  0  0  0  0  0  0
    4.8630   46.2690   51.7220 N   0  0  0  0  0  0  0  0  0  0  0  0
    6.2140   46.2260   51.7740 C   0  0  0  0  0  0  0  0  0  0  0  0
    7.2610   45.6850   50.5540 S   0  0  0  0  0  0  0  0  0  0  0  0
    8.6230   46.0130   51.5000 C   0  0  0  0  0  0  0  0  0  0  0  0
    8.2890   46.5210   52.7060 C   0  0  0  0  0  0  0  0  0  0  0  0
    6.9150   46.6540   52.8880 C   0  0  0  0  0  0  0  0  0  0  0  0
    6.2060   47.1410   53.9840 C   0  0  0  0  0  0  0  0  0  0  0  0
    6.8030   47.5440   55.0170 O   0  0  0  0  0  0  0  0  0  0  0  0
    4.8410   47.1780   53.9150 N   0  0  0  0  0  0  0  0  0  0  0  0
    9.4690   46.8260   53.5390 C   0  0  0  0  0  0  0  0  0  0  0  0
   10.6540   46.4060   52.6290 C   0  0  0  0  0  0  0  0  0  0  0  0
   10.0740   45.8800   51.2900 C   0  0  0  0  0  0  0  0  0  0  0  0
    1.3790   44.3120   52.5040 C   0  0  0  0  0  0  0  0  0  0  0  0
    2.5950   43.6400   52.4840 C   0  0  0  0  0  0  0  0  0  0  0  0
    2.7280   42.7810   51.3890 C   0  0  0  0  0  0  0  0  0  0  0  0
    4.2810   41.7160   51.0880 Br  0  0  0  0  0  0  0  0  0  0  0  0
    1.6280   42.7690   50.5430 C   0  0  0  0  0  0  0  0  0  0  0  0
    0.4800   43.8330   51.1620 S   0  0  0  0  0  0  0  0  0  0  0  0
    0.8096   45.0699   55.7094 H   0  0  0  0  0  0  0  0  0  0  0  0
   -0.5986   44.4096   54.8108 H   0  0  0  0  0  0  0  0  0  0  0  0
    0.9631   43.5221   54.8108 H   0  0  0  0  0  0  0  0  0  0  0  0
    0.0867   45.8687   53.1668 H   0  0  0  0  0  0  0  0  0  0  0  0
    1.6210   47.0040   54.4890 H   0  0  0  0  0  0  0  0  0  0  0  0
    2.3272   46.3071   51.8266 H   0  0  0  0  0  0  0  0  0  0  0  0
    2.3990   47.8976   52.7051 H   0  0  0  0  0  0  0  0  0  0  0  0
    4.3010   47.5480   54.7310 H   0  0  0  0  0  0  0  0  0  0  0  0
    9.5163   47.8981   53.7807 H   0  0  0  0  0  0  0  0  0  0  0  0
    9.4615   46.3076   54.5092 H   0  0  0  0  0  0  0  0  0  0  0  0
   11.3029   47.2735   52.4385 H   0  0  0  0  0  0  0  0  0  0  0  0
   11.2501   45.6220   53.1190 H   0  0  0  0  0  0  0  0  0  0  0  0
   10.4112   46.4939   50.4418 H   0  0  0  0  0  0  0  0  0  0  0  0
   10.3907   44.8551   51.0463 H   0  0  0  0  0  0  0  0  0  0  0  0
    3.3729   43.7704   53.2507 H   0  0  0  0  0  0  0  0  0  0  0  0
    1.5244   42.1686   49.6272 H   0  0  0  0  0  0  0  0  0  0  0  0
  1  2  1  0
  2  3  1  0
  3  4  1  0
  4  5  1  0
  5  6  2  0
  6  7  1  0
  7  8  1  0
  8  9  1  0
  9 10  2  0
 10 11  1  0
 11 12  1  0
 12 13  2  0
 12 14  1  0
 10 15  1  0
 15 16  1  0
 16 17  1  0
  2 18  1  0
 18 19  2  0
 19 20  1  0
 20 21  1  0
 20 22  2  0
 22 23  1  0
 14  5  1  0
 23 18  1  0
 11  7  2  0
 17  9  1  0
  1 24  1  0
  1 25  1  0
  1 26  1  0
  2 27  1  6
  3 28  1  0
  4 29  1  0
  4 30  1  0
 14 31  1  0
 15 32  1  0
 15 33  1  0
 16 34  1  0
 16 35  1  0
 17 36  1  0
 17 37  1  0
 19 38  1  0
 22 39  1  0
M  END
>  <meeko>  (4) 
{"is_sidechain": [false], "free_energy": -7.943, "intermolecular_energy": -10.104, "internal_energy": -0.175}

$$$$
ligand_21_conformer_4_docked
     RDKit          3D

 39 42  0  0  0  0  0  0  0  0999 V2000
    2.4800   42.8320   51.4510 C   0  0  0  0  0  0  0  0  0  0  0  0
    1.6630   44.0030   52.0050 C   0  0  1  0  0  0  0  0  0  0  0  0
    1.9900   45.2380   51.2630 N   0  0  0  0  0  0  0  0  0  0  0  0
    2.3370   46.3760   52.1340 C   0  0  0  0  0  0  0  0  0  0  0  0
    3.8140   46.4590   52.4060 C   0  0  0  0  0  0  0  0  0  0  0  0
    4.6930   46.0170   51.4600 N   0  0  0  0  0  0  0  0  0  0  0  0
    6.0220   46.1280   51.6910 C   0  0  0  0  0  0  0  0  0  0  0  0
    7.2770   45.6530   50.6540 S   0  0  0  0  0  0  0  0  0  0  0  0
    8.4540   46.1750   51.7490 C   0  0  0  0  0  0  0  0  0  0  0  0
    7.9060   46.6970   52.8680 C   0  0  0  0  0  0  0  0  0  0  0  0
    6.5140   46.6830   52.8600 C   0  0  0  0  0  0  0  0  0  0  0  0
    5.6140   47.1370   53.8210 C   0  0  0  0  0  0  0  0  0  0  0  0
    6.0180   47.6510   54.8980 O   0  0  0  0  0  0  0  0  0  0  0  0
    4.2750   47.0170   53.5720 N   0  0  0  0  0  0  0  0  0  0  0  0
    8.9220   47.1710   53.8290 C   0  0  0  0  0  0  0  0  0  0  0  0
   10.2580   46.8450   53.1090 C   0  0  0  0  0  0  0  0  0  0  0  0
    9.9260   46.1970   51.7400 C   0  0  0  0  0  0  0  0  0  0  0  0
    0.1950   43.6830   51.9010 C   0  0  0  0  0  0  0  0  0  0  0  0
   -0.7590   44.4610   51.2570 C   0  0  0  0  0  0  0  0  0  0  0  0
   -2.0420   43.9050   51.3030 C   0  0  0  0  0  0  0  0  0  0  0  0
   -3.5620   44.7340   50.5040 Br  0  0  0  0  0  0  0  0  0  0  0  0
   -2.1080   42.6940   51.9790 C   0  0  0  0  0  0  0  0  0  0  0  0
   -0.5620   42.3110   52.5210 S   0  0  0  0  0  0  0  0  0  0  0  0
    2.8902   42.2440   52.2852 H   0  0  0  0  0  0  0  0  0  0  0  0
    1.8317   42.1916   50.8349 H   0  0  0  0  0  0  0  0  0  0  0  0
    3.3049   43.2194   50.8349 H   0  0  0  0  0  0  0  0  0  0  0  0
    1.9127   44.1632   53.0642 H   0  0  0  0  0  0  0  0  0  0  0  0
    2.8080   45.0500   50.6360 H   0  0  0  0  0  0  0  0  0  0  0  0
    2.0149   47.3069   51.6444 H   0  0  0  0  0  0  0  0  0  0  0  0
    1.8258   46.2300   53.0970 H   0  0  0  0  0  0  0  0  0  0  0  0
    3.5920   47.3600   54.2850 H   0  0  0  0  0  0  0  0  0  0  0  0
    8.8228   48.2516   54.0092 H   0  0  0  0  0  0  0  0  0  0  0  0
    8.8361   46.7007   54.8197 H   0  0  0  0  0  0  0  0  0  0  0  0
   10.8324   47.7701   52.9534 H   0  0  0  0  0  0  0  0  0  0  0  0
   10.8598   46.1556   53.7194 H   0  0  0  0  0  0  0  0  0  0  0  0
   10.3098   46.8058   50.9081 H   0  0  0  0  0  0  0  0  0  0  0  0
   10.3794   45.2043   51.6022 H   0  0  0  0  0  0  0  0  0  0  0  0
   -0.5292   45.4160   50.7618 H   0  0  0  0  0  0  0  0  0  0  0  0
   -3.0141   42.0897   52.1334 H   0  0  0  0  0  0  0  0  0  0  0  0
  1  2  1  0
  2  3  1  0
  3  4  1  0
  4  5  1  0
  5  6  2  0
  6  7  1  0
  7  8  1  0
  8  9  1  0
  9 10  2  0
 10 11  1  0
 11 12  1  0
 12 13  2  0
 12 14  1  0
 10 15  1  0
 15 16  1  0
 16 17  1  0
  2 18  1  0
 18 19  2  0
 19 20  1  0
 20 21  1  0
 20 22  2  0
 22 23  1  0
 14  5  1  0
 23 18  1  0
 11  7  2  0
 17  9  1  0
  1 24  1  0
  1 25  1  0
  1 26  1  0
  2 27  1  1
  3 28  1  0
  4 29  1  0
  4 30  1  0
 14 31  1  0
 15 32  1  0
 15 33  1  0
 16 34  1  0
 16 35  1  0
 17 36  1  0
 17 37  1  0
 19 38  1  0
 22 39  1  0
M  END
>  <meeko>  (5) 
{"is_sidechain": [false], "free_energy": -7.856, "intermolecular_energy": -9.767, "internal_energy": -0.405}

$$$$
