MODEL 1
REMARK VINA RESULT:    -9.425      0.000      0.000
REMARK INTER + INTRA:         -12.125
REMARK INTER:                 -11.629
REMARK INTRA:                  -0.496
REMARK UNBOUND:                -0.496
REMARK SMILES c1ccc(Oc2ccnc(N[C@@H]3CC[C@H]4OCC[C@H]4C3)n2)cc1
REMARK SMILES IDX 6 1 7 2 8 3 9 4 10 5 21 6 5 7 4 8 1 9 2 10 23 11 3 12 22 13
REMARK SMILES IDX 11 14 12 16 13 17 20 18 14 19 19 20 15 21 18 22 16 23 17 24
REMARK H PARENT 11 15
ROOT
ATOM      1  C   UNL     1       5.313  46.888  53.681  1.00  0.00     0.224 A 
ATOM      2  C   UNL     1       4.329  47.311  54.575  1.00  0.00     0.089 A 
ATOM      3  C   UNL     1       3.331  46.409  54.943  1.00  0.00     0.121 A 
ATOM      4  N   UNL     1       3.326  45.153  54.429  1.00  0.00    -0.221 NA
ATOM      5  C   UNL     1       4.284  44.754  53.550  1.00  0.00     0.226 A 
ATOM      6  N   UNL     1       5.262  45.624  53.180  1.00  0.00    -0.177 NA
ENDROOT
BRANCH   1   7
ATOM      7  O   UNL     1       6.316  47.782  53.283  1.00  0.00    -0.439 OA
BRANCH   7   8
ATOM      8  C   UNL     1       7.658  47.434  53.073  1.00  0.00     0.129 A 
ATOM      9  C   UNL     1      10.356  46.736  52.730  1.00  0.00     0.000 A 
ATOM     10  C   UNL     1       9.513  46.828  51.619  1.00  0.00     0.004 A 
ATOM     11  C   UNL     1       9.850  46.973  54.011  1.00  0.00     0.004 A 
ATOM     12  C   UNL     1       8.167  47.166  51.787  1.00  0.00     0.047 A 
ATOM     13  C   UNL     1       8.505  47.314  54.182  1.00  0.00     0.047 A 
ENDBRANCH   7   8
ENDBRANCH   1   7
BRANCH   5  14
ATOM     14  N   UNL     1       4.256  43.422  53.019  1.00  0.00    -0.351 N 
ATOM     15  H   UNL     1       4.408  42.630  53.683  1.00  0.00     0.163 HD
BRANCH  14  16
ATOM     16  C   UNL     1       3.980  43.151  51.601  1.00  0.00     0.082 C 
ATOM     17  C   UNL     1       3.740  41.637  51.370  1.00  0.00     0.027 C 
ATOM     18  C   UNL     1       5.110  43.725  50.707  1.00  0.00     0.031 C 
ATOM     19  C   UNL     1       4.086  41.235  49.933  1.00  0.00     0.034 C 
ATOM     20  C   UNL     1       6.182  42.668  50.363  1.00  0.00     0.022 C 
ATOM     21  C   UNL     1       5.591  41.433  49.664  1.00  0.00     0.121 C 
ATOM     22  C   UNL     1       7.165  43.179  49.346  1.00  0.00     0.035 C 
ATOM     23  O   UNL     1       5.822  41.520  48.274  1.00  0.00    -0.378 OA
ATOM     24  C   UNL     1       6.604  42.669  48.035  1.00  0.00     0.161 C 
ENDBRANCH  14  16
ENDBRANCH   5  14
TORSDOF 4
ENDMDL
MODEL 2
REMARK VINA RESULT:    -9.079      1.557      2.285
REMARK INTER + INTRA:         -11.698
REMARK INTER:                 -11.071
REMARK INTRA:                  -0.627
REMARK UNBOUND:                -0.496
REMARK SMILES c1ccc(Oc2ccnc(N[C@@H]3CC[C@H]4OCC[C@H]4C3)n2)cc1
REMARK SMILES IDX 6 1 7 2 8 3 9 4 10 5 21 6 5 7 4 8 1 9 2 10 23 11 3 12 22 13
REMARK SMILES IDX 11 14 12 16 13 17 20 18 14 19 19 20 15 21 18 22 16 23 17 24
REMARK H PARENT 11 15
ROOT
ATOM      1  C   UNL     1       5.447  47.294  53.653  1.00  0.00     0.224 A 
ATOM      2  C   UNL     1       5.401  46.755  54.939  1.00  0.00     0.089 A 
ATOM      3  C   UNL     1       4.261  46.050  55.326  1.00  0.00     0.121 A 
ATOM      4  N   UNL     1       3.224  45.907  54.461  1.00  0.00    -0.221 NA
ATOM      5  C   UNL     1       3.275  46.445  53.212  1.00  0.00     0.226 A 
ATOM      6  N   UNL     1       4.380  47.136  52.824  1.00  0.00    -0.177 NA
ENDROOT
BRANCH   1   7
ATOM      7  O   UNL     1       6.575  48.019  53.248  1.00  0.00    -0.439 OA
BRANCH   7   8
ATOM      8  C   UNL     1       7.809  47.450  52.902  1.00  0.00     0.129 A 
ATOM      9  C   UNL     1      10.248  46.284  52.141  1.00  0.00     0.000 A 
ATOM     10  C   UNL     1      10.171  47.033  53.318  1.00  0.00     0.004 A 
ATOM     11  C   UNL     1       9.116  46.131  51.335  1.00  0.00     0.004 A 
ATOM     12  C   UNL     1       8.960  47.623  53.695  1.00  0.00     0.047 A 
ATOM     13  C   UNL     1       7.903  46.717  51.711  1.00  0.00     0.047 A 
ENDBRANCH   7   8
ENDBRANCH   1   7
BRANCH   5  14
ATOM     14  N   UNL     1       2.167  46.281  52.318  1.00  0.00    -0.351 N 
ATOM     15  H   UNL     1       1.428  47.020  52.318  1.00  0.00     0.163 HD
BRANCH  14  16
ATOM     16  C   UNL     1       2.071  45.144  51.392  1.00  0.00     0.082 C 
ATOM     17  C   UNL     1       1.369  43.942  52.072  1.00  0.00     0.027 C 
ATOM     18  C   UNL     1       3.469  44.783  50.826  1.00  0.00     0.031 C 
ATOM     19  C   UNL     1       1.804  42.616  51.440  1.00  0.00     0.034 C 
ATOM     20  C   UNL     1       4.153  43.654  51.625  1.00  0.00     0.022 C 
ATOM     21  C   UNL     1       3.307  42.372  51.679  1.00  0.00     0.121 C 
ATOM     22  C   UNL     1       5.417  43.183  50.958  1.00  0.00     0.035 C 
ATOM     23  O   UNL     1       3.797  41.442  50.736  1.00  0.00    -0.378 OA
ATOM     24  C   UNL     1       4.956  41.988  50.149  1.00  0.00     0.161 C 
ENDBRANCH  14  16
ENDBRANCH   5  14
TORSDOF 4
ENDMDL
MODEL 3
REMARK VINA RESULT:    -9.045      2.092      4.889
REMARK INTER + INTRA:         -11.656
REMARK INTER:                 -11.207
REMARK INTRA:                  -0.449
REMARK UNBOUND:                -0.496
REMARK SMILES c1ccc(Oc2ccnc(N[C@@H]3CC[C@H]4OCC[C@H]4C3)n2)cc1
REMARK SMILES IDX 6 1 7 2 8 3 9 4 10 5 21 6 5 7 4 8 1 9 2 10 23 11 3 12 22 13
REMARK SMILES IDX 11 14 12 16 13 17 20 18 14 19 19 20 15 21 18 22 16 23 17 24
REMARK H PARENT 11 15
ROOT
ATOM      1  C   UNL     1       7.680  45.056  50.072  1.00  0.00     0.224 A 
ATOM      2  C   UNL     1       8.211  44.158  49.145  1.00  0.00     0.089 A 
ATOM      3  C   UNL     1       7.546  42.951  48.930  1.00  0.00     0.121 A 
ATOM      4  N   UNL     1       6.411  42.667  49.621  1.00  0.00    -0.221 NA
ATOM      5  C   UNL     1       5.908  43.545  50.530  1.00  0.00     0.226 A 
ATOM      6  N   UNL     1       6.548  44.725  50.751  1.00  0.00    -0.177 NA
ENDROOT
BRANCH   1   7
ATOM      7  O   UNL     1       8.339  46.268  50.316  1.00  0.00    -0.439 OA
BRANCH   7   8
ATOM      8  C   UNL     1       8.667  46.756  51.589  1.00  0.00     0.129 A 
ATOM      9  C   UNL     1       9.378  47.677  54.145  1.00  0.00     0.000 A 
ATOM     10  C   UNL     1       8.435  48.378  53.389  1.00  0.00     0.004 A 
ATOM     11  C   UNL     1       9.980  46.529  53.621  1.00  0.00     0.004 A 
ATOM     12  C   UNL     1       8.085  47.928  52.112  1.00  0.00     0.047 A 
ATOM     13  C   UNL     1       9.630  46.075  52.345  1.00  0.00     0.047 A 
ENDBRANCH   7   8
ENDBRANCH   1   7
BRANCH   5  14
ATOM     14  N   UNL     1       4.710  43.221  51.249  1.00  0.00    -0.351 N 
ATOM     15  H   UNL     1       4.471  42.211  51.365  1.00  0.00     0.163 HD
BRANCH  14  16
ATOM     16  C   UNL     1       3.855  44.254  51.850  1.00  0.00     0.082 C 
ATOM     17  C   UNL     1       3.739  45.482  50.911  1.00  0.00     0.027 C 
ATOM     18  C   UNL     1       4.363  44.625  53.267  1.00  0.00     0.031 C 
ATOM     19  C   UNL     1       3.439  46.758  51.704  1.00  0.00     0.034 C 
ATOM     20  C   UNL     1       5.288  45.861  53.255  1.00  0.00     0.022 C 
ATOM     21  C   UNL     1       4.613  47.099  52.643  1.00  0.00     0.121 C 
ATOM     22  C   UNL     1       5.620  46.326  54.647  1.00  0.00     0.035 C 
ATOM     23  O   UNL     1       4.168  47.954  53.675  1.00  0.00    -0.378 OA
ATOM     24  C   UNL     1       4.594  47.409  54.904  1.00  0.00     0.161 C 
ENDBRANCH  14  16
ENDBRANCH   5  14
TORSDOF 4
ENDMDL
MODEL 4
REMARK VINA RESULT:    -8.917      2.971      5.130
REMARK INTER + INTRA:         -11.498
REMARK INTER:                 -10.904
REMARK INTRA:                  -0.594
REMARK UNBOUND:                -0.496
REMARK SMILES c1ccc(Oc2ccnc(N[C@@H]3CC[C@H]4OCC[C@H]4C3)n2)cc1
REMARK SMILES IDX 6 1 7 2 8 3 9 4 10 5 21 6 5 7 4 8 1 9 2 10 23 11 3 12 22 13
REMARK SMILES IDX 11 14 12 16 13 17 20 18 14 19 19 20 15 21 18 22 16 23 17 24
REMARK H PARENT 11 15
ROOT
ATOM      1  C   UNL     1       6.281  44.813  50.829  1.00  0.00     0.224 A 
ATOM      2  C   UNL     1       6.645  43.834  49.903  1.00  0.00     0.089 A 
ATOM      3  C   UNL     1       5.984  42.606  49.938  1.00  0.00     0.121 A 
ATOM      4  N   UNL     1       5.015  42.381  50.863  1.00  0.00    -0.221 NA
ATOM      5  C   UNL     1       4.675  43.339  51.767  1.00  0.00     0.226 A 
ATOM      6  N   UNL     1       5.314  44.540  51.745  1.00  0.00    -0.177 NA
ENDROOT
BRANCH   1   7
ATOM      7  O   UNL     1       6.942  46.048  50.824  1.00  0.00    -0.439 OA
BRANCH   7   8
ATOM      8  C   UNL     1       7.912  46.439  51.758  1.00  0.00     0.129 A 
ATOM      9  C   UNL     1       9.909  47.190  53.583  1.00  0.00     0.000 A 
ATOM     10  C   UNL     1       8.582  47.560  53.812  1.00  0.00     0.004 A 
ATOM     11  C   UNL     1      10.244  46.463  52.437  1.00  0.00     0.004 A 
ATOM     12  C   UNL     1       7.586  47.196  52.901  1.00  0.00     0.047 A 
ATOM     13  C   UNL     1       9.250  46.094  51.525  1.00  0.00     0.047 A 
ENDBRANCH   7   8
ENDBRANCH   1   7
BRANCH   5  14
ATOM     14  N   UNL     1       3.650  43.076  52.734  1.00  0.00    -0.351 N 
ATOM     15  H   UNL     1       3.934  43.006  53.737  1.00  0.00     0.163 HD
BRANCH  14  16
ATOM     16  C   UNL     1       2.234  42.950  52.359  1.00  0.00     0.082 C 
ATOM     17  C   UNL     1       1.853  44.013  51.298  1.00  0.00     0.027 C 
ATOM     18  C   UNL     1       1.331  43.004  53.618  1.00  0.00     0.031 C 
ATOM     19  C   UNL     1       0.359  44.344  51.358  1.00  0.00     0.034 C 
ATOM     20  C   UNL     1       0.792  44.424  53.895  1.00  0.00     0.022 C 
ATOM     21  C   UNL     1       0.005  45.000  52.707  1.00  0.00     0.121 C 
ATOM     22  C   UNL     1      -0.230  44.430  54.998  1.00  0.00     0.035 C 
ATOM     23  O   UNL     1      -1.380  44.873  52.953  1.00  0.00    -0.378 OA
ATOM     24  C   UNL     1      -1.545  44.351  54.252  1.00  0.00     0.161 C 
ENDBRANCH  14  16
ENDBRANCH   5  14
TORSDOF 4
ENDMDL
MODEL 5
REMARK VINA RESULT:    -8.868      2.356      5.403
REMARK INTER + INTRA:         -11.437
REMARK INTER:                 -11.013
REMARK INTRA:                  -0.424
REMARK UNBOUND:                -0.496
REMARK SMILES c1ccc(Oc2ccnc(N[C@@H]3CC[C@H]4OCC[C@H]4C3)n2)cc1
REMARK SMILES IDX 6 1 7 2 8 3 9 4 10 5 21 6 5 7 4 8 1 9 2 10 23 11 3 12 22 13
REMARK SMILES IDX 11 14 12 16 13 17 20 18 14 19 19 20 15 21 18 22 16 23 17 24
REMARK H PARENT 11 15
ROOT
ATOM      1  C   UNL     1       8.550  46.468  51.930  1.00  0.00     0.224 A 
ATOM      2  C   UNL     1       9.858  46.514  52.417  1.00  0.00     0.089 A 
ATOM      3  C   UNL     1      10.058  46.841  53.758  1.00  0.00     0.121 A 
ATOM      4  N   UNL     1       8.995  47.115  54.558  1.00  0.00    -0.221 NA
ATOM      5  C   UNL     1       7.726  47.078  54.070  1.00  0.00     0.226 A 
ATOM      6  N   UNL     1       7.517  46.762  52.764  1.00  0.00    -0.177 NA
ENDROOT
BRANCH   1   7
ATOM      7  O   UNL     1       8.325  46.158  50.583  1.00  0.00    -0.439 OA
BRANCH   7   8
ATOM      8  C   UNL     1       7.661  45.009  50.129  1.00  0.00     0.129 A 
ATOM      9  C   UNL     1       6.396  42.691  49.175  1.00  0.00     0.000 A 
ATOM     10  C   UNL     1       5.766  43.482  50.138  1.00  0.00     0.004 A 
ATOM     11  C   UNL     1       7.663  43.044  48.701  1.00  0.00     0.004 A 
ATOM     12  C   UNL     1       6.397  44.633  50.623  1.00  0.00     0.047 A 
ATOM     13  C   UNL     1       8.296  44.195  49.181  1.00  0.00     0.047 A 
ENDBRANCH   7   8
ENDBRANCH   1   7
BRANCH   5  14
ATOM     14  N   UNL     1       6.621  47.373  54.935  1.00  0.00    -0.351 N 
ATOM     15  H   UNL     1       6.652  48.266  55.477  1.00  0.00     0.163 HD
BRANCH  14  16
ATOM     16  C   UNL     1       5.451  46.489  55.039  1.00  0.00     0.082 C 
ATOM     17  C   UNL     1       5.778  45.082  54.478  1.00  0.00     0.027 C 
ATOM     18  C   UNL     1       4.217  47.136  54.358  1.00  0.00     0.031 C 
ATOM     19  C   UNL     1       4.513  44.377  53.979  1.00  0.00     0.034 C 
ATOM     20  C   UNL     1       4.035  46.665  52.900  1.00  0.00     0.022 C 
ATOM     21  C   UNL     1       3.906  45.138  52.784  1.00  0.00     0.121 C 
ATOM     22  C   UNL     1       2.736  47.147  52.314  1.00  0.00     0.035 C 
ATOM     23  O   UNL     1       2.547  44.787  52.633  1.00  0.00    -0.378 OA
ATOM     24  C   UNL     1       1.799  45.979  52.542  1.00  0.00     0.161 C 
ENDBRANCH  14  16
ENDBRANCH   5  14
TORSDOF 4
ENDMDL
