ligand_57_conformer_2_docked
     RDKit          3D

 45 49  0  0  0  0  0  0  0  0999 V2000
    4.4990   44.8430   55.7140 O   0  0  0  0  0  0  0  0  0  0  0  0
    4.8500   44.9680   54.3640 C   0  0  0  0  0  0  0  0  0  0  0  0
    3.6810   44.5660   53.4600 C   0  0  0  0  0  0  0  0  0  0  0  0
    3.9550   44.8610   51.9690 C   0  0  1  0  0  0  0  0  0  0  0  0
    4.9820   46.0150   51.7550 C   0  0  0  0  0  0  0  0  0  0  0  0
    6.0710   45.4480   50.9620 N   0  0  0  0  0  0  0  0  0  0  0  0
    7.1980   46.2210   50.4370 C   0  0  0  0  0  0  0  0  0  0  0  0
    8.3080   46.3330   51.4840 C   0  0  2  0  0  0  0  0  0  0  0  0
    8.7520   47.7220   51.9210 C   0  0  0  0  0  0  0  0  0  0  0  0
    9.2370   46.8690   53.0750 C   0  0  2  0  0  0  0  0  0  0  0  0
    9.5590   47.4980   54.3920 C   0  0  0  0  0  0  0  0  0  0  0  0
   10.5930   47.1310   55.1740 N   0  0  0  0  0  0  0  0  0  0  0  0
   10.4760   47.8800   56.2590 N   0  0  0  0  0  0  0  0  0  0  0  0
    9.4130   48.6550   56.1390 N   0  0  0  0  0  0  0  0  0  0  0  0
    8.8040   48.4410   54.9860 N   0  0  0  0  0  0  0  0  0  0  0  0
   10.2670   46.0210   52.3480 C   0  0  0  0  0  0  0  0  0  0  0  0
    9.5220   45.6650   51.1890 O   0  0  0  0  0  0  0  0  0  0  0  0
    8.0250   45.9720   52.9350 C   0  0  0  0  0  0  0  0  0  0  0  0
    5.8090   44.0730   50.7350 C   0  0  0  0  0  0  0  0  0  0  0  0
    6.6110   43.1590   50.0440 C   0  0  0  0  0  0  0  0  0  0  0  0
    6.1510   41.8400   49.9030 C   0  0  0  0  0  0  0  0  0  0  0  0
    4.9100   41.4590   50.4470 C   0  0  0  0  0  0  0  0  0  0  0  0
    4.1290   42.3950   51.1440 C   0  0  0  0  0  0  0  0  0  0  0  0
    4.6150   43.6980   51.2920 C   0  0  0  0  0  0  0  0  0  0  0  0
    5.0770   45.4800   56.2090 H   0  0  0  0  0  0  0  0  0  0  0  0
    5.1230   46.0134   54.1574 H   0  0  0  0  0  0  0  0  0  0  0  0
    5.7012   44.3026   54.1574 H   0  0  0  0  0  0  0  0  0  0  0  0
    3.4988   43.4876   53.5782 H   0  0  0  0  0  0  0  0  0  0  0  0
    2.8062   45.1605   53.7621 H   0  0  0  0  0  0  0  0  0  0  0  0
    2.9622   45.1056   51.5633 H   0  0  0  0  0  0  0  0  0  0  0  0
    4.5111   46.8496   51.2149 H   0  0  0  0  0  0  0  0  0  0  0  0
    5.3475   46.4101   52.7143 H   0  0  0  0  0  0  0  0  0  0  0  0
    7.5946   45.7196   49.5418 H   0  0  0  0  0  0  0  0  0  0  0  0
    6.8469   47.2320   50.1826 H   0  0  0  0  0  0  0  0  0  0  0  0
    9.5260   48.2070   51.3080 H   0  0  0  0  0  0  0  0  0  0  0  0
    8.1180   48.6180   51.9924 H   0  0  0  0  0  0  0  0  0  0  0  0
    9.0940   49.3390   56.8590 H   0  0  0  0  0  0  0  0  0  0  0  0
   11.1662   46.6009   52.0928 H   0  0  0  0  0  0  0  0  0  0  0  0
   10.6579   45.1708   52.9262 H   0  0  0  0  0  0  0  0  0  0  0  0
    8.1588   44.9166   53.2147 H   0  0  0  0  0  0  0  0  0  0  0  0
    7.0652   46.0845   53.4606 H   0  0  0  0  0  0  0  0  0  0  0  0
    7.5789   43.4662   49.6212 H   0  0  0  0  0  0  0  0  0  0  0  0
    6.7631   41.1011   49.3650 H   0  0  0  0  0  0  0  0  0  0  0  0
    4.5513   40.4262   50.3259 H   0  0  0  0  0  0  0  0  0  0  0  0
    3.1540   42.1089   51.5654 H   0  0  0  0  0  0  0  0  0  0  0  0
  1  2  1  0
  2  3  1  0
  3  4  1  0
  4  5  1  0
  5  6  1  0
  6  7  1  0
  8  7  1  6
  8  9  1  0
  9 10  1  0
 10 11  1  1
 11 12  1  0
 12 13  2  0
 13 14  1  0
 14 15  1  0
 10 16  1  0
 16 17  1  0
 10 18  1  0
  6 19  1  0
 19 20  2  0
 20 21  1  0
 21 22  2  0
 22 23  1  0
 23 24  2  0
 24  4  1  0
 17  8  1  0
 24 19  1  0
 18  8  1  0
 15 11  2  0
  1 25  1  0
  2 26  1  0
  2 27  1  0
  3 28  1  0
  3 29  1  0
  4 30  1  6
  5 31  1  0
  5 32  1  0
  7 33  1  0
  7 34  1  0
  9 35  1  0
  9 36  1  0
 14 37  1  0
 16 38  1  0
 16 39  1  0
 18 40  1  0
 18 41  1  0
 20 42  1  0
 21 43  1  0
 22 44  1  0
 23 45  1  0
M  END
>  <meeko>  (1) 
{"is_sidechain": [false], "free_energy": -9.456, "intermolecular_energy": -12.496, "internal_energy": -0.413}

$$$$
ligand_57_conformer_2_docked
     RDKit          3D

 45 49  0  0  0  0  0  0  0  0999 V2000
    8.3210   43.0680   48.9120 O   0  0  0  0  0  0  0  0  0  0  0  0
    8.2550   44.4100   49.3060 C   0  0  0  0  0  0  0  0  0  0  0  0
    7.2510   44.5900   50.4480 C   0  0  0  0  0  0  0  0  0  0  0  0
    7.1300   46.0610   50.9050 C   0  0  1  0  0  0  0  0  0  0  0  0
    5.7650   46.3770   51.5890 C   0  0  0  0  0  0  0  0  0  0  0  0
    6.0860   46.8830   52.9230 N   0  0  0  0  0  0  0  0  0  0  0  0
    5.0960   47.4060   53.8650 C   0  0  0  0  0  0  0  0  0  0  0  0
    4.0510   46.3390   54.1970 C   0  0  2  0  0  0  0  0  0  0  0  0
    2.7740   46.2950   53.3690 C   0  0  0  0  0  0  0  0  0  0  0  0
    2.8070   44.8980   53.9540 C   0  0  2  0  0  0  0  0  0  0  0  0
    1.9990   43.8040   53.3340 C   0  0  0  0  0  0  0  0  0  0  0  0
    0.9380   43.2190   53.9230 N   0  0  0  0  0  0  0  0  0  0  0  0
    0.5640   42.2710   53.0790 N   0  0  0  0  0  0  0  0  0  0  0  0
    1.3730   42.2780   52.0340 N   0  0  0  0  0  0  0  0  0  0  0  0
    2.2920   43.2180   52.1580 N   0  0  0  0  0  0  0  0  0  0  0  0
    2.6530   45.2360   55.4270 C   0  0  0  0  0  0  0  0  0  0  0  0
    3.5900   46.3030   55.5370 O   0  0  0  0  0  0  0  0  0  0  0  0
    4.3180   44.8800   53.8540 C   0  0  0  0  0  0  0  0  0  0  0  0
    7.4920   46.8480   53.1020 C   0  0  0  0  0  0  0  0  0  0  0  0
    8.2100   47.2190   54.2440 C   0  0  0  0  0  0  0  0  0  0  0  0
    9.6110   47.1380   54.2070 C   0  0  0  0  0  0  0  0  0  0  0  0
   10.2650   46.6940   53.0420 C   0  0  0  0  0  0  0  0  0  0  0  0
    9.5190   46.3180   51.9140 C   0  0  0  0  0  0  0  0  0  0  0  0
    8.1240   46.3850   51.9790 C   0  0  0  0  0  0  0  0  0  0  0  0
    8.1600   42.5320   49.7310 H   0  0  0  0  0  0  0  0  0  0  0  0
    9.2494   44.7362   49.6447 H   0  0  0  0  0  0  0  0  0  0  0  0
    7.9267   45.0148   48.4478 H   0  0  0  0  0  0  0  0  0  0  0  0
    6.2639   44.2444   50.1073 H   0  0  0  0  0  0  0  0  0  0  0  0
    7.6121   44.0029   51.3053 H   0  0  0  0  0  0  0  0  0  0  0  0
    7.2745   46.6359   49.9784 H   0  0  0  0  0  0  0  0  0  0  0  0
    5.2172   47.1380   51.0139 H   0  0  0  0  0  0  0  0  0  0  0  0
    5.1261   45.4831   51.6418 H   0  0  0  0  0  0  0  0  0  0  0  0
    5.6050   47.7136   54.7904 H   0  0  0  0  0  0  0  0  0  0  0  0
    4.5893   48.2670   53.4047 H   0  0  0  0  0  0  0  0  0  0  0  0
    1.9514   46.9471   53.6978 H   0  0  0  0  0  0  0  0  0  0  0  0
    2.6764   46.5552   52.3047 H   0  0  0  0  0  0  0  0  0  0  0  0
    1.2990   41.6250   51.2230 H   0  0  0  0  0  0  0  0  0  0  0  0
    1.6307   45.5647   55.6654 H   0  0  0  0  0  0  0  0  0  0  0  0
    2.8262   44.3954   56.1151 H   0  0  0  0  0  0  0  0  0  0  0  0
    4.8542   44.2870   54.6095 H   0  0  0  0  0  0  0  0  0  0  0  0
    4.9119   44.5066   53.0067 H   0  0  0  0  0  0  0  0  0  0  0  0
    7.6894   47.5657   55.1489 H   0  0  0  0  0  0  0  0  0  0  0  0
   10.1999   47.4225   55.0914 H   0  0  0  0  0  0  0  0  0  0  0  0
   11.3634   46.6416   53.0157 H   0  0  0  0  0  0  0  0  0  0  0  0
   10.0220   45.9774   50.9970 H   0  0  0  0  0  0  0  0  0  0  0  0
  1  2  1  0
  2  3  1  0
  3  4  1  0
  4  5  1  0
  5  6  1  0
  6  7  1  0
  8  7  1  1
  8  9  1  0
  9 10  1  0
 10 11  1  6
 11 12  1  0
 12 13  2  0
 13 14  1  0
 14 15  1  0
 10 16  1  0
 16 17  1  0
 10 18  1  0
  6 19  1  0
 19 20  2  0
 20 21  1  0
 21 22  2  0
 22 23  1  0
 23 24  2  0
 24  4  1  0
 17  8  1  0
 24 19  1  0
 18  8  1  0
 15 11  2  0
  1 25  1  0
  2 26  1  0
  2 27  1  0
  3 28  1  0
  3 29  1  0
  4 30  1  6
  5 31  1  0
  5 32  1  0
  7 33  1  0
  7 34  1  0
  9 35  1  0
  9 36  1  0
 14 37  1  0
 16 38  1  0
 16 39  1  0
 18 40  1  0
 18 41  1  0
 20 42  1  0
 21 43  1  0
 22 44  1  0
 23 45  1  0
M  END
>  <meeko>  (2) 
{"is_sidechain": [false], "free_energy": -8.801, "intermolecular_energy": -12.114, "internal_energy": 0.069}

$$$$
ligand_57_conformer_2_docked
     RDKit          3D

 45 49  0  0  0  0  0  0  0  0999 V2000
   10.6450   48.2900   57.1310 O   0  0  0  0  0  0  0  0  0  0  0  0
   10.6420   47.5520   55.9400 C   0  0  0  0  0  0  0  0  0  0  0  0
    9.5200   48.0270   55.0120 C   0  0  0  0  0  0  0  0  0  0  0  0
    8.5920   46.8760   54.5660 C   0  0  1  0  0  0  0  0  0  0  0  0
    7.0850   47.2780   54.5530 C   0  0  0  0  0  0  0  0  0  0  0  0
    6.6140   47.0440   53.1890 N   0  0  0  0  0  0  0  0  0  0  0  0
    5.2210   47.1860   52.7630 C   0  0  0  0  0  0  0  0  0  0  0  0
    4.5610   45.8130   52.6130 C   0  0  2  0  0  0  0  0  0  0  0  0
    4.1670   45.3490   51.2190 C   0  0  0  0  0  0  0  0  0  0  0  0
    4.2240   44.0360   51.9720 C   0  0  2  0  0  0  0  0  0  0  0  0
    4.3400   42.7460   51.2280 C   0  0  0  0  0  0  0  0  0  0  0  0
    5.3890   42.4100   50.4530 N   0  0  0  0  0  0  0  0  0  0  0  0
    5.0630   41.2370   49.9330 N   0  0  0  0  0  0  0  0  0  0  0  0
    3.8650   40.8890   50.3690 N   0  0  0  0  0  0  0  0  0  0  0  0
    3.3720   41.8120   51.1760 N   0  0  0  0  0  0  0  0  0  0  0  0
    3.0930   44.2620   52.9610 C   0  0  0  0  0  0  0  0  0  0  0  0
    3.3980   45.5850   53.3900 O   0  0  0  0  0  0  0  0  0  0  0  0
    5.3870   44.5480   52.7960 C   0  0  0  0  0  0  0  0  0  0  0  0
    7.7010   46.5950   52.3970 C   0  0  0  0  0  0  0  0  0  0  0  0
    7.6850   46.2830   51.0330 C   0  0  0  0  0  0  0  0  0  0  0  0
    8.8700   45.8210   50.4400 C   0  0  0  0  0  0  0  0  0  0  0  0
   10.0400   45.6780   51.2100 C   0  0  0  0  0  0  0  0  0  0  0  0
   10.0310   46.0080   52.5750 C   0  0  0  0  0  0  0  0  0  0  0  0
    8.8450   46.4860   53.1410 C   0  0  0  0  0  0  0  0  0  0  0  0
   10.8090   47.6360   57.8590 H   0  0  0  0  0  0  0  0  0  0  0  0
   11.6094   47.6813   55.4326 H   0  0  0  0  0  0  0  0  0  0  0  0
   10.4765   46.4916   56.1813 H   0  0  0  0  0  0  0  0  0  0  0  0
    8.9182   48.7793   55.5430 H   0  0  0  0  0  0  0  0  0  0  0  0
    9.9887   48.4463   54.1095 H   0  0  0  0  0  0  0  0  0  0  0  0
    8.8040   46.0746   55.2891 H   0  0  0  0  0  0  0  0  0  0  0  0
    6.5186   46.6584   55.2639 H   0  0  0  0  0  0  0  0  0  0  0  0
    6.9469   48.3278   54.8510 H   0  0  0  0  0  0  0  0  0  0  0  0
    4.6710   47.7714   53.5146 H   0  0  0  0  0  0  0  0  0  0  0  0
    5.1981   47.6987   51.7901 H   0  0  0  0  0  0  0  0  0  0  0  0
    3.1780   45.6657   50.8561 H   0  0  0  0  0  0  0  0  0  0  0  0
    4.6889   45.5863   50.2802 H   0  0  0  0  0  0  0  0  0  0  0  0
    3.3710   40.0080   50.1060 H   0  0  0  0  0  0  0  0  0  0  0  0
    2.1082   44.2080   52.4738 H   0  0  0  0  0  0  0  0  0  0  0  0
    3.0285   43.5173   53.7680 H   0  0  0  0  0  0  0  0  0  0  0  0
    5.4721   44.1598   53.8217 H   0  0  0  0  0  0  0  0  0  0  0  0
    6.4553   44.4265   52.5637 H   0  0  0  0  0  0  0  0  0  0  0  0
    6.7657   46.3971   50.4399 H   0  0  0  0  0  0  0  0  0  0  0  0
    8.8848   45.5696   49.3692 H   0  0  0  0  0  0  0  0  0  0  0  0
   10.9634   45.3069   50.7413 H   0  0  0  0  0  0  0  0  0  0  0  0
   10.9382   45.8928   53.1863 H   0  0  0  0  0  0  0  0  0  0  0  0
  1  2  1  0
  2  3  1  0
  3  4  1  0
  4  5  1  0
  5  6  1  0
  6  7  1  0
  8  7  1  6
  8  9  1  0
  9 10  1  0
 10 11  1  6
 11 12  1  0
 12 13  2  0
 13 14  1  0
 14 15  1  0
 10 16  1  0
 16 17  1  0
 10 18  1  0
  6 19  1  0
 19 20  2  0
 20 21  1  0
 21 22  2  0
 22 23  1  0
 23 24  2  0
 24  4  1  0
 17  8  1  0
 24 19  1  0
 18  8  1  0
 15 11  2  0
  1 25  1  0
  2 26  1  0
  2 27  1  0
  3 28  1  0
  3 29  1  0
  4 30  1  1
  5 31  1  0
  5 32  1  0
  7 33  1  0
  7 34  1  0
  9 35  1  0
  9 36  1  0
 14 37  1  0
 16 38  1  0
 16 39  1  0
 18 40  1  0
 18 41  1  0
 20 42  1  0
 21 43  1  0
 22 44  1  0
 23 45  1  0
M  END
>  <meeko>  (3) 
{"is_sidechain": [false], "free_energy": -8.167, "intermolecular_energy": -11.066, "internal_energy": -0.139}

$$$$
ligand_57_conformer_2_docked
     RDKit          3D

 45 49  0  0  0  0  0  0  0  0999 V2000
    8.8500   43.7400   48.7100 O   0  0  0  0  0  0  0  0  0  0  0  0
    7.4990   43.4370   48.9180 C   0  0  0  0  0  0  0  0  0  0  0  0
    7.0620   43.8450   50.3280 C   0  0  0  0  0  0  0  0  0  0  0  0
    6.8520   45.3700   50.4650 C   0  0  1  0  0  0  0  0  0  0  0  0
    5.4650   45.7410   51.0710 C   0  0  0  0  0  0  0  0  0  0  0  0
    5.7420   46.5340   52.2670 N   0  0  0  0  0  0  0  0  0  0  0  0
    4.7150   47.1850   53.0810 C   0  0  0  0  0  0  0  0  0  0  0  0
    3.7370   46.1510   53.6430 C   0  0  2  0  0  0  0  0  0  0  0  0
    3.5510   46.0770   55.1510 C   0  0  0  0  0  0  0  0  0  0  0  0
    2.2870   45.4050   54.6550 C   0  0  2  0  0  0  0  0  0  0  0  0
    1.1040   45.2670   55.5570 C   0  0  0  0  0  0  0  0  0  0  0  0
    1.0680   45.7020   56.8310 N   0  0  0  0  0  0  0  0  0  0  0  0
   -0.1180   45.3260   57.2830 N   0  0  0  0  0  0  0  0  0  0  0  0
   -0.7610   44.6830   56.3240 N   0  0  0  0  0  0  0  0  0  0  0  0
   -0.0280   44.6160   55.2280 N   0  0  0  0  0  0  0  0  0  0  0  0
    2.8960   44.1860   53.9830 C   0  0  0  0  0  0  0  0  0  0  0  0
    3.9560   44.8040   53.2600 O   0  0  0  0  0  0  0  0  0  0  0  0
    2.2380   46.3500   53.4710 C   0  0  0  0  0  0  0  0  0  0  0  0
    7.1460   46.6210   52.4460 C   0  0  0  0  0  0  0  0  0  0  0  0
    7.8310   47.2650   53.4820 C   0  0  0  0  0  0  0  0  0  0  0  0
    9.2350   47.2610   53.4590 C   0  0  0  0  0  0  0  0  0  0  0  0
    9.9250   46.6210   52.4130 C   0  0  0  0  0  0  0  0  0  0  0  0
    9.2130   45.9730   51.3910 C   0  0  0  0  0  0  0  0  0  0  0  0
    7.8150   45.9700   51.4440 C   0  0  0  0  0  0  0  0  0  0  0  0
    9.3490   42.8970   48.8700 H   0  0  0  0  0  0  0  0  0  0  0  0
    6.8898   43.9797   48.1802 H   0  0  0  0  0  0  0  0  0  0  0  0
    7.3592   42.3518   48.8053 H   0  0  0  0  0  0  0  0  0  0  0  0
    6.1161   43.3360   50.5652 H   0  0  0  0  0  0  0  0  0  0  0  0
    7.8633   43.5544   51.0233 H   0  0  0  0  0  0  0  0  0  0  0  0
    6.9721   45.7452   49.4380 H   0  0  0  0  0  0  0  0  0  0  0  0
    4.8791   46.3300   50.3501 H   0  0  0  0  0  0  0  0  0  0  0  0
    4.8795   44.8417   51.3128 H   0  0  0  0  0  0  0  0  0  0  0  0
    5.1976   47.7165   53.9145 H   0  0  0  0  0  0  0  0  0  0  0  0
    4.1582   47.8929   52.4495 H   0  0  0  0  0  0  0  0  0  0  0  0
    4.2605   45.4438   55.7039 H   0  0  0  0  0  0  0  0  0  0  0  0
    3.6091   46.9177   55.8580 H   0  0  0  0  0  0  0  0  0  0  0  0
   -1.7180   44.2770   56.4220 H   0  0  0  0  0  0  0  0  0  0  0  0
    3.2728   43.4602   54.7187 H   0  0  0  0  0  0  0  0  0  0  0  0
    2.1975   43.5990   53.3686 H   0  0  0  0  0  0  0  0  0  0  0  0
    1.7922   45.9568   52.5454 H   0  0  0  0  0  0  0  0  0  0  0  0
    1.7080   47.3128   53.4253 H   0  0  0  0  0  0  0  0  0  0  0  0
    7.2827   47.7627   54.2954 H   0  0  0  0  0  0  0  0  0  0  0  0
    9.7976   47.7601   54.2618 H   0  0  0  0  0  0  0  0  0  0  0  0
   11.0248   46.6284   52.3959 H   0  0  0  0  0  0  0  0  0  0  0  0
    9.7440   45.4774   50.5649 H   0  0  0  0  0  0  0  0  0  0  0  0
  1  2  1  0
  2  3  1  0
  3  4  1  0
  4  5  1  0
  5  6  1  0
  6  7  1  0
  8  7  1  1
  8  9  1  0
  9 10  1  0
 10 11  1  1
 11 12  1  0
 12 13  2  0
 13 14  1  0
 14 15  1  0
 10 16  1  0
 16 17  1  0
 10 18  1  0
  6 19  1  0
 19 20  2  0
 20 21  1  0
 21 22  2  0
 22 23  1  0
 23 24  2  0
 24  4  1  0
 17  8  1  0
 24 19  1  0
 18  8  1  0
 15 11  2  0
  1 25  1  0
  2 26  1  0
  2 27  1  0
  3 28  1  0
  3 29  1  0
  4 30  1  6
  5 31  1  0
  5 32  1  0
  7 33  1  0
  7 34  1  0
  9 35  1  0
  9 36  1  0
 14 37  1  0
 16 38  1  0
 16 39  1  0
 18 40  1  0
 18 41  1  0
 20 42  1  0
 21 43  1  0
 22 44  1  0
 23 45  1  0
M  END
>  <meeko>  (4) 
{"is_sidechain": [false], "free_energy": -7.997, "intermolecular_energy": -11.19, "internal_energy": 0.209}

$$$$
ligand_57_conformer_2_docked
     RDKit          3D

 45 49  0  0  0  0  0  0  0  0999 V2000
   -0.1800   41.4030   53.6800 O   0  0  0  0  0  0  0  0  0  0  0  0
    0.1690   42.2910   52.6550 C   0  0  0  0  0  0  0  0  0  0  0  0
    1.6690   42.5980   52.6920 C   0  0  0  0  0  0  0  0  0  0  0  0
    2.1570   43.3270   51.4200 C   0  0  1  0  0  0  0  0  0  0  0  0
    2.4910   44.8290   51.6690 C   0  0  0  0  0  0  0  0  0  0  0  0
    3.8870   45.0070   51.2720 N   0  0  0  0  0  0  0  0  0  0  0  0
    4.5750   46.2980   51.2380 C   0  0  0  0  0  0  0  0  0  0  0  0
    5.3450   46.5330   52.5400 C   0  0  2  0  0  0  0  0  0  0  0  0
    6.5390   45.6410   52.8440 C   0  0  0  0  0  0  0  0  0  0  0  0
    6.8160   46.8350   53.7340 C   0  0  2  0  0  0  0  0  0  0  0  0
    8.1920   47.0750   54.2650 C   0  0  0  0  0  0  0  0  0  0  0  0
    8.4820   47.9470   55.2510 N   0  0  0  0  0  0  0  0  0  0  0  0
    9.8000   47.9010   55.3630 N   0  0  0  0  0  0  0  0  0  0  0  0
   10.2810   47.0490   54.4760 N   0  0  0  0  0  0  0  0  0  0  0  0
    9.3070   46.5150   53.7610 N   0  0  0  0  0  0  0  0  0  0  0  0
    5.6290   46.7300   54.6760 C   0  0  0  0  0  0  0  0  0  0  0  0
    4.5840   46.5040   53.7350 O   0  0  0  0  0  0  0  0  0  0  0  0
    6.2300   47.7620   52.6890 C   0  0  0  0  0  0  0  0  0  0  0  0
    4.4130   43.7550   50.8650 C   0  0  0  0  0  0  0  0  0  0  0  0
    5.7160   43.4800   50.4370 C   0  0  0  0  0  0  0  0  0  0  0  0
    6.0280   42.1690   50.0450 C   0  0  0  0  0  0  0  0  0  0  0  0
    5.0450   41.1630   50.0860 C   0  0  0  0  0  0  0  0  0  0  0  0
    3.7470   41.4640   50.5300 C   0  0  0  0  0  0  0  0  0  0  0  0
    3.4620   42.7710   50.9360 C   0  0  0  0  0  0  0  0  0  0  0  0
    0.6250   40.8490   53.8510 H   0  0  0  0  0  0  0  0  0  0  0  0
   -0.0832   41.8391   51.6843 H   0  0  0  0  0  0  0  0  0  0  0  0
   -0.3876   43.2294   52.7953 H   0  0  0  0  0  0  0  0  0  0  0  0
    1.8771   43.2344   53.5647 H   0  0  0  0  0  0  0  0  0  0  0  0
    2.2043   41.6390   52.7529 H   0  0  0  0  0  0  0  0  0  0  0  0
    1.3281   43.1967   50.7087 H   0  0  0  0  0  0  0  0  0  0  0  0
    1.8367   45.4711   51.0611 H   0  0  0  0  0  0  0  0  0  0  0  0
    2.3351   45.1053   52.7223 H   0  0  0  0  0  0  0  0  0  0  0  0
    5.2802   46.3096   50.3939 H   0  0  0  0  0  0  0  0  0  0  0  0
    3.8266   47.0955   51.1199 H   0  0  0  0  0  0  0  0  0  0  0  0
    6.3253   44.6884   53.3508 H   0  0  0  0  0  0  0  0  0  0  0  0
    7.2288   45.2004   52.1091 H   0  0  0  0  0  0  0  0  0  0  0  0
   11.2950   46.8310   54.3530 H   0  0  0  0  0  0  0  0  0  0  0  0
    5.7368   45.8883   55.3759 H   0  0  0  0  0  0  0  0  0  0  0  0
    5.4806   47.6003   55.3322 H   0  0  0  0  0  0  0  0  0  0  0  0
    5.7440   48.6767   53.0593 H   0  0  0  0  0  0  0  0  0  0  0  0
    6.7813   48.2713   51.8848 H   0  0  0  0  0  0  0  0  0  0  0  0
    6.4782   44.2726   50.4083 H   0  0  0  0  0  0  0  0  0  0  0  0
    7.0455   41.9268   49.7042 H   0  0  0  0  0  0  0  0  0  0  0  0
    5.2936   40.1392   49.7698 H   0  0  0  0  0  0  0  0  0  0  0  0
    2.9696   40.6863   50.5577 H   0  0  0  0  0  0  0  0  0  0  0  0
  1  2  1  0
  2  3  1  0
  3  4  1  0
  4  5  1  0
  5  6  1  0
  6  7  1  0
  8  7  1  6
  8  9  1  0
  9 10  1  0
 10 11  1  1
 11 12  1  0
 12 13  2  0
 13 14  1  0
 14 15  1  0
 10 16  1  0
 16 17  1  0
 10 18  1  0
  6 19  1  0
 19 20  2  0
 20 21  1  0
 21 22  2  0
 22 23  1  0
 23 24  2  0
 24  4  1  0
 17  8  1  0
 24 19  1  0
 18  8  1  0
 15 11  2  0
  1 25  1  0
  2 26  1  0
  2 27  1  0
  3 28  1  0
  3 29  1  0
  4 30  1  6
  5 31  1  0
  5 32  1  0
  7 33  1  0
  7 34  1  0
  9 35  1  0
  9 36  1  0
 14 37  1  0
 16 38  1  0
 16 39  1  0
 18 40  1  0
 18 41  1  0
 20 42  1  0
 21 43  1  0
 22 44  1  0
 23 45  1  0
M  END
>  <meeko>  (5) 
{"is_sidechain": [false], "free_energy": -7.986, "intermolecular_energy": -10.871, "internal_energy": -0.096}

$$$$
