MODEL 1
REMARK VINA RESULT:    -8.473      0.000      0.000
REMARK INTER + INTRA:         -11.522
REMARK INTER:                 -10.949
REMARK INTRA:                  -0.573
REMARK UNBOUND:                -0.573
REMARK SMILES CC(=O)Nc1ccc(CNC(=O)C2CCN(c3cnccn3)CC2)cc1
REMARK SMILES IDX 9 1 8 2 5 3 6 4 26 5 7 6 25 7 4 8 2 9 3 10 1 11 10 13 11 14
REMARK SMILES IDX 12 15 13 17 14 18 24 19 15 20 23 21 16 22 17 23 18 24 22 25
REMARK SMILES IDX 19 26 21 27 20 28
REMARK H PARENT 4 12 10 16
ROOT
ATOM      1  C   UNL     1       5.808  45.675  50.448  1.00  0.00     0.151 C 
ENDROOT
BRANCH   1   2
ATOM      2  C   UNL     1       6.851  45.934  51.503  1.00  0.00    -0.029 A 
ATOM      3  C   UNL     1       8.823  46.374  53.466  1.00  0.00     0.041 A 
ATOM      4  C   UNL     1       9.149  46.449  52.100  1.00  0.00     0.026 A 
ATOM      5  C   UNL     1       7.512  46.046  53.837  1.00  0.00     0.026 A 
ATOM      6  C   UNL     1       8.168  46.234  51.127  1.00  0.00     0.008 A 
ATOM      7  C   UNL     1       6.530  45.833  52.866  1.00  0.00     0.008 A 
BRANCH   3   8
ATOM      8  N   UNL     1       9.818  46.564  54.487  1.00  0.00    -0.326 N 
ATOM      9  C   UNL     1       9.889  47.717  55.340  1.00  0.00     0.221 C 
ATOM     10  O   UNL     1       8.924  48.525  55.412  1.00  0.00    -0.275 OA
ATOM     11  C   UNL     1      11.074  47.913  56.228  1.00  0.00     0.114 C 
ATOM     12  H   UNL     1      10.484  45.780  54.677  1.00  0.00     0.169 HD
ENDBRANCH   3   8
ENDBRANCH   1   2
BRANCH   1  13
ATOM     13  N   UNL     1       4.504  45.461  51.070  1.00  0.00    -0.352 N 
ATOM     14  C   UNL     1       3.921  44.157  51.205  1.00  0.00     0.223 C 
ATOM     15  O   UNL     1       4.567  43.135  50.842  1.00  0.00    -0.275 OA
ATOM     16  H   UNL     1       3.973  46.297  51.406  1.00  0.00     0.163 HD
BRANCH  14  17
ATOM     17  C   UNL     1       2.513  44.009  51.724  1.00  0.00     0.082 C 
ATOM     18  C   UNL     1       1.982  45.344  52.276  1.00  0.00     0.035 C 
ATOM     19  C   UNL     1       2.466  42.926  52.814  1.00  0.00     0.035 C 
ATOM     20  C   UNL     1       0.558  45.177  52.811  1.00  0.00     0.119 C 
ATOM     21  C   UNL     1       1.045  42.765  53.366  1.00  0.00     0.119 C 
ATOM     22  N   UNL     1       0.497  44.068  53.773  1.00  0.00    -0.355 N 
BRANCH  22  23
ATOM     23  C   UNL     1      -0.328  44.193  54.948  1.00  0.00     0.147 A 
ATOM     24  C   UNL     1       0.112  44.888  56.088  1.00  0.00     0.157 A 
ATOM     25  N   UNL     1      -1.564  43.618  54.972  1.00  0.00    -0.236 NA
ATOM     26  N   UNL     1      -0.700  44.978  57.175  1.00  0.00    -0.259 NA
ATOM     27  C   UNL     1      -2.372  43.710  56.060  1.00  0.00     0.133 A 
ATOM     28  C   UNL     1      -1.932  44.408  57.184  1.00  0.00     0.131 A 
ENDBRANCH  22  23
ENDBRANCH  14  17
ENDBRANCH   1  13
TORSDOF 5
ENDMDL
MODEL 2
REMARK VINA RESULT:    -8.150      2.410      4.104
REMARK INTER + INTRA:         -11.105
REMARK INTER:                 -10.509
REMARK INTRA:                  -0.596
REMARK UNBOUND:                -0.573
REMARK SMILES CC(=O)Nc1ccc(CNC(=O)C2CCN(c3cnccn3)CC2)cc1
REMARK SMILES IDX 9 1 8 2 5 3 6 4 26 5 7 6 25 7 4 8 2 9 3 10 1 11 10 13 11 14
REMARK SMILES IDX 12 15 13 17 14 18 24 19 15 20 23 21 16 22 17 23 18 24 22 25
REMARK SMILES IDX 19 26 21 27 20 28
REMARK H PARENT 4 12 10 16
ROOT
ATOM      1  C   UNL     1       2.890  42.392  51.720  1.00  0.00     0.151 C 
ENDROOT
BRANCH   1   2
ATOM      2  C   UNL     1       4.065  43.312  51.524  1.00  0.00    -0.029 A 
ATOM      3  C   UNL     1       6.236  45.065  51.131  1.00  0.00     0.041 A 
ATOM      4  C   UNL     1       5.166  45.433  51.966  1.00  0.00     0.026 A 
ATOM      5  C   UNL     1       6.192  43.828  50.472  1.00  0.00     0.026 A 
ATOM      6  C   UNL     1       4.092  44.560  52.164  1.00  0.00     0.008 A 
ATOM      7  C   UNL     1       5.119  42.954  50.670  1.00  0.00     0.008 A 
BRANCH   3   8
ATOM      8  N   UNL     1       7.340  45.953  50.889  1.00  0.00    -0.326 N 
ATOM      9  C   UNL     1       8.191  46.482  51.919  1.00  0.00     0.221 C 
ATOM     10  O   UNL     1       8.172  45.996  53.082  1.00  0.00    -0.275 OA
ATOM     11  C   UNL     1       9.179  47.552  51.590  1.00  0.00     0.114 C 
ATOM     12  H   UNL     1       7.593  46.166  49.897  1.00  0.00     0.169 HD
ENDBRANCH   3   8
ENDBRANCH   1   2
BRANCH   1  13
ATOM     13  N   UNL     1       2.263  42.643  53.015  1.00  0.00    -0.352 N 
ATOM     14  C   UNL     1       1.059  43.412  53.150  1.00  0.00     0.223 C 
ATOM     15  O   UNL     1       0.464  43.841  52.123  1.00  0.00    -0.275 OA
ATOM     16  H   UNL     1       2.727  42.263  53.871  1.00  0.00     0.163 HD
BRANCH  14  17
ATOM     17  C   UNL     1       0.535  43.760  54.520  1.00  0.00     0.082 C 
ATOM     18  C   UNL     1      -0.809  44.504  54.428  1.00  0.00     0.035 C 
ATOM     19  C   UNL     1       1.565  44.613  55.277  1.00  0.00     0.035 C 
ATOM     20  C   UNL     1      -1.324  44.863  55.824  1.00  0.00     0.119 C 
ATOM     21  C   UNL     1       1.050  44.988  56.670  1.00  0.00     0.119 C 
ATOM     22  N   UNL     1      -0.292  45.585  56.582  1.00  0.00    -0.355 N 
BRANCH  22  23
ATOM     23  C   UNL     1      -0.677  46.680  57.437  1.00  0.00     0.147 A 
ATOM     24  C   UNL     1      -1.818  47.457  57.171  1.00  0.00     0.157 A 
ATOM     25  N   UNL     1       0.082  46.987  58.527  1.00  0.00    -0.236 NA
ATOM     26  N   UNL     1      -2.141  48.482  58.004  1.00  0.00    -0.259 NA
ATOM     27  C   UNL     1      -0.245  48.011  59.357  1.00  0.00     0.133 A 
ATOM     28  C   UNL     1      -1.382  48.773  59.091  1.00  0.00     0.131 A 
ENDBRANCH  22  23
ENDBRANCH  14  17
ENDBRANCH   1  13
TORSDOF 5
ENDMDL
MODEL 3
REMARK VINA RESULT:    -8.026      4.780      9.353
REMARK INTER + INTRA:         -10.945
REMARK INTER:                 -10.304
REMARK INTRA:                  -0.641
REMARK UNBOUND:                -0.573
REMARK SMILES CC(=O)Nc1ccc(CNC(=O)C2CCN(c3cnccn3)CC2)cc1
REMARK SMILES IDX 9 1 8 2 5 3 6 4 26 5 7 6 25 7 4 8 2 9 3 10 1 11 10 13 11 14
REMARK SMILES IDX 12 15 13 17 14 18 24 19 15 20 23 21 16 22 17 23 18 24 22 25
REMARK SMILES IDX 19 26 21 27 20 28
REMARK H PARENT 4 12 10 16
ROOT
ATOM      1  C   UNL     1       3.964  40.749  49.699  1.00  0.00     0.151 C 
ENDROOT
BRANCH   1   2
ATOM      2  C   UNL     1       4.154  40.754  48.205  1.00  0.00    -0.029 A 
ATOM      3  C   UNL     1       4.493  40.810  45.409  1.00  0.00     0.041 A 
ATOM      4  C   UNL     1       5.379  41.510  46.247  1.00  0.00     0.026 A 
ATOM      5  C   UNL     1       3.421  40.111  45.981  1.00  0.00     0.026 A 
ATOM      6  C   UNL     1       5.212  41.478  47.635  1.00  0.00     0.008 A 
ATOM      7  C   UNL     1       3.254  40.076  47.368  1.00  0.00     0.008 A 
BRANCH   3   8
ATOM      8  N   UNL     1       4.626  40.848  43.977  1.00  0.00    -0.326 N 
ATOM      9  C   UNL     1       5.119  39.757  43.184  1.00  0.00     0.221 C 
ATOM     10  O   UNL     1       5.230  38.602  43.676  1.00  0.00    -0.275 OA
ATOM     11  C   UNL     1       5.409  39.965  41.733  1.00  0.00     0.114 C 
ATOM     12  H   UNL     1       4.269  41.691  43.472  1.00  0.00     0.169 HD
ENDBRANCH   3   8
ENDBRANCH   1   2
BRANCH   1  13
ATOM     13  N   UNL     1       4.536  41.960  50.283  1.00  0.00    -0.352 N 
ATOM     14  C   UNL     1       3.759  42.875  51.070  1.00  0.00     0.223 C 
ATOM     15  O   UNL     1       2.553  42.612  51.337  1.00  0.00    -0.275 OA
ATOM     16  H   UNL     1       5.542  42.171  50.098  1.00  0.00     0.163 HD
BRANCH  14  17
ATOM     17  C   UNL     1       4.362  44.178  51.528  1.00  0.00     0.082 C 
ATOM     18  C   UNL     1       5.658  44.490  50.760  1.00  0.00     0.035 C 
ATOM     19  C   UNL     1       4.637  44.128  53.040  1.00  0.00     0.035 C 
ATOM     20  C   UNL     1       6.267  45.808  51.243  1.00  0.00     0.119 C 
ATOM     21  C   UNL     1       5.261  45.439  53.528  1.00  0.00     0.119 C 
ATOM     22  N   UNL     1       6.427  45.795  52.704  1.00  0.00    -0.355 N 
BRANCH  22  23
ATOM     23  C   UNL     1       7.600  46.391  53.294  1.00  0.00     0.147 A 
ATOM     24  C   UNL     1       7.529  47.135  54.485  1.00  0.00     0.157 A 
ATOM     25  N   UNL     1       8.811  46.246  52.687  1.00  0.00    -0.236 NA
ATOM     26  N   UNL     1       8.661  47.681  55.004  1.00  0.00    -0.259 NA
ATOM     27  C   UNL     1       9.940  46.792  53.209  1.00  0.00     0.133 A 
ATOM     28  C   UNL     1       9.864  47.523  54.394  1.00  0.00     0.131 A 
ENDBRANCH  22  23
ENDBRANCH  14  17
ENDBRANCH   1  13
TORSDOF 5
ENDMDL
MODEL 4
REMARK VINA RESULT:    -7.769      2.515      9.111
REMARK INTER + INTRA:         -10.613
REMARK INTER:                  -9.932
REMARK INTRA:                  -0.681
REMARK UNBOUND:                -0.573
REMARK SMILES CC(=O)Nc1ccc(CNC(=O)C2CCN(c3cnccn3)CC2)cc1
REMARK SMILES IDX 9 1 8 2 5 3 6 4 26 5 7 6 25 7 4 8 2 9 3 10 1 11 10 13 11 14
REMARK SMILES IDX 12 15 13 17 14 18 24 19 15 20 23 21 16 22 17 23 18 24 22 25
REMARK SMILES IDX 19 26 21 27 20 28
REMARK H PARENT 4 12 10 16
ROOT
ATOM      1  C   UNL     1       0.253  43.500  51.173  1.00  0.00     0.151 C 
ENDROOT
BRANCH   1   2
ATOM      2  C   UNL     1      -0.408  43.726  52.507  1.00  0.00    -0.029 A 
ATOM      3  C   UNL     1      -1.660  44.194  54.987  1.00  0.00     0.041 A 
ATOM      4  C   UNL     1      -2.430  43.994  53.828  1.00  0.00     0.026 A 
ATOM      5  C   UNL     1      -0.261  44.190  54.886  1.00  0.00     0.026 A 
ATOM      6  C   UNL     1      -1.807  43.757  52.598  1.00  0.00     0.008 A 
ATOM      7  C   UNL     1       0.362  43.952  53.658  1.00  0.00     0.008 A 
BRANCH   3   8
ATOM      8  N   UNL     1      -2.273  44.465  56.259  1.00  0.00    -0.326 N 
ATOM      9  C   UNL     1      -2.892  43.467  57.086  1.00  0.00     0.221 C 
ATOM     10  O   UNL     1      -2.713  42.240  56.857  1.00  0.00    -0.275 OA
ATOM     11  C   UNL     1      -3.677  43.880  58.288  1.00  0.00     0.114 C 
ATOM     12  H   UNL     1      -2.196  45.434  56.646  1.00  0.00     0.169 HD
ENDBRANCH   3   8
ENDBRANCH   1   2
BRANCH   1  13
ATOM     13  N   UNL     1       1.403  44.389  51.024  1.00  0.00    -0.352 N 
ATOM     14  C   UNL     1       2.752  43.941  51.216  1.00  0.00     0.223 C 
ATOM     15  O   UNL     1       2.985  42.724  51.458  1.00  0.00    -0.275 OA
ATOM     16  H   UNL     1       1.225  45.392  50.789  1.00  0.00     0.163 HD
BRANCH  14  17
ATOM     17  C   UNL     1       3.888  44.931  51.190  1.00  0.00     0.082 C 
ATOM     18  C   UNL     1       5.242  44.218  51.024  1.00  0.00     0.035 C 
ATOM     19  C   UNL     1       3.884  45.772  52.476  1.00  0.00     0.035 C 
ATOM     20  C   UNL     1       6.388  45.232  51.011  1.00  0.00     0.119 C 
ATOM     21  C   UNL     1       5.038  46.779  52.477  1.00  0.00     0.119 C 
ATOM     22  N   UNL     1       6.314  46.105  52.191  1.00  0.00    -0.355 N 
BRANCH  22  23
ATOM     23  C   UNL     1       7.530  46.499  52.858  1.00  0.00     0.147 A 
ATOM     24  C   UNL     1       7.533  46.905  54.204  1.00  0.00     0.157 A 
ATOM     25  N   UNL     1       8.709  46.494  52.176  1.00  0.00    -0.236 NA
ATOM     26  N   UNL     1       8.703  47.271  54.792  1.00  0.00    -0.259 NA
ATOM     27  C   UNL     1       9.876  46.860  52.766  1.00  0.00     0.133 A 
ATOM     28  C   UNL     1       9.874  47.254  54.104  1.00  0.00     0.131 A 
ENDBRANCH  22  23
ENDBRANCH  14  17
ENDBRANCH   1  13
TORSDOF 5
ENDMDL
MODEL 5
REMARK VINA RESULT:    -7.539      6.937      9.385
REMARK INTER + INTRA:         -10.315
REMARK INTER:                  -9.637
REMARK INTRA:                  -0.678
REMARK UNBOUND:                -0.573
REMARK SMILES CC(=O)Nc1ccc(CNC(=O)C2CCN(c3cnccn3)CC2)cc1
REMARK SMILES IDX 9 1 8 2 5 3 6 4 26 5 7 6 25 7 4 8 2 9 3 10 1 11 10 13 11 14
REMARK SMILES IDX 12 15 13 17 14 18 24 19 15 20 23 21 16 22 17 23 18 24 22 25
REMARK SMILES IDX 19 26 21 27 20 28
REMARK H PARENT 4 12 10 16
ROOT
ATOM      1  C   UNL     1       6.250  41.165  49.646  1.00  0.00     0.151 C 
ENDROOT
BRANCH   1   2
ATOM      2  C   UNL     1       6.557  42.615  49.911  1.00  0.00    -0.029 A 
ATOM      3  C   UNL     1       7.168  45.315  50.436  1.00  0.00     0.041 A 
ATOM      4  C   UNL     1       8.041  44.524  49.669  1.00  0.00     0.026 A 
ATOM      5  C   UNL     1       6.006  44.733  50.963  1.00  0.00     0.026 A 
ATOM      6  C   UNL     1       7.735  43.186  49.405  1.00  0.00     0.008 A 
ATOM      7  C   UNL     1       5.698  43.396  50.699  1.00  0.00     0.008 A 
BRANCH   3   8
ATOM      8  N   UNL     1       7.471  46.686  50.745  1.00  0.00    -0.326 N 
ATOM      9  C   UNL     1       8.006  47.132  52.001  1.00  0.00     0.221 C 
ATOM     10  O   UNL     1       8.478  46.306  52.829  1.00  0.00    -0.275 OA
ATOM     11  C   UNL     1       8.096  48.594  52.294  1.00  0.00     0.114 C 
ATOM     12  H   UNL     1       7.374  47.395  49.982  1.00  0.00     0.169 HD
ENDBRANCH   3   8
ENDBRANCH   1   2
BRANCH   1  13
ATOM     13  N   UNL     1       5.500  41.027  48.401  1.00  0.00    -0.352 N 
ATOM     14  C   UNL     1       4.106  40.684  48.377  1.00  0.00     0.223 C 
ATOM     15  O   UNL     1       3.468  40.557  49.459  1.00  0.00    -0.275 OA
ATOM     16  H   UNL     1       6.009  41.164  47.499  1.00  0.00     0.163 HD
BRANCH  14  17
ATOM     17  C   UNL     1       3.417  40.416  47.064  1.00  0.00     0.082 C 
ATOM     18  C   UNL     1       3.145  38.913  46.876  1.00  0.00     0.035 C 
ATOM     19  C   UNL     1       4.271  40.951  45.903  1.00  0.00     0.035 C 
ATOM     20  C   UNL     1       2.457  38.652  45.534  1.00  0.00     0.119 C 
ATOM     21  C   UNL     1       3.595  40.680  44.554  1.00  0.00     0.119 C 
ATOM     22  N   UNL     1       3.223  39.262  44.438  1.00  0.00    -0.355 N 
BRANCH  22  23
ATOM     23  C   UNL     1       3.343  38.562  43.182  1.00  0.00     0.147 A 
ATOM     24  C   UNL     1       2.718  39.034  42.014  1.00  0.00     0.157 A 
ATOM     25  N   UNL     1       4.066  37.409  43.116  1.00  0.00    -0.236 NA
ATOM     26  N   UNL     1       2.856  38.339  40.853  1.00  0.00    -0.259 NA
ATOM     27  C   UNL     1       4.202  36.719  41.954  1.00  0.00     0.133 A 
ATOM     28  C   UNL     1       3.586  37.196  40.797  1.00  0.00     0.131 A 
ENDBRANCH  22  23
ENDBRANCH  14  17
ENDBRANCH   1  13
TORSDOF 5
ENDMDL
