ligand_98_conformer_4_docked
     RDKit          3D

 49 51  0  0  0  0  0  0  0  0999 V2000
    7.3800   46.4260   54.5780 C   0  0  0  0  0  0  0  0  0  0  0  0
    8.5630   46.8900   53.7170 C   0  0  1  0  0  0  0  0  0  0  0  0
    9.5620   45.8980   53.6870 O   0  0  0  0  0  0  0  0  0  0  0  0
   10.2700   46.0680   52.4770 C   0  0  0  0  0  0  0  0  0  0  0  0
    9.6090   47.1610   51.6480 C   0  0  0  0  0  0  0  0  0  0  0  0
    8.2250   47.2670   52.2590 C   0  0  2  0  0  0  0  0  0  0  0  0
    7.6450   48.6950   52.1710 C   0  0  0  0  0  0  0  0  0  0  0  0
    7.3160   46.2890   51.6210 N   0  0  0  0  0  0  0  0  0  0  0  0
    5.8780   46.3460   51.7010 C   0  0  0  0  0  0  0  0  0  0  0  0
    5.3160   47.1760   52.4660 O   0  0  0  0  0  0  0  0  0  0  0  0
    5.0100   45.4580   50.8350 C   0  0  0  0  0  0  0  0  0  0  0  0
    3.5880   46.0510   50.6170 C   0  0  0  0  0  0  0  0  0  0  0  0
    2.4660   45.0960   51.0410 C   0  0  0  0  0  0  0  0  0  0  0  0
    2.7720   44.5190   52.3560 N   0  0  0  0  0  0  0  0  0  0  0  0
    1.8430   44.6400   53.4510 C   0  0  0  0  0  0  0  0  0  0  0  0
    0.5910   44.0020   53.3880 C   0  0  0  0  0  0  0  0  0  0  0  0
   -0.3090   44.0980   54.4520 C   0  0  0  0  0  0  0  0  0  0  0  0
    0.0310   44.8270   55.5970 C   0  0  0  0  0  0  0  0  0  0  0  0
   -0.8950   44.9210   56.6940 C   0  0  0  0  0  0  0  0  0  0  0  0
   -1.6390   44.9970   57.5780 N   0  0  0  0  0  0  0  0  0  0  0  0
    1.2760   45.4610   55.6730 C   0  0  0  0  0  0  0  0  0  0  0  0
    2.1790   45.3700   54.6080 C   0  0  0  0  0  0  0  0  0  0  0  0
    3.3930   45.9620   54.7290 F   0  0  0  0  0  0  0  0  0  0  0  0
    4.0470   43.8140   52.5580 C   0  0  0  0  0  0  0  0  0  0  0  0
    5.0010   44.0070   51.3680 C   0  0  0  0  0  0  0  0  0  0  0  0
    7.6390   46.5276   55.6422 H   0  0  0  0  0  0  0  0  0  0  0  0
    6.4987   47.0451   54.3544 H   0  0  0  0  0  0  0  0  0  0  0  0
    7.1546   45.3728   54.3544 H   0  0  0  0  0  0  0  0  0  0  0  0
    8.9026   47.8140   54.2078 H   0  0  0  0  0  0  0  0  0  0  0  0
   11.3090   46.3537   52.6978 H   0  0  0  0  0  0  0  0  0  0  0  0
   10.2599   45.1242   51.9120 H   0  0  0  0  0  0  0  0  0  0  0  0
   10.1552   48.1114   51.7403 H   0  0  0  0  0  0  0  0  0  0  0  0
    9.5902   46.9354   50.5715 H   0  0  0  0  0  0  0  0  0  0  0  0
    7.4850   49.0889   53.1855 H   0  0  0  0  0  0  0  0  0  0  0  0
    8.3505   49.3448   51.6324 H   0  0  0  0  0  0  0  0  0  0  0  0
    6.6862   48.6688   51.6324 H   0  0  0  0  0  0  0  0  0  0  0  0
    7.7180   45.5400   51.0200 H   0  0  0  0  0  0  0  0  0  0  0  0
    5.4577   45.4205   49.8309 H   0  0  0  0  0  0  0  0  0  0  0  0
    3.5008   46.9765   51.2052 H   0  0  0  0  0  0  0  0  0  0  0  0
    3.4715   46.2353   49.5388 H   0  0  0  0  0  0  0  0  0  0  0  0
    1.5173   45.6499   51.0974 H   0  0  0  0  0  0  0  0  0  0  0  0
    2.3802   44.2865   50.3011 H   0  0  0  0  0  0  0  0  0  0  0  0
    0.3184   43.4227   52.4935 H   0  0  0  0  0  0  0  0  0  0  0  0
   -1.2875   43.5993   54.3896 H   0  0  0  0  0  0  0  0  0  0  0  0
    1.5458   46.0329   56.5731 H   0  0  0  0  0  0  0  0  0  0  0  0
    4.5287   44.2029   53.4672 H   0  0  0  0  0  0  0  0  0  0  0  0
    3.8321   42.7394   52.6531 H   0  0  0  0  0  0  0  0  0  0  0  0
    6.0199   43.7443   51.6885 H   0  0  0  0  0  0  0  0  0  0  0  0
    4.6486   43.3576   50.5531 H   0  0  0  0  0  0  0  0  0  0  0  0
  1  2  1  0
  2  3  1  0
  3  4  1  0
  4  5  1  0
  5  6  1  0
  6  7  1  0
  6  8  1  6
  8  9  1  0
  9 10  2  0
  9 11  1  0
 11 12  1  0
 12 13  1  0
 13 14  1  0
 14 15  1  0
 15 16  2  0
 16 17  1  0
 17 18  2  0
 18 19  1  0
 19 20  3  0
 18 21  1  0
 21 22  2  0
 22 23  1  0
 14 24  1  0
 24 25  1  0
  6  2  1  0
 25 11  1  0
 22 15  1  0
  1 26  1  0
  1 27  1  0
  1 28  1  0
  2 29  1  1
  4 30  1  0
  4 31  1  0
  5 32  1  0
  5 33  1  0
  7 34  1  0
  7 35  1  0
  7 36  1  0
  8 37  1  0
 11 38  1  0
 12 39  1  0
 12 40  1  0
 13 41  1  0
 13 42  1  0
 16 43  1  0
 17 44  1  0
 21 45  1  0
 24 46  1  0
 24 47  1  0
 25 48  1  0
 25 49  1  0
M  END
>  <meeko>  (1) 
{"is_sidechain": [false], "free_energy": -8.83, "intermolecular_energy": -10.379, "internal_energy": 0.09}

$$$$
ligand_98_conformer_4_docked
     RDKit          3D

 49 51  0  0  0  0  0  0  0  0999 V2000
   -1.3440   45.3410   52.3600 C   0  0  0  0  0  0  0  0  0  0  0  0
   -0.8730   44.1140   53.1520 C   0  0  1  0  0  0  0  0  0  0  0  0
   -1.1720   42.9330   52.4450 O   0  0  0  0  0  0  0  0  0  0  0  0
   -0.2330   41.9630   52.8540 C   0  0  0  0  0  0  0  0  0  0  0  0
    0.7840   42.5990   53.7920 C   0  0  0  0  0  0  0  0  0  0  0  0
    0.6270   44.0820   53.5140 C   0  0  2  0  0  0  0  0  0  0  0  0
    0.9210   44.9530   54.7540 C   0  0  0  0  0  0  0  0  0  0  0  0
    1.4890   44.4760   52.3770 N   0  0  0  0  0  0  0  0  0  0  0  0
    2.9250   44.3510   52.3650 C   0  0  0  0  0  0  0  0  0  0  0  0
    3.5430   44.0260   53.4140 O   0  0  0  0  0  0  0  0  0  0  0  0
    3.7170   44.5510   51.0910 C   0  0  0  0  0  0  0  0  0  0  0  0
    5.0810   43.8020   51.1190 C   0  0  0  0  0  0  0  0  0  0  0  0
    6.2790   44.7240   50.8670 C   0  0  0  0  0  0  0  0  0  0  0  0
    6.1520   45.9410   51.6780 N   0  0  0  0  0  0  0  0  0  0  0  0
    7.1980   46.3380   52.5860 C   0  0  0  0  0  0  0  0  0  0  0  0
    6.8840   46.7100   53.9050 C   0  0  0  0  0  0  0  0  0  0  0  0
    7.8930   47.0780   54.7980 C   0  0  0  0  0  0  0  0  0  0  0  0
    9.2310   47.0750   54.3880 C   0  0  0  0  0  0  0  0  0  0  0  0
   10.2700   47.4490   55.3100 C   0  0  0  0  0  0  0  0  0  0  0  0
   11.1070   47.7500   56.0520 N   0  0  0  0  0  0  0  0  0  0  0  0
    9.5550   46.7010   53.0800 C   0  0  0  0  0  0  0  0  0  0  0  0
    8.5470   46.3340   52.1810 C   0  0  0  0  0  0  0  0  0  0  0  0
    8.8980   45.9370   50.9320 F   0  0  0  0  0  0  0  0  0  0  0  0
    4.9360   46.7620   51.5650 C   0  0  0  0  0  0  0  0  0  0  0  0
    3.8430   46.0530   50.7490 C   0  0  0  0  0  0  0  0  0  0  0  0
   -1.6484   46.1339   53.0590 H   0  0  0  0  0  0  0  0  0  0  0  0
   -0.5221   45.7062   51.7266 H   0  0  0  0  0  0  0  0  0  0  0  0
   -2.1991   45.0625   51.7266 H   0  0  0  0  0  0  0  0  0  0  0  0
   -1.4221   44.1862   54.1024 H   0  0  0  0  0  0  0  0  0  0  0  0
   -0.7536   41.1475   53.3774 H   0  0  0  0  0  0  0  0  0  0  0  0
    0.2859   41.5621   51.9708 H   0  0  0  0  0  0  0  0  0  0  0  0
    0.5520   42.3672   54.8420 H   0  0  0  0  0  0  0  0  0  0  0  0
    1.8092   42.2346   53.6300 H   0  0  0  0  0  0  0  0  0  0  0  0
    0.7244   44.3705   55.6662 H   0  0  0  0  0  0  0  0  0  0  0  0
    1.9750   45.2673   54.7397 H   0  0  0  0  0  0  0  0  0  0  0  0
    0.2731   45.8418   54.7397 H   0  0  0  0  0  0  0  0  0  0  0  0
    1.0450   44.8100   51.4970 H   0  0  0  0  0  0  0  0  0  0  0  0
    3.1556   44.0880   50.2661 H   0  0  0  0  0  0  0  0  0  0  0  0
    5.2023   43.3325   52.1064 H   0  0  0  0  0  0  0  0  0  0  0  0
    5.0634   43.0585   50.3085 H   0  0  0  0  0  0  0  0  0  0  0  0
    7.2067   44.1994   51.1393 H   0  0  0  0  0  0  0  0  0  0  0  0
    6.3064   44.9994   49.8024 H   0  0  0  0  0  0  0  0  0  0  0  0
    5.8351   46.7112   54.2364 H   0  0  0  0  0  0  0  0  0  0  0  0
    7.6352   47.3710   55.8264 H   0  0  0  0  0  0  0  0  0  0  0  0
   10.6063   46.6952   52.7564 H   0  0  0  0  0  0  0  0  0  0  0  0
    4.5500   46.9676   52.5743 H   0  0  0  0  0  0  0  0  0  0  0  0
    5.2001   47.6949   51.0454 H   0  0  0  0  0  0  0  0  0  0  0  0
    2.8791   46.5418   50.9539 H   0  0  0  0  0  0  0  0  0  0  0  0
    4.1221   46.1279   49.6876 H   0  0  0  0  0  0  0  0  0  0  0  0
  1  2  1  0
  2  3  1  0
  3  4  1  0
  4  5  1  0
  5  6  1  0
  6  7  1  0
  6  8  1  6
  8  9  1  0
  9 10  2  0
  9 11  1  0
 11 12  1  0
 12 13  1  0
 13 14  1  0
 14 15  1  0
 15 16  2  0
 16 17  1  0
 17 18  2  0
 18 19  1  0
 19 20  3  0
 18 21  1  0
 21 22  2  0
 22 23  1  0
 14 24  1  0
 24 25  1  0
  6  2  1  0
 25 11  1  0
 22 15  1  0
  1 26  1  0
  1 27  1  0
  1 28  1  0
  2 29  1  1
  4 30  1  0
  4 31  1  0
  5 32  1  0
  5 33  1  0
  7 34  1  0
  7 35  1  0
  7 36  1  0
  8 37  1  0
 11 38  1  0
 12 39  1  0
 12 40  1  0
 13 41  1  0
 13 42  1  0
 16 43  1  0
 17 44  1  0
 21 45  1  0
 24 46  1  0
 24 47  1  0
 25 48  1  0
 25 49  1  0
M  END
>  <meeko>  (2) 
{"is_sidechain": [false], "free_energy": -8.785, "intermolecular_energy": -10.038, "internal_energy": -0.197}

$$$$
ligand_98_conformer_4_docked
     RDKit          3D

 49 51  0  0  0  0  0  0  0  0999 V2000
   -3.7150   46.7480   55.2900 C   0  0  0  0  0  0  0  0  0  0  0  0
   -3.2110   45.7720   56.3600 C   0  0  1  0  0  0  0  0  0  0  0  0
   -3.8660   44.5320   56.2380 O   0  0  0  0  0  0  0  0  0  0  0  0
   -2.9940   43.5550   56.7630 C   0  0  0  0  0  0  0  0  0  0  0  0
   -1.6680   44.2020   57.1390 C   0  0  0  0  0  0  0  0  0  0  0  0
   -1.6900   45.5060   56.3640 C   0  0  2  0  0  0  0  0  0  0  0  0
   -0.9270   46.6380   57.0840 C   0  0  0  0  0  0  0  0  0  0  0  0
   -1.1530   45.2920   55.0010 N   0  0  0  0  0  0  0  0  0  0  0  0
    0.1890   44.8500   54.7180 C   0  0  0  0  0  0  0  0  0  0  0  0
    1.0400   44.7660   55.6450 O   0  0  0  0  0  0  0  0  0  0  0  0
    0.5960   44.4280   53.3220 C   0  0  0  0  0  0  0  0  0  0  0  0
    1.8160   43.4620   53.3290 C   0  0  0  0  0  0  0  0  0  0  0  0
    2.9860   43.9640   52.4760 C   0  0  0  0  0  0  0  0  0  0  0  0
    3.2360   45.3830   52.7570 N   0  0  0  0  0  0  0  0  0  0  0  0
    4.5390   45.8350   53.1780 C   0  0  0  0  0  0  0  0  0  0  0  0
    5.3670   46.5350   52.2830 C   0  0  0  0  0  0  0  0  0  0  0  0
    6.6230   46.9930   52.6870 C   0  0  0  0  0  0  0  0  0  0  0  0
    7.0670   46.7640   53.9940 C   0  0  0  0  0  0  0  0  0  0  0  0
    8.3590   47.2410   54.4110 C   0  0  0  0  0  0  0  0  0  0  0  0
    9.3990   47.6250   54.7470 N   0  0  0  0  0  0  0  0  0  0  0  0
    6.2500   46.0740   54.8950 C   0  0  0  0  0  0  0  0  0  0  0  0
    4.9920   45.6110   54.4930 C   0  0  0  0  0  0  0  0  0  0  0  0
    4.2060   44.9820   55.4030 F   0  0  0  0  0  0  0  0  0  0  0  0
    2.1410   46.3540   52.6130 C   0  0  0  0  0  0  0  0  0  0  0  0
    0.7850   45.6580   52.4060 C   0  0  0  0  0  0  0  0  0  0  0  0
   -4.1675   47.6244   55.7770 H   0  0  0  0  0  0  0  0  0  0  0  0
   -2.8715   47.0720   54.6627 H   0  0  0  0  0  0  0  0  0  0  0  0
   -4.4675   46.2478   54.6627 H   0  0  0  0  0  0  0  0  0  0  0  0
   -3.4429   46.2777   57.3089 H   0  0  0  0  0  0  0  0  0  0  0  0
   -3.4472   43.1027   57.6575 H   0  0  0  0  0  0  0  0  0  0  0  0
   -2.8187   42.7771   56.0052 H   0  0  0  0  0  0  0  0  0  0  0  0
   -1.6118   44.3870   58.2219 H   0  0  0  0  0  0  0  0  0  0  0  0
   -0.7972   43.5729   56.9025 H   0  0  0  0  0  0  0  0  0  0  0  0
   -1.0161   46.5057   58.1724 H   0  0  0  0  0  0  0  0  0  0  0  0
    0.1342   46.6055   56.7964 H   0  0  0  0  0  0  0  0  0  0  0  0
   -1.3553   47.6095   56.7964 H   0  0  0  0  0  0  0  0  0  0  0  0
   -1.7880   45.4010   54.1840 H   0  0  0  0  0  0  0  0  0  0  0  0
   -0.2282   43.8411   52.8906 H   0  0  0  0  0  0  0  0  0  0  0  0
    2.1638   43.3450   54.3660 H   0  0  0  0  0  0  0  0  0  0  0  0
    1.4809   42.5077   52.8965 H   0  0  0  0  0  0  0  0  0  0  0  0
    3.8877   43.3806   52.7140 H   0  0  0  0  0  0  0  0  0  0  0  0
    2.7360   43.8440   51.4115 H   0  0  0  0  0  0  0  0  0  0  0  0
    5.0225   46.7236   51.2555 H   0  0  0  0  0  0  0  0  0  0  0  0
    7.2644   47.5348   51.9763 H   0  0  0  0  0  0  0  0  0  0  0  0
    6.5973   45.8945   55.9232 H   0  0  0  0  0  0  0  0  0  0  0  0
    2.0898   46.9706   53.5225 H   0  0  0  0  0  0  0  0  0  0  0  0
    2.3467   46.9730   51.7273 H   0  0  0  0  0  0  0  0  0  0  0  0
   -0.0167   46.3806   52.6183 H   0  0  0  0  0  0  0  0  0  0  0  0
    0.7506   45.3036   51.3652 H   0  0  0  0  0  0  0  0  0  0  0  0
  1  2  1  0
  2  3  1  0
  3  4  1  0
  4  5  1  0
  5  6  1  0
  6  7  1  0
  6  8  1  6
  8  9  1  0
  9 10  2  0
  9 11  1  0
 11 12  1  0
 12 13  1  0
 13 14  1  0
 14 15  1  0
 15 16  2  0
 16 17  1  0
 17 18  2  0
 18 19  1  0
 19 20  3  0
 18 21  1  0
 21 22  2  0
 22 23  1  0
 14 24  1  0
 24 25  1  0
  6  2  1  0
 25 11  1  0
 22 15  1  0
  1 26  1  0
  1 27  1  0
  1 28  1  0
  2 29  1  1
  4 30  1  0
  4 31  1  0
  5 32  1  0
  5 33  1  0
  7 34  1  0
  7 35  1  0
  7 36  1  0
  8 37  1  0
 11 38  1  0
 12 39  1  0
 12 40  1  0
 13 41  1  0
 13 42  1  0
 16 43  1  0
 17 44  1  0
 21 45  1  0
 24 46  1  0
 24 47  1  0
 25 48  1  0
 25 49  1  0
M  END
>  <meeko>  (3) 
{"is_sidechain": [false], "free_energy": -8.07, "intermolecular_energy": -8.834, "internal_energy": -0.561}

$$$$
ligand_98_conformer_4_docked
     RDKit          3D

 49 51  0  0  0  0  0  0  0  0999 V2000
    4.1630   48.1430   53.7520 C   0  0  0  0  0  0  0  0  0  0  0  0
    5.1510   47.1010   54.2910 C   0  0  1  0  0  0  0  0  0  0  0  0
    4.5840   46.4060   55.3760 O   0  0  0  0  0  0  0  0  0  0  0  0
    5.2040   45.1390   55.4190 C   0  0  0  0  0  0  0  0  0  0  0  0
    6.1390   44.9870   54.2270 C   0  0  0  0  0  0  0  0  0  0  0  0
    5.6520   46.0580   53.2700 C   0  0  2  0  0  0  0  0  0  0  0  0
    6.7870   46.6330   52.3950 C   0  0  0  0  0  0  0  0  0  0  0  0
    4.5580   45.5240   52.4280 N   0  0  0  0  0  0  0  0  0  0  0  0
    4.6720   44.3520   51.5960 C   0  0  0  0  0  0  0  0  0  0  0  0
    5.7920   43.7970   51.4290 O   0  0  0  0  0  0  0  0  0  0  0  0
    3.4520   43.7300   50.9500 C   0  0  0  0  0  0  0  0  0  0  0  0
    2.2810   44.7430   50.7980 C   0  0  0  0  0  0  0  0  0  0  0  0
    0.9830   44.2650   51.4580 C   0  0  0  0  0  0  0  0  0  0  0  0
    1.2670   43.7460   52.8010 N   0  0  0  0  0  0  0  0  0  0  0  0
    0.5890   44.2750   53.9580 C   0  0  0  0  0  0  0  0  0  0  0  0
    1.2730   45.1140   54.8550 C   0  0  0  0  0  0  0  0  0  0  0  0
    0.6190   45.6460   55.9690 C   0  0  0  0  0  0  0  0  0  0  0  0
   -0.7300   45.3530   56.1990 C   0  0  0  0  0  0  0  0  0  0  0  0
   -1.4040   45.9060   57.3430 C   0  0  0  0  0  0  0  0  0  0  0  0
   -1.9470   46.3510   58.2640 N   0  0  0  0  0  0  0  0  0  0  0  0
   -1.4220   44.5240   55.3090 C   0  0  0  0  0  0  0  0  0  0  0  0
   -0.7700   43.9860   54.1950 C   0  0  0  0  0  0  0  0  0  0  0  0
   -1.4800   43.2200   53.3290 F   0  0  0  0  0  0  0  0  0  0  0  0
    2.2620   42.6760   52.9680 C   0  0  0  0  0  0  0  0  0  0  0  0
    3.0520   42.4240   51.6730 C   0  0  0  0  0  0  0  0  0  0  0  0
    3.6760   48.6566   54.5941 H   0  0  0  0  0  0  0  0  0  0  0  0
    4.7039   48.8778   53.1377 H   0  0  0  0  0  0  0  0  0  0  0  0
    3.4004   47.6419   53.1377 H   0  0  0  0  0  0  0  0  0  0  0  0
    6.0280   47.6962   54.5852 H   0  0  0  0  0  0  0  0  0  0  0  0
    5.7808   45.0451   56.3509 H   0  0  0  0  0  0  0  0  0  0  0  0
    4.4341   44.3542   55.3817 H   0  0  0  0  0  0  0  0  0  0  0  0
    7.1843   45.1646   54.5198 H   0  0  0  0  0  0  0  0  0  0  0  0
    6.1232   43.9773   53.7907 H   0  0  0  0  0  0  0  0  0  0  0  0
    7.5807   47.0351   53.0418 H   0  0  0  0  0  0  0  0  0  0  0  0
    7.2003   45.8355   51.7600 H   0  0  0  0  0  0  0  0  0  0  0  0
    6.3885   47.4379   51.7600 H   0  0  0  0  0  0  0  0  0  0  0  0
    3.6190   45.9710   52.4740 H   0  0  0  0  0  0  0  0  0  0  0  0
    3.7180   43.4497   49.9201 H   0  0  0  0  0  0  0  0  0  0  0  0
    2.5793   45.6950   51.2613 H   0  0  0  0  0  0  0  0  0  0  0  0
    2.0805   44.8535   49.7221 H   0  0  0  0  0  0  0  0  0  0  0  0
    0.2805   45.1080   51.5338 H   0  0  0  0  0  0  0  0  0  0  0  0
    0.5394   43.4650   50.8470 H   0  0  0  0  0  0  0  0  0  0  0  0
    2.3319   45.3536   54.6783 H   0  0  0  0  0  0  0  0  0  0  0  0
    1.1658   46.2969   56.6672 H   0  0  0  0  0  0  0  0  0  0  0  0
   -2.4831   44.2946   55.4864 H   0  0  0  0  0  0  0  0  0  0  0  0
    2.9649   42.9643   53.7635 H   0  0  0  0  0  0  0  0  0  0  0  0
    1.7282   41.7502   53.2287 H   0  0  0  0  0  0  0  0  0  0  0  0
    3.9668   41.8664   51.9226 H   0  0  0  0  0  0  0  0  0  0  0  0
    2.3998   41.8562   50.9931 H   0  0  0  0  0  0  0  0  0  0  0  0
  1  2  1  0
  2  3  1  0
  3  4  1  0
  4  5  1  0
  5  6  1  0
  6  7  1  0
  6  8  1  6
  8  9  1  0
  9 10  2  0
  9 11  1  0
 11 12  1  0
 12 13  1  0
 13 14  1  0
 14 15  1  0
 15 16  2  0
 16 17  1  0
 17 18  2  0
 18 19  1  0
 19 20  3  0
 18 21  1  0
 21 22  2  0
 22 23  1  0
 14 24  1  0
 24 25  1  0
  6  2  1  0
 25 11  1  0
 22 15  1  0
  1 26  1  0
  1 27  1  0
  1 28  1  0
  2 29  1  1
  4 30  1  0
  4 31  1  0
  5 32  1  0
  5 33  1  0
  7 34  1  0
  7 35  1  0
  7 36  1  0
  8 37  1  0
 11 38  1  0
 12 39  1  0
 12 40  1  0
 13 41  1  0
 13 42  1  0
 16 43  1  0
 17 44  1  0
 21 45  1  0
 24 46  1  0
 24 47  1  0
 25 48  1  0
 25 49  1  0
M  END
>  <meeko>  (4) 
{"is_sidechain": [false], "free_energy": -8.062, "intermolecular_energy": -8.605, "internal_energy": -0.781}

$$$$
ligand_98_conformer_4_docked
     RDKit          3D

 49 51  0  0  0  0  0  0  0  0999 V2000
   -2.8350   43.0950   56.9730 C   0  0  0  0  0  0  0  0  0  0  0  0
   -2.1440   44.4610   56.8780 C   0  0  1  0  0  0  0  0  0  0  0  0
   -0.9470   44.4560   57.6200 O   0  0  0  0  0  0  0  0  0  0  0  0
   -0.0970   45.4170   57.0330 C   0  0  0  0  0  0  0  0  0  0  0  0
   -0.7550   45.9840   55.7820 C   0  0  0  0  0  0  0  0  0  0  0  0
   -1.8140   44.9510   55.4520 C   0  0  2  0  0  0  0  0  0  0  0  0
   -3.0560   45.5690   54.7730 C   0  0  0  0  0  0  0  0  0  0  0  0
   -1.2320   43.8810   54.6110 N   0  0  0  0  0  0  0  0  0  0  0  0
   -0.6300   44.1020   53.3190 C   0  0  0  0  0  0  0  0  0  0  0  0
   -0.7090   45.2310   52.7650 O   0  0  0  0  0  0  0  0  0  0  0  0
    0.1520   43.0080   52.6240 C   0  0  0  0  0  0  0  0  0  0  0  0
    1.4180   42.5850   53.4250 C   0  0  0  0  0  0  0  0  0  0  0  0
    2.7110   42.6990   52.6110 C   0  0  0  0  0  0  0  0  0  0  0  0
    2.7470   43.9870   51.9070 N   0  0  0  0  0  0  0  0  0  0  0  0
    3.8530   44.8950   52.0810 C   0  0  0  0  0  0  0  0  0  0  0  0
    5.0060   44.7630   51.2880 C   0  0  0  0  0  0  0  0  0  0  0  0
    6.0750   45.6490   51.4370 C   0  0  0  0  0  0  0  0  0  0  0  0
    6.0050   46.6830   52.3770 C   0  0  0  0  0  0  0  0  0  0  0  0
    7.1050   47.6000   52.5260 C   0  0  0  0  0  0  0  0  0  0  0  0
    7.9900   48.3370   52.6460 N   0  0  0  0  0  0  0  0  0  0  0  0
    4.8600   46.8280   53.1670 C   0  0  0  0  0  0  0  0  0  0  0  0
    3.7890   45.9400   53.0240 C   0  0  0  0  0  0  0  0  0  0  0  0
    2.6760   46.1310   53.7760 F   0  0  0  0  0  0  0  0  0  0  0  0
    1.6360   44.3560   51.0170 C   0  0  0  0  0  0  0  0  0  0  0  0
    0.4480   43.3900   51.1550 C   0  0  0  0  0  0  0  0  0  0  0  0
   -2.9712   42.8258   58.0308 H   0  0  0  0  0  0  0  0  0  0  0  0
   -3.8161   43.1452   56.4782 H   0  0  0  0  0  0  0  0  0  0  0  0
   -2.2133   42.3344   56.4782 H   0  0  0  0  0  0  0  0  0  0  0  0
   -2.8885   45.1612   57.2848 H   0  0  0  0  0  0  0  0  0  0  0  0
    0.0870   46.2302   57.7506 H   0  0  0  0  0  0  0  0  0  0  0  0
    0.8577   44.9432   56.7611 H   0  0  0  0  0  0  0  0  0  0  0  0
   -1.2098   46.9648   55.9851 H   0  0  0  0  0  0  0  0  0  0  0  0
   -0.0450   46.1533   54.9591 H   0  0  0  0  0  0  0  0  0  0  0  0
   -3.7590   45.9188   55.5433 H   0  0  0  0  0  0  0  0  0  0  0  0
   -2.7466   46.4183   54.1461 H   0  0  0  0  0  0  0  0  0  0  0  0
   -3.5469   44.8101   54.1461 H   0  0  0  0  0  0  0  0  0  0  0  0
   -1.1870   42.9110   54.9840 H   0  0  0  0  0  0  0  0  0  0  0  0
   -0.4781   42.1069   52.5933 H   0  0  0  0  0  0  0  0  0  0  0  0
    1.5039   43.2316   54.3107 H   0  0  0  0  0  0  0  0  0  0  0  0
    1.2947   41.5265   53.6977 H   0  0  0  0  0  0  0  0  0  0  0  0
    3.5753   42.6291   53.2878 H   0  0  0  0  0  0  0  0  0  0  0  0
    2.7482   41.8828   51.8745 H   0  0  0  0  0  0  0  0  0  0  0  0
    5.0667   43.9551   50.5439 H   0  0  0  0  0  0  0  0  0  0  0  0
    6.9742   45.5338   50.8139 H   0  0  0  0  0  0  0  0  0  0  0  0
    4.8016   47.6432   53.9033 H   0  0  0  0  0  0  0  0  0  0  0  0
    1.2996   45.3723   51.2701 H   0  0  0  0  0  0  0  0  0  0  0  0
    1.9983   44.3060   49.9796 H   0  0  0  0  0  0  0  0  0  0  0  0
   -0.4460   43.8697   50.7299 H   0  0  0  0  0  0  0  0  0  0  0  0
    0.7096   42.4656   50.6193 H   0  0  0  0  0  0  0  0  0  0  0  0
  1  2  1  0
  2  3  1  0
  3  4  1  0
  4  5  1  0
  5  6  1  0
  6  7  1  0
  6  8  1  6
  8  9  1  0
  9 10  2  0
  9 11  1  0
 11 12  1  0
 12 13  1  0
 13 14  1  0
 14 15  1  0
 15 16  2  0
 16 17  1  0
 17 18  2  0
 18 19  1  0
 19 20  3  0
 18 21  1  0
 21 22  2  0
 22 23  1  0
 14 24  1  0
 24 25  1  0
  6  2  1  0
 25 11  1  0
 22 15  1  0
  1 26  1  0
  1 27  1  0
  1 28  1  0
  2 29  1  1
  4 30  1  0
  4 31  1  0
  5 32  1  0
  5 33  1  0
  7 34  1  0
  7 35  1  0
  7 36  1  0
  8 37  1  0
 11 38  1  0
 12 39  1  0
 12 40  1  0
 13 41  1  0
 13 42  1  0
 16 43  1  0
 17 44  1  0
 21 45  1  0
 24 46  1  0
 24 47  1  0
 25 48  1  0
 25 49  1  0
M  END
>  <meeko>  (5) 
{"is_sidechain": [false], "free_energy": -7.659, "intermolecular_energy": -8.576, "internal_energy": -0.336}

$$$$
