MODEL 1
REMARK VINA RESULT:    -8.920      0.000      0.000
REMARK INTER + INTRA:         -12.363
REMARK INTER:                 -11.528
REMARK INTRA:                  -0.835
REMARK UNBOUND:                -0.835
REMARK SMILES O=C(c1ccc(-n2cnc3ccccc32)cc1)N1CCC[C@](O)(CO)C1
REMARK SMILES IDX 18 1 19 2 20 3 21 4 22 5 26 6 2 7 1 8 3 9 4 10 17 11 5 12
REMARK SMILES IDX 16 13 6 14 7 15 8 16 15 17 9 18 14 19 10 20 13 21 11 22
REMARK SMILES IDX 12 23 23 24 24 26 25 27
REMARK H PARENT 23 25 25 28
ROOT
ATOM      1  N   UNL     1       0.478  44.848  54.444  1.00  0.00    -0.336 N 
ATOM      2  C   UNL     1       1.125  45.325  55.678  1.00  0.00     0.120 C 
ATOM      3  C   UNL     1       0.203  45.160  56.895  1.00  0.00     0.025 C 
ATOM      4  C   UNL     1      -1.217  45.636  56.554  1.00  0.00     0.041 C 
ATOM      5  C   UNL     1      -1.842  44.896  55.325  1.00  0.00     0.105 C 
ATOM      6  C   UNL     1      -0.770  44.083  54.544  1.00  0.00     0.157 C 
ENDROOT
BRANCH   1   7
ATOM      7  C   UNL     1       0.937  45.323  53.164  1.00  0.00     0.253 C 
ATOM      8  O   UNL     1       0.095  45.660  52.288  1.00  0.00    -0.269 OA
BRANCH   7   9
ATOM      9  C   UNL     1       2.379  45.443  52.858  1.00  0.00     0.040 A 
ATOM     10  C   UNL     1       3.233  44.336  52.987  1.00  0.00     0.016 A 
ATOM     11  C   UNL     1       2.902  46.659  52.390  1.00  0.00     0.016 A 
ATOM     12  C   UNL     1       4.593  44.452  52.687  1.00  0.00     0.027 A 
ATOM     13  C   UNL     1       4.263  46.775  52.089  1.00  0.00     0.027 A 
ATOM     14  C   UNL     1       5.122  45.677  52.251  1.00  0.00     0.047 A 
BRANCH  14  15
ATOM     15  N   UNL     1       6.517  45.799  51.927  1.00  0.00    -0.299 N 
ATOM     16  C   UNL     1       7.117  45.406  50.775  1.00  0.00     0.205 A 
ATOM     17  C   UNL     1       7.519  46.307  52.667  1.00  0.00     0.073 A 
ATOM     18  N   UNL     1       8.456  45.633  50.761  1.00  0.00    -0.236 NA
ATOM     19  C   UNL     1       7.475  46.924  53.922  1.00  0.00     0.029 A 
ATOM     20  C   UNL     1       8.681  46.201  51.960  1.00  0.00     0.089 A 
ATOM     21  C   UNL     1       8.686  47.402  54.457  1.00  0.00     0.002 A 
ATOM     22  C   UNL     1       9.895  46.666  52.460  1.00  0.00     0.030 A 
ATOM     23  C   UNL     1       9.891  47.269  53.731  1.00  0.00     0.002 A 
ENDBRANCH  14  15
ENDBRANCH   7   9
ENDBRANCH   1   7
BRANCH   5  24
ATOM     24  O   UNL     1      -2.383  45.880  54.470  1.00  0.00    -0.386 OA
ATOM     25  H   UNL     1      -1.887  45.854  53.610  1.00  0.00     0.211 HD
ENDBRANCH   5  24
BRANCH   5  26
ATOM     26  C   UNL     1      -2.981  43.955  55.788  1.00  0.00     0.193 C 
BRANCH  26  27
ATOM     27  O   UNL     1      -2.461  42.817  56.423  1.00  0.00    -0.393 OA
ATOM     28  H   UNL     1      -2.790  42.038  55.905  1.00  0.00     0.210 HD
ENDBRANCH  26  27
ENDBRANCH   5  26
TORSDOF 6
ENDMDL
MODEL 2
REMARK VINA RESULT:    -8.807      2.136      3.091
REMARK INTER + INTRA:         -12.216
REMARK INTER:                 -11.455
REMARK INTRA:                  -0.761
REMARK UNBOUND:                -0.835
REMARK SMILES O=C(c1ccc(-n2cnc3ccccc32)cc1)N1CCC[C@](O)(CO)C1
REMARK SMILES IDX 18 1 19 2 20 3 21 4 22 5 26 6 2 7 1 8 3 9 4 10 17 11 5 12
REMARK SMILES IDX 16 13 6 14 7 15 8 16 15 17 9 18 14 19 10 20 13 21 11 22
REMARK SMILES IDX 12 23 23 24 24 26 25 27
REMARK H PARENT 23 25 25 28
ROOT
ATOM      1  N   UNL     1       0.518  43.115  51.876  1.00  0.00    -0.336 N 
ATOM      2  C   UNL     1       0.494  42.433  53.180  1.00  0.00     0.120 C 
ATOM      3  C   UNL     1      -0.718  42.865  54.018  1.00  0.00     0.025 C 
ATOM      4  C   UNL     1      -0.887  44.390  53.961  1.00  0.00     0.041 C 
ATOM      5  C   UNL     1      -1.038  44.944  52.505  1.00  0.00     0.105 C 
ATOM      6  C   UNL     1      -0.665  43.870  51.444  1.00  0.00     0.157 C 
ENDROOT
BRANCH   1   7
ATOM      7  C   UNL     1       1.756  43.233  51.150  1.00  0.00     0.253 C 
ATOM      8  O   UNL     1       1.860  42.708  50.008  1.00  0.00    -0.269 OA
BRANCH   7   9
ATOM      9  C   UNL     1       2.909  43.974  51.707  1.00  0.00     0.040 A 
ATOM     10  C   UNL     1       3.196  45.279  51.276  1.00  0.00     0.016 A 
ATOM     11  C   UNL     1       3.703  43.395  52.710  1.00  0.00     0.016 A 
ATOM     12  C   UNL     1       4.280  45.979  51.813  1.00  0.00     0.027 A 
ATOM     13  C   UNL     1       4.787  44.096  53.246  1.00  0.00     0.027 A 
ATOM     14  C   UNL     1       5.094  45.386  52.791  1.00  0.00     0.047 A 
BRANCH  14  15
ATOM     15  N   UNL     1       6.202  46.107  53.357  1.00  0.00    -0.299 N 
ATOM     16  C   UNL     1       6.213  46.774  54.539  1.00  0.00     0.205 A 
ATOM     17  C   UNL     1       7.439  46.288  52.861  1.00  0.00     0.073 A 
ATOM     18  N   UNL     1       7.400  47.377  54.805  1.00  0.00    -0.236 NA
ATOM     19  C   UNL     1       8.018  45.768  51.699  1.00  0.00     0.029 A 
ATOM     20  C   UNL     1       8.152  47.055  53.737  1.00  0.00     0.089 A 
ATOM     21  C   UNL     1       9.360  46.095  51.435  1.00  0.00     0.002 A 
ATOM     22  C   UNL     1       9.483  47.394  53.507  1.00  0.00     0.030 A 
ATOM     23  C   UNL     1      10.088  46.909  52.333  1.00  0.00     0.002 A 
ENDBRANCH  14  15
ENDBRANCH   7   9
ENDBRANCH   1   7
BRANCH   5  24
ATOM     24  O   UNL     1      -0.157  46.039  52.376  1.00  0.00    -0.386 OA
ATOM     25  H   UNL     1       0.565  45.787  51.742  1.00  0.00     0.211 HD
ENDBRANCH   5  24
BRANCH   5  26
ATOM     26  C   UNL     1      -2.486  45.438  52.266  1.00  0.00     0.193 C 
BRANCH  26  27
ATOM     27  O   UNL     1      -2.506  46.816  52.007  1.00  0.00    -0.393 OA
ATOM     28  H   UNL     1      -1.630  47.033  51.595  1.00  0.00     0.210 HD
ENDBRANCH  26  27
ENDBRANCH   5  26
TORSDOF 6
ENDMDL
MODEL 3
REMARK VINA RESULT:    -8.638      1.806      2.408
REMARK INTER + INTRA:         -11.998
REMARK INTER:                 -11.291
REMARK INTRA:                  -0.707
REMARK UNBOUND:                -0.835
REMARK SMILES O=C(c1ccc(-n2cnc3ccccc32)cc1)N1CCC[C@](O)(CO)C1
REMARK SMILES IDX 18 1 19 2 20 3 21 4 22 5 26 6 2 7 1 8 3 9 4 10 17 11 5 12
REMARK SMILES IDX 16 13 6 14 7 15 8 16 15 17 9 18 14 19 10 20 13 21 11 22
REMARK SMILES IDX 12 23 23 24 24 26 25 27
REMARK H PARENT 23 25 25 28
ROOT
ATOM      1  N   UNL     1       0.384  44.662  52.123  1.00  0.00    -0.336 N 
ATOM      2  C   UNL     1      -1.058  44.399  51.974  1.00  0.00     0.120 C 
ATOM      3  C   UNL     1      -1.813  44.648  53.287  1.00  0.00     0.025 C 
ATOM      4  C   UNL     1      -1.050  44.026  54.465  1.00  0.00     0.041 C 
ATOM      5  C   UNL     1       0.418  44.551  54.602  1.00  0.00     0.105 C 
ATOM      6  C   UNL     1       0.863  45.336  53.336  1.00  0.00     0.157 C 
ENDROOT
BRANCH   1   7
ATOM      7  C   UNL     1       1.321  44.062  51.209  1.00  0.00     0.253 C 
ATOM      8  O   UNL     1       0.911  43.228  50.356  1.00  0.00    -0.269 OA
BRANCH   7   9
ATOM      9  C   UNL     1       2.757  44.416  51.234  1.00  0.00     0.040 A 
ATOM     10  C   UNL     1       3.723  43.465  51.598  1.00  0.00     0.016 A 
ATOM     11  C   UNL     1       3.174  45.700  50.847  1.00  0.00     0.016 A 
ATOM     12  C   UNL     1       5.079  43.802  51.610  1.00  0.00     0.027 A 
ATOM     13  C   UNL     1       4.531  46.037  50.859  1.00  0.00     0.027 A 
ATOM     14  C   UNL     1       5.492  45.096  51.256  1.00  0.00     0.047 A 
BRANCH  14  15
ATOM     15  N   UNL     1       6.888  45.445  51.253  1.00  0.00    -0.299 N 
ATOM     16  C   UNL     1       7.773  45.227  50.248  1.00  0.00     0.205 A 
ATOM     17  C   UNL     1       7.616  46.040  52.214  1.00  0.00     0.073 A 
ATOM     18  N   UNL     1       9.030  45.649  50.537  1.00  0.00    -0.236 NA
ATOM     19  C   UNL     1       7.210  46.552  53.450  1.00  0.00     0.029 A 
ATOM     20  C   UNL     1       8.903  46.156  51.777  1.00  0.00     0.089 A 
ATOM     21  C   UNL     1       8.187  47.163  54.257  1.00  0.00     0.002 A 
ATOM     22  C   UNL     1       9.894  46.758  52.549  1.00  0.00     0.030 A 
ATOM     23  C   UNL     1       9.525  47.261  53.811  1.00  0.00     0.002 A 
ENDBRANCH  14  15
ENDBRANCH   7   9
ENDBRANCH   1   7
BRANCH   5  24
ATOM     24  O   UNL     1       1.256  43.427  54.763  1.00  0.00    -0.386 OA
ATOM     25  H   UNL     1       1.978  43.664  55.401  1.00  0.00     0.211 HD
ENDBRANCH   5  24
BRANCH   5  26
ATOM     26  C   UNL     1       0.550  45.455  55.853  1.00  0.00     0.193 C 
BRANCH  26  27
ATOM     27  O   UNL     1       1.619  45.038  56.659  1.00  0.00    -0.393 OA
ATOM     28  H   UNL     1       1.288  45.066  57.594  1.00  0.00     0.210 HD
ENDBRANCH  26  27
ENDBRANCH   5  26
TORSDOF 6
ENDMDL
MODEL 4
REMARK VINA RESULT:    -8.428      1.563      2.600
REMARK INTER + INTRA:         -11.727
REMARK INTER:                 -10.999
REMARK INTRA:                  -0.727
REMARK UNBOUND:                -0.835
REMARK SMILES O=C(c1ccc(-n2cnc3ccccc32)cc1)N1CCC[C@](O)(CO)C1
REMARK SMILES IDX 18 1 19 2 20 3 21 4 22 5 26 6 2 7 1 8 3 9 4 10 17 11 5 12
REMARK SMILES IDX 16 13 6 14 7 15 8 16 15 17 9 18 14 19 10 20 13 21 11 22
REMARK SMILES IDX 12 23 23 24 24 26 25 27
REMARK H PARENT 23 25 25 28
ROOT
ATOM      1  N   UNL     1       0.498  44.543  55.082  1.00  0.00    -0.336 N 
ATOM      2  C   UNL     1      -0.772  44.536  55.828  1.00  0.00     0.120 C 
ATOM      3  C   UNL     1      -1.937  44.058  54.949  1.00  0.00     0.025 C 
ATOM      4  C   UNL     1      -1.875  44.733  53.571  1.00  0.00     0.041 C 
ATOM      5  C   UNL     1      -0.523  44.489  52.820  1.00  0.00     0.105 C 
ATOM      6  C   UNL     1       0.556  43.892  53.768  1.00  0.00     0.157 C 
ENDROOT
BRANCH   1   7
ATOM      7  C   UNL     1       1.588  45.372  55.529  1.00  0.00     0.253 C 
ATOM      8  O   UNL     1       1.493  45.987  56.626  1.00  0.00    -0.269 OA
BRANCH   7   9
ATOM      9  C   UNL     1       2.831  45.505  54.737  1.00  0.00     0.040 A 
ATOM     10  C   UNL     1       2.969  46.530  53.788  1.00  0.00     0.016 A 
ATOM     11  C   UNL     1       3.906  44.630  54.960  1.00  0.00     0.016 A 
ATOM     12  C   UNL     1       4.149  46.657  53.050  1.00  0.00     0.027 A 
ATOM     13  C   UNL     1       5.086  44.758  54.221  1.00  0.00     0.027 A 
ATOM     14  C   UNL     1       5.211  45.762  53.249  1.00  0.00     0.047 A 
BRANCH  14  15
ATOM     15  N   UNL     1       6.433  45.896  52.503  1.00  0.00    -0.299 N 
ATOM     16  C   UNL     1       6.612  45.614  51.188  1.00  0.00     0.205 A 
ATOM     17  C   UNL     1       7.641  46.312  52.922  1.00  0.00     0.073 A 
ATOM     18  N   UNL     1       7.884  45.822  50.762  1.00  0.00    -0.236 NA
ATOM     19  C   UNL     1       8.031  46.798  54.174  1.00  0.00     0.029 A 
ATOM     20  C   UNL     1       8.509  46.261  51.870  1.00  0.00     0.089 A 
ATOM     21  C   UNL     1       9.370  47.202  54.330  1.00  0.00     0.002 A 
ATOM     22  C   UNL     1       9.839  46.656  51.990  1.00  0.00     0.030 A 
ATOM     23  C   UNL     1      10.271  47.127  53.244  1.00  0.00     0.002 A 
ENDBRANCH  14  15
ENDBRANCH   7   9
ENDBRANCH   1   7
BRANCH   5  24
ATOM     24  O   UNL     1      -0.073  45.739  52.344  1.00  0.00    -0.386 OA
ATOM     25  H   UNL     1      -0.752  46.426  52.578  1.00  0.00     0.211 HD
ENDBRANCH   5  24
BRANCH   5  26
ATOM     26  C   UNL     1      -0.743  43.544  51.614  1.00  0.00     0.193 C 
BRANCH  26  27
ATOM     27  O   UNL     1       0.148  43.847  50.574  1.00  0.00    -0.393 OA
ATOM     28  H   UNL     1       0.425  42.977  50.186  1.00  0.00     0.210 HD
ENDBRANCH  26  27
ENDBRANCH   5  26
TORSDOF 6
ENDMDL
MODEL 5
REMARK VINA RESULT:    -8.273      3.162      8.958
REMARK INTER + INTRA:         -11.526
REMARK INTER:                 -10.754
REMARK INTRA:                  -0.771
REMARK UNBOUND:                -0.835
REMARK SMILES O=C(c1ccc(-n2cnc3ccccc32)cc1)N1CCC[C@](O)(CO)C1
REMARK SMILES IDX 18 1 19 2 20 3 21 4 22 5 26 6 2 7 1 8 3 9 4 10 17 11 5 12
REMARK SMILES IDX 16 13 6 14 7 15 8 16 15 17 9 18 14 19 10 20 13 21 11 22
REMARK SMILES IDX 12 23 23 24 24 26 25 27
REMARK H PARENT 23 25 25 28
ROOT
ATOM      1  N   UNL     1       6.235  46.498  52.996  1.00  0.00    -0.336 N 
ATOM      2  C   UNL     1       6.302  46.084  51.584  1.00  0.00     0.120 C 
ATOM      3  C   UNL     1       7.753  45.880  51.127  1.00  0.00     0.025 C 
ATOM      4  C   UNL     1       8.633  47.040  51.615  1.00  0.00     0.041 C 
ATOM      5  C   UNL     1       8.600  47.233  53.168  1.00  0.00     0.105 C 
ATOM      6  C   UNL     1       7.447  46.417  53.820  1.00  0.00     0.157 C 
ENDROOT
BRANCH   1   7
ATOM      7  C   UNL     1       5.069  47.185  53.489  1.00  0.00     0.253 C 
ATOM      8  O   UNL     1       5.127  48.424  53.716  1.00  0.00    -0.269 OA
BRANCH   7   9
ATOM      9  C   UNL     1       3.793  46.471  53.717  1.00  0.00     0.040 A 
ATOM     10  C   UNL     1       3.603  45.697  54.872  1.00  0.00     0.016 A 
ATOM     11  C   UNL     1       2.740  46.598  52.798  1.00  0.00     0.016 A 
ATOM     12  C   UNL     1       2.391  45.034  55.088  1.00  0.00     0.027 A 
ATOM     13  C   UNL     1       1.528  45.934  53.014  1.00  0.00     0.027 A 
ATOM     14  C   UNL     1       1.351  45.134  54.152  1.00  0.00     0.047 A 
BRANCH  14  15
ATOM     15  N   UNL     1       0.097  44.465  54.375  1.00  0.00    -0.299 N 
ATOM     16  C   UNL     1      -0.405  43.429  53.658  1.00  0.00     0.205 A 
ATOM     17  C   UNL     1      -0.839  44.709  55.309  1.00  0.00     0.073 A 
ATOM     18  N   UNL     1      -1.623  43.014  54.092  1.00  0.00    -0.236 NA
ATOM     19  C   UNL     1      -0.827  45.624  56.366  1.00  0.00     0.029 A 
ATOM     20  C   UNL     1      -1.871  43.833  55.130  1.00  0.00     0.089 A 
ATOM     21  C   UNL     1      -1.940  45.644  57.227  1.00  0.00     0.002 A 
ATOM     22  C   UNL     1      -2.986  43.825  55.966  1.00  0.00     0.030 A 
ATOM     23  C   UNL     1      -3.017  44.752  57.024  1.00  0.00     0.002 A 
ENDBRANCH  14  15
ENDBRANCH   7   9
ENDBRANCH   1   7
BRANCH   5  24
ATOM     24  O   UNL     1       8.388  48.605  53.419  1.00  0.00    -0.386 OA
ATOM     25  H   UNL     1       9.079  48.916  54.060  1.00  0.00     0.211 HD
ENDBRANCH   5  24
BRANCH   5  26
ATOM     26  C   UNL     1       9.955  46.815  53.789  1.00  0.00     0.193 C 
BRANCH  26  27
ATOM     27  O   UNL     1      10.014  47.172  55.145  1.00  0.00    -0.393 OA
ATOM     28  H   UNL     1       9.100  47.035  55.506  1.00  0.00     0.210 HD
ENDBRANCH  26  27
ENDBRANCH   5  26
TORSDOF 6
ENDMDL
