MODEL 1
REMARK VINA RESULT:    -9.309      0.000      0.000
REMARK INTER + INTRA:         -10.044
REMARK INTER:                  -9.853
REMARK INTRA:                  -0.191
REMARK UNBOUND:                -0.191
REMARK SMILES CN1CCC2(CCN(C(=O)c3ccc4cccnn34)CC2)C1=O
REMARK SMILES IDX 1 1 2 2 3 3 4 4 5 5 6 6 7 7 8 8 20 9 21 10 9 11 10 12 22 13
REMARK SMILES IDX 23 14 11 15 12 16 19 17 13 18 18 19 14 20 17 21 15 22 16 23
REMARK H PARENT
ROOT
ATOM      1  C   UNL     1      -0.883  42.953  54.272  1.00  0.00     0.146 C 
ATOM      2  N   UNL     1       0.051  43.363  53.231  1.00  0.00    -0.345 N 
ATOM      3  C   UNL     1       0.234  42.674  51.970  1.00  0.00     0.120 C 
ATOM      4  C   UNL     1       1.250  43.519  51.180  1.00  0.00     0.038 C 
ATOM      5  C   UNL     1       1.928  44.492  52.189  1.00  0.00     0.054 C 
ATOM      6  C   UNL     1       3.348  43.983  52.546  1.00  0.00     0.038 C 
ATOM      7  C   UNL     1       4.121  44.973  53.424  1.00  0.00     0.121 C 
ATOM      8  N   UNL     1       4.104  46.309  52.818  1.00  0.00    -0.337 N 
ATOM      9  C   UNL     1       2.805  46.894  52.476  1.00  0.00     0.121 C 
ATOM     10  C   UNL     1       1.989  45.928  51.606  1.00  0.00     0.038 C 
ATOM     11  C   UNL     1       5.241  47.174  52.981  1.00  0.00     0.272 C 
ATOM     12  O   UNL     1       5.086  48.311  53.503  1.00  0.00    -0.267 OA
ATOM     13  C   UNL     1       1.010  44.393  53.367  1.00  0.00     0.228 C 
ATOM     14  O   UNL     1       1.081  45.118  54.396  1.00  0.00    -0.274 OA
ENDROOT
BRANCH  11  15
ATOM     15  C   UNL     1       6.581  46.762  52.518  1.00  0.00     0.130 A 
ATOM     16  C   UNL     1       6.876  46.133  51.311  1.00  0.00     0.036 A 
ATOM     17  N   UNL     1       7.733  46.978  53.180  1.00  0.00    -0.228 N 
ATOM     18  C   UNL     1       8.256  45.960  51.263  1.00  0.00     0.031 A 
ATOM     19  N   UNL     1       7.910  47.555  54.368  1.00  0.00    -0.176 NA
ATOM     20  C   UNL     1       8.740  46.497  52.438  1.00  0.00     0.066 A 
ATOM     21  C   UNL     1       9.170  47.674  54.872  1.00  0.00     0.134 A 
ATOM     22  C   UNL     1      10.053  46.585  52.888  1.00  0.00     0.030 A 
ATOM     23  C   UNL     1      10.266  47.189  54.136  1.00  0.00     0.024 A 
ENDBRANCH  11  15
TORSDOF 1
ENDMDL
MODEL 2
REMARK VINA RESULT:    -8.961      1.989      3.206
REMARK INTER + INTRA:          -9.676
REMARK INTER:                  -9.475
REMARK INTRA:                  -0.201
REMARK UNBOUND:                -0.191
REMARK SMILES CN1CCC2(CCN(C(=O)c3ccc4cccnn34)CC2)C1=O
REMARK SMILES IDX 1 1 2 2 3 3 4 4 5 5 6 6 7 7 8 8 20 9 21 10 9 11 10 12 22 13
REMARK SMILES IDX 23 14 11 15 12 16 19 17 13 18 18 19 14 20 17 21 15 22 16 23
REMARK H PARENT
ROOT
ATOM      1  C   UNL     1       1.238  44.779  56.303  1.00  0.00     0.146 C 
ATOM      2  N   UNL     1       1.909  44.844  55.011  1.00  0.00    -0.345 N 
ATOM      3  C   UNL     1       1.610  43.987  53.882  1.00  0.00     0.120 C 
ATOM      4  C   UNL     1       2.507  44.484  52.735  1.00  0.00     0.038 C 
ATOM      5  C   UNL     1       3.604  45.393  53.365  1.00  0.00     0.054 C 
ATOM      6  C   UNL     1       4.948  44.625  53.447  1.00  0.00     0.038 C 
ATOM      7  C   UNL     1       6.101  45.514  53.926  1.00  0.00     0.121 C 
ATOM      8  N   UNL     1       6.166  46.739  53.121  1.00  0.00    -0.337 N 
ATOM      9  C   UNL     1       4.954  47.555  53.010  1.00  0.00     0.121 C 
ATOM     10  C   UNL     1       3.767  46.700  52.546  1.00  0.00     0.038 C 
ATOM     11  C   UNL     1       7.443  47.341  52.851  1.00  0.00     0.272 C 
ATOM     12  O   UNL     1       7.650  48.537  53.190  1.00  0.00    -0.267 OA
ATOM     13  C   UNL     1       3.042  45.642  54.730  1.00  0.00     0.228 C 
ATOM     14  O   UNL     1       3.525  46.449  55.569  1.00  0.00    -0.274 OA
ENDROOT
BRANCH  11  15
ATOM     15  C   UNL     1       8.504  46.589  52.153  1.00  0.00     0.130 A 
ATOM     16  C   UNL     1       9.866  46.634  52.438  1.00  0.00     0.036 A 
ATOM     17  N   UNL     1       8.305  45.704  51.158  1.00  0.00    -0.228 N 
ATOM     18  C   UNL     1      10.499  45.750  51.570  1.00  0.00     0.031 A 
ATOM     19  N   UNL     1       7.158  45.352  50.580  1.00  0.00    -0.176 NA
ATOM     20  C   UNL     1       9.495  45.200  50.800  1.00  0.00     0.066 A 
ATOM     21  C   UNL     1       7.170  44.432  49.574  1.00  0.00     0.134 A 
ATOM     22  C   UNL     1       9.584  44.257  49.782  1.00  0.00     0.030 A 
ATOM     23  C   UNL     1       8.390  43.868  49.159  1.00  0.00     0.024 A 
ENDBRANCH  11  15
TORSDOF 1
ENDMDL
MODEL 3
REMARK VINA RESULT:    -8.611      1.440      2.317
REMARK INTER + INTRA:          -9.305
REMARK INTER:                  -9.040
REMARK INTRA:                  -0.266
REMARK UNBOUND:                -0.191
REMARK SMILES CN1CCC2(CCN(C(=O)c3ccc4cccnn34)CC2)C1=O
REMARK SMILES IDX 1 1 2 2 3 3 4 4 5 5 6 6 7 7 8 8 20 9 21 10 9 11 10 12 22 13
REMARK SMILES IDX 23 14 11 15 12 16 19 17 13 18 18 19 14 20 17 21 15 22 16 23
REMARK H PARENT
ROOT
ATOM      1  C   UNL     1       0.261  42.873  53.839  1.00  0.00     0.146 C 
ATOM      2  N   UNL     1       1.347  43.188  52.919  1.00  0.00    -0.345 N 
ATOM      3  C   UNL     1       1.802  42.320  51.853  1.00  0.00     0.120 C 
ATOM      4  C   UNL     1       2.897  43.111  51.113  1.00  0.00     0.038 C 
ATOM      5  C   UNL     1       3.317  44.293  52.035  1.00  0.00     0.054 C 
ATOM      6  C   UNL     1       4.672  43.980  52.719  1.00  0.00     0.038 C 
ATOM      7  C   UNL     1       5.209  45.166  53.527  1.00  0.00     0.121 C 
ATOM      8  N   UNL     1       5.228  46.377  52.699  1.00  0.00    -0.337 N 
ATOM      9  C   UNL     1       3.983  46.779  52.038  1.00  0.00     0.121 C 
ATOM     10  C   UNL     1       3.402  45.613  51.226  1.00  0.00     0.038 C 
ATOM     11  C   UNL     1       6.261  47.355  52.900  1.00  0.00     0.272 C 
ATOM     12  O   UNL     1       5.946  48.544  53.176  1.00  0.00    -0.267 OA
ATOM     13  C   UNL     1       2.202  44.307  53.034  1.00  0.00     0.228 C 
ATOM     14  O   UNL     1       2.037  45.196  53.914  1.00  0.00    -0.274 OA
ENDROOT
BRANCH  11  15
ATOM     15  C   UNL     1       7.686  46.995  52.758  1.00  0.00     0.130 A 
ATOM     16  C   UNL     1       8.721  47.390  53.600  1.00  0.00     0.036 A 
ATOM     17  N   UNL     1       8.192  46.186  51.808  1.00  0.00    -0.228 N 
ATOM     18  C   UNL     1       9.888  46.801  53.124  1.00  0.00     0.031 A 
ATOM     19  N   UNL     1       7.553  45.585  50.806  1.00  0.00    -0.176 NA
ATOM     20  C   UNL     1       9.511  46.068  52.018  1.00  0.00     0.066 A 
ATOM     21  C   UNL     1       8.256  44.802  49.939  1.00  0.00     0.134 A 
ATOM     22  C   UNL     1      10.292  45.285  51.174  1.00  0.00     0.030 A 
ATOM     23  C   UNL     1       9.643  44.639  50.112  1.00  0.00     0.024 A 
ENDBRANCH  11  15
TORSDOF 1
ENDMDL
MODEL 4
REMARK VINA RESULT:    -8.283      2.421      3.117
REMARK INTER + INTRA:          -8.958
REMARK INTER:                  -8.615
REMARK INTRA:                  -0.343
REMARK UNBOUND:                -0.191
REMARK SMILES CN1CCC2(CCN(C(=O)c3ccc4cccnn34)CC2)C1=O
REMARK SMILES IDX 1 1 2 2 3 3 4 4 5 5 6 6 7 7 8 8 20 9 21 10 9 11 10 12 22 13
REMARK SMILES IDX 23 14 11 15 12 16 19 17 13 18 18 19 14 20 17 21 15 22 16 23
REMARK H PARENT
ROOT
ATOM      1  C   UNL     1      -2.382  43.852  51.097  1.00  0.00     0.146 C 
ATOM      2  N   UNL     1      -1.211  44.046  51.943  1.00  0.00    -0.345 N 
ATOM      3  C   UNL     1      -1.211  44.770  53.198  1.00  0.00     0.120 C 
ATOM      4  C   UNL     1       0.218  44.633  53.755  1.00  0.00     0.038 C 
ATOM      5  C   UNL     1       1.126  44.145  52.587  1.00  0.00     0.054 C 
ATOM      6  C   UNL     1       1.964  45.326  52.035  1.00  0.00     0.038 C 
ATOM      7  C   UNL     1       2.982  44.879  50.981  1.00  0.00     0.121 C 
ATOM      8  N   UNL     1       3.789  43.767  51.494  1.00  0.00    -0.337 N 
ATOM      9  C   UNL     1       3.088  42.586  52.007  1.00  0.00     0.121 C 
ATOM     10  C   UNL     1       2.047  42.990  53.059  1.00  0.00     0.038 C 
ATOM     11  C   UNL     1       5.164  43.645  51.091  1.00  0.00     0.272 C 
ATOM     12  O   UNL     1       5.555  42.586  50.530  1.00  0.00    -0.267 OA
ATOM     13  C   UNL     1       0.110  43.692  51.585  1.00  0.00     0.228 C 
ATOM     14  O   UNL     1       0.380  43.084  50.514  1.00  0.00    -0.274 OA
ENDROOT
BRANCH  11  15
ATOM     15  C   UNL     1       6.130  44.730  51.354  1.00  0.00     0.130 A 
ATOM     16  C   UNL     1       6.986  45.311  50.422  1.00  0.00     0.036 A 
ATOM     17  N   UNL     1       6.297  45.354  52.535  1.00  0.00    -0.228 N 
ATOM     18  C   UNL     1       7.695  46.311  51.080  1.00  0.00     0.031 A 
ATOM     19  N   UNL     1       5.678  45.118  53.691  1.00  0.00    -0.176 NA
ATOM     20  C   UNL     1       7.234  46.300  52.380  1.00  0.00     0.066 A 
ATOM     21  C   UNL     1       5.997  45.866  54.784  1.00  0.00     0.134 A 
ATOM     22  C   UNL     1       7.610  47.102  53.453  1.00  0.00     0.030 A 
ATOM     23  C   UNL     1       6.972  46.875  54.681  1.00  0.00     0.024 A 
ENDBRANCH  11  15
TORSDOF 1
ENDMDL
MODEL 5
REMARK VINA RESULT:    -8.199      4.843      7.280
REMARK INTER + INTRA:          -8.870
REMARK INTER:                  -8.557
REMARK INTRA:                  -0.313
REMARK UNBOUND:                -0.191
REMARK SMILES CN1CCC2(CCN(C(=O)c3ccc4cccnn34)CC2)C1=O
REMARK SMILES IDX 1 1 2 2 3 3 4 4 5 5 6 6 7 7 8 8 20 9 21 10 9 11 10 12 22 13
REMARK SMILES IDX 23 14 11 15 12 16 19 17 13 18 18 19 14 20 17 21 15 22 16 23
REMARK H PARENT
ROOT
ATOM      1  C   UNL     1       4.039  46.695  54.990  1.00  0.00     0.146 C 
ATOM      2  N   UNL     1       3.989  46.460  53.552  1.00  0.00    -0.345 N 
ATOM      3  C   UNL     1       3.167  47.209  52.623  1.00  0.00     0.120 C 
ATOM      4  C   UNL     1       3.514  46.660  51.227  1.00  0.00     0.038 C 
ATOM      5  C   UNL     1       4.266  45.311  51.433  1.00  0.00     0.054 C 
ATOM      6  C   UNL     1       3.315  44.122  51.142  1.00  0.00     0.038 C 
ATOM      7  C   UNL     1       4.037  42.771  51.188  1.00  0.00     0.121 C 
ATOM      8  N   UNL     1       5.228  42.802  50.333  1.00  0.00    -0.337 N 
ATOM      9  C   UNL     1       6.207  43.870  50.554  1.00  0.00     0.121 C 
ATOM     10  C   UNL     1       5.524  45.244  50.529  1.00  0.00     0.038 C 
ATOM     11  C   UNL     1       5.637  41.607  49.646  1.00  0.00     0.272 C 
ATOM     12  O   UNL     1       6.797  41.149  49.835  1.00  0.00    -0.267 OA
ATOM     13  C   UNL     1       4.612  45.379  52.888  1.00  0.00     0.228 C 
ATOM     14  O   UNL     1       5.354  44.555  53.488  1.00  0.00    -0.274 OA
ENDROOT
BRANCH  11  15
ATOM     15  C   UNL     1       4.731  40.927  48.701  1.00  0.00     0.130 A 
ATOM     16  C   UNL     1       3.702  40.050  49.035  1.00  0.00     0.036 A 
ATOM     17  N   UNL     1       4.736  41.090  47.364  1.00  0.00    -0.228 N 
ATOM     18  C   UNL     1       3.082  39.671  47.848  1.00  0.00     0.031 A 
ATOM     19  N   UNL     1       5.549  41.843  46.625  1.00  0.00    -0.176 NA
ATOM     20  C   UNL     1       3.754  40.339  46.846  1.00  0.00     0.066 A 
ATOM     21  C   UNL     1       5.391  41.868  45.272  1.00  0.00     0.134 A 
ATOM     22  C   UNL     1       3.534  40.315  45.473  1.00  0.00     0.030 A 
ATOM     23  C   UNL     1       4.375  41.101  44.673  1.00  0.00     0.024 A 
ENDBRANCH  11  15
TORSDOF 1
ENDMDL
