MODEL 1
REMARK VINA RESULT:    -8.901      0.000      0.000
REMARK INTER + INTRA:         -10.759
REMARK INTER:                 -10.462
REMARK INTRA:                  -0.297
REMARK UNBOUND:                -0.297
REMARK SMILES C[C@@H](Nc1nc2ccccc2n2nnnc12)c1cnccn1
REMARK SMILES IDX 1 1 2 2 3 3 4 5 5 6 16 7 6 8 15 9 12 10 7 11 11 12 14 13
REMARK SMILES IDX 13 14 8 15 10 16 9 17 17 18 18 19 22 20 19 21 21 22 20 23
REMARK H PARENT 3 4
ROOT
ATOM      1  C   UNL     1       4.400  45.310  55.323  1.00  0.00     0.038 C 
ATOM      2  C   UNL     1       3.418  46.354  54.784  1.00  0.00     0.128 C 
ENDROOT
BRANCH   2   3
ATOM      3  N   UNL     1       4.084  47.242  53.825  1.00  0.00    -0.359 N 
ATOM      4  H   UNL     1       3.590  48.103  53.493  1.00  0.00     0.162 HD
BRANCH   3   5
ATOM      5  C   UNL     1       5.401  46.966  53.326  1.00  0.00     0.174 A 
ATOM      6  N   UNL     1       6.515  47.340  54.028  1.00  0.00    -0.225 NA
ATOM      7  C   UNL     1       5.598  46.317  52.106  1.00  0.00     0.222 A 
ATOM      8  C   UNL     1       7.779  47.094  53.563  1.00  0.00     0.091 A 
ATOM      9  N   UNL     1       4.678  45.859  51.239  1.00  0.00    -0.105 NA
ATOM     10  N   UNL     1       6.826  46.075  51.653  1.00  0.00    -0.188 N 
ATOM     11  C   UNL     1       8.901  47.489  54.299  1.00  0.00     0.031 A 
ATOM     12  C   UNL     1       7.951  46.433  52.322  1.00  0.00     0.095 A 
ATOM     13  N   UNL     1       5.397  45.333  50.249  1.00  0.00    -0.023 NA
ATOM     14  N   UNL     1       6.698  45.461  50.493  1.00  0.00    -0.039 NA
ATOM     15  C   UNL     1      10.186  47.228  53.805  1.00  0.00     0.002 A 
ATOM     16  C   UNL     1       9.238  46.174  51.832  1.00  0.00     0.031 A 
ATOM     17  C   UNL     1      10.353  46.574  52.578  1.00  0.00     0.002 A 
ENDBRANCH   3   5
ENDBRANCH   2   3
BRANCH   2  18
ATOM     18  C   UNL     1       2.248  45.667  54.127  1.00  0.00     0.081 A 
ATOM     19  C   UNL     1       1.708  46.147  52.925  1.00  0.00     0.137 A 
ATOM     20  N   UNL     1       1.685  44.573  54.712  1.00  0.00    -0.256 NA
ATOM     21  N   UNL     1       0.649  45.507  52.364  1.00  0.00    -0.261 NA
ATOM     22  C   UNL     1       0.625  43.935  54.150  1.00  0.00     0.131 A 
ATOM     23  C   UNL     1       0.096  44.412  52.950  1.00  0.00     0.131 A 
ENDBRANCH   2  18
TORSDOF 3
ENDMDL
MODEL 2
REMARK VINA RESULT:    -8.625      1.716      2.929
REMARK INTER + INTRA:         -10.435
REMARK INTER:                  -9.947
REMARK INTRA:                  -0.488
REMARK UNBOUND:                -0.297
REMARK SMILES C[C@@H](Nc1nc2ccccc2n2nnnc12)c1cnccn1
REMARK SMILES IDX 1 1 2 2 3 3 4 5 5 6 16 7 6 8 15 9 12 10 7 11 11 12 14 13
REMARK SMILES IDX 13 14 8 15 10 16 9 17 17 18 18 19 22 20 19 21 21 22 20 23
REMARK H PARENT 3 4
ROOT
ATOM      1  C   UNL     1       4.342  42.289  50.759  1.00  0.00     0.038 C 
ATOM      2  C   UNL     1       4.005  43.426  51.728  1.00  0.00     0.128 C 
ENDROOT
BRANCH   2   3
ATOM      3  N   UNL     1       4.531  44.701  51.231  1.00  0.00    -0.359 N 
ATOM      4  H   UNL     1       4.146  45.107  50.346  1.00  0.00     0.162 HD
BRANCH   3   5
ATOM      5  C   UNL     1       5.564  45.416  51.925  1.00  0.00     0.174 A 
ATOM      6  N   UNL     1       6.868  45.353  51.510  1.00  0.00    -0.225 NA
ATOM      7  C   UNL     1       5.285  46.194  53.050  1.00  0.00     0.222 A 
ATOM      8  C   UNL     1       7.868  46.020  52.165  1.00  0.00     0.091 A 
ATOM      9  N   UNL     1       4.101  46.411  53.648  1.00  0.00    -0.105 NA
ATOM     10  N   UNL     1       6.256  46.845  53.686  1.00  0.00    -0.188 N 
ATOM     11  C   UNL     1       9.192  45.937  51.723  1.00  0.00     0.031 A 
ATOM     12  C   UNL     1       7.557  46.803  53.304  1.00  0.00     0.095 A 
ATOM     13  N   UNL     1       4.394  47.217  54.668  1.00  0.00    -0.023 NA
ATOM     14  N   UNL     1       5.697  47.482  54.697  1.00  0.00    -0.039 NA
ATOM     15  C   UNL     1      10.201  46.626  52.407  1.00  0.00     0.002 A 
ATOM     16  C   UNL     1       8.569  47.492  53.986  1.00  0.00     0.031 A 
ATOM     17  C   UNL     1       9.890  47.400  53.533  1.00  0.00     0.002 A 
ENDBRANCH   3   5
ENDBRANCH   2   3
BRANCH   2  18
ATOM     18  C   UNL     1       2.511  43.518  51.911  1.00  0.00     0.081 A 
ATOM     19  C   UNL     1       1.757  44.481  51.226  1.00  0.00     0.137 A 
ATOM     20  N   UNL     1       1.877  42.670  52.768  1.00  0.00    -0.256 NA
ATOM     21  N   UNL     1       0.413  44.541  51.420  1.00  0.00    -0.261 NA
ATOM     22  C   UNL     1       0.534  42.732  52.961  1.00  0.00     0.131 A 
ATOM     23  C   UNL     1      -0.215  43.688  52.271  1.00  0.00     0.131 A 
ENDBRANCH   2  18
TORSDOF 3
ENDMDL
MODEL 3
REMARK VINA RESULT:    -8.551      2.054      2.838
REMARK INTER + INTRA:         -10.348
REMARK INTER:                  -9.866
REMARK INTRA:                  -0.482
REMARK UNBOUND:                -0.297
REMARK SMILES C[C@@H](Nc1nc2ccccc2n2nnnc12)c1cnccn1
REMARK SMILES IDX 1 1 2 2 3 3 4 5 5 6 16 7 6 8 15 9 12 10 7 11 11 12 14 13
REMARK SMILES IDX 13 14 8 15 10 16 9 17 17 18 18 19 22 20 19 21 21 22 20 23
REMARK H PARENT 3 4
ROOT
ATOM      1  C   UNL     1       3.892  42.046  50.948  1.00  0.00     0.038 C 
ATOM      2  C   UNL     1       4.116  43.352  51.715  1.00  0.00     0.128 C 
ENDROOT
BRANCH   2   3
ATOM      3  N   UNL     1       4.764  44.350  50.857  1.00  0.00    -0.359 N 
ATOM      4  H   UNL     1       4.258  44.709  50.014  1.00  0.00     0.162 HD
BRANCH   3   5
ATOM      5  C   UNL     1       6.077  44.854  51.140  1.00  0.00     0.174 A 
ATOM      6  N   UNL     1       6.302  45.684  52.205  1.00  0.00    -0.225 NA
ATOM      7  C   UNL     1       7.173  44.527  50.338  1.00  0.00     0.222 A 
ATOM      8  C   UNL     1       7.546  46.182  52.484  1.00  0.00     0.091 A 
ATOM      9  N   UNL     1       7.211  43.743  49.247  1.00  0.00    -0.105 NA
ATOM     10  N   UNL     1       8.384  45.009  50.610  1.00  0.00    -0.188 N 
ATOM     11  C   UNL     1       7.748  47.031  53.577  1.00  0.00     0.031 A 
ATOM     12  C   UNL     1       8.641  45.834  51.655  1.00  0.00     0.095 A 
ATOM     13  N   UNL     1       8.489  43.770  48.871  1.00  0.00    -0.023 NA
ATOM     14  N   UNL     1       9.204  44.535  49.691  1.00  0.00    -0.039 NA
ATOM     15  C   UNL     1       9.028  47.531  53.846  1.00  0.00     0.002 A 
ATOM     16  C   UNL     1       9.921  46.336  51.927  1.00  0.00     0.031 A 
ATOM     17  C   UNL     1      10.110  47.184  53.024  1.00  0.00     0.002 A 
ENDBRANCH   3   5
ENDBRANCH   2   3
BRANCH   2  18
ATOM     18  C   UNL     1       2.800  43.882  52.224  1.00  0.00     0.081 A 
ATOM     19  C   UNL     1       1.924  43.064  52.953  1.00  0.00     0.137 A 
ATOM     20  N   UNL     1       2.435  45.167  51.959  1.00  0.00    -0.256 NA
ATOM     21  N   UNL     1       0.742  43.572  53.390  1.00  0.00    -0.261 NA
ATOM     22  C   UNL     1       1.253  45.672  52.396  1.00  0.00     0.131 A 
ATOM     23  C   UNL     1       0.387  44.858  53.128  1.00  0.00     0.131 A 
ENDBRANCH   2  18
TORSDOF 3
ENDMDL
MODEL 4
REMARK VINA RESULT:    -8.550      2.036      3.259
REMARK INTER + INTRA:         -10.346
REMARK INTER:                 -10.099
REMARK INTRA:                  -0.247
REMARK UNBOUND:                -0.297
REMARK SMILES C[C@@H](Nc1nc2ccccc2n2nnnc12)c1cnccn1
REMARK SMILES IDX 1 1 2 2 3 3 4 5 5 6 16 7 6 8 15 9 12 10 7 11 11 12 14 13
REMARK SMILES IDX 13 14 8 15 10 16 9 17 17 18 18 19 22 20 19 21 21 22 20 23
REMARK H PARENT 3 4
ROOT
ATOM      1  C   UNL     1       5.056  45.010  54.931  1.00  0.00     0.038 C 
ATOM      2  C   UNL     1       4.092  46.171  54.669  1.00  0.00     0.128 C 
ENDROOT
BRANCH   2   3
ATOM      3  N   UNL     1       4.438  46.856  53.419  1.00  0.00    -0.359 N 
ATOM      4  H   UNL     1       3.970  47.762  53.183  1.00  0.00     0.162 HD
BRANCH   3   5
ATOM      5  C   UNL     1       5.405  46.321  52.504  1.00  0.00     0.174 A 
ATOM      6  N   UNL     1       5.141  45.190  51.779  1.00  0.00    -0.225 NA
ATOM      7  C   UNL     1       6.651  46.924  52.324  1.00  0.00     0.222 A 
ATOM      8  C   UNL     1       6.055  44.660  50.908  1.00  0.00     0.091 A 
ATOM      9  N   UNL     1       7.144  48.027  52.914  1.00  0.00    -0.105 NA
ATOM     10  N   UNL     1       7.540  46.411  51.476  1.00  0.00    -0.188 N 
ATOM     11  C   UNL     1       5.762  43.502  50.181  1.00  0.00     0.031 A 
ATOM     12  C   UNL     1       7.312  45.292  50.743  1.00  0.00     0.095 A 
ATOM     13  N   UNL     1       8.363  48.159  52.390  1.00  0.00    -0.023 NA
ATOM     14  N   UNL     1       8.609  47.183  51.520  1.00  0.00    -0.039 NA
ATOM     15  C   UNL     1       6.711  42.974  49.297  1.00  0.00     0.002 A 
ATOM     16  C   UNL     1       8.259  44.761  49.857  1.00  0.00     0.031 A 
ATOM     17  C   UNL     1       7.954  43.602  49.135  1.00  0.00     0.002 A 
ENDBRANCH   3   5
ENDBRANCH   2   3
BRANCH   2  18
ATOM     18  C   UNL     1       2.677  45.657  54.603  1.00  0.00     0.081 A 
ATOM     19  C   UNL     1       1.991  45.275  55.766  1.00  0.00     0.137 A 
ATOM     20  N   UNL     1       2.050  45.538  53.400  1.00  0.00    -0.256 NA
ATOM     21  N   UNL     1       0.718  44.810  55.670  1.00  0.00    -0.261 NA
ATOM     22  C   UNL     1       0.778  45.072  53.306  1.00  0.00     0.131 A 
ATOM     23  C   UNL     1       0.096  44.701  54.466  1.00  0.00     0.131 A 
ENDBRANCH   2  18
TORSDOF 3
ENDMDL
MODEL 5
REMARK VINA RESULT:    -8.337      2.360      3.636
REMARK INTER + INTRA:         -10.096
REMARK INTER:                  -9.720
REMARK INTRA:                  -0.376
REMARK UNBOUND:                -0.297
REMARK SMILES C[C@@H](Nc1nc2ccccc2n2nnnc12)c1cnccn1
REMARK SMILES IDX 1 1 2 2 3 3 4 5 5 6 16 7 6 8 15 9 12 10 7 11 11 12 14 13
REMARK SMILES IDX 13 14 8 15 10 16 9 17 17 18 18 19 22 20 19 21 21 22 20 23
REMARK H PARENT 3 4
ROOT
ATOM      1  C   UNL     1       1.763  45.716  52.445  1.00  0.00     0.038 C 
ATOM      2  C   UNL     1       1.958  44.522  53.384  1.00  0.00     0.128 C 
ENDROOT
BRANCH   2   3
ATOM      3  N   UNL     1       3.359  44.421  53.806  1.00  0.00    -0.359 N 
ATOM      4  H   UNL     1       3.580  44.183  54.801  1.00  0.00     0.162 HD
BRANCH   3   5
ATOM      5  C   UNL     1       4.443  44.637  52.891  1.00  0.00     0.174 A 
ATOM      6  N   UNL     1       4.754  43.711  51.932  1.00  0.00    -0.225 NA
ATOM      7  C   UNL     1       5.227  45.791  52.948  1.00  0.00     0.222 A 
ATOM      8  C   UNL     1       5.790  43.896  51.057  1.00  0.00     0.091 A 
ATOM      9  N   UNL     1       5.127  46.834  53.790  1.00  0.00    -0.105 NA
ATOM     10  N   UNL     1       6.234  45.973  52.097  1.00  0.00    -0.188 N 
ATOM     11  C   UNL     1       6.088  42.932  50.088  1.00  0.00     0.031 A 
ATOM     12  C   UNL     1       6.570  45.076  51.136  1.00  0.00     0.095 A 
ATOM     13  N   UNL     1       6.110  47.651  53.415  1.00  0.00    -0.023 NA
ATOM     14  N   UNL     1       6.784  47.135  52.391  1.00  0.00    -0.039 NA
ATOM     15  C   UNL     1       7.154  43.140  49.203  1.00  0.00     0.002 A 
ATOM     16  C   UNL     1       7.634  45.280  50.248  1.00  0.00     0.031 A 
ATOM     17  C   UNL     1       7.923  44.309  49.283  1.00  0.00     0.002 A 
ENDBRANCH   3   5
ENDBRANCH   2   3
BRANCH   2  18
ATOM     18  C   UNL     1       1.062  44.664  54.588  1.00  0.00     0.081 A 
ATOM     19  C   UNL     1      -0.286  44.280  54.537  1.00  0.00     0.137 A 
ATOM     20  N   UNL     1       1.554  45.191  55.743  1.00  0.00    -0.256 NA
ATOM     21  N   UNL     1      -1.066  44.429  55.640  1.00  0.00    -0.261 NA
ATOM     22  C   UNL     1       0.772  45.340  56.844  1.00  0.00     0.131 A 
ATOM     23  C   UNL     1      -0.567  44.950  56.792  1.00  0.00     0.131 A 
ENDBRANCH   2  18
TORSDOF 3
ENDMDL
