MODEL 1
REMARK VINA RESULT:    -9.142      0.000      0.000
REMARK INTER + INTRA:         -11.744
REMARK INTER:                 -11.279
REMARK INTRA:                  -0.465
REMARK UNBOUND:                -0.465
REMARK SMILES c1ccc(Oc2ccnc(N[C@H]3CC[C@@H]4OCC[C@H]4C3)n2)cc1
REMARK SMILES IDX 6 1 7 2 8 3 9 4 10 5 21 6 5 7 4 8 1 9 2 10 23 11 3 12 22 13
REMARK SMILES IDX 11 14 12 16 13 17 20 18 14 19 19 20 15 21 18 22 16 23 17 24
REMARK H PARENT 11 15
ROOT
ATOM      1  C   UNL     1       5.418  46.548  54.466  1.00  0.00     0.224 A 
ATOM      2  C   UNL     1       4.259  47.156  54.949  1.00  0.00     0.089 A 
ATOM      3  C   UNL     1       3.054  46.458  54.862  1.00  0.00     0.121 A 
ATOM      4  N   UNL     1       3.029  45.213  54.323  1.00  0.00    -0.221 NA
ATOM      5  C   UNL     1       4.167  44.625  53.864  1.00  0.00     0.226 A 
ATOM      6  N   UNL     1       5.348  45.293  53.946  1.00  0.00    -0.177 NA
ENDROOT
BRANCH   1   7
ATOM      7  O   UNL     1       6.641  47.224  54.559  1.00  0.00    -0.439 OA
BRANCH   7   8
ATOM      8  C   UNL     1       7.703  47.087  53.653  1.00  0.00     0.129 A 
ATOM      9  C   UNL     1       9.880  46.819  51.901  1.00  0.00     0.000 A 
ATOM     10  C   UNL     1       8.591  46.983  51.390  1.00  0.00     0.004 A 
ATOM     11  C   UNL     1      10.088  46.806  53.284  1.00  0.00     0.004 A 
ATOM     12  C   UNL     1       7.505  47.125  52.259  1.00  0.00     0.047 A 
ATOM     13  C   UNL     1       9.003  46.946  54.155  1.00  0.00     0.047 A 
ENDBRANCH   7   8
ENDBRANCH   1   7
BRANCH   5  14
ATOM     14  N   UNL     1       4.111  43.307  53.301  1.00  0.00    -0.351 N 
ATOM     15  H   UNL     1       4.516  42.521  53.859  1.00  0.00     0.163 HD
BRANCH  14  16
ATOM     16  C   UNL     1       3.585  43.051  51.954  1.00  0.00     0.082 C 
ATOM     17  C   UNL     1       3.530  44.375  51.138  1.00  0.00     0.027 C 
ATOM     18  C   UNL     1       4.419  41.937  51.241  1.00  0.00     0.031 C 
ATOM     19  C   UNL     1       4.925  44.915  50.716  1.00  0.00     0.034 C 
ATOM     20  C   UNL     1       5.350  42.521  50.165  1.00  0.00     0.022 C 
ATOM     21  C   UNL     1       5.979  43.799  50.656  1.00  0.00     0.121 C 
ATOM     22  C   UNL     1       6.564  41.723  49.791  1.00  0.00     0.035 C 
ATOM     23  O   UNL     1       7.044  44.085  49.789  1.00  0.00    -0.378 OA
ATOM     24  C   UNL     1       7.542  42.825  49.370  1.00  0.00     0.161 C 
ENDBRANCH  14  16
ENDBRANCH   5  14
TORSDOF 4
ENDMDL
MODEL 2
REMARK VINA RESULT:    -8.970      1.670      4.636
REMARK INTER + INTRA:         -11.533
REMARK INTER:                 -11.197
REMARK INTRA:                  -0.335
REMARK UNBOUND:                -0.465
REMARK SMILES c1ccc(Oc2ccnc(N[C@H]3CC[C@@H]4OCC[C@H]4C3)n2)cc1
REMARK SMILES IDX 6 1 7 2 8 3 9 4 10 5 21 6 5 7 4 8 1 9 2 10 23 11 3 12 22 13
REMARK SMILES IDX 11 14 12 16 13 17 20 18 14 19 19 20 15 21 18 22 16 23 17 24
REMARK H PARENT 11 15
ROOT
ATOM      1  C   UNL     1       6.946  44.474  50.157  1.00  0.00     0.224 A 
ATOM      2  C   UNL     1       7.302  43.379  49.371  1.00  0.00     0.089 A 
ATOM      3  C   UNL     1       6.505  42.235  49.420  1.00  0.00     0.121 A 
ATOM      4  N   UNL     1       5.406  42.208  50.217  1.00  0.00    -0.221 NA
ATOM      5  C   UNL     1       5.062  43.286  50.972  1.00  0.00     0.226 A 
ATOM      6  N   UNL     1       5.829  44.408  50.931  1.00  0.00    -0.177 NA
ENDROOT
BRANCH   1   7
ATOM      7  O   UNL     1       7.723  45.639  50.109  1.00  0.00    -0.439 OA
BRANCH   7   8
ATOM      8  C   UNL     1       8.381  46.208  51.210  1.00  0.00     0.129 A 
ATOM      9  C   UNL     1       9.637  47.404  53.418  1.00  0.00     0.000 A 
ATOM     10  C   UNL     1      10.315  46.439  52.669  1.00  0.00     0.004 A 
ATOM     11  C   UNL     1       8.341  47.785  53.058  1.00  0.00     0.004 A 
ATOM     12  C   UNL     1       9.696  45.848  51.563  1.00  0.00     0.047 A 
ATOM     13  C   UNL     1       7.719  47.194  51.953  1.00  0.00     0.047 A 
ENDBRANCH   7   8
ENDBRANCH   1   7
BRANCH   5  14
ATOM     14  N   UNL     1       3.895  43.231  51.803  1.00  0.00    -0.351 N 
ATOM     15  H   UNL     1       3.791  42.412  52.444  1.00  0.00     0.163 HD
BRANCH  14  16
ATOM     16  C   UNL     1       2.824  44.233  51.719  1.00  0.00     0.082 C 
ATOM     17  C   UNL     1       1.873  44.107  52.945  1.00  0.00     0.027 C 
ATOM     18  C   UNL     1       3.425  45.668  51.566  1.00  0.00     0.031 C 
ATOM     19  C   UNL     1       2.501  44.588  54.283  1.00  0.00     0.034 C 
ATOM     20  C   UNL     1       3.319  46.474  52.872  1.00  0.00     0.022 C 
ATOM     21  C   UNL     1       3.637  45.596  54.054  1.00  0.00     0.121 C 
ATOM     22  C   UNL     1       4.291  47.598  53.073  1.00  0.00     0.035 C 
ATOM     23  O   UNL     1       3.852  46.451  55.147  1.00  0.00    -0.378 OA
ATOM     24  C   UNL     1       4.416  47.631  54.600  1.00  0.00     0.161 C 
ENDBRANCH  14  16
ENDBRANCH   5  14
TORSDOF 4
ENDMDL
MODEL 3
REMARK VINA RESULT:    -8.919      2.829      5.259
REMARK INTER + INTRA:         -11.469
REMARK INTER:                 -10.963
REMARK INTRA:                  -0.507
REMARK UNBOUND:                -0.465
REMARK SMILES c1ccc(Oc2ccnc(N[C@H]3CC[C@@H]4OCC[C@H]4C3)n2)cc1
REMARK SMILES IDX 6 1 7 2 8 3 9 4 10 5 21 6 5 7 4 8 1 9 2 10 23 11 3 12 22 13
REMARK SMILES IDX 11 14 12 16 13 17 20 18 14 19 19 20 15 21 18 22 16 23 17 24
REMARK H PARENT 11 15
ROOT
ATOM      1  C   UNL     1       5.873  45.017  51.381  1.00  0.00     0.224 A 
ATOM      2  C   UNL     1       5.835  43.895  50.554  1.00  0.00     0.089 A 
ATOM      3  C   UNL     1       4.929  42.877  50.852  1.00  0.00     0.121 A 
ATOM      4  N   UNL     1       4.105  42.994  51.925  1.00  0.00    -0.221 NA
ATOM      5  C   UNL     1       4.143  44.098  52.719  1.00  0.00     0.226 A 
ATOM      6  N   UNL     1       5.020  45.099  52.438  1.00  0.00    -0.177 NA
ENDROOT
BRANCH   1   7
ATOM      7  O   UNL     1       6.763  46.059  51.090  1.00  0.00    -0.439 OA
BRANCH   7   8
ATOM      8  C   UNL     1       7.835  46.447  51.906  1.00  0.00     0.129 A 
ATOM      9  C   UNL     1      10.032  47.176  53.497  1.00  0.00     0.000 A 
ATOM     10  C   UNL     1       8.741  47.550  53.877  1.00  0.00     0.004 A 
ATOM     11  C   UNL     1      10.227  46.424  52.334  1.00  0.00     0.004 A 
ATOM     12  C   UNL     1       7.644  47.182  53.093  1.00  0.00     0.047 A 
ATOM     13  C   UNL     1       9.131  46.056  51.546  1.00  0.00     0.047 A 
ENDBRANCH   7   8
ENDBRANCH   1   7
BRANCH   5  14
ATOM     14  N   UNL     1       3.260  44.196  53.845  1.00  0.00    -0.351 N 
ATOM     15  H   UNL     1       3.008  43.314  54.346  1.00  0.00     0.163 HD
BRANCH  14  16
ATOM     16  C   UNL     1       2.648  45.468  54.253  1.00  0.00     0.082 C 
ATOM     17  C   UNL     1       1.785  46.045  53.094  1.00  0.00     0.027 C 
ATOM     18  C   UNL     1       1.838  45.287  55.578  1.00  0.00     0.031 C 
ATOM     19  C   UNL     1       0.470  45.259  52.835  1.00  0.00     0.034 C 
ATOM     20  C   UNL     1       0.321  45.278  55.323  1.00  0.00     0.022 C 
ATOM     21  C   UNL     1       0.006  44.488  54.080  1.00  0.00     0.121 C 
ATOM     22  C   UNL     1      -0.547  44.590  56.334  1.00  0.00     0.035 C 
ATOM     23  O   UNL     1      -1.375  44.238  54.098  1.00  0.00    -0.378 OA
ATOM     24  C   UNL     1      -1.722  44.123  55.468  1.00  0.00     0.161 C 
ENDBRANCH  14  16
ENDBRANCH   5  14
TORSDOF 4
ENDMDL
MODEL 4
REMARK VINA RESULT:    -8.768      2.590      6.822
REMARK INTER + INTRA:         -11.283
REMARK INTER:                 -10.816
REMARK INTRA:                  -0.466
REMARK UNBOUND:                -0.465
REMARK SMILES c1ccc(Oc2ccnc(N[C@H]3CC[C@@H]4OCC[C@H]4C3)n2)cc1
REMARK SMILES IDX 6 1 7 2 8 3 9 4 10 5 21 6 5 7 4 8 1 9 2 10 23 11 3 12 22 13
REMARK SMILES IDX 11 14 12 16 13 17 20 18 14 19 19 20 15 21 18 22 16 23 17 24
REMARK H PARENT 11 15
ROOT
ATOM      1  C   UNL     1       4.810  41.809  50.077  1.00  0.00     0.224 A 
ATOM      2  C   UNL     1       3.484  41.603  50.455  1.00  0.00     0.089 A 
ATOM      3  C   UNL     1       2.951  42.391  51.475  1.00  0.00     0.121 A 
ATOM      4  N   UNL     1       3.718  43.338  52.072  1.00  0.00    -0.221 NA
ATOM      5  C   UNL     1       5.008  43.538  51.688  1.00  0.00     0.226 A 
ATOM      6  N   UNL     1       5.539  42.778  50.693  1.00  0.00    -0.177 NA
ENDROOT
BRANCH   1   7
ATOM      7  O   UNL     1       5.361  41.039  49.044  1.00  0.00    -0.439 OA
BRANCH   7   8
ATOM      8  C   UNL     1       4.941  41.078  47.706  1.00  0.00     0.129 A 
ATOM      9  C   UNL     1       4.152  41.215  45.015  1.00  0.00     0.000 A 
ATOM     10  C   UNL     1       3.422  40.437  45.916  1.00  0.00     0.004 A 
ATOM     11  C   UNL     1       5.265  41.938  45.457  1.00  0.00     0.004 A 
ATOM     12  C   UNL     1       3.806  40.373  47.259  1.00  0.00     0.047 A 
ATOM     13  C   UNL     1       5.652  41.874  46.800  1.00  0.00     0.047 A 
ENDBRANCH   7   8
ENDBRANCH   1   7
BRANCH   5  14
ATOM     14  N   UNL     1       5.796  44.547  52.335  1.00  0.00    -0.351 N 
ATOM     15  H   UNL     1       6.197  44.325  53.274  1.00  0.00     0.163 HD
BRANCH  14  16
ATOM     16  C   UNL     1       5.980  45.886  51.760  1.00  0.00     0.082 C 
ATOM     17  C   UNL     1       5.275  46.954  52.645  1.00  0.00     0.027 C 
ATOM     18  C   UNL     1       7.500  46.187  51.547  1.00  0.00     0.031 C 
ATOM     19  C   UNL     1       5.982  47.214  54.004  1.00  0.00     0.034 C 
ATOM     20  C   UNL     1       8.040  47.171  52.599  1.00  0.00     0.022 C 
ATOM     21  C   UNL     1       7.473  46.847  53.956  1.00  0.00     0.121 C 
ATOM     22  C   UNL     1       9.513  47.141  52.884  1.00  0.00     0.035 C 
ATOM     23  O   UNL     1       8.249  47.543  54.896  1.00  0.00    -0.378 OA
ATOM     24  C   UNL     1       9.555  47.593  54.347  1.00  0.00     0.161 C 
ENDBRANCH  14  16
ENDBRANCH   5  14
TORSDOF 4
ENDMDL
MODEL 5
REMARK VINA RESULT:    -8.120      2.281      4.822
REMARK INTER + INTRA:         -10.484
REMARK INTER:                 -10.574
REMARK INTRA:                   0.090
REMARK UNBOUND:                -0.465
REMARK SMILES c1ccc(Oc2ccnc(N[C@H]3CC[C@@H]4OCC[C@H]4C3)n2)cc1
REMARK SMILES IDX 6 1 7 2 8 3 9 4 10 5 21 6 5 7 4 8 1 9 2 10 23 11 3 12 22 13
REMARK SMILES IDX 11 14 12 16 13 17 20 18 14 19 19 20 15 21 18 22 16 23 17 24
REMARK H PARENT 11 15
ROOT
ATOM      1  C   UNL     1       5.720  44.129  50.675  1.00  0.00     0.224 A 
ATOM      2  C   UNL     1       6.593  43.179  50.145  1.00  0.00     0.089 A 
ATOM      3  C   UNL     1       6.158  41.857  50.044  1.00  0.00     0.121 A 
ATOM      4  N   UNL     1       4.908  41.521  50.450  1.00  0.00    -0.221 NA
ATOM      5  C   UNL     1       4.060  42.458  50.956  1.00  0.00     0.226 A 
ATOM      6  N   UNL     1       4.471  43.750  51.058  1.00  0.00    -0.177 NA
ENDROOT
BRANCH   1   7
ATOM      7  O   UNL     1       6.130  45.465  50.770  1.00  0.00    -0.439 OA
BRANCH   7   8
ATOM      8  C   UNL     1       7.114  45.940  51.649  1.00  0.00     0.129 A 
ATOM      9  C   UNL     1       9.139  46.876  53.353  1.00  0.00     0.000 A 
ATOM     10  C   UNL     1       7.853  46.661  53.853  1.00  0.00     0.004 A 
ATOM     11  C   UNL     1       9.421  46.609  52.010  1.00  0.00     0.004 A 
ATOM     12  C   UNL     1       6.844  46.186  53.010  1.00  0.00     0.047 A 
ATOM     13  C   UNL     1       8.413  46.137  51.164  1.00  0.00     0.047 A 
ENDBRANCH   7   8
ENDBRANCH   1   7
BRANCH   5  14
ATOM     14  N   UNL     1       2.744  42.075  51.376  1.00  0.00    -0.351 N 
ATOM     15  H   UNL     1       2.614  41.109  51.756  1.00  0.00     0.163 HD
BRANCH  14  16
ATOM     16  C   UNL     1       1.581  42.957  51.214  1.00  0.00     0.082 C 
ATOM     17  C   UNL     1       0.403  42.464  52.104  1.00  0.00     0.027 C 
ATOM     18  C   UNL     1       1.975  44.443  51.503  1.00  0.00     0.031 C 
ATOM     19  C   UNL     1       0.623  42.690  53.625  1.00  0.00     0.034 C 
ATOM     20  C   UNL     1       1.447  44.918  52.868  1.00  0.00     0.022 C 
ATOM     21  C   UNL     1       1.614  43.832  53.899  1.00  0.00     0.121 C 
ATOM     22  C   UNL     1       2.162  46.059  53.528  1.00  0.00     0.035 C 
ATOM     23  O   UNL     1       1.437  44.435  55.154  1.00  0.00    -0.378 OA
ATOM     24  C   UNL     1       1.924  45.759  55.011  1.00  0.00     0.161 C 
ENDBRANCH  14  16
ENDBRANCH   5  14
TORSDOF 4
ENDMDL
