MODEL 1
REMARK VINA RESULT:    -9.113      0.000      0.000
REMARK INTER + INTRA:         -13.666
REMARK INTER:                 -13.375
REMARK INTRA:                  -0.291
REMARK UNBOUND:                -0.291
REMARK SMILES CCN(C1CCCCC1)S(=O)(=O)CCNC(=O)Nc1ccn(-c2cccc(F)c2C#N)n1
REMARK SMILES IDX 13 1 10 2 11 3 12 4 3 5 2 6 1 7 4 8 5 9 9 10 6 11 8 12 7 13
REMARK SMILES IDX 14 14 15 15 16 16 17 17 18 18 19 21 20 22 32 23 21 24 22 25
REMARK SMILES IDX 23 26 24 27 29 28 25 29 27 30 30 31 26 32 31 33 28 34
REMARK H PARENT 15 19 18 20
ROOT
ATOM      1  C   UNL     1       3.421  45.890  54.250  1.00  0.00     0.175 C 
ENDROOT
BRANCH   1   2
ATOM      2  S   UNL     1       4.467  47.073  53.403  1.00  0.00     0.216 S 
ATOM      3  O   UNL     1       4.284  48.415  54.060  1.00  0.00    -0.212 OA
ATOM      4  O   UNL     1       4.044  47.187  51.963  1.00  0.00    -0.212 OA
BRANCH   2   5
ATOM      5  N   UNL     1       6.136  46.538  53.546  1.00  0.00    -0.199 NA
BRANCH   5   6
ATOM      6  C   UNL     1       6.291  45.079  53.722  1.00  0.00     0.099 C 
ATOM      7  C   UNL     1       6.154  44.737  55.206  1.00  0.00     0.022 C 
ENDBRANCH   5   6
BRANCH   5   8
ATOM      8  C   UNL     1       7.043  47.216  52.583  1.00  0.00     0.073 C 
ATOM      9  C   UNL     1       8.235  47.903  53.301  1.00  0.00     0.020 C 
ATOM     10  C   UNL     1       7.431  46.363  51.334  1.00  0.00     0.020 C 
ATOM     11  C   UNL     1       9.510  47.055  53.352  1.00  0.00     0.002 C 
ATOM     12  C   UNL     1       8.805  45.671  51.377  1.00  0.00     0.002 C 
ATOM     13  C   UNL     1       9.895  46.573  51.957  1.00  0.00     0.000 C 
ENDBRANCH   5   8
ENDBRANCH   2   5
ENDBRANCH   1   2
BRANCH   1  14
ATOM     14  C   UNL     1       2.498  45.129  53.291  1.00  0.00     0.135 C 
BRANCH  14  15
ATOM     15  N   UNL     1       2.990  43.770  53.064  1.00  0.00    -0.337 N 
ATOM     16  C   UNL     1       3.687  43.380  51.874  1.00  0.00     0.320 C 
ATOM     17  O   UNL     1       4.170  44.257  51.107  1.00  0.00    -0.248 OA
ATOM     18  N   UNL     1       3.829  41.987  51.563  1.00  0.00    -0.291 N 
ATOM     19  H   UNL     1       2.761  43.036  53.773  1.00  0.00     0.165 HD
ATOM     20  H   UNL     1       3.638  41.293  52.322  1.00  0.00     0.173 HD
BRANCH  18  21
ATOM     21  C   UNL     1       4.230  41.469  50.284  1.00  0.00     0.156 A 
ATOM     22  C   UNL     1       5.472  41.605  49.679  1.00  0.00     0.069 A 
ATOM     23  N   UNL     1       3.390  40.795  49.475  1.00  0.00    -0.150 NA
ATOM     24  C   UNL     1       5.326  40.961  48.467  1.00  0.00     0.117 A 
ATOM     25  N   UNL     1       4.063  40.487  48.376  1.00  0.00    -0.237 N 
BRANCH  25  26
ATOM     26  C   UNL     1       3.515  39.745  47.275  1.00  0.00     0.085 A 
ATOM     27  C   UNL     1       2.750  38.595  47.529  1.00  0.00     0.030 A 
ATOM     28  C   UNL     1       3.736  40.142  45.936  1.00  0.00     0.113 A 
ATOM     29  C   UNL     1       2.229  37.841  46.475  1.00  0.00     0.005 A 
ATOM     30  C   UNL     1       3.202  39.382  44.884  1.00  0.00     0.143 A 
ATOM     31  C   UNL     1       4.456  41.354  45.622  1.00  0.00     0.105 C 
ATOM     32  C   UNL     1       2.458  38.232  45.155  1.00  0.00     0.041 A 
ATOM     33  N   UNL     1       5.028  42.327  45.365  1.00  0.00    -0.192 NA
ATOM     34  F   UNL     1       3.396  39.753  43.590  1.00  0.00    -0.205 F 
ENDBRANCH  25  26
ENDBRANCH  18  21
ENDBRANCH  14  15
ENDBRANCH   1  14
TORSDOF 8
ENDMDL
MODEL 2
REMARK VINA RESULT:    -8.777      5.400      8.641
REMARK INTER + INTRA:         -13.173
REMARK INTER:                 -11.876
REMARK INTRA:                  -1.297
REMARK UNBOUND:                -0.291
REMARK SMILES CCN(C1CCCCC1)S(=O)(=O)CCNC(=O)Nc1ccn(-c2cccc(F)c2C#N)n1
REMARK SMILES IDX 13 1 10 2 11 3 12 4 3 5 2 6 1 7 4 8 5 9 9 10 6 11 8 12 7 13
REMARK SMILES IDX 14 14 15 15 16 16 17 17 18 18 19 21 20 22 32 23 21 24 22 25
REMARK SMILES IDX 23 26 24 27 29 28 25 29 27 30 30 31 26 32 31 33 28 34
REMARK H PARENT 15 19 18 20
ROOT
ATOM      1  C   UNL     1      -0.283  46.061  56.446  1.00  0.00     0.175 C 
ENDROOT
BRANCH   1   2
ATOM      2  S   UNL     1      -1.761  45.066  56.263  1.00  0.00     0.216 S 
ATOM      3  O   UNL     1      -2.949  45.924  56.604  1.00  0.00    -0.212 OA
ATOM      4  O   UNL     1      -1.719  43.908  57.224  1.00  0.00    -0.212 OA
BRANCH   2   5
ATOM      5  N   UNL     1      -1.855  44.516  54.595  1.00  0.00    -0.199 NA
BRANCH   5   6
ATOM      6  C   UNL     1      -2.856  45.233  53.778  1.00  0.00     0.099 C 
ATOM      7  C   UNL     1      -3.791  44.213  53.125  1.00  0.00     0.022 C 
ENDBRANCH   5   6
BRANCH   5   8
ATOM      8  C   UNL     1      -0.519  44.275  53.991  1.00  0.00     0.073 C 
ATOM      9  C   UNL     1      -0.248  42.761  53.777  1.00  0.00     0.020 C 
ATOM     10  C   UNL     1      -0.176  45.183  52.768  1.00  0.00     0.020 C 
ATOM     11  C   UNL     1      -0.578  42.258  52.368  1.00  0.00     0.002 C 
ATOM     12  C   UNL     1      -0.368  44.557  51.375  1.00  0.00     0.002 C 
ATOM     13  C   UNL     1       0.121  43.110  51.313  1.00  0.00     0.000 C 
ENDBRANCH   5   8
ENDBRANCH   2   5
ENDBRANCH   1   2
BRANCH   1  14
ATOM     14  C   UNL     1       0.854  45.302  57.141  1.00  0.00     0.135 C 
BRANCH  14  15
ATOM     15  N   UNL     1       1.656  44.559  56.166  1.00  0.00    -0.337 N 
ATOM     16  C   UNL     1       2.733  45.151  55.428  1.00  0.00     0.320 C 
ATOM     17  O   UNL     1       3.230  46.248  55.804  1.00  0.00    -0.248 OA
ATOM     18  N   UNL     1       3.238  44.487  54.262  1.00  0.00    -0.291 N 
ATOM     19  H   UNL     1       1.384  43.574  55.951  1.00  0.00     0.165 HD
ATOM     20  H   UNL     1       2.979  43.484  54.118  1.00  0.00     0.173 HD
BRANCH  18  21
ATOM     21  C   UNL     1       4.090  45.094  53.277  1.00  0.00     0.156 A 
ATOM     22  C   UNL     1       3.692  45.808  52.154  1.00  0.00     0.069 A 
ATOM     23  N   UNL     1       5.432  44.998  53.315  1.00  0.00    -0.150 NA
ATOM     24  C   UNL     1       4.878  46.142  51.533  1.00  0.00     0.117 A 
ATOM     25  N   UNL     1       5.904  45.640  52.256  1.00  0.00    -0.237 N 
BRANCH  25  26
ATOM     26  C   UNL     1       7.301  45.781  51.953  1.00  0.00     0.085 A 
ATOM     27  C   UNL     1       7.804  45.255  50.751  1.00  0.00     0.030 A 
ATOM     28  C   UNL     1       8.187  46.432  52.843  1.00  0.00     0.113 A 
ATOM     29  C   UNL     1       9.164  45.355  50.446  1.00  0.00     0.005 A 
ATOM     30  C   UNL     1       9.550  46.535  52.523  1.00  0.00     0.143 A 
ATOM     31  C   UNL     1       7.709  47.051  54.057  1.00  0.00     0.105 C 
ATOM     32  C   UNL     1      10.034  45.991  51.331  1.00  0.00     0.041 A 
ATOM     33  N   UNL     1       7.331  47.553  55.029  1.00  0.00    -0.192 NA
ATOM     34  F   UNL     1      10.414  47.165  53.361  1.00  0.00    -0.205 F 
ENDBRANCH  25  26
ENDBRANCH  18  21
ENDBRANCH  14  15
ENDBRANCH   1  14
TORSDOF 8
ENDMDL
MODEL 3
REMARK VINA RESULT:    -8.641      4.924      8.476
REMARK INTER + INTRA:         -12.974
REMARK INTER:                 -11.644
REMARK INTRA:                  -1.330
REMARK UNBOUND:                -0.291
REMARK SMILES CCN(C1CCCCC1)S(=O)(=O)CCNC(=O)Nc1ccn(-c2cccc(F)c2C#N)n1
REMARK SMILES IDX 13 1 10 2 11 3 12 4 3 5 2 6 1 7 4 8 5 9 9 10 6 11 8 12 7 13
REMARK SMILES IDX 14 14 15 15 16 16 17 17 18 18 19 21 20 22 32 23 21 24 22 25
REMARK SMILES IDX 23 26 24 27 29 28 25 29 27 30 30 31 26 32 31 33 28 34
REMARK H PARENT 15 19 18 20
ROOT
ATOM      1  C   UNL     1      -0.887  45.544  55.860  1.00  0.00     0.175 C 
ENDROOT
BRANCH   1   2
ATOM      2  S   UNL     1      -1.865  44.336  54.970  1.00  0.00     0.216 S 
ATOM      3  O   UNL     1      -3.247  44.899  54.780  1.00  0.00    -0.212 OA
ATOM      4  O   UNL     1      -1.974  43.072  55.780  1.00  0.00    -0.212 OA
BRANCH   2   5
ATOM      5  N   UNL     1      -1.099  44.042  53.415  1.00  0.00    -0.199 NA
BRANCH   5   6
ATOM      6  C   UNL     1      -1.826  44.617  52.263  1.00  0.00     0.099 C 
ATOM      7  C   UNL     1      -2.182  43.495  51.286  1.00  0.00     0.022 C 
ENDBRANCH   5   6
BRANCH   5   8
ATOM      8  C   UNL     1       0.376  44.221  53.455  1.00  0.00     0.073 C 
ATOM      9  C   UNL     1       1.125  42.871  53.292  1.00  0.00     0.020 C 
ATOM     10  C   UNL     1       0.922  45.385  52.570  1.00  0.00     0.020 C 
ATOM     11  C   UNL     1       1.562  42.564  51.857  1.00  0.00     0.002 C 
ATOM     12  C   UNL     1       1.506  44.990  51.202  1.00  0.00     0.002 C 
ATOM     13  C   UNL     1       2.363  43.726  51.276  1.00  0.00     0.000 C 
ENDBRANCH   5   8
ENDBRANCH   2   5
ENDBRANCH   1   2
BRANCH   1  14
ATOM     14  C   UNL     1      -0.078  44.919  57.003  1.00  0.00     0.135 C 
BRANCH  14  15
ATOM     15  N   UNL     1       1.243  44.498  56.534  1.00  0.00    -0.337 N 
ATOM     16  C   UNL     1       2.250  45.422  56.101  1.00  0.00     0.320 C 
ATOM     17  O   UNL     1       2.151  46.646  56.389  1.00  0.00    -0.248 OA
ATOM     18  N   UNL     1       3.368  44.943  55.341  1.00  0.00    -0.291 N 
ATOM     19  H   UNL     1       1.434  43.474  56.448  1.00  0.00     0.165 HD
ATOM     20  H   UNL     1       3.547  43.913  55.327  1.00  0.00     0.173 HD
BRANCH  18  21
ATOM     21  C   UNL     1       4.274  45.778  54.600  1.00  0.00     0.156 A 
ATOM     22  C   UNL     1       3.949  46.886  53.831  1.00  0.00     0.069 A 
ATOM     23  N   UNL     1       5.598  45.540  54.538  1.00  0.00    -0.150 NA
ATOM     24  C   UNL     1       5.161  47.302  53.316  1.00  0.00     0.117 A 
ATOM     25  N   UNL     1       6.130  46.471  53.760  1.00  0.00    -0.237 N 
BRANCH  25  26
ATOM     26  C   UNL     1       7.531  46.571  53.462  1.00  0.00     0.085 A 
ATOM     27  C   UNL     1       8.401  47.136  54.410  1.00  0.00     0.030 A 
ATOM     28  C   UNL     1       8.057  46.119  52.230  1.00  0.00     0.113 A 
ATOM     29  C   UNL     1       9.764  47.270  54.133  1.00  0.00     0.005 A 
ATOM     30  C   UNL     1       9.430  46.251  51.965  1.00  0.00     0.143 A 
ATOM     31  C   UNL     1       7.220  45.467  51.251  1.00  0.00     0.105 C 
ATOM     32  C   UNL     1      10.275  46.831  52.912  1.00  0.00     0.041 A 
ATOM     33  N   UNL     1       6.553  44.939  50.465  1.00  0.00    -0.192 NA
ATOM     34  F   UNL     1       9.954  45.814  50.789  1.00  0.00    -0.205 F 
ENDBRANCH  25  26
ENDBRANCH  18  21
ENDBRANCH  14  15
ENDBRANCH   1  14
TORSDOF 8
ENDMDL
MODEL 4
REMARK VINA RESULT:    -8.601      3.922      8.061
REMARK INTER + INTRA:         -12.914
REMARK INTER:                 -12.066
REMARK INTRA:                  -0.848
REMARK UNBOUND:                -0.291
REMARK SMILES CCN(C1CCCCC1)S(=O)(=O)CCNC(=O)Nc1ccn(-c2cccc(F)c2C#N)n1
REMARK SMILES IDX 13 1 10 2 11 3 12 4 3 5 2 6 1 7 4 8 5 9 9 10 6 11 8 12 7 13
REMARK SMILES IDX 14 14 15 15 16 16 17 17 18 18 19 21 20 22 32 23 21 24 22 25
REMARK SMILES IDX 23 26 24 27 29 28 25 29 27 30 30 31 26 32 31 33 28 34
REMARK H PARENT 15 19 18 20
ROOT
ATOM      1  C   UNL     1       0.058  42.790  53.063  1.00  0.00     0.175 C 
ENDROOT
BRANCH   1   2
ATOM      2  S   UNL     1       0.282  43.800  51.601  1.00  0.00     0.216 S 
ATOM      3  O   UNL     1      -0.373  45.133  51.846  1.00  0.00    -0.212 OA
ATOM      4  O   UNL     1      -0.392  43.149  50.423  1.00  0.00    -0.212 OA
BRANCH   2   5
ATOM      5  N   UNL     1       2.007  44.002  51.327  1.00  0.00    -0.199 NA
BRANCH   5   6
ATOM      6  C   UNL     1       2.523  45.342  51.677  1.00  0.00     0.099 C 
ATOM      7  C   UNL     1       3.278  45.916  50.477  1.00  0.00     0.022 C 
ENDBRANCH   5   6
BRANCH   5   8
ATOM      8  C   UNL     1       2.802  42.823  51.762  1.00  0.00     0.073 C 
ATOM      9  C   UNL     1       2.652  41.632  50.778  1.00  0.00     0.020 C 
ATOM     10  C   UNL     1       4.270  43.142  52.189  1.00  0.00     0.020 C 
ATOM     11  C   UNL     1       3.763  41.542  49.727  1.00  0.00     0.002 C 
ATOM     12  C   UNL     1       5.363  42.867  51.141  1.00  0.00     0.002 C 
ATOM     13  C   UNL     1       5.137  41.554  50.391  1.00  0.00     0.000 C 
ENDBRANCH   5   8
ENDBRANCH   2   5
ENDBRANCH   1   2
BRANCH   1  14
ATOM     14  C   UNL     1      -0.033  43.625  54.346  1.00  0.00     0.135 C 
BRANCH  14  15
ATOM     15  N   UNL     1       1.283  43.765  54.970  1.00  0.00    -0.337 N 
ATOM     16  C   UNL     1       2.097  44.936  54.821  1.00  0.00     0.320 C 
ATOM     17  O   UNL     1       1.589  46.011  54.399  1.00  0.00    -0.248 OA
ATOM     18  N   UNL     1       3.490  44.874  55.156  1.00  0.00    -0.291 N 
ATOM     19  H   UNL     1       1.674  42.947  55.489  1.00  0.00     0.165 HD
ATOM     20  H   UNL     1       3.824  44.061  55.721  1.00  0.00     0.173 HD
BRANCH  18  21
ATOM     21  C   UNL     1       4.468  45.859  54.781  1.00  0.00     0.156 A 
ATOM     22  C   UNL     1       4.248  47.210  54.552  1.00  0.00     0.069 A 
ATOM     23  N   UNL     1       5.761  45.555  54.562  1.00  0.00    -0.150 NA
ATOM     24  C   UNL     1       5.490  47.696  54.196  1.00  0.00     0.117 A 
ATOM     25  N   UNL     1       6.376  46.675  54.211  1.00  0.00    -0.237 N 
BRANCH  25  26
ATOM     26  C   UNL     1       7.778  46.768  53.912  1.00  0.00     0.085 A 
ATOM     27  C   UNL     1       8.676  47.148  54.923  1.00  0.00     0.030 A 
ATOM     28  C   UNL     1       8.276  46.492  52.617  1.00  0.00     0.113 A 
ATOM     29  C   UNL     1      10.041  47.272  54.651  1.00  0.00     0.005 A 
ATOM     30  C   UNL     1       9.650  46.612  52.357  1.00  0.00     0.143 A 
ATOM     31  C   UNL     1       7.406  46.030  51.562  1.00  0.00     0.105 C 
ATOM     32  C   UNL     1      10.525  47.008  53.370  1.00  0.00     0.041 A 
ATOM     33  N   UNL     1       6.713  45.655  50.713  1.00  0.00    -0.192 NA
ATOM     34  F   UNL     1      10.148  46.343  51.121  1.00  0.00    -0.205 F 
ENDBRANCH  25  26
ENDBRANCH  18  21
ENDBRANCH  14  15
ENDBRANCH   1  14
TORSDOF 8
ENDMDL
MODEL 5
REMARK VINA RESULT:    -8.517      5.347      9.093
REMARK INTER + INTRA:         -12.791
REMARK INTER:                 -11.576
REMARK INTRA:                  -1.216
REMARK UNBOUND:                -0.291
REMARK SMILES CCN(C1CCCCC1)S(=O)(=O)CCNC(=O)Nc1ccn(-c2cccc(F)c2C#N)n1
REMARK SMILES IDX 13 1 10 2 11 3 12 4 3 5 2 6 1 7 4 8 5 9 9 10 6 11 8 12 7 13
REMARK SMILES IDX 14 14 15 15 16 16 17 17 18 18 19 21 20 22 32 23 21 24 22 25
REMARK SMILES IDX 23 26 24 27 29 28 25 29 27 30 30 31 26 32 31 33 28 34
REMARK H PARENT 15 19 18 20
ROOT
ATOM      1  C   UNL     1      -0.960  45.594  55.539  1.00  0.00     0.175 C 
ENDROOT
BRANCH   1   2
ATOM      2  S   UNL     1      -1.955  44.319  54.769  1.00  0.00     0.216 S 
ATOM      3  O   UNL     1      -3.400  44.601  55.079  1.00  0.00    -0.212 OA
ATOM      4  O   UNL     1      -1.598  42.976  55.346  1.00  0.00    -0.212 OA
BRANCH   2   5
ATOM      5  N   UNL     1      -1.674  44.371  53.034  1.00  0.00    -0.199 NA
BRANCH   5   6
ATOM      6  C   UNL     1      -0.409  43.739  52.606  1.00  0.00     0.099 C 
ATOM      7  C   UNL     1       0.345  44.701  51.687  1.00  0.00     0.022 C 
ENDBRANCH   5   6
BRANCH   5   8
ATOM      8  C   UNL     1      -2.896  44.069  52.242  1.00  0.00     0.073 C 
ATOM      9  C   UNL     1      -3.414  45.319  51.482  1.00  0.00     0.020 C 
ATOM     10  C   UNL     1      -2.819  42.765  51.387  1.00  0.00     0.020 C 
ATOM     11  C   UNL     1      -2.933  45.415  50.031  1.00  0.00     0.002 C 
ATOM     12  C   UNL     1      -2.498  42.944  49.892  1.00  0.00     0.002 C 
ATOM     13  C   UNL     1      -3.242  44.127  49.273  1.00  0.00     0.000 C 
ENDBRANCH   5   8
ENDBRANCH   2   5
ENDBRANCH   1   2
BRANCH   1  14
ATOM     14  C   UNL     1       0.228  45.021  56.321  1.00  0.00     0.135 C 
BRANCH  14  15
ATOM     15  N   UNL     1       1.202  44.411  55.415  1.00  0.00    -0.337 N 
ATOM     16  C   UNL     1       2.423  45.057  55.032  1.00  0.00     0.320 C 
ATOM     17  O   UNL     1       2.852  46.042  55.693  1.00  0.00    -0.248 OA
ATOM     18  N   UNL     1       3.151  44.574  53.895  1.00  0.00    -0.291 N 
ATOM     19  H   UNL     1       0.962  43.495  54.975  1.00  0.00     0.165 HD
ATOM     20  H   UNL     1       2.908  43.628  53.522  1.00  0.00     0.173 HD
BRANCH  18  21
ATOM     21  C   UNL     1       4.205  45.291  53.230  1.00  0.00     0.156 A 
ATOM     22  C   UNL     1       4.133  45.933  52.002  1.00  0.00     0.069 A 
ATOM     23  N   UNL     1       5.450  45.388  53.734  1.00  0.00    -0.150 NA
ATOM     24  C   UNL     1       5.406  46.430  51.809  1.00  0.00     0.117 A 
ATOM     25  N   UNL     1       6.172  46.084  52.868  1.00  0.00    -0.237 N 
BRANCH  25  26
ATOM     26  C   UNL     1       7.555  46.422  53.057  1.00  0.00     0.085 A 
ATOM     27  C   UNL     1       7.960  47.037  54.253  1.00  0.00     0.030 A 
ATOM     28  C   UNL     1       8.522  46.155  52.060  1.00  0.00     0.113 A 
ATOM     29  C   UNL     1       9.294  47.400  54.450  1.00  0.00     0.005 A 
ATOM     30  C   UNL     1       9.862  46.517  52.271  1.00  0.00     0.143 A 
ATOM     31  C   UNL     1       8.173  45.462  50.843  1.00  0.00     0.105 C 
ATOM     32  C   UNL     1      10.242  47.143  53.460  1.00  0.00     0.041 A 
ATOM     33  N   UNL     1       7.899  44.902  49.867  1.00  0.00    -0.192 NA
ATOM     34  F   UNL     1      10.807  46.260  51.328  1.00  0.00    -0.205 F 
ENDBRANCH  25  26
ENDBRANCH  18  21
ENDBRANCH  14  15
ENDBRANCH   1  14
TORSDOF 8
ENDMDL
