ligand_25_conformer_1_docked
     RDKit          3D

 34 35  0  0  0  0  0  0  0  0999 V2000
   10.1250   47.7230   54.9650 N   0  0  0  0  0  0  0  0  0  0  0  0
    9.0460   47.1770   54.2050 C   0  0  0  0  0  0  0  0  0  0  0  0
    9.2540   46.7360   52.8940 C   0  0  0  0  0  0  0  0  0  0  0  0
    8.1840   46.2070   52.1710 C   0  0  0  0  0  0  0  0  0  0  0  0
    6.9080   46.1240   52.7530 C   0  0  0  0  0  0  0  0  0  0  0  0
    5.7590   45.5550   52.0100 C   0  0  0  0  0  0  0  0  0  0  0  0
    5.4880   45.9880   50.8560 O   0  0  0  0  0  0  0  0  0  0  0  0
    4.9660   44.4970   52.5730 N   0  0  0  0  0  0  0  0  0  0  0  0
    3.6440   44.1790   52.1090 C   0  0  0  0  0  0  0  0  0  0  0  0
    2.6400   45.1550   52.1870 C   0  0  0  0  0  0  0  0  0  0  0  0
    1.3470   44.8810   51.7440 C   0  0  0  0  0  0  0  0  0  0  0  0
    1.0440   43.6300   51.2010 C   0  0  0  0  0  0  0  0  0  0  0  0
   -0.5830   43.2870   50.6450 Cl  0  0  0  0  0  0  0  0  0  0  0  0
    2.0410   42.6560   51.0900 C   0  0  0  0  0  0  0  0  0  0  0  0
    3.3530   42.9240   51.5290 C   0  0  0  0  0  0  0  0  0  0  0  0
    4.3870   41.9870   51.3840 O   0  0  0  0  0  0  0  0  0  0  0  0
    4.6430   41.2320   50.2020 C   0  0  0  0  0  0  0  0  0  0  0  0
    5.9450   41.7050   49.5680 C   0  0  0  0  0  0  0  0  0  0  0  0
    5.9200   41.4470   48.2100 F   0  0  0  0  0  0  0  0  0  0  0  0
    6.0980   43.0650   49.7690 F   0  0  0  0  0  0  0  0  0  0  0  0
    7.0140   41.0370   50.1380 F   0  0  0  0  0  0  0  0  0  0  0  0
    6.7510   46.5710   54.0770 C   0  0  0  0  0  0  0  0  0  0  0  0
    7.8090   47.0830   54.7610 N   0  0  0  0  0  0  0  0  0  0  0  0
   10.3510   48.7420   54.9240 H   0  0  0  0  0  0  0  0  0  0  0  0
   10.7050   47.1040   55.5740 H   0  0  0  0  0  0  0  0  0  0  0  0
   10.2521   46.8055   52.4370 H   0  0  0  0  0  0  0  0  0  0  0  0
    8.3403   45.8535   51.1411 H   0  0  0  0  0  0  0  0  0  0  0  0
    5.4310   43.8260   53.2260 H   0  0  0  0  0  0  0  0  0  0  0  0
    2.8751   46.1463   52.6018 H   0  0  0  0  0  0  0  0  0  0  0  0
    0.5647   45.6504   51.8220 H   0  0  0  0  0  0  0  0  0  0  0  0
    1.7996   41.6740   50.6571 H   0  0  0  0  0  0  0  0  0  0  0  0
    4.7268   40.1658   50.4592 H   0  0  0  0  0  0  0  0  0  0  0  0
    3.8163   41.3742   49.4904 H   0  0  0  0  0  0  0  0  0  0  0  0
    5.7661   46.5061   54.5625 H   0  0  0  0  0  0  0  0  0  0  0  0
  1  2  1  0
  2  3  2  0
  3  4  1  0
  4  5  2  0
  5  6  1  0
  6  7  2  0
  6  8  1  0
  8  9  1  0
  9 10  2  0
 10 11  1  0
 11 12  2  0
 12 13  1  0
 12 14  1  0
 14 15  2  0
 15 16  1  0
 16 17  1  0
 17 18  1  0
 18 19  1  0
 18 20  1  0
 18 21  1  0
  5 22  1  0
 22 23  2  0
 23  2  1  0
 15  9  1  0
  1 24  1  0
  1 25  1  0
  3 26  1  0
  4 27  1  0
  8 28  1  0
 10 29  1  0
 11 30  1  0
 14 31  1  0
 17 32  1  0
 17 33  1  0
 22 34  1  0
M  END
>  <meeko>  (1) 
{"is_sidechain": [false], "free_energy": -8.107, "intermolecular_energy": -10.714, "internal_energy": -0.778}

$$$$
ligand_25_conformer_1_docked
     RDKit          3D

 34 35  0  0  0  0  0  0  0  0999 V2000
   -0.9760   44.7870   56.6870 N   0  0  0  0  0  0  0  0  0  0  0  0
    0.1030   44.9920   55.7740 C   0  0  0  0  0  0  0  0  0  0  0  0
    1.3910   45.2600   56.2470 C   0  0  0  0  0  0  0  0  0  0  0  0
    2.4290   45.4580   55.3360 C   0  0  0  0  0  0  0  0  0  0  0  0
    2.1810   45.3940   53.9550 C   0  0  0  0  0  0  0  0  0  0  0  0
    3.2690   45.5870   52.9670 C   0  0  0  0  0  0  0  0  0  0  0  0
    3.0770   46.3330   51.9670 O   0  0  0  0  0  0  0  0  0  0  0  0
    4.5500   44.9610   53.1470 N   0  0  0  0  0  0  0  0  0  0  0  0
    5.4890   44.7790   52.0750 C   0  0  0  0  0  0  0  0  0  0  0  0
    5.2910   43.7290   51.1660 C   0  0  0  0  0  0  0  0  0  0  0  0
    6.1810   43.5260   50.1120 C   0  0  0  0  0  0  0  0  0  0  0  0
    7.2740   44.3790   49.9440 C   0  0  0  0  0  0  0  0  0  0  0  0
    8.3930   44.1200   48.6190 Cl  0  0  0  0  0  0  0  0  0  0  0  0
    7.4690   45.4470   50.8260 C   0  0  0  0  0  0  0  0  0  0  0  0
    6.5720   45.6670   51.8900 C   0  0  0  0  0  0  0  0  0  0  0  0
    6.7110   46.7590   52.7600 O   0  0  0  0  0  0  0  0  0  0  0  0
    7.6550   46.8390   53.8250 C   0  0  0  0  0  0  0  0  0  0  0  0
    8.7830   47.7850   53.4340 C   0  0  0  0  0  0  0  0  0  0  0  0
    9.2510   48.4380   54.5590 F   0  0  0  0  0  0  0  0  0  0  0  0
    9.8190   47.0680   52.8620 F   0  0  0  0  0  0  0  0  0  0  0  0
    8.3190   48.7200   52.5260 F   0  0  0  0  0  0  0  0  0  0  0  0
    0.8710   45.1110   53.5270 C   0  0  0  0  0  0  0  0  0  0  0  0
   -0.1230   44.9240   54.4350 N   0  0  0  0  0  0  0  0  0  0  0  0
   -0.9720   43.9810   57.3520 H   0  0  0  0  0  0  0  0  0  0  0  0
   -1.7870   45.4440   56.6980 H   0  0  0  0  0  0  0  0  0  0  0  0
    1.5844   45.3143   57.3285 H   0  0  0  0  0  0  0  0  0  0  0  0
    3.4459   45.6651   55.7008 H   0  0  0  0  0  0  0  0  0  0  0  0
    4.8810   44.7860   54.1230 H   0  0  0  0  0  0  0  0  0  0  0  0
    4.4261   43.0600   51.2858 H   0  0  0  0  0  0  0  0  0  0  0  0
    6.0220   42.6927   49.4117 H   0  0  0  0  0  0  0  0  0  0  0  0
    8.3284   46.1196   50.6880 H   0  0  0  0  0  0  0  0  0  0  0  0
    7.1561   47.2173   54.7294 H   0  0  0  0  0  0  0  0  0  0  0  0
    8.0678   45.8392   54.0248 H   0  0  0  0  0  0  0  0  0  0  0  0
    0.6500   45.0407   52.4517 H   0  0  0  0  0  0  0  0  0  0  0  0
  1  2  1  0
  2  3  2  0
  3  4  1  0
  4  5  2  0
  5  6  1  0
  6  7  2  0
  6  8  1  0
  8  9  1  0
  9 10  2  0
 10 11  1  0
 11 12  2  0
 12 13  1  0
 12 14  1  0
 14 15  2  0
 15 16  1  0
 16 17  1  0
 17 18  1  0
 18 19  1  0
 18 20  1  0
 18 21  1  0
  5 22  1  0
 22 23  2  0
 23  2  1  0
 15  9  1  0
  1 24  1  0
  1 25  1  0
  3 26  1  0
  4 27  1  0
  8 28  1  0
 10 29  1  0
 11 30  1  0
 14 31  1  0
 17 32  1  0
 17 33  1  0
 22 34  1  0
M  END
>  <meeko>  (2) 
{"is_sidechain": [false], "free_energy": -8.08, "intermolecular_energy": -10.626, "internal_energy": -0.829}

$$$$
ligand_25_conformer_1_docked
     RDKit          3D

 34 35  0  0  0  0  0  0  0  0999 V2000
   -2.2530   43.8240   53.3520 N   0  0  0  0  0  0  0  0  0  0  0  0
   -0.8420   43.9070   53.1460 C   0  0  0  0  0  0  0  0  0  0  0  0
   -0.0110   42.8360   53.4910 C   0  0  0  0  0  0  0  0  0  0  0  0
    1.3650   42.9400   53.2800 C   0  0  0  0  0  0  0  0  0  0  0  0
    1.9100   44.1130   52.7330 C   0  0  0  0  0  0  0  0  0  0  0  0
    3.3660   44.2430   52.4880 C   0  0  0  0  0  0  0  0  0  0  0  0
    4.1670   43.4530   53.0600 O   0  0  0  0  0  0  0  0  0  0  0  0
    3.8780   45.2380   51.5860 N   0  0  0  0  0  0  0  0  0  0  0  0
    5.2450   45.6770   51.6000 C   0  0  0  0  0  0  0  0  0  0  0  0
    5.6210   46.7090   52.4730 C   0  0  0  0  0  0  0  0  0  0  0  0
    6.9410   47.1580   52.5150 C   0  0  0  0  0  0  0  0  0  0  0  0
    7.9060   46.5700   51.6950 C   0  0  0  0  0  0  0  0  0  0  0  0
    9.5650   47.1370   51.7480 Cl  0  0  0  0  0  0  0  0  0  0  0  0
    7.5530   45.5210   50.8390 C   0  0  0  0  0  0  0  0  0  0  0  0
    6.2240   45.0550   50.7930 C   0  0  0  0  0  0  0  0  0  0  0  0
    5.8490   43.9710   49.9850 O   0  0  0  0  0  0  0  0  0  0  0  0
    6.7540   43.0360   49.4040 C   0  0  0  0  0  0  0  0  0  0  0  0
    6.3350   41.6210   49.7790 C   0  0  0  0  0  0  0  0  0  0  0  0
    5.3660   41.6700   50.7640 F   0  0  0  0  0  0  0  0  0  0  0  0
    5.8220   40.9730   48.6700 F   0  0  0  0  0  0  0  0  0  0  0  0
    7.4280   40.9170   50.2530 F   0  0  0  0  0  0  0  0  0  0  0  0
    1.0330   45.1590   52.3930 C   0  0  0  0  0  0  0  0  0  0  0  0
   -0.3030   45.0330   52.6090 N   0  0  0  0  0  0  0  0  0  0  0  0
   -2.7650   42.9240   53.2140 H   0  0  0  0  0  0  0  0  0  0  0  0
   -2.7920   44.6690   53.6440 H   0  0  0  0  0  0  0  0  0  0  0  0
   -0.4381   41.9198   53.9248 H   0  0  0  0  0  0  0  0  0  0  0  0
    2.0248   42.1001   53.5431 H   0  0  0  0  0  0  0  0  0  0  0  0
    3.2790   45.5270   50.7790 H   0  0  0  0  0  0  0  0  0  0  0  0
    4.8680   47.1682   53.1303 H   0  0  0  0  0  0  0  0  0  0  0  0
    7.2219   47.9760   53.1947 H   0  0  0  0  0  0  0  0  0  0  0  0
    8.3175   45.0574   50.1982 H   0  0  0  0  0  0  0  0  0  0  0  0
    6.7400   43.1443   48.3094 H   0  0  0  0  0  0  0  0  0  0  0  0
    7.7699   43.2284   49.7794 H   0  0  0  0  0  0  0  0  0  0  0  0
    1.4306   46.0840   51.9499 H   0  0  0  0  0  0  0  0  0  0  0  0
  1  2  1  0
  2  3  2  0
  3  4  1  0
  4  5  2  0
  5  6  1  0
  6  7  2  0
  6  8  1  0
  8  9  1  0
  9 10  2  0
 10 11  1  0
 11 12  2  0
 12 13  1  0
 12 14  1  0
 14 15  2  0
 15 16  1  0
 16 17  1  0
 17 18  1  0
 18 19  1  0
 18 20  1  0
 18 21  1  0
  5 22  1  0
 22 23  2  0
 23  2  1  0
 15  9  1  0
  1 24  1  0
  1 25  1  0
  3 26  1  0
  4 27  1  0
  8 28  1  0
 10 29  1  0
 11 30  1  0
 14 31  1  0
 17 32  1  0
 17 33  1  0
 22 34  1  0
M  END
>  <meeko>  (3) 
{"is_sidechain": [false], "free_energy": -7.86, "intermolecular_energy": -10.37, "internal_energy": -0.795}

$$$$
ligand_25_conformer_1_docked
     RDKit          3D

 34 35  0  0  0  0  0  0  0  0999 V2000
    6.8630   41.1750   49.4730 N   0  0  0  0  0  0  0  0  0  0  0  0
    5.8290   41.8790   50.1620 C   0  0  0  0  0  0  0  0  0  0  0  0
    5.9070   43.2650   50.3340 C   0  0  0  0  0  0  0  0  0  0  0  0
    4.8840   43.9300   51.0110 C   0  0  0  0  0  0  0  0  0  0  0  0
    3.7880   43.2130   51.5200 C   0  0  0  0  0  0  0  0  0  0  0  0
    2.6830   43.8990   52.2310 C   0  0  0  0  0  0  0  0  0  0  0  0
    2.2620   45.0090   51.8040 O   0  0  0  0  0  0  0  0  0  0  0  0
    2.0640   43.3030   53.3830 N   0  0  0  0  0  0  0  0  0  0  0  0
    1.2910   44.0560   54.3320 C   0  0  0  0  0  0  0  0  0  0  0  0
   -0.1060   43.9280   54.3280 C   0  0  0  0  0  0  0  0  0  0  0  0
   -0.8870   44.6420   55.2370 C   0  0  0  0  0  0  0  0  0  0  0  0
   -0.2800   45.4810   56.1730 C   0  0  0  0  0  0  0  0  0  0  0  0
   -1.2640   46.3790   57.3140 Cl  0  0  0  0  0  0  0  0  0  0  0  0
    1.1140   45.5980   56.2080 C   0  0  0  0  0  0  0  0  0  0  0  0
    1.9130   44.8760   55.2990 C   0  0  0  0  0  0  0  0  0  0  0  0
    3.3150   44.9310   55.3430 O   0  0  0  0  0  0  0  0  0  0  0  0
    4.0860   46.1280   55.2820 C   0  0  0  0  0  0  0  0  0  0  0  0
    5.2770   45.9190   54.3560 C   0  0  0  0  0  0  0  0  0  0  0  0
    6.3920   46.5420   54.8850 F   0  0  0  0  0  0  0  0  0  0  0  0
    5.5350   44.5670   54.2200 F   0  0  0  0  0  0  0  0  0  0  0  0
    5.0040   46.4570   53.1110 F   0  0  0  0  0  0  0  0  0  0  0  0
    3.7490   41.8230   51.3120 C   0  0  0  0  0  0  0  0  0  0  0  0
    4.7590   41.1980   50.6500 N   0  0  0  0  0  0  0  0  0  0  0  0
    7.0280   40.1580   49.6450 H   0  0  0  0  0  0  0  0  0  0  0  0
    7.4710   41.6740   48.7870 H   0  0  0  0  0  0  0  0  0  0  0  0
    6.7671   43.8257   49.9391 H   0  0  0  0  0  0  0  0  0  0  0  0
    4.9358   45.0204   51.1468 H   0  0  0  0  0  0  0  0  0  0  0  0
    2.0310   42.2600   53.4420 H   0  0  0  0  0  0  0  0  0  0  0  0
   -0.5899   43.2586   53.6016 H   0  0  0  0  0  0  0  0  0  0  0  0
   -1.9824   44.5437   55.2161 H   0  0  0  0  0  0  0  0  0  0  0  0
    1.5889   46.2574   56.9494 H   0  0  0  0  0  0  0  0  0  0  0  0
    3.4612   46.9471   54.8964 H   0  0  0  0  0  0  0  0  0  0  0  0
    4.4458   46.3838   56.2895 H   0  0  0  0  0  0  0  0  0  0  0  0
    2.8965   41.2377   51.6870 H   0  0  0  0  0  0  0  0  0  0  0  0
  1  2  1  0
  2  3  2  0
  3  4  1  0
  4  5  2  0
  5  6  1  0
  6  7  2  0
  6  8  1  0
  8  9  1  0
  9 10  2  0
 10 11  1  0
 11 12  2  0
 12 13  1  0
 12 14  1  0
 14 15  2  0
 15 16  1  0
 16 17  1  0
 17 18  1  0
 18 19  1  0
 18 20  1  0
 18 21  1  0
  5 22  1  0
 22 23  2  0
 23  2  1  0
 15  9  1  0
  1 24  1  0
  1 25  1  0
  3 26  1  0
  4 27  1  0
  8 28  1  0
 10 29  1  0
 11 30  1  0
 14 31  1  0
 17 32  1  0
 17 33  1  0
 22 34  1  0
M  END
>  <meeko>  (4) 
{"is_sidechain": [false], "free_energy": -7.755, "intermolecular_energy": -9.849, "internal_energy": -1.177}

$$$$
ligand_25_conformer_1_docked
     RDKit          3D

 34 35  0  0  0  0  0  0  0  0999 V2000
   -1.9730   43.1970   52.4180 N   0  0  0  0  0  0  0  0  0  0  0  0
   -0.5650   43.3740   52.2570 C   0  0  0  0  0  0  0  0  0  0  0  0
    0.3350   42.6390   53.0340 C   0  0  0  0  0  0  0  0  0  0  0  0
    1.7070   42.8290   52.8590 C   0  0  0  0  0  0  0  0  0  0  0  0
    2.1780   43.7550   51.9130 C   0  0  0  0  0  0  0  0  0  0  0  0
    3.6300   43.9650   51.7000 C   0  0  0  0  0  0  0  0  0  0  0  0
    4.4340   43.0170   51.9130 O   0  0  0  0  0  0  0  0  0  0  0  0
    4.1310   45.2250   51.2250 N   0  0  0  0  0  0  0  0  0  0  0  0
    5.5030   45.6250   51.3700 C   0  0  0  0  0  0  0  0  0  0  0  0
    6.4580   45.1250   50.4720 C   0  0  0  0  0  0  0  0  0  0  0  0
    7.7990   45.4950   50.5820 C   0  0  0  0  0  0  0  0  0  0  0  0
    8.2000   46.3820   51.5830 C   0  0  0  0  0  0  0  0  0  0  0  0
    9.8850   46.8450   51.7210 Cl  0  0  0  0  0  0  0  0  0  0  0  0
    7.2550   46.9120   52.4680 C   0  0  0  0  0  0  0  0  0  0  0  0
    5.8970   46.5510   52.3620 C   0  0  0  0  0  0  0  0  0  0  0  0
    4.9170   47.1040   53.2010 O   0  0  0  0  0  0  0  0  0  0  0  0
    4.8120   46.8620   54.6010 C   0  0  0  0  0  0  0  0  0  0  0  0
    3.5770   46.0150   54.8790 C   0  0  0  0  0  0  0  0  0  0  0  0
    2.6030   46.2920   53.9380 F   0  0  0  0  0  0  0  0  0  0  0  0
    3.9040   44.6730   54.8110 F   0  0  0  0  0  0  0  0  0  0  0  0
    3.0850   46.3000   56.1400 F   0  0  0  0  0  0  0  0  0  0  0  0
    1.2340   44.4620   51.1480 C   0  0  0  0  0  0  0  0  0  0  0  0
   -0.0970   44.2600   51.3380 N   0  0  0  0  0  0  0  0  0  0  0  0
   -2.5480   42.7510   51.6680 H   0  0  0  0  0  0  0  0  0  0  0  0
   -2.4460   43.5160   53.2920 H   0  0  0  0  0  0  0  0  0  0  0  0
   -0.0346   41.9170   53.7770 H   0  0  0  0  0  0  0  0  0  0  0  0
    2.4218   42.2517   53.4638 H   0  0  0  0  0  0  0  0  0  0  0  0
    3.5170   45.7980   50.6010 H   0  0  0  0  0  0  0  0  0  0  0  0
    6.1468   44.4350   49.6739 H   0  0  0  0  0  0  0  0  0  0  0  0
    8.5409   45.0875   49.8795 H   0  0  0  0  0  0  0  0  0  0  0  0
    7.5741   47.6150   53.2516 H   0  0  0  0  0  0  0  0  0  0  0  0
    5.7086   46.3281   54.9490 H   0  0  0  0  0  0  0  0  0  0  0  0
    4.7262   47.8208   55.1333 H   0  0  0  0  0  0  0  0  0  0  0  0
    1.5745   45.1834   50.3906 H   0  0  0  0  0  0  0  0  0  0  0  0
  1  2  1  0
  2  3  2  0
  3  4  1  0
  4  5  2  0
  5  6  1  0
  6  7  2  0
  6  8  1  0
  8  9  1  0
  9 10  2  0
 10 11  1  0
 11 12  2  0
 12 13  1  0
 12 14  1  0
 14 15  2  0
 15 16  1  0
 16 17  1  0
 17 18  1  0
 18 19  1  0
 18 20  1  0
 18 21  1  0
  5 22  1  0
 22 23  2  0
 23  2  1  0
 15  9  1  0
  1 24  1  0
  1 25  1  0
  3 26  1  0
  4 27  1  0
  8 28  1  0
 10 29  1  0
 11 30  1  0
 14 31  1  0
 17 32  1  0
 17 33  1  0
 22 34  1  0
M  END
>  <meeko>  (5) 
{"is_sidechain": [false], "free_energy": -7.552, "intermolecular_energy": -9.568, "internal_energy": -1.189}

$$$$
