MODEL 1
REMARK VINA RESULT:    -9.357      0.000      0.000
REMARK INTER + INTRA:         -11.108
REMARK INTER:                 -10.998
REMARK INTRA:                  -0.111
REMARK UNBOUND:                -0.111
REMARK SMILES Cn1c(=O)n(C)c2cc(S(=O)(=O)Nc3ccc4c(c3)NCC4)c(Br)cc21
REMARK SMILES IDX 10 1 11 2 12 3 9 4 2 5 3 6 26 7 4 8 5 9 25 10 7 11 23 12
REMARK SMILES IDX 8 13 1 14 6 15 24 16 13 17 14 19 15 20 19 21 16 22 18 23
REMARK SMILES IDX 17 24 20 25 22 26 21 27
REMARK H PARENT 13 18 20 28
ROOT
ATOM      1  S   UNL     1       5.167  47.136  53.955  1.00  0.00     0.263 S 
ATOM      2  O   UNL     1       4.687  48.468  53.448  1.00  0.00    -0.201 OA
ATOM      3  O   UNL     1       6.246  47.360  54.975  1.00  0.00    -0.201 OA
ENDROOT
BRANCH   1   4
ATOM      4  C   UNL     1       5.827  46.167  52.629  1.00  0.00     0.104 A 
ATOM      5  N   UNL     1       7.128  43.712  49.592  1.00  0.00    -0.295 N 
ATOM      6  C   UNL     1       6.179  42.755  49.741  1.00  0.00     0.328 A 
ATOM      7  C   UNL     1       6.825  44.626  50.536  1.00  0.00     0.070 A 
ATOM      8  O   UNL     1       6.148  41.693  49.061  1.00  0.00    -0.248 OA
ATOM      9  N   UNL     1       5.276  43.049  50.710  1.00  0.00    -0.295 N 
ATOM     10  C   UNL     1       7.508  45.792  50.874  1.00  0.00     0.045 A 
ATOM     11  C   UNL     1       5.706  44.224  51.212  1.00  0.00     0.070 A 
ATOM     12  C   UNL     1       7.004  46.574  51.931  1.00  0.00     0.040 A 
ATOM     13  C   UNL     1       5.184  44.962  52.273  1.00  0.00     0.052 A 
ATOM     14  C   UNL     1       8.293  43.687  48.711  1.00  0.00     0.155 C 
ATOM     15  C   UNL     1       4.171  42.223  51.187  1.00  0.00     0.155 C 
ATOM     16  Br  UNL     1       7.973  48.162  52.396  1.00  0.00    -0.049 Br
ENDBRANCH   1   4
BRANCH   1  17
ATOM     17  N   UNL     1       3.838  46.320  54.721  1.00  0.00    -0.280 N 
ATOM     18  H   UNL     1       3.823  46.323  55.765  1.00  0.00     0.180 HD
BRANCH  17  19
ATOM     19  C   UNL     1       2.774  45.660  54.010  1.00  0.00     0.051 A 
ATOM     20  C   UNL     1       2.008  46.326  53.017  1.00  0.00     0.027 A 
ATOM     21  C   UNL     1       2.497  44.307  54.297  1.00  0.00     0.052 A 
ATOM     22  C   UNL     1       0.989  45.648  52.327  1.00  0.00     0.008 A 
ATOM     23  C   UNL     1       1.478  43.667  53.594  1.00  0.00     0.039 A 
ATOM     24  C   UNL     1       0.746  44.312  52.641  1.00  0.00    -0.023 A 
ATOM     25  N   UNL     1       1.069  42.326  53.745  1.00  0.00    -0.384 N 
ATOM     26  C   UNL     1      -0.265  43.392  52.051  1.00  0.00     0.059 C 
ATOM     27  C   UNL     1      -0.024  42.063  52.813  1.00  0.00     0.117 C 
ATOM     28  H   UNL     1       1.480  41.634  54.411  1.00  0.00     0.160 HD
ENDBRANCH  17  19
ENDBRANCH   1  17
TORSDOF 3
ENDMDL
MODEL 2
REMARK VINA RESULT:    -9.221      3.310      7.479
REMARK INTER + INTRA:         -10.949
REMARK INTER:                 -10.635
REMARK INTRA:                  -0.314
REMARK UNBOUND:                -0.111
REMARK SMILES Cn1c(=O)n(C)c2cc(S(=O)(=O)Nc3ccc4c(c3)NCC4)c(Br)cc21
REMARK SMILES IDX 10 1 11 2 12 3 9 4 2 5 3 6 26 7 4 8 5 9 25 10 7 11 23 12
REMARK SMILES IDX 8 13 1 14 6 15 24 16 13 17 14 19 15 20 19 21 16 22 18 23
REMARK SMILES IDX 17 24 20 25 22 26 21 27
REMARK H PARENT 13 18 20 28
ROOT
ATOM      1  S   UNL     1       3.136  46.045  51.994  1.00  0.00     0.263 S 
ATOM      2  O   UNL     1       3.511  47.418  52.479  1.00  0.00    -0.201 OA
ATOM      3  O   UNL     1       2.778  46.122  50.537  1.00  0.00    -0.201 OA
ENDROOT
BRANCH   1   4
ATOM      4  C   UNL     1       1.742  45.427  52.891  1.00  0.00     0.104 A 
ATOM      5  N   UNL     1      -1.652  43.966  54.705  1.00  0.00    -0.295 N 
ATOM      6  C   UNL     1      -2.410  43.881  53.584  1.00  0.00     0.328 A 
ATOM      7  C   UNL     1      -0.465  44.433  54.266  1.00  0.00     0.070 A 
ATOM      8  O   UNL     1      -3.620  43.524  53.587  1.00  0.00    -0.248 OA
ATOM      9  N   UNL     1      -1.737  44.236  52.461  1.00  0.00    -0.295 N 
ATOM     10  C   UNL     1       0.668  44.768  55.003  1.00  0.00     0.045 A 
ATOM     11  C   UNL     1      -0.517  44.596  52.909  1.00  0.00     0.070 A 
ATOM     12  C   UNL     1       1.786  45.269  54.309  1.00  0.00     0.040 A 
ATOM     13  C   UNL     1       0.561  45.103  52.188  1.00  0.00     0.052 A 
ATOM     14  C   UNL     1      -2.071  43.745  56.088  1.00  0.00     0.155 C 
ATOM     15  C   UNL     1      -2.253  44.332  51.099  1.00  0.00     0.155 C 
ATOM     16  Br  UNL     1       3.328  45.748  55.345  1.00  0.00    -0.049 Br
ENDBRANCH   1   4
BRANCH   1  17
ATOM     17  N   UNL     1       4.509  44.996  52.174  1.00  0.00    -0.280 N 
ATOM     18  H   UNL     1       4.310  43.986  52.354  1.00  0.00     0.180 HD
BRANCH  17  19
ATOM     19  C   UNL     1       5.878  45.431  52.084  1.00  0.00     0.051 A 
ATOM     20  C   UNL     1       6.598  45.400  50.861  1.00  0.00     0.027 A 
ATOM     21  C   UNL     1       6.517  45.919  53.243  1.00  0.00     0.052 A 
ATOM     22  C   UNL     1       7.928  45.849  50.802  1.00  0.00     0.008 A 
ATOM     23  C   UNL     1       7.837  46.356  53.148  1.00  0.00     0.039 A 
ATOM     24  C   UNL     1       8.523  46.323  51.969  1.00  0.00    -0.023 A 
ATOM     25  N   UNL     1       8.626  46.876  54.195  1.00  0.00    -0.384 N 
ATOM     26  C   UNL     1       9.903  46.852  52.156  1.00  0.00     0.059 C 
ATOM     27  C   UNL     1       9.944  47.216  53.663  1.00  0.00     0.117 C 
ATOM     28  H   UNL     1       8.321  47.000  55.186  1.00  0.00     0.160 HD
ENDBRANCH  17  19
ENDBRANCH   1  17
TORSDOF 3
ENDMDL
MODEL 3
REMARK VINA RESULT:    -9.009      3.006      7.135
REMARK INTER + INTRA:         -10.699
REMARK INTER:                 -10.861
REMARK INTRA:                   0.162
REMARK UNBOUND:                -0.111
REMARK SMILES Cn1c(=O)n(C)c2cc(S(=O)(=O)Nc3ccc4c(c3)NCC4)c(Br)cc21
REMARK SMILES IDX 10 1 11 2 12 3 9 4 2 5 3 6 26 7 4 8 5 9 25 10 7 11 23 12
REMARK SMILES IDX 8 13 1 14 6 15 24 16 13 17 14 19 15 20 19 21 16 22 18 23
REMARK SMILES IDX 17 24 20 25 22 26 21 27
REMARK H PARENT 13 18 20 28
ROOT
ATOM      1  S   UNL     1       6.613  43.065  49.552  1.00  0.00     0.263 S 
ATOM      2  O   UNL     1       6.204  42.641  48.169  1.00  0.00    -0.201 OA
ATOM      3  O   UNL     1       7.604  42.076  50.096  1.00  0.00    -0.201 OA
ENDROOT
BRANCH   1   4
ATOM      4  C   UNL     1       5.209  43.116  50.628  1.00  0.00     0.104 A 
ATOM      5  N   UNL     1       2.073  43.483  53.270  1.00  0.00    -0.295 N 
ATOM      6  C   UNL     1       2.575  44.530  53.972  1.00  0.00     0.328 A 
ATOM      7  C   UNL     1       3.006  43.240  52.327  1.00  0.00     0.070 A 
ATOM      8  O   UNL     1       2.007  45.027  54.982  1.00  0.00    -0.248 OA
ATOM      9  N   UNL     1       3.761  44.974  53.485  1.00  0.00    -0.295 N 
ATOM     10  C   UNL     1       3.036  42.232  51.367  1.00  0.00     0.045 A 
ATOM     11  C   UNL     1       4.027  44.142  52.458  1.00  0.00     0.070 A 
ATOM     12  C   UNL     1       4.149  42.168  50.506  1.00  0.00     0.040 A 
ATOM     13  C   UNL     1       5.151  44.104  51.636  1.00  0.00     0.052 A 
ATOM     14  C   UNL     1       0.870  42.706  53.560  1.00  0.00     0.155 C 
ATOM     15  C   UNL     1       4.615  46.026  54.027  1.00  0.00     0.155 C 
ATOM     16  Br  UNL     1       4.182  40.757  49.208  1.00  0.00    -0.049 Br
ENDBRANCH   1   4
BRANCH   1  17
ATOM     17  N   UNL     1       7.379  44.622  49.454  1.00  0.00    -0.280 N 
ATOM     18  H   UNL     1       7.232  45.164  48.573  1.00  0.00     0.180 HD
BRANCH  17  19
ATOM     19  C   UNL     1       8.181  45.197  50.501  1.00  0.00     0.051 A 
ATOM     20  C   UNL     1       9.577  44.959  50.596  1.00  0.00     0.027 A 
ATOM     21  C   UNL     1       7.563  46.038  51.451  1.00  0.00     0.052 A 
ATOM     22  C   UNL     1      10.336  45.550  51.620  1.00  0.00     0.008 A 
ATOM     23  C   UNL     1       8.347  46.608  52.453  1.00  0.00     0.039 A 
ATOM     24  C   UNL     1       9.688  46.374  52.538  1.00  0.00    -0.023 A 
ATOM     25  N   UNL     1       7.903  47.471  53.477  1.00  0.00    -0.384 N 
ATOM     26  C   UNL     1      10.270  47.109  53.695  1.00  0.00     0.059 C 
ATOM     27  C   UNL     1       9.047  47.838  54.307  1.00  0.00     0.117 C 
ATOM     28  H   UNL     1       6.920  47.794  53.618  1.00  0.00     0.160 HD
ENDBRANCH  17  19
ENDBRANCH   1  17
TORSDOF 3
ENDMDL
MODEL 4
REMARK VINA RESULT:    -8.907      2.701      5.673
REMARK INTER + INTRA:         -10.580
REMARK INTER:                 -10.671
REMARK INTRA:                   0.091
REMARK UNBOUND:                -0.111
REMARK SMILES Cn1c(=O)n(C)c2cc(S(=O)(=O)Nc3ccc4c(c3)NCC4)c(Br)cc21
REMARK SMILES IDX 10 1 11 2 12 3 9 4 2 5 3 6 26 7 4 8 5 9 25 10 7 11 23 12
REMARK SMILES IDX 8 13 1 14 6 15 24 16 13 17 14 19 15 20 19 21 16 22 18 23
REMARK SMILES IDX 17 24 20 25 22 26 21 27
REMARK H PARENT 13 18 20 28
ROOT
ATOM      1  S   UNL     1       3.224  45.883  53.620  1.00  0.00     0.263 S 
ATOM      2  O   UNL     1       3.436  45.474  55.051  1.00  0.00    -0.201 OA
ATOM      3  O   UNL     1       1.827  46.412  53.463  1.00  0.00    -0.201 OA
ENDROOT
BRANCH   1   4
ATOM      4  C   UNL     1       3.434  44.497  52.539  1.00  0.00     0.104 A 
ATOM      5  N   UNL     1       4.201  41.392  49.948  1.00  0.00    -0.295 N 
ATOM      6  C   UNL     1       5.399  41.846  49.503  1.00  0.00     0.328 A 
ATOM      7  C   UNL     1       3.808  42.321  50.843  1.00  0.00     0.070 A 
ATOM      8  O   UNL     1       6.073  41.268  48.607  1.00  0.00    -0.248 OA
ATOM      9  N   UNL     1       5.789  42.995  50.109  1.00  0.00    -0.295 N 
ATOM     10  C   UNL     1       2.619  42.392  51.564  1.00  0.00     0.045 A 
ATOM     11  C   UNL     1       4.769  43.291  50.940  1.00  0.00     0.070 A 
ATOM     12  C   UNL     1       2.428  43.491  52.424  1.00  0.00     0.040 A 
ATOM     13  C   UNL     1       4.612  44.400  51.767  1.00  0.00     0.052 A 
ATOM     14  C   UNL     1       3.443  40.241  49.462  1.00  0.00     0.155 C 
ATOM     15  C   UNL     1       6.977  43.797  49.831  1.00  0.00     0.155 C 
ATOM     16  Br  UNL     1       0.773  43.582  53.388  1.00  0.00    -0.049 Br
ENDBRANCH   1   4
BRANCH   1  17
ATOM     17  N   UNL     1       4.346  47.151  53.230  1.00  0.00    -0.280 N 
ATOM     18  H   UNL     1       3.940  48.055  52.900  1.00  0.00     0.180 HD
BRANCH  17  19
ATOM     19  C   UNL     1       5.776  47.031  53.344  1.00  0.00     0.051 A 
ATOM     20  C   UNL     1       6.438  47.079  54.599  1.00  0.00     0.027 A 
ATOM     21  C   UNL     1       6.540  46.841  52.173  1.00  0.00     0.052 A 
ATOM     22  C   UNL     1       7.833  46.939  54.677  1.00  0.00     0.008 A 
ATOM     23  C   UNL     1       7.923  46.706  52.288  1.00  0.00     0.039 A 
ATOM     24  C   UNL     1       8.552  46.754  53.497  1.00  0.00    -0.023 A 
ATOM     25  N   UNL     1       8.837  46.507  51.233  1.00  0.00    -0.384 N 
ATOM     26  C   UNL     1      10.021  46.578  53.326  1.00  0.00     0.059 C 
ATOM     27  C   UNL     1      10.183  46.414  51.793  1.00  0.00     0.117 C 
ATOM     28  H   UNL     1       8.593  46.435  50.220  1.00  0.00     0.160 HD
ENDBRANCH  17  19
ENDBRANCH   1  17
TORSDOF 3
ENDMDL
MODEL 5
REMARK VINA RESULT:    -8.604      3.828      8.004
REMARK INTER + INTRA:         -10.224
REMARK INTER:                 -10.147
REMARK INTRA:                  -0.077
REMARK UNBOUND:                -0.111
REMARK SMILES Cn1c(=O)n(C)c2cc(S(=O)(=O)Nc3ccc4c(c3)NCC4)c(Br)cc21
REMARK SMILES IDX 10 1 11 2 12 3 9 4 2 5 3 6 26 7 4 8 5 9 25 10 7 11 23 12
REMARK SMILES IDX 8 13 1 14 6 15 24 16 13 17 14 19 15 20 19 21 16 22 18 23
REMARK SMILES IDX 17 24 20 25 22 26 21 27
REMARK H PARENT 13 18 20 28
ROOT
ATOM      1  S   UNL     1       2.831  45.039  52.315  1.00  0.00     0.263 S 
ATOM      2  O   UNL     1       2.516  45.663  50.984  1.00  0.00    -0.201 OA
ATOM      3  O   UNL     1       3.452  43.690  52.088  1.00  0.00    -0.201 OA
ENDROOT
BRANCH   1   4
ATOM      4  C   UNL     1       1.357  44.835  53.272  1.00  0.00     0.104 A 
ATOM      5  N   UNL     1      -1.928  44.513  55.731  1.00  0.00    -0.295 N 
ATOM      6  C   UNL     1      -1.378  45.114  56.814  1.00  0.00     0.328 A 
ATOM      7  C   UNL     1      -0.952  44.550  54.802  1.00  0.00     0.070 A 
ATOM      8  O   UNL     1      -1.971  45.233  57.921  1.00  0.00    -0.248 OA
ATOM      9  N   UNL     1      -0.116  45.559  56.590  1.00  0.00    -0.295 N 
ATOM     10  C   UNL     1      -0.950  44.018  53.515  1.00  0.00     0.045 A 
ATOM     11  C   UNL     1       0.144  45.183  55.322  1.00  0.00     0.070 A 
ATOM     12  C   UNL     1       0.216  44.162  52.738  1.00  0.00     0.040 A 
ATOM     13  C   UNL     1       1.321  45.333  54.593  1.00  0.00     0.052 A 
ATOM     14  C   UNL     1      -3.226  43.848  55.639  1.00  0.00     0.155 C 
ATOM     15  C   UNL     1       0.797  46.184  57.543  1.00  0.00     0.155 C 
ATOM     16  Br  UNL     1       0.207  43.400  50.979  1.00  0.00    -0.049 Br
ENDBRANCH   1   4
BRANCH   1  17
ATOM     17  N   UNL     1       3.978  46.046  53.145  1.00  0.00    -0.280 N 
ATOM     18  H   UNL     1       3.620  46.600  53.955  1.00  0.00     0.180 HD
BRANCH  17  19
ATOM     19  C   UNL     1       5.370  46.151  52.790  1.00  0.00     0.051 A 
ATOM     20  C   UNL     1       5.840  45.831  51.490  1.00  0.00     0.027 A 
ATOM     21  C   UNL     1       6.289  46.602  53.761  1.00  0.00     0.052 A 
ATOM     22  C   UNL     1       7.202  45.962  51.170  1.00  0.00     0.008 A 
ATOM     23  C   UNL     1       7.633  46.719  53.408  1.00  0.00     0.039 A 
ATOM     24  C   UNL     1       8.078  46.410  52.157  1.00  0.00    -0.023 A 
ATOM     25  N   UNL     1       8.683  47.156  54.242  1.00  0.00    -0.384 N 
ATOM     26  C   UNL     1       9.547  46.633  52.059  1.00  0.00     0.059 C 
ATOM     27  C   UNL     1       9.927  47.133  53.476  1.00  0.00     0.117 C 
ATOM     28  H   UNL     1       8.589  47.447  55.240  1.00  0.00     0.160 HD
ENDBRANCH  17  19
ENDBRANCH   1  17
TORSDOF 3
ENDMDL
