ligand_50_conformer_3_docked
     RDKit          3D

 42 45  0  0  0  0  0  0  0  0999 V2000
    5.1610   42.2010   50.4450 C   0  0  0  0  0  0  0  0  0  0  0  0
    4.6920   43.2480   51.3980 C   0  0  0  0  0  0  0  0  0  0  0  0
    3.3760   43.2800   51.7790 N   0  0  0  0  0  0  0  0  0  0  0  0
    2.8850   44.2320   52.6330 C   0  0  0  0  0  0  0  0  0  0  0  0
    1.4910   44.1930   53.0050 N   0  0  0  0  0  0  0  0  0  0  0  0
    0.8520   43.1540   53.7990 C   0  0  0  0  0  0  0  0  0  0  0  0
   -0.6460   43.3950   53.6650 C   0  0  0  0  0  0  0  0  0  0  0  0
   -0.7810   44.8520   53.2160 C   0  0  2  0  0  0  0  0  0  0  0  0
   -2.0050   45.0930   52.3160 C   0  0  0  0  0  0  0  0  0  0  0  0
   -2.0930   46.4450   51.9550 O   0  0  0  0  0  0  0  0  0  0  0  0
    0.5360   45.1730   52.5120 C   0  0  0  0  0  0  0  0  0  0  0  0
    3.7930   45.2010   53.0890 C   0  0  0  0  0  0  0  0  0  0  0  0
    3.7330   46.2940   53.9390 C   0  0  0  0  0  0  0  0  0  0  0  0
    4.9640   46.8560   54.0110 N   0  0  0  0  0  0  0  0  0  0  0  0
    5.7920   46.1680   53.2310 N   0  0  0  0  0  0  0  0  0  0  0  0
    7.1890   46.4800   53.0790 C   0  0  0  0  0  0  0  0  0  0  0  0
    7.7790   46.5850   51.8050 C   0  0  0  0  0  0  0  0  0  0  0  0
    9.1360   46.8980   51.6780 C   0  0  0  0  0  0  0  0  0  0  0  0
    9.9140   47.1180   52.8170 C   0  0  0  0  0  0  0  0  0  0  0  0
    9.3360   47.0320   54.0850 C   0  0  0  0  0  0  0  0  0  0  0  0
    7.9790   46.7210   54.2170 C   0  0  0  0  0  0  0  0  0  0  0  0
    5.0910   45.1640   52.6720 C   0  0  0  0  0  0  0  0  0  0  0  0
    5.5600   44.2000   51.8440 N   0  0  0  0  0  0  0  0  0  0  0  0
    5.5472   41.3388   51.0085 H   0  0  0  0  0  0  0  0  0  0  0  0
    4.3212   41.8788   49.8118 H   0  0  0  0  0  0  0  0  0  0  0  0
    5.9605   42.6132   49.8118 H   0  0  0  0  0  0  0  0  0  0  0  0
    1.1164   42.1587   53.4123 H   0  0  0  0  0  0  0  0  0  0  0  0
    1.1763   43.1889   54.8495 H   0  0  0  0  0  0  0  0  0  0  0  0
   -1.0796   42.7184   52.9139 H   0  0  0  0  0  0  0  0  0  0  0  0
   -1.1784   43.2052   54.6087 H   0  0  0  0  0  0  0  0  0  0  0  0
   -0.9572   45.5184   54.0732 H   0  0  0  0  0  0  0  0  0  0  0  0
   -1.9112   44.4813   51.4066 H   0  0  0  0  0  0  0  0  0  0  0  0
   -2.9133   44.8138   52.8701 H   0  0  0  0  0  0  0  0  0  0  0  0
   -3.0170   46.7360   52.1720 H   0  0  0  0  0  0  0  0  0  0  0  0
    0.4208   45.0824   51.4218 H   0  0  0  0  0  0  0  0  0  0  0  0
    0.8665   46.2022   52.7157 H   0  0  0  0  0  0  0  0  0  0  0  0
    2.8351   46.6468   54.4675 H   0  0  0  0  0  0  0  0  0  0  0  0
    7.1692   46.4199   50.9045 H   0  0  0  0  0  0  0  0  0  0  0  0
    9.5915   46.9711   50.6794 H   0  0  0  0  0  0  0  0  0  0  0  0
   10.9824   47.3591   52.7149 H   0  0  0  0  0  0  0  0  0  0  0  0
    9.9487   47.2091   54.9812 H   0  0  0  0  0  0  0  0  0  0  0  0
    7.5265   46.6645   55.2180 H   0  0  0  0  0  0  0  0  0  0  0  0
  1  2  1  0
  2  3  2  0
  3  4  1  0
  4  5  1  0
  5  6  1  0
  6  7  1  0
  7  8  1  0
  8  9  1  0
  9 10  1  0
  8 11  1  0
  4 12  2  0
 12 13  1  0
 13 14  2  0
 14 15  1  0
 15 16  1  0
 16 17  2  0
 17 18  1  0
 18 19  2  0
 19 20  1  0
 20 21  2  0
 15 22  1  0
 22 23  2  0
 23  2  1  0
 11  5  1  0
 22 12  1  0
 21 16  1  0
  1 24  1  0
  1 25  1  0
  1 26  1  0
  6 27  1  0
  6 28  1  0
  7 29  1  0
  7 30  1  0
  8 31  1  1
  9 32  1  0
  9 33  1  0
 10 34  1  0
 11 35  1  0
 11 36  1  0
 13 37  1  0
 17 38  1  0
 18 39  1  0
 19 40  1  0
 20 41  1  0
 21 42  1  0
M  END
>  <meeko>  (1) 
{"is_sidechain": [false], "free_energy": -8.588, "intermolecular_energy": -10.345, "internal_energy": -0.423}

$$$$
ligand_50_conformer_3_docked
     RDKit          3D

 42 45  0  0  0  0  0  0  0  0999 V2000
    4.6290   42.6090   50.9350 C   0  0  0  0  0  0  0  0  0  0  0  0
    4.4730   43.6400   52.0010 C   0  0  0  0  0  0  0  0  0  0  0  0
    3.2710   43.7780   52.6450 N   0  0  0  0  0  0  0  0  0  0  0  0
    3.0650   44.7220   53.6150 C   0  0  0  0  0  0  0  0  0  0  0  0
    1.7770   44.7960   54.2620 N   0  0  0  0  0  0  0  0  0  0  0  0
    0.4900   44.8770   53.5890 C   0  0  0  0  0  0  0  0  0  0  0  0
   -0.5210   45.2340   54.6710 C   0  0  0  0  0  0  0  0  0  0  0  0
    0.1490   44.8480   55.9920 C   0  0  2  0  0  0  0  0  0  0  0  0
   -0.2670   45.7530   57.1630 C   0  0  0  0  0  0  0  0  0  0  0  0
    0.8190   45.9770   58.0230 O   0  0  0  0  0  0  0  0  0  0  0  0
    1.6490   44.9090   55.7070 C   0  0  0  0  0  0  0  0  0  0  0  0
    4.1430   45.5720   53.9100 C   0  0  0  0  0  0  0  0  0  0  0  0
    4.3700   46.6150   54.7940 C   0  0  0  0  0  0  0  0  0  0  0  0
    5.6430   47.0510   54.6320 N   0  0  0  0  0  0  0  0  0  0  0  0
    6.2210   46.3320   53.6750 N   0  0  0  0  0  0  0  0  0  0  0  0
    7.5850   46.5150   53.2520 C   0  0  0  0  0  0  0  0  0  0  0  0
    7.9640   46.3240   51.9100 C   0  0  0  0  0  0  0  0  0  0  0  0
    9.2930   46.5170   51.5170 C   0  0  0  0  0  0  0  0  0  0  0  0
   10.2510   46.9100   52.4540 C   0  0  0  0  0  0  0  0  0  0  0  0
    9.8820   47.1170   53.7850 C   0  0  0  0  0  0  0  0  0  0  0  0
    8.5550   46.9280   54.1820 C   0  0  0  0  0  0  0  0  0  0  0  0
    5.3200   45.4330   53.2360 C   0  0  0  0  0  0  0  0  0  0  0  0
    5.5090   44.4780   52.2950 N   0  0  0  0  0  0  0  0  0  0  0  0
    4.7783   41.6225   51.3981 H   0  0  0  0  0  0  0  0  0  0  0  0
    3.7239   42.5876   50.3103 H   0  0  0  0  0  0  0  0  0  0  0  0
    5.4999   42.8564   50.3103 H   0  0  0  0  0  0  0  0  0  0  0  0
    0.5118   45.6561   52.8127 H   0  0  0  0  0  0  0  0  0  0  0  0
    0.2330   43.9307   53.0904 H   0  0  0  0  0  0  0  0  0  0  0  0
   -0.7422   46.3113   54.6514 H   0  0  0  0  0  0  0  0  0  0  0  0
   -1.4777   44.7103   54.5277 H   0  0  0  0  0  0  0  0  0  0  0  0
   -0.1622   43.8451   56.3197 H   0  0  0  0  0  0  0  0  0  0  0  0
   -0.6200   46.7169   56.7675 H   0  0  0  0  0  0  0  0  0  0  0  0
   -1.0702   45.2566   57.7273 H   0  0  0  0  0  0  0  0  0  0  0  0
    0.9620   45.1330   58.5240 H   0  0  0  0  0  0  0  0  0  0  0  0
    2.0678   45.8644   56.0561 H   0  0  0  0  0  0  0  0  0  0  0  0
    2.1954   44.1091   56.2281 H   0  0  0  0  0  0  0  0  0  0  0  0
    3.6387   47.0213   55.5082 H   0  0  0  0  0  0  0  0  0  0  0  0
    7.2118   46.0215   51.1666 H   0  0  0  0  0  0  0  0  0  0  0  0
    9.5837   46.3589   50.4680 H   0  0  0  0  0  0  0  0  0  0  0  0
   11.2961   47.0565   52.1438 H   0  0  0  0  0  0  0  0  0  0  0  0
   10.6366   47.4292   54.5220 H   0  0  0  0  0  0  0  0  0  0  0  0
    8.2678   47.1036   55.2292 H   0  0  0  0  0  0  0  0  0  0  0  0
  1  2  1  0
  2  3  2  0
  3  4  1  0
  4  5  1  0
  5  6  1  0
  6  7  1  0
  7  8  1  0
  8  9  1  0
  9 10  1  0
  8 11  1  0
  4 12  2  0
 12 13  1  0
 13 14  2  0
 14 15  1  0
 15 16  1  0
 16 17  2  0
 17 18  1  0
 18 19  2  0
 19 20  1  0
 20 21  2  0
 15 22  1  0
 22 23  2  0
 23  2  1  0
 11  5  1  0
 22 12  1  0
 21 16  1  0
  1 24  1  0
  1 25  1  0
  1 26  1  0
  6 27  1  0
  6 28  1  0
  7 29  1  0
  7 30  1  0
  8 31  1  1
  9 32  1  0
  9 33  1  0
 10 34  1  0
 11 35  1  0
 11 36  1  0
 13 37  1  0
 17 38  1  0
 18 39  1  0
 19 40  1  0
 20 41  1  0
 21 42  1  0
M  END
>  <meeko>  (2) 
{"is_sidechain": [false], "free_energy": -8.463, "intermolecular_energy": -10.517, "internal_energy": -0.102}

$$$$
ligand_50_conformer_3_docked
     RDKit          3D

 42 45  0  0  0  0  0  0  0  0999 V2000
    5.8260   42.2040   49.7190 C   0  0  0  0  0  0  0  0  0  0  0  0
    5.5180   43.3130   50.6670 C   0  0  0  0  0  0  0  0  0  0  0  0
    6.5040   44.1940   51.0270 N   0  0  0  0  0  0  0  0  0  0  0  0
    6.2840   45.2170   51.9110 C   0  0  0  0  0  0  0  0  0  0  0  0
    7.3660   46.1170   52.2290 N   0  0  0  0  0  0  0  0  0  0  0  0
    8.4570   46.4840   51.3390 C   0  0  0  0  0  0  0  0  0  0  0  0
    9.4800   47.2000   52.2120 C   0  0  0  0  0  0  0  0  0  0  0  0
    8.7060   47.6520   53.4530 C   0  0  2  0  0  0  0  0  0  0  0  0
    9.5690   47.6760   54.7250 C   0  0  0  0  0  0  0  0  0  0  0  0
    9.1630   48.7140   55.5760 O   0  0  0  0  0  0  0  0  0  0  0  0
    7.5300   46.6820   53.5600 C   0  0  0  0  0  0  0  0  0  0  0  0
    4.9960   45.3130   52.4590 C   0  0  0  0  0  0  0  0  0  0  0  0
    4.3550   46.1660   53.3450 C   0  0  0  0  0  0  0  0  0  0  0  0
    3.0690   45.7600   53.4840 N   0  0  0  0  0  0  0  0  0  0  0  0
    2.8790   44.6810   52.7320 N   0  0  0  0  0  0  0  0  0  0  0  0
    1.6190   43.9930   52.6270 C   0  0  0  0  0  0  0  0  0  0  0  0
    0.7030   44.2990   51.6020 C   0  0  0  0  0  0  0  0  0  0  0  0
   -0.5110   43.6120   51.5110 C   0  0  0  0  0  0  0  0  0  0  0  0
   -0.8210   42.6100   52.4330 C   0  0  0  0  0  0  0  0  0  0  0  0
    0.0860   42.2880   53.4450 C   0  0  0  0  0  0  0  0  0  0  0  0
    1.3030   42.9700   53.5390 C   0  0  0  0  0  0  0  0  0  0  0  0
    4.0390   44.4070   52.1060 C   0  0  0  0  0  0  0  0  0  0  0  0
    4.2730   43.4150   51.2130 N   0  0  0  0  0  0  0  0  0  0  0  0
    6.0782   41.2960   50.2864 H   0  0  0  0  0  0  0  0  0  0  0  0
    4.9481   42.0086   49.0856 H   0  0  0  0  0  0  0  0  0  0  0  0
    6.6789   42.4893   49.0856 H   0  0  0  0  0  0  0  0  0  0  0  0
    8.9014   45.5852   50.8865 H   0  0  0  0  0  0  0  0  0  0  0  0
    8.1097   47.1234   50.5141 H   0  0  0  0  0  0  0  0  0  0  0  0
   10.2932   46.5148   52.4934 H   0  0  0  0  0  0  0  0  0  0  0  0
    9.9452   48.0476   51.6875 H   0  0  0  0  0  0  0  0  0  0  0  0
    8.3671   48.6938   53.3541 H   0  0  0  0  0  0  0  0  0  0  0  0
    9.4650   46.7155   55.2509 H   0  0  0  0  0  0  0  0  0  0  0  0
   10.6183   47.8409   54.4392 H   0  0  0  0  0  0  0  0  0  0  0  0
    8.4290   49.1930   55.1090 H   0  0  0  0  0  0  0  0  0  0  0  0
    7.7517   45.8888   54.2891 H   0  0  0  0  0  0  0  0  0  0  0  0
    6.6153   47.1877   53.9029 H   0  0  0  0  0  0  0  0  0  0  0  0
    4.8137   47.0284   53.8508 H   0  0  0  0  0  0  0  0  0  0  0  0
    0.9442   45.0829   50.8690 H   0  0  0  0  0  0  0  0  0  0  0  0
   -1.2239   43.8613   50.7112 H   0  0  0  0  0  0  0  0  0  0  0  0
   -1.7793   42.0745   52.3622 H   0  0  0  0  0  0  0  0  0  0  0  0
   -0.1574   41.4966   54.1692 H   0  0  0  0  0  0  0  0  0  0  0  0
    2.0181   42.7047   54.3316 H   0  0  0  0  0  0  0  0  0  0  0  0
  1  2  1  0
  2  3  2  0
  3  4  1  0
  4  5  1  0
  5  6  1  0
  6  7  1  0
  7  8  1  0
  8  9  1  0
  9 10  1  0
  8 11  1  0
  4 12  2  0
 12 13  1  0
 13 14  2  0
 14 15  1  0
 15 16  1  0
 16 17  2  0
 17 18  1  0
 18 19  2  0
 19 20  1  0
 20 21  2  0
 15 22  1  0
 22 23  2  0
 23  2  1  0
 11  5  1  0
 22 12  1  0
 21 16  1  0
  1 24  1  0
  1 25  1  0
  1 26  1  0
  6 27  1  0
  6 28  1  0
  7 29  1  0
  7 30  1  0
  8 31  1  6
  9 32  1  0
  9 33  1  0
 10 34  1  0
 11 35  1  0
 11 36  1  0
 13 37  1  0
 17 38  1  0
 18 39  1  0
 19 40  1  0
 20 41  1  0
 21 42  1  0
M  END
>  <meeko>  (3) 
{"is_sidechain": [false], "free_energy": -8.33, "intermolecular_energy": -10.146, "internal_energy": -0.311}

$$$$
ligand_50_conformer_3_docked
     RDKit          3D

 42 45  0  0  0  0  0  0  0  0999 V2000
    4.3090   47.6850   54.3000 C   0  0  0  0  0  0  0  0  0  0  0  0
    3.7210   46.4860   53.6360 C   0  0  0  0  0  0  0  0  0  0  0  0
    2.4680   46.0580   53.9880 N   0  0  0  0  0  0  0  0  0  0  0  0
    1.8880   44.9510   53.4280 C   0  0  0  0  0  0  0  0  0  0  0  0
    0.5570   44.5710   53.8350 N   0  0  0  0  0  0  0  0  0  0  0  0
   -0.5520   44.2730   52.9420 C   0  0  0  0  0  0  0  0  0  0  0  0
   -1.7920   44.2240   53.8250 C   0  0  0  0  0  0  0  0  0  0  0  0
   -1.2670   43.9980   55.2450 C   0  0  2  0  0  0  0  0  0  0  0  0
   -2.1470   44.6530   56.3230 C   0  0  0  0  0  0  0  0  0  0  0  0
   -1.7700   44.2150   57.6010 O   0  0  0  0  0  0  0  0  0  0  0  0
    0.1560   44.5530   55.2330 C   0  0  0  0  0  0  0  0  0  0  0  0
    2.6510   44.2480   52.4820 C   0  0  0  0  0  0  0  0  0  0  0  0
    2.4600   43.1270   51.6890 C   0  0  0  0  0  0  0  0  0  0  0  0
    3.5730   42.9310   50.9410 N   0  0  0  0  0  0  0  0  0  0  0  0
    4.4600   43.8750   51.2400 N   0  0  0  0  0  0  0  0  0  0  0  0
    5.7540   43.9800   50.6190 C   0  0  0  0  0  0  0  0  0  0  0  0
    6.3160   42.8990   49.9140 C   0  0  0  0  0  0  0  0  0  0  0  0
    7.5710   43.0250   49.3100 C   0  0  0  0  0  0  0  0  0  0  0  0
    8.2710   44.2300   49.3930 C   0  0  0  0  0  0  0  0  0  0  0  0
    7.7170   45.3140   50.0760 C   0  0  0  0  0  0  0  0  0  0  0  0
    6.4620   45.1940   50.6810 C   0  0  0  0  0  0  0  0  0  0  0  0
    3.9070   44.6770   52.1690 C   0  0  0  0  0  0  0  0  0  0  0  0
    4.4530   45.7880   52.7200 N   0  0  0  0  0  0  0  0  0  0  0  0
    4.2503   47.5652   55.3919 H   0  0  0  0  0  0  0  0  0  0  0  0
    5.3616   47.7916   53.9989 H   0  0  0  0  0  0  0  0  0  0  0  0
    3.7488   48.5825   53.9989 H   0  0  0  0  0  0  0  0  0  0  0  0
   -0.6540   45.0610   52.1813 H   0  0  0  0  0  0  0  0  0  0  0  0
   -0.3978   43.3246   52.4064 H   0  0  0  0  0  0  0  0  0  0  0  0
   -2.3455   45.1727   53.7651 H   0  0  0  0  0  0  0  0  0  0  0  0
   -2.4868   43.4303   53.5131 H   0  0  0  0  0  0  0  0  0  0  0  0
   -1.2858   42.9311   55.5122 H   0  0  0  0  0  0  0  0  0  0  0  0
   -2.0337   45.7457   56.2673 H   0  0  0  0  0  0  0  0  0  0  0  0
   -3.1950   44.3696   56.1458 H   0  0  0  0  0  0  0  0  0  0  0  0
   -0.7780   44.2390   57.6270 H   0  0  0  0  0  0  0  0  0  0  0  0
    0.1749   45.5703   55.6510 H   0  0  0  0  0  0  0  0  0  0  0  0
    0.8365   43.9416   55.8438 H   0  0  0  0  0  0  0  0  0  0  0  0
    1.5557   42.5009   51.6701 H   0  0  0  0  0  0  0  0  0  0  0  0
    5.7650   41.9500   49.8378 H   0  0  0  0  0  0  0  0  0  0  0  0
    8.0075   42.1729   48.7684 H   0  0  0  0  0  0  0  0  0  0  0  0
    9.2595   44.3253   48.9200 H   0  0  0  0  0  0  0  0  0  0  0  0
    8.2683   46.2638   50.1384 H   0  0  0  0  0  0  0  0  0  0  0  0
    6.0255   46.0547   51.2089 H   0  0  0  0  0  0  0  0  0  0  0  0
  1  2  1  0
  2  3  2  0
  3  4  1  0
  4  5  1  0
  5  6  1  0
  6  7  1  0
  7  8  1  0
  8  9  1  0
  9 10  1  0
  8 11  1  0
  4 12  2  0
 12 13  1  0
 13 14  2  0
 14 15  1  0
 15 16  1  0
 16 17  2  0
 17 18  1  0
 18 19  2  0
 19 20  1  0
 20 21  2  0
 15 22  1  0
 22 23  2  0
 23  2  1  0
 11  5  1  0
 22 12  1  0
 21 16  1  0
  1 24  1  0
  1 25  1  0
  1 26  1  0
  6 27  1  0
  6 28  1  0
  7 29  1  0
  7 30  1  0
  8 31  1  1
  9 32  1  0
  9 33  1  0
 10 34  1  0
 11 35  1  0
 11 36  1  0
 13 37  1  0
 17 38  1  0
 18 39  1  0
 19 40  1  0
 20 41  1  0
 21 42  1  0
M  END
>  <meeko>  (4) 
{"is_sidechain": [false], "free_energy": -7.285, "intermolecular_energy": -9.215, "internal_energy": 0.016}

$$$$
ligand_50_conformer_3_docked
     RDKit          3D

 42 45  0  0  0  0  0  0  0  0999 V2000
    4.6340   47.5170   54.1800 C   0  0  0  0  0  0  0  0  0  0  0  0
    4.1640   46.2160   53.6220 C   0  0  0  0  0  0  0  0  0  0  0  0
    4.8890   45.5940   52.6400 N   0  0  0  0  0  0  0  0  0  0  0  0
    4.4930   44.4110   52.0760 C   0  0  0  0  0  0  0  0  0  0  0  0
    5.3170   43.8050   51.0580 N   0  0  0  0  0  0  0  0  0  0  0  0
    5.3340   42.3930   50.7070 C   0  0  0  0  0  0  0  0  0  0  0  0
    6.5530   42.2040   49.8140 C   0  0  0  0  0  0  0  0  0  0  0  0
    6.8890   43.6020   49.2880 C   0  0  2  0  0  0  0  0  0  0  0  0
    8.3940   43.8080   49.0470 C   0  0  0  0  0  0  0  0  0  0  0  0
    8.9560   44.5830   50.0710 O   0  0  0  0  0  0  0  0  0  0  0  0
    6.3250   44.5630   50.3330 C   0  0  0  0  0  0  0  0  0  0  0  0
    3.2830   43.8650   52.5340 C   0  0  0  0  0  0  0  0  0  0  0  0
    2.5430   42.7250   52.2620 C   0  0  0  0  0  0  0  0  0  0  0  0
    1.4400   42.7260   53.0510 N   0  0  0  0  0  0  0  0  0  0  0  0
    1.4520   43.8250   53.7970 N   0  0  0  0  0  0  0  0  0  0  0  0
    0.4340   44.1430   54.7650 C   0  0  0  0  0  0  0  0  0  0  0  0
    0.7380   44.8750   55.9290 C   0  0  0  0  0  0  0  0  0  0  0  0
   -0.2670   45.1820   56.8520 C   0  0  0  0  0  0  0  0  0  0  0  0
   -1.5820   44.7720   56.6200 C   0  0  0  0  0  0  0  0  0  0  0  0
   -1.8970   44.0600   55.4620 C   0  0  0  0  0  0  0  0  0  0  0  0
   -0.8960   43.7520   54.5350 C   0  0  0  0  0  0  0  0  0  0  0  0
    2.5650   44.5180   53.4930 C   0  0  0  0  0  0  0  0  0  0  0  0
    2.9870   45.6770   54.0530 N   0  0  0  0  0  0  0  0  0  0  0  0
    4.6177   47.4719   55.2790 H   0  0  0  0  0  0  0  0  0  0  0  0
    5.6602   47.7141   53.8363 H   0  0  0  0  0  0  0  0  0  0  0  0
    3.9707   48.3244   53.8363 H   0  0  0  0  0  0  0  0  0  0  0  0
    5.4221   41.7740   51.6120 H   0  0  0  0  0  0  0  0  0  0  0  0
    4.4072   42.0905   50.1976 H   0  0  0  0  0  0  0  0  0  0  0  0
    7.3954   41.7974   50.3929 H   0  0  0  0  0  0  0  0  0  0  0  0
    6.3566   41.4945   48.9967 H   0  0  0  0  0  0  0  0  0  0  0  0
    6.4450   43.7729   48.2962 H   0  0  0  0  0  0  0  0  0  0  0  0
    8.8932   42.8282   49.0197 H   0  0  0  0  0  0  0  0  0  0  0  0
    8.5314   44.3319   48.0896 H   0  0  0  0  0  0  0  0  0  0  0  0
    9.5340   45.2600   49.6300 H   0  0  0  0  0  0  0  0  0  0  0  0
    7.1198   44.8967   51.0164 H   0  0  0  0  0  0  0  0  0  0  0  0
    5.9001   45.4653   49.8689 H   0  0  0  0  0  0  0  0  0  0  0  0
    2.8065   41.9488   51.5284 H   0  0  0  0  0  0  0  0  0  0  0  0
    1.7705   45.2068   56.1131 H   0  0  0  0  0  0  0  0  0  0  0  0
   -0.0213   45.7477   57.7628 H   0  0  0  0  0  0  0  0  0  0  0  0
   -2.3693   45.0104   57.3502 H   0  0  0  0  0  0  0  0  0  0  0  0
   -2.9334   43.7407   55.2781 H   0  0  0  0  0  0  0  0  0  0  0  0
   -1.1518   43.1995   53.6189 H   0  0  0  0  0  0  0  0  0  0  0  0
  1  2  1  0
  2  3  2  0
  3  4  1  0
  4  5  1  0
  5  6  1  0
  6  7  1  0
  7  8  1  0
  8  9  1  0
  9 10  1  0
  8 11  1  0
  4 12  2  0
 12 13  1  0
 13 14  2  0
 14 15  1  0
 15 16  1  0
 16 17  2  0
 17 18  1  0
 18 19  2  0
 19 20  1  0
 20 21  2  0
 15 22  1  0
 22 23  2  0
 23  2  1  0
 11  5  1  0
 22 12  1  0
 21 16  1  0
  1 24  1  0
  1 25  1  0
  1 26  1  0
  6 27  1  0
  6 28  1  0
  7 29  1  0
  7 30  1  0
  8 31  1  6
  9 32  1  0
  9 33  1  0
 10 34  1  0
 11 35  1  0
 11 36  1  0
 13 37  1  0
 17 38  1  0
 18 39  1  0
 19 40  1  0
 20 41  1  0
 21 42  1  0
M  END
>  <meeko>  (5) 
{"is_sidechain": [false], "free_energy": -7.023, "intermolecular_energy": -8.941, "internal_energy": 0.057}

$$$$
