ligand_1_conformer_4_docked
     RDKit          3D

 54 58  0  0  0  0  0  0  0  0999 V2000
    7.6180   44.7620   49.6870 O   0  0  0  0  0  0  0  0  0  0  0  0
    7.0830   45.2820   50.7030 C   0  0  0  0  0  0  0  0  0  0  0  0
    5.6660   44.9860   50.9950 C   0  0  0  0  0  0  0  0  0  0  0  0
    4.6450   45.8890   50.6020 C   0  0  0  0  0  0  0  0  0  0  0  0
    3.2960   45.6240   50.8970 C   0  0  0  0  0  0  0  0  0  0  0  0
    2.9930   44.4460   51.5860 C   0  0  0  0  0  0  0  0  0  0  0  0
    3.9820   43.5970   52.0030 C   0  0  0  0  0  0  0  0  0  0  0  0
    5.3280   43.8310   51.7330 C   0  0  0  0  0  0  0  0  0  0  0  0
    3.4510   42.6010   52.7230 N   0  0  0  0  0  0  0  0  0  0  0  0
    2.1270   42.8740   52.7320 C   0  0  0  0  0  0  0  0  0  0  0  0
    1.3050   42.1740   53.3810 O   0  0  0  0  0  0  0  0  0  0  0  0
    1.7920   43.9890   52.0130 N   0  0  0  0  0  0  0  0  0  0  0  0
    0.4820   44.6520   51.8150 C   0  0  0  0  0  0  0  0  0  0  0  0
   -0.5050   43.7640   51.0480 C   0  0  0  0  0  0  0  0  0  0  0  0
   -1.9010   44.1120   51.5710 C   0  0  0  0  0  0  0  0  0  0  0  0
   -1.7080   45.1520   52.6660 C   0  0  0  0  0  0  0  0  0  0  0  0
   -0.2650   45.0020   53.1020 C   0  0  0  0  0  0  0  0  0  0  0  0
    7.8600   46.1550   51.5450 N   0  0  0  0  0  0  0  0  0  0  0  0
    9.0900   45.7540   52.2060 C   0  0  0  0  0  0  0  0  0  0  0  0
    9.5160   46.9490   53.0470 C   0  0  0  0  0  0  0  0  0  0  0  0
    8.2760   47.8420   53.1750 C   0  0  2  0  0  0  0  0  0  0  0  0
    7.6150   47.6090   54.4210 O   0  0  0  0  0  0  0  0  0  0  0  0
    6.4470   46.8460   54.5910 C   0  0  0  0  0  0  0  0  0  0  0  0
    6.5660   45.5700   55.1560 C   0  0  0  0  0  0  0  0  0  0  0  0
    5.4340   44.7720   55.3510 C   0  0  0  0  0  0  0  0  0  0  0  0
    4.1720   45.2440   54.9810 C   0  0  0  0  0  0  0  0  0  0  0  0
    4.0410   46.5150   54.4130 C   0  0  0  0  0  0  0  0  0  0  0  0
    2.8160   46.9720   54.0540 F   0  0  0  0  0  0  0  0  0  0  0  0
    5.1710   47.3170   54.2180 C   0  0  0  0  0  0  0  0  0  0  0  0
    7.3550   47.4300   52.0280 C   0  0  0  0  0  0  0  0  0  0  0  0
    4.9120   46.8080   50.0597 H   0  0  0  0  0  0  0  0  0  0  0  0
    2.5024   46.3231   50.5945 H   0  0  0  0  0  0  0  0  0  0  0  0
    6.1050   43.1362   52.0845 H   0  0  0  0  0  0  0  0  0  0  0  0
    3.9500   41.8200   53.2060 H   0  0  0  0  0  0  0  0  0  0  0  0
    0.7660   45.5649   51.2710 H   0  0  0  0  0  0  0  0  0  0  0  0
   -0.4414   43.9692   49.9692 H   0  0  0  0  0  0  0  0  0  0  0  0
   -0.2791   42.6978   51.1971 H   0  0  0  0  0  0  0  0  0  0  0  0
   -2.5183   44.5251   50.7596 H   0  0  0  0  0  0  0  0  0  0  0  0
   -2.4139   43.2190   51.9577 H   0  0  0  0  0  0  0  0  0  0  0  0
   -1.8900   46.1637   52.2743 H   0  0  0  0  0  0  0  0  0  0  0  0
   -2.4085   45.0061   53.5014 H   0  0  0  0  0  0  0  0  0  0  0  0
    0.1132   45.9426   53.5289 H   0  0  0  0  0  0  0  0  0  0  0  0
   -0.1385   44.2381   53.8833 H   0  0  0  0  0  0  0  0  0  0  0  0
    8.9125   44.8779   52.8471 H   0  0  0  0  0  0  0  0  0  0  0  0
    9.8668   45.4716   51.4801 H   0  0  0  0  0  0  0  0  0  0  0  0
    9.8514   46.6166   54.0405 H   0  0  0  0  0  0  0  0  0  0  0  0
   10.3542   47.4891   52.5826 H   0  0  0  0  0  0  0  0  0  0  0  0
    8.5455   48.9078   53.1359 H   0  0  0  0  0  0  0  0  0  0  0  0
    7.5570   45.1927   55.4485 H   0  0  0  0  0  0  0  0  0  0  0  0
    5.5374   43.7715   55.7963 H   0  0  0  0  0  0  0  0  0  0  0  0
    3.2822   44.6162   55.1364 H   0  0  0  0  0  0  0  0  0  0  0  0
    5.0638   48.3171   53.7728 H   0  0  0  0  0  0  0  0  0  0  0  0
    6.3217   47.3197   52.3886 H   0  0  0  0  0  0  0  0  0  0  0  0
    7.3434   48.1867   51.2297 H   0  0  0  0  0  0  0  0  0  0  0  0
  1  2  2  0
  2  3  1  0
  3  4  2  0
  4  5  1  0
  5  6  2  0
  6  7  1  0
  7  8  2  0
  7  9  1  0
  9 10  1  0
 10 11  2  0
 10 12  1  0
 12 13  1  0
 13 14  1  0
 14 15  1  0
 15 16  1  0
 16 17  1  0
  2 18  1  0
 18 19  1  0
 19 20  1  0
 20 21  1  0
 21 22  1  0
 22 23  1  0
 23 24  2  0
 24 25  1  0
 25 26  2  0
 26 27  1  0
 27 28  1  0
 27 29  2  0
 21 30  1  0
  8  3  1  0
 17 13  1  0
 30 18  1  0
 12  6  1  0
 29 23  1  0
  4 31  1  0
  5 32  1  0
  8 33  1  0
  9 34  1  0
 13 35  1  0
 14 36  1  0
 14 37  1  0
 15 38  1  0
 15 39  1  0
 16 40  1  0
 16 41  1  0
 17 42  1  0
 17 43  1  0
 19 44  1  0
 19 45  1  0
 20 46  1  0
 20 47  1  0
 21 48  1  6
 24 49  1  0
 25 50  1  0
 26 51  1  0
 29 52  1  0
 30 53  1  0
 30 54  1  0
M  END
>  <meeko>  (1) 
{"is_sidechain": [false], "free_energy": -9.41, "intermolecular_energy": -12.16, "internal_energy": -1.84}

$$$$
ligand_1_conformer_4_docked
     RDKit          3D

 54 58  0  0  0  0  0  0  0  0999 V2000
    9.1740   44.2910   49.0200 O   0  0  0  0  0  0  0  0  0  0  0  0
    8.4450   44.6580   49.9810 C   0  0  0  0  0  0  0  0  0  0  0  0
    7.1100   44.0460   50.1390 C   0  0  0  0  0  0  0  0  0  0  0  0
    6.1220   44.6700   50.9430 C   0  0  0  0  0  0  0  0  0  0  0  0
    4.8560   44.0800   51.1160 C   0  0  0  0  0  0  0  0  0  0  0  0
    4.6040   42.8650   50.4720 C   0  0  0  0  0  0  0  0  0  0  0  0
    5.5730   42.2430   49.7330 C   0  0  0  0  0  0  0  0  0  0  0  0
    6.8370   42.7940   49.5450 C   0  0  0  0  0  0  0  0  0  0  0  0
    5.1240   41.0550   49.3070 N   0  0  0  0  0  0  0  0  0  0  0  0
    3.8710   40.9790   49.8090 C   0  0  0  0  0  0  0  0  0  0  0  0
    3.1540   39.9530   49.6650 O   0  0  0  0  0  0  0  0  0  0  0  0
    3.4940   42.0910   50.5120 N   0  0  0  0  0  0  0  0  0  0  0  0
    2.2460   42.3860   51.2540 C   0  0  0  0  0  0  0  0  0  0  0  0
    2.5070   42.6400   52.7430 C   0  0  0  0  0  0  0  0  0  0  0  0
    1.4500   43.6490   53.2040 C   0  0  0  0  0  0  0  0  0  0  0  0
    0.6270   44.0080   51.9740 C   0  0  0  0  0  0  0  0  0  0  0  0
    1.5020   43.6390   50.7930 C   0  0  0  0  0  0  0  0  0  0  0  0
    8.9240   45.6670   50.8900 N   0  0  0  0  0  0  0  0  0  0  0  0
   10.1770   45.5660   51.6190 C   0  0  0  0  0  0  0  0  0  0  0  0
   10.2350   46.7970   52.5130 C   0  0  0  0  0  0  0  0  0  0  0  0
    8.8030   47.3410   52.5800 C   0  0  2  0  0  0  0  0  0  0  0  0
    8.1540   46.9020   53.7750 O   0  0  0  0  0  0  0  0  0  0  0  0
    6.7820   46.6250   53.9000 C   0  0  0  0  0  0  0  0  0  0  0  0
    6.4000   45.4570   54.5730 C   0  0  0  0  0  0  0  0  0  0  0  0
    5.0480   45.1370   54.7290 C   0  0  0  0  0  0  0  0  0  0  0  0
    4.0640   45.9840   54.2110 C   0  0  0  0  0  0  0  0  0  0  0  0
    4.4330   47.1510   53.5340 C   0  0  0  0  0  0  0  0  0  0  0  0
    3.4770   47.9710   53.0320 F   0  0  0  0  0  0  0  0  0  0  0  0
    5.7850   47.4750   53.3780 C   0  0  0  0  0  0  0  0  0  0  0  0
    8.0840   46.7530   51.3670 C   0  0  0  0  0  0  0  0  0  0  0  0
    6.3480   45.6264   51.4372 H   0  0  0  0  0  0  0  0  0  0  0  0
    4.0876   44.5606   51.7394 H   0  0  0  0  0  0  0  0  0  0  0  0
    7.6007   42.2701   48.9515 H   0  0  0  0  0  0  0  0  0  0  0  0
    5.6400   40.3340   48.7530 H   0  0  0  0  0  0  0  0  0  0  0  0
    1.6441   41.4858   51.0606 H   0  0  0  0  0  0  0  0  0  0  0  0
    2.4110   41.7028   53.3109 H   0  0  0  0  0  0  0  0  0  0  0  0
    3.5239   43.0255   52.9085 H   0  0  0  0  0  0  0  0  0  0  0  0
    0.8058   43.1991   53.9738 H   0  0  0  0  0  0  0  0  0  0  0  0
    1.9185   44.5422   53.6429 H   0  0  0  0  0  0  0  0  0  0  0  0
   -0.3104   43.4327   51.9550 H   0  0  0  0  0  0  0  0  0  0  0  0
    0.3452   45.0712   51.9622 H   0  0  0  0  0  0  0  0  0  0  0  0
    0.8889   43.4241   49.9054 H   0  0  0  0  0  0  0  0  0  0  0  0
    2.1846   44.4518   50.5044 H   0  0  0  0  0  0  0  0  0  0  0  0
   10.1940   44.6495   52.2270 H   0  0  0  0  0  0  0  0  0  0  0  0
   11.0397   45.5182   50.9382 H   0  0  0  0  0  0  0  0  0  0  0  0
   10.5866   46.5225   53.5185 H   0  0  0  0  0  0  0  0  0  0  0  0
   10.9328   47.5493   52.1166 H   0  0  0  0  0  0  0  0  0  0  0  0
    8.7934   48.4410   52.5815 H   0  0  0  0  0  0  0  0  0  0  0  0
    7.1701   44.7864   54.9819 H   0  0  0  0  0  0  0  0  0  0  0  0
    4.7584   44.2181   55.2597 H   0  0  0  0  0  0  0  0  0  0  0  0
    3.0003   45.7329   54.3357 H   0  0  0  0  0  0  0  0  0  0  0  0
    6.0711   48.3949   52.8470 H   0  0  0  0  0  0  0  0  0  0  0  0
    7.0942   46.3711   51.6576 H   0  0  0  0  0  0  0  0  0  0  0  0
    7.9250   47.5116   50.5865 H   0  0  0  0  0  0  0  0  0  0  0  0
  1  2  2  0
  2  3  1  0
  3  4  2  0
  4  5  1  0
  5  6  2  0
  6  7  1  0
  7  8  2  0
  7  9  1  0
  9 10  1  0
 10 11  2  0
 10 12  1  0
 12 13  1  0
 13 14  1  0
 14 15  1  0
 15 16  1  0
 16 17  1  0
  2 18  1  0
 18 19  1  0
 19 20  1  0
 20 21  1  0
 21 22  1  0
 22 23  1  0
 23 24  2  0
 24 25  1  0
 25 26  2  0
 26 27  1  0
 27 28  1  0
 27 29  2  0
 21 30  1  0
  8  3  1  0
 17 13  1  0
 30 18  1  0
 12  6  1  0
 29 23  1  0
  4 31  1  0
  5 32  1  0
  8 33  1  0
  9 34  1  0
 13 35  1  0
 14 36  1  0
 14 37  1  0
 15 38  1  0
 15 39  1  0
 16 40  1  0
 16 41  1  0
 17 42  1  0
 17 43  1  0
 19 44  1  0
 19 45  1  0
 20 46  1  0
 20 47  1  0
 21 48  1  6
 24 49  1  0
 25 50  1  0
 26 51  1  0
 29 52  1  0
 30 53  1  0
 30 54  1  0
M  END
>  <meeko>  (2) 
{"is_sidechain": [false], "free_energy": -9.317, "intermolecular_energy": -12.966, "internal_energy": -0.914}

$$$$
ligand_1_conformer_4_docked
     RDKit          3D

 54 58  0  0  0  0  0  0  0  0999 V2000
    2.8600   41.2790   50.1050 O   0  0  0  0  0  0  0  0  0  0  0  0
    3.0070   42.3050   50.8240 C   0  0  0  0  0  0  0  0  0  0  0  0
    4.2850   43.0410   50.7660 C   0  0  0  0  0  0  0  0  0  0  0  0
    4.4670   44.2300   51.5170 C   0  0  0  0  0  0  0  0  0  0  0  0
    5.6750   44.9480   51.4490 C   0  0  0  0  0  0  0  0  0  0  0  0
    6.6870   44.4540   50.6210 C   0  0  0  0  0  0  0  0  0  0  0  0
    6.4950   43.3300   49.8640 C   0  0  0  0  0  0  0  0  0  0  0  0
    5.3110   42.5980   49.9030 C   0  0  0  0  0  0  0  0  0  0  0  0
    7.5650   43.1200   49.0860 N   0  0  0  0  0  0  0  0  0  0  0  0
    8.3970   44.1410   49.3910 C   0  0  0  0  0  0  0  0  0  0  0  0
    9.4940   44.3100   48.7950 O   0  0  0  0  0  0  0  0  0  0  0  0
    7.9090   44.9750   50.3600 N   0  0  0  0  0  0  0  0  0  0  0  0
    8.4720   46.2190   50.9350 C   0  0  0  0  0  0  0  0  0  0  0  0
    7.4290   47.0110   51.7320 C   0  0  0  0  0  0  0  0  0  0  0  0
    8.1880   47.7210   52.8570 C   0  0  0  0  0  0  0  0  0  0  0  0
    9.6450   47.2940   52.7340 C   0  0  0  0  0  0  0  0  0  0  0  0
    9.6130   46.0110   51.9300 C   0  0  0  0  0  0  0  0  0  0  0  0
    1.9320   42.7260   51.6870 N   0  0  0  0  0  0  0  0  0  0  0  0
    0.6320   43.1580   51.2040 C   0  0  0  0  0  0  0  0  0  0  0  0
   -0.1450   43.5870   52.4390 C   0  0  0  0  0  0  0  0  0  0  0  0
    0.8950   43.7920   53.5460 C   0  0  2  0  0  0  0  0  0  0  0  0
    1.2300   45.1760   53.6720 O   0  0  0  0  0  0  0  0  0  0  0  0
    2.5000   45.6790   54.0020 C   0  0  0  0  0  0  0  0  0  0  0  0
    2.9340   46.8500   53.3680 C   0  0  0  0  0  0  0  0  0  0  0  0
    4.1880   47.3940   53.6630 C   0  0  0  0  0  0  0  0  0  0  0  0
    5.0200   46.7700   54.5970 C   0  0  0  0  0  0  0  0  0  0  0  0
    4.5980   45.5990   55.2340 C   0  0  0  0  0  0  0  0  0  0  0  0
    5.4060   44.9950   56.1400 F   0  0  0  0  0  0  0  0  0  0  0  0
    3.3440   45.0530   54.9420 C   0  0  0  0  0  0  0  0  0  0  0  0
    2.1290   43.0120   53.0980 C   0  0  0  0  0  0  0  0  0  0  0  0
    3.6535   44.5956   52.1608 H   0  0  0  0  0  0  0  0  0  0  0  0
    5.8188   45.8708   52.0302 H   0  0  0  0  0  0  0  0  0  0  0  0
    5.1789   41.7012   49.2799 H   0  0  0  0  0  0  0  0  0  0  0  0
    7.7040   42.3670   48.3750 H   0  0  0  0  0  0  0  0  0  0  0  0
    8.8313   46.7450   50.0382 H   0  0  0  0  0  0  0  0  0  0  0  0
    6.9346   47.7486   51.0828 H   0  0  0  0  0  0  0  0  0  0  0  0
    6.6492   46.3481   52.1351 H   0  0  0  0  0  0  0  0  0  0  0  0
    8.1011   48.8118   52.7443 H   0  0  0  0  0  0  0  0  0  0  0  0
    7.7779   47.4550   53.8424 H   0  0  0  0  0  0  0  0  0  0  0  0
   10.2302   48.0639   52.2098 H   0  0  0  0  0  0  0  0  0  0  0  0
   10.1178   47.1529   53.7171 H   0  0  0  0  0  0  0  0  0  0  0  0
   10.5664   45.8570   51.4034 H   0  0  0  0  0  0  0  0  0  0  0  0
    9.4643   45.1224   52.5611 H   0  0  0  0  0  0  0  0  0  0  0  0
    0.7428   44.0027   50.5082 H   0  0  0  0  0  0  0  0  0  0  0  0
    0.1149   42.3553   50.6579 H   0  0  0  0  0  0  0  0  0  0  0  0
   -0.6845   44.5255   52.2436 H   0  0  0  0  0  0  0  0  0  0  0  0
   -0.8929   42.8328   52.7251 H   0  0  0  0  0  0  0  0  0  0  0  0
    0.5129   43.4522   54.5199 H   0  0  0  0  0  0  0  0  0  0  0  0
    2.2834   47.3456   52.6324 H   0  0  0  0  0  0  0  0  0  0  0  0
    4.5200   48.3139   53.1595 H   0  0  0  0  0  0  0  0  0  0  0  0
    6.0053   47.1996   54.8305 H   0  0  0  0  0  0  0  0  0  0  0  0
    3.0153   44.1327   55.4470 H   0  0  0  0  0  0  0  0  0  0  0  0
    3.0365   43.6167   53.2423 H   0  0  0  0  0  0  0  0  0  0  0  0
    2.2559   42.0886   53.6822 H   0  0  0  0  0  0  0  0  0  0  0  0
  1  2  2  0
  2  3  1  0
  3  4  2  0
  4  5  1  0
  5  6  2  0
  6  7  1  0
  7  8  2  0
  7  9  1  0
  9 10  1  0
 10 11  2  0
 10 12  1  0
 12 13  1  0
 13 14  1  0
 14 15  1  0
 15 16  1  0
 16 17  1  0
  2 18  1  0
 18 19  1  0
 19 20  1  0
 20 21  1  0
 21 22  1  0
 22 23  1  0
 23 24  2  0
 24 25  1  0
 25 26  2  0
 26 27  1  0
 27 28  1  0
 27 29  2  0
 21 30  1  0
  8  3  1  0
 17 13  1  0
 30 18  1  0
 12  6  1  0
 29 23  1  0
  4 31  1  0
  5 32  1  0
  8 33  1  0
  9 34  1  0
 13 35  1  0
 14 36  1  0
 14 37  1  0
 15 38  1  0
 15 39  1  0
 16 40  1  0
 16 41  1  0
 17 42  1  0
 17 43  1  0
 19 44  1  0
 19 45  1  0
 20 46  1  0
 20 47  1  0
 21 48  1  1
 24 49  1  0
 25 50  1  0
 26 51  1  0
 29 52  1  0
 30 53  1  0
 30 54  1  0
M  END
>  <meeko>  (3) 
{"is_sidechain": [false], "free_energy": -8.983, "intermolecular_energy": -13.092, "internal_energy": -0.357}

$$$$
ligand_1_conformer_4_docked
     RDKit          3D

 54 58  0  0  0  0  0  0  0  0999 V2000
    7.4380   47.5760   55.3270 O   0  0  0  0  0  0  0  0  0  0  0  0
    6.9380   47.0980   54.2730 C   0  0  0  0  0  0  0  0  0  0  0  0
    5.5320   46.6440   54.2920 C   0  0  0  0  0  0  0  0  0  0  0  0
    5.0500   45.8360   55.3540 C   0  0  0  0  0  0  0  0  0  0  0  0
    3.7190   45.3820   55.3670 C   0  0  0  0  0  0  0  0  0  0  0  0
    2.8890   45.7520   54.3050 C   0  0  0  0  0  0  0  0  0  0  0  0
    3.3660   46.4950   53.2600 C   0  0  0  0  0  0  0  0  0  0  0  0
    4.6790   46.9560   53.2120 C   0  0  0  0  0  0  0  0  0  0  0  0
    2.4140   46.6310   52.3280 N   0  0  0  0  0  0  0  0  0  0  0  0
    1.3610   45.9510   52.8350 C   0  0  0  0  0  0  0  0  0  0  0  0
    0.2880   45.8040   52.1910 O   0  0  0  0  0  0  0  0  0  0  0  0
    1.5970   45.4160   54.0720 N   0  0  0  0  0  0  0  0  0  0  0  0
    0.7420   44.5710   54.9370 C   0  0  0  0  0  0  0  0  0  0  0  0
    0.1310   45.3660   56.0980 C   0  0  0  0  0  0  0  0  0  0  0  0
   -1.2310   44.7300   56.3920 C   0  0  0  0  0  0  0  0  0  0  0  0
   -1.4190   43.6150   55.3710 C   0  0  0  0  0  0  0  0  0  0  0  0
   -0.4690   43.9540   54.2390 C   0  0  0  0  0  0  0  0  0  0  0  0
    7.7460   46.9980   53.0850 N   0  0  0  0  0  0  0  0  0  0  0  0
    8.0350   48.1210   52.2100 C   0  0  0  0  0  0  0  0  0  0  0  0
    8.8380   47.5450   51.0520 C   0  0  0  0  0  0  0  0  0  0  0  0
    8.6100   46.0300   51.0880 C   0  0  2  0  0  0  0  0  0  0  0  0
    7.5980   45.6510   50.1520 O   0  0  0  0  0  0  0  0  0  0  0  0
    6.7720   44.5200   50.2610 C   0  0  0  0  0  0  0  0  0  0  0  0
    7.1980   43.3280   49.6600 C   0  0  0  0  0  0  0  0  0  0  0  0
    6.4150   42.1720   49.7420 C   0  0  0  0  0  0  0  0  0  0  0  0
    5.1970   42.1990   50.4280 C   0  0  0  0  0  0  0  0  0  0  0  0
    4.7600   43.3840   51.0290 C   0  0  0  0  0  0  0  0  0  0  0  0
    3.5780   43.4080   51.6930 F   0  0  0  0  0  0  0  0  0  0  0  0
    5.5410   44.5410   50.9500 C   0  0  0  0  0  0  0  0  0  0  0  0
    8.1290   45.7220   52.5050 C   0  0  0  0  0  0  0  0  0  0  0  0
    5.7257   45.5613   56.1774 H   0  0  0  0  0  0  0  0  0  0  0  0
    3.3425   44.7546   56.1883 H   0  0  0  0  0  0  0  0  0  0  0  0
    5.0408   47.5462   52.3571 H   0  0  0  0  0  0  0  0  0  0  0  0
    2.4850   47.1110   51.4020 H   0  0  0  0  0  0  0  0  0  0  0  0
    1.4432   43.7882   55.2617 H   0  0  0  0  0  0  0  0  0  0  0  0
    0.7792   45.3027   56.9845 H   0  0  0  0  0  0  0  0  0  0  0  0
    0.0255   46.4299   55.8393 H   0  0  0  0  0  0  0  0  0  0  0  0
   -1.2453   44.3176   57.4117 H   0  0  0  0  0  0  0  0  0  0  0  0
   -2.0394   45.4727   56.3224 H   0  0  0  0  0  0  0  0  0  0  0  0
   -1.1628   42.6402   55.8117 H   0  0  0  0  0  0  0  0  0  0  0  0
   -2.4613   43.5415   55.0272 H   0  0  0  0  0  0  0  0  0  0  0  0
   -0.1808   43.0473   53.6869 H   0  0  0  0  0  0  0  0  0  0  0  0
   -0.9199   44.6325   53.4999 H   0  0  0  0  0  0  0  0  0  0  0  0
    7.1010   48.5712   51.8426 H   0  0  0  0  0  0  0  0  0  0  0  0
    8.5901   48.9124   52.7350 H   0  0  0  0  0  0  0  0  0  0  0  0
    8.4840   47.9617   50.0975 H   0  0  0  0  0  0  0  0  0  0  0  0
    9.9060   47.7927   51.1414 H   0  0  0  0  0  0  0  0  0  0  0  0
    9.5273   45.4822   50.8263 H   0  0  0  0  0  0  0  0  0  0  0  0
    8.1557   43.3012   49.1195 H   0  0  0  0  0  0  0  0  0  0  0  0
    6.7576   41.2411   49.2665 H   0  0  0  0  0  0  0  0  0  0  0  0
    4.5828   41.2889   50.4950 H   0  0  0  0  0  0  0  0  0  0  0  0
    5.1948   45.4701   51.4263 H   0  0  0  0  0  0  0  0  0  0  0  0
    7.2656   45.0410   52.4758 H   0  0  0  0  0  0  0  0  0  0  0  0
    8.9135   45.2294   53.0983 H   0  0  0  0  0  0  0  0  0  0  0  0
  1  2  2  0
  2  3  1  0
  3  4  2  0
  4  5  1  0
  5  6  2  0
  6  7  1  0
  7  8  2  0
  7  9  1  0
  9 10  1  0
 10 11  2  0
 10 12  1  0
 12 13  1  0
 13 14  1  0
 14 15  1  0
 15 16  1  0
 16 17  1  0
  2 18  1  0
 18 19  1  0
 19 20  1  0
 20 21  1  0
 21 22  1  0
 22 23  1  0
 23 24  2  0
 24 25  1  0
 25 26  2  0
 26 27  1  0
 27 28  1  0
 27 29  2  0
 21 30  1  0
  8  3  1  0
 17 13  1  0
 30 18  1  0
 12  6  1  0
 29 23  1  0
  4 31  1  0
  5 32  1  0
  8 33  1  0
  9 34  1  0
 13 35  1  0
 14 36  1  0
 14 37  1  0
 15 38  1  0
 15 39  1  0
 16 40  1  0
 16 41  1  0
 17 42  1  0
 17 43  1  0
 19 44  1  0
 19 45  1  0
 20 46  1  0
 20 47  1  0
 21 48  1  6
 24 49  1  0
 25 50  1  0
 26 51  1  0
 29 52  1  0
 30 53  1  0
 30 54  1  0
M  END
>  <meeko>  (4) 
{"is_sidechain": [false], "free_energy": -8.771, "intermolecular_energy": -12.198, "internal_energy": -0.977}

$$$$
ligand_1_conformer_4_docked
     RDKit          3D

 54 58  0  0  0  0  0  0  0  0999 V2000
    5.8490   47.7090   55.0300 O   0  0  0  0  0  0  0  0  0  0  0  0
    5.8110   47.1170   53.9180 C   0  0  0  0  0  0  0  0  0  0  0  0
    4.5530   46.4680   53.4960 C   0  0  0  0  0  0  0  0  0  0  0  0
    3.8330   46.9530   52.3740 C   0  0  0  0  0  0  0  0  0  0  0  0
    2.6230   46.3540   51.9800 C   0  0  0  0  0  0  0  0  0  0  0  0
    2.1550   45.2690   52.7270 C   0  0  0  0  0  0  0  0  0  0  0  0
    2.8270   44.8300   53.8340 C   0  0  0  0  0  0  0  0  0  0  0  0
    4.0240   45.4020   54.2560 C   0  0  0  0  0  0  0  0  0  0  0  0
    2.1300   43.8530   54.4300 N   0  0  0  0  0  0  0  0  0  0  0  0
    1.0270   43.7220   53.6600 C   0  0  0  0  0  0  0  0  0  0  0  0
    0.0960   42.9280   53.9570 O   0  0  0  0  0  0  0  0  0  0  0  0
    1.0130   44.5550   52.5740 N   0  0  0  0  0  0  0  0  0  0  0  0
   -0.0160   44.7610   51.5280 C   0  0  0  0  0  0  0  0  0  0  0  0
   -0.3250   43.4700   50.7610 C   0  0  0  0  0  0  0  0  0  0  0  0
   -1.7990   43.5460   50.3560 C   0  0  0  0  0  0  0  0  0  0  0  0
   -2.3410   44.8470   50.9350 C   0  0  0  0  0  0  0  0  0  0  0  0
   -1.3800   45.2140   52.0470 C   0  0  0  0  0  0  0  0  0  0  0  0
    6.9920   47.0790   53.0930 N   0  0  0  0  0  0  0  0  0  0  0  0
    7.5060   48.2280   52.3680 C   0  0  0  0  0  0  0  0  0  0  0  0
    8.6990   47.7150   51.5740 C   0  0  0  0  0  0  0  0  0  0  0  0
    8.5610   46.1890   51.5380 C   0  0  2  0  0  0  0  0  0  0  0  0
    7.9690   45.7670   50.3070 O   0  0  0  0  0  0  0  0  0  0  0  0
    7.1950   44.6070   50.1330 C   0  0  0  0  0  0  0  0  0  0  0  0
    7.7380   43.5550   49.3820 C   0  0  0  0  0  0  0  0  0  0  0  0
    7.0110   42.3770   49.1820 C   0  0  0  0  0  0  0  0  0  0  0  0
    5.7330   42.2410   49.7310 C   0  0  0  0  0  0  0  0  0  0  0  0
    5.1800   43.2850   50.4790 C   0  0  0  0  0  0  0  0  0  0  0  0
    3.9400   43.1520   51.0120 F   0  0  0  0  0  0  0  0  0  0  0  0
    5.9050   44.4640   50.6830 C   0  0  0  0  0  0  0  0  0  0  0  0
    7.6290   45.8350   52.6950 C   0  0  0  0  0  0  0  0  0  0  0  0
    4.2260   47.8084   51.8049 H   0  0  0  0  0  0  0  0  0  0  0  0
    2.0621   46.7278   51.1107 H   0  0  0  0  0  0  0  0  0  0  0  0
    4.5420   45.0347   55.1542 H   0  0  0  0  0  0  0  0  0  0  0  0
    2.3620   43.3440   55.3130 H   0  0  0  0  0  0  0  0  0  0  0  0
    0.4409   45.5437   50.9046 H   0  0  0  0  0  0  0  0  0  0  0  0
    0.3114   43.3980   49.8667 H   0  0  0  0  0  0  0  0  0  0  0  0
   -0.1285   42.5828   51.3809 H   0  0  0  0  0  0  0  0  0  0  0  0
   -1.8921   43.5501   49.2600 H   0  0  0  0  0  0  0  0  0  0  0  0
   -2.3602   42.6786   50.7337 H   0  0  0  0  0  0  0  0  0  0  0  0
   -2.3605   45.6334   50.1661 H   0  0  0  0  0  0  0  0  0  0  0  0
   -3.3725   44.7374   51.3009 H   0  0  0  0  0  0  0  0  0  0  0  0
   -1.3881   46.2991   52.2274 H   0  0  0  0  0  0  0  0  0  0  0  0
   -1.6442   44.7425   53.0051 H   0  0  0  0  0  0  0  0  0  0  0  0
    6.7379   48.6286   51.6901 H   0  0  0  0  0  0  0  0  0  0  0  0
    7.7922   49.0428   53.0494 H   0  0  0  0  0  0  0  0  0  0  0  0
    8.6825   48.1240   50.5530 H   0  0  0  0  0  0  0  0  0  0  0  0
    9.6499   48.0218   52.0341 H   0  0  0  0  0  0  0  0  0  0  0  0
    9.5413   45.6972   51.6219 H   0  0  0  0  0  0  0  0  0  0  0  0
    8.7431   43.6568   48.9469 H   0  0  0  0  0  0  0  0  0  0  0  0
    7.4456   41.5567   48.5919 H   0  0  0  0  0  0  0  0  0  0  0  0
    5.1626   41.3135   49.5748 H   0  0  0  0  0  0  0  0  0  0  0  0
    5.4671   45.2817   51.2743 H   0  0  0  0  0  0  0  0  0  0  0  0
    6.8728   45.1065   52.3672 H   0  0  0  0  0  0  0  0  0  0  0  0
    8.1804   45.3799   53.5310 H   0  0  0  0  0  0  0  0  0  0  0  0
  1  2  2  0
  2  3  1  0
  3  4  2  0
  4  5  1  0
  5  6  2  0
  6  7  1  0
  7  8  2  0
  7  9  1  0
  9 10  1  0
 10 11  2  0
 10 12  1  0
 12 13  1  0
 13 14  1  0
 14 15  1  0
 15 16  1  0
 16 17  1  0
  2 18  1  0
 18 19  1  0
 19 20  1  0
 20 21  1  0
 21 22  1  0
 22 23  1  0
 23 24  2  0
 24 25  1  0
 25 26  2  0
 26 27  1  0
 27 28  1  0
 27 29  2  0
 21 30  1  0
  8  3  1  0
 17 13  1  0
 30 18  1  0
 12  6  1  0
 29 23  1  0
  4 31  1  0
  5 32  1  0
  8 33  1  0
  9 34  1  0
 13 35  1  0
 14 36  1  0
 14 37  1  0
 15 38  1  0
 15 39  1  0
 16 40  1  0
 16 41  1  0
 17 42  1  0
 17 43  1  0
 19 44  1  0
 19 45  1  0
 20 46  1  0
 20 47  1  0
 21 48  1  1
 24 49  1  0
 25 50  1  0
 26 51  1  0
 29 52  1  0
 30 53  1  0
 30 54  1  0
M  END
>  <meeko>  (5) 
{"is_sidechain": [false], "free_energy": -8.696, "intermolecular_energy": -11.868, "internal_energy": -1.21}

$$$$
