ligand_87_conformer_5_docked
     RDKit          3D

 42 46  0  0  0  0  0  0  0  0999 V2000
   -0.4300   45.1590   56.7360 C   0  0  0  0  0  0  0  0  0  0  0  0
    0.8870   45.0850   56.2780 C   0  0  0  0  0  0  0  0  0  0  0  0
    1.1740   44.4610   55.0600 C   0  0  0  0  0  0  0  0  0  0  0  0
    0.1410   43.8860   54.2970 C   0  0  0  0  0  0  0  0  0  0  0  0
   -1.1920   44.0040   54.7460 C   0  0  0  0  0  0  0  0  0  0  0  0
   -1.4670   44.6220   55.9700 C   0  0  0  0  0  0  0  0  0  0  0  0
   -2.2460   43.4990   53.9780 O   0  0  0  0  0  0  0  0  0  0  0  0
   -2.0590   43.0660   52.6320 C   0  0  0  0  0  0  0  0  0  0  0  0
   -0.7260   42.3310   52.4980 C   0  0  0  0  0  0  0  0  0  0  0  0
    0.4360   43.2310   52.9590 C   0  0  2  0  0  0  0  0  0  0  0  0
    1.6590   42.4270   53.0350 N   0  0  0  0  0  0  0  0  0  0  0  0
    2.8470   42.7730   52.3160 C   0  0  0  0  0  0  0  0  0  0  0  0
    3.2330   42.1970   51.1620 N   0  0  0  0  0  0  0  0  0  0  0  0
    4.3700   42.7860   50.8250 N   0  0  0  0  0  0  0  0  0  0  0  0
    4.6280   43.6960   51.7860 C   0  0  0  0  0  0  0  0  0  0  0  0
    5.8070   44.5730   51.7930 C   0  0  0  0  0  0  0  0  0  0  0  0
    6.5260   44.8170   50.6140 C   0  0  0  0  0  0  0  0  0  0  0  0
    7.6430   45.6550   50.6460 C   0  0  0  0  0  0  0  0  0  0  0  0
    8.0370   46.2440   51.8530 C   0  0  0  0  0  0  0  0  0  0  0  0
    9.1540   47.0910   51.9220 C   0  0  0  0  0  0  0  0  0  0  0  0
    9.5210   47.6630   53.1450 C   0  0  0  0  0  0  0  0  0  0  0  0
    8.7790   47.3960   54.2990 C   0  0  0  0  0  0  0  0  0  0  0  0
    7.6630   46.5530   54.2390 C   0  0  0  0  0  0  0  0  0  0  0  0
    7.2880   45.9750   53.0210 C   0  0  0  0  0  0  0  0  0  0  0  0
    6.2050   45.1550   52.9580 N   0  0  0  0  0  0  0  0  0  0  0  0
    3.6940   43.6920   52.7080 O   0  0  0  0  0  0  0  0  0  0  0  0
   -0.6508   45.6403   57.7002 H   0  0  0  0  0  0  0  0  0  0  0  0
    1.7011   45.5189   56.8771 H   0  0  0  0  0  0  0  0  0  0  0  0
    2.2115   44.4195   54.6969 H   0  0  0  0  0  0  0  0  0  0  0  0
   -2.5042   44.6854   56.3309 H   0  0  0  0  0  0  0  0  0  0  0  0
   -2.8783   42.3881   52.3506 H   0  0  0  0  0  0  0  0  0  0  0  0
   -2.0550   43.9434   51.9685 H   0  0  0  0  0  0  0  0  0  0  0  0
   -0.7492   41.4235   53.1191 H   0  0  0  0  0  0  0  0  0  0  0  0
   -0.5717   42.0644   51.4420 H   0  0  0  0  0  0  0  0  0  0  0  0
    0.5678   44.0414   52.2270 H   0  0  0  0  0  0  0  0  0  0  0  0
    1.6270   41.4950   53.5070 H   0  0  0  0  0  0  0  0  0  0  0  0
    6.2118   44.3507   49.6686 H   0  0  0  0  0  0  0  0  0  0  0  0
    8.2115   45.8515   49.7250 H   0  0  0  0  0  0  0  0  0  0  0  0
    9.7400   47.3048   51.0160 H   0  0  0  0  0  0  0  0  0  0  0  0
   10.3973   48.3257   53.1985 H   0  0  0  0  0  0  0  0  0  0  0  0
    9.0728   47.8496   55.2571 H   0  0  0  0  0  0  0  0  0  0  0  0
    7.0810   46.3450   55.1490 H   0  0  0  0  0  0  0  0  0  0  0  0
  1  2  2  0
  2  3  1  0
  3  4  2  0
  4  5  1  0
  5  6  2  0
  5  7  1  0
  7  8  1  0
  8  9  1  0
  9 10  1  0
 10 11  1  0
 11 12  1  0
 12 13  2  0
 13 14  1  0
 14 15  2  0
 15 16  1  0
 16 17  2  0
 17 18  1  0
 18 19  2  0
 19 20  1  0
 20 21  2  0
 21 22  1  0
 22 23  2  0
 23 24  1  0
 24 25  2  0
 15 26  1  0
  6  1  1  0
 26 12  1  0
 10  4  1  0
 25 16  1  0
 24 19  1  0
  1 27  1  0
  2 28  1  0
  3 29  1  0
  6 30  1  0
  8 31  1  0
  8 32  1  0
  9 33  1  0
  9 34  1  0
 10 35  1  6
 11 36  1  0
 17 37  1  0
 18 38  1  0
 20 39  1  0
 21 40  1  0
 22 41  1  0
 23 42  1  0
M  END
>  <meeko>  (1) 
{"is_sidechain": [false], "free_energy": -10.11, "intermolecular_energy": -11.883, "internal_energy": -0.551}

$$$$
ligand_87_conformer_5_docked
     RDKit          3D

 42 46  0  0  0  0  0  0  0  0999 V2000
   -3.6610   44.5550   55.7080 C   0  0  0  0  0  0  0  0  0  0  0  0
   -3.2110   43.9710   54.5210 C   0  0  0  0  0  0  0  0  0  0  0  0
   -1.8430   43.9210   54.2380 C   0  0  0  0  0  0  0  0  0  0  0  0
   -0.9110   44.4740   55.1350 C   0  0  0  0  0  0  0  0  0  0  0  0
   -1.3720   45.0220   56.3520 C   0  0  0  0  0  0  0  0  0  0  0  0
   -2.7430   45.0770   56.6210 C   0  0  0  0  0  0  0  0  0  0  0  0
   -0.4650   45.5230   57.2920 O   0  0  0  0  0  0  0  0  0  0  0  0
    0.9380   45.2940   57.1820 C   0  0  0  0  0  0  0  0  0  0  0  0
    1.3730   45.3940   55.7200 C   0  0  0  0  0  0  0  0  0  0  0  0
    0.5780   44.4000   54.8520 C   0  0  2  0  0  0  0  0  0  0  0  0
    0.8510   44.6780   53.4390 N   0  0  0  0  0  0  0  0  0  0  0  0
    1.9440   45.5010   53.0180 C   0  0  0  0  0  0  0  0  0  0  0  0
    1.8310   46.7980   52.6730 N   0  0  0  0  0  0  0  0  0  0  0  0
    3.0510   47.1950   52.3480 N   0  0  0  0  0  0  0  0  0  0  0  0
    3.8560   46.1240   52.5090 C   0  0  0  0  0  0  0  0  0  0  0  0
    5.3030   46.1370   52.2530 C   0  0  0  0  0  0  0  0  0  0  0  0
    5.8210   45.6450   51.0460 C   0  0  0  0  0  0  0  0  0  0  0  0
    7.2010   45.6680   50.8260 C   0  0  0  0  0  0  0  0  0  0  0  0
    8.0540   46.1810   51.8090 C   0  0  0  0  0  0  0  0  0  0  0  0
    9.4450   46.2200   51.6220 C   0  0  0  0  0  0  0  0  0  0  0  0
   10.2690   46.7390   52.6250 C   0  0  0  0  0  0  0  0  0  0  0  0
    9.7140   47.2200   53.8150 C   0  0  0  0  0  0  0  0  0  0  0  0
    8.3290   47.1860   54.0100 C   0  0  0  0  0  0  0  0  0  0  0  0
    7.4950   46.6680   53.0130 C   0  0  0  0  0  0  0  0  0  0  0  0
    6.1480   46.6320   53.1980 N   0  0  0  0  0  0  0  0  0  0  0  0
    3.1790   45.0780   52.9220 O   0  0  0  0  0  0  0  0  0  0  0  0
   -4.7387   44.6034   55.9230 H   0  0  0  0  0  0  0  0  0  0  0  0
   -3.9348   43.5497   53.8078 H   0  0  0  0  0  0  0  0  0  0  0  0
   -1.4934   43.4468   53.3091 H   0  0  0  0  0  0  0  0  0  0  0  0
   -3.0997   45.5335   57.5560 H   0  0  0  0  0  0  0  0  0  0  0  0
    1.4773   46.0477   57.7745 H   0  0  0  0  0  0  0  0  0  0  0  0
    1.1692   44.2867   57.5586 H   0  0  0  0  0  0  0  0  0  0  0  0
    1.1919   46.4166   55.3575 H   0  0  0  0  0  0  0  0  0  0  0  0
    2.4435   45.1510   55.6496 H   0  0  0  0  0  0  0  0  0  0  0  0
    0.9007   43.3780   55.0997 H   0  0  0  0  0  0  0  0  0  0  0  0
    0.1490   44.3930   52.7190 H   0  0  0  0  0  0  0  0  0  0  0  0
    5.1449   45.2433   50.2769 H   0  0  0  0  0  0  0  0  0  0  0  0
    7.6154   45.2837   49.8823 H   0  0  0  0  0  0  0  0  0  0  0  0
    9.8858   45.8427   50.6875 H   0  0  0  0  0  0  0  0  0  0  0  0
   11.3586   46.7691   52.4775 H   0  0  0  0  0  0  0  0  0  0  0  0
   10.3684   47.6264   54.6002 H   0  0  0  0  0  0  0  0  0  0  0  0
    7.8958   47.5664   54.9468 H   0  0  0  0  0  0  0  0  0  0  0  0
  1  2  2  0
  2  3  1  0
  3  4  2  0
  4  5  1  0
  5  6  2  0
  5  7  1  0
  7  8  1  0
  8  9  1  0
  9 10  1  0
 10 11  1  0
 11 12  1  0
 12 13  2  0
 13 14  1  0
 14 15  2  0
 15 16  1  0
 16 17  2  0
 17 18  1  0
 18 19  2  0
 19 20  1  0
 20 21  2  0
 21 22  1  0
 22 23  2  0
 23 24  1  0
 24 25  2  0
 15 26  1  0
  6  1  1  0
 26 12  1  0
 10  4  1  0
 25 16  1  0
 24 19  1  0
  1 27  1  0
  2 28  1  0
  3 29  1  0
  6 30  1  0
  8 31  1  0
  8 32  1  0
  9 33  1  0
  9 34  1  0
 10 35  1  1
 11 36  1  0
 17 37  1  0
 18 38  1  0
 20 39  1  0
 21 40  1  0
 22 41  1  0
 23 42  1  0
M  END
>  <meeko>  (2) 
{"is_sidechain": [false], "free_energy": -9.5, "intermolecular_energy": -11.312, "internal_energy": -0.406}

$$$$
ligand_87_conformer_5_docked
     RDKit          3D

 42 46  0  0  0  0  0  0  0  0999 V2000
   10.0390   47.1900   53.4620 C   0  0  0  0  0  0  0  0  0  0  0  0
    8.9510   47.4010   54.3120 C   0  0  0  0  0  0  0  0  0  0  0  0
    7.6710   46.9880   53.9300 C   0  0  0  0  0  0  0  0  0  0  0  0
    7.4660   46.3750   52.6800 C   0  0  0  0  0  0  0  0  0  0  0  0
    8.5780   46.1260   51.8470 C   0  0  0  0  0  0  0  0  0  0  0  0
    9.8530   46.5520   52.2330 C   0  0  0  0  0  0  0  0  0  0  0  0
    8.4150   45.4620   50.6270 O   0  0  0  0  0  0  0  0  0  0  0  0
    7.1960   44.8080   50.2810 C   0  0  0  0  0  0  0  0  0  0  0  0
    6.0030   45.6410   50.7490 C   0  0  0  0  0  0  0  0  0  0  0  0
    6.0860   45.8970   52.2660 C   0  0  2  0  0  0  0  0  0  0  0  0
    5.0640   46.8780   52.6400 N   0  0  0  0  0  0  0  0  0  0  0  0
    3.6870   46.5260   52.8010 C   0  0  0  0  0  0  0  0  0  0  0  0
    2.7730   46.5560   51.8120 N   0  0  0  0  0  0  0  0  0  0  0  0
    1.6320   46.1670   52.3590 N   0  0  0  0  0  0  0  0  0  0  0  0
    1.8990   45.9150   53.6570 C   0  0  0  0  0  0  0  0  0  0  0  0
    0.8960   45.4550   54.6290 C   0  0  0  0  0  0  0  0  0  0  0  0
    1.1770   45.4530   56.0030 C   0  0  0  0  0  0  0  0  0  0  0  0
    0.2070   45.0110   56.9050 C   0  0  0  0  0  0  0  0  0  0  0  0
   -1.0350   44.5730   56.4340 C   0  0  0  0  0  0  0  0  0  0  0  0
   -2.0320   44.1220   57.3120 C   0  0  0  0  0  0  0  0  0  0  0  0
   -3.2630   43.6900   56.8080 C   0  0  0  0  0  0  0  0  0  0  0  0
   -3.5060   43.7070   55.4310 C   0  0  0  0  0  0  0  0  0  0  0  0
   -2.5170   44.1550   54.5480 C   0  0  0  0  0  0  0  0  0  0  0  0
   -1.2820   44.5890   55.0420 C   0  0  0  0  0  0  0  0  0  0  0  0
   -0.3180   45.0250   54.1880 N   0  0  0  0  0  0  0  0  0  0  0  0
    3.1630   46.1350   53.9350 O   0  0  0  0  0  0  0  0  0  0  0  0
   11.0429   47.5263   53.7603 H   0  0  0  0  0  0  0  0  0  0  0  0
    9.1015   47.8932   55.2842 H   0  0  0  0  0  0  0  0  0  0  0  0
    6.8202   47.1430   54.6098 H   0  0  0  0  0  0  0  0  0  0  0  0
   10.7121   46.3842   51.5668 H   0  0  0  0  0  0  0  0  0  0  0  0
    7.1470   44.6833   49.1892 H   0  0  0  0  0  0  0  0  0  0  0  0
    7.1631   43.8239   50.7715 H   0  0  0  0  0  0  0  0  0  0  0  0
    6.0040   46.6047   50.2186 H   0  0  0  0  0  0  0  0  0  0  0  0
    5.0765   45.0894   50.5313 H   0  0  0  0  0  0  0  0  0  0  0  0
    5.9035   44.9498   52.7946 H   0  0  0  0  0  0  0  0  0  0  0  0
    5.3130   47.8940   52.6480 H   0  0  0  0  0  0  0  0  0  0  0  0
    2.1558   45.7976   56.3680 H   0  0  0  0  0  0  0  0  0  0  0  0
    0.4193   45.0073   57.9843 H   0  0  0  0  0  0  0  0  0  0  0  0
   -1.8456   44.1082   58.3960 H   0  0  0  0  0  0  0  0  0  0  0  0
   -4.0432   43.3354   57.4976 H   0  0  0  0  0  0  0  0  0  0  0  0
   -4.4768   43.3674   55.0409 H   0  0  0  0  0  0  0  0  0  0  0  0
   -2.7106   44.1659   53.4652 H   0  0  0  0  0  0  0  0  0  0  0  0
  1  2  2  0
  2  3  1  0
  3  4  2  0
  4  5  1  0
  5  6  2  0
  5  7  1  0
  7  8  1  0
  8  9  1  0
  9 10  1  0
 10 11  1  0
 11 12  1  0
 12 13  2  0
 13 14  1  0
 14 15  2  0
 15 16  1  0
 16 17  2  0
 17 18  1  0
 18 19  2  0
 19 20  1  0
 20 21  2  0
 21 22  1  0
 22 23  2  0
 23 24  1  0
 24 25  2  0
 15 26  1  0
  6  1  1  0
 26 12  1  0
 10  4  1  0
 25 16  1  0
 24 19  1  0
  1 27  1  0
  2 28  1  0
  3 29  1  0
  6 30  1  0
  8 31  1  0
  8 32  1  0
  9 33  1  0
  9 34  1  0
 10 35  1  1
 11 36  1  0
 17 37  1  0
 18 38  1  0
 20 39  1  0
 21 40  1  0
 22 41  1  0
 23 42  1  0
M  END
>  <meeko>  (3) 
{"is_sidechain": [false], "free_energy": -9.43, "intermolecular_energy": -11.207, "internal_energy": -0.427}

$$$$
ligand_87_conformer_5_docked
     RDKit          3D

 42 46  0  0  0  0  0  0  0  0999 V2000
   -3.2650   43.4740   51.7870 C   0  0  0  0  0  0  0  0  0  0  0  0
   -2.4160   42.4410   51.3820 C   0  0  0  0  0  0  0  0  0  0  0  0
   -1.1850   42.2540   52.0160 C   0  0  0  0  0  0  0  0  0  0  0  0
   -0.7820   43.1160   53.0530 C   0  0  0  0  0  0  0  0  0  0  0  0
   -1.6650   44.1290   53.4860 C   0  0  0  0  0  0  0  0  0  0  0  0
   -2.8910   44.3150   52.8380 C   0  0  0  0  0  0  0  0  0  0  0  0
   -1.3200   44.9610   54.5560 O   0  0  0  0  0  0  0  0  0  0  0  0
   -0.2010   44.6840   55.3960 C   0  0  0  0  0  0  0  0  0  0  0  0
    0.9650   44.1580   54.5590 C   0  0  0  0  0  0  0  0  0  0  0  0
    0.5400   42.9050   53.7690 C   0  0  2  0  0  0  0  0  0  0  0  0
    1.5980   42.5650   52.8130 N   0  0  0  0  0  0  0  0  0  0  0  0
    2.4600   43.5530   52.2410 C   0  0  0  0  0  0  0  0  0  0  0  0
    2.0680   44.4810   51.3480 N   0  0  0  0  0  0  0  0  0  0  0  0
    3.1460   45.1950   51.0680 N   0  0  0  0  0  0  0  0  0  0  0  0
    4.1500   44.6730   51.8020 C   0  0  0  0  0  0  0  0  0  0  0  0
    5.5300   45.1790   51.7860 C   0  0  0  0  0  0  0  0  0  0  0  0
    6.2830   45.1680   50.6030 C   0  0  0  0  0  0  0  0  0  0  0  0
    7.5930   45.6540   50.6130 C   0  0  0  0  0  0  0  0  0  0  0  0
    8.1430   46.1480   51.8010 C   0  0  0  0  0  0  0  0  0  0  0  0
    9.4550   46.6440   51.8480 C   0  0  0  0  0  0  0  0  0  0  0  0
    9.9750   47.1300   53.0520 C   0  0  0  0  0  0  0  0  0  0  0  0
    9.1920   47.1240   54.2110 C   0  0  0  0  0  0  0  0  0  0  0  0
    7.8830   46.6320   54.1730 C   0  0  0  0  0  0  0  0  0  0  0  0
    7.3530   46.1430   52.9730 C   0  0  0  0  0  0  0  0  0  0  0  0
    6.0820   45.6630   52.9320 N   0  0  0  0  0  0  0  0  0  0  0  0
    3.7330   43.6620   52.5270 O   0  0  0  0  0  0  0  0  0  0  0  0
   -4.2284   43.6252   51.2781 H   0  0  0  0  0  0  0  0  0  0  0  0
   -2.7175   41.7730   50.5617 H   0  0  0  0  0  0  0  0  0  0  0  0
   -0.5278   41.4292   51.7032 H   0  0  0  0  0  0  0  0  0  0  0  0
   -3.5624   45.1258   53.1570 H   0  0  0  0  0  0  0  0  0  0  0  0
    0.1064   45.6072   55.9091 H   0  0  0  0  0  0  0  0  0  0  0  0
   -0.4859   43.9221   56.1365 H   0  0  0  0  0  0  0  0  0  0  0  0
    1.2858   44.9390   53.8539 H   0  0  0  0  0  0  0  0  0  0  0  0
    1.7936   43.8907   55.2313 H   0  0  0  0  0  0  0  0  0  0  0  0
    0.3937   42.0737   54.4744 H   0  0  0  0  0  0  0  0  0  0  0  0
    1.6360   41.5970   52.4200 H   0  0  0  0  0  0  0  0  0  0  0  0
    5.8447   44.7788   49.6722 H   0  0  0  0  0  0  0  0  0  0  0  0
    8.1904   45.6483   49.6893 H   0  0  0  0  0  0  0  0  0  0  0  0
   10.0739   46.6505   50.9386 H   0  0  0  0  0  0  0  0  0  0  0  0
   11.0035   47.5184   53.0876 H   0  0  0  0  0  0  0  0  0  0  0  0
    9.6067   47.5072   55.1550 H   0  0  0  0  0  0  0  0  0  0  0  0
    7.2699   46.6293   55.0863 H   0  0  0  0  0  0  0  0  0  0  0  0
  1  2  2  0
  2  3  1  0
  3  4  2  0
  4  5  1  0
  5  6  2  0
  5  7  1  0
  7  8  1  0
  8  9  1  0
  9 10  1  0
 10 11  1  0
 11 12  1  0
 12 13  2  0
 13 14  1  0
 14 15  2  0
 15 16  1  0
 16 17  2  0
 17 18  1  0
 18 19  2  0
 19 20  1  0
 20 21  2  0
 21 22  1  0
 22 23  2  0
 23 24  1  0
 24 25  2  0
 15 26  1  0
  6  1  1  0
 26 12  1  0
 10  4  1  0
 25 16  1  0
 24 19  1  0
  1 27  1  0
  2 28  1  0
  3 29  1  0
  6 30  1  0
  8 31  1  0
  8 32  1  0
  9 33  1  0
  9 34  1  0
 10 35  1  1
 11 36  1  0
 17 37  1  0
 18 38  1  0
 20 39  1  0
 21 40  1  0
 22 41  1  0
 23 42  1  0
M  END
>  <meeko>  (4) 
{"is_sidechain": [false], "free_energy": -9.35, "intermolecular_energy": -11.02, "internal_energy": -0.521}

$$$$
ligand_87_conformer_5_docked
     RDKit          3D

 42 46  0  0  0  0  0  0  0  0999 V2000
    9.5810   47.0920   53.6330 C   0  0  0  0  0  0  0  0  0  0  0  0
   10.2180   46.5550   52.5120 C   0  0  0  0  0  0  0  0  0  0  0  0
    9.4640   46.0090   51.4700 C   0  0  0  0  0  0  0  0  0  0  0  0
    8.0590   45.9780   51.5500 C   0  0  0  0  0  0  0  0  0  0  0  0
    7.4220   46.5630   52.6660 C   0  0  0  0  0  0  0  0  0  0  0  0
    8.1860   47.0980   53.7090 C   0  0  0  0  0  0  0  0  0  0  0  0
    6.0270   46.6040   52.7450 O   0  0  0  0  0  0  0  0  0  0  0  0
    5.1990   46.2860   51.6280 C   0  0  0  0  0  0  0  0  0  0  0  0
    5.7870   45.1030   50.8590 C   0  0  0  0  0  0  0  0  0  0  0  0
    7.2280   45.4130   50.4120 C   0  0  2  0  0  0  0  0  0  0  0  0
    7.8370   44.1890   49.8850 N   0  0  0  0  0  0  0  0  0  0  0  0
    7.0540   43.0870   49.4130 C   0  0  0  0  0  0  0  0  0  0  0  0
    6.7900   41.9790   50.1300 N   0  0  0  0  0  0  0  0  0  0  0  0
    6.0490   41.2090   49.3490 N   0  0  0  0  0  0  0  0  0  0  0  0
    5.8910   41.8810   48.1900 C   0  0  0  0  0  0  0  0  0  0  0  0
    5.1250   41.3740   47.0430 C   0  0  0  0  0  0  0  0  0  0  0  0
    5.3930   41.8300   45.7440 C   0  0  0  0  0  0  0  0  0  0  0  0
    4.6500   41.3320   44.6710 C   0  0  0  0  0  0  0  0  0  0  0  0
    3.6470   40.3840   44.8980 C   0  0  0  0  0  0  0  0  0  0  0  0
    2.8820   39.8630   43.8430 C   0  0  0  0  0  0  0  0  0  0  0  0
    1.8860   38.9160   44.1040 C   0  0  0  0  0  0  0  0  0  0  0  0
    1.6490   38.4860   45.4140 C   0  0  0  0  0  0  0  0  0  0  0  0
    2.4070   39.0000   46.4710 C   0  0  0  0  0  0  0  0  0  0  0  0
    3.4060   39.9480   46.2200 C   0  0  0  0  0  0  0  0  0  0  0  0
    4.1450   40.4510   47.2460 N   0  0  0  0  0  0  0  0  0  0  0  0
    6.5080   43.0390   48.2230 O   0  0  0  0  0  0  0  0  0  0  0  0
   10.1781   47.5105   54.4566 H   0  0  0  0  0  0  0  0  0  0  0  0
   11.3162   46.5619   52.4493 H   0  0  0  0  0  0  0  0  0  0  0  0
    9.9708   45.6014   50.5829 H   0  0  0  0  0  0  0  0  0  0  0  0
    7.6868   47.5246   54.5915 H   0  0  0  0  0  0  0  0  0  0  0  0
    4.1919   46.0240   51.9844 H   0  0  0  0  0  0  0  0  0  0  0  0
    5.1442   47.1584   50.9602 H   0  0  0  0  0  0  0  0  0  0  0  0
    5.7926   44.2155   51.5089 H   0  0  0  0  0  0  0  0  0  0  0  0
    5.1703   44.9162   49.9675 H   0  0  0  0  0  0  0  0  0  0  0  0
    7.1962   46.1814   49.6255 H   0  0  0  0  0  0  0  0  0  0  0  0
    8.8680   44.0480   49.9880 H   0  0  0  0  0  0  0  0  0  0  0  0
    6.1834   42.5752   45.5712 H   0  0  0  0  0  0  0  0  0  0  0  0
    4.8534   41.6849   43.6492 H   0  0  0  0  0  0  0  0  0  0  0  0
    3.0654   40.1990   42.8118 H   0  0  0  0  0  0  0  0  0  0  0  0
    1.2871   38.5081   43.2764 H   0  0  0  0  0  0  0  0  0  0  0  0
    0.8642   37.7415   45.6133 H   0  0  0  0  0  0  0  0  0  0  0  0
    2.2182   38.6593   47.4997 H   0  0  0  0  0  0  0  0  0  0  0  0
  1  2  2  0
  2  3  1  0
  3  4  2  0
  4  5  1  0
  5  6  2  0
  5  7  1  0
  7  8  1  0
  8  9  1  0
  9 10  1  0
 10 11  1  0
 11 12  1  0
 12 13  2  0
 13 14  1  0
 14 15  2  0
 15 16  1  0
 16 17  2  0
 17 18  1  0
 18 19  2  0
 19 20  1  0
 20 21  2  0
 21 22  1  0
 22 23  2  0
 23 24  1  0
 24 25  2  0
 15 26  1  0
  6  1  1  0
 26 12  1  0
 10  4  1  0
 25 16  1  0
 24 19  1  0
  1 27  1  0
  2 28  1  0
  3 29  1  0
  6 30  1  0
  8 31  1  0
  8 32  1  0
  9 33  1  0
  9 34  1  0
 10 35  1  6
 11 36  1  0
 17 37  1  0
 18 38  1  0
 20 39  1  0
 21 40  1  0
 22 41  1  0
 23 42  1  0
M  END
>  <meeko>  (5) 
{"is_sidechain": [false], "free_energy": -9.218, "intermolecular_energy": -10.979, "internal_energy": -0.406}

$$$$
