ligand_78_conformer_5_docked
     RDKit          3D

 42 44  0  0  0  0  0  0  0  0999 V2000
    5.7270   44.4420   51.2260 C   0  0  0  0  0  0  0  0  0  0  0  0
    5.4820   45.9440   51.0940 C   0  0  0  0  0  0  0  0  0  0  0  0
    6.0600   46.6850   52.2290 N   0  0  0  0  0  0  0  0  0  0  0  0
    5.1750   47.3430   53.2050 C   0  0  0  0  0  0  0  0  0  0  0  0
    3.8400   46.6660   53.2630 C   0  0  0  0  0  0  0  0  0  0  0  0
    3.5250   45.5140   53.9500 C   0  0  0  0  0  0  0  0  0  0  0  0
    2.2050   45.3340   53.7810 N   0  0  0  0  0  0  0  0  0  0  0  0
    1.3840   44.2970   54.3940 C   0  0  0  0  0  0  0  0  0  0  0  0
    0.5420   44.8920   55.4740 C   0  0  0  0  0  0  0  0  0  0  0  0
    1.0500   45.5770   56.5230 N   0  0  0  0  0  0  0  0  0  0  0  0
    0.0700   46.0860   57.3150 C   0  0  0  0  0  0  0  0  0  0  0  0
   -1.2280   45.8220   56.8930 C   0  0  0  0  0  0  0  0  0  0  0  0
   -1.1390   44.9230   55.4750 S   0  0  0  0  0  0  0  0  0  0  0  0
    1.7300   46.3320   53.0530 N   0  0  0  0  0  0  0  0  0  0  0  0
    2.7090   47.1620   52.7200 N   0  0  0  0  0  0  0  0  0  0  0  0
    7.4920   46.6990   52.4270 C   0  0  0  0  0  0  0  0  0  0  0  0
    8.3620   46.3150   51.3900 C   0  0  0  0  0  0  0  0  0  0  0  0
    9.7450   46.3460   51.5790 C   0  0  0  0  0  0  0  0  0  0  0  0
   10.2780   46.7560   52.8030 C   0  0  0  0  0  0  0  0  0  0  0  0
    9.4270   47.1290   53.8520 C   0  0  0  0  0  0  0  0  0  0  0  0
    9.9990   47.6130   55.1570 C   0  0  0  0  0  0  0  0  0  0  0  0
    9.1970   48.6320   55.6850 O   0  0  0  0  0  0  0  0  0  0  0  0
    8.0380   47.1120   53.6540 C   0  0  0  0  0  0  0  0  0  0  0  0
    5.7714   44.1699   52.2909 H   0  0  0  0  0  0  0  0  0  0  0  0
    4.9066   43.8927   50.7411 H   0  0  0  0  0  0  0  0  0  0  0  0
    6.6795   44.1818   50.7411 H   0  0  0  0  0  0  0  0  0  0  0  0
    5.9431   46.3012   50.1614 H   0  0  0  0  0  0  0  0  0  0  0  0
    4.3959   46.1180   51.0842 H   0  0  0  0  0  0  0  0  0  0  0  0
    5.6428   47.3012   54.1997 H   0  0  0  0  0  0  0  0  0  0  0  0
    5.0246   48.3869   52.8927 H   0  0  0  0  0  0  0  0  0  0  0  0
    4.2136   44.8731   54.5201 H   0  0  0  0  0  0  0  0  0  0  0  0
    0.7334   43.8468   53.6298 H   0  0  0  0  0  0  0  0  0  0  0  0
    2.0370   43.5245   54.8262 H   0  0  0  0  0  0  0  0  0  0  0  0
    0.2881   46.6651   58.2244 H   0  0  0  0  0  0  0  0  0  0  0  0
   -2.1506   46.1444   57.3978 H   0  0  0  0  0  0  0  0  0  0  0  0
    7.9498   45.9882   50.4239 H   0  0  0  0  0  0  0  0  0  0  0  0
   10.4169   46.0465   50.7612 H   0  0  0  0  0  0  0  0  0  0  0  0
   11.3685   46.7862   52.9440 H   0  0  0  0  0  0  0  0  0  0  0  0
   10.0395   46.7758   55.8694 H   0  0  0  0  0  0  0  0  0  0  0  0
   11.0118   48.0054   54.9829 H   0  0  0  0  0  0  0  0  0  0  0  0
    8.6130   48.2080   56.3680 H   0  0  0  0  0  0  0  0  0  0  0  0
    7.3688   47.4256   54.4688 H   0  0  0  0  0  0  0  0  0  0  0  0
  1  2  1  0
  2  3  1  0
  3  4  1  0
  4  5  1  0
  5  6  2  0
  6  7  1  0
  7  8  1  0
  8  9  1  0
  9 10  2  0
 10 11  1  0
 11 12  2  0
 12 13  1  0
  7 14  1  0
 14 15  2  0
  3 16  1  0
 16 17  2  0
 17 18  1  0
 18 19  2  0
 19 20  1  0
 20 21  1  0
 21 22  1  0
 20 23  2  0
 15  5  1  0
 23 16  1  0
 13  9  1  0
  1 24  1  0
  1 25  1  0
  1 26  1  0
  2 27  1  0
  2 28  1  0
  4 29  1  0
  4 30  1  0
  6 31  1  0
  8 32  1  0
  8 33  1  0
 11 34  1  0
 12 35  1  0
 17 36  1  0
 18 37  1  0
 19 38  1  0
 21 39  1  0
 21 40  1  0
 22 41  1  0
 23 42  1  0
M  END
>  <meeko>  (1) 
{"is_sidechain": [false], "free_energy": -8.016, "intermolecular_energy": -11.531, "internal_energy": -0.342}

$$$$
ligand_78_conformer_5_docked
     RDKit          3D

 42 44  0  0  0  0  0  0  0  0999 V2000
    5.1350   45.4280   55.3720 C   0  0  0  0  0  0  0  0  0  0  0  0
    5.2160   46.8250   54.7580 C   0  0  0  0  0  0  0  0  0  0  0  0
    5.7710   46.7810   53.3930 N   0  0  0  0  0  0  0  0  0  0  0  0
    4.8660   46.7980   52.2310 C   0  0  0  0  0  0  0  0  0  0  0  0
    4.1610   45.4850   52.0800 C   0  0  0  0  0  0  0  0  0  0  0  0
    4.7420   44.2460   51.9250 C   0  0  0  0  0  0  0  0  0  0  0  0
    3.7280   43.3630   51.9160 N   0  0  0  0  0  0  0  0  0  0  0  0
    3.8420   41.9110   51.8660 C   0  0  0  0  0  0  0  0  0  0  0  0
    4.2470   41.4820   50.4940 C   0  0  0  0  0  0  0  0  0  0  0  0
    3.3970   40.9110   49.6110 N   0  0  0  0  0  0  0  0  0  0  0  0
    3.9910   40.6950   48.4070 C   0  0  0  0  0  0  0  0  0  0  0  0
    5.3150   41.1100   48.3190 C   0  0  0  0  0  0  0  0  0  0  0  0
    5.7510   41.7720   49.8020 S   0  0  0  0  0  0  0  0  0  0  0  0
    2.5920   44.0200   52.0820 N   0  0  0  0  0  0  0  0  0  0  0  0
    2.8250   45.3210   52.1840 N   0  0  0  0  0  0  0  0  0  0  0  0
    7.2020   46.8000   53.1960 C   0  0  0  0  0  0  0  0  0  0  0  0
    7.7530   46.5680   51.9230 C   0  0  0  0  0  0  0  0  0  0  0  0
    9.1360   46.6030   51.7320 C   0  0  0  0  0  0  0  0  0  0  0  0
    9.9870   46.8650   52.8080 C   0  0  0  0  0  0  0  0  0  0  0  0
    9.4580   47.0850   54.0870 C   0  0  0  0  0  0  0  0  0  0  0  0
   10.3700   47.4110   55.2390 C   0  0  0  0  0  0  0  0  0  0  0  0
    9.8040   48.4200   56.0290 O   0  0  0  0  0  0  0  0  0  0  0  0
    8.0670   47.0650   54.2720 C   0  0  0  0  0  0  0  0  0  0  0  0
    5.1397   45.5088   56.4690 H   0  0  0  0  0  0  0  0  0  0  0  0
    4.2069   44.9368   55.0445 H   0  0  0  0  0  0  0  0  0  0  0  0
    6.0001   44.8328   55.0445 H   0  0  0  0  0  0  0  0  0  0  0  0
    4.2057   47.2583   54.7198 H   0  0  0  0  0  0  0  0  0  0  0  0
    5.8809   47.4397   55.3825 H   0  0  0  0  0  0  0  0  0  0  0  0
    4.1190   47.5936   52.3686 H   0  0  0  0  0  0  0  0  0  0  0  0
    5.4624   46.9816   51.3251 H   0  0  0  0  0  0  0  0  0  0  0  0
    5.8151   44.0243   51.8284 H   0  0  0  0  0  0  0  0  0  0  0  0
    4.5998   41.5791   52.5909 H   0  0  0  0  0  0  0  0  0  0  0  0
    2.8692   41.4617   52.1146 H   0  0  0  0  0  0  0  0  0  0  0  0
    3.4624   40.2260   47.5640 H   0  0  0  0  0  0  0  0  0  0  0  0
    5.9633   41.0210   47.4348 H   0  0  0  0  0  0  0  0  0  0  0  0
    7.0896   46.3574   51.0712 H   0  0  0  0  0  0  0  0  0  0  0  0
    9.5562   46.4237   50.7314 H   0  0  0  0  0  0  0  0  0  0  0  0
   11.0752   46.8988   52.6512 H   0  0  0  0  0  0  0  0  0  0  0  0
   10.5192   46.5096   55.8516 H   0  0  0  0  0  0  0  0  0  0  0  0
   11.3364   47.7600   54.8462 H   0  0  0  0  0  0  0  0  0  0  0  0
   10.3790   49.2220   55.9190 H   0  0  0  0  0  0  0  0  0  0  0  0
    7.6486   47.2590   55.2707 H   0  0  0  0  0  0  0  0  0  0  0  0
  1  2  1  0
  2  3  1  0
  3  4  1  0
  4  5  1  0
  5  6  2  0
  6  7  1  0
  7  8  1  0
  8  9  1  0
  9 10  2  0
 10 11  1  0
 11 12  2  0
 12 13  1  0
  7 14  1  0
 14 15  2  0
  3 16  1  0
 16 17  2  0
 17 18  1  0
 18 19  2  0
 19 20  1  0
 20 21  1  0
 21 22  1  0
 20 23  2  0
 15  5  1  0
 23 16  1  0
 13  9  1  0
  1 24  1  0
  1 25  1  0
  1 26  1  0
  2 27  1  0
  2 28  1  0
  4 29  1  0
  4 30  1  0
  6 31  1  0
  8 32  1  0
  8 33  1  0
 11 34  1  0
 12 35  1  0
 17 36  1  0
 18 37  1  0
 19 38  1  0
 21 39  1  0
 21 40  1  0
 22 41  1  0
 23 42  1  0
M  END
>  <meeko>  (2) 
{"is_sidechain": [false], "free_energy": -7.997, "intermolecular_energy": -11.32, "internal_energy": -0.525}

$$$$
ligand_78_conformer_5_docked
     RDKit          3D

 42 44  0  0  0  0  0  0  0  0999 V2000
    5.4560   44.3300   51.7140 C   0  0  0  0  0  0  0  0  0  0  0  0
    5.4950   45.7630   51.1870 C   0  0  0  0  0  0  0  0  0  0  0  0
    6.0580   46.6880   52.1860 N   0  0  0  0  0  0  0  0  0  0  0  0
    5.1620   47.5290   52.9970 C   0  0  0  0  0  0  0  0  0  0  0  0
    4.2780   46.6890   53.8670 C   0  0  0  0  0  0  0  0  0  0  0  0
    2.9390   46.4270   53.6800 C   0  0  0  0  0  0  0  0  0  0  0  0
    2.5920   45.5680   54.6530 N   0  0  0  0  0  0  0  0  0  0  0  0
    1.2950   44.9240   54.8220 C   0  0  0  0  0  0  0  0  0  0  0  0
    0.8880   44.2660   53.5450 C   0  0  0  0  0  0  0  0  0  0  0  0
    1.5140   43.1840   53.0310 N   0  0  0  0  0  0  0  0  0  0  0  0
    0.8970   42.7290   51.9090 C   0  0  0  0  0  0  0  0  0  0  0  0
   -0.2380   43.4380   51.5300 C   0  0  0  0  0  0  0  0  0  0  0  0
   -0.4730   44.6730   52.6460 S   0  0  0  0  0  0  0  0  0  0  0  0
    3.6630   45.2970   55.3810 N   0  0  0  0  0  0  0  0  0  0  0  0
    4.7100   45.9700   54.9250 N   0  0  0  0  0  0  0  0  0  0  0  0
    7.4840   46.7140   52.4220 C   0  0  0  0  0  0  0  0  0  0  0  0
    8.3840   46.3320   51.4110 C   0  0  0  0  0  0  0  0  0  0  0  0
    9.7620   46.3740   51.6370 C   0  0  0  0  0  0  0  0  0  0  0  0
   10.2590   46.7920   52.8730 C   0  0  0  0  0  0  0  0  0  0  0  0
    9.3770   47.1620   53.8980 C   0  0  0  0  0  0  0  0  0  0  0  0
    9.9110   47.6550   55.2150 C   0  0  0  0  0  0  0  0  0  0  0  0
    9.1330   48.7230   55.6800 O   0  0  0  0  0  0  0  0  0  0  0  0
    7.9940   47.1350   53.6620 C   0  0  0  0  0  0  0  0  0  0  0  0
    5.4564   44.3437   52.8139 H   0  0  0  0  0  0  0  0  0  0  0  0
    4.5440   43.8316   51.3538 H   0  0  0  0  0  0  0  0  0  0  0  0
    6.3396   43.7827   51.3538 H   0  0  0  0  0  0  0  0  0  0  0  0
    6.1167   45.7940   50.2801 H   0  0  0  0  0  0  0  0  0  0  0  0
    4.4648   46.0784   50.9650 H   0  0  0  0  0  0  0  0  0  0  0  0
    5.7681   48.1911   53.6329 H   0  0  0  0  0  0  0  0  0  0  0  0
    4.5276   48.1195   52.3196 H   0  0  0  0  0  0  0  0  0  0  0  0
    2.2870   46.8371   52.8947 H   0  0  0  0  0  0  0  0  0  0  0  0
    1.3637   44.1672   55.6173 H   0  0  0  0  0  0  0  0  0  0  0  0
    0.5458   45.6815   55.0957 H   0  0  0  0  0  0  0  0  0  0  0  0
    1.2683   41.8628   51.3417 H   0  0  0  0  0  0  0  0  0  0  0  0
   -0.8701   43.2277   50.6547 H   0  0  0  0  0  0  0  0  0  0  0  0
    8.0003   45.9979   50.4357 H   0  0  0  0  0  0  0  0  0  0  0  0
   10.4578   46.0768   50.8385 H   0  0  0  0  0  0  0  0  0  0  0  0
   11.3451   46.8311   53.0429 H   0  0  0  0  0  0  0  0  0  0  0  0
    9.8812   46.8364   55.9491 H   0  0  0  0  0  0  0  0  0  0  0  0
   10.9474   47.9972   55.0781 H   0  0  0  0  0  0  0  0  0  0  0  0
    8.2980   48.3280   56.0470 H   0  0  0  0  0  0  0  0  0  0  0  0
    7.3008   47.4471   54.4571 H   0  0  0  0  0  0  0  0  0  0  0  0
  1  2  1  0
  2  3  1  0
  3  4  1  0
  4  5  1  0
  5  6  2  0
  6  7  1  0
  7  8  1  0
  8  9  1  0
  9 10  2  0
 10 11  1  0
 11 12  2  0
 12 13  1  0
  7 14  1  0
 14 15  2  0
  3 16  1  0
 16 17  2  0
 17 18  1  0
 18 19  2  0
 19 20  1  0
 20 21  1  0
 21 22  1  0
 20 23  2  0
 15  5  1  0
 23 16  1  0
 13  9  1  0
  1 24  1  0
  1 25  1  0
  1 26  1  0
  2 27  1  0
  2 28  1  0
  4 29  1  0
  4 30  1  0
  6 31  1  0
  8 32  1  0
  8 33  1  0
 11 34  1  0
 12 35  1  0
 17 36  1  0
 18 37  1  0
 19 38  1  0
 21 39  1  0
 21 40  1  0
 22 41  1  0
 23 42  1  0
M  END
>  <meeko>  (3) 
{"is_sidechain": [false], "free_energy": -7.985, "intermolecular_energy": -11.042, "internal_energy": -0.786}

$$$$
ligand_78_conformer_5_docked
     RDKit          3D

 42 44  0  0  0  0  0  0  0  0999 V2000
    5.4940   44.9640   55.1930 C   0  0  0  0  0  0  0  0  0  0  0  0
    5.4140   46.3750   54.6130 C   0  0  0  0  0  0  0  0  0  0  0  0
    6.0200   46.4400   53.2720 N   0  0  0  0  0  0  0  0  0  0  0  0
    5.1610   46.4540   52.0760 C   0  0  0  0  0  0  0  0  0  0  0  0
    4.5780   45.0980   51.8170 C   0  0  0  0  0  0  0  0  0  0  0  0
    3.2510   44.7920   51.6160 C   0  0  0  0  0  0  0  0  0  0  0  0
    3.2140   43.4770   51.3410 N   0  0  0  0  0  0  0  0  0  0  0  0
    2.0390   42.7010   50.9650 C   0  0  0  0  0  0  0  0  0  0  0  0
    0.9230   42.9810   51.9170 C   0  0  0  0  0  0  0  0  0  0  0  0
    0.9380   42.6030   53.2140 N   0  0  0  0  0  0  0  0  0  0  0  0
   -0.1560   43.0540   53.8830 C   0  0  0  0  0  0  0  0  0  0  0  0
   -1.0440   43.8090   53.1250 C   0  0  0  0  0  0  0  0  0  0  0  0
   -0.4290   43.9160   51.5630 S   0  0  0  0  0  0  0  0  0  0  0  0
    4.4520   43.0080   51.3470 N   0  0  0  0  0  0  0  0  0  0  0  0
    5.3080   43.9770   51.6360 N   0  0  0  0  0  0  0  0  0  0  0  0
    7.4530   46.5680   53.1340 C   0  0  0  0  0  0  0  0  0  0  0  0
    8.0700   46.3960   51.8810 C   0  0  0  0  0  0  0  0  0  0  0  0
    9.4540   46.5360   51.7480 C   0  0  0  0  0  0  0  0  0  0  0  0
   10.2390   46.8460   52.8610 C   0  0  0  0  0  0  0  0  0  0  0  0
    9.6440   47.0070   54.1200 C   0  0  0  0  0  0  0  0  0  0  0  0
   10.4820   47.3830   55.3110 C   0  0  0  0  0  0  0  0  0  0  0  0
    9.8470   48.3940   56.0450 O   0  0  0  0  0  0  0  0  0  0  0  0
    8.2520   46.8810   54.2470 C   0  0  0  0  0  0  0  0  0  0  0  0
    5.4909   45.0185   56.2916 H   0  0  0  0  0  0  0  0  0  0  0  0
    4.6276   44.3779   54.8525 H   0  0  0  0  0  0  0  0  0  0  0  0
    6.4211   44.4796   54.8525 H   0  0  0  0  0  0  0  0  0  0  0  0
    4.3577   46.6739   54.5433 H   0  0  0  0  0  0  0  0  0  0  0  0
    5.9689   47.0542   55.2769 H   0  0  0  0  0  0  0  0  0  0  0  0
    4.3433   47.1738   52.2289 H   0  0  0  0  0  0  0  0  0  0  0  0
    5.7727   46.7437   51.2089 H   0  0  0  0  0  0  0  0  0  0  0  0
    2.3962   45.4822   51.6695 H   0  0  0  0  0  0  0  0  0  0  0  0
    1.7287   42.9781   49.9467 H   0  0  0  0  0  0  0  0  0  0  0  0
    2.2851   41.6294   50.9984 H   0  0  0  0  0  0  0  0  0  0  0  0
   -0.3265   42.8372   54.9478 H   0  0  0  0  0  0  0  0  0  0  0  0
   -1.9826   44.2570   53.4833 H   0  0  0  0  0  0  0  0  0  0  0  0
    7.4587   46.1497   51.0003 H   0  0  0  0  0  0  0  0  0  0  0  0
    9.9267   46.4017   50.7639 H   0  0  0  0  0  0  0  0  0  0  0  0
   11.3269   46.9641   52.7493 H   0  0  0  0  0  0  0  0  0  0  0  0
   10.6206   46.4999   55.9521 H   0  0  0  0  0  0  0  0  0  0  0  0
   11.4592   47.7492   54.9633 H   0  0  0  0  0  0  0  0  0  0  0  0
   10.4120   48.5600   56.8460 H   0  0  0  0  0  0  0  0  0  0  0  0
    7.7806   47.0290   55.2298 H   0  0  0  0  0  0  0  0  0  0  0  0
  1  2  1  0
  2  3  1  0
  3  4  1  0
  4  5  1  0
  5  6  2  0
  6  7  1  0
  7  8  1  0
  8  9  1  0
  9 10  2  0
 10 11  1  0
 11 12  2  0
 12 13  1  0
  7 14  1  0
 14 15  2  0
  3 16  1  0
 16 17  2  0
 17 18  1  0
 18 19  2  0
 19 20  1  0
 20 21  1  0
 21 22  1  0
 20 23  2  0
 15  5  1  0
 23 16  1  0
 13  9  1  0
  1 24  1  0
  1 25  1  0
  1 26  1  0
  2 27  1  0
  2 28  1  0
  4 29  1  0
  4 30  1  0
  6 31  1  0
  8 32  1  0
  8 33  1  0
 11 34  1  0
 12 35  1  0
 17 36  1  0
 18 37  1  0
 19 38  1  0
 21 39  1  0
 21 40  1  0
 22 41  1  0
 23 42  1  0
M  END
>  <meeko>  (4) 
{"is_sidechain": [false], "free_energy": -7.941, "intermolecular_energy": -11.049, "internal_energy": -0.717}

$$$$
ligand_78_conformer_5_docked
     RDKit          3D

 42 44  0  0  0  0  0  0  0  0999 V2000
    1.5860   45.3570   51.9550 C   0  0  0  0  0  0  0  0  0  0  0  0
    2.8910   45.3070   51.1630 C   0  0  0  0  0  0  0  0  0  0  0  0
    3.9040   44.4840   51.8470 N   0  0  0  0  0  0  0  0  0  0  0  0
    3.9410   44.4350   53.3180 C   0  0  0  0  0  0  0  0  0  0  0  0
    4.8090   45.5230   53.8710 C   0  0  0  0  0  0  0  0  0  0  0  0
    6.1770   45.4950   54.0220 C   0  0  0  0  0  0  0  0  0  0  0  0
    6.5230   46.7120   54.4730 N   0  0  0  0  0  0  0  0  0  0  0  0
    7.8770   47.2020   54.7000 C   0  0  0  0  0  0  0  0  0  0  0  0
    8.7030   46.9920   53.4730 C   0  0  0  0  0  0  0  0  0  0  0  0
    9.7450   46.1330   53.4150 N   0  0  0  0  0  0  0  0  0  0  0  0
   10.2730   46.0650   52.1640 C   0  0  0  0  0  0  0  0  0  0  0  0
    9.6420   46.8590   51.2130 C   0  0  0  0  0  0  0  0  0  0  0  0
    8.3780   47.6690   51.9690 S   0  0  0  0  0  0  0  0  0  0  0  0
    5.4320   47.4550   54.5700 N   0  0  0  0  0  0  0  0  0  0  0  0
    4.3670   46.7530   54.2090 N   0  0  0  0  0  0  0  0  0  0  0  0
    4.8110   43.6670   51.0730 C   0  0  0  0  0  0  0  0  0  0  0  0
    4.5540   42.2970   50.8810 C   0  0  0  0  0  0  0  0  0  0  0  0
    5.4240   41.5140   50.1190 C   0  0  0  0  0  0  0  0  0  0  0  0
    6.5620   42.0840   49.5430 C   0  0  0  0  0  0  0  0  0  0  0  0
    6.8420   43.4440   49.7350 C   0  0  0  0  0  0  0  0  0  0  0  0
    8.0430   44.0710   49.0800 C   0  0  0  0  0  0  0  0  0  0  0  0
    9.2160   43.6330   49.7090 O   0  0  0  0  0  0  0  0  0  0  0  0
    5.9570   44.2320   50.4880 C   0  0  0  0  0  0  0  0  0  0  0  0
    1.8101   45.3484   53.0319 H   0  0  0  0  0  0  0  0  0  0  0  0
    1.0384   46.2768   51.7018 H   0  0  0  0  0  0  0  0  0  0  0  0
    0.9696   44.4818   51.7018 H   0  0  0  0  0  0  0  0  0  0  0  0
    2.6910   44.8768   50.1706 H   0  0  0  0  0  0  0  0  0  0  0  0
    3.2808   46.3317   51.0730 H   0  0  0  0  0  0  0  0  0  0  0  0
    2.9196   44.5571   53.7075 H   0  0  0  0  0  0  0  0  0  0  0  0
    4.3580   43.4646   53.6253 H   0  0  0  0  0  0  0  0  0  0  0  0
    6.8492   44.6491   53.8156 H   0  0  0  0  0  0  0  0  0  0  0  0
    7.8420   48.2755   54.9374 H   0  0  0  0  0  0  0  0  0  0  0  0
    8.3267   46.6515   55.5394 H   0  0  0  0  0  0  0  0  0  0  0  0
   11.1366   45.4281   51.9219 H   0  0  0  0  0  0  0  0  0  0  0  0
    9.9209   46.9425   50.1522 H   0  0  0  0  0  0  0  0  0  0  0  0
    3.6620   41.8397   51.3340 H   0  0  0  0  0  0  0  0  0  0  0  0
    5.2124   40.4446   49.9718 H   0  0  0  0  0  0  0  0  0  0  0  0
    7.2397   41.4643   48.9375 H   0  0  0  0  0  0  0  0  0  0  0  0
    8.0701   43.7841   48.0184 H   0  0  0  0  0  0  0  0  0  0  0  0
    7.9726   45.1651   49.1694 H   0  0  0  0  0  0  0  0  0  0  0  0
    9.7830   43.2290   49.0000 H   0  0  0  0  0  0  0  0  0  0  0  0
    6.1631   45.3042   50.6216 H   0  0  0  0  0  0  0  0  0  0  0  0
  1  2  1  0
  2  3  1  0
  3  4  1  0
  4  5  1  0
  5  6  2  0
  6  7  1  0
  7  8  1  0
  8  9  1  0
  9 10  2  0
 10 11  1  0
 11 12  2  0
 12 13  1  0
  7 14  1  0
 14 15  2  0
  3 16  1  0
 16 17  2  0
 17 18  1  0
 18 19  2  0
 19 20  1  0
 20 21  1  0
 21 22  1  0
 20 23  2  0
 15  5  1  0
 23 16  1  0
 13  9  1  0
  1 24  1  0
  1 25  1  0
  1 26  1  0
  2 27  1  0
  2 28  1  0
  4 29  1  0
  4 30  1  0
  6 31  1  0
  8 32  1  0
  8 33  1  0
 11 34  1  0
 12 35  1  0
 17 36  1  0
 18 37  1  0
 19 38  1  0
 21 39  1  0
 21 40  1  0
 22 41  1  0
 23 42  1  0
M  END
>  <meeko>  (5) 
{"is_sidechain": [false], "free_energy": -7.896, "intermolecular_energy": -10.606, "internal_energy": -1.094}

$$$$
