MODEL 1
REMARK VINA RESULT:    -8.710      0.000      0.000
REMARK INTER + INTRA:         -12.524
REMARK INTER:                 -11.766
REMARK INTRA:                  -0.758
REMARK UNBOUND:                -0.758
REMARK SMILES CN(C)C[C@H](c1ccccc1)N(C)S(=O)(=O)c1csc2ccccc12
REMARK SMILES IDX 5 1 4 2 2 3 1 4 3 5 6 6 7 7 11 8 8 9 10 10 9 11 12 12 13 13
REMARK SMILES IDX 14 14 15 15 16 16 17 17 18 18 25 19 19 20 24 21 20 22 23 23
REMARK SMILES IDX 21 24 22 25
REMARK H PARENT
ROOT
ATOM      1  C   UNL     1       2.630  45.090  53.818  1.00  0.00     0.117 C 
ENDROOT
BRANCH   1   2
ATOM      2  C   UNL     1       1.812  44.590  55.045  1.00  0.00     0.109 C 
BRANCH   2   3
ATOM      3  N   UNL     1       0.595  45.411  55.254  1.00  0.00    -0.307 NA
ATOM      4  C   UNL     1      -0.592  44.703  54.747  1.00  0.00     0.105 C 
ATOM      5  C   UNL     1       0.399  45.729  56.679  1.00  0.00     0.105 C 
ENDBRANCH   2   3
ENDBRANCH   1   2
BRANCH   1   6
ATOM      6  C   UNL     1       2.661  44.086  52.676  1.00  0.00    -0.028 A 
ATOM      7  C   UNL     1       1.571  43.916  51.797  1.00  0.00     0.005 A 
ATOM      8  C   UNL     1       3.784  43.249  52.529  1.00  0.00     0.005 A 
ATOM      9  C   UNL     1       1.624  42.958  50.780  1.00  0.00     0.000 A 
ATOM     10  C   UNL     1       3.830  42.293  51.511  1.00  0.00     0.000 A 
ATOM     11  C   UNL     1       2.752  42.149  50.635  1.00  0.00     0.000 A 
ENDBRANCH   1   6
BRANCH   1  12
ATOM     12  N   UNL     1       4.020  45.522  54.124  1.00  0.00    -0.192 NA
ATOM     13  C   UNL     1       4.310  45.787  55.541  1.00  0.00     0.125 C 
BRANCH  12  14
ATOM     14  S   UNL     1       4.559  46.854  53.123  1.00  0.00     0.244 S 
ATOM     15  O   UNL     1       3.486  47.194  52.126  1.00  0.00    -0.207 OA
ATOM     16  O   UNL     1       4.773  48.067  53.982  1.00  0.00    -0.207 OA
BRANCH  14  17
ATOM     17  C   UNL     1       6.032  46.453  52.229  1.00  0.00     0.101 A 
ATOM     18  C   UNL     1       5.968  45.827  50.983  1.00  0.00     0.087 A 
ATOM     19  C   UNL     1       7.359  46.676  52.658  1.00  0.00     0.013 A 
ATOM     20  S   UNL     1       7.533  45.544  50.418  1.00  0.00    -0.142 S 
ATOM     21  C   UNL     1       7.792  47.269  53.854  1.00  0.00     0.011 A 
ATOM     22  C   UNL     1       8.302  46.217  51.745  1.00  0.00     0.036 A 
ATOM     23  C   UNL     1       9.170  47.384  54.101  1.00  0.00     0.001 A 
ATOM     24  C   UNL     1       9.672  46.319  51.971  1.00  0.00     0.019 A 
ATOM     25  C   UNL     1      10.106  46.912  53.165  1.00  0.00     0.002 A 
ENDBRANCH  14  17
ENDBRANCH  12  14
ENDBRANCH   1  12
TORSDOF 6
ENDMDL
MODEL 2
REMARK VINA RESULT:    -8.549      1.325      2.475
REMARK INTER + INTRA:         -12.305
REMARK INTER:                 -11.142
REMARK INTRA:                  -1.163
REMARK UNBOUND:                -0.758
REMARK SMILES CN(C)C[C@H](c1ccccc1)N(C)S(=O)(=O)c1csc2ccccc12
REMARK SMILES IDX 5 1 4 2 2 3 1 4 3 5 6 6 7 7 11 8 8 9 10 10 9 11 12 12 13 13
REMARK SMILES IDX 14 14 15 15 16 16 17 17 18 18 25 19 19 20 24 21 20 22 23 23
REMARK SMILES IDX 21 24 22 25
REMARK H PARENT
ROOT
ATOM      1  C   UNL     1       2.504  45.410  54.255  1.00  0.00     0.117 C 
ENDROOT
BRANCH   1   2
ATOM      2  C   UNL     1       1.948  44.911  55.622  1.00  0.00     0.109 C 
BRANCH   2   3
ATOM      3  N   UNL     1       0.702  45.625  55.991  1.00  0.00    -0.307 NA
ATOM      4  C   UNL     1      -0.467  44.757  55.775  1.00  0.00     0.105 C 
ATOM      5  C   UNL     1       0.730  46.063  57.398  1.00  0.00     0.105 C 
ENDBRANCH   2   3
ENDBRANCH   1   2
BRANCH   1   6
ATOM      6  C   UNL     1       1.997  44.595  53.076  1.00  0.00    -0.028 A 
ATOM      7  C   UNL     1       2.619  43.395  52.672  1.00  0.00     0.005 A 
ATOM      8  C   UNL     1       0.917  45.084  52.317  1.00  0.00     0.005 A 
ATOM      9  C   UNL     1       2.146  42.691  51.561  1.00  0.00     0.000 A 
ATOM     10  C   UNL     1       0.448  44.375  51.207  1.00  0.00     0.000 A 
ATOM     11  C   UNL     1       1.060  43.179  50.831  1.00  0.00     0.000 A 
ENDBRANCH   1   6
BRANCH   1  12
ATOM     12  N   UNL     1       3.987  45.507  54.178  1.00  0.00    -0.192 NA
ATOM     13  C   UNL     1       4.709  45.269  55.437  1.00  0.00     0.125 C 
BRANCH  12  14
ATOM     14  S   UNL     1       4.538  46.986  53.419  1.00  0.00     0.244 S 
ATOM     15  O   UNL     1       3.490  47.472  52.456  1.00  0.00    -0.207 OA
ATOM     16  O   UNL     1       4.710  48.048  54.466  1.00  0.00    -0.207 OA
BRANCH  14  17
ATOM     17  C   UNL     1       6.041  46.745  52.519  1.00  0.00     0.101 A 
ATOM     18  C   UNL     1       7.117  47.621  52.669  1.00  0.00     0.087 A 
ATOM     19  C   UNL     1       6.299  45.723  51.578  1.00  0.00     0.013 A 
ATOM     20  S   UNL     1       8.373  47.145  51.647  1.00  0.00    -0.142 S 
ATOM     21  C   UNL     1       5.445  44.685  51.174  1.00  0.00     0.011 A 
ATOM     22  C   UNL     1       7.564  45.823  51.011  1.00  0.00     0.036 A 
ATOM     23  C   UNL     1       5.890  43.771  50.205  1.00  0.00     0.001 A 
ATOM     24  C   UNL     1       8.024  44.930  50.047  1.00  0.00     0.019 A 
ATOM     25  C   UNL     1       7.173  43.892  49.643  1.00  0.00     0.002 A 
ENDBRANCH  14  17
ENDBRANCH  12  14
ENDBRANCH   1  12
TORSDOF 6
ENDMDL
MODEL 3
REMARK VINA RESULT:    -8.315      1.273      3.516
REMARK INTER + INTRA:         -11.990
REMARK INTER:                 -11.798
REMARK INTRA:                  -0.192
REMARK UNBOUND:                -0.758
REMARK SMILES CN(C)C[C@H](c1ccccc1)N(C)S(=O)(=O)c1csc2ccccc12
REMARK SMILES IDX 5 1 4 2 2 3 1 4 3 5 6 6 7 7 11 8 8 9 10 10 9 11 12 12 13 13
REMARK SMILES IDX 14 14 15 15 16 16 17 17 18 18 25 19 19 20 24 21 20 22 23 23
REMARK SMILES IDX 21 24 22 25
REMARK H PARENT
ROOT
ATOM      1  C   UNL     1       2.611  45.152  53.596  1.00  0.00     0.117 C 
ENDROOT
BRANCH   1   2
ATOM      2  C   UNL     1       2.223  44.603  52.191  1.00  0.00     0.109 C 
BRANCH   2   3
ATOM      3  N   UNL     1       2.407  43.133  52.117  1.00  0.00    -0.307 NA
ATOM      4  C   UNL     1       1.926  42.622  50.823  1.00  0.00     0.105 C 
ATOM      5  C   UNL     1       3.823  42.760  52.292  1.00  0.00     0.105 C 
ENDBRANCH   2   3
ENDBRANCH   1   2
BRANCH   1   6
ATOM      6  C   UNL     1       1.470  45.074  54.599  1.00  0.00    -0.028 A 
ATOM      7  C   UNL     1       1.676  45.250  55.984  1.00  0.00     0.005 A 
ATOM      8  C   UNL     1       0.178  44.748  54.145  1.00  0.00     0.005 A 
ATOM      9  C   UNL     1       0.608  45.136  56.878  1.00  0.00     0.000 A 
ATOM     10  C   UNL     1      -0.885  44.636  55.045  1.00  0.00     0.000 A 
ATOM     11  C   UNL     1      -0.671  44.833  56.410  1.00  0.00     0.000 A 
ENDBRANCH   1   6
BRANCH   1  12
ATOM     12  N   UNL     1       3.167  46.532  53.599  1.00  0.00    -0.192 NA
ATOM     13  C   UNL     1       3.047  47.272  52.333  1.00  0.00     0.125 C 
BRANCH  12  14
ATOM     14  S   UNL     1       4.807  46.608  54.207  1.00  0.00     0.244 S 
ATOM     15  O   UNL     1       5.065  47.977  54.774  1.00  0.00    -0.207 OA
ATOM     16  O   UNL     1       4.968  45.621  55.327  1.00  0.00    -0.207 OA
BRANCH  14  17
ATOM     17  C   UNL     1       5.997  46.309  52.933  1.00  0.00     0.101 A 
ATOM     18  C   UNL     1       5.613  45.784  51.699  1.00  0.00     0.087 A 
ATOM     19  C   UNL     1       7.391  46.523  53.023  1.00  0.00     0.013 A 
ATOM     20  S   UNL     1       6.978  45.577  50.729  1.00  0.00    -0.142 S 
ATOM     21  C   UNL     1       8.119  47.026  54.112  1.00  0.00     0.011 A 
ATOM     22  C   UNL     1       8.066  46.156  51.864  1.00  0.00     0.036 A 
ATOM     23  C   UNL     1       9.514  47.147  54.005  1.00  0.00     0.001 A 
ATOM     24  C   UNL     1       9.448  46.267  51.737  1.00  0.00     0.019 A 
ATOM     25  C   UNL     1      10.176  46.770  52.823  1.00  0.00     0.002 A 
ENDBRANCH  14  17
ENDBRANCH  12  14
ENDBRANCH   1  12
TORSDOF 6
ENDMDL
MODEL 4
REMARK VINA RESULT:    -8.183      1.066      1.767
REMARK INTER + INTRA:         -11.811
REMARK INTER:                 -11.245
REMARK INTRA:                  -0.566
REMARK UNBOUND:                -0.758
REMARK SMILES CN(C)C[C@H](c1ccccc1)N(C)S(=O)(=O)c1csc2ccccc12
REMARK SMILES IDX 5 1 4 2 2 3 1 4 3 5 6 6 7 7 11 8 8 9 10 10 9 11 12 12 13 13
REMARK SMILES IDX 14 14 15 15 16 16 17 17 18 18 25 19 19 20 24 21 20 22 23 23
REMARK SMILES IDX 21 24 22 25
REMARK H PARENT
ROOT
ATOM      1  C   UNL     1       2.953  44.198  52.645  1.00  0.00     0.117 C 
ENDROOT
BRANCH   1   2
ATOM      2  C   UNL     1       1.864  43.635  53.605  1.00  0.00     0.109 C 
BRANCH   2   3
ATOM      3  N   UNL     1       0.576  44.350  53.439  1.00  0.00    -0.307 NA
ATOM      4  C   UNL     1       0.160  44.957  54.714  1.00  0.00     0.105 C 
ATOM      5  C   UNL     1       0.673  45.400  52.409  1.00  0.00     0.105 C 
ENDBRANCH   2   3
ENDBRANCH   1   2
BRANCH   1   6
ATOM      6  C   UNL     1       3.519  43.145  51.706  1.00  0.00    -0.028 A 
ATOM      7  C   UNL     1       4.907  42.982  51.512  1.00  0.00     0.005 A 
ATOM      8  C   UNL     1       2.635  42.350  50.952  1.00  0.00     0.005 A 
ATOM      9  C   UNL     1       5.389  42.024  50.615  1.00  0.00     0.000 A 
ATOM     10  C   UNL     1       3.123  41.395  50.056  1.00  0.00     0.000 A 
ATOM     11  C   UNL     1       4.499  41.231  49.889  1.00  0.00     0.000 A 
ENDBRANCH   1   6
BRANCH   1  12
ATOM     12  N   UNL     1       4.077  44.905  53.316  1.00  0.00    -0.192 NA
ATOM     13  C   UNL     1       3.890  45.189  54.747  1.00  0.00     0.125 C 
BRANCH  12  14
ATOM     14  S   UNL     1       4.586  46.347  52.462  1.00  0.00     0.244 S 
ATOM     15  O   UNL     1       3.691  46.564  51.273  1.00  0.00    -0.207 OA
ATOM     16  O   UNL     1       4.433  47.539  53.362  1.00  0.00    -0.207 OA
BRANCH  14  17
ATOM     17  C   UNL     1       6.251  46.214  51.878  1.00  0.00     0.101 A 
ATOM     18  C   UNL     1       6.531  45.674  50.622  1.00  0.00     0.087 A 
ATOM     19  C   UNL     1       7.417  46.585  52.583  1.00  0.00     0.013 A 
ATOM     20  S   UNL     1       8.202  45.647  50.385  1.00  0.00    -0.142 S 
ATOM     21  C   UNL     1       7.509  47.146  53.867  1.00  0.00     0.011 A 
ATOM     22  C   UNL     1       8.581  46.323  51.869  1.00  0.00     0.036 A 
ATOM     23  C   UNL     1       8.778  47.430  54.400  1.00  0.00     0.001 A 
ATOM     24  C   UNL     1       9.848  46.595  52.379  1.00  0.00     0.019 A 
ATOM     25  C   UNL     1       9.941  47.156  53.661  1.00  0.00     0.002 A 
ENDBRANCH  14  17
ENDBRANCH  12  14
ENDBRANCH   1  12
TORSDOF 6
ENDMDL
MODEL 5
REMARK VINA RESULT:    -8.054      2.935      6.458
REMARK INTER + INTRA:         -11.637
REMARK INTER:                 -10.725
REMARK INTRA:                  -0.912
REMARK UNBOUND:                -0.758
REMARK SMILES CN(C)C[C@H](c1ccccc1)N(C)S(=O)(=O)c1csc2ccccc12
REMARK SMILES IDX 5 1 4 2 2 3 1 4 3 5 6 6 7 7 11 8 8 9 10 10 9 11 12 12 13 13
REMARK SMILES IDX 14 14 15 15 16 16 17 17 18 18 25 19 19 20 24 21 20 22 23 23
REMARK SMILES IDX 21 24 22 25
REMARK H PARENT
ROOT
ATOM      1  C   UNL     1       4.703  44.753  51.910  1.00  0.00     0.117 C 
ENDROOT
BRANCH   1   2
ATOM      2  C   UNL     1       4.849  46.144  52.597  1.00  0.00     0.109 C 
BRANCH   2   3
ATOM      3  N   UNL     1       5.209  46.003  54.028  1.00  0.00    -0.307 NA
ATOM      4  C   UNL     1       5.446  44.589  54.359  1.00  0.00     0.105 C 
ATOM      5  C   UNL     1       6.411  46.789  54.360  1.00  0.00     0.105 C 
ENDBRANCH   2   3
ENDBRANCH   1   2
BRANCH   1   6
ATOM      6  C   UNL     1       5.846  44.440  50.957  1.00  0.00    -0.028 A 
ATOM      7  C   UNL     1       5.912  43.226  50.240  1.00  0.00     0.005 A 
ATOM      8  C   UNL     1       6.909  45.355  50.834  1.00  0.00     0.005 A 
ATOM      9  C   UNL     1       6.997  42.960  49.398  1.00  0.00     0.000 A 
ATOM     10  C   UNL     1       7.990  45.082  49.992  1.00  0.00     0.000 A 
ATOM     11  C   UNL     1       8.033  43.886  49.273  1.00  0.00     0.000 A 
ENDBRANCH   1   6
BRANCH   1  12
ATOM     12  N   UNL     1       3.410  44.532  51.208  1.00  0.00    -0.192 NA
ATOM     13  C   UNL     1       2.471  45.663  51.227  1.00  0.00     0.125 C 
BRANCH  12  14
ATOM     14  S   UNL     1       2.609  43.054  51.698  1.00  0.00     0.244 S 
ATOM     15  O   UNL     1       2.333  42.210  50.484  1.00  0.00    -0.207 OA
ATOM     16  O   UNL     1       3.523  42.266  52.593  1.00  0.00    -0.207 OA
BRANCH  14  17
ATOM     17  C   UNL     1       1.069  43.375  52.505  1.00  0.00     0.101 A 
ATOM     18  C   UNL     1      -0.144  43.049  51.895  1.00  0.00     0.087 A 
ATOM     19  C   UNL     1       0.895  43.988  53.766  1.00  0.00     0.013 A 
ATOM     20  S   UNL     1      -1.418  43.520  52.896  1.00  0.00    -0.142 S 
ATOM     21  C   UNL     1       1.887  44.451  54.645  1.00  0.00     0.011 A 
ATOM     22  C   UNL     1      -0.443  44.135  54.112  1.00  0.00     0.036 A 
ATOM     23  C   UNL     1       1.502  45.052  55.855  1.00  0.00     0.001 A 
ATOM     24  C   UNL     1      -0.847  44.728  55.305  1.00  0.00     0.019 A 
ATOM     25  C   UNL     1       0.143  45.191  56.184  1.00  0.00     0.002 A 
ENDBRANCH  14  17
ENDBRANCH  12  14
ENDBRANCH   1  12
TORSDOF 6
ENDMDL
