ligand_97_conformer_5_docked
     RDKit          3D

 36 39  0  0  0  0  0  0  0  0999 V2000
    8.8900   44.1220   49.1040 O   0  0  0  0  0  0  0  0  0  0  0  0
    8.9860   44.7960   50.1660 C   0  0  0  0  0  0  0  0  0  0  0  0
   10.2430   44.9600   50.7520 C   0  0  0  0  0  0  0  0  0  0  0  0
   10.3690   45.7090   51.9190 C   0  0  0  0  0  0  0  0  0  0  0  0
    9.2350   46.2780   52.5080 C   0  0  0  0  0  0  0  0  0  0  0  0
    9.3580   47.0950   53.7310 C   0  0  0  0  0  0  0  0  0  0  0  0
    8.4370   47.9830   54.1520 N   0  0  0  0  0  0  0  0  0  0  0  0
    8.9140   48.5120   55.2680 N   0  0  0  0  0  0  0  0  0  0  0  0
   10.1070   47.9300   55.4890 C   0  0  0  0  0  0  0  0  0  0  0  0
   10.3840   47.0600   54.5480 O   0  0  0  0  0  0  0  0  0  0  0  0
    7.9860   46.0730   51.9050 C   0  0  0  0  0  0  0  0  0  0  0  0
    7.8740   45.3640   50.7370 N   0  0  0  0  0  0  0  0  0  0  0  0
    6.5560   45.2490   50.0890 C   0  0  0  0  0  0  0  0  0  0  0  0
    5.8060   44.0580   50.6210 C   0  0  0  0  0  0  0  0  0  0  0  0
    5.7190   42.8890   49.9570 N   0  0  0  0  0  0  0  0  0  0  0  0
    4.8590   42.1830   50.7240 C   0  0  0  0  0  0  0  0  0  0  0  0
    4.4260   42.8790   51.7920 N   0  0  0  0  0  0  0  0  0  0  0  0
    5.0320   44.0500   51.7250 N   0  0  0  0  0  0  0  0  0  0  0  0
    4.8150   45.1140   52.6600 C   0  0  0  0  0  0  0  0  0  0  0  0
    4.1530   46.2810   52.2510 C   0  0  0  0  0  0  0  0  0  0  0  0
    3.9710   47.3370   53.1500 C   0  0  0  0  0  0  0  0  0  0  0  0
    4.4330   47.2250   54.4640 C   0  0  0  0  0  0  0  0  0  0  0  0
    5.0730   46.0540   54.8840 C   0  0  0  0  0  0  0  0  0  0  0  0
    5.2610   44.9990   53.9860 C   0  0  0  0  0  0  0  0  0  0  0  0
   11.1303   44.4992   50.2933 H   0  0  0  0  0  0  0  0  0  0  0  0
   11.3587   45.8530   52.3770 H   0  0  0  0  0  0  0  0  0  0  0  0
   10.7617   48.1540   56.3441 H   0  0  0  0  0  0  0  0  0  0  0  0
    7.0824   46.4872   52.3761 H   0  0  0  0  0  0  0  0  0  0  0  0
    5.9743   46.1611   50.2885 H   0  0  0  0  0  0  0  0  0  0  0  0
    6.7032   45.1206   49.0065 H   0  0  0  0  0  0  0  0  0  0  0  0
    4.5469   41.1522   50.5001 H   0  0  0  0  0  0  0  0  0  0  0  0
    3.7762   46.3659   51.2211 H   0  0  0  0  0  0  0  0  0  0  0  0
    3.4637   48.2564   52.8223 H   0  0  0  0  0  0  0  0  0  0  0  0
    4.2934   48.0581   55.1686 H   0  0  0  0  0  0  0  0  0  0  0  0
    5.4284   45.9633   55.9210 H   0  0  0  0  0  0  0  0  0  0  0  0
    5.7595   44.0768   54.3193 H   0  0  0  0  0  0  0  0  0  0  0  0
  1  2  2  0
  2  3  1  0
  3  4  2  0
  4  5  1  0
  5  6  1  0
  6  7  2  0
  7  8  1  0
  8  9  2  0
  9 10  1  0
  5 11  2  0
 11 12  1  0
 12 13  1  0
 13 14  1  0
 14 15  2  0
 15 16  1  0
 16 17  2  0
 17 18  1  0
 18 19  1  0
 19 20  2  0
 20 21  1  0
 21 22  2  0
 22 23  1  0
 23 24  2  0
 12  2  1  0
 18 14  1  0
 24 19  1  0
 10  6  1  0
  3 25  1  0
  4 26  1  0
  9 27  1  0
 11 28  1  0
 13 29  1  0
 13 30  1  0
 16 31  1  0
 20 32  1  0
 21 33  1  0
 22 34  1  0
 23 35  1  0
 24 36  1  0
M  END
>  <meeko>  (1) 
{"is_sidechain": [false], "free_energy": -9.058, "intermolecular_energy": -11.177, "internal_energy": -0.788}

$$$$
ligand_97_conformer_5_docked
     RDKit          3D

 36 39  0  0  0  0  0  0  0  0999 V2000
    4.6500   45.6410   50.2870 O   0  0  0  0  0  0  0  0  0  0  0  0
    5.5340   45.9650   51.1250 C   0  0  0  0  0  0  0  0  0  0  0  0
    6.8720   45.6750   50.8450 C   0  0  0  0  0  0  0  0  0  0  0  0
    7.8620   46.0340   51.7550 C   0  0  0  0  0  0  0  0  0  0  0  0
    7.5130   46.6680   52.9520 C   0  0  0  0  0  0  0  0  0  0  0  0
    8.5560   47.0770   53.9140 C   0  0  0  0  0  0  0  0  0  0  0  0
    8.3790   47.9890   54.8880 N   0  0  0  0  0  0  0  0  0  0  0  0
    9.5370   48.0820   55.5230 N   0  0  0  0  0  0  0  0  0  0  0  0
   10.3780   47.2250   54.9150 C   0  0  0  0  0  0  0  0  0  0  0  0
    9.7800   46.6060   53.9260 O   0  0  0  0  0  0  0  0  0  0  0  0
    6.1580   46.9230   53.2110 C   0  0  0  0  0  0  0  0  0  0  0  0
    5.1920   46.5970   52.2950 N   0  0  0  0  0  0  0  0  0  0  0  0
    3.7910   46.9650   52.5660 C   0  0  0  0  0  0  0  0  0  0  0  0
    3.2810   46.2410   53.7840 C   0  0  0  0  0  0  0  0  0  0  0  0
    3.2790   46.7870   55.0150 N   0  0  0  0  0  0  0  0  0  0  0  0
    2.8780   45.7550   55.7890 C   0  0  0  0  0  0  0  0  0  0  0  0
    2.6580   44.6310   55.0810 N   0  0  0  0  0  0  0  0  0  0  0  0
    2.9040   44.9470   53.8240 N   0  0  0  0  0  0  0  0  0  0  0  0
    2.8280   44.0140   52.7390 C   0  0  0  0  0  0  0  0  0  0  0  0
    1.6960   43.9950   51.9100 C   0  0  0  0  0  0  0  0  0  0  0  0
    1.6020   43.0610   50.8730 C   0  0  0  0  0  0  0  0  0  0  0  0
    2.6420   42.1550   50.6490 C   0  0  0  0  0  0  0  0  0  0  0  0
    3.7820   42.1860   51.4580 C   0  0  0  0  0  0  0  0  0  0  0  0
    3.8780   43.1150   52.4990 C   0  0  0  0  0  0  0  0  0  0  0  0
    7.1419   45.1647   49.9086 H   0  0  0  0  0  0  0  0  0  0  0  0
    8.9178   45.8194   51.5331 H   0  0  0  0  0  0  0  0  0  0  0  0
   11.4261   47.0654   55.2084 H   0  0  0  0  0  0  0  0  0  0  0  0
    5.8667   47.3912   54.1628 H   0  0  0  0  0  0  0  0  0  0  0  0
    3.7284   48.0498   52.7372 H   0  0  0  0  0  0  0  0  0  0  0  0
    3.1750   46.6813   51.6999 H   0  0  0  0  0  0  0  0  0  0  0  0
    2.7456   45.8252   56.8787 H   0  0  0  0  0  0  0  0  0  0  0  0
    0.8815   44.7155   52.0758 H   0  0  0  0  0  0  0  0  0  0  0  0
    0.7078   43.0397   50.2327 H   0  0  0  0  0  0  0  0  0  0  0  0
    2.5639   41.4176   49.8365 H   0  0  0  0  0  0  0  0  0  0  0  0
    4.6045   41.4787   51.2754 H   0  0  0  0  0  0  0  0  0  0  0  0
    4.7782   43.1409   53.1306 H   0  0  0  0  0  0  0  0  0  0  0  0
  1  2  2  0
  2  3  1  0
  3  4  2  0
  4  5  1  0
  5  6  1  0
  6  7  2  0
  7  8  1  0
  8  9  2  0
  9 10  1  0
  5 11  2  0
 11 12  1  0
 12 13  1  0
 13 14  1  0
 14 15  2  0
 15 16  1  0
 16 17  2  0
 17 18  1  0
 18 19  1  0
 19 20  2  0
 20 21  1  0
 21 22  2  0
 22 23  1  0
 23 24  2  0
 12  2  1  0
 18 14  1  0
 24 19  1  0
 10  6  1  0
  3 25  1  0
  4 26  1  0
  9 27  1  0
 11 28  1  0
 13 29  1  0
 13 30  1  0
 16 31  1  0
 20 32  1  0
 21 33  1  0
 22 34  1  0
 23 35  1  0
 24 36  1  0
M  END
>  <meeko>  (2) 
{"is_sidechain": [false], "free_energy": -8.634, "intermolecular_energy": -10.419, "internal_energy": -1.022}

$$$$
ligand_97_conformer_5_docked
     RDKit          3D

 36 39  0  0  0  0  0  0  0  0999 V2000
    6.5870   43.9220   50.2900 O   0  0  0  0  0  0  0  0  0  0  0  0
    5.4240   43.6850   50.7180 C   0  0  0  0  0  0  0  0  0  0  0  0
    4.9500   42.3710   50.6990 C   0  0  0  0  0  0  0  0  0  0  0  0
    3.6740   42.0900   51.1760 C   0  0  0  0  0  0  0  0  0  0  0  0
    2.8650   43.1250   51.6560 C   0  0  0  0  0  0  0  0  0  0  0  0
    1.5180   42.8360   52.1880 C   0  0  0  0  0  0  0  0  0  0  0  0
    1.2610   42.4870   53.4630 N   0  0  0  0  0  0  0  0  0  0  0  0
   -0.0490   42.3070   53.5410 N   0  0  0  0  0  0  0  0  0  0  0  0
   -0.5430   42.5520   52.3130 C   0  0  0  0  0  0  0  0  0  0  0  0
    0.4150   42.8770   51.4790 O   0  0  0  0  0  0  0  0  0  0  0  0
    3.3640   44.4350   51.6390 C   0  0  0  0  0  0  0  0  0  0  0  0
    4.6350   44.7000   51.1990 N   0  0  0  0  0  0  0  0  0  0  0  0
    5.1520   46.0770   51.2830 C   0  0  0  0  0  0  0  0  0  0  0  0
    5.0550   46.5940   52.6930 C   0  0  0  0  0  0  0  0  0  0  0  0
    3.8820   46.8840   53.2900 N   0  0  0  0  0  0  0  0  0  0  0  0
    4.2780   47.4330   54.4590 C   0  0  0  0  0  0  0  0  0  0  0  0
    5.6190   47.4930   54.5740 N   0  0  0  0  0  0  0  0  0  0  0  0
    6.0980   46.9560   53.4680 N   0  0  0  0  0  0  0  0  0  0  0  0
    7.4960   46.8620   53.1690 C   0  0  0  0  0  0  0  0  0  0  0  0
    8.4430   47.0660   54.1830 C   0  0  0  0  0  0  0  0  0  0  0  0
    9.8100   47.0120   53.8890 C   0  0  0  0  0  0  0  0  0  0  0  0
   10.2350   46.7380   52.5860 C   0  0  0  0  0  0  0  0  0  0  0  0
    9.2940   46.5100   51.5770 C   0  0  0  0  0  0  0  0  0  0  0  0
    7.9270   46.5690   51.8670 C   0  0  0  0  0  0  0  0  0  0  0  0
    5.5837   41.5613   50.3081 H   0  0  0  0  0  0  0  0  0  0  0  0
    3.3016   41.0550   51.1757 H   0  0  0  0  0  0  0  0  0  0  0  0
   -1.6080   42.4881   52.0451 H   0  0  0  0  0  0  0  0  0  0  0  0
    2.7263   45.2623   51.9838 H   0  0  0  0  0  0  0  0  0  0  0  0
    6.2052   46.0877   50.9657 H   0  0  0  0  0  0  0  0  0  0  0  0
    4.5502   46.7225   50.6264 H   0  0  0  0  0  0  0  0  0  0  0  0
    3.5822   47.7916   55.2319 H   0  0  0  0  0  0  0  0  0  0  0  0
    8.1105   47.2689   55.2117 H   0  0  0  0  0  0  0  0  0  0  0  0
   10.5505   47.1853   54.6838 H   0  0  0  0  0  0  0  0  0  0  0  0
   11.3097   46.7017   52.3542 H   0  0  0  0  0  0  0  0  0  0  0  0
    9.6293   46.2840   50.5540 H   0  0  0  0  0  0  0  0  0  0  0  0
    7.1887   46.3853   51.0725 H   0  0  0  0  0  0  0  0  0  0  0  0
  1  2  2  0
  2  3  1  0
  3  4  2  0
  4  5  1  0
  5  6  1  0
  6  7  2  0
  7  8  1  0
  8  9  2  0
  9 10  1  0
  5 11  2  0
 11 12  1  0
 12 13  1  0
 13 14  1  0
 14 15  2  0
 15 16  1  0
 16 17  2  0
 17 18  1  0
 18 19  1  0
 19 20  2  0
 20 21  1  0
 21 22  2  0
 22 23  1  0
 23 24  2  0
 12  2  1  0
 18 14  1  0
 24 19  1  0
 10  6  1  0
  3 25  1  0
  4 26  1  0
  9 27  1  0
 11 28  1  0
 13 29  1  0
 13 30  1  0
 16 31  1  0
 20 32  1  0
 21 33  1  0
 22 34  1  0
 23 35  1  0
 24 36  1  0
M  END
>  <meeko>  (3) 
{"is_sidechain": [false], "free_energy": -8.588, "intermolecular_energy": -11.715, "internal_energy": 0.331}

$$$$
ligand_97_conformer_5_docked
     RDKit          3D

 36 39  0  0  0  0  0  0  0  0999 V2000
    2.4910   46.3750   52.8170 O   0  0  0  0  0  0  0  0  0  0  0  0
    3.7200   46.5160   53.0580 C   0  0  0  0  0  0  0  0  0  0  0  0
    4.1120   47.0420   54.2920 C   0  0  0  0  0  0  0  0  0  0  0  0
    5.4650   47.1960   54.5800 C   0  0  0  0  0  0  0  0  0  0  0  0
    6.4250   46.8400   53.6280 C   0  0  0  0  0  0  0  0  0  0  0  0
    7.8640   46.9740   53.9300 C   0  0  0  0  0  0  0  0  0  0  0  0
    8.3630   47.6730   54.9680 N   0  0  0  0  0  0  0  0  0  0  0  0
    9.6800   47.5600   54.8910 N   0  0  0  0  0  0  0  0  0  0  0  0
    9.9380   46.8000   53.8110 C   0  0  0  0  0  0  0  0  0  0  0  0
    8.8260   46.4380   53.2180 O   0  0  0  0  0  0  0  0  0  0  0  0
    5.9960   46.3370   52.3910 C   0  0  0  0  0  0  0  0  0  0  0  0
    4.6630   46.1560   52.1280 N   0  0  0  0  0  0  0  0  0  0  0  0
    4.2600   45.5390   50.8520 C   0  0  0  0  0  0  0  0  0  0  0  0
    4.6890   44.0980   50.8010 C   0  0  0  0  0  0  0  0  0  0  0  0
    5.8580   43.6980   50.2650 N   0  0  0  0  0  0  0  0  0  0  0  0
    5.7540   42.3520   50.3110 C   0  0  0  0  0  0  0  0  0  0  0  0
    4.5820   41.9410   50.8320 N   0  0  0  0  0  0  0  0  0  0  0  0
    3.9250   43.0410   51.1460 N   0  0  0  0  0  0  0  0  0  0  0  0
    2.6020   43.0480   51.6960 C   0  0  0  0  0  0  0  0  0  0  0  0
    1.4900   43.1200   50.8430 C   0  0  0  0  0  0  0  0  0  0  0  0
    0.1980   43.1640   51.3770 C   0  0  0  0  0  0  0  0  0  0  0  0
    0.0100   43.1210   52.7610 C   0  0  0  0  0  0  0  0  0  0  0  0
    1.1140   43.0270   53.6140 C   0  0  0  0  0  0  0  0  0  0  0  0
    2.4070   42.9870   53.0840 C   0  0  0  0  0  0  0  0  0  0  0  0
    3.3535   47.3334   55.0335 H   0  0  0  0  0  0  0  0  0  0  0  0
    5.7785   47.5972   55.5551 H   0  0  0  0  0  0  0  0  0  0  0  0
   10.9461   46.5201   53.4713 H   0  0  0  0  0  0  0  0  0  0  0  0
    6.7398   46.0842   51.6210 H   0  0  0  0  0  0  0  0  0  0  0  0
    3.1658   45.5940   50.7537 H   0  0  0  0  0  0  0  0  0  0  0  0
    4.7443   46.0823   50.0272 H   0  0  0  0  0  0  0  0  0  0  0  0
    6.5402   41.6668   49.9613 H   0  0  0  0  0  0  0  0  0  0  0  0
    1.6347   43.1419   49.7528 H   0  0  0  0  0  0  0  0  0  0  0  0
   -0.6713   43.2326   50.7065 H   0  0  0  0  0  0  0  0  0  0  0  0
   -1.0065   43.1611   53.1795 H   0  0  0  0  0  0  0  0  0  0  0  0
    0.9650   42.9845   54.7030 H   0  0  0  0  0  0  0  0  0  0  0  0
    3.2736   42.9075   53.7569 H   0  0  0  0  0  0  0  0  0  0  0  0
  1  2  2  0
  2  3  1  0
  3  4  2  0
  4  5  1  0
  5  6  1  0
  6  7  2  0
  7  8  1  0
  8  9  2  0
  9 10  1  0
  5 11  2  0
 11 12  1  0
 12 13  1  0
 13 14  1  0
 14 15  2  0
 15 16  1  0
 16 17  2  0
 17 18  1  0
 18 19  1  0
 19 20  2  0
 20 21  1  0
 21 22  2  0
 22 23  1  0
 23 24  2  0
 12  2  1  0
 18 14  1  0
 24 19  1  0
 10  6  1  0
  3 25  1  0
  4 26  1  0
  9 27  1  0
 11 28  1  0
 13 29  1  0
 13 30  1  0
 16 31  1  0
 20 32  1  0
 21 33  1  0
 22 34  1  0
 23 35  1  0
 24 36  1  0
M  END
>  <meeko>  (4) 
{"is_sidechain": [false], "free_energy": -8.382, "intermolecular_energy": -10.185, "internal_energy": -0.945}

$$$$
ligand_97_conformer_5_docked
     RDKit          3D

 36 39  0  0  0  0  0  0  0  0999 V2000
    1.6750   42.3070   51.7200 O   0  0  0  0  0  0  0  0  0  0  0  0
    2.8290   42.6580   51.3550 C   0  0  0  0  0  0  0  0  0  0  0  0
    3.7090   41.6880   50.8680 C   0  0  0  0  0  0  0  0  0  0  0  0
    4.9840   42.0590   50.4500 C   0  0  0  0  0  0  0  0  0  0  0  0
    5.3850   43.3960   50.5370 C   0  0  0  0  0  0  0  0  0  0  0  0
    6.7260   43.8060   50.0740 C   0  0  0  0  0  0  0  0  0  0  0  0
    7.5220   43.0600   49.2850 N   0  0  0  0  0  0  0  0  0  0  0  0
    8.6290   43.7630   49.1040 N   0  0  0  0  0  0  0  0  0  0  0  0
    8.4700   44.9110   49.7880 C   0  0  0  0  0  0  0  0  0  0  0  0
    7.3040   44.9420   50.3850 O   0  0  0  0  0  0  0  0  0  0  0  0
    4.4840   44.3390   51.0530 C   0  0  0  0  0  0  0  0  0  0  0  0
    3.2190   43.9730   51.4290 N   0  0  0  0  0  0  0  0  0  0  0  0
    2.2740   45.0100   51.8800 C   0  0  0  0  0  0  0  0  0  0  0  0
    2.1430   44.9910   53.3790 C   0  0  0  0  0  0  0  0  0  0  0  0
    0.9920   44.6930   54.0120 N   0  0  0  0  0  0  0  0  0  0  0  0
    1.3010   44.9330   55.3050 C   0  0  0  0  0  0  0  0  0  0  0  0
    2.5650   45.3690   55.4640 N   0  0  0  0  0  0  0  0  0  0  0  0
    3.0890   45.3930   54.2520 N   0  0  0  0  0  0  0  0  0  0  0  0
    4.4200   45.8410   53.9700 C   0  0  0  0  0  0  0  0  0  0  0  0
    4.6260   47.1010   53.3880 C   0  0  0  0  0  0  0  0  0  0  0  0
    5.9210   47.5280   53.0760 C   0  0  0  0  0  0  0  0  0  0  0  0
    7.0160   46.7070   53.3590 C   0  0  0  0  0  0  0  0  0  0  0  0
    6.8180   45.4590   53.9600 C   0  0  0  0  0  0  0  0  0  0  0  0
    5.5240   45.0280   54.2690 C   0  0  0  0  0  0  0  0  0  0  0  0
    3.3954   40.6350   50.8151 H   0  0  0  0  0  0  0  0  0  0  0  0
    5.6752   41.3015   50.0518 H   0  0  0  0  0  0  0  0  0  0  0  0
    9.2185   45.7154   49.8391 H   0  0  0  0  0  0  0  0  0  0  0  0
    4.7981   45.3880   51.1572 H   0  0  0  0  0  0  0  0  0  0  0  0
    2.6411   45.9968   51.5616 H   0  0  0  0  0  0  0  0  0  0  0  0
    1.2882   44.8092   51.4352 H   0  0  0  0  0  0  0  0  0  0  0  0
    0.5967   44.7880   56.1374 H   0  0  0  0  0  0  0  0  0  0  0  0
    3.7669   47.7547   53.1765 H   0  0  0  0  0  0  0  0  0  0  0  0
    6.0776   48.5108   52.6075 H   0  0  0  0  0  0  0  0  0  0  0  0
    8.0336   47.0419   53.1093 H   0  0  0  0  0  0  0  0  0  0  0  0
    7.6808   44.8165   54.1896 H   0  0  0  0  0  0  0  0  0  0  0  0
    5.3712   44.0494   54.7476 H   0  0  0  0  0  0  0  0  0  0  0  0
  1  2  2  0
  2  3  1  0
  3  4  2  0
  4  5  1  0
  5  6  1  0
  6  7  2  0
  7  8  1  0
  8  9  2  0
  9 10  1  0
  5 11  2  0
 11 12  1  0
 12 13  1  0
 13 14  1  0
 14 15  2  0
 15 16  1  0
 16 17  2  0
 17 18  1  0
 18 19  1  0
 19 20  2  0
 20 21  1  0
 21 22  2  0
 22 23  1  0
 23 24  2  0
 12  2  1  0
 18 14  1  0
 24 19  1  0
 10  6  1  0
  3 25  1  0
  4 26  1  0
  9 27  1  0
 11 28  1  0
 13 29  1  0
 13 30  1  0
 16 31  1  0
 20 32  1  0
 21 33  1  0
 22 34  1  0
 23 35  1  0
 24 36  1  0
M  END
>  <meeko>  (5) 
{"is_sidechain": [false], "free_energy": -7.921, "intermolecular_energy": -9.878, "internal_energy": -0.684}

$$$$
