ligand_86_conformer_5_docked
     RDKit          3D

 44 47  0  0  0  0  0  0  0  0999 V2000
    8.1880   44.9210   49.2990 O   0  0  0  0  0  0  0  0  0  0  0  0
    7.3930   45.0110   50.2740 C   0  0  0  0  0  0  0  0  0  0  0  0
    7.4860   46.1330   51.1660 N   0  0  0  0  0  0  0  0  0  0  0  0
    8.6770   46.9920   51.2170 C   0  0  0  0  0  0  0  0  0  0  0  0
    9.8230   46.2650   51.9360 C   0  0  0  0  0  0  0  0  0  0  0  0
    9.5110   46.0730   53.4380 C   0  0  0  0  0  0  0  0  0  0  0  0
    8.3980   46.8320   53.8850 O   0  0  0  0  0  0  0  0  0  0  0  0
    8.5300   48.1800   53.4760 C   0  0  0  0  0  0  0  0  0  0  0  0
    8.3680   48.3170   51.9490 C   0  0  0  0  0  0  0  0  0  0  0  0
    6.3690   43.9590   50.4780 C   0  0  0  0  0  0  0  0  0  0  0  0
    6.4940   42.7140   49.8430 C   0  0  0  0  0  0  0  0  0  0  0  0
    5.5590   41.7490   50.0370 N   0  0  0  0  0  0  0  0  0  0  0  0
    4.4830   41.9400   50.8450 C   0  0  0  0  0  0  0  0  0  0  0  0
    4.3120   43.1590   51.5200 C   0  0  0  0  0  0  0  0  0  0  0  0
    3.1510   43.3740   52.4200 C   0  0  0  0  0  0  0  0  0  0  0  0
    1.9560   42.6300   52.2410 C   0  0  0  0  0  0  0  0  0  0  0  0
    0.8550   42.8320   53.0900 C   0  0  0  0  0  0  0  0  0  0  0  0
    0.9680   43.7770   54.1050 C   0  0  0  0  0  0  0  0  0  0  0  0
    2.1090   44.4990   54.2890 C   0  0  0  0  0  0  0  0  0  0  0  0
    3.2210   44.3230   53.4660 C   0  0  0  0  0  0  0  0  0  0  0  0
    1.9440   45.4210   55.4430 C   0  0  0  0  0  0  0  0  0  0  0  0
    0.4970   45.1210   55.9090 C   0  0  0  0  0  0  0  0  0  0  0  0
    0.0040   44.1110   55.0300 O   0  0  0  0  0  0  0  0  0  0  0  0
    5.2710   44.1690   51.3280 C   0  0  0  0  0  0  0  0  0  0  0  0
    6.6650   46.3610   51.7710 H   0  0  0  0  0  0  0  0  0  0  0  0
    8.9781   47.2201   50.1839 H   0  0  0  0  0  0  0  0  0  0  0  0
    9.9692   45.2787   51.4714 H   0  0  0  0  0  0  0  0  0  0  0  0
   10.7331   46.8762   51.8456 H   0  0  0  0  0  0  0  0  0  0  0  0
    9.3011   45.0081   53.6170 H   0  0  0  0  0  0  0  0  0  0  0  0
   10.3895   46.4243   53.9992 H   0  0  0  0  0  0  0  0  0  0  0  0
    7.7573   48.7836   53.9745 H   0  0  0  0  0  0  0  0  0  0  0  0
    9.5349   48.5315   53.7529 H   0  0  0  0  0  0  0  0  0  0  0  0
    7.3324   48.6135   51.7262 H   0  0  0  0  0  0  0  0  0  0  0  0
    9.0817   49.0762   51.5967 H   0  0  0  0  0  0  0  0  0  0  0  0
    7.3536   42.5190   49.1849 H   0  0  0  0  0  0  0  0  0  0  0  0
    3.7429   41.1360   50.9706 H   0  0  0  0  0  0  0  0  0  0  0  0
    1.8911   41.8889   51.4307 H   0  0  0  0  0  0  0  0  0  0  0  0
   -0.0733   42.2574   52.9557 H   0  0  0  0  0  0  0  0  0  0  0  0
    4.1360   44.9118   53.6276 H   0  0  0  0  0  0  0  0  0  0  0  0
    2.6716   45.1977   56.2372 H   0  0  0  0  0  0  0  0  0  0  0  0
    2.1117   46.4776   55.1871 H   0  0  0  0  0  0  0  0  0  0  0  0
    0.4971   44.7577   56.9473 H   0  0  0  0  0  0  0  0  0  0  0  0
   -0.1316   46.0232   55.8801 H   0  0  0  0  0  0  0  0  0  0  0  0
    5.1603   45.1320   51.8480 H   0  0  0  0  0  0  0  0  0  0  0  0
  1  2  2  0
  2  3  1  0
  3  4  1  0
  4  5  1  0
  5  6  1  0
  6  7  1  0
  7  8  1  0
  8  9  1  0
  2 10  1  0
 10 11  2  0
 11 12  1  0
 12 13  2  0
 13 14  1  0
 14 15  1  0
 15 16  2  0
 16 17  1  0
 17 18  2  0
 18 19  1  0
 19 20  2  0
 19 21  1  0
 21 22  1  0
 22 23  1  0
 14 24  2  0
  9  4  1  0
 24 10  1  0
 20 15  1  0
 23 18  1  0
  3 25  1  0
  4 26  1  0
  5 27  1  0
  5 28  1  0
  6 29  1  0
  6 30  1  0
  8 31  1  0
  8 32  1  0
  9 33  1  0
  9 34  1  0
 11 35  1  0
 13 36  1  0
 16 37  1  0
 17 38  1  0
 20 39  1  0
 21 40  1  0
 21 41  1  0
 22 42  1  0
 22 43  1  0
 24 44  1  0
M  END
>  <meeko>  (1) 
{"is_sidechain": [false], "free_energy": -8.966, "intermolecular_energy": -10.539, "internal_energy": -0.71}

$$$$
ligand_86_conformer_5_docked
     RDKit          3D

 44 47  0  0  0  0  0  0  0  0999 V2000
    5.2800   47.5360   53.2420 O   0  0  0  0  0  0  0  0  0  0  0  0
    5.8230   46.4750   52.8310 C   0  0  0  0  0  0  0  0  0  0  0  0
    7.2490   46.4270   52.6600 N   0  0  0  0  0  0  0  0  0  0  0  0
    8.0690   47.6440   52.5950 C   0  0  0  0  0  0  0  0  0  0  0  0
    9.1830   47.4750   51.5510 C   0  0  0  0  0  0  0  0  0  0  0  0
   10.2210   46.4210   52.0030 C   0  0  0  0  0  0  0  0  0  0  0  0
   10.0890   46.0500   53.3670 O   0  0  0  0  0  0  0  0  0  0  0  0
   10.0220   47.2030   54.1830 C   0  0  0  0  0  0  0  0  0  0  0  0
    8.6950   47.9590   53.9700 C   0  0  0  0  0  0  0  0  0  0  0  0
    4.9820   45.2920   52.5380 C   0  0  0  0  0  0  0  0  0  0  0  0
    5.4480   44.2830   51.6810 C   0  0  0  0  0  0  0  0  0  0  0  0
    4.6790   43.1950   51.4200 N   0  0  0  0  0  0  0  0  0  0  0  0
    3.4470   43.0340   51.9710 C   0  0  0  0  0  0  0  0  0  0  0  0
    2.9330   44.0020   52.8490 C   0  0  0  0  0  0  0  0  0  0  0  0
    1.5970   43.8290   53.4730 C   0  0  0  0  0  0  0  0  0  0  0  0
    0.6800   42.8770   52.9570 C   0  0  0  0  0  0  0  0  0  0  0  0
   -0.5850   42.7120   53.5440 C   0  0  0  0  0  0  0  0  0  0  0  0
   -0.9130   43.5030   54.6400 C   0  0  0  0  0  0  0  0  0  0  0  0
   -0.0430   44.4210   55.1480 C   0  0  0  0  0  0  0  0  0  0  0  0
    1.2210   44.6100   54.5910 C   0  0  0  0  0  0  0  0  0  0  0  0
   -0.6580   45.1100   56.3130 C   0  0  0  0  0  0  0  0  0  0  0  0
   -2.0510   44.4410   56.4040 C   0  0  0  0  0  0  0  0  0  0  0  0
   -2.0960   43.4850   55.3450 O   0  0  0  0  0  0  0  0  0  0  0  0
    3.7170   45.1340   53.1280 C   0  0  0  0  0  0  0  0  0  0  0  0
    7.7160   45.4930   52.6160 H   0  0  0  0  0  0  0  0  0  0  0  0
    7.4167   48.4806   52.3039 H   0  0  0  0  0  0  0  0  0  0  0  0
    8.7361   47.1526   50.5990 H   0  0  0  0  0  0  0  0  0  0  0  0
    9.6971   48.4402   51.4322 H   0  0  0  0  0  0  0  0  0  0  0  0
   10.0969   45.5209   51.3830 H   0  0  0  0  0  0  0  0  0  0  0  0
   11.2167   46.8732   51.8838 H   0  0  0  0  0  0  0  0  0  0  0  0
   10.0979   46.9011   55.2380 H   0  0  0  0  0  0  0  0  0  0  0  0
   10.8520   47.8716   53.9109 H   0  0  0  0  0  0  0  0  0  0  0  0
    7.9872   47.6648   54.7590 H   0  0  0  0  0  0  0  0  0  0  0  0
    8.9064   49.0378   54.0099 H   0  0  0  0  0  0  0  0  0  0  0  0
    6.4417   44.3742   51.2182 H   0  0  0  0  0  0  0  0  0  0  0  0
    2.8504   42.1423   51.7283 H   0  0  0  0  0  0  0  0  0  0  0  0
    0.9626   42.2627   52.0894 H   0  0  0  0  0  0  0  0  0  0  0  0
   -1.2989   41.9754   53.1468 H   0  0  0  0  0  0  0  0  0  0  0  0
    1.9135   45.3531   55.0133 H   0  0  0  0  0  0  0  0  0  0  0  0
   -0.0744   44.9383   57.2294 H   0  0  0  0  0  0  0  0  0  0  0  0
   -0.7041   46.2033   56.2005 H   0  0  0  0  0  0  0  0  0  0  0  0
   -2.1725   43.9410   57.3762 H   0  0  0  0  0  0  0  0  0  0  0  0
   -2.8606   45.1804   56.3152 H   0  0  0  0  0  0  0  0  0  0  0  0
    3.3365   45.9041   53.8152 H   0  0  0  0  0  0  0  0  0  0  0  0
  1  2  2  0
  2  3  1  0
  3  4  1  0
  4  5  1  0
  5  6  1  0
  6  7  1  0
  7  8  1  0
  8  9  1  0
  2 10  1  0
 10 11  2  0
 11 12  1  0
 12 13  2  0
 13 14  1  0
 14 15  1  0
 15 16  2  0
 16 17  1  0
 17 18  2  0
 18 19  1  0
 19 20  2  0
 19 21  1  0
 21 22  1  0
 22 23  1  0
 14 24  2  0
  9  4  1  0
 24 10  1  0
 20 15  1  0
 23 18  1  0
  3 25  1  0
  4 26  1  0
  5 27  1  0
  5 28  1  0
  6 29  1  0
  6 30  1  0
  8 31  1  0
  8 32  1  0
  9 33  1  0
  9 34  1  0
 11 35  1  0
 13 36  1  0
 16 37  1  0
 17 38  1  0
 20 39  1  0
 21 40  1  0
 21 41  1  0
 22 42  1  0
 22 43  1  0
 24 44  1  0
M  END
>  <meeko>  (2) 
{"is_sidechain": [false], "free_energy": -8.459, "intermolecular_energy": -10.046, "internal_energy": -0.606}

$$$$
ligand_86_conformer_5_docked
     RDKit          3D

 44 47  0  0  0  0  0  0  0  0999 V2000
    5.9800   47.5920   54.9380 O   0  0  0  0  0  0  0  0  0  0  0  0
    6.1190   46.5580   54.2290 C   0  0  0  0  0  0  0  0  0  0  0  0
    7.4220   46.2010   53.7410 N   0  0  0  0  0  0  0  0  0  0  0  0
    8.5360   47.1570   53.7210 C   0  0  0  0  0  0  0  0  0  0  0  0
    8.3520   48.1580   52.5700 C   0  0  0  0  0  0  0  0  0  0  0  0
    8.5070   47.4670   51.1950 C   0  0  0  0  0  0  0  0  0  0  0  0
    9.0490   46.1580   51.2800 O   0  0  0  0  0  0  0  0  0  0  0  0
   10.2200   46.1650   52.0730 C   0  0  0  0  0  0  0  0  0  0  0  0
    9.8860   46.4250   53.5550 C   0  0  0  0  0  0  0  0  0  0  0  0
    4.9350   45.7240   53.9180 C   0  0  0  0  0  0  0  0  0  0  0  0
    4.9530   44.8460   52.8230 C   0  0  0  0  0  0  0  0  0  0  0  0
    3.8700   44.0760   52.5430 N   0  0  0  0  0  0  0  0  0  0  0  0
    2.7430   44.1160   53.3010 C   0  0  0  0  0  0  0  0  0  0  0  0
    2.6700   44.9630   54.4190 C   0  0  0  0  0  0  0  0  0  0  0  0
    1.4520   45.0020   55.2660 C   0  0  0  0  0  0  0  0  0  0  0  0
    1.4690   45.6650   56.5200 C   0  0  0  0  0  0  0  0  0  0  0  0
    0.3180   45.7020   57.3250 C   0  0  0  0  0  0  0  0  0  0  0  0
   -0.8330   45.0740   56.8610 C   0  0  0  0  0  0  0  0  0  0  0  0
   -0.8650   44.4330   55.6580 C   0  0  0  0  0  0  0  0  0  0  0  0
    0.2580   44.3770   54.8340 C   0  0  0  0  0  0  0  0  0  0  0  0
   -2.2180   43.8640   55.4240 C   0  0  0  0  0  0  0  0  0  0  0  0
   -2.9840   44.2770   56.7050 C   0  0  0  0  0  0  0  0  0  0  0  0
   -2.0500   45.0050   57.5020 O   0  0  0  0  0  0  0  0  0  0  0  0
    3.7830   45.7670   54.7200 C   0  0  0  0  0  0  0  0  0  0  0  0
    7.5850   45.2180   53.4240 H   0  0  0  0  0  0  0  0  0  0  0  0
    8.5412   47.6958   54.6800 H   0  0  0  0  0  0  0  0  0  0  0  0
    7.3474   48.6009   52.6373 H   0  0  0  0  0  0  0  0  0  0  0  0
    9.1261   48.9346   52.6578 H   0  0  0  0  0  0  0  0  0  0  0  0
    7.5156   47.4039   50.7227 H   0  0  0  0  0  0  0  0  0  0  0  0
    9.2108   48.0723   50.6049 H   0  0  0  0  0  0  0  0  0  0  0  0
   10.7202   45.1894   51.9834 H   0  0  0  0  0  0  0  0  0  0  0  0
   10.8779   46.9714   51.7168 H   0  0  0  0  0  0  0  0  0  0  0  0
    9.8352   45.4611   54.0826 H   0  0  0  0  0  0  0  0  0  0  0  0
   10.6753   47.0657   53.9752 H   0  0  0  0  0  0  0  0  0  0  0  0
    5.8491   44.7813   52.1883 H   0  0  0  0  0  0  0  0  0  0  0  0
    1.8836   43.4819   53.0377 H   0  0  0  0  0  0  0  0  0  0  0  0
    2.3916   46.1545   56.8653 H   0  0  0  0  0  0  0  0  0  0  0  0
    0.3270   46.2149   58.2981 H   0  0  0  0  0  0  0  0  0  0  0  0
    0.2169   43.8566   53.8658 H   0  0  0  0  0  0  0  0  0  0  0  0
   -2.6819   44.2988   54.5263 H   0  0  0  0  0  0  0  0  0  0  0  0
   -2.2117   42.7781   55.2488 H   0  0  0  0  0  0  0  0  0  0  0  0
   -3.8446   44.9122   56.4481 H   0  0  0  0  0  0  0  0  0  0  0  0
   -3.3756   43.4003   57.2416 H   0  0  0  0  0  0  0  0  0  0  0  0
    3.7513   46.4364   55.5923 H   0  0  0  0  0  0  0  0  0  0  0  0
  1  2  2  0
  2  3  1  0
  3  4  1  0
  4  5  1  0
  5  6  1  0
  6  7  1  0
  7  8  1  0
  8  9  1  0
  2 10  1  0
 10 11  2  0
 11 12  1  0
 12 13  2  0
 13 14  1  0
 14 15  1  0
 15 16  2  0
 16 17  1  0
 17 18  2  0
 18 19  1  0
 19 20  2  0
 19 21  1  0
 21 22  1  0
 22 23  1  0
 14 24  2  0
  9  4  1  0
 24 10  1  0
 20 15  1  0
 23 18  1  0
  3 25  1  0
  4 26  1  0
  5 27  1  0
  5 28  1  0
  6 29  1  0
  6 30  1  0
  8 31  1  0
  8 32  1  0
  9 33  1  0
  9 34  1  0
 11 35  1  0
 13 36  1  0
 16 37  1  0
 17 38  1  0
 20 39  1  0
 21 40  1  0
 21 41  1  0
 22 42  1  0
 22 43  1  0
 24 44  1  0
M  END
>  <meeko>  (3) 
{"is_sidechain": [false], "free_energy": -8.378, "intermolecular_energy": -9.949, "internal_energy": -0.607}

$$$$
ligand_86_conformer_5_docked
     RDKit          3D

 44 47  0  0  0  0  0  0  0  0999 V2000
    2.0710   45.0360   55.9050 O   0  0  0  0  0  0  0  0  0  0  0  0
    1.3870   45.2990   54.8790 C   0  0  0  0  0  0  0  0  0  0  0  0
   -0.0380   45.4480   54.9940 N   0  0  0  0  0  0  0  0  0  0  0  0
   -0.7810   44.9620   56.1640 C   0  0  0  0  0  0  0  0  0  0  0  0
   -1.7260   43.8230   55.7540 C   0  0  0  0  0  0  0  0  0  0  0  0
   -2.8690   44.3400   54.8480 C   0  0  0  0  0  0  0  0  0  0  0  0
   -2.9680   45.7550   54.8190 O   0  0  0  0  0  0  0  0  0  0  0  0
   -2.9760   46.2720   56.1350 C   0  0  0  0  0  0  0  0  0  0  0  0
   -1.5990   46.1030   56.8080 C   0  0  0  0  0  0  0  0  0  0  0  0
    2.0650   45.4580   53.5710 C   0  0  0  0  0  0  0  0  0  0  0  0
    1.3220   45.4550   52.3810 C   0  0  0  0  0  0  0  0  0  0  0  0
    1.9430   45.6090   51.1840 N   0  0  0  0  0  0  0  0  0  0  0  0
    3.2890   45.7750   51.0870 C   0  0  0  0  0  0  0  0  0  0  0  0
    4.0840   45.8030   52.2440 C   0  0  0  0  0  0  0  0  0  0  0  0
    5.5520   46.0040   52.1530 C   0  0  0  0  0  0  0  0  0  0  0  0
    6.2560   45.6410   50.9750 C   0  0  0  0  0  0  0  0  0  0  0  0
    7.6450   45.8280   50.8860 C   0  0  0  0  0  0  0  0  0  0  0  0
    8.3090   46.3750   51.9790 C   0  0  0  0  0  0  0  0  0  0  0  0
    7.6470   46.7280   53.1180 C   0  0  0  0  0  0  0  0  0  0  0  0
    6.2680   46.5580   53.2390 C   0  0  0  0  0  0  0  0  0  0  0  0
    8.6050   47.2860   54.1080 C   0  0  0  0  0  0  0  0  0  0  0  0
    9.9570   47.1970   53.3560 C   0  0  0  0  0  0  0  0  0  0  0  0
    9.6580   46.6330   52.0790 O   0  0  0  0  0  0  0  0  0  0  0  0
    3.4550   45.6440   53.4900 C   0  0  0  0  0  0  0  0  0  0  0  0
   -0.5510   45.9490   54.2340 H   0  0  0  0  0  0  0  0  0  0  0  0
   -0.0537   44.5888   56.9000 H   0  0  0  0  0  0  0  0  0  0  0  0
   -1.1521   43.0605   55.2070 H   0  0  0  0  0  0  0  0  0  0  0  0
   -2.1709   43.3958   56.6648 H   0  0  0  0  0  0  0  0  0  0  0  0
   -2.6911   43.9817   53.8233 H   0  0  0  0  0  0  0  0  0  0  0  0
   -3.8123   43.9567   55.2642 H   0  0  0  0  0  0  0  0  0  0  0  0
   -3.2289   47.3419   56.0988 H   0  0  0  0  0  0  0  0  0  0  0  0
   -3.7219   45.7172   56.7230 H   0  0  0  0  0  0  0  0  0  0  0  0
   -1.0369   47.0434   56.7095 H   0  0  0  0  0  0  0  0  0  0  0  0
   -1.7645   45.8498   57.8656 H   0  0  0  0  0  0  0  0  0  0  0  0
    0.2301   45.3271   52.4183 H   0  0  0  0  0  0  0  0  0  0  0  0
    3.7571   45.8878   50.0980 H   0  0  0  0  0  0  0  0  0  0  0  0
    5.7086   45.2093   50.1241 H   0  0  0  0  0  0  0  0  0  0  0  0
    8.1942   45.5489   49.9747 H   0  0  0  0  0  0  0  0  0  0  0  0
    5.7468   46.8497   54.1627 H   0  0  0  0  0  0  0  0  0  0  0  0
    8.3568   48.3283   54.3571 H   0  0  0  0  0  0  0  0  0  0  0  0
    8.6026   46.7511   55.0692 H   0  0  0  0  0  0  0  0  0  0  0  0
   10.3962   48.1987   53.2385 H   0  0  0  0  0  0  0  0  0  0  0  0
   10.6862   46.5850   53.9071 H   0  0  0  0  0  0  0  0  0  0  0  0
    4.0565   45.6653   54.4107 H   0  0  0  0  0  0  0  0  0  0  0  0
  1  2  2  0
  2  3  1  0
  3  4  1  0
  4  5  1  0
  5  6  1  0
  6  7  1  0
  7  8  1  0
  8  9  1  0
  2 10  1  0
 10 11  2  0
 11 12  1  0
 12 13  2  0
 13 14  1  0
 14 15  1  0
 15 16  2  0
 16 17  1  0
 17 18  2  0
 18 19  1  0
 19 20  2  0
 19 21  1  0
 21 22  1  0
 22 23  1  0
 14 24  2  0
  9  4  1  0
 24 10  1  0
 20 15  1  0
 23 18  1  0
  3 25  1  0
  4 26  1  0
  5 27  1  0
  5 28  1  0
  6 29  1  0
  6 30  1  0
  8 31  1  0
  8 32  1  0
  9 33  1  0
  9 34  1  0
 11 35  1  0
 13 36  1  0
 16 37  1  0
 17 38  1  0
 20 39  1  0
 21 40  1  0
 21 41  1  0
 22 42  1  0
 22 43  1  0
 24 44  1  0
M  END
>  <meeko>  (4) 
{"is_sidechain": [false], "free_energy": -8.338, "intermolecular_energy": -9.905, "internal_energy": -0.605}

$$$$
ligand_86_conformer_5_docked
     RDKit          3D

 44 47  0  0  0  0  0  0  0  0999 V2000
    0.6760   45.7470   52.2320 O   0  0  0  0  0  0  0  0  0  0  0  0
    0.8290   44.7250   51.5100 C   0  0  0  0  0  0  0  0  0  0  0  0
   -0.2880   44.2020   50.7730 N   0  0  0  0  0  0  0  0  0  0  0  0
   -1.6740   44.5740   51.0870 C   0  0  0  0  0  0  0  0  0  0  0  0
   -2.3210   43.4970   51.9710 C   0  0  0  0  0  0  0  0  0  0  0  0
   -2.5200   42.1760   51.1910 C   0  0  0  0  0  0  0  0  0  0  0  0
   -2.3330   42.3150   49.7910 O   0  0  0  0  0  0  0  0  0  0  0  0
   -3.0850   43.4080   49.3030 C   0  0  0  0  0  0  0  0  0  0  0  0
   -2.5030   44.7480   49.7960 C   0  0  0  0  0  0  0  0  0  0  0  0
    2.1620   44.0830   51.4290 C   0  0  0  0  0  0  0  0  0  0  0  0
    2.2740   42.7110   51.1550 C   0  0  0  0  0  0  0  0  0  0  0  0
    3.4960   42.1260   51.0730 N   0  0  0  0  0  0  0  0  0  0  0  0
    4.6450   42.8310   51.2430 C   0  0  0  0  0  0  0  0  0  0  0  0
    4.5980   44.2100   51.5030 C   0  0  0  0  0  0  0  0  0  0  0  0
    5.8470   44.9950   51.6720 C   0  0  0  0  0  0  0  0  0  0  0  0
    6.7430   45.1650   50.5850 C   0  0  0  0  0  0  0  0  0  0  0  0
    7.9250   45.9060   50.7410 C   0  0  0  0  0  0  0  0  0  0  0  0
    8.1940   46.4660   51.9860 C   0  0  0  0  0  0  0  0  0  0  0  0
    7.3430   46.3120   53.0410 C   0  0  0  0  0  0  0  0  0  0  0  0
    6.1600   45.5840   52.9200 C   0  0  0  0  0  0  0  0  0  0  0  0
    7.8820   47.0190   54.2320 C   0  0  0  0  0  0  0  0  0  0  0  0
    9.2070   47.6170   53.6990 C   0  0  0  0  0  0  0  0  0  0  0  0
    9.2930   47.2210   52.3310 O   0  0  0  0  0  0  0  0  0  0  0  0
    3.3400   44.8300   51.5930 C   0  0  0  0  0  0  0  0  0  0  0  0
   -0.1000   43.5650   49.9650 H   0  0  0  0  0  0  0  0  0  0  0  0
   -1.6574   45.5321   51.6271 H   0  0  0  0  0  0  0  0  0  0  0  0
   -1.6713   43.3070   52.8380 H   0  0  0  0  0  0  0  0  0  0  0  0
   -3.3069   43.8605   52.2963 H   0  0  0  0  0  0  0  0  0  0  0  0
   -1.7980   41.4364   51.5676 H   0  0  0  0  0  0  0  0  0  0  0  0
   -3.5611   41.8585   51.3498 H   0  0  0  0  0  0  0  0  0  0  0  0
   -3.0688   43.3925   48.2032 H   0  0  0  0  0  0  0  0  0  0  0  0
   -4.1156   43.3168   49.6764 H   0  0  0  0  0  0  0  0  0  0  0  0
   -1.8554   45.1651   49.0107 H   0  0  0  0  0  0  0  0  0  0  0  0
   -3.3421   45.4239   50.0175 H   0  0  0  0  0  0  0  0  0  0  0  0
    1.3669   42.1068   51.0060 H   0  0  0  0  0  0  0  0  0  0  0  0
    5.6164   42.3191   51.1766 H   0  0  0  0  0  0  0  0  0  0  0  0
    6.5091   44.7117   49.6104 H   0  0  0  0  0  0  0  0  0  0  0  0
    8.6212   46.0406   49.9000 H   0  0  0  0  0  0  0  0  0  0  0  0
    5.4824   45.4696   53.7790 H   0  0  0  0  0  0  0  0  0  0  0  0
    7.1960   47.8105   54.5681 H   0  0  0  0  0  0  0  0  0  0  0  0
    8.0177   46.3640   55.1053 H   0  0  0  0  0  0  0  0  0  0  0  0
    9.1913   48.7139   53.7794 H   0  0  0  0  0  0  0  0  0  0  0  0
   10.0721   47.2608   54.2775 H   0  0  0  0  0  0  0  0  0  0  0  0
    3.2774   45.9097   51.7936 H   0  0  0  0  0  0  0  0  0  0  0  0
  1  2  2  0
  2  3  1  0
  3  4  1  0
  4  5  1  0
  5  6  1  0
  6  7  1  0
  7  8  1  0
  8  9  1  0
  2 10  1  0
 10 11  2  0
 11 12  1  0
 12 13  2  0
 13 14  1  0
 14 15  1  0
 15 16  2  0
 16 17  1  0
 17 18  2  0
 18 19  1  0
 19 20  2  0
 19 21  1  0
 21 22  1  0
 22 23  1  0
 14 24  2  0
  9  4  1  0
 24 10  1  0
 20 15  1  0
 23 18  1  0
  3 25  1  0
  4 26  1  0
  5 27  1  0
  5 28  1  0
  6 29  1  0
  6 30  1  0
  8 31  1  0
  8 32  1  0
  9 33  1  0
  9 34  1  0
 11 35  1  0
 13 36  1  0
 16 37  1  0
 17 38  1  0
 20 39  1  0
 21 40  1  0
 21 41  1  0
 22 42  1  0
 22 43  1  0
 24 44  1  0
M  END
>  <meeko>  (5) 
{"is_sidechain": [false], "free_energy": -8.273, "intermolecular_energy": -9.839, "internal_energy": -0.595}

$$$$
