MODEL 1
REMARK VINA RESULT:    -8.735      0.000      0.000
REMARK INTER + INTRA:         -14.061
REMARK INTER:                 -12.821
REMARK INTRA:                  -1.240
REMARK UNBOUND:                -1.240
REMARK SMILES CCN(C1CCCCC1)S(=O)(=O)CCNC(=O)Nc1ccn(-c2cccc(F)c2C#N)n1
REMARK SMILES IDX 13 1 10 2 11 3 12 4 3 5 2 6 1 7 4 8 5 9 9 10 6 11 8 12 7 13
REMARK SMILES IDX 14 14 15 15 16 16 17 17 18 18 19 21 20 22 32 23 21 24 22 25
REMARK SMILES IDX 23 26 24 27 29 28 25 29 27 30 30 31 26 32 31 33 28 34
REMARK H PARENT 15 19 18 20
ROOT
ATOM      1  C   UNL     1       2.644  45.235  54.614  1.00  0.00     0.175 C 
ENDROOT
BRANCH   1   2
ATOM      2  S   UNL     1       4.404  45.460  54.390  1.00  0.00     0.216 S 
ATOM      3  O   UNL     1       4.832  46.680  55.158  1.00  0.00    -0.212 OA
ATOM      4  O   UNL     1       5.115  44.262  54.951  1.00  0.00    -0.212 OA
BRANCH   2   5
ATOM      5  N   UNL     1       4.740  45.673  52.678  1.00  0.00    -0.199 NA
BRANCH   5   6
ATOM      6  C   UNL     1       4.008  46.839  52.139  1.00  0.00     0.099 C 
ATOM      7  C   UNL     1       3.199  46.436  50.910  1.00  0.00     0.022 C 
ENDBRANCH   5   6
BRANCH   5   8
ATOM      8  C   UNL     1       6.177  45.665  52.290  1.00  0.00     0.073 C 
ATOM      9  C   UNL     1       6.767  47.088  52.315  1.00  0.00     0.020 C 
ATOM     10  C   UNL     1       6.494  44.917  50.960  1.00  0.00     0.020 C 
ATOM     11  C   UNL     1       8.302  47.066  52.160  1.00  0.00     0.002 C 
ATOM     12  C   UNL     1       7.770  45.437  50.269  1.00  0.00     0.002 C 
ATOM     13  C   UNL     1       8.817  45.902  51.287  1.00  0.00     0.000 C 
ENDBRANCH   5   8
ENDBRANCH   2   5
ENDBRANCH   1   2
BRANCH   1  14
ATOM     14  C   UNL     1       2.097  44.106  53.733  1.00  0.00     0.135 C 
BRANCH  14  15
ATOM     15  N   UNL     1       3.175  43.279  53.196  1.00  0.00    -0.337 N 
ATOM     16  C   UNL     1       3.183  42.794  51.846  1.00  0.00     0.320 C 
ATOM     17  O   UNL     1       2.277  43.148  51.045  1.00  0.00    -0.248 OA
ATOM     18  N   UNL     1       4.210  41.882  51.431  1.00  0.00    -0.291 N 
ATOM     19  H   UNL     1       3.990  43.062  53.812  1.00  0.00     0.165 HD
ATOM     20  H   UNL     1       4.804  41.445  52.170  1.00  0.00     0.173 HD
BRANCH  18  21
ATOM     21  C   UNL     1       4.434  41.470  50.074  1.00  0.00     0.156 A 
ATOM     22  C   UNL     1       5.565  41.704  49.309  1.00  0.00     0.069 A 
ATOM     23  N   UNL     1       3.556  40.717  49.386  1.00  0.00    -0.150 NA
ATOM     24  C   UNL     1       5.302  41.060  48.118  1.00  0.00     0.117 A 
ATOM     25  N   UNL     1       4.088  40.474  48.198  1.00  0.00    -0.237 N 
BRANCH  25  26
ATOM     26  C   UNL     1       3.442  39.712  47.157  1.00  0.00     0.085 A 
ATOM     27  C   UNL     1       2.734  38.542  47.490  1.00  0.00     0.030 A 
ATOM     28  C   UNL     1       3.507  40.109  45.799  1.00  0.00     0.113 A 
ATOM     29  C   UNL     1       2.108  37.782  46.502  1.00  0.00     0.005 A 
ATOM     30  C   UNL     1       2.873  39.336  44.813  1.00  0.00     0.143 A 
ATOM     31  C   UNL     1       4.176  41.325  45.399  1.00  0.00     0.105 C 
ATOM     32  C   UNL     1       2.178  38.177  45.166  1.00  0.00     0.041 A 
ATOM     33  N   UNL     1       4.711  42.299  45.076  1.00  0.00    -0.192 NA
ATOM     34  F   UNL     1       2.919  39.708  43.508  1.00  0.00    -0.205 F 
ENDBRANCH  25  26
ENDBRANCH  18  21
ENDBRANCH  14  15
ENDBRANCH   1  14
TORSDOF 8
ENDMDL
MODEL 2
REMARK VINA RESULT:    -8.220      4.965      8.034
REMARK INTER + INTRA:         -13.305
REMARK INTER:                 -12.137
REMARK INTRA:                  -1.168
REMARK UNBOUND:                -1.240
REMARK SMILES CCN(C1CCCCC1)S(=O)(=O)CCNC(=O)Nc1ccn(-c2cccc(F)c2C#N)n1
REMARK SMILES IDX 13 1 10 2 11 3 12 4 3 5 2 6 1 7 4 8 5 9 9 10 6 11 8 12 7 13
REMARK SMILES IDX 14 14 15 15 16 16 17 17 18 18 19 21 20 22 32 23 21 24 22 25
REMARK SMILES IDX 23 26 24 27 29 28 25 29 27 30 30 31 26 32 31 33 28 34
REMARK H PARENT 15 19 18 20
ROOT
ATOM      1  C   UNL     1      -0.705  43.587  55.292  1.00  0.00     0.175 C 
ENDROOT
BRANCH   1   2
ATOM      2  S   UNL     1      -1.683  44.027  53.860  1.00  0.00     0.216 S 
ATOM      3  O   UNL     1      -2.980  43.268  53.916  1.00  0.00    -0.212 OA
ATOM      4  O   UNL     1      -1.982  45.498  53.918  1.00  0.00    -0.212 OA
BRANCH   2   5
ATOM      5  N   UNL     1      -0.793  43.601  52.406  1.00  0.00    -0.199 NA
BRANCH   5   6
ATOM      6  C   UNL     1      -1.398  44.233  51.215  1.00  0.00     0.099 C 
ATOM      7  C   UNL     1      -2.065  43.179  50.336  1.00  0.00     0.022 C 
ENDBRANCH   5   6
BRANCH   5   8
ATOM      8  C   UNL     1       0.684  43.784  52.469  1.00  0.00     0.073 C 
ATOM      9  C   UNL     1       1.208  44.500  51.210  1.00  0.00     0.020 C 
ATOM     10  C   UNL     1       1.492  42.492  52.795  1.00  0.00     0.020 C 
ATOM     11  C   UNL     1       2.685  44.916  51.371  1.00  0.00     0.002 C 
ATOM     12  C   UNL     1       2.932  42.532  52.245  1.00  0.00     0.002 C 
ATOM     13  C   UNL     1       3.505  43.953  52.257  1.00  0.00     0.000 C 
ENDBRANCH   5   8
ENDBRANCH   2   5
ENDBRANCH   1   2
BRANCH   1  14
ATOM     14  C   UNL     1      -0.372  44.811  56.152  1.00  0.00     0.135 C 
BRANCH  14  15
ATOM     15  N   UNL     1       1.070  44.951  56.346  1.00  0.00    -0.337 N 
ATOM     16  C   UNL     1       1.928  45.562  55.373  1.00  0.00     0.320 C 
ATOM     17  O   UNL     1       1.435  46.081  54.336  1.00  0.00    -0.248 OA
ATOM     18  N   UNL     1       3.349  45.547  55.577  1.00  0.00    -0.291 N 
ATOM     19  H   UNL     1       1.485  44.623  57.247  1.00  0.00     0.165 HD
ATOM     20  H   UNL     1       3.728  44.924  56.324  1.00  0.00     0.173 HD
BRANCH  18  21
ATOM     21  C   UNL     1       4.294  46.274  54.780  1.00  0.00     0.156 A 
ATOM     22  C   UNL     1       4.073  47.461  54.100  1.00  0.00     0.069 A 
ATOM     23  N   UNL     1       5.582  45.901  54.654  1.00  0.00    -0.150 NA
ATOM     24  C   UNL     1       5.299  47.764  53.548  1.00  0.00     0.117 A 
ATOM     25  N   UNL     1       6.185  46.809  53.902  1.00  0.00    -0.237 N 
BRANCH  25  26
ATOM     26  C   UNL     1       7.575  46.755  53.518  1.00  0.00     0.085 A 
ATOM     27  C   UNL     1       8.557  47.259  54.391  1.00  0.00     0.030 A 
ATOM     28  C   UNL     1       7.979  46.209  52.275  1.00  0.00     0.113 A 
ATOM     29  C   UNL     1       9.907  47.226  54.040  1.00  0.00     0.005 A 
ATOM     30  C   UNL     1       9.342  46.182  51.933  1.00  0.00     0.143 A 
ATOM     31  C   UNL     1       7.025  45.631  51.358  1.00  0.00     0.105 C 
ATOM     32  C   UNL     1      10.298  46.690  52.814  1.00  0.00     0.041 A 
ATOM     33  N   UNL     1       6.263  45.167  50.622  1.00  0.00    -0.192 NA
ATOM     34  F   UNL     1       9.746  45.654  50.749  1.00  0.00    -0.205 F 
ENDBRANCH  25  26
ENDBRANCH  18  21
ENDBRANCH  14  15
ENDBRANCH   1  14
TORSDOF 8
ENDMDL
MODEL 3
REMARK VINA RESULT:    -8.170      5.158      7.875
REMARK INTER + INTRA:         -13.230
REMARK INTER:                 -11.498
REMARK INTRA:                  -1.733
REMARK UNBOUND:                -1.240
REMARK SMILES CCN(C1CCCCC1)S(=O)(=O)CCNC(=O)Nc1ccn(-c2cccc(F)c2C#N)n1
REMARK SMILES IDX 13 1 10 2 11 3 12 4 3 5 2 6 1 7 4 8 5 9 9 10 6 11 8 12 7 13
REMARK SMILES IDX 14 14 15 15 16 16 17 17 18 18 19 21 20 22 32 23 21 24 22 25
REMARK SMILES IDX 23 26 24 27 29 28 25 29 27 30 30 31 26 32 31 33 28 34
REMARK H PARENT 15 19 18 20
ROOT
ATOM      1  C   UNL     1      -1.756  45.423  55.121  1.00  0.00     0.175 C 
ENDROOT
BRANCH   1   2
ATOM      2  S   UNL     1      -2.003  43.911  54.197  1.00  0.00     0.216 S 
ATOM      3  O   UNL     1      -1.289  42.794  54.908  1.00  0.00    -0.212 OA
ATOM      4  O   UNL     1      -3.473  43.603  54.169  1.00  0.00    -0.212 OA
BRANCH   2   5
ATOM      5  N   UNL     1      -1.350  44.116  52.579  1.00  0.00    -0.199 NA
BRANCH   5   6
ATOM      6  C   UNL     1      -1.854  45.361  51.962  1.00  0.00     0.099 C 
ATOM      7  C   UNL     1      -2.744  45.039  50.766  1.00  0.00     0.022 C 
ENDBRANCH   5   6
BRANCH   5   8
ATOM      8  C   UNL     1       0.125  43.964  52.448  1.00  0.00     0.073 C 
ATOM      9  C   UNL     1       0.763  45.231  51.849  1.00  0.00     0.020 C 
ATOM     10  C   UNL     1       0.588  42.667  51.716  1.00  0.00     0.020 C 
ATOM     11  C   UNL     1       2.303  45.185  51.937  1.00  0.00     0.002 C 
ATOM     12  C   UNL     1       1.966  42.820  51.042  1.00  0.00     0.002 C 
ATOM     13  C   UNL     1       2.884  43.759  51.832  1.00  0.00     0.000 C 
ENDBRANCH   5   8
ENDBRANCH   2   5
ENDBRANCH   1   2
BRANCH   1  14
ATOM     14  C   UNL     1      -0.858  45.203  56.343  1.00  0.00     0.135 C 
BRANCH  14  15
ATOM     15  N   UNL     1       0.382  45.971  56.239  1.00  0.00    -0.337 N 
ATOM     16  C   UNL     1       1.629  45.381  55.847  1.00  0.00     0.320 C 
ATOM     17  O   UNL     1       1.670  44.172  55.493  1.00  0.00    -0.248 OA
ATOM     18  N   UNL     1       2.827  46.169  55.892  1.00  0.00    -0.291 N 
ATOM     19  H   UNL     1       0.348  46.998  56.424  1.00  0.00     0.165 HD
ATOM     20  H   UNL     1       2.791  47.085  56.393  1.00  0.00     0.173 HD
BRANCH  18  21
ATOM     21  C   UNL     1       4.095  45.758  55.359  1.00  0.00     0.156 A 
ATOM     22  C   UNL     1       4.999  44.885  55.941  1.00  0.00     0.069 A 
ATOM     23  N   UNL     1       4.535  46.141  54.145  1.00  0.00    -0.150 NA
ATOM     24  C   UNL     1       6.012  44.783  55.011  1.00  0.00     0.117 A 
ATOM     25  N   UNL     1       5.701  45.547  53.942  1.00  0.00    -0.237 N 
BRANCH  25  26
ATOM     26  C   UNL     1       6.506  45.720  52.758  1.00  0.00     0.085 A 
ATOM     27  C   UNL     1       6.119  45.097  51.557  1.00  0.00     0.030 A 
ATOM     28  C   UNL     1       7.688  46.502  52.773  1.00  0.00     0.113 A 
ATOM     29  C   UNL     1       6.885  45.241  50.399  1.00  0.00     0.005 A 
ATOM     30  C   UNL     1       8.451  46.639  51.601  1.00  0.00     0.143 A 
ATOM     31  C   UNL     1       8.111  47.207  53.960  1.00  0.00     0.105 C 
ATOM     32  C   UNL     1       8.048  46.010  50.422  1.00  0.00     0.041 A 
ATOM     33  N   UNL     1       8.453  47.773  54.910  1.00  0.00    -0.192 NA
ATOM     34  F   UNL     1       9.581  47.392  51.598  1.00  0.00    -0.205 F 
ENDBRANCH  25  26
ENDBRANCH  18  21
ENDBRANCH  14  15
ENDBRANCH   1  14
TORSDOF 8
ENDMDL
MODEL 4
REMARK VINA RESULT:    -7.774      4.251      6.526
REMARK INTER + INTRA:         -12.649
REMARK INTER:                 -11.250
REMARK INTRA:                  -1.399
REMARK UNBOUND:                -1.240
REMARK SMILES CCN(C1CCCCC1)S(=O)(=O)CCNC(=O)Nc1ccn(-c2cccc(F)c2C#N)n1
REMARK SMILES IDX 13 1 10 2 11 3 12 4 3 5 2 6 1 7 4 8 5 9 9 10 6 11 8 12 7 13
REMARK SMILES IDX 14 14 15 15 16 16 17 17 18 18 19 21 20 22 32 23 21 24 22 25
REMARK SMILES IDX 23 26 24 27 29 28 25 29 27 30 30 31 26 32 31 33 28 34
REMARK H PARENT 15 19 18 20
ROOT
ATOM      1  C   UNL     1       6.609  45.841  54.543  1.00  0.00     0.175 C 
ENDROOT
BRANCH   1   2
ATOM      2  S   UNL     1       5.939  46.793  53.185  1.00  0.00     0.216 S 
ATOM      3  O   UNL     1       4.931  47.766  53.734  1.00  0.00    -0.212 OA
ATOM      4  O   UNL     1       7.057  47.567  52.546  1.00  0.00    -0.212 OA
BRANCH   2   5
ATOM      5  N   UNL     1       5.168  45.701  52.045  1.00  0.00    -0.199 NA
BRANCH   5   6
ATOM      6  C   UNL     1       4.306  46.445  51.104  1.00  0.00     0.099 C 
ATOM      7  C   UNL     1       2.840  46.087  51.331  1.00  0.00     0.022 C 
ENDBRANCH   5   6
BRANCH   5   8
ATOM      8  C   UNL     1       6.069  44.733  51.359  1.00  0.00     0.073 C 
ATOM      9  C   UNL     1       6.863  45.419  50.231  1.00  0.00     0.020 C 
ATOM     10  C   UNL     1       5.380  43.419  50.883  1.00  0.00     0.020 C 
ATOM     11  C   UNL     1       7.972  44.497  49.681  1.00  0.00     0.002 C 
ATOM     12  C   UNL     1       6.097  42.767  49.684  1.00  0.00     0.002 C 
ATOM     13  C   UNL     1       7.611  42.998  49.734  1.00  0.00     0.000 C 
ENDBRANCH   5   8
ENDBRANCH   2   5
ENDBRANCH   1   2
BRANCH   1  14
ATOM     14  C   UNL     1       5.662  44.715  54.971  1.00  0.00     0.135 C 
BRANCH  14  15
ATOM     15  N   UNL     1       4.400  45.246  55.485  1.00  0.00    -0.337 N 
ATOM     16  C   UNL     1       3.131  44.943  54.890  1.00  0.00     0.320 C 
ATOM     17  O   UNL     1       3.063  44.122  53.936  1.00  0.00    -0.248 OA
ATOM     18  N   UNL     1       1.951  45.603  55.371  1.00  0.00    -0.291 N 
ATOM     19  H   UNL     1       4.424  45.843  56.341  1.00  0.00     0.165 HD
ATOM     20  H   UNL     1       2.075  46.427  56.001  1.00  0.00     0.173 HD
BRANCH  18  21
ATOM     21  C   UNL     1       0.611  45.259  54.990  1.00  0.00     0.156 A 
ATOM     22  C   UNL     1      -0.456  45.007  55.836  1.00  0.00     0.069 A 
ATOM     23  N   UNL     1       0.208  45.206  53.706  1.00  0.00    -0.150 NA
ATOM     24  C   UNL     1      -1.515  44.784  54.981  1.00  0.00     0.117 A 
ATOM     25  N   UNL     1      -1.083  44.914  53.708  1.00  0.00    -0.237 N 
BRANCH  25  26
ATOM     26  C   UNL     1      -1.882  44.748  52.519  1.00  0.00     0.085 A 
ATOM     27  C   UNL     1      -2.563  45.855  51.979  1.00  0.00     0.030 A 
ATOM     28  C   UNL     1      -2.005  43.490  51.878  1.00  0.00     0.113 A 
ATOM     29  C   UNL     1      -3.349  45.719  50.833  1.00  0.00     0.005 A 
ATOM     30  C   UNL     1      -2.799  43.366  50.726  1.00  0.00     0.143 A 
ATOM     31  C   UNL     1      -1.292  42.328  52.354  1.00  0.00     0.105 C 
ATOM     32  C   UNL     1      -3.467  44.478  50.210  1.00  0.00     0.041 A 
ATOM     33  N   UNL     1      -0.721  41.395  52.733  1.00  0.00    -0.192 NA
ATOM     34  F   UNL     1      -2.919  42.169  50.096  1.00  0.00    -0.205 F 
ENDBRANCH  25  26
ENDBRANCH  18  21
ENDBRANCH  14  15
ENDBRANCH   1  14
TORSDOF 8
ENDMDL
MODEL 5
REMARK VINA RESULT:    -7.526      4.863      8.362
REMARK INTER + INTRA:         -12.286
REMARK INTER:                 -10.770
REMARK INTRA:                  -1.516
REMARK UNBOUND:                -1.240
REMARK SMILES CCN(C1CCCCC1)S(=O)(=O)CCNC(=O)Nc1ccn(-c2cccc(F)c2C#N)n1
REMARK SMILES IDX 13 1 10 2 11 3 12 4 3 5 2 6 1 7 4 8 5 9 9 10 6 11 8 12 7 13
REMARK SMILES IDX 14 14 15 15 16 16 17 17 18 18 19 21 20 22 32 23 21 24 22 25
REMARK SMILES IDX 23 26 24 27 29 28 25 29 27 30 30 31 26 32 31 33 28 34
REMARK H PARENT 15 19 18 20
ROOT
ATOM      1  C   UNL     1       6.517  43.366  50.546  1.00  0.00     0.175 C 
ENDROOT
BRANCH   1   2
ATOM      2  S   UNL     1       6.537  45.151  50.665  1.00  0.00     0.216 S 
ATOM      3  O   UNL     1       7.567  45.683  49.707  1.00  0.00    -0.212 OA
ATOM      4  O   UNL     1       5.187  45.672  50.259  1.00  0.00    -0.212 OA
BRANCH   2   5
ATOM      5  N   UNL     1       6.944  45.610  52.311  1.00  0.00    -0.199 NA
BRANCH   5   6
ATOM      6  C   UNL     1       7.807  46.810  52.324  1.00  0.00     0.099 C 
ATOM      7  C   UNL     1       9.254  46.419  52.612  1.00  0.00     0.022 C 
ENDBRANCH   5   6
BRANCH   5   8
ATOM      8  C   UNL     1       5.801  45.711  53.261  1.00  0.00     0.073 C 
ATOM      9  C   UNL     1       5.625  47.156  53.765  1.00  0.00     0.020 C 
ATOM     10  C   UNL     1       5.824  44.677  54.427  1.00  0.00     0.020 C 
ATOM     11  C   UNL     1       4.306  47.324  54.547  1.00  0.00     0.002 C 
ATOM     12  C   UNL     1       5.071  45.170  55.679  1.00  0.00     0.002 C 
ATOM     13  C   UNL     1       3.875  46.054  55.311  1.00  0.00     0.000 C 
ENDBRANCH   5   8
ENDBRANCH   2   5
ENDBRANCH   1   2
BRANCH   1  14
ATOM     14  C   UNL     1       5.089  42.816  50.459  1.00  0.00     0.135 C 
BRANCH  14  15
ATOM     15  N   UNL     1       4.442  42.803  51.770  1.00  0.00    -0.337 N 
ATOM     16  C   UNL     1       3.045  43.071  51.949  1.00  0.00     0.320 C 
ATOM     17  O   UNL     1       2.304  43.247  50.945  1.00  0.00    -0.248 OA
ATOM     18  N   UNL     1       2.510  43.166  53.277  1.00  0.00    -0.291 N 
ATOM     19  H   UNL     1       5.017  42.554  52.606  1.00  0.00     0.165 HD
ATOM     20  H   UNL     1       3.184  43.234  54.072  1.00  0.00     0.173 HD
BRANCH  18  21
ATOM     21  C   UNL     1       1.111  43.248  53.589  1.00  0.00     0.156 A 
ATOM     22  C   UNL     1       0.178  42.229  53.500  1.00  0.00     0.069 A 
ATOM     23  N   UNL     1       0.539  44.359  54.091  1.00  0.00    -0.150 NA
ATOM     24  C   UNL     1      -0.989  42.802  53.961  1.00  0.00     0.117 A 
ATOM     25  N   UNL     1      -0.737  44.081  54.312  1.00  0.00    -0.237 N 
BRANCH  25  26
ATOM     26  C   UNL     1      -1.696  45.025  54.831  1.00  0.00     0.085 A 
ATOM     27  C   UNL     1      -2.851  45.323  54.084  1.00  0.00     0.030 A 
ATOM     28  C   UNL     1      -1.503  45.667  56.079  1.00  0.00     0.113 A 
ATOM     29  C   UNL     1      -3.791  46.239  54.560  1.00  0.00     0.005 A 
ATOM     30  C   UNL     1      -2.456  46.587  56.548  1.00  0.00     0.143 A 
ATOM     31  C   UNL     1      -0.364  45.366  56.915  1.00  0.00     0.105 C 
ATOM     32  C   UNL     1      -3.593  46.870  55.788  1.00  0.00     0.041 A 
ATOM     33  N   UNL     1       0.547  45.127  57.586  1.00  0.00    -0.192 NA
ATOM     34  F   UNL     1      -2.289  47.204  57.745  1.00  0.00    -0.205 F 
ENDBRANCH  25  26
ENDBRANCH  18  21
ENDBRANCH  14  15
ENDBRANCH   1  14
TORSDOF 8
ENDMDL
