MODEL 1
REMARK VINA RESULT:   -11.888      0.000      0.000
REMARK INTER + INTRA:         -13.310
REMARK INTER:                 -13.278
REMARK INTRA:                  -0.033
REMARK UNBOUND:                -0.033
REMARK SMILES CN1C(=O)c2cccc3c(S(=O)(=O)N4Cc5ccccc5-c5ccccc5C4)ccc1c23
REMARK SMILES IDX 1 1 2 2 3 3 4 4 5 5 6 6 7 7 8 8 9 9 10 10 29 11 30 12 31 13
REMARK SMILES IDX 32 14 11 15 12 16 13 17 14 18 15 19 28 20 16 21 27 22 17 23
REMARK SMILES IDX 21 24 26 25 22 26 18 27 20 28 25 29 23 30 19 31 24 32
REMARK H PARENT
ROOT
ATOM      1  C   UNL     1      -1.862  43.808  56.307  1.00  0.00     0.153 C 
ATOM      2  N   UNL     1      -1.162  44.353  55.151  1.00  0.00    -0.311 N 
ATOM      3  C   UNL     1      -1.386  43.981  53.780  1.00  0.00     0.258 C 
ATOM      4  O   UNL     1      -2.429  43.417  53.356  1.00  0.00    -0.269 OA
ATOM      5  C   UNL     1      -0.207  44.312  52.984  1.00  0.00     0.050 A 
ATOM      6  C   UNL     1       0.123  44.172  51.637  1.00  0.00     0.014 A 
ATOM      7  C   UNL     1       1.414  44.582  51.232  1.00  0.00     0.002 A 
ATOM      8  C   UNL     1       2.341  45.102  52.171  1.00  0.00     0.010 A 
ATOM      9  C   UNL     1       1.978  45.222  53.535  1.00  0.00     0.005 A 
ATOM     10  C   UNL     1       2.802  45.696  54.587  1.00  0.00     0.090 A 
ATOM     11  C   UNL     1       2.284  45.730  55.914  1.00  0.00     0.024 A 
ATOM     12  C   UNL     1       0.968  45.298  56.198  1.00  0.00     0.028 A 
ATOM     13  C   UNL     1       0.183  44.849  55.138  1.00  0.00     0.052 A 
ATOM     14  C   UNL     1       0.693  44.823  53.870  1.00  0.00     0.020 A 
ENDROOT
BRANCH  10  15
ATOM     15  S   UNL     1       4.449  46.263  54.282  1.00  0.00     0.244 S 
ATOM     16  O   UNL     1       4.531  47.751  54.497  1.00  0.00    -0.207 OA
ATOM     17  O   UNL     1       5.375  45.588  55.256  1.00  0.00    -0.207 OA
BRANCH  15  18
ATOM     18  N   UNL     1       4.931  45.880  52.644  1.00  0.00    -0.189 NA
ATOM     19  C   UNL     1       5.708  46.993  52.049  1.00  0.00     0.139 C 
ATOM     20  C   UNL     1       5.600  44.561  52.625  1.00  0.00     0.139 C 
ATOM     21  C   UNL     1       7.178  46.970  52.415  1.00  0.00    -0.025 A 
ATOM     22  C   UNL     1       6.290  44.271  51.309  1.00  0.00    -0.025 A 
ATOM     23  C   UNL     1       7.699  47.943  53.285  1.00  0.00     0.006 A 
ATOM     24  C   UNL     1       8.042  45.998  51.856  1.00  0.00    -0.014 A 
ATOM     25  C   UNL     1       5.753  43.318  50.426  1.00  0.00     0.006 A 
ATOM     26  C   UNL     1       7.501  44.928  50.975  1.00  0.00    -0.014 A 
ATOM     27  C   UNL     1       9.060  47.958  53.593  1.00  0.00     0.000 A 
ATOM     28  C   UNL     1       9.413  46.032  52.171  1.00  0.00     0.009 A 
ATOM     29  C   UNL     1       6.412  43.008  49.235  1.00  0.00     0.000 A 
ATOM     30  C   UNL     1       8.157  44.597  49.776  1.00  0.00     0.009 A 
ATOM     31  C   UNL     1       9.915  47.007  53.035  1.00  0.00     0.001 A 
ATOM     32  C   UNL     1       7.612  43.642  48.913  1.00  0.00     0.001 A 
ENDBRANCH  15  18
ENDBRANCH  10  15
TORSDOF 2
ENDMDL
MODEL 2
REMARK VINA RESULT:   -10.732      2.185      8.438
REMARK INTER + INTRA:         -12.020
REMARK INTER:                 -11.611
REMARK INTRA:                  -0.409
REMARK UNBOUND:                -0.033
REMARK SMILES CN1C(=O)c2cccc3c(S(=O)(=O)N4Cc5ccccc5-c5ccccc5C4)ccc1c23
REMARK SMILES IDX 1 1 2 2 3 3 4 4 5 5 6 6 7 7 8 8 9 9 10 10 29 11 30 12 31 13
REMARK SMILES IDX 32 14 11 15 12 16 13 17 14 18 15 19 28 20 16 21 27 22 17 23
REMARK SMILES IDX 21 24 26 25 22 26 18 27 20 28 25 29 23 30 19 31 24 32
REMARK H PARENT
ROOT
ATOM      1  C   UNL     1       9.314  47.927  54.759  1.00  0.00     0.153 C 
ATOM      2  N   UNL     1       8.839  46.896  53.845  1.00  0.00    -0.311 N 
ATOM      3  C   UNL     1       9.452  46.532  52.597  1.00  0.00     0.258 C 
ATOM      4  O   UNL     1      10.646  46.787  52.288  1.00  0.00    -0.269 OA
ATOM      5  C   UNL     1       8.467  45.876  51.741  1.00  0.00     0.050 A 
ATOM      6  C   UNL     1       8.507  45.336  50.457  1.00  0.00     0.014 A 
ATOM      7  C   UNL     1       7.306  44.809  49.929  1.00  0.00     0.002 A 
ATOM      8  C   UNL     1       6.103  44.846  50.680  1.00  0.00     0.010 A 
ATOM      9  C   UNL     1       6.094  45.411  51.978  1.00  0.00     0.005 A 
ATOM     10  C   UNL     1       4.969  45.542  52.832  1.00  0.00     0.090 A 
ATOM     11  C   UNL     1       5.132  46.160  54.105  1.00  0.00     0.024 A 
ATOM     12  C   UNL     1       6.391  46.646  54.529  1.00  0.00     0.028 A 
ATOM     13  C   UNL     1       7.476  46.490  53.669  1.00  0.00     0.052 A 
ATOM     14  C   UNL     1       7.305  45.895  52.451  1.00  0.00     0.020 A 
ENDROOT
BRANCH  10  15
ATOM     15  S   UNL     1       3.377  44.936  52.357  1.00  0.00     0.244 S 
ATOM     16  O   UNL     1       3.080  45.328  50.935  1.00  0.00    -0.207 OA
ATOM     17  O   UNL     1       3.391  43.435  52.446  1.00  0.00    -0.207 OA
BRANCH  15  18
ATOM     18  N   UNL     1       2.141  45.581  53.414  1.00  0.00    -0.189 NA
ATOM     19  C   UNL     1       0.921  45.927  52.648  1.00  0.00     0.139 C 
ATOM     20  C   UNL     1       1.934  44.655  54.549  1.00  0.00     0.139 C 
ATOM     21  C   UNL     1       0.002  44.747  52.405  1.00  0.00    -0.025 A 
ATOM     22  C   UNL     1       0.701  44.989  55.363  1.00  0.00    -0.025 A 
ATOM     23  C   UNL     1      -0.130  44.218  51.110  1.00  0.00     0.006 A 
ATOM     24  C   UNL     1      -0.757  44.197  53.465  1.00  0.00    -0.014 A 
ATOM     25  C   UNL     1       0.833  45.546  56.646  1.00  0.00     0.006 A 
ATOM     26  C   UNL     1      -0.591  44.709  54.853  1.00  0.00    -0.014 A 
ATOM     27  C   UNL     1      -1.007  43.159  50.867  1.00  0.00     0.000 A 
ATOM     28  C   UNL     1      -1.642  43.136  53.202  1.00  0.00     0.009 A 
ATOM     29  C   UNL     1      -0.297  45.808  57.423  1.00  0.00     0.000 A 
ATOM     30  C   UNL     1      -1.719  44.970  55.652  1.00  0.00     0.009 A 
ATOM     31  C   UNL     1      -1.763  42.622  51.909  1.00  0.00     0.001 A 
ATOM     32  C   UNL     1      -1.569  45.518  56.929  1.00  0.00     0.001 A 
ENDBRANCH  15  18
ENDBRANCH  10  15
TORSDOF 2
ENDMDL
MODEL 3
REMARK VINA RESULT:   -10.560      2.005      8.223
REMARK INTER + INTRA:         -11.828
REMARK INTER:                 -11.805
REMARK INTRA:                  -0.023
REMARK UNBOUND:                -0.033
REMARK SMILES CN1C(=O)c2cccc3c(S(=O)(=O)N4Cc5ccccc5-c5ccccc5C4)ccc1c23
REMARK SMILES IDX 1 1 2 2 3 3 4 4 5 5 6 6 7 7 8 8 9 9 10 10 29 11 30 12 31 13
REMARK SMILES IDX 32 14 11 15 12 16 13 17 14 18 15 19 28 20 16 21 27 22 17 23
REMARK SMILES IDX 21 24 26 25 22 26 18 27 20 28 25 29 23 30 19 31 24 32
REMARK H PARENT
ROOT
ATOM      1  C   UNL     1       8.753  44.264  49.301  1.00  0.00     0.153 C 
ATOM      2  N   UNL     1       8.323  45.224  50.309  1.00  0.00    -0.311 N 
ATOM      3  C   UNL     1       9.168  45.849  51.289  1.00  0.00     0.258 C 
ATOM      4  O   UNL     1      10.421  45.936  51.198  1.00  0.00    -0.269 OA
ATOM      5  C   UNL     1       8.357  46.313  52.411  1.00  0.00     0.050 A 
ATOM      6  C   UNL     1       8.643  46.966  53.609  1.00  0.00     0.014 A 
ATOM      7  C   UNL     1       7.568  47.219  54.491  1.00  0.00     0.002 A 
ATOM      8  C   UNL     1       6.249  46.807  54.169  1.00  0.00     0.010 A 
ATOM      9  C   UNL     1       5.994  46.136  52.948  1.00  0.00     0.005 A 
ATOM     10  C   UNL     1       4.739  45.644  52.505  1.00  0.00     0.090 A 
ATOM     11  C   UNL     1       4.663  44.968  51.253  1.00  0.00     0.024 A 
ATOM     12  C   UNL     1       5.811  44.779  50.450  1.00  0.00     0.028 A 
ATOM     13  C   UNL     1       7.024  45.286  50.912  1.00  0.00     0.052 A 
ATOM     14  C   UNL     1       7.083  45.933  52.115  1.00  0.00     0.020 A 
ENDROOT
BRANCH  10  15
ATOM     15  S   UNL     1       3.271  45.869  53.463  1.00  0.00     0.244 S 
ATOM     16  O   UNL     1       3.589  45.755  54.929  1.00  0.00    -0.207 OA
ATOM     17  O   UNL     1       2.733  47.248  53.197  1.00  0.00    -0.207 OA
BRANCH  15  18
ATOM     18  N   UNL     1       2.071  44.672  53.028  1.00  0.00    -0.189 NA
ATOM     19  C   UNL     1       1.646  43.896  54.217  1.00  0.00     0.139 C 
ATOM     20  C   UNL     1       0.978  45.323  52.273  1.00  0.00     0.139 C 
ATOM     21  C   UNL     1       0.568  44.580  55.033  1.00  0.00    -0.025 A 
ATOM     22  C   UNL     1      -0.228  44.425  52.094  1.00  0.00    -0.025 A 
ATOM     23  C   UNL     1       0.876  45.103  56.301  1.00  0.00     0.006 A 
ATOM     24  C   UNL     1      -0.759  44.662  54.547  1.00  0.00    -0.014 A 
ATOM     25  C   UNL     1      -0.519  43.878  50.833  1.00  0.00     0.006 A 
ATOM     26  C   UNL     1      -1.092  44.161  53.186  1.00  0.00    -0.014 A 
ATOM     27  C   UNL     1      -0.120  45.696  57.080  1.00  0.00     0.000 A 
ATOM     28  C   UNL     1      -1.751  45.255  55.348  1.00  0.00     0.009 A 
ATOM     29  C   UNL     1      -1.658  43.093  50.649  1.00  0.00     0.000 A 
ATOM     30  C   UNL     1      -2.241  43.376  52.981  1.00  0.00     0.009 A 
ATOM     31  C   UNL     1      -1.430  45.769  56.606  1.00  0.00     0.001 A 
ATOM     32  C   UNL     1      -2.518  42.845  51.718  1.00  0.00     0.001 A 
ENDBRANCH  15  18
ENDBRANCH  10  15
TORSDOF 2
ENDMDL
MODEL 4
REMARK VINA RESULT:   -10.390      2.226      8.176
REMARK INTER + INTRA:         -11.638
REMARK INTER:                 -11.386
REMARK INTRA:                  -0.252
REMARK UNBOUND:                -0.033
REMARK SMILES CN1C(=O)c2cccc3c(S(=O)(=O)N4Cc5ccccc5-c5ccccc5C4)ccc1c23
REMARK SMILES IDX 1 1 2 2 3 3 4 4 5 5 6 6 7 7 8 8 9 9 10 10 29 11 30 12 31 13
REMARK SMILES IDX 32 14 11 15 12 16 13 17 14 18 15 19 28 20 16 21 27 22 17 23
REMARK SMILES IDX 21 24 26 25 22 26 18 27 20 28 25 29 23 30 19 31 24 32
REMARK H PARENT
ROOT
ATOM      1  C   UNL     1       6.379  41.481  49.169  1.00  0.00     0.153 C 
ATOM      2  N   UNL     1       6.185  42.848  49.635  1.00  0.00    -0.311 N 
ATOM      3  C   UNL     1       7.200  43.864  49.706  1.00  0.00     0.258 C 
ATOM      4  O   UNL     1       8.282  43.836  49.063  1.00  0.00    -0.269 OA
ATOM      5  C   UNL     1       6.801  44.888  50.667  1.00  0.00     0.050 A 
ATOM      6  C   UNL     1       7.386  46.067  51.126  1.00  0.00     0.014 A 
ATOM      7  C   UNL     1       6.698  46.797  52.121  1.00  0.00     0.002 A 
ATOM      8  C   UNL     1       5.463  46.333  52.642  1.00  0.00     0.010 A 
ATOM      9  C   UNL     1       4.900  45.125  52.162  1.00  0.00     0.005 A 
ATOM     10  C   UNL     1       3.692  44.526  52.603  1.00  0.00     0.090 A 
ATOM     11  C   UNL     1       3.280  43.290  52.026  1.00  0.00     0.024 A 
ATOM     12  C   UNL     1       4.052  42.653  51.027  1.00  0.00     0.028 A 
ATOM     13  C   UNL     1       5.227  43.277  50.610  1.00  0.00     0.052 A 
ATOM     14  C   UNL     1       5.609  44.463  51.172  1.00  0.00     0.020 A 
ENDROOT
BRANCH  10  15
ATOM     15  S   UNL     1       2.683  45.289  53.837  1.00  0.00     0.244 S 
ATOM     16  O   UNL     1       3.394  45.282  55.163  1.00  0.00    -0.207 OA
ATOM     17  O   UNL     1       2.435  46.717  53.436  1.00  0.00    -0.207 OA
BRANCH  15  18
ATOM     18  N   UNL     1       1.158  44.443  53.984  1.00  0.00    -0.189 NA
ATOM     19  C   UNL     1       0.903  44.058  55.392  1.00  0.00     0.139 C 
ATOM     20  C   UNL     1       0.090  45.240  53.344  1.00  0.00     0.139 C 
ATOM     21  C   UNL     1       0.290  45.167  56.223  1.00  0.00    -0.025 A 
ATOM     22  C   UNL     1      -1.299  44.724  53.659  1.00  0.00    -0.025 A 
ATOM     23  C   UNL     1       1.052  45.796  57.223  1.00  0.00     0.006 A 
ATOM     24  C   UNL     1      -1.059  45.549  56.029  1.00  0.00    -0.014 A 
ATOM     25  C   UNL     1      -2.049  44.068  52.668  1.00  0.00     0.006 A 
ATOM     26  C   UNL     1      -1.865  44.931  54.941  1.00  0.00    -0.014 A 
ATOM     27  C   UNL     1       0.483  46.789  58.023  1.00  0.00     0.000 A 
ATOM     28  C   UNL     1      -1.619  46.544  56.849  1.00  0.00     0.009 A 
ATOM     29  C   UNL     1      -3.349  43.636  52.935  1.00  0.00     0.000 A 
ATOM     30  C   UNL     1      -3.180  44.498  55.191  1.00  0.00     0.009 A 
ATOM     31  C   UNL     1      -0.849  47.159  57.839  1.00  0.00     0.001 A 
ATOM     32  C   UNL     1      -3.914  43.853  54.192  1.00  0.00     0.001 A 
ENDBRANCH  15  18
ENDBRANCH  10  15
TORSDOF 2
ENDMDL
MODEL 5
REMARK VINA RESULT:    -9.678      2.291      8.542
REMARK INTER + INTRA:         -10.842
REMARK INTER:                 -11.172
REMARK INTRA:                   0.330
REMARK UNBOUND:                -0.033
REMARK SMILES CN1C(=O)c2cccc3c(S(=O)(=O)N4Cc5ccccc5-c5ccccc5C4)ccc1c23
REMARK SMILES IDX 1 1 2 2 3 3 4 4 5 5 6 6 7 7 8 8 9 9 10 10 29 11 30 12 31 13
REMARK SMILES IDX 32 14 11 15 12 16 13 17 14 18 15 19 28 20 16 21 27 22 17 23
REMARK SMILES IDX 21 24 26 25 22 26 18 27 20 28 25 29 23 30 19 31 24 32
REMARK H PARENT
ROOT
ATOM      1  C   UNL     1       9.715  45.668  50.832  1.00  0.00     0.153 C 
ATOM      2  N   UNL     1       8.520  46.139  51.520  1.00  0.00    -0.311 N 
ATOM      3  C   UNL     1       8.493  46.828  52.781  1.00  0.00     0.258 C 
ATOM      4  O   UNL     1       9.479  47.428  53.287  1.00  0.00    -0.269 OA
ATOM      5  C   UNL     1       7.176  46.679  53.393  1.00  0.00     0.050 A 
ATOM      6  C   UNL     1       6.605  47.123  54.585  1.00  0.00     0.014 A 
ATOM      7  C   UNL     1       5.275  46.731  54.861  1.00  0.00     0.002 A 
ATOM      8  C   UNL     1       4.558  45.903  53.960  1.00  0.00     0.010 A 
ATOM      9  C   UNL     1       5.171  45.460  52.763  1.00  0.00     0.005 A 
ATOM     10  C   UNL     1       4.591  44.612  51.784  1.00  0.00     0.090 A 
ATOM     11  C   UNL     1       5.360  44.243  50.643  1.00  0.00     0.024 A 
ATOM     12  C   UNL     1       6.685  44.704  50.470  1.00  0.00     0.028 A 
ATOM     13  C   UNL     1       7.218  45.546  51.446  1.00  0.00     0.052 A 
ATOM     14  C   UNL     1       6.468  45.891  52.536  1.00  0.00     0.020 A 
ENDROOT
BRANCH  10  15
ATOM     15  S   UNL     1       2.932  44.021  51.944  1.00  0.00     0.244 S 
ATOM     16  O   UNL     1       2.231  44.085  50.614  1.00  0.00    -0.207 OA
ATOM     17  O   UNL     1       2.977  42.586  52.392  1.00  0.00    -0.207 OA
BRANCH  15  18
ATOM     18  N   UNL     1       2.056  44.979  53.117  1.00  0.00    -0.189 NA
ATOM     19  C   UNL     1       0.892  45.647  52.487  1.00  0.00     0.139 C 
ATOM     20  C   UNL     1       1.743  44.145  54.298  1.00  0.00     0.139 C 
ATOM     21  C   UNL     1      -0.336  44.763  52.391  1.00  0.00    -0.025 A 
ATOM     22  C   UNL     1       0.756  44.805  55.238  1.00  0.00    -0.025 A 
ATOM     23  C   UNL     1      -0.763  44.291  51.138  1.00  0.00     0.006 A 
ATOM     24  C   UNL     1      -1.081  44.442  53.550  1.00  0.00    -0.014 A 
ATOM     25  C   UNL     1       1.189  45.304  56.478  1.00  0.00     0.006 A 
ATOM     26  C   UNL     1      -0.616  44.889  54.891  1.00  0.00    -0.014 A 
ATOM     27  C   UNL     1      -1.917  43.513  51.034  1.00  0.00     0.000 A 
ATOM     28  C   UNL     1      -2.247  43.664  53.427  1.00  0.00     0.009 A 
ATOM     29  C   UNL     1       0.275  45.865  57.372  1.00  0.00     0.000 A 
ATOM     30  C   UNL     1      -1.524  45.449  55.807  1.00  0.00     0.009 A 
ATOM     31  C   UNL     1      -2.659  43.203  52.175  1.00  0.00     0.001 A 
ATOM     32  C   UNL     1      -1.077  45.935  57.039  1.00  0.00     0.001 A 
ENDBRANCH  15  18
ENDBRANCH  10  15
TORSDOF 2
ENDMDL
