ligand_55_conformer_1_docked
     RDKit          3D

 39 41  0  0  0  0  0  0  0  0999 V2000
    0.3060   42.4290   53.4900 O   0  0  0  0  0  0  0  0  0  0  0  0
    1.4050   43.0250   53.3310 C   0  0  0  0  0  0  0  0  0  0  0  0
    1.5730   44.4180   53.8640 C   0  0  0  0  0  0  0  0  0  0  0  0
    3.0470   44.7510   54.0990 C   0  0  0  0  0  0  0  0  0  0  0  0
    3.8880   44.4110   52.8610 C   0  0  1  0  0  0  0  0  0  0  0  0
    5.2770   44.8300   53.0800 N   0  0  0  0  0  0  0  0  0  0  0  0
    5.7470   46.1500   52.7610 C   0  0  0  0  0  0  0  0  0  0  0  0
    4.9410   47.0210   52.3340 O   0  0  0  0  0  0  0  0  0  0  0  0
    7.1810   46.4930   52.8770 C   0  0  0  0  0  0  0  0  0  0  0  0
    7.7080   46.8770   54.1200 C   0  0  0  0  0  0  0  0  0  0  0  0
    9.0570   47.2130   54.2360 C   0  0  0  0  0  0  0  0  0  0  0  0
    9.8760   47.1550   53.1090 C   0  0  0  0  0  0  0  0  0  0  0  0
    9.3610   46.7650   51.9140 N   0  0  0  0  0  0  0  0  0  0  0  0
    8.0480   46.4360   51.7690 C   0  0  0  0  0  0  0  0  0  0  0  0
    7.6100   46.0080   50.5590 F   0  0  0  0  0  0  0  0  0  0  0  0
    3.8310   42.8890   52.5850 C   0  0  2  0  0  0  0  0  0  0  0  0
    4.5160   42.5600   51.2750 C   0  0  0  0  0  0  0  0  0  0  0  0
    4.1210   41.4320   50.5360 C   0  0  0  0  0  0  0  0  0  0  0  0
    4.7910   41.0870   49.3590 C   0  0  0  0  0  0  0  0  0  0  0  0
    5.8640   41.8620   48.9110 C   0  0  0  0  0  0  0  0  0  0  0  0
    6.2700   42.9810   49.6420 C   0  0  0  0  0  0  0  0  0  0  0  0
    5.6050   43.3280   50.8210 C   0  0  0  0  0  0  0  0  0  0  0  0
    2.4480   42.3980   52.5730 N   0  0  0  0  0  0  0  0  0  0  0  0
    1.1561   45.1317   53.1382 H   0  0  0  0  0  0  0  0  0  0  0  0
    1.0446   44.4867   54.8263 H   0  0  0  0  0  0  0  0  0  0  0  0
    3.1436   45.8249   54.3165 H   0  0  0  0  0  0  0  0  0  0  0  0
    3.4120   44.1535   54.9474 H   0  0  0  0  0  0  0  0  0  0  0  0
    3.4822   44.9450   51.9891 H   0  0  0  0  0  0  0  0  0  0  0  0
    5.9820   44.0810   53.2690 H   0  0  0  0  0  0  0  0  0  0  0  0
    7.0556   46.9131   55.0049 H   0  0  0  0  0  0  0  0  0  0  0  0
    9.4708   47.5209   55.2076 H   0  0  0  0  0  0  0  0  0  0  0  0
   10.9394   47.4251   53.1876 H   0  0  0  0  0  0  0  0  0  0  0  0
    4.3641   42.3814   53.4024 H   0  0  0  0  0  0  0  0  0  0  0  0
    3.2791   40.8166   50.8861 H   0  0  0  0  0  0  0  0  0  0  0  0
    4.4733   40.2043   48.7846 H   0  0  0  0  0  0  0  0  0  0  0  0
    6.3888   41.5910   47.9830 H   0  0  0  0  0  0  0  0  0  0  0  0
    7.1150   43.5903   49.2888 H   0  0  0  0  0  0  0  0  0  0  0  0
    5.9340   44.2054   51.3971 H   0  0  0  0  0  0  0  0  0  0  0  0
    2.2670   41.4410   52.1930 H   0  0  0  0  0  0  0  0  0  0  0  0
  1  2  2  0
  2  3  1  0
  3  4  1  0
  4  5  1  0
  5  6  1  0
  6  7  1  0
  7  8  2  0
  7  9  1  0
  9 10  2  0
 10 11  1  0
 11 12  2  0
 12 13  1  0
 13 14  2  0
 14 15  1  0
  5 16  1  0
 16 17  1  0
 17 18  2  0
 18 19  1  0
 19 20  2  0
 20 21  1  0
 21 22  2  0
 16 23  1  0
 23  2  1  0
 14  9  1  0
 22 17  1  0
  3 24  1  0
  3 25  1  0
  4 26  1  0
  4 27  1  0
  5 28  1  6
  6 29  1  0
 10 30  1  0
 11 31  1  0
 12 32  1  0
 16 33  1  1
 18 34  1  0
 19 35  1  0
 20 36  1  0
 21 37  1  0
 22 38  1  0
 23 39  1  0
M  END
>  <meeko>  (1) 
{"is_sidechain": [false], "free_energy": -9.68, "intermolecular_energy": -11.377, "internal_energy": -0.129}

$$$$
ligand_55_conformer_1_docked
     RDKit          3D

 39 41  0  0  0  0  0  0  0  0999 V2000
    9.1600   48.6130   55.1380 O   0  0  0  0  0  0  0  0  0  0  0  0
    8.6280   47.8000   54.3370 C   0  0  0  0  0  0  0  0  0  0  0  0
    9.2720   47.5450   53.0050 C   0  0  0  0  0  0  0  0  0  0  0  0
    8.8590   46.1880   52.4350 C   0  0  0  0  0  0  0  0  0  0  0  0
    7.3340   46.0190   52.4750 C   0  0  1  0  0  0  0  0  0  0  0  0
    6.9630   44.7520   51.8360 N   0  0  0  0  0  0  0  0  0  0  0  0
    5.9240   44.6580   50.8470 C   0  0  0  0  0  0  0  0  0  0  0  0
    5.3350   45.7010   50.4500 O   0  0  0  0  0  0  0  0  0  0  0  0
    5.4930   43.3450   50.3210 C   0  0  0  0  0  0  0  0  0  0  0  0
    6.1590   42.7830   49.2210 C   0  0  0  0  0  0  0  0  0  0  0  0
    5.7520   41.5490   48.7110 C   0  0  0  0  0  0  0  0  0  0  0  0
    4.6860   40.8790   49.3090 C   0  0  0  0  0  0  0  0  0  0  0  0
    4.0600   41.4230   50.3850 N   0  0  0  0  0  0  0  0  0  0  0  0
    4.4310   42.6270   50.9020 C   0  0  0  0  0  0  0  0  0  0  0  0
    3.7950   43.0890   52.0070 F   0  0  0  0  0  0  0  0  0  0  0  0
    6.8390   46.0370   53.9410 C   0  0  2  0  0  0  0  0  0  0  0  0
    5.3240   46.0410   53.9900 C   0  0  0  0  0  0  0  0  0  0  0  0
    4.6380   45.0050   54.6470 C   0  0  0  0  0  0  0  0  0  0  0  0
    3.2410   44.9680   54.6410 C   0  0  0  0  0  0  0  0  0  0  0  0
    2.5160   45.9610   53.9760 C   0  0  0  0  0  0  0  0  0  0  0  0
    3.1890   46.9900   53.3130 C   0  0  0  0  0  0  0  0  0  0  0  0
    4.5860   47.0290   53.3130 C   0  0  0  0  0  0  0  0  0  0  0  0
    7.3730   47.1920   54.6730 N   0  0  0  0  0  0  0  0  0  0  0  0
    8.9673   48.3354   52.3033 H   0  0  0  0  0  0  0  0  0  0  0  0
   10.3633   47.5442   53.1432 H   0  0  0  0  0  0  0  0  0  0  0  0
    9.2023   46.1156   51.3924 H   0  0  0  0  0  0  0  0  0  0  0  0
    9.3168   45.3959   53.0458 H   0  0  0  0  0  0  0  0  0  0  0  0
    6.8625   46.8506   51.9308 H   0  0  0  0  0  0  0  0  0  0  0  0
    7.3190   43.8710   52.2710 H   0  0  0  0  0  0  0  0  0  0  0  0
    7.0035   43.3160   48.7597 H   0  0  0  0  0  0  0  0  0  0  0  0
    6.2680   41.1092   47.8448 H   0  0  0  0  0  0  0  0  0  0  0  0
    4.3517   39.9100   48.9098 H   0  0  0  0  0  0  0  0  0  0  0  0
    7.2097   45.1240   54.4298 H   0  0  0  0  0  0  0  0  0  0  0  0
    5.2038   44.2191   55.1687 H   0  0  0  0  0  0  0  0  0  0  0  0
    2.7110   44.1560   55.1605 H   0  0  0  0  0  0  0  0  0  0  0  0
    1.4164   45.9322   53.9748 H   0  0  0  0  0  0  0  0  0  0  0  0
    2.6182   47.7713   52.7898 H   0  0  0  0  0  0  0  0  0  0  0  0
    5.1110   47.8361   52.7811 H   0  0  0  0  0  0  0  0  0  0  0  0
    6.9490   47.4300   55.5990 H   0  0  0  0  0  0  0  0  0  0  0  0
  1  2  2  0
  2  3  1  0
  3  4  1  0
  4  5  1  0
  5  6  1  0
  6  7  1  0
  7  8  2  0
  7  9  1  0
  9 10  2  0
 10 11  1  0
 11 12  2  0
 12 13  1  0
 13 14  2  0
 14 15  1  0
  5 16  1  0
 16 17  1  0
 17 18  2  0
 18 19  1  0
 19 20  2  0
 20 21  1  0
 21 22  2  0
 16 23  1  0
 23  2  1  0
 14  9  1  0
 22 17  1  0
  3 24  1  0
  3 25  1  0
  4 26  1  0
  4 27  1  0
  5 28  1  6
  6 29  1  0
 10 30  1  0
 11 31  1  0
 12 32  1  0
 16 33  1  1
 18 34  1  0
 19 35  1  0
 20 36  1  0
 21 37  1  0
 22 38  1  0
 23 39  1  0
M  END
>  <meeko>  (2) 
{"is_sidechain": [false], "free_energy": -9.295, "intermolecular_energy": -9.965, "internal_energy": -1.089}

$$$$
ligand_55_conformer_1_docked
     RDKit          3D

 39 41  0  0  0  0  0  0  0  0999 V2000
   -1.9620   44.9410   52.7900 O   0  0  0  0  0  0  0  0  0  0  0  0
   -0.7680   44.7240   52.4530 C   0  0  0  0  0  0  0  0  0  0  0  0
   -0.4060   43.4140   51.8160 C   0  0  0  0  0  0  0  0  0  0  0  0
    0.8720   43.5310   50.9840 C   0  0  0  0  0  0  0  0  0  0  0  0
    1.9900   44.2050   51.7910 C   0  0  1  0  0  0  0  0  0  0  0  0
    3.2270   44.2170   51.0020 N   0  0  0  0  0  0  0  0  0  0  0  0
    4.4940   43.8110   51.5440 C   0  0  0  0  0  0  0  0  0  0  0  0
    4.5630   43.3620   52.7210 O   0  0  0  0  0  0  0  0  0  0  0  0
    5.7370   43.9580   50.7570 C   0  0  0  0  0  0  0  0  0  0  0  0
    6.1360   42.9330   49.8840 C   0  0  0  0  0  0  0  0  0  0  0  0
    7.3140   43.0590   49.1470 C   0  0  0  0  0  0  0  0  0  0  0  0
    8.0840   44.2140   49.2790 C   0  0  0  0  0  0  0  0  0  0  0  0
    7.6810   45.2070   50.1120 N   0  0  0  0  0  0  0  0  0  0  0  0
    6.5400   45.1120   50.8480 C   0  0  0  0  0  0  0  0  0  0  0  0
    6.1710   46.1610   51.6240 F   0  0  0  0  0  0  0  0  0  0  0  0
    1.5800   45.6530   52.1550 C   0  0  2  0  0  0  0  0  0  0  0  0
    2.5970   46.2740   53.0900 C   0  0  0  0  0  0  0  0  0  0  0  0
    3.3360   47.3980   52.6830 C   0  0  0  0  0  0  0  0  0  0  0  0
    4.3200   47.9360   53.5170 C   0  0  0  0  0  0  0  0  0  0  0  0
    4.5790   47.3550   54.7620 C   0  0  0  0  0  0  0  0  0  0  0  0
    3.8550   46.2330   55.1720 C   0  0  0  0  0  0  0  0  0  0  0  0
    2.8730   45.6890   54.3410 C   0  0  0  0  0  0  0  0  0  0  0  0
    0.2420   45.6960   52.7570 N   0  0  0  0  0  0  0  0  0  0  0  0
   -0.2517   42.6632   52.6050 H   0  0  0  0  0  0  0  0  0  0  0  0
   -1.2274   43.1158   51.1479 H   0  0  0  0  0  0  0  0  0  0  0  0
    1.2003   42.5248   50.6844 H   0  0  0  0  0  0  0  0  0  0  0  0
    0.6592   44.1453   50.0967 H   0  0  0  0  0  0  0  0  0  0  0  0
    2.1583   43.6398   52.7196 H   0  0  0  0  0  0  0  0  0  0  0  0
    3.2150   44.7380   50.0960 H   0  0  0  0  0  0  0  0  0  0  0  0
    5.5184   42.0286   49.7810 H   0  0  0  0  0  0  0  0  0  0  0  0
    7.6324   42.2544   48.4679 H   0  0  0  0  0  0  0  0  0  0  0  0
    9.0181   44.3204   48.7080 H   0  0  0  0  0  0  0  0  0  0  0  0
    1.5510   46.2364   51.2229 H   0  0  0  0  0  0  0  0  0  0  0  0
    3.1389   47.8567   51.7028 H   0  0  0  0  0  0  0  0  0  0  0  0
    4.8918   48.8182   53.1933 H   0  0  0  0  0  0  0  0  0  0  0  0
    5.3523   47.7811   55.4181 H   0  0  0  0  0  0  0  0  0  0  0  0
    4.0588   45.7767   56.1519 H   0  0  0  0  0  0  0  0  0  0  0  0
    2.3127   44.7996   54.6651 H   0  0  0  0  0  0  0  0  0  0  0  0
   -0.0570   46.5780   53.2330 H   0  0  0  0  0  0  0  0  0  0  0  0
  1  2  2  0
  2  3  1  0
  3  4  1  0
  4  5  1  0
  5  6  1  0
  6  7  1  0
  7  8  2  0
  7  9  1  0
  9 10  2  0
 10 11  1  0
 11 12  2  0
 12 13  1  0
 13 14  2  0
 14 15  1  0
  5 16  1  0
 16 17  1  0
 17 18  2  0
 18 19  1  0
 19 20  2  0
 20 21  1  0
 21 22  2  0
 16 23  1  0
 23  2  1  0
 14  9  1  0
 22 17  1  0
  3 24  1  0
  3 25  1  0
  4 26  1  0
  4 27  1  0
  5 28  1  1
  6 29  1  0
 10 30  1  0
 11 31  1  0
 12 32  1  0
 16 33  1  6
 18 34  1  0
 19 35  1  0
 20 36  1  0
 21 37  1  0
 22 38  1  0
 23 39  1  0
M  END
>  <meeko>  (3) 
{"is_sidechain": [false], "free_energy": -9.12, "intermolecular_energy": -9.762, "internal_energy": -1.086}

$$$$
ligand_55_conformer_1_docked
     RDKit          3D

 39 41  0  0  0  0  0  0  0  0999 V2000
    9.1020   47.4400   51.3500 O   0  0  0  0  0  0  0  0  0  0  0  0
    8.0320   46.9350   51.7830 C   0  0  0  0  0  0  0  0  0  0  0  0
    7.5600   47.2770   53.1660 C   0  0  0  0  0  0  0  0  0  0  0  0
    6.0520   47.0690   53.3090 C   0  0  0  0  0  0  0  0  0  0  0  0
    5.6400   45.6830   52.7940 C   0  0  1  0  0  0  0  0  0  0  0  0
    4.2080   45.4760   53.0320 N   0  0  0  0  0  0  0  0  0  0  0  0
    3.6860   45.0630   54.3060 C   0  0  0  0  0  0  0  0  0  0  0  0
    4.4620   44.9290   55.2920 O   0  0  0  0  0  0  0  0  0  0  0  0
    2.2520   44.7420   54.4710 C   0  0  0  0  0  0  0  0  0  0  0  0
    1.6240   43.8720   53.5670 C   0  0  0  0  0  0  0  0  0  0  0  0
    0.2690   43.5720   53.7080 C   0  0  0  0  0  0  0  0  0  0  0  0
   -0.4510   44.1370   54.7600 C   0  0  0  0  0  0  0  0  0  0  0  0
    0.1700   44.9640   55.6410 N   0  0  0  0  0  0  0  0  0  0  0  0
    1.4890   45.2790   55.5260 C   0  0  0  0  0  0  0  0  0  0  0  0
    2.0580   46.0720   56.4680 F   0  0  0  0  0  0  0  0  0  0  0  0
    5.9480   45.5680   51.2820 C   0  0  2  0  0  0  0  0  0  0  0  0
    5.7040   44.1550   50.7950 C   0  0  0  0  0  0  0  0  0  0  0  0
    4.6110   43.4180   51.2860 C   0  0  0  0  0  0  0  0  0  0  0  0
    4.4180   42.0920   50.8890 C   0  0  0  0  0  0  0  0  0  0  0  0
    5.3150   41.4870   50.0040 C   0  0  0  0  0  0  0  0  0  0  0  0
    6.4080   42.2080   49.5180 C   0  0  0  0  0  0  0  0  0  0  0  0
    6.6080   43.5330   49.9140 C   0  0  0  0  0  0  0  0  0  0  0  0
    7.3250   45.9790   50.9820 N   0  0  0  0  0  0  0  0  0  0  0  0
    8.0802   46.6336   53.8909 H   0  0  0  0  0  0  0  0  0  0  0  0
    7.7823   48.3376   53.3549 H   0  0  0  0  0  0  0  0  0  0  0  0
    5.7753   47.1560   54.3701 H   0  0  0  0  0  0  0  0  0  0  0  0
    5.5332   47.8343   52.7131 H   0  0  0  0  0  0  0  0  0  0  0  0
    6.2111   44.9118   53.3317 H   0  0  0  0  0  0  0  0  0  0  0  0
    3.5840   45.4190   52.1950 H   0  0  0  0  0  0  0  0  0  0  0  0
    2.2019   43.4251   52.7446 H   0  0  0  0  0  0  0  0  0  0  0  0
   -0.2269   42.8960   52.9959 H   0  0  0  0  0  0  0  0  0  0  0  0
   -1.5217   43.9131   54.8766 H   0  0  0  0  0  0  0  0  0  0  0  0
    5.2675   46.2496   50.7506 H   0  0  0  0  0  0  0  0  0  0  0  0
    3.9045   43.8879   51.9861 H   0  0  0  0  0  0  0  0  0  0  0  0
    3.5586   41.5233   51.2737 H   0  0  0  0  0  0  0  0  0  0  0  0
    5.1602   40.4440   49.6906 H   0  0  0  0  0  0  0  0  0  0  0  0
    7.1134   41.7314   48.8215 H   0  0  0  0  0  0  0  0  0  0  0  0
    7.4761   44.0925   49.5353 H   0  0  0  0  0  0  0  0  0  0  0  0
    7.7150   45.7480   50.0390 H   0  0  0  0  0  0  0  0  0  0  0  0
  1  2  2  0
  2  3  1  0
  3  4  1  0
  4  5  1  0
  5  6  1  0
  6  7  1  0
  7  8  2  0
  7  9  1  0
  9 10  2  0
 10 11  1  0
 11 12  2  0
 12 13  1  0
 13 14  2  0
 14 15  1  0
  5 16  1  0
 16 17  1  0
 17 18  2  0
 18 19  1  0
 19 20  2  0
 20 21  1  0
 21 22  2  0
 16 23  1  0
 23  2  1  0
 14  9  1  0
 22 17  1  0
  3 24  1  0
  3 25  1  0
  4 26  1  0
  4 27  1  0
  5 28  1  1
  6 29  1  0
 10 30  1  0
 11 31  1  0
 12 32  1  0
 16 33  1  6
 18 34  1  0
 19 35  1  0
 20 36  1  0
 21 37  1  0
 22 38  1  0
 23 39  1  0
M  END
>  <meeko>  (4) 
{"is_sidechain": [false], "free_energy": -8.773, "intermolecular_energy": -10.433, "internal_energy": -0.008}

$$$$
ligand_55_conformer_1_docked
     RDKit          3D

 39 41  0  0  0  0  0  0  0  0999 V2000
    9.0150   47.6090   51.5510 O   0  0  0  0  0  0  0  0  0  0  0  0
    7.9560   47.0100   51.8740 C   0  0  0  0  0  0  0  0  0  0  0  0
    7.3520   47.2540   53.2260 C   0  0  0  0  0  0  0  0  0  0  0  0
    5.8570   46.9330   53.2370 C   0  0  0  0  0  0  0  0  0  0  0  0
    5.5920   45.5460   52.6350 C   0  0  1  0  0  0  0  0  0  0  0  0
    4.1650   45.2270   52.7470 N   0  0  0  0  0  0  0  0  0  0  0  0
    3.5440   44.8800   53.9960 C   0  0  0  0  0  0  0  0  0  0  0  0
    4.2170   44.9050   55.0630 O   0  0  0  0  0  0  0  0  0  0  0  0
    2.1330   44.4410   54.0460 C   0  0  0  0  0  0  0  0  0  0  0  0
    1.1670   45.2660   54.6410 C   0  0  0  0  0  0  0  0  0  0  0  0
   -0.1660   44.8550   54.7030 C   0  0  0  0  0  0  0  0  0  0  0  0
   -0.5270   43.6230   54.1600 C   0  0  0  0  0  0  0  0  0  0  0  0
    0.4120   42.8390   53.5690 N   0  0  0  0  0  0  0  0  0  0  0  0
    1.7200   43.2110   53.4980 C   0  0  0  0  0  0  0  0  0  0  0  0
    2.5960   42.4030   52.8520 F   0  0  0  0  0  0  0  0  0  0  0  0
    6.0250   45.5230   51.1500 C   0  0  2  0  0  0  0  0  0  0  0  0
    5.9270   44.1190   50.5890 C   0  0  0  0  0  0  0  0  0  0  0  0
    4.8910   43.2640   51.0060 C   0  0  0  0  0  0  0  0  0  0  0  0
    4.8320   41.9470   50.5410 C   0  0  0  0  0  0  0  0  0  0  0  0
    5.8070   41.4710   49.6600 C   0  0  0  0  0  0  0  0  0  0  0  0
    6.8440   42.3100   49.2470 C   0  0  0  0  0  0  0  0  0  0  0  0
    6.9090   43.6260   49.7110 C   0  0  0  0  0  0  0  0  0  0  0  0
    7.3870   46.0430   50.9800 N   0  0  0  0  0  0  0  0  0  0  0  0
    7.8600   46.6169   53.9649 H   0  0  0  0  0  0  0  0  0  0  0  0
    7.4788   48.3181   53.4742 H   0  0  0  0  0  0  0  0  0  0  0  0
    5.4920   46.9514   54.2745 H   0  0  0  0  0  0  0  0  0  0  0  0
    5.3306   47.6860   52.6321 H   0  0  0  0  0  0  0  0  0  0  0  0
    6.1755   44.7936   53.1858 H   0  0  0  0  0  0  0  0  0  0  0  0
    3.6420   45.0390   51.8610 H   0  0  0  0  0  0  0  0  0  0  0  0
    1.4606   46.2398   55.0600 H   0  0  0  0  0  0  0  0  0  0  0  0
   -0.9238   45.4971   55.1757 H   0  0  0  0  0  0  0  0  0  0  0  0
   -1.5727   43.2854   54.2100 H   0  0  0  0  0  0  0  0  0  0  0  0
    5.3392   46.1784   50.5930 H   0  0  0  0  0  0  0  0  0  0  0  0
    4.1232   43.6336   51.7016 H   0  0  0  0  0  0  0  0  0  0  0  0
    4.0173   41.2846   50.8689 H   0  0  0  0  0  0  0  0  0  0  0  0
    5.7575   40.4356   49.2920 H   0  0  0  0  0  0  0  0  0  0  0  0
    7.6115   41.9338   48.5547 H   0  0  0  0  0  0  0  0  0  0  0  0
    7.7324   44.2800   49.3881 H   0  0  0  0  0  0  0  0  0  0  0  0
    7.8660   45.8850   50.0640 H   0  0  0  0  0  0  0  0  0  0  0  0
  1  2  2  0
  2  3  1  0
  3  4  1  0
  4  5  1  0
  5  6  1  0
  6  7  1  0
  7  8  2  0
  7  9  1  0
  9 10  2  0
 10 11  1  0
 11 12  2  0
 12 13  1  0
 13 14  2  0
 14 15  1  0
  5 16  1  0
 16 17  1  0
 17 18  2  0
 18 19  1  0
 19 20  2  0
 20 21  1  0
 21 22  2  0
 16 23  1  0
 23  2  1  0
 14  9  1  0
 22 17  1  0
  3 24  1  0
  3 25  1  0
  4 26  1  0
  4 27  1  0
  5 28  1  1
  6 29  1  0
 10 30  1  0
 11 31  1  0
 12 32  1  0
 16 33  1  6
 18 34  1  0
 19 35  1  0
 20 36  1  0
 21 37  1  0
 22 38  1  0
 23 39  1  0
M  END
>  <meeko>  (5) 
{"is_sidechain": [false], "free_energy": -8.656, "intermolecular_energy": -10.364, "internal_energy": 0.061}

$$$$
