ligand_78_conformer_4_docked
     RDKit          3D

 42 44  0  0  0  0  0  0  0  0999 V2000
    5.4290   44.3500   51.6990 C   0  0  0  0  0  0  0  0  0  0  0  0
    5.5040   45.7850   51.1830 C   0  0  0  0  0  0  0  0  0  0  0  0
    6.0700   46.6780   52.2050 N   0  0  0  0  0  0  0  0  0  0  0  0
    5.1860   47.5300   53.0090 C   0  0  0  0  0  0  0  0  0  0  0  0
    4.2860   46.6940   53.8640 C   0  0  0  0  0  0  0  0  0  0  0  0
    2.9460   46.4550   53.6580 C   0  0  0  0  0  0  0  0  0  0  0  0
    2.5760   45.5850   54.6110 N   0  0  0  0  0  0  0  0  0  0  0  0
    1.2800   44.9270   54.7270 C   0  0  0  0  0  0  0  0  0  0  0  0
    0.9570   44.2250   53.4490 C   0  0  0  0  0  0  0  0  0  0  0  0
    1.6000   43.1170   53.0220 N   0  0  0  0  0  0  0  0  0  0  0  0
    1.1820   42.7320   51.7880 C   0  0  0  0  0  0  0  0  0  0  0  0
    0.2110   43.5450   51.2140 C   0  0  0  0  0  0  0  0  0  0  0  0
   -0.1280   44.7890   52.2940 S   0  0  0  0  0  0  0  0  0  0  0  0
    3.6340   45.2930   55.3520 N   0  0  0  0  0  0  0  0  0  0  0  0
    4.6950   45.9640   54.9210 N   0  0  0  0  0  0  0  0  0  0  0  0
    7.4910   46.6990   52.4360 C   0  0  0  0  0  0  0  0  0  0  0  0
    8.3810   46.3390   51.4130 C   0  0  0  0  0  0  0  0  0  0  0  0
    9.7600   46.3780   51.6320 C   0  0  0  0  0  0  0  0  0  0  0  0
   10.2630   46.7790   52.8730 C   0  0  0  0  0  0  0  0  0  0  0  0
    9.3850   47.1330   53.9090 C   0  0  0  0  0  0  0  0  0  0  0  0
    9.9220   47.6130   55.2290 C   0  0  0  0  0  0  0  0  0  0  0  0
    9.1430   48.6750   55.7060 O   0  0  0  0  0  0  0  0  0  0  0  0
    8.0010   47.1030   53.6810 C   0  0  0  0  0  0  0  0  0  0  0  0
    5.4293   44.3554   52.7990 H   0  0  0  0  0  0  0  0  0  0  0  0
    4.5049   43.8772   51.3349 H   0  0  0  0  0  0  0  0  0  0  0  0
    6.2988   43.7835   51.3349 H   0  0  0  0  0  0  0  0  0  0  0  0
    6.1410   45.8132   50.2866 H   0  0  0  0  0  0  0  0  0  0  0  0
    4.4868   46.1263   50.9405 H   0  0  0  0  0  0  0  0  0  0  0  0
    5.7971   48.1790   53.6535 H   0  0  0  0  0  0  0  0  0  0  0  0
    4.5684   48.1394   52.3328 H   0  0  0  0  0  0  0  0  0  0  0  0
    2.3088   46.8883   52.8730 H   0  0  0  0  0  0  0  0  0  0  0  0
    1.3132   44.1956   55.5479 H   0  0  0  0  0  0  0  0  0  0  0  0
    0.5058   45.6802   54.9352 H   0  0  0  0  0  0  0  0  0  0  0  0
    1.5824   41.8422   51.2801 H   0  0  0  0  0  0  0  0  0  0  0  0
   -0.2536   43.4001   50.2275 H   0  0  0  0  0  0  0  0  0  0  0  0
    7.9910   46.0245   50.4337 H   0  0  0  0  0  0  0  0  0  0  0  0
   10.4518   46.0924   50.8259 H   0  0  0  0  0  0  0  0  0  0  0  0
   11.3499   46.8172   53.0380 H   0  0  0  0  0  0  0  0  0  0  0  0
    9.8954   46.7871   55.9550 H   0  0  0  0  0  0  0  0  0  0  0  0
   10.9578   47.9577   55.0934 H   0  0  0  0  0  0  0  0  0  0  0  0
    8.2380   48.3060   55.8830 H   0  0  0  0  0  0  0  0  0  0  0  0
    7.3095   47.3983   54.4838 H   0  0  0  0  0  0  0  0  0  0  0  0
  1  2  1  0
  2  3  1  0
  3  4  1  0
  4  5  1  0
  5  6  2  0
  6  7  1  0
  7  8  1  0
  8  9  1  0
  9 10  2  0
 10 11  1  0
 11 12  2  0
 12 13  1  0
  7 14  1  0
 14 15  2  0
  3 16  1  0
 16 17  2  0
 17 18  1  0
 18 19  2  0
 19 20  1  0
 20 21  1  0
 21 22  1  0
 20 23  2  0
 15  5  1  0
 23 16  1  0
 13  9  1  0
  1 24  1  0
  1 25  1  0
  1 26  1  0
  2 27  1  0
  2 28  1  0
  4 29  1  0
  4 30  1  0
  6 31  1  0
  8 32  1  0
  8 33  1  0
 11 34  1  0
 12 35  1  0
 17 36  1  0
 18 37  1  0
 19 38  1  0
 21 39  1  0
 21 40  1  0
 22 41  1  0
 23 42  1  0
M  END
>  <meeko>  (1) 
{"is_sidechain": [false], "free_energy": -7.736, "intermolecular_energy": -11.127, "internal_energy": -0.782}

$$$$
ligand_78_conformer_4_docked
     RDKit          3D

 42 44  0  0  0  0  0  0  0  0999 V2000
    3.1580   46.5050   50.8950 C   0  0  0  0  0  0  0  0  0  0  0  0
    2.5710   45.2810   51.5960 C   0  0  0  0  0  0  0  0  0  0  0  0
    3.6310   44.4880   52.2360 N   0  0  0  0  0  0  0  0  0  0  0  0
    3.7600   44.4760   53.6980 C   0  0  0  0  0  0  0  0  0  0  0  0
    4.6580   45.5820   54.1550 C   0  0  0  0  0  0  0  0  0  0  0  0
    6.0220   45.5150   54.3280 C   0  0  0  0  0  0  0  0  0  0  0  0
    6.4140   46.7560   54.6550 N   0  0  0  0  0  0  0  0  0  0  0  0
    7.7890   47.2190   54.8080 C   0  0  0  0  0  0  0  0  0  0  0  0
    8.5510   46.9500   53.5520 C   0  0  0  0  0  0  0  0  0  0  0  0
    9.6640   46.1870   53.5020 N   0  0  0  0  0  0  0  0  0  0  0  0
   10.2190   46.1790   52.2620 C   0  0  0  0  0  0  0  0  0  0  0  0
    9.5570   46.9540   51.3150 C   0  0  0  0  0  0  0  0  0  0  0  0
    8.2350   47.6730   52.0660 S   0  0  0  0  0  0  0  0  0  0  0  0
    5.3520   47.5460   54.6670 N   0  0  0  0  0  0  0  0  0  0  0  0
    4.2610   46.8530   54.3710 N   0  0  0  0  0  0  0  0  0  0  0  0
    4.5280   43.7000   51.4300 C   0  0  0  0  0  0  0  0  0  0  0  0
    4.2430   42.3530   51.1650 C   0  0  0  0  0  0  0  0  0  0  0  0
    5.1030   41.5940   50.3670 C   0  0  0  0  0  0  0  0  0  0  0  0
    6.2540   42.1740   49.8260 C   0  0  0  0  0  0  0  0  0  0  0  0
    6.5580   43.5190   50.0910 C   0  0  0  0  0  0  0  0  0  0  0  0
    7.7670   44.1610   49.4710 C   0  0  0  0  0  0  0  0  0  0  0  0
    8.5170   43.2020   48.7780 O   0  0  0  0  0  0  0  0  0  0  0  0
    5.6850   44.2800   50.8830 C   0  0  0  0  0  0  0  0  0  0  0  0
    3.5046   47.2278   51.6482 H   0  0  0  0  0  0  0  0  0  0  0  0
    4.0058   46.1959   50.2660 H   0  0  0  0  0  0  0  0  0  0  0  0
    2.3862   46.9726   50.2660 H   0  0  0  0  0  0  0  0  0  0  0  0
    1.8559   45.6130   52.3631 H   0  0  0  0  0  0  0  0  0  0  0  0
    2.0651   44.6542   50.8469 H   0  0  0  0  0  0  0  0  0  0  0  0
    2.7658   44.6071   54.1500 H   0  0  0  0  0  0  0  0  0  0  0  0
    4.1945   43.5143   54.0084 H   0  0  0  0  0  0  0  0  0  0  0  0
    6.6603   44.6257   54.2202 H   0  0  0  0  0  0  0  0  0  0  0  0
    7.7907   48.2998   55.0128 H   0  0  0  0  0  0  0  0  0  0  0  0
    8.2633   46.6849   55.6445 H   0  0  0  0  0  0  0  0  0  0  0  0
   11.1250   45.6023   52.0242 H   0  0  0  0  0  0  0  0  0  0  0  0
    9.8471   47.0751   50.2609 H   0  0  0  0  0  0  0  0  0  0  0  0
    3.3382   41.8916   51.5873 H   0  0  0  0  0  0  0  0  0  0  0  0
    4.8737   40.5375   50.1640 H   0  0  0  0  0  0  0  0  0  0  0  0
    6.9234   41.5752   49.1910 H   0  0  0  0  0  0  0  0  0  0  0  0
    7.4440   44.9460   48.7714 H   0  0  0  0  0  0  0  0  0  0  0  0
    8.3888   44.6010   50.2646 H   0  0  0  0  0  0  0  0  0  0  0  0
    9.4520   43.2820   49.1050 H   0  0  0  0  0  0  0  0  0  0  0  0
    5.9082   45.3394   51.0773 H   0  0  0  0  0  0  0  0  0  0  0  0
  1  2  1  0
  2  3  1  0
  3  4  1  0
  4  5  1  0
  5  6  2  0
  6  7  1  0
  7  8  1  0
  8  9  1  0
  9 10  2  0
 10 11  1  0
 11 12  2  0
 12 13  1  0
  7 14  1  0
 14 15  2  0
  3 16  1  0
 16 17  2  0
 17 18  1  0
 18 19  2  0
 19 20  1  0
 20 21  1  0
 21 22  1  0
 20 23  2  0
 15  5  1  0
 23 16  1  0
 13  9  1  0
  1 24  1  0
  1 25  1  0
  1 26  1  0
  2 27  1  0
  2 28  1  0
  4 29  1  0
  4 30  1  0
  6 31  1  0
  8 32  1  0
  8 33  1  0
 11 34  1  0
 12 35  1  0
 17 36  1  0
 18 37  1  0
 19 38  1  0
 21 39  1  0
 21 40  1  0
 22 41  1  0
 23 42  1  0
M  END
>  <meeko>  (2) 
{"is_sidechain": [false], "free_energy": -7.698, "intermolecular_energy": -10.902, "internal_energy": -0.953}

$$$$
ligand_78_conformer_4_docked
     RDKit          3D

 42 44  0  0  0  0  0  0  0  0999 V2000
    5.7210   44.3440   51.3230 C   0  0  0  0  0  0  0  0  0  0  0  0
    5.4900   45.8360   51.0910 C   0  0  0  0  0  0  0  0  0  0  0  0
    6.0440   46.6280   52.2000 N   0  0  0  0  0  0  0  0  0  0  0  0
    5.1450   47.3650   53.0980 C   0  0  0  0  0  0  0  0  0  0  0  0
    3.8260   46.6680   53.2090 C   0  0  0  0  0  0  0  0  0  0  0  0
    3.5560   45.5310   53.9370 C   0  0  0  0  0  0  0  0  0  0  0  0
    2.2350   45.3230   53.8200 N   0  0  0  0  0  0  0  0  0  0  0  0
    1.4510   44.3140   54.5220 C   0  0  0  0  0  0  0  0  0  0  0  0
    0.4830   44.9820   55.4430 C   0  0  0  0  0  0  0  0  0  0  0  0
    0.8560   45.7620   56.4800 N   0  0  0  0  0  0  0  0  0  0  0  0
   -0.2110   46.1700   57.2170 C   0  0  0  0  0  0  0  0  0  0  0  0
   -1.4440   45.7010   56.7780 C   0  0  0  0  0  0  0  0  0  0  0  0
   -1.1810   44.7400   55.4240 S   0  0  0  0  0  0  0  0  0  0  0  0
    1.7190   46.2870   53.0740 N   0  0  0  0  0  0  0  0  0  0  0  0
    2.6720   47.1230   52.6810 N   0  0  0  0  0  0  0  0  0  0  0  0
    7.4660   46.6600   52.4240 C   0  0  0  0  0  0  0  0  0  0  0  0
    8.3520   46.3020   51.3970 C   0  0  0  0  0  0  0  0  0  0  0  0
    9.7320   46.3530   51.6070 C   0  0  0  0  0  0  0  0  0  0  0  0
   10.2390   46.7620   52.8440 C   0  0  0  0  0  0  0  0  0  0  0  0
    9.3650   47.1140   53.8840 C   0  0  0  0  0  0  0  0  0  0  0  0
    9.9060   47.6030   55.1980 C   0  0  0  0  0  0  0  0  0  0  0  0
    9.1420   48.6830   55.6600 O   0  0  0  0  0  0  0  0  0  0  0  0
    7.9800   47.0730   53.6640 C   0  0  0  0  0  0  0  0  0  0  0  0
    5.7523   44.1415   52.4038 H   0  0  0  0  0  0  0  0  0  0  0  0
    4.9009   43.7706   50.8662 H   0  0  0  0  0  0  0  0  0  0  0  0
    6.6761   44.0454   50.8662 H   0  0  0  0  0  0  0  0  0  0  0  0
    5.9808   46.1356   50.1533 H   0  0  0  0  0  0  0  0  0  0  0  0
    4.4072   46.0206   51.0318 H   0  0  0  0  0  0  0  0  0  0  0  0
    5.6043   47.4310   54.0953 H   0  0  0  0  0  0  0  0  0  0  0  0
    4.9809   48.3724   52.6878 H   0  0  0  0  0  0  0  0  0  0  0  0
    4.2757   44.9182   54.4996 H   0  0  0  0  0  0  0  0  0  0  0  0
    0.8996   43.7048   53.7907 H   0  0  0  0  0  0  0  0  0  0  0  0
    2.1246   43.6692   55.1055 H   0  0  0  0  0  0  0  0  0  0  0  0
   -0.1065   46.8231   58.0959 H   0  0  0  0  0  0  0  0  0  0  0  0
   -2.4198   45.9202   57.2360 H   0  0  0  0  0  0  0  0  0  0  0  0
    7.9582   45.9796   50.4218 H   0  0  0  0  0  0  0  0  0  0  0  0
   10.4212   46.0708   50.7975 H   0  0  0  0  0  0  0  0  0  0  0  0
   11.3265   46.8080   53.0026 H   0  0  0  0  0  0  0  0  0  0  0  0
    9.8657   46.7870   55.9346 H   0  0  0  0  0  0  0  0  0  0  0  0
   10.9470   47.9306   55.0599 H   0  0  0  0  0  0  0  0  0  0  0  0
    9.5480   48.9720   56.5190 H   0  0  0  0  0  0  0  0  0  0  0  0
    7.2909   47.3668   54.4695 H   0  0  0  0  0  0  0  0  0  0  0  0
  1  2  1  0
  2  3  1  0
  3  4  1  0
  4  5  1  0
  5  6  2  0
  6  7  1  0
  7  8  1  0
  8  9  1  0
  9 10  2  0
 10 11  1  0
 11 12  2  0
 12 13  1  0
  7 14  1  0
 14 15  2  0
  3 16  1  0
 16 17  2  0
 17 18  1  0
 18 19  2  0
 19 20  1  0
 20 21  1  0
 21 22  1  0
 20 23  2  0
 15  5  1  0
 23 16  1  0
 13  9  1  0
  1 24  1  0
  1 25  1  0
  1 26  1  0
  2 27  1  0
  2 28  1  0
  4 29  1  0
  4 30  1  0
  6 31  1  0
  8 32  1  0
  8 33  1  0
 11 34  1  0
 12 35  1  0
 17 36  1  0
 18 37  1  0
 19 38  1  0
 21 39  1  0
 21 40  1  0
 22 41  1  0
 23 42  1  0
M  END
>  <meeko>  (3) 
{"is_sidechain": [false], "free_energy": -7.662, "intermolecular_energy": -11.435, "internal_energy": -0.368}

$$$$
ligand_78_conformer_4_docked
     RDKit          3D

 42 44  0  0  0  0  0  0  0  0999 V2000
    4.2480   47.8540   53.5140 C   0  0  0  0  0  0  0  0  0  0  0  0
    5.0950   46.5960   53.6900 C   0  0  0  0  0  0  0  0  0  0  0  0
    5.9470   46.3720   52.5120 N   0  0  0  0  0  0  0  0  0  0  0  0
    5.3400   46.0420   51.2170 C   0  0  0  0  0  0  0  0  0  0  0  0
    4.5670   44.7640   51.3090 C   0  0  0  0  0  0  0  0  0  0  0  0
    3.1970   44.6300   51.2880 C   0  0  0  0  0  0  0  0  0  0  0  0
    2.9560   43.3090   51.3020 N   0  0  0  0  0  0  0  0  0  0  0  0
    1.6570   42.6650   51.1560 C   0  0  0  0  0  0  0  0  0  0  0  0
    0.7130   43.1980   52.1840 C   0  0  0  0  0  0  0  0  0  0  0  0
    0.7550   42.8500   53.4880 N   0  0  0  0  0  0  0  0  0  0  0  0
   -0.2690   43.4010   54.1920 C   0  0  0  0  0  0  0  0  0  0  0  0
   -1.1460   44.1800   53.4460 C   0  0  0  0  0  0  0  0  0  0  0  0
   -0.6170   44.1730   51.8500 S   0  0  0  0  0  0  0  0  0  0  0  0
    4.1140   42.6680   51.3150 N   0  0  0  0  0  0  0  0  0  0  0  0
    5.1190   43.5340   51.3260 N   0  0  0  0  0  0  0  0  0  0  0  0
    7.3770   46.5020   52.6220 C   0  0  0  0  0  0  0  0  0  0  0  0
    8.2030   46.1790   51.5350 C   0  0  0  0  0  0  0  0  0  0  0  0
    9.5890   46.3240   51.6350 C   0  0  0  0  0  0  0  0  0  0  0  0
   10.1620   46.7940   52.8200 C   0  0  0  0  0  0  0  0  0  0  0  0
    9.3490   47.1120   53.9190 C   0  0  0  0  0  0  0  0  0  0  0  0
    9.9570   47.6650   55.1780 C   0  0  0  0  0  0  0  0  0  0  0  0
    9.1630   48.7070   55.6760 O   0  0  0  0  0  0  0  0  0  0  0  0
    7.9570   46.9760   53.8100 C   0  0  0  0  0  0  0  0  0  0  0  0
    3.9778   48.2553   54.5019 H   0  0  0  0  0  0  0  0  0  0  0  0
    4.8230   48.6082   52.9566 H   0  0  0  0  0  0  0  0  0  0  0  0
    3.3330   47.6049   52.9566 H   0  0  0  0  0  0  0  0  0  0  0  0
    5.7320   46.7114   54.5793 H   0  0  0  0  0  0  0  0  0  0  0  0
    4.4240   45.7326   53.8097 H   0  0  0  0  0  0  0  0  0  0  0  0
    4.6613   46.8545   50.9182 H   0  0  0  0  0  0  0  0  0  0  0  0
    6.1392   45.9206   50.4710 H   0  0  0  0  0  0  0  0  0  0  0  0
    2.4523   45.4392   51.2646 H   0  0  0  0  0  0  0  0  0  0  0  0
    1.2579   42.8701   50.1517 H   0  0  0  0  0  0  0  0  0  0  0  0
    1.7707   41.5796   51.2935 H   0  0  0  0  0  0  0  0  0  0  0  0
   -0.3945   43.2421   55.2732 H   0  0  0  0  0  0  0  0  0  0  0  0
   -2.0304   44.7081   53.8319 H   0  0  0  0  0  0  0  0  0  0  0  0
    7.7573   45.8098   50.5995 H   0  0  0  0  0  0  0  0  0  0  0  0
   10.2307   46.0677   50.7791 H   0  0  0  0  0  0  0  0  0  0  0  0
   11.2530   46.9150   52.8915 H   0  0  0  0  0  0  0  0  0  0  0  0
   10.0244   46.8663   55.9313 H   0  0  0  0  0  0  0  0  0  0  0  0
   10.9620   48.0521   54.9539 H   0  0  0  0  0  0  0  0  0  0  0  0
    8.2440   48.3420   55.7740 H   0  0  0  0  0  0  0  0  0  0  0  0
    7.3145   47.2428   54.6621 H   0  0  0  0  0  0  0  0  0  0  0  0
  1  2  1  0
  2  3  1  0
  3  4  1  0
  4  5  1  0
  5  6  2  0
  6  7  1  0
  7  8  1  0
  8  9  1  0
  9 10  2  0
 10 11  1  0
 11 12  2  0
 12 13  1  0
  7 14  1  0
 14 15  2  0
  3 16  1  0
 16 17  2  0
 17 18  1  0
 18 19  2  0
 19 20  1  0
 20 21  1  0
 21 22  1  0
 20 23  2  0
 15  5  1  0
 23 16  1  0
 13  9  1  0
  1 24  1  0
  1 25  1  0
  1 26  1  0
  2 27  1  0
  2 28  1  0
  4 29  1  0
  4 30  1  0
  6 31  1  0
  8 32  1  0
  8 33  1  0
 11 34  1  0
 12 35  1  0
 17 36  1  0
 18 37  1  0
 19 38  1  0
 21 39  1  0
 21 40  1  0
 22 41  1  0
 23 42  1  0
M  END
>  <meeko>  (4) 
{"is_sidechain": [false], "free_energy": -7.513, "intermolecular_energy": -10.768, "internal_energy": -0.822}

$$$$
ligand_78_conformer_4_docked
     RDKit          3D

 42 44  0  0  0  0  0  0  0  0999 V2000
    5.5920   44.6450   54.9840 C   0  0  0  0  0  0  0  0  0  0  0  0
    5.2140   45.9820   54.3480 C   0  0  0  0  0  0  0  0  0  0  0  0
    5.8500   46.1300   53.0300 N   0  0  0  0  0  0  0  0  0  0  0  0
    5.0400   46.0440   51.8090 C   0  0  0  0  0  0  0  0  0  0  0  0
    4.8910   44.6190   51.3770 C   0  0  0  0  0  0  0  0  0  0  0  0
    5.6870   43.9460   50.4780 C   0  0  0  0  0  0  0  0  0  0  0  0
    5.2440   42.6790   50.4700 N   0  0  0  0  0  0  0  0  0  0  0  0
    5.8520   41.5520   49.7730 C   0  0  0  0  0  0  0  0  0  0  0  0
    5.1190   41.2950   48.4970 C   0  0  0  0  0  0  0  0  0  0  0  0
    4.0060   40.5350   48.4160 N   0  0  0  0  0  0  0  0  0  0  0  0
    3.5890   40.3820   47.1320 C   0  0  0  0  0  0  0  0  0  0  0  0
    4.3820   41.0080   46.1760 C   0  0  0  0  0  0  0  0  0  0  0  0
    5.6480   41.7750   46.9740 S   0  0  0  0  0  0  0  0  0  0  0  0
    4.2410   42.5750   51.3280 N   0  0  0  0  0  0  0  0  0  0  0  0
    3.9990   43.7510   51.8950 N   0  0  0  0  0  0  0  0  0  0  0  0
    7.2640   46.3880   52.9370 C   0  0  0  0  0  0  0  0  0  0  0  0
    7.9380   46.2050   51.7210 C   0  0  0  0  0  0  0  0  0  0  0  0
    9.3060   46.4740   51.6260 C   0  0  0  0  0  0  0  0  0  0  0  0
   10.0110   46.9280   52.7430 C   0  0  0  0  0  0  0  0  0  0  0  0
    9.3520   47.1060   53.9700 C   0  0  0  0  0  0  0  0  0  0  0  0
   10.0960   47.6430   55.1610 C   0  0  0  0  0  0  0  0  0  0  0  0
    9.3740   48.6920   55.7440 O   0  0  0  0  0  0  0  0  0  0  0  0
    7.9760   46.8470   54.0570 C   0  0  0  0  0  0  0  0  0  0  0  0
    5.5653   44.7396   56.0796 H   0  0  0  0  0  0  0  0  0  0  0  0
    4.8772   43.8721   54.6651 H   0  0  0  0  0  0  0  0  0  0  0  0
    6.6057   44.3608   54.6651 H   0  0  0  0  0  0  0  0  0  0  0  0
    4.1215   46.0290   54.2289 H   0  0  0  0  0  0  0  0  0  0  0  0
    5.5624   46.7952   55.0017 H   0  0  0  0  0  0  0  0  0  0  0  0
    4.0444   46.4687   52.0047 H   0  0  0  0  0  0  0  0  0  0  0  0
    5.5425   46.6072   51.0088 H   0  0  0  0  0  0  0  0  0  0  0  0
    6.5165   44.3615   49.8870 H   0  0  0  0  0  0  0  0  0  0  0  0
    6.9039   41.7842   49.5502 H   0  0  0  0  0  0  0  0  0  0  0  0
    5.7985   40.6573   50.4106 H   0  0  0  0  0  0  0  0  0  0  0  0
    2.6902   39.8054   46.8679 H   0  0  0  0  0  0  0  0  0  0  0  0
    4.2111   41.0023   45.0894 H   0  0  0  0  0  0  0  0  0  0  0  0
    7.3875   45.8482   50.8381 H   0  0  0  0  0  0  0  0  0  0  0  0
    9.8288   46.3278   50.6693 H   0  0  0  0  0  0  0  0  0  0  0  0
   11.0859   47.1468   52.6612 H   0  0  0  0  0  0  0  0  0  0  0  0
   10.2304   46.8388   55.8994 H   0  0  0  0  0  0  0  0  0  0  0  0
   11.0773   48.0178   54.8347 H   0  0  0  0  0  0  0  0  0  0  0  0
   10.0210   49.2140   56.2890 H   0  0  0  0  0  0  0  0  0  0  0  0
    7.4505   47.0048   55.0104 H   0  0  0  0  0  0  0  0  0  0  0  0
  1  2  1  0
  2  3  1  0
  3  4  1  0
  4  5  1  0
  5  6  2  0
  6  7  1  0
  7  8  1  0
  8  9  1  0
  9 10  2  0
 10 11  1  0
 11 12  2  0
 12 13  1  0
  7 14  1  0
 14 15  2  0
  3 16  1  0
 16 17  2  0
 17 18  1  0
 18 19  2  0
 19 20  1  0
 20 21  1  0
 21 22  1  0
 20 23  2  0
 15  5  1  0
 23 16  1  0
 13  9  1  0
  1 24  1  0
  1 25  1  0
  1 26  1  0
  2 27  1  0
  2 28  1  0
  4 29  1  0
  4 30  1  0
  6 31  1  0
  8 32  1  0
  8 33  1  0
 11 34  1  0
 12 35  1  0
 17 36  1  0
 18 37  1  0
 19 38  1  0
 21 39  1  0
 21 40  1  0
 22 41  1  0
 23 42  1  0
M  END
>  <meeko>  (5) 
{"is_sidechain": [false], "free_energy": -7.367, "intermolecular_energy": -10.966, "internal_energy": -0.414}

$$$$
