ligand_38_conformer_2_docked
     RDKit          3D

 52 57  0  0  0  0  0  0  0  0999 V2000
    0.9350   47.1900   59.0910 C   0  0  0  0  0  0  0  0  0  0  0  0
    0.1220   46.8000   57.9450 N   0  0  0  0  0  0  0  0  0  0  0  0
   -1.2960   46.5720   57.9580 C   0  0  0  0  0  0  0  0  0  0  0  0
   -2.0780   46.9990   58.8470 O   0  0  0  0  0  0  0  0  0  0  0  0
   -1.6680   45.7310   56.8240 C   0  0  0  0  0  0  0  0  0  0  0  0
   -2.8700   45.1820   56.3830 C   0  0  0  0  0  0  0  0  0  0  0  0
   -2.8260   44.3270   55.2570 C   0  0  0  0  0  0  0  0  0  0  0  0
   -1.5960   44.0330   54.6130 C   0  0  0  0  0  0  0  0  0  0  0  0
   -0.3910   44.6060   55.0880 C   0  0  0  0  0  0  0  0  0  0  0  0
    0.9140   44.3770   54.5740 C   0  0  0  0  0  0  0  0  0  0  0  0
    1.1950   43.3680   53.1460 S   0  0  0  0  0  0  0  0  0  0  0  0
    0.1560   43.6580   52.0960 O   0  0  0  0  0  0  0  0  0  0  0  0
    1.0980   41.9250   53.5590 O   0  0  0  0  0  0  0  0  0  0  0  0
    2.7810   43.6970   52.4800 N   0  0  0  0  0  0  0  0  0  0  0  0
    2.7550   44.9110   51.6510 C   0  0  0  0  0  0  0  0  0  0  0  0
    3.9940   45.6650   51.9900 C   0  0  0  0  0  0  0  0  0  0  0  0
    3.8870   46.9090   52.6400 C   0  0  0  0  0  0  0  0  0  0  0  0
    5.0170   47.5340   53.1620 C   0  0  0  0  0  0  0  0  0  0  0  0
    6.2600   46.9140   53.0690 C   0  0  0  0  0  0  0  0  0  0  0  0
    6.3810   45.6840   52.4200 C   0  0  0  0  0  0  0  0  0  0  0  0
    5.2580   45.0510   51.8400 C   0  0  0  0  0  0  0  0  0  0  0  0
    5.4570   43.8140   51.0110 C   0  0  0  0  0  0  0  0  0  0  0  0
    6.6010   43.7850   50.1790 C   0  0  0  0  0  0  0  0  0  0  0  0
    6.8920   42.6860   49.3740 C   0  0  0  0  0  0  0  0  0  0  0  0
    6.0450   41.5870   49.3670 C   0  0  0  0  0  0  0  0  0  0  0  0
    4.8930   41.5930   50.1480 C   0  0  0  0  0  0  0  0  0  0  0  0
    4.5620   42.6930   50.9660 C   0  0  0  0  0  0  0  0  0  0  0  0
    3.2490   42.5260   51.7280 C   0  0  0  0  0  0  0  0  0  0  0  0
    2.0310   44.9540   55.2450 C   0  0  0  0  0  0  0  0  0  0  0  0
    1.8620   45.7870   56.3730 C   0  0  0  0  0  0  0  0  0  0  0  0
    0.5640   46.0310   56.8190 C   0  0  0  0  0  0  0  0  0  0  0  0
   -0.4970   45.4450   56.1880 C   0  0  0  0  0  0  0  0  0  0  0  0
    0.4046   46.9355   60.0205 H   0  0  0  0  0  0  0  0  0  0  0  0
    1.8953   46.6545   59.0585 H   0  0  0  0  0  0  0  0  0  0  0  0
    1.1184   48.2741   59.0585 H   0  0  0  0  0  0  0  0  0  0  0  0
   -3.8192   45.4054   56.8921 H   0  0  0  0  0  0  0  0  0  0  0  0
   -3.7577   43.8840   54.8754 H   0  0  0  0  0  0  0  0  0  0  0  0
   -1.5785   43.3592   53.7437 H   0  0  0  0  0  0  0  0  0  0  0  0
    2.7492   44.6451   50.5836 H   0  0  0  0  0  0  0  0  0  0  0  0
    1.8529   45.5107   51.8422 H   0  0  0  0  0  0  0  0  0  0  0  0
    2.9031   47.3914   52.7365 H   0  0  0  0  0  0  0  0  0  0  0  0
    4.9273   48.5170   53.6475 H   0  0  0  0  0  0  0  0  0  0  0  0
    7.1476   47.3937   53.5073 H   0  0  0  0  0  0  0  0  0  0  0  0
    7.3666   45.1993   52.3589 H   0  0  0  0  0  0  0  0  0  0  0  0
    7.2777   44.6521   50.1675 H   0  0  0  0  0  0  0  0  0  0  0  0
    7.7935   42.6894   48.7437 H   0  0  0  0  0  0  0  0  0  0  0  0
    6.2838   40.7119   48.7448 H   0  0  0  0  0  0  0  0  0  0  0  0
    4.2251   40.7193   50.1267 H   0  0  0  0  0  0  0  0  0  0  0  0
    2.4691   42.2623   50.9985 H   0  0  0  0  0  0  0  0  0  0  0  0
    3.4443   41.7506   52.4834 H   0  0  0  0  0  0  0  0  0  0  0  0
    3.0464   44.7462   54.8766 H   0  0  0  0  0  0  0  0  0  0  0  0
    2.7291   46.2302   56.8845 H   0  0  0  0  0  0  0  0  0  0  0  0
  1  2  1  0
  2  3  1  0
  3  4  2  0
  3  5  1  0
  5  6  2  0
  6  7  1  0
  7  8  2  0
  8  9  1  0
  9 10  2  0
 10 11  1  0
 11 12  2  0
 11 13  2  0
 11 14  1  0
 14 15  1  0
 15 16  1  0
 16 17  2  0
 17 18  1  0
 18 19  2  0
 19 20  1  0
 20 21  2  0
 21 22  1  0
 22 23  2  0
 23 24  1  0
 24 25  2  0
 25 26  1  0
 26 27  2  0
 27 28  1  0
 10 29  1  0
 29 30  2  0
 30 31  1  0
 31 32  2  0
 31  2  1  0
 32  5  1  0
 32  9  1  0
 28 14  1  0
 21 16  1  0
 27 22  1  0
  1 33  1  0
  1 34  1  0
  1 35  1  0
  6 36  1  0
  7 37  1  0
  8 38  1  0
 15 39  1  0
 15 40  1  0
 17 41  1  0
 18 42  1  0
 19 43  1  0
 20 44  1  0
 23 45  1  0
 24 46  1  0
 25 47  1  0
 26 48  1  0
 28 49  1  0
 28 50  1  0
 29 51  1  0
 30 52  1  0
M  END
>  <meeko>  (1) 
{"is_sidechain": [false], "free_energy": -11.106, "intermolecular_energy": -12.404, "internal_energy": -0.755}

$$$$
ligand_38_conformer_2_docked
     RDKit          3D

 52 57  0  0  0  0  0  0  0  0999 V2000
   -1.9570   44.5250   50.9140 C   0  0  0  0  0  0  0  0  0  0  0  0
   -1.2800   44.3070   52.1880 N   0  0  0  0  0  0  0  0  0  0  0  0
   -1.9080   44.2860   53.4800 C   0  0  0  0  0  0  0  0  0  0  0  0
   -3.1400   44.1100   53.6710 O   0  0  0  0  0  0  0  0  0  0  0  0
   -0.9110   44.5550   54.5130 C   0  0  0  0  0  0  0  0  0  0  0  0
   -0.9690   44.6880   55.8980 C   0  0  0  0  0  0  0  0  0  0  0  0
    0.2220   45.0400   56.5740 C   0  0  0  0  0  0  0  0  0  0  0  0
    1.4270   45.2630   55.8570 C   0  0  0  0  0  0  0  0  0  0  0  0
    1.4510   45.1220   54.4480 C   0  0  0  0  0  0  0  0  0  0  0  0
    2.5660   45.3480   53.5950 C   0  0  0  0  0  0  0  0  0  0  0  0
    4.1650   45.7640   54.2330 S   0  0  0  0  0  0  0  0  0  0  0  0
    4.4690   44.9300   55.4490 O   0  0  0  0  0  0  0  0  0  0  0  0
    4.1590   47.2180   54.6140 O   0  0  0  0  0  0  0  0  0  0  0  0
    5.3920   45.4650   53.0200 N   0  0  0  0  0  0  0  0  0  0  0  0
    5.5820   46.6500   52.1690 C   0  0  0  0  0  0  0  0  0  0  0  0
    7.0540   46.7910   51.9860 C   0  0  0  0  0  0  0  0  0  0  0  0
    7.7140   47.9040   52.5390 C   0  0  0  0  0  0  0  0  0  0  0  0
    9.1060   47.9560   52.5750 C   0  0  0  0  0  0  0  0  0  0  0  0
    9.8540   46.8880   52.0870 C   0  0  0  0  0  0  0  0  0  0  0  0
    9.2110   45.7810   51.5280 C   0  0  0  0  0  0  0  0  0  0  0  0
    7.8020   45.7250   51.4370 C   0  0  0  0  0  0  0  0  0  0  0  0
    7.1580   44.5960   50.6830 C   0  0  0  0  0  0  0  0  0  0  0  0
    7.8080   44.1700   49.5000 C   0  0  0  0  0  0  0  0  0  0  0  0
    7.3070   43.1260   48.7270 C   0  0  0  0  0  0  0  0  0  0  0  0
    6.1380   42.4820   49.1040 C   0  0  0  0  0  0  0  0  0  0  0  0
    5.4540   42.8940   50.2430 C   0  0  0  0  0  0  0  0  0  0  0  0
    5.9250   43.9540   51.0440 C   0  0  0  0  0  0  0  0  0  0  0  0
    5.0290   44.2780   52.2360 C   0  0  0  0  0  0  0  0  0  0  0  0
    2.3840   45.2630   52.1840 C   0  0  0  0  0  0  0  0  0  0  0  0
    1.1360   44.9110   51.6230 C   0  0  0  0  0  0  0  0  0  0  0  0
    0.0780   44.6470   52.4920 C   0  0  0  0  0  0  0  0  0  0  0  0
    0.2570   44.7630   53.8420 C   0  0  0  0  0  0  0  0  0  0  0  0
   -2.9891   44.8573   51.0994 H   0  0  0  0  0  0  0  0  0  0  0  0
   -1.4209   45.2959   50.3411 H   0  0  0  0  0  0  0  0  0  0  0  0
   -1.9714   43.5861   50.3411 H   0  0  0  0  0  0  0  0  0  0  0  0
   -1.9083   44.5250   56.4468 H   0  0  0  0  0  0  0  0  0  0  0  0
    0.2149   45.1424   57.6692 H   0  0  0  0  0  0  0  0  0  0  0  0
    2.3430   45.5456   56.3965 H   0  0  0  0  0  0  0  0  0  0  0  0
    5.0879   46.5059   51.1969 H   0  0  0  0  0  0  0  0  0  0  0  0
    5.1444   47.5495   52.6265 H   0  0  0  0  0  0  0  0  0  0  0  0
    7.1262   48.7399   52.9462 H   0  0  0  0  0  0  0  0  0  0  0  0
    9.6134   48.8400   52.9886 H   0  0  0  0  0  0  0  0  0  0  0  0
   10.9523   46.9159   52.1417 H   0  0  0  0  0  0  0  0  0  0  0  0
    9.8113   44.9392   51.1525 H   0  0  0  0  0  0  0  0  0  0  0  0
    8.7318   44.6763   49.1835 H   0  0  0  0  0  0  0  0  0  0  0  0
    7.8387   42.8118   47.8167 H   0  0  0  0  0  0  0  0  0  0  0  0
    5.7519   41.6458   48.5026 H   0  0  0  0  0  0  0  0  0  0  0  0
    4.5232   42.3803   50.5254 H   0  0  0  0  0  0  0  0  0  0  0  0
    4.0074   44.4268   51.8564 H   0  0  0  0  0  0  0  0  0  0  0  0
    5.1387   43.4273   52.9247 H   0  0  0  0  0  0  0  0  0  0  0  0
    3.2330   45.4759   51.5178 H   0  0  0  0  0  0  0  0  0  0  0  0
    1.0029   44.8471   50.5330 H   0  0  0  0  0  0  0  0  0  0  0  0
  1  2  1  0
  2  3  1  0
  3  4  2  0
  3  5  1  0
  5  6  2  0
  6  7  1  0
  7  8  2  0
  8  9  1  0
  9 10  2  0
 10 11  1  0
 11 12  2  0
 11 13  2  0
 11 14  1  0
 14 15  1  0
 15 16  1  0
 16 17  2  0
 17 18  1  0
 18 19  2  0
 19 20  1  0
 20 21  2  0
 21 22  1  0
 22 23  2  0
 23 24  1  0
 24 25  2  0
 25 26  1  0
 26 27  2  0
 27 28  1  0
 10 29  1  0
 29 30  2  0
 30 31  1  0
 31 32  2  0
 31  2  1  0
 32  5  1  0
 32  9  1  0
 28 14  1  0
 21 16  1  0
 27 22  1  0
  1 33  1  0
  1 34  1  0
  1 35  1  0
  6 36  1  0
  7 37  1  0
  8 38  1  0
 15 39  1  0
 15 40  1  0
 17 41  1  0
 18 42  1  0
 19 43  1  0
 20 44  1  0
 23 45  1  0
 24 46  1  0
 25 47  1  0
 26 48  1  0
 28 49  1  0
 28 50  1  0
 29 51  1  0
 30 52  1  0
M  END
>  <meeko>  (2) 
{"is_sidechain": [false], "free_energy": -11.077, "intermolecular_energy": -13.35, "internal_energy": 0.222}

$$$$
ligand_38_conformer_2_docked
     RDKit          3D

 52 57  0  0  0  0  0  0  0  0999 V2000
    6.4490   41.6970   48.9450 C   0  0  0  0  0  0  0  0  0  0  0  0
    6.4900   43.0560   49.4750 N   0  0  0  0  0  0  0  0  0  0  0  0
    7.6170   43.9450   49.4240 C   0  0  0  0  0  0  0  0  0  0  0  0
    8.5890   43.8180   48.6340 O   0  0  0  0  0  0  0  0  0  0  0  0
    7.4820   44.9670   50.4580 C   0  0  0  0  0  0  0  0  0  0  0  0
    8.2800   46.0300   50.8740 C   0  0  0  0  0  0  0  0  0  0  0  0
    7.8480   46.7750   51.9940 C   0  0  0  0  0  0  0  0  0  0  0  0
    6.6480   46.4380   52.6740 C   0  0  0  0  0  0  0  0  0  0  0  0
    5.8600   45.3500   52.2270 C   0  0  0  0  0  0  0  0  0  0  0  0
    4.6620   44.8720   52.8240 C   0  0  0  0  0  0  0  0  0  0  0  0
    3.9220   45.6780   54.2170 S   0  0  0  0  0  0  0  0  0  0  0  0
    4.0540   47.1710   54.0790 O   0  0  0  0  0  0  0  0  0  0  0  0
    4.6370   45.2260   55.4600 O   0  0  0  0  0  0  0  0  0  0  0  0
    2.2230   45.2660   54.3170 N   0  0  0  0  0  0  0  0  0  0  0  0
    1.4630   45.9320   53.2490 C   0  0  0  0  0  0  0  0  0  0  0  0
    0.5090   44.9120   52.7280 C   0  0  0  0  0  0  0  0  0  0  0  0
    0.6610   44.4350   51.4120 C   0  0  0  0  0  0  0  0  0  0  0  0
   -0.0700   43.3350   50.9700 C   0  0  0  0  0  0  0  0  0  0  0  0
   -0.9360   42.6800   51.8410 C   0  0  0  0  0  0  0  0  0  0  0  0
   -1.1010   43.1470   53.1460 C   0  0  0  0  0  0  0  0  0  0  0  0
   -0.4080   44.2900   53.6050 C   0  0  0  0  0  0  0  0  0  0  0  0
   -0.7360   44.8560   54.9580 C   0  0  0  0  0  0  0  0  0  0  0  0
   -2.0990   44.8450   55.3370 C   0  0  0  0  0  0  0  0  0  0  0  0
   -2.5180   45.3350   56.5710 C   0  0  0  0  0  0  0  0  0  0  0  0
   -1.5930   45.8590   57.4610 C   0  0  0  0  0  0  0  0  0  0  0  0
   -0.2470   45.9160   57.1100 C   0  0  0  0  0  0  0  0  0  0  0  0
    0.2120   45.4400   55.8650 C   0  0  0  0  0  0  0  0  0  0  0  0
    1.7130   45.6090   55.6510 C   0  0  0  0  0  0  0  0  0  0  0  0
    4.0540   43.6930   52.3030 C   0  0  0  0  0  0  0  0  0  0  0  0
    4.5880   43.0250   51.1800 C   0  0  0  0  0  0  0  0  0  0  0  0
    5.7350   43.5510   50.5880 C   0  0  0  0  0  0  0  0  0  0  0  0
    6.3280   44.6630   51.1160 C   0  0  0  0  0  0  0  0  0  0  0  0
    6.4273   40.9790   49.7781 H   0  0  0  0  0  0  0  0  0  0  0  0
    5.5466   41.5709   48.3287 H   0  0  0  0  0  0  0  0  0  0  0  0
    7.3421   41.5167   48.3287 H   0  0  0  0  0  0  0  0  0  0  0  0
    9.2136   46.2806   50.3491 H   0  0  0  0  0  0  0  0  0  0  0  0
    8.4492   47.6272   52.3438 H   0  0  0  0  0  0  0  0  0  0  0  0
    6.3301   47.0232   53.5495 H   0  0  0  0  0  0  0  0  0  0  0  0
    0.9157   46.7972   53.6515 H   0  0  0  0  0  0  0  0  0  0  0  0
    2.1261   46.3067   52.4554 H   0  0  0  0  0  0  0  0  0  0  0  0
    1.3624   44.9349   50.7278 H   0  0  0  0  0  0  0  0  0  0  0  0
    0.0370   42.9840   49.9330 H   0  0  0  0  0  0  0  0  0  0  0  0
   -1.4909   41.7934   51.5005 H   0  0  0  0  0  0  0  0  0  0  0  0
   -1.7816   42.6167   53.8284 H   0  0  0  0  0  0  0  0  0  0  0  0
   -2.8464   44.4392   54.6393 H   0  0  0  0  0  0  0  0  0  0  0  0
   -3.5842   45.3064   56.8402 H   0  0  0  0  0  0  0  0  0  0  0  0
   -1.9222   46.2292   58.4431 H   0  0  0  0  0  0  0  0  0  0  0  0
    0.4756   46.3427   57.8212 H   0  0  0  0  0  0  0  0  0  0  0  0
    1.9625   46.6627   55.8444 H   0  0  0  0  0  0  0  0  0  0  0  0
    2.1895   44.8956   56.3394 H   0  0  0  0  0  0  0  0  0  0  0  0
    3.1495   43.2952   52.7862 H   0  0  0  0  0  0  0  0  0  0  0  0
    4.1127   42.1157   50.7836 H   0  0  0  0  0  0  0  0  0  0  0  0
  1  2  1  0
  2  3  1  0
  3  4  2  0
  3  5  1  0
  5  6  2  0
  6  7  1  0
  7  8  2  0
  8  9  1  0
  9 10  2  0
 10 11  1  0
 11 12  2  0
 11 13  2  0
 11 14  1  0
 14 15  1  0
 15 16  1  0
 16 17  2  0
 17 18  1  0
 18 19  2  0
 19 20  1  0
 20 21  2  0
 21 22  1  0
 22 23  2  0
 23 24  1  0
 24 25  2  0
 25 26  1  0
 26 27  2  0
 27 28  1  0
 10 29  1  0
 29 30  2  0
 30 31  1  0
 31 32  2  0
 31  2  1  0
 32  5  1  0
 32  9  1  0
 28 14  1  0
 21 16  1  0
 27 22  1  0
  1 33  1  0
  1 34  1  0
  1 35  1  0
  6 36  1  0
  7 37  1  0
  8 38  1  0
 15 39  1  0
 15 40  1  0
 17 41  1  0
 18 42  1  0
 19 43  1  0
 20 44  1  0
 23 45  1  0
 24 46  1  0
 25 47  1  0
 26 48  1  0
 28 49  1  0
 28 50  1  0
 29 51  1  0
 30 52  1  0
M  END
>  <meeko>  (3) 
{"is_sidechain": [false], "free_energy": -10.939, "intermolecular_energy": -12.308, "internal_energy": -0.666}

$$$$
ligand_38_conformer_2_docked
     RDKit          3D

 52 57  0  0  0  0  0  0  0  0999 V2000
    8.3000   43.7960   48.9690 C   0  0  0  0  0  0  0  0  0  0  0  0
    8.3470   44.8890   49.9330 N   0  0  0  0  0  0  0  0  0  0  0  0
    9.4880   45.2700   50.7190 C   0  0  0  0  0  0  0  0  0  0  0  0
   10.6760   44.9540   50.4480 O   0  0  0  0  0  0  0  0  0  0  0  0
    9.0480   46.0220   51.8910 C   0  0  0  0  0  0  0  0  0  0  0  0
    9.7090   46.5840   52.9800 C   0  0  0  0  0  0  0  0  0  0  0  0
    8.9190   47.1810   53.9890 C   0  0  0  0  0  0  0  0  0  0  0  0
    7.5020   47.1900   53.8950 C   0  0  0  0  0  0  0  0  0  0  0  0
    6.8610   46.6070   52.7750 C   0  0  0  0  0  0  0  0  0  0  0  0
    5.4590   46.5060   52.5620 C   0  0  0  0  0  0  0  0  0  0  0  0
    4.2870   47.2160   53.6830 S   0  0  0  0  0  0  0  0  0  0  0  0
    3.7870   48.5290   53.1430 O   0  0  0  0  0  0  0  0  0  0  0  0
    4.9710   47.4460   55.0020 O   0  0  0  0  0  0  0  0  0  0  0  0
    2.9260   46.1350   53.8930 N   0  0  0  0  0  0  0  0  0  0  0  0
    1.8940   46.3940   52.8770 C   0  0  0  0  0  0  0  0  0  0  0  0
    1.4260   45.0560   52.4180 C   0  0  0  0  0  0  0  0  0  0  0  0
    1.6840   44.6520   51.0940 C   0  0  0  0  0  0  0  0  0  0  0  0
    1.4570   43.3360   50.6990 C   0  0  0  0  0  0  0  0  0  0  0  0
    0.9980   42.4020   51.6240 C   0  0  0  0  0  0  0  0  0  0  0  0
    0.7300   42.7910   52.9380 C   0  0  0  0  0  0  0  0  0  0  0  0
    0.9080   44.1310   53.3520 C   0  0  0  0  0  0  0  0  0  0  0  0
    0.4540   44.5430   54.7240 C   0  0  0  0  0  0  0  0  0  0  0  0
   -0.7550   43.9730   55.1900 C   0  0  0  0  0  0  0  0  0  0  0  0
   -1.2660   44.2750   56.4500 C   0  0  0  0  0  0  0  0  0  0  0  0
   -0.5930   45.1610   57.2780 C   0  0  0  0  0  0  0  0  0  0  0  0
    0.5810   45.7650   56.8410 C   0  0  0  0  0  0  0  0  0  0  0  0
    1.1220   45.4920   55.5680 C   0  0  0  0  0  0  0  0  0  0  0  0
    2.3990   46.2680   55.2570 C   0  0  0  0  0  0  0  0  0  0  0  0
    4.9850   45.7880   51.4260 C   0  0  0  0  0  0  0  0  0  0  0  0
    5.8760   45.2230   50.4870 C   0  0  0  0  0  0  0  0  0  0  0  0
    7.2430   45.3850   50.7020 C   0  0  0  0  0  0  0  0  0  0  0  0
    7.6870   46.0470   51.8120 C   0  0  0  0  0  0  0  0  0  0  0  0
    8.2587   42.8361   49.5047 H   0  0  0  0  0  0  0  0  0  0  0  0
    7.4056   43.9022   48.3375 H   0  0  0  0  0  0  0  0  0  0  0  0
    9.2002   43.8251   48.3375 H   0  0  0  0  0  0  0  0  0  0  0  0
   10.8064   46.5642   53.0526 H   0  0  0  0  0  0  0  0  0  0  0  0
    9.4083   47.6446   54.8583 H   0  0  0  0  0  0  0  0  0  0  0  0
    6.9015   47.6505   54.6934 H   0  0  0  0  0  0  0  0  0  0  0  0
    1.0597   46.9612   53.3154 H   0  0  0  0  0  0  0  0  0  0  0  0
    2.2906   46.9907   52.0423 H   0  0  0  0  0  0  0  0  0  0  0  0
    2.0679   45.3817   50.3659 H   0  0  0  0  0  0  0  0  0  0  0  0
    1.6402   43.0347   49.6571 H   0  0  0  0  0  0  0  0  0  0  0  0
    0.8463   41.3560   51.3192 H   0  0  0  0  0  0  0  0  0  0  0  0
    0.3748   42.0432   53.6623 H   0  0  0  0  0  0  0  0  0  0  0  0
   -1.3042   43.2747   54.5414 H   0  0  0  0  0  0  0  0  0  0  0  0
   -2.2039   43.8105   56.7886 H   0  0  0  0  0  0  0  0  0  0  0  0
   -0.9876   45.3859   58.2799 H   0  0  0  0  0  0  0  0  0  0  0  0
    1.0999   46.4726   57.5044 H   0  0  0  0  0  0  0  0  0  0  0  0
    2.1948   47.3342   55.4348 H   0  0  0  0  0  0  0  0  0  0  0  0
    3.1704   45.8375   55.9124 H   0  0  0  0  0  0  0  0  0  0  0  0
    3.9014   45.6712   51.2772 H   0  0  0  0  0  0  0  0  0  0  0  0
    5.5018   44.6714   49.6119 H   0  0  0  0  0  0  0  0  0  0  0  0
  1  2  1  0
  2  3  1  0
  3  4  2  0
  3  5  1  0
  5  6  2  0
  6  7  1  0
  7  8  2  0
  8  9  1  0
  9 10  2  0
 10 11  1  0
 11 12  2  0
 11 13  2  0
 11 14  1  0
 14 15  1  0
 15 16  1  0
 16 17  2  0
 17 18  1  0
 18 19  2  0
 19 20  1  0
 20 21  2  0
 21 22  1  0
 22 23  2  0
 23 24  1  0
 24 25  2  0
 25 26  1  0
 26 27  2  0
 27 28  1  0
 10 29  1  0
 29 30  2  0
 30 31  1  0
 31 32  2  0
 31  2  1  0
 32  5  1  0
 32  9  1  0
 28 14  1  0
 21 16  1  0
 27 22  1  0
  1 33  1  0
  1 34  1  0
  1 35  1  0
  6 36  1  0
  7 37  1  0
  8 38  1  0
 15 39  1  0
 15 40  1  0
 17 41  1  0
 18 42  1  0
 19 43  1  0
 20 44  1  0
 23 45  1  0
 24 46  1  0
 25 47  1  0
 26 48  1  0
 28 49  1  0
 28 50  1  0
 29 51  1  0
 30 52  1  0
M  END
>  <meeko>  (4) 
{"is_sidechain": [false], "free_energy": -10.654, "intermolecular_energy": -12.445, "internal_energy": -0.21}

$$$$
ligand_38_conformer_2_docked
     RDKit          3D

 52 57  0  0  0  0  0  0  0  0999 V2000
    6.4510   41.5630   49.3860 C   0  0  0  0  0  0  0  0  0  0  0  0
    6.4780   42.9930   49.6770 N   0  0  0  0  0  0  0  0  0  0  0  0
    7.6480   43.8260   49.6950 C   0  0  0  0  0  0  0  0  0  0  0  0
    8.7390   43.5330   49.1400 O   0  0  0  0  0  0  0  0  0  0  0  0
    7.3880   45.0200   50.4950 C   0  0  0  0  0  0  0  0  0  0  0  0
    8.1600   46.1160   50.8710 C   0  0  0  0  0  0  0  0  0  0  0  0
    7.5750   47.0610   51.7450 C   0  0  0  0  0  0  0  0  0  0  0  0
    6.2520   46.8840   52.2280 C   0  0  0  0  0  0  0  0  0  0  0  0
    5.4940   45.7560   51.8280 C   0  0  0  0  0  0  0  0  0  0  0  0
    4.1790   45.4270   52.2560 C   0  0  0  0  0  0  0  0  0  0  0  0
    3.2470   46.4880   53.3230 S   0  0  0  0  0  0  0  0  0  0  0  0
    3.1100   47.8530   52.7030 O   0  0  0  0  0  0  0  0  0  0  0  0
    3.9780   46.6060   54.6320 O   0  0  0  0  0  0  0  0  0  0  0  0
    1.6490   45.8230   53.5860 N   0  0  0  0  0  0  0  0  0  0  0  0
    1.6940   44.7340   54.5730 C   0  0  0  0  0  0  0  0  0  0  0  0
    0.5130   44.9350   55.4590 C   0  0  0  0  0  0  0  0  0  0  0  0
    0.7140   45.2740   56.8100 C   0  0  0  0  0  0  0  0  0  0  0  0
   -0.3560   45.6790   57.6060 C   0  0  0  0  0  0  0  0  0  0  0  0
   -1.6310   45.7780   57.0560 C   0  0  0  0  0  0  0  0  0  0  0  0
   -1.8460   45.4360   55.7200 C   0  0  0  0  0  0  0  0  0  0  0  0
   -0.7870   44.9780   54.9050 C   0  0  0  0  0  0  0  0  0  0  0  0
   -1.0880   44.4660   53.5250 C   0  0  0  0  0  0  0  0  0  0  0  0
   -2.2730   43.7060   53.3750 C   0  0  0  0  0  0  0  0  0  0  0  0
   -2.6580   43.1890   52.1400 C   0  0  0  0  0  0  0  0  0  0  0  0
   -1.8690   43.4060   51.0200 C   0  0  0  0  0  0  0  0  0  0  0  0
   -0.6810   44.1210   51.1350 C   0  0  0  0  0  0  0  0  0  0  0  0
   -0.2540   44.6490   52.3710 C   0  0  0  0  0  0  0  0  0  0  0  0
    1.0850   45.3800   52.3050 C   0  0  0  0  0  0  0  0  0  0  0  0
    3.6060   44.1920   51.8340 C   0  0  0  0  0  0  0  0  0  0  0  0
    4.2960   43.3200   50.9640 C   0  0  0  0  0  0  0  0  0  0  0  0
    5.5630   43.6990   50.5240 C   0  0  0  0  0  0  0  0  0  0  0  0
    6.1150   44.8700   50.9610 C   0  0  0  0  0  0  0  0  0  0  0  0
    6.4403   40.9970   50.3292 H   0  0  0  0  0  0  0  0  0  0  0  0
    5.5482   41.3241   48.8048 H   0  0  0  0  0  0  0  0  0  0  0  0
    7.3442   41.2902   48.8048 H   0  0  0  0  0  0  0  0  0  0  0  0
    9.1883   46.2422   50.5013 H   0  0  0  0  0  0  0  0  0  0  0  0
    8.1524   47.9446   52.0546 H   0  0  0  0  0  0  0  0  0  0  0  0
    5.8145   47.6241   52.9142 H   0  0  0  0  0  0  0  0  0  0  0  0
    1.6322   43.7583   54.0689 H   0  0  0  0  0  0  0  0  0  0  0  0
    2.6338   44.7463   55.1446 H   0  0  0  0  0  0  0  0  0  0  0  0
    1.7243   45.2188   57.2415 H   0  0  0  0  0  0  0  0  0  0  0  0
   -0.1933   45.9200   58.6669 H   0  0  0  0  0  0  0  0  0  0  0  0
   -2.4706   46.1264   57.6755 H   0  0  0  0  0  0  0  0  0  0  0  0
   -2.8566   45.5246   55.2948 H   0  0  0  0  0  0  0  0  0  0  0  0
   -2.9054   43.5191   54.2554 H   0  0  0  0  0  0  0  0  0  0  0  0
   -3.5882   42.6084   52.0530 H   0  0  0  0  0  0  0  0  0  0  0  0
   -2.1823   43.0131   50.0415 H   0  0  0  0  0  0  0  0  0  0  0  0
   -0.0601   44.2782   50.2407 H   0  0  0  0  0  0  0  0  0  0  0  0
    1.8133   44.7031   51.8345 H   0  0  0  0  0  0  0  0  0  0  0  0
    0.8880   46.3014   51.7374 H   0  0  0  0  0  0  0  0  0  0  0  0
    2.6048   43.9123   52.1938 H   0  0  0  0  0  0  0  0  0  0  0  0
    3.8465   42.3688   50.6427 H   0  0  0  0  0  0  0  0  0  0  0  0
  1  2  1  0
  2  3  1  0
  3  4  2  0
  3  5  1  0
  5  6  2  0
  6  7  1  0
  7  8  2  0
  8  9  1  0
  9 10  2  0
 10 11  1  0
 11 12  2  0
 11 13  2  0
 11 14  1  0
 14 15  1  0
 15 16  1  0
 16 17  2  0
 17 18  1  0
 18 19  2  0
 19 20  1  0
 20 21  2  0
 21 22  1  0
 22 23  2  0
 23 24  1  0
 24 25  2  0
 25 26  1  0
 26 27  2  0
 27 28  1  0
 10 29  1  0
 29 30  2  0
 30 31  1  0
 31 32  2  0
 31  2  1  0
 32  5  1  0
 32  9  1  0
 28 14  1  0
 21 16  1  0
 27 22  1  0
  1 33  1  0
  1 34  1  0
  1 35  1  0
  6 36  1  0
  7 37  1  0
  8 38  1  0
 15 39  1  0
 15 40  1  0
 17 41  1  0
 18 42  1  0
 19 43  1  0
 20 44  1  0
 23 45  1  0
 24 46  1  0
 25 47  1  0
 26 48  1  0
 28 49  1  0
 28 50  1  0
 29 51  1  0
 30 52  1  0
M  END
>  <meeko>  (5) 
{"is_sidechain": [false], "free_energy": -10.327, "intermolecular_energy": -12.5, "internal_energy": 0.21}

$$$$
