MODEL 1
REMARK VINA RESULT:    -9.575      0.000      0.000
REMARK INTER + INTRA:         -11.507
REMARK INTER:                 -11.255
REMARK INTRA:                  -0.252
REMARK UNBOUND:                -0.252
REMARK SMILES C[C@H]1OCC[C@]1(C)NC(=O)C1CCN(c2ccc(C#N)cc2F)CC1
REMARK SMILES IDX 11 1 12 2 13 3 14 4 24 5 25 6 9 7 8 8 10 9 6 11 2 12 3 13
REMARK SMILES IDX 4 14 5 15 1 16 7 17 15 18 16 19 22 20 17 21 21 22 18 23
REMARK SMILES IDX 19 24 20 25 23 26
REMARK H PARENT 8 10
ROOT
ATOM      1  C   UNL     1       5.185  45.154  51.013  1.00  0.00     0.082 C 
ATOM      2  C   UNL     1       5.024  43.940  51.965  1.00  0.00     0.035 C 
ATOM      3  C   UNL     1       4.281  44.300  53.257  1.00  0.00     0.117 C 
ATOM      4  N   UNL     1       2.972  44.904  52.959  1.00  0.00    -0.369 N 
ATOM      5  C   UNL     1       2.773  45.621  51.688  1.00  0.00     0.117 C 
ATOM      6  C   UNL     1       4.090  46.229  51.205  1.00  0.00     0.035 C 
ENDROOT
BRANCH   1   7
ATOM      7  C   UNL     1       6.550  45.786  51.149  1.00  0.00     0.223 C 
ATOM      8  N   UNL     1       6.859  46.596  52.296  1.00  0.00    -0.348 N 
ATOM      9  O   UNL     1       7.427  45.550  50.277  1.00  0.00    -0.275 OA
ATOM     10  H   UNL     1       6.077  46.781  52.965  1.00  0.00     0.164 HD
BRANCH   8  11
ATOM     11  C   UNL     1       8.187  47.189  52.567  1.00  0.00     0.065 C 
ATOM     12  C   UNL     1       9.272  46.086  52.782  1.00  0.00     0.140 C 
ATOM     13  O   UNL     1       9.914  46.291  54.023  1.00  0.00    -0.376 OA
ATOM     14  C   UNL     1       9.547  47.567  54.479  1.00  0.00     0.163 C 
ATOM     15  C   UNL     1       8.182  47.882  53.924  1.00  0.00     0.059 C 
ATOM     16  C   UNL     1      10.353  45.976  51.696  1.00  0.00     0.041 C 
ATOM     17  C   UNL     1       8.519  48.229  51.468  1.00  0.00     0.037 C 
ENDBRANCH   8  11
ENDBRANCH   1   7
BRANCH   4  18
ATOM     18  C   UNL     1       1.913  44.850  53.941  1.00  0.00     0.073 A 
ATOM     19  C   UNL     1       0.693  44.221  53.629  1.00  0.00     0.030 A 
ATOM     20  C   UNL     1       2.077  45.418  55.221  1.00  0.00     0.147 A 
ATOM     21  C   UNL     1      -0.333  44.150  54.575  1.00  0.00     0.022 A 
ATOM     22  C   UNL     1       1.045  45.345  56.164  1.00  0.00     0.061 A 
ATOM     23  C   UNL     1      -0.159  44.710  55.844  1.00  0.00     0.055 A 
ATOM     24  C   UNL     1      -1.217  44.636  56.818  1.00  0.00     0.099 C 
ATOM     25  N   UNL     1      -2.067  44.575  57.600  1.00  0.00    -0.192 NA
ATOM     26  F   UNL     1       3.216  46.074  55.553  1.00  0.00    -0.205 F 
ENDBRANCH   4  18
TORSDOF 3
ENDMDL
MODEL 2
REMARK VINA RESULT:    -8.852      1.369      1.502
REMARK INTER + INTRA:         -10.657
REMARK INTER:                 -10.679
REMARK INTRA:                   0.022
REMARK UNBOUND:                -0.252
REMARK SMILES C[C@H]1OCC[C@]1(C)NC(=O)C1CCN(c2ccc(C#N)cc2F)CC1
REMARK SMILES IDX 11 1 12 2 13 3 14 4 24 5 25 6 9 7 8 8 10 9 6 11 2 12 3 13
REMARK SMILES IDX 4 14 5 15 1 16 7 17 15 18 16 19 22 20 17 21 21 22 18 23
REMARK SMILES IDX 19 24 20 25 23 26
REMARK H PARENT 8 10
ROOT
ATOM      1  C   UNL     1       4.438  46.112  52.343  1.00  0.00     0.082 C 
ATOM      2  C   UNL     1       4.334  44.756  53.091  1.00  0.00     0.035 C 
ATOM      3  C   UNL     1       3.405  44.826  54.309  1.00  0.00     0.117 C 
ATOM      4  N   UNL     1       2.070  45.311  53.924  1.00  0.00    -0.369 N 
ATOM      5  C   UNL     1       1.923  46.185  52.747  1.00  0.00     0.117 C 
ATOM      6  C   UNL     1       3.193  47.009  52.533  1.00  0.00     0.035 C 
ENDROOT
BRANCH   1   7
ATOM      7  C   UNL     1       5.680  46.870  52.745  1.00  0.00     0.223 C 
ATOM      8  N   UNL     1       6.980  46.374  52.379  1.00  0.00    -0.348 N 
ATOM      9  O   UNL     1       5.562  47.966  53.355  1.00  0.00    -0.275 OA
ATOM     10  H   UNL     1       7.010  45.443  51.904  1.00  0.00     0.164 HD
BRANCH   8  11
ATOM     11  C   UNL     1       8.250  47.081  52.649  1.00  0.00     0.065 C 
ATOM     12  C   UNL     1       9.451  46.085  52.741  1.00  0.00     0.140 C 
ATOM     13  O   UNL     1      10.119  46.264  53.971  1.00  0.00    -0.376 OA
ATOM     14  C   UNL     1       9.645  47.458  54.536  1.00  0.00     0.163 C 
ATOM     15  C   UNL     1       8.232  47.669  54.055  1.00  0.00     0.059 C 
ATOM     16  C   UNL     1      10.490  46.169  51.612  1.00  0.00     0.041 C 
ATOM     17  C   UNL     1       8.428  48.228  51.623  1.00  0.00     0.037 C 
ENDBRANCH   8  11
ENDBRANCH   1   7
BRANCH   4  18
ATOM     18  C   UNL     1       0.922  44.984  54.738  1.00  0.00     0.073 A 
ATOM     19  C   UNL     1      -0.142  44.241  54.193  1.00  0.00     0.030 A 
ATOM     20  C   UNL     1       0.844  45.395  56.085  1.00  0.00     0.147 A 
ATOM     21  C   UNL     1      -1.251  43.907  54.975  1.00  0.00     0.022 A 
ATOM     22  C   UNL     1      -0.270  45.059  56.863  1.00  0.00     0.061 A 
ATOM     23  C   UNL     1      -1.316  44.314  56.312  1.00  0.00     0.055 A 
ATOM     24  C   UNL     1      -2.460  43.969  57.116  1.00  0.00     0.099 C 
ATOM     25  N   UNL     1      -3.378  43.690  57.763  1.00  0.00    -0.192 NA
ATOM     26  F   UNL     1       1.822  46.151  56.642  1.00  0.00    -0.205 F 
ENDBRANCH   4  18
TORSDOF 3
ENDMDL
MODEL 3
REMARK VINA RESULT:    -8.023      3.649      8.582
REMARK INTER + INTRA:          -9.683
REMARK INTER:                  -9.516
REMARK INTRA:                  -0.166
REMARK UNBOUND:                -0.252
REMARK SMILES C[C@H]1OCC[C@]1(C)NC(=O)C1CCN(c2ccc(C#N)cc2F)CC1
REMARK SMILES IDX 11 1 12 2 13 3 14 4 24 5 25 6 9 7 8 8 10 9 6 11 2 12 3 13
REMARK SMILES IDX 4 14 5 15 1 16 7 17 15 18 16 19 22 20 17 21 21 22 18 23
REMARK SMILES IDX 19 24 20 25 23 26
REMARK H PARENT 8 10
ROOT
ATOM      1  C   UNL     1       2.657  44.891  50.880  1.00  0.00     0.082 C 
ATOM      2  C   UNL     1       3.174  46.353  50.813  1.00  0.00     0.035 C 
ATOM      3  C   UNL     1       4.056  46.720  52.012  1.00  0.00     0.117 C 
ATOM      4  N   UNL     1       5.179  45.778  52.146  1.00  0.00    -0.369 N 
ATOM      5  C   UNL     1       5.039  44.402  51.639  1.00  0.00     0.117 C 
ATOM      6  C   UNL     1       3.578  43.956  51.698  1.00  0.00     0.035 C 
ENDROOT
BRANCH   1   7
ATOM      7  C   UNL     1       1.251  44.827  51.425  1.00  0.00     0.223 C 
ATOM      8  N   UNL     1       0.265  43.998  50.785  1.00  0.00    -0.348 N 
ATOM      9  O   UNL     1       0.967  45.463  52.474  1.00  0.00    -0.275 OA
ATOM     10  H   UNL     1       0.554  43.523  49.899  1.00  0.00     0.164 HD
BRANCH   8  11
ATOM     11  C   UNL     1      -1.113  43.799  51.285  1.00  0.00     0.065 C 
ATOM     12  C   UNL     1      -1.132  42.906  52.567  1.00  0.00     0.140 C 
ATOM     13  O   UNL     1      -1.997  41.809  52.365  1.00  0.00    -0.376 OA
ATOM     14  C   UNL     1      -2.742  42.071  51.205  1.00  0.00     0.163 C 
ATOM     15  C   UNL     1      -1.906  42.944  50.305  1.00  0.00     0.059 C 
ATOM     16  C   UNL     1      -1.538  43.604  53.874  1.00  0.00     0.041 C 
ATOM     17  C   UNL     1      -1.808  45.175  51.435  1.00  0.00     0.037 C 
ENDBRANCH   8  11
ENDBRANCH   1   7
BRANCH   4  18
ATOM     18  C   UNL     1       6.383  46.185  52.832  1.00  0.00     0.073 A 
ATOM     19  C   UNL     1       6.336  46.531  54.196  1.00  0.00     0.030 A 
ATOM     20  C   UNL     1       7.622  46.241  52.160  1.00  0.00     0.147 A 
ATOM     21  C   UNL     1       7.496  46.913  54.874  1.00  0.00     0.022 A 
ATOM     22  C   UNL     1       8.780  46.625  52.845  1.00  0.00     0.061 A 
ATOM     23  C   UNL     1       8.721  46.959  54.200  1.00  0.00     0.055 A 
ATOM     24  C   UNL     1       9.916  47.353  54.901  1.00  0.00     0.099 C 
ATOM     25  N   UNL     1      10.876  47.667  55.465  1.00  0.00    -0.192 NA
ATOM     26  F   UNL     1       7.710  45.961  50.836  1.00  0.00    -0.205 F 
ENDBRANCH   4  18
TORSDOF 3
ENDMDL
MODEL 4
REMARK VINA RESULT:    -7.767      3.680      8.506
REMARK INTER + INTRA:          -9.381
REMARK INTER:                  -9.225
REMARK INTRA:                  -0.156
REMARK UNBOUND:                -0.252
REMARK SMILES C[C@H]1OCC[C@]1(C)NC(=O)C1CCN(c2ccc(C#N)cc2F)CC1
REMARK SMILES IDX 11 1 12 2 13 3 14 4 24 5 25 6 9 7 8 8 10 9 6 11 2 12 3 13
REMARK SMILES IDX 4 14 5 15 1 16 7 17 15 18 16 19 22 20 17 21 21 22 18 23
REMARK SMILES IDX 19 24 20 25 23 26
REMARK H PARENT 8 10
ROOT
ATOM      1  C   UNL     1       0.728  43.419  52.267  1.00  0.00     0.082 C 
ATOM      2  C   UNL     1       1.105  44.789  51.642  1.00  0.00     0.035 C 
ATOM      3  C   UNL     1       2.282  45.459  52.361  1.00  0.00     0.117 C 
ATOM      4  N   UNL     1       3.451  44.566  52.400  1.00  0.00    -0.369 N 
ATOM      5  C   UNL     1       3.255  43.107  52.362  1.00  0.00     0.117 C 
ATOM      6  C   UNL     1       1.911  42.732  52.988  1.00  0.00     0.035 C 
ENDROOT
BRANCH   1   7
ATOM      7  C   UNL     1      -0.441  43.546  53.213  1.00  0.00     0.223 C 
ATOM      8  N   UNL     1      -0.377  44.461  54.322  1.00  0.00    -0.348 N 
ATOM      9  O   UNL     1      -1.490  42.885  52.989  1.00  0.00    -0.275 OA
ATOM     10  H   UNL     1       0.533  44.953  54.472  1.00  0.00     0.164 HD
BRANCH   8  11
ATOM     11  C   UNL     1      -1.495  44.723  55.254  1.00  0.00     0.065 C 
ATOM     12  C   UNL     1      -0.988  45.349  56.593  1.00  0.00     0.140 C 
ATOM     13  O   UNL     1      -1.435  44.566  57.679  1.00  0.00    -0.376 OA
ATOM     14  C   UNL     1      -2.406  43.681  57.186  1.00  0.00     0.163 C 
ATOM     15  C   UNL     1      -2.090  43.406  55.739  1.00  0.00     0.059 C 
ATOM     16  C   UNL     1      -1.389  46.808  56.855  1.00  0.00     0.041 C 
ATOM     17  C   UNL     1      -2.592  45.536  54.525  1.00  0.00     0.037 C 
ENDBRANCH   8  11
ENDBRANCH   1   7
BRANCH   4  18
ATOM     18  C   UNL     1       4.777  45.122  52.542  1.00  0.00     0.073 A 
ATOM     19  C   UNL     1       5.386  45.180  53.811  1.00  0.00     0.030 A 
ATOM     20  C   UNL     1       5.487  45.612  51.425  1.00  0.00     0.147 A 
ATOM     21  C   UNL     1       6.673  45.702  53.959  1.00  0.00     0.022 A 
ATOM     22  C   UNL     1       6.775  46.134  51.581  1.00  0.00     0.061 A 
ATOM     23  C   UNL     1       7.371  46.179  52.844  1.00  0.00     0.055 A 
ATOM     24  C   UNL     1       8.698  46.716  52.999  1.00  0.00     0.099 C 
ATOM     25  N   UNL     1       9.765  47.146  53.123  1.00  0.00    -0.192 NA
ATOM     26  F   UNL     1       4.925  45.619  50.192  1.00  0.00    -0.205 F 
ENDBRANCH   4  18
TORSDOF 3
ENDMDL
MODEL 5
REMARK VINA RESULT:    -7.637      3.610      8.635
REMARK INTER + INTRA:          -9.229
REMARK INTER:                  -9.000
REMARK INTRA:                  -0.229
REMARK UNBOUND:                -0.252
REMARK SMILES C[C@H]1OCC[C@]1(C)NC(=O)C1CCN(c2ccc(C#N)cc2F)CC1
REMARK SMILES IDX 11 1 12 2 13 3 14 4 24 5 25 6 9 7 8 8 10 9 6 11 2 12 3 13
REMARK SMILES IDX 4 14 5 15 1 16 7 17 15 18 16 19 22 20 17 21 21 22 18 23
REMARK SMILES IDX 19 24 20 25 23 26
REMARK H PARENT 8 10
ROOT
ATOM      1  C   UNL     1       0.425  44.175  53.008  1.00  0.00     0.082 C 
ATOM      2  C   UNL     1       0.888  45.594  52.583  1.00  0.00     0.035 C 
ATOM      3  C   UNL     1       2.257  45.964  53.165  1.00  0.00     0.117 C 
ATOM      4  N   UNL     1       3.270  44.958  52.805  1.00  0.00    -0.369 N 
ATOM      5  C   UNL     1       2.855  43.569  52.541  1.00  0.00     0.117 C 
ATOM      6  C   UNL     1       1.598  43.225  53.341  1.00  0.00     0.035 C 
ENDROOT
BRANCH   1   7
ATOM      7  C   UNL     1      -0.532  44.232  54.174  1.00  0.00     0.223 C 
ATOM      8  N   UNL     1      -0.453  45.313  55.121  1.00  0.00    -0.348 N 
ATOM      9  O   UNL     1      -1.431  43.356  54.278  1.00  0.00    -0.275 OA
ATOM     10  H   UNL     1       0.337  45.988  54.998  1.00  0.00     0.164 HD
BRANCH   8  11
ATOM     11  C   UNL     1      -1.393  45.508  56.246  1.00  0.00     0.065 C 
ATOM     12  C   UNL     1      -2.730  46.159  55.768  1.00  0.00     0.140 C 
ATOM     13  O   UNL     1      -2.981  47.328  56.519  1.00  0.00    -0.376 OA
ATOM     14  C   UNL     1      -2.095  47.325  57.608  1.00  0.00     0.163 C 
ATOM     15  C   UNL     1      -0.856  46.573  57.195  1.00  0.00     0.059 C 
ATOM     16  C   UNL     1      -3.980  45.268  55.835  1.00  0.00     0.041 C 
ATOM     17  C   UNL     1      -1.552  44.176  57.019  1.00  0.00     0.037 C 
ENDBRANCH   8  11
ENDBRANCH   1   7
BRANCH   4  18
ATOM     18  C   UNL     1       4.668  45.319  52.781  1.00  0.00     0.073 A 
ATOM     19  C   UNL     1       5.282  45.687  51.568  1.00  0.00     0.030 A 
ATOM     20  C   UNL     1       5.443  45.315  53.961  1.00  0.00     0.147 A 
ATOM     21  C   UNL     1       6.630  46.052  51.535  1.00  0.00     0.022 A 
ATOM     22  C   UNL     1       6.793  45.681  53.920  1.00  0.00     0.061 A 
ATOM     23  C   UNL     1       7.388  46.051  52.711  1.00  0.00     0.055 A 
ATOM     24  C   UNL     1       8.777  46.428  52.674  1.00  0.00     0.099 C 
ATOM     25  N   UNL     1       9.893  46.732  52.645  1.00  0.00    -0.192 NA
ATOM     26  F   UNL     1       4.909  44.925  55.144  1.00  0.00    -0.205 F 
ENDBRANCH   4  18
TORSDOF 3
ENDMDL
