MODEL 1
REMARK VINA RESULT:    -7.966      0.000      0.000
REMARK INTER + INTRA:         -10.771
REMARK INTER:                  -9.828
REMARK INTRA:                  -0.942
REMARK UNBOUND:                -0.942
REMARK SMILES CN1CCC[C@@H](N2CCN(C(=O)Cc3csc(-c4cccs4)n3)CC2)C1
REMARK SMILES IDX 7 1 8 2 9 3 10 4 24 5 25 6 11 7 12 8 6 9 2 10 3 11 26 12
REMARK SMILES IDX 4 13 5 14 1 15 13 16 14 17 15 18 23 19 16 20 17 21 18 22
REMARK SMILES IDX 19 23 22 24 20 25 21 26
REMARK H PARENT
ROOT
ATOM      1  N   UNL     1       3.973  46.064  54.507  1.00  0.00    -0.296 NA
ATOM      2  C   UNL     1       5.043  45.440  55.316  1.00  0.00     0.106 C 
ATOM      3  C   UNL     1       6.466  45.911  54.940  1.00  0.00     0.135 C 
ATOM      4  N   UNL     1       6.526  46.532  53.608  1.00  0.00    -0.340 N 
ATOM      5  C   UNL     1       5.511  47.527  53.220  1.00  0.00     0.135 C 
ATOM      6  C   UNL     1       4.277  47.453  54.122  1.00  0.00     0.106 C 
ATOM      7  C   UNL     1       7.733  46.398  52.828  1.00  0.00     0.228 C 
ATOM      8  O   UNL     1       8.818  46.113  53.408  1.00  0.00    -0.274 OA
ENDROOT
BRANCH   1   9
ATOM      9  C   UNL     1       3.332  45.230  53.452  1.00  0.00     0.071 C 
ATOM     10  N   UNL     1       1.659  43.507  52.826  1.00  0.00    -0.305 NA
ATOM     11  C   UNL     1       1.076  44.392  51.798  1.00  0.00     0.084 C 
ATOM     12  C   UNL     1       2.193  44.301  53.950  1.00  0.00     0.103 C 
ATOM     13  C   UNL     1       2.154  45.312  51.217  1.00  0.00     0.017 C 
ATOM     14  C   UNL     1       2.810  46.139  52.326  1.00  0.00     0.022 C 
ATOM     15  C   UNL     1       0.637  42.568  53.315  1.00  0.00     0.105 C 
ENDBRANCH   1   9
BRANCH   7  16
ATOM     16  C   UNL     1       7.741  46.643  51.340  1.00  0.00     0.157 C 
BRANCH  16  17
ATOM     17  C   UNL     1       7.556  45.365  50.579  1.00  0.00     0.061 A 
ATOM     18  C   UNL     1       8.537  44.820  49.752  1.00  0.00     0.091 A 
ATOM     19  N   UNL     1       6.421  44.623  50.696  1.00  0.00    -0.240 NA
ATOM     20  S   UNL     1       7.944  43.370  49.143  1.00  0.00    -0.121 S 
ATOM     21  C   UNL     1       6.477  43.493  49.958  1.00  0.00     0.133 A 
BRANCH  21  22
ATOM     22  C   UNL     1       5.389  42.510  49.898  1.00  0.00     0.063 A 
ATOM     23  C   UNL     1       4.349  42.394  50.811  1.00  0.00     0.023 A 
ATOM     24  S   UNL     1       5.192  41.334  48.711  1.00  0.00    -0.141 S 
ATOM     25  C   UNL     1       3.453  41.364  50.500  1.00  0.00     0.012 A 
ATOM     26  C   UNL     1       3.784  40.667  49.345  1.00  0.00     0.065 A 
ENDBRANCH  21  22
ENDBRANCH  16  17
ENDBRANCH   7  16
TORSDOF 4
ENDMDL
MODEL 2
REMARK VINA RESULT:    -7.583      2.424      5.049
REMARK INTER + INTRA:         -10.298
REMARK INTER:                  -9.511
REMARK INTRA:                  -0.788
REMARK UNBOUND:                -0.942
REMARK SMILES CN1CCC[C@@H](N2CCN(C(=O)Cc3csc(-c4cccs4)n3)CC2)C1
REMARK SMILES IDX 7 1 8 2 9 3 10 4 24 5 25 6 11 7 12 8 6 9 2 10 3 11 26 12
REMARK SMILES IDX 4 13 5 14 1 15 13 16 14 17 15 18 23 19 16 20 17 21 18 22
REMARK SMILES IDX 19 23 22 24 20 25 21 26
REMARK H PARENT
ROOT
ATOM      1  N   UNL     1       5.442  46.672  53.679  1.00  0.00    -0.296 NA
ATOM      2  C   UNL     1       4.453  47.196  52.712  1.00  0.00     0.106 C 
ATOM      3  C   UNL     1       3.278  46.231  52.435  1.00  0.00     0.135 C 
ATOM      4  N   UNL     1       3.577  44.845  52.829  1.00  0.00    -0.340 N 
ATOM      5  C   UNL     1       4.196  44.576  54.138  1.00  0.00     0.135 C 
ATOM      6  C   UNL     1       4.836  45.834  54.727  1.00  0.00     0.106 C 
ATOM      7  C   UNL     1       2.984  43.763  52.079  1.00  0.00     0.228 C 
ATOM      8  O   UNL     1       1.954  43.982  51.383  1.00  0.00    -0.274 OA
ENDROOT
BRANCH   1   9
ATOM      9  C   UNL     1       6.743  46.185  53.139  1.00  0.00     0.071 C 
ATOM     10  N   UNL     1       8.066  45.337  51.217  1.00  0.00    -0.305 NA
ATOM     11  C   UNL     1       9.091  46.381  51.413  1.00  0.00     0.084 C 
ATOM     12  C   UNL     1       6.737  45.833  51.626  1.00  0.00     0.103 C 
ATOM     13  C   UNL     1       9.195  46.749  52.896  1.00  0.00     0.017 C 
ATOM     14  C   UNL     1       7.840  47.223  53.428  1.00  0.00     0.022 C 
ATOM     15  C   UNL     1       8.034  44.926  49.804  1.00  0.00     0.105 C 
ENDBRANCH   1   9
BRANCH   7  16
ATOM     16  C   UNL     1       3.535  42.361  52.151  1.00  0.00     0.157 C 
BRANCH  16  17
ATOM     17  C   UNL     1       4.132  41.946  50.840  1.00  0.00     0.061 A 
ATOM     18  C   UNL     1       5.457  42.197  50.490  1.00  0.00     0.091 A 
ATOM     19  N   UNL     1       3.416  41.239  49.923  1.00  0.00    -0.240 NA
ATOM     20  S   UNL     1       5.723  41.519  48.975  1.00  0.00    -0.121 S 
ATOM     21  C   UNL     1       4.153  40.933  48.833  1.00  0.00     0.133 A 
BRANCH  21  22
ATOM     22  C   UNL     1       3.631  40.178  47.687  1.00  0.00     0.063 A 
ATOM     23  C   UNL     1       3.047  38.918  47.744  1.00  0.00     0.023 A 
ATOM     24  S   UNL     1       3.638  40.692  46.085  1.00  0.00    -0.141 S 
ATOM     25  C   UNL     1       2.639  38.442  46.492  1.00  0.00     0.012 A 
ATOM     26  C   UNL     1       2.900  39.321  45.449  1.00  0.00     0.065 A 
ENDBRANCH  21  22
ENDBRANCH  16  17
ENDBRANCH   7  16
TORSDOF 4
ENDMDL
MODEL 3
REMARK VINA RESULT:    -7.369      2.756      5.913
REMARK INTER + INTRA:         -10.034
REMARK INTER:                  -9.287
REMARK INTRA:                  -0.747
REMARK UNBOUND:                -0.942
REMARK SMILES CN1CCC[C@@H](N2CCN(C(=O)Cc3csc(-c4cccs4)n3)CC2)C1
REMARK SMILES IDX 7 1 8 2 9 3 10 4 24 5 25 6 11 7 12 8 6 9 2 10 3 11 26 12
REMARK SMILES IDX 4 13 5 14 1 15 13 16 14 17 15 18 23 19 16 20 17 21 18 22
REMARK SMILES IDX 19 23 22 24 20 25 21 26
REMARK H PARENT
ROOT
ATOM      1  N   UNL     1       2.300  43.521  51.403  1.00  0.00    -0.296 NA
ATOM      2  C   UNL     1       1.635  42.669  52.413  1.00  0.00     0.106 C 
ATOM      3  C   UNL     1       1.092  43.451  53.630  1.00  0.00     0.135 C 
ATOM      4  N   UNL     1       1.701  44.784  53.766  1.00  0.00    -0.340 N 
ATOM      5  C   UNL     1       1.829  45.652  52.583  1.00  0.00     0.135 C 
ATOM      6  C   UNL     1       1.691  44.857  51.284  1.00  0.00     0.106 C 
ATOM      7  C   UNL     1       1.876  45.341  55.087  1.00  0.00     0.228 C 
ATOM      8  O   UNL     1       1.184  44.894  56.045  1.00  0.00    -0.274 OA
ENDROOT
BRANCH   1   9
ATOM      9  C   UNL     1       3.789  43.485  51.343  1.00  0.00     0.071 C 
ATOM     10  N   UNL     1       5.860  42.389  50.524  1.00  0.00    -0.305 NA
ATOM     11  C   UNL     1       6.351  43.659  49.953  1.00  0.00     0.084 C 
ATOM     12  C   UNL     1       4.385  42.339  50.482  1.00  0.00     0.103 C 
ATOM     13  C   UNL     1       5.845  44.843  50.782  1.00  0.00     0.017 C 
ATOM     14  C   UNL     1       4.315  44.841  50.844  1.00  0.00     0.022 C 
ATOM     15  C   UNL     1       6.422  41.254  49.775  1.00  0.00     0.105 C 
ENDBRANCH   1   9
BRANCH   7  16
ATOM     16  C   UNL     1       2.827  46.482  55.341  1.00  0.00     0.157 C 
BRANCH  16  17
ATOM     17  C   UNL     1       4.247  46.071  55.093  1.00  0.00     0.061 A 
ATOM     18  C   UNL     1       4.806  44.904  55.610  1.00  0.00     0.091 A 
ATOM     19  N   UNL     1       5.069  46.798  54.288  1.00  0.00    -0.240 NA
ATOM     20  S   UNL     1       6.386  44.800  55.046  1.00  0.00    -0.121 S 
ATOM     21  C   UNL     1       6.290  46.231  54.167  1.00  0.00     0.133 A 
BRANCH  21  22
ATOM     22  C   UNL     1       7.373  46.805  53.360  1.00  0.00     0.063 A 
ATOM     23  C   UNL     1       7.232  47.807  52.407  1.00  0.00     0.023 A 
ATOM     24  S   UNL     1       8.994  46.360  53.432  1.00  0.00    -0.141 S 
ATOM     25  C   UNL     1       8.440  48.157  51.793  1.00  0.00     0.012 A 
ATOM     26  C   UNL     1       9.532  47.435  52.256  1.00  0.00     0.065 A 
ENDBRANCH  21  22
ENDBRANCH  16  17
ENDBRANCH   7  16
TORSDOF 4
ENDMDL
MODEL 4
REMARK VINA RESULT:    -7.305      3.195      6.241
REMARK INTER + INTRA:          -9.956
REMARK INTER:                  -9.386
REMARK INTRA:                  -0.570
REMARK UNBOUND:                -0.942
REMARK SMILES CN1CCC[C@@H](N2CCN(C(=O)Cc3csc(-c4cccs4)n3)CC2)C1
REMARK SMILES IDX 7 1 8 2 9 3 10 4 24 5 25 6 11 7 12 8 6 9 2 10 3 11 26 12
REMARK SMILES IDX 4 13 5 14 1 15 13 16 14 17 15 18 23 19 16 20 17 21 18 22
REMARK SMILES IDX 19 23 22 24 20 25 21 26
REMARK H PARENT
ROOT
ATOM      1  N   UNL     1      -1.481  43.602  53.223  1.00  0.00    -0.296 NA
ATOM      2  C   UNL     1      -1.405  44.830  52.400  1.00  0.00     0.106 C 
ATOM      3  C   UNL     1      -0.124  44.929  51.542  1.00  0.00     0.135 C 
ATOM      4  N   UNL     1       0.947  44.036  52.015  1.00  0.00    -0.340 N 
ATOM      5  C   UNL     1       0.634  42.638  52.354  1.00  0.00     0.135 C 
ATOM      6  C   UNL     1      -0.867  42.433  52.572  1.00  0.00     0.106 C 
ATOM      7  C   UNL     1       2.321  44.443  51.844  1.00  0.00     0.228 C 
ATOM      8  O   UNL     1       2.606  45.320  50.981  1.00  0.00    -0.274 OA
ENDROOT
BRANCH   1   9
ATOM      9  C   UNL     1      -1.222  43.735  54.684  1.00  0.00     0.071 C 
ATOM     10  N   UNL     1      -0.043  44.886  56.540  1.00  0.00    -0.305 NA
ATOM     11  C   UNL     1      -1.318  45.153  57.235  1.00  0.00     0.084 C 
ATOM     12  C   UNL     1      -0.243  44.874  55.078  1.00  0.00     0.103 C 
ATOM     13  C   UNL     1      -2.327  44.041  56.936  1.00  0.00     0.017 C 
ATOM     14  C   UNL     1      -2.555  43.913  55.428  1.00  0.00     0.022 C 
ATOM     15  C   UNL     1       0.948  45.912  56.903  1.00  0.00     0.105 C 
ENDBRANCH   1   9
BRANCH   7  16
ATOM     16  C   UNL     1       3.435  43.806  52.635  1.00  0.00     0.157 C 
BRANCH  16  17
ATOM     17  C   UNL     1       4.374  44.840  53.180  1.00  0.00     0.061 A 
ATOM     18  C   UNL     1       4.052  45.678  54.246  1.00  0.00     0.091 A 
ATOM     19  N   UNL     1       5.636  44.984  52.691  1.00  0.00    -0.240 NA
ATOM     20  S   UNL     1       5.395  46.635  54.567  1.00  0.00    -0.121 S 
ATOM     21  C   UNL     1       6.326  45.943  53.349  1.00  0.00     0.133 A 
BRANCH  21  22
ATOM     22  C   UNL     1       7.711  46.308  53.027  1.00  0.00     0.063 A 
ATOM     23  C   UNL     1       8.656  46.780  53.930  1.00  0.00     0.023 A 
ATOM     24  S   UNL     1       8.420  46.228  51.504  1.00  0.00    -0.141 S 
ATOM     25  C   UNL     1       9.897  47.047  53.340  1.00  0.00     0.012 A 
ATOM     26  C   UNL     1       9.933  46.790  51.976  1.00  0.00     0.065 A 
ENDBRANCH  21  22
ENDBRANCH  16  17
ENDBRANCH   7  16
TORSDOF 4
ENDMDL
MODEL 5
REMARK VINA RESULT:    -7.130      4.654      7.711
REMARK INTER + INTRA:          -9.740
REMARK INTER:                  -9.311
REMARK INTRA:                  -0.429
REMARK UNBOUND:                -0.942
REMARK SMILES CN1CCC[C@@H](N2CCN(C(=O)Cc3csc(-c4cccs4)n3)CC2)C1
REMARK SMILES IDX 7 1 8 2 9 3 10 4 24 5 25 6 11 7 12 8 6 9 2 10 3 11 26 12
REMARK SMILES IDX 4 13 5 14 1 15 13 16 14 17 15 18 23 19 16 20 17 21 18 22
REMARK SMILES IDX 19 23 22 24 20 25 21 26
REMARK H PARENT
ROOT
ATOM      1  N   UNL     1       5.733  45.186  51.493  1.00  0.00    -0.296 NA
ATOM      2  C   UNL     1       4.867  46.030  50.640  1.00  0.00     0.106 C 
ATOM      3  C   UNL     1       3.512  46.389  51.290  1.00  0.00     0.135 C 
ATOM      4  N   UNL     1       3.163  45.498  52.408  1.00  0.00    -0.340 N 
ATOM      5  C   UNL     1       4.178  45.174  53.426  1.00  0.00     0.135 C 
ATOM      6  C   UNL     1       5.592  45.480  52.929  1.00  0.00     0.106 C 
ATOM      7  C   UNL     1       1.772  45.210  52.664  1.00  0.00     0.228 C 
ATOM      8  O   UNL     1       0.884  45.988  52.216  1.00  0.00    -0.274 OA
ENDROOT
BRANCH   1   9
ATOM      9  C   UNL     1       5.852  43.743  51.140  1.00  0.00     0.071 C 
ATOM     10  N   UNL     1       4.765  41.633  50.416  1.00  0.00    -0.305 NA
ATOM     11  C   UNL     1       5.711  41.487  49.292  1.00  0.00     0.084 C 
ATOM     12  C   UNL     1       4.526  43.060  50.709  1.00  0.00     0.103 C 
ATOM     13  C   UNL     1       7.068  42.094  49.660  1.00  0.00     0.017 C 
ATOM     14  C   UNL     1       6.911  43.570  50.039  1.00  0.00     0.022 C 
ATOM     15  C   UNL     1       3.493  40.969  50.087  1.00  0.00     0.105 C 
ENDBRANCH   1   9
BRANCH   7  16
ATOM     16  C   UNL     1       1.354  44.029  53.502  1.00  0.00     0.157 C 
BRANCH  16  17
ATOM     17  C   UNL     1       0.379  44.436  54.566  1.00  0.00     0.061 A 
ATOM     18  C   UNL     1      -0.900  43.895  54.677  1.00  0.00     0.091 A 
ATOM     19  N   UNL     1       0.714  45.333  55.533  1.00  0.00    -0.240 NA
ATOM     20  S   UNL     1      -1.630  44.582  56.026  1.00  0.00    -0.121 S 
ATOM     21  C   UNL     1      -0.293  45.527  56.413  1.00  0.00     0.133 A 
BRANCH  21  22
ATOM     22  C   UNL     1      -0.205  46.444  57.556  1.00  0.00     0.063 A 
ATOM     23  C   UNL     1       0.926  46.668  58.331  1.00  0.00     0.023 A 
ATOM     24  S   UNL     1      -1.457  47.399  58.149  1.00  0.00    -0.141 S 
ATOM     25  C   UNL     1       0.717  47.598  59.356  1.00  0.00     0.012 A 
ATOM     26  C   UNL     1      -0.575  48.107  59.393  1.00  0.00     0.065 A 
ENDBRANCH  21  22
ENDBRANCH  16  17
ENDBRANCH   7  16
TORSDOF 4
ENDMDL
