MODEL 1
REMARK VINA RESULT:    -9.079      0.000      0.000
REMARK INTER + INTRA:         -12.947
REMARK INTER:                 -12.263
REMARK INTRA:                  -0.683
REMARK UNBOUND:                -0.683
REMARK SMILES C[C@H](C(=O)NC1(Cc2ccccc2)CCC1)n1ccc(C(F)(F)F)n1
REMARK SMILES IDX 3 1 4 2 5 3 2 5 1 6 17 7 18 8 25 9 19 10 20 11 21 12 22 13
REMARK SMILES IDX 23 14 24 15 6 16 14 17 16 18 15 19 7 20 8 21 9 22 13 23
REMARK SMILES IDX 10 24 12 25 11 26
REMARK H PARENT 5 4
ROOT
ATOM      1  C   UNL     1       4.086  45.313  52.885  1.00  0.00     0.245 C 
ATOM      2  O   UNL     1       4.354  44.673  53.939  1.00  0.00    -0.273 OA
ATOM      3  N   UNL     1       3.183  44.763  51.914  1.00  0.00    -0.348 N 
ATOM      4  H   UNL     1       2.929  45.357  51.093  1.00  0.00     0.164 HD
ENDROOT
BRANCH   1   5
ATOM      5  C   UNL     1       4.673  46.684  52.674  1.00  0.00     0.193 C 
ATOM      6  C   UNL     1       4.527  47.528  53.941  1.00  0.00     0.044 C 
BRANCH   5   7
ATOM      7  N   UNL     1       6.079  46.584  52.272  1.00  0.00    -0.260 N 
ATOM      8  C   UNL     1       6.530  46.038  51.126  1.00  0.00     0.110 A 
ATOM      9  N   UNL     1       7.104  46.925  53.041  1.00  0.00    -0.168 NA
ATOM     10  C   UNL     1       7.909  46.047  51.149  1.00  0.00     0.055 A 
ATOM     11  C   UNL     1       8.229  46.627  52.363  1.00  0.00     0.166 A 
BRANCH  11  12
ATOM     12  C   UNL     1       9.608  46.792  52.918  1.00  0.00     0.435 C 
ATOM     13  F   UNL     1       9.909  45.734  53.758  1.00  0.00    -0.164 F 
ATOM     14  F   UNL     1      10.520  46.822  51.880  1.00  0.00    -0.164 F 
ATOM     15  F   UNL     1       9.691  47.973  53.635  1.00  0.00    -0.164 F 
ENDBRANCH  11  12
ENDBRANCH   5   7
ENDBRANCH   1   5
BRANCH   3  16
ATOM     16  C   UNL     1       2.568  43.433  52.048  1.00  0.00     0.044 C 
ATOM     17  C   UNL     1       1.474  43.400  53.129  1.00  0.00     0.029 C 
ATOM     18  C   UNL     1       1.496  43.179  50.981  1.00  0.00     0.029 C 
ATOM     19  C   UNL     1       0.421  43.153  52.058  1.00  0.00     0.005 C 
BRANCH  16  20
ATOM     20  C   UNL     1       3.608  42.291  52.168  1.00  0.00     0.063 C 
BRANCH  20  21
ATOM     21  C   UNL     1       4.326  42.036  50.865  1.00  0.00    -0.046 A 
ATOM     22  C   UNL     1       3.857  41.061  49.968  1.00  0.00     0.004 A 
ATOM     23  C   UNL     1       5.492  42.755  50.548  1.00  0.00     0.004 A 
ATOM     24  C   UNL     1       4.547  40.807  48.778  1.00  0.00     0.000 A 
ATOM     25  C   UNL     1       6.180  42.496  49.359  1.00  0.00     0.000 A 
ATOM     26  C   UNL     1       5.708  41.522  48.475  1.00  0.00     0.000 A 
ENDBRANCH  20  21
ENDBRANCH  16  20
ENDBRANCH   3  16
TORSDOF 6
ENDMDL
MODEL 2
REMARK VINA RESULT:    -8.972      3.504      6.130
REMARK INTER + INTRA:         -12.803
REMARK INTER:                 -12.305
REMARK INTRA:                  -0.497
REMARK UNBOUND:                -0.683
REMARK SMILES C[C@H](C(=O)NC1(Cc2ccccc2)CCC1)n1ccc(C(F)(F)F)n1
REMARK SMILES IDX 3 1 4 2 5 3 2 5 1 6 17 7 18 8 25 9 19 10 20 11 21 12 22 13
REMARK SMILES IDX 23 14 24 15 6 16 14 17 16 18 15 19 7 20 8 21 9 22 13 23
REMARK SMILES IDX 10 24 12 25 11 26
REMARK H PARENT 5 4
ROOT
ATOM      1  C   UNL     1       5.883  46.615  53.618  1.00  0.00     0.245 C 
ATOM      2  O   UNL     1       5.769  47.854  53.413  1.00  0.00    -0.273 OA
ATOM      3  N   UNL     1       7.116  45.942  53.319  1.00  0.00    -0.348 N 
ATOM      4  H   UNL     1       7.195  44.932  53.575  1.00  0.00     0.164 HD
ENDROOT
BRANCH   1   5
ATOM      5  C   UNL     1       4.740  45.851  54.232  1.00  0.00     0.193 C 
ATOM      6  C   UNL     1       4.020  46.711  55.272  1.00  0.00     0.044 C 
BRANCH   5   7
ATOM      7  N   UNL     1       3.809  45.398  53.195  1.00  0.00    -0.260 N 
ATOM      8  C   UNL     1       2.981  46.190  52.486  1.00  0.00     0.110 A 
ATOM      9  N   UNL     1       3.583  44.127  52.894  1.00  0.00    -0.168 NA
ATOM     10  C   UNL     1       2.200  45.393  51.675  1.00  0.00     0.055 A 
ATOM     11  C   UNL     1       2.621  44.105  51.951  1.00  0.00     0.166 A 
BRANCH  11  12
ATOM     12  C   UNL     1       2.025  42.851  51.394  1.00  0.00     0.435 C 
ATOM     13  F   UNL     1       1.210  42.254  52.340  1.00  0.00    -0.164 F 
ATOM     14  F   UNL     1       1.274  43.156  50.276  1.00  0.00    -0.164 F 
ATOM     15  F   UNL     1       3.029  41.965  51.043  1.00  0.00    -0.164 F 
ENDBRANCH  11  12
ENDBRANCH   5   7
ENDBRANCH   1   5
BRANCH   3  16
ATOM     16  C   UNL     1       8.278  46.618  52.720  1.00  0.00     0.044 C 
ATOM     17  C   UNL     1       8.649  47.913  53.463  1.00  0.00     0.029 C 
ATOM     18  C   UNL     1       9.607  45.999  53.174  1.00  0.00     0.029 C 
ATOM     19  C   UNL     1       9.961  47.283  53.909  1.00  0.00     0.005 C 
BRANCH  16  20
ATOM     20  C   UNL     1       8.161  46.782  51.184  1.00  0.00     0.063 C 
BRANCH  20  21
ATOM     21  C   UNL     1       7.648  45.530  50.515  1.00  0.00    -0.046 A 
ATOM     22  C   UNL     1       6.294  45.167  50.615  1.00  0.00     0.004 A 
ATOM     23  C   UNL     1       8.530  44.696  49.804  1.00  0.00     0.004 A 
ATOM     24  C   UNL     1       5.833  43.988  50.020  1.00  0.00     0.000 A 
ATOM     25  C   UNL     1       8.066  43.517  49.214  1.00  0.00     0.000 A 
ATOM     26  C   UNL     1       6.719  43.163  49.322  1.00  0.00     0.000 A 
ENDBRANCH  20  21
ENDBRANCH  16  20
ENDBRANCH   3  16
TORSDOF 6
ENDMDL
MODEL 3
REMARK VINA RESULT:    -8.867      1.413      2.017
REMARK INTER + INTRA:         -12.660
REMARK INTER:                 -12.268
REMARK INTRA:                  -0.392
REMARK UNBOUND:                -0.683
REMARK SMILES C[C@H](C(=O)NC1(Cc2ccccc2)CCC1)n1ccc(C(F)(F)F)n1
REMARK SMILES IDX 3 1 4 2 5 3 2 5 1 6 17 7 18 8 25 9 19 10 20 11 21 12 22 13
REMARK SMILES IDX 23 14 24 15 6 16 14 17 16 18 15 19 7 20 8 21 9 22 13 23
REMARK SMILES IDX 10 24 12 25 11 26
REMARK H PARENT 5 4
ROOT
ATOM      1  C   UNL     1       3.791  45.843  54.026  1.00  0.00     0.245 C 
ATOM      2  O   UNL     1       3.150  46.788  53.491  1.00  0.00    -0.273 OA
ATOM      3  N   UNL     1       3.388  44.481  53.812  1.00  0.00    -0.348 N 
ATOM      4  H   UNL     1       3.991  43.726  54.210  1.00  0.00     0.164 HD
ENDROOT
BRANCH   1   5
ATOM      5  C   UNL     1       5.018  46.143  54.846  1.00  0.00     0.193 C 
ATOM      6  C   UNL     1       5.444  44.906  55.641  1.00  0.00     0.044 C 
BRANCH   5   7
ATOM      7  N   UNL     1       6.109  46.611  53.987  1.00  0.00    -0.260 N 
ATOM      8  C   UNL     1       5.962  47.188  52.778  1.00  0.00     0.110 A 
ATOM      9  N   UNL     1       7.396  46.427  54.243  1.00  0.00    -0.168 NA
ATOM     10  C   UNL     1       7.213  47.406  52.241  1.00  0.00     0.055 A 
ATOM     11  C   UNL     1       8.087  46.927  53.200  1.00  0.00     0.166 A 
BRANCH  11  12
ATOM     12  C   UNL     1       9.574  46.847  53.067  1.00  0.00     0.435 C 
ATOM     13  F   UNL     1      10.001  45.551  53.299  1.00  0.00    -0.164 F 
ATOM     14  F   UNL     1       9.943  47.224  51.790  1.00  0.00    -0.164 F 
ATOM     15  F   UNL     1      10.177  47.690  53.984  1.00  0.00    -0.164 F 
ENDBRANCH  11  12
ENDBRANCH   5   7
ENDBRANCH   1   5
BRANCH   3  16
ATOM     16  C   UNL     1       2.203  44.106  53.023  1.00  0.00     0.044 C 
ATOM     17  C   UNL     1       1.607  42.759  53.465  1.00  0.00     0.029 C 
ATOM     18  C   UNL     1       0.932  44.810  53.515  1.00  0.00     0.029 C 
ATOM     19  C   UNL     1       0.354  43.473  53.953  1.00  0.00     0.005 C 
BRANCH  16  20
ATOM     20  C   UNL     1       2.429  44.227  51.495  1.00  0.00     0.063 C 
BRANCH  20  21
ATOM     21  C   UNL     1       3.716  43.574  51.056  1.00  0.00    -0.046 A 
ATOM     22  C   UNL     1       4.853  44.349  50.771  1.00  0.00     0.004 A 
ATOM     23  C   UNL     1       3.783  42.177  50.901  1.00  0.00     0.004 A 
ATOM     24  C   UNL     1       6.033  43.739  50.332  1.00  0.00     0.000 A 
ATOM     25  C   UNL     1       4.963  41.572  50.459  1.00  0.00     0.000 A 
ATOM     26  C   UNL     1       6.087  42.352  50.174  1.00  0.00     0.000 A 
ENDBRANCH  20  21
ENDBRANCH  16  20
ENDBRANCH   3  16
TORSDOF 6
ENDMDL
MODEL 4
REMARK VINA RESULT:    -8.575      2.422      5.496
REMARK INTER + INTRA:         -12.266
REMARK INTER:                 -11.606
REMARK INTRA:                  -0.659
REMARK UNBOUND:                -0.683
REMARK SMILES C[C@H](C(=O)NC1(Cc2ccccc2)CCC1)n1ccc(C(F)(F)F)n1
REMARK SMILES IDX 3 1 4 2 5 3 2 5 1 6 17 7 18 8 25 9 19 10 20 11 21 12 22 13
REMARK SMILES IDX 23 14 24 15 6 16 14 17 16 18 15 19 7 20 8 21 9 22 13 23
REMARK SMILES IDX 10 24 12 25 11 26
REMARK H PARENT 5 4
ROOT
ATOM      1  C   UNL     1       3.564  44.049  52.477  1.00  0.00     0.245 C 
ATOM      2  O   UNL     1       2.615  44.874  52.582  1.00  0.00    -0.273 OA
ATOM      3  N   UNL     1       4.813  44.294  53.144  1.00  0.00    -0.348 N 
ATOM      4  H   UNL     1       5.545  43.550  53.096  1.00  0.00     0.164 HD
ENDROOT
BRANCH   1   5
ATOM      5  C   UNL     1       3.366  42.777  51.696  1.00  0.00     0.193 C 
ATOM      6  C   UNL     1       2.077  42.850  50.875  1.00  0.00     0.044 C 
BRANCH   5   7
ATOM      7  N   UNL     1       4.521  42.520  50.831  1.00  0.00    -0.260 N 
ATOM      8  C   UNL     1       4.922  41.309  50.399  1.00  0.00     0.110 A 
ATOM      9  N   UNL     1       5.390  43.444  50.448  1.00  0.00    -0.168 NA
ATOM     10  C   UNL     1       6.092  41.463  49.686  1.00  0.00     0.055 A 
ATOM     11  C   UNL     1       6.344  42.823  49.728  1.00  0.00     0.166 A 
BRANCH  11  12
ATOM     12  C   UNL     1       7.553  43.507  49.175  1.00  0.00     0.435 C 
ATOM     13  F   UNL     1       8.699  42.962  49.728  1.00  0.00    -0.164 F 
ATOM     14  F   UNL     1       7.588  43.340  47.803  1.00  0.00    -0.164 F 
ATOM     15  F   UNL     1       7.510  44.858  49.470  1.00  0.00    -0.164 F 
ENDBRANCH  11  12
ENDBRANCH   5   7
ENDBRANCH   1   5
BRANCH   3  16
ATOM     16  C   UNL     1       5.083  45.510  53.927  1.00  0.00     0.044 C 
ATOM     17  C   UNL     1       3.910  45.886  54.849  1.00  0.00     0.029 C 
ATOM     18  C   UNL     1       5.941  45.223  55.166  1.00  0.00     0.029 C 
ATOM     19  C   UNL     1       4.773  45.594  56.068  1.00  0.00     0.005 C 
BRANCH  16  20
ATOM     20  C   UNL     1       5.610  46.683  53.064  1.00  0.00     0.063 C 
BRANCH  20  21
ATOM     21  C   UNL     1       7.117  46.768  53.076  1.00  0.00    -0.046 A 
ATOM     22  C   UNL     1       7.876  46.193  52.044  1.00  0.00     0.004 A 
ATOM     23  C   UNL     1       7.780  47.405  54.141  1.00  0.00     0.004 A 
ATOM     24  C   UNL     1       9.273  46.247  52.080  1.00  0.00     0.000 A 
ATOM     25  C   UNL     1       9.176  47.454  54.175  1.00  0.00     0.000 A 
ATOM     26  C   UNL     1       9.922  46.875  53.145  1.00  0.00     0.000 A 
ENDBRANCH  20  21
ENDBRANCH  16  20
ENDBRANCH   3  16
TORSDOF 6
ENDMDL
MODEL 5
REMARK VINA RESULT:    -8.420      4.521      7.202
REMARK INTER + INTRA:         -12.057
REMARK INTER:                 -11.464
REMARK INTRA:                  -0.593
REMARK UNBOUND:                -0.683
REMARK SMILES C[C@H](C(=O)NC1(Cc2ccccc2)CCC1)n1ccc(C(F)(F)F)n1
REMARK SMILES IDX 3 1 4 2 5 3 2 5 1 6 17 7 18 8 25 9 19 10 20 11 21 12 22 13
REMARK SMILES IDX 23 14 24 15 6 16 14 17 16 18 15 19 7 20 8 21 9 22 13 23
REMARK SMILES IDX 10 24 12 25 11 26
REMARK H PARENT 5 4
ROOT
ATOM      1  C   UNL     1       2.615  46.209  52.581  1.00  0.00     0.245 C 
ATOM      2  O   UNL     1       2.672  47.464  52.695  1.00  0.00    -0.273 OA
ATOM      3  N   UNL     1       3.736  45.396  52.962  1.00  0.00    -0.348 N 
ATOM      4  H   UNL     1       3.619  44.358  52.925  1.00  0.00     0.164 HD
ENDROOT
BRANCH   1   5
ATOM      5  C   UNL     1       1.346  45.560  52.096  1.00  0.00     0.193 C 
ATOM      6  C   UNL     1       1.668  44.384  51.171  1.00  0.00     0.044 C 
BRANCH   5   7
ATOM      7  N   UNL     1       0.527  45.122  53.229  1.00  0.00    -0.260 N 
ATOM      8  C   UNL     1      -0.674  44.517  53.141  1.00  0.00     0.110 A 
ATOM      9  N   UNL     1       0.816  45.363  54.500  1.00  0.00    -0.168 NA
ATOM     10  C   UNL     1      -1.171  44.342  54.415  1.00  0.00     0.055 A 
ATOM     11  C   UNL     1      -0.197  44.874  55.241  1.00  0.00     0.166 A 
BRANCH  11  12
ATOM     12  C   UNL     1      -0.289  45.012  56.727  1.00  0.00     0.435 C 
ATOM     13  F   UNL     1      -1.301  44.204  57.215  1.00  0.00    -0.164 F 
ATOM     14  F   UNL     1       0.911  44.632  57.299  1.00  0.00    -0.164 F 
ATOM     15  F   UNL     1      -0.561  46.326  57.064  1.00  0.00    -0.164 F 
ENDBRANCH  11  12
ENDBRANCH   5   7
ENDBRANCH   1   5
BRANCH   3  16
ATOM     16  C   UNL     1       5.008  45.954  53.447  1.00  0.00     0.044 C 
ATOM     17  C   UNL     1       4.917  46.444  54.902  1.00  0.00     0.029 C 
ATOM     18  C   UNL     1       5.987  44.861  53.896  1.00  0.00     0.029 C 
ATOM     19  C   UNL     1       5.886  45.352  55.332  1.00  0.00     0.005 C 
BRANCH  16  20
ATOM     20  C   UNL     1       5.631  46.983  52.471  1.00  0.00     0.063 C 
BRANCH  20  21
ATOM     21  C   UNL     1       7.127  46.827  52.356  1.00  0.00    -0.046 A 
ATOM     22  C   UNL     1       7.987  47.480  53.256  1.00  0.00     0.004 A 
ATOM     23  C   UNL     1       7.680  46.045  51.326  1.00  0.00     0.004 A 
ATOM     24  C   UNL     1       9.374  47.357  53.123  1.00  0.00     0.000 A 
ATOM     25  C   UNL     1       9.066  45.927  51.195  1.00  0.00     0.000 A 
ATOM     26  C   UNL     1       9.913  46.584  52.092  1.00  0.00     0.000 A 
ENDBRANCH  20  21
ENDBRANCH  16  20
ENDBRANCH   3  16
TORSDOF 6
ENDMDL
