ligand_51_conformer_5_docked
     RDKit          3D

 40 43  0  0  0  0  0  0  0  0999 V2000
    4.2900   46.2990   50.8090 O   0  0  0  0  0  0  0  0  0  0  0  0
    4.7800   45.7290   51.8200 C   0  0  0  0  0  0  0  0  0  0  0  0
    5.3170   44.4030   51.7100 N   0  0  0  0  0  0  0  0  0  0  0  0
    5.0580   43.5440   50.5530 C   0  0  1  0  0  0  0  0  0  0  0  0
    6.3600   43.1760   49.8500 C   0  0  0  0  0  0  0  0  0  0  0  0
    6.1320   41.7940   49.2590 C   0  0  0  0  0  0  0  0  0  0  0  0
    5.1060   41.1160   50.1720 C   0  0  2  0  0  0  0  0  0  0  0  0
    3.7600   40.7720   49.5300 C   0  0  0  0  0  0  0  0  0  0  0  0
    3.0880   41.8580   50.3600 C   0  0  0  0  0  0  0  0  0  0  0  0
    4.4380   42.2070   50.9940 C   0  0  2  0  0  0  0  0  0  0  0  0
    4.8390   46.4560   53.1000 C   0  0  0  0  0  0  0  0  0  0  0  0
    3.7620   46.7580   53.9080 C   0  0  0  0  0  0  0  0  0  0  0  0
    4.1960   47.5140   54.9310 N   0  0  0  0  0  0  0  0  0  0  0  0
    5.5020   47.7040   54.8290 N   0  0  0  0  0  0  0  0  0  0  0  0
    5.9280   47.0610   53.7220 C   0  0  0  0  0  0  0  0  0  0  0  0
    7.3520   46.9890   53.3340 C   0  0  0  0  0  0  0  0  0  0  0  0
    7.6990   46.7860   51.9880 C   0  0  0  0  0  0  0  0  0  0  0  0
    9.0440   46.7240   51.6090 C   0  0  0  0  0  0  0  0  0  0  0  0
   10.0510   46.8780   52.5660 C   0  0  0  0  0  0  0  0  0  0  0  0
    9.7140   47.1050   53.9030 C   0  0  0  0  0  0  0  0  0  0  0  0
   10.6910   47.2720   54.8280 F   0  0  0  0  0  0  0  0  0  0  0  0
    8.3710   47.1680   54.2860 C   0  0  0  0  0  0  0  0  0  0  0  0
    6.0140   44.0880   52.4210 H   0  0  0  0  0  0  0  0  0  0  0  0
    4.3834   44.1069   49.8912 H   0  0  0  0  0  0  0  0  0  0  0  0
    6.5844   43.9013   49.0540 H   0  0  0  0  0  0  0  0  0  0  0  0
    7.2130   43.1849   50.5445 H   0  0  0  0  0  0  0  0  0  0  0  0
    5.7393   41.8751   48.2347 H   0  0  0  0  0  0  0  0  0  0  0  0
    7.0673   41.2179   49.2018 H   0  0  0  0  0  0  0  0  0  0  0  0
    5.6847   40.2819   50.5956 H   0  0  0  0  0  0  0  0  0  0  0  0
    3.7219   40.9477   48.4448 H   0  0  0  0  0  0  0  0  0  0  0  0
    3.3804   39.7398   49.5508 H   0  0  0  0  0  0  0  0  0  0  0  0
    2.6479   42.6712   49.7641 H   0  0  0  0  0  0  0  0  0  0  0  0
    2.2205   41.6191   50.9927 H   0  0  0  0  0  0  0  0  0  0  0  0
    4.4725   42.2744   52.0914 H   0  0  0  0  0  0  0  0  0  0  0  0
    2.7237   46.4346   53.7428 H   0  0  0  0  0  0  0  0  0  0  0  0
    3.6050   47.9060   55.6980 H   0  0  0  0  0  0  0  0  0  0  0  0
    6.9102   46.6754   51.2294 H   0  0  0  0  0  0  0  0  0  0  0  0
    9.3099   46.5536   50.5553 H   0  0  0  0  0  0  0  0  0  0  0  0
   11.1080   46.8205   52.2669 H   0  0  0  0  0  0  0  0  0  0  0  0
    8.1102   47.3586   55.3375 H   0  0  0  0  0  0  0  0  0  0  0  0
  1  2  2  0
  2  3  1  0
  3  4  1  0
  4  5  1  0
  5  6  1  0
  6  7  1  0
  7  8  1  0
  8  9  1  0
  9 10  1  0
  2 11  1  0
 11 12  2  0
 12 13  1  0
 13 14  1  0
 14 15  2  0
 15 16  1  0
 16 17  2  0
 17 18  1  0
 18 19  2  0
 19 20  1  0
 20 21  1  0
 20 22  2  0
 10  4  1  0
 15 11  1  0
 22 16  1  0
 10  7  1  0
  3 23  1  0
  4 24  1  6
  5 25  1  0
  5 26  1  0
  6 27  1  0
  6 28  1  0
  7 29  1  1
  8 30  1  0
  8 31  1  0
  9 32  1  0
  9 33  1  0
 10 34  1  1
 12 35  1  0
 13 36  1  0
 17 37  1  0
 18 38  1  0
 19 39  1  0
 22 40  1  0
M  END
>  <meeko>  (1) 
{"is_sidechain": [false], "free_energy": -9.948, "intermolecular_energy": -11.693, "internal_energy": -0.272}

$$$$
ligand_51_conformer_5_docked
     RDKit          3D

 40 43  0  0  0  0  0  0  0  0999 V2000
    4.5360   46.8170   52.0390 O   0  0  0  0  0  0  0  0  0  0  0  0
    4.7310   45.8730   52.8520 C   0  0  0  0  0  0  0  0  0  0  0  0
    5.9230   45.8450   53.6490 N   0  0  0  0  0  0  0  0  0  0  0  0
    7.0820   46.6930   53.3600 C   0  0  1  0  0  0  0  0  0  0  0  0
    7.7290   47.1820   54.6520 C   0  0  0  0  0  0  0  0  0  0  0  0
    9.2100   47.3290   54.3390 C   0  0  0  0  0  0  0  0  0  0  0  0
    9.5060   46.3040   53.2400 C   0  0  2  0  0  0  0  0  0  0  0  0
    9.9490   46.8770   51.8910 C   0  0  0  0  0  0  0  0  0  0  0  0
    8.6200   46.4560   51.2780 C   0  0  0  0  0  0  0  0  0  0  0  0
    8.1750   45.8940   52.6310 C   0  0  2  0  0  0  0  0  0  0  0  0
    3.7020   44.8300   53.0080 C   0  0  0  0  0  0  0  0  0  0  0  0
    2.6310   44.8780   53.8750 C   0  0  0  0  0  0  0  0  0  0  0  0
    1.9750   43.7060   53.8070 N   0  0  0  0  0  0  0  0  0  0  0  0
    2.5660   42.9110   52.9290 N   0  0  0  0  0  0  0  0  0  0  0  0
    3.6220   43.5740   52.4150 C   0  0  0  0  0  0  0  0  0  0  0  0
    4.4710   43.0200   51.3400 C   0  0  0  0  0  0  0  0  0  0  0  0
    4.1550   41.7730   50.7750 C   0  0  0  0  0  0  0  0  0  0  0  0
    4.9470   41.2430   49.7510 C   0  0  0  0  0  0  0  0  0  0  0  0
    6.0500   41.9570   49.2750 C   0  0  0  0  0  0  0  0  0  0  0  0
    6.3560   43.2090   49.8150 C   0  0  0  0  0  0  0  0  0  0  0  0
    7.4170   43.9090   49.3410 F   0  0  0  0  0  0  0  0  0  0  0  0
    5.5680   43.7430   50.8380 C   0  0  0  0  0  0  0  0  0  0  0  0
    5.9170   45.2920   54.5350 H   0  0  0  0  0  0  0  0  0  0  0  0
    6.7127   47.5287   52.7475 H   0  0  0  0  0  0  0  0  0  0  0  0
    7.3023   48.1504   54.9523 H   0  0  0  0  0  0  0  0  0  0  0  0
    7.5566   46.4823   55.4831 H   0  0  0  0  0  0  0  0  0  0  0  0
    9.4274   48.3467   53.9827 H   0  0  0  0  0  0  0  0  0  0  0  0
    9.8318   47.1590   55.2303 H   0  0  0  0  0  0  0  0  0  0  0  0
   10.2005   45.6147   53.7426 H   0  0  0  0  0  0  0  0  0  0  0  0
   10.1164   47.9642   51.8977 H   0  0  0  0  0  0  0  0  0  0  0  0
   10.8985   46.5595   51.4353 H   0  0  0  0  0  0  0  0  0  0  0  0
    8.0066   47.2943   50.9161 H   0  0  0  0  0  0  0  0  0  0  0  0
    8.5970   45.8244   50.3777 H   0  0  0  0  0  0  0  0  0  0  0  0
    7.7719   44.8706   52.6389 H   0  0  0  0  0  0  0  0  0  0  0  0
    2.3591   45.7308   54.5143 H   0  0  0  0  0  0  0  0  0  0  0  0
    1.1290   43.4430   54.3600 H   0  0  0  0  0  0  0  0  0  0  0  0
    3.2819   41.2116   51.1391 H   0  0  0  0  0  0  0  0  0  0  0  0
    4.7010   40.2616   49.3193 H   0  0  0  0  0  0  0  0  0  0  0  0
    6.6767   41.5339   48.4761 H   0  0  0  0  0  0  0  0  0  0  0  0
    5.8068   44.7335   51.2526 H   0  0  0  0  0  0  0  0  0  0  0  0
  1  2  2  0
  2  3  1  0
  3  4  1  0
  4  5  1  0
  5  6  1  0
  6  7  1  0
  7  8  1  0
  8  9  1  0
  9 10  1  0
  2 11  1  0
 11 12  2  0
 12 13  1  0
 13 14  1  0
 14 15  2  0
 15 16  1  0
 16 17  2  0
 17 18  1  0
 18 19  2  0
 19 20  1  0
 20 21  1  0
 20 22  2  0
 10  4  1  0
 15 11  1  0
 22 16  1  0
 10  7  1  0
  3 23  1  0
  4 24  1  6
  5 25  1  0
  5 26  1  0
  6 27  1  0
  6 28  1  0
  7 29  1  1
  8 30  1  0
  8 31  1  0
  9 32  1  0
  9 33  1  0
 10 34  1  6
 12 35  1  0
 13 36  1  0
 17 37  1  0
 18 38  1  0
 19 39  1  0
 22 40  1  0
M  END
>  <meeko>  (2) 
{"is_sidechain": [false], "free_energy": -9.65, "intermolecular_energy": -11.074, "internal_energy": -0.542}

$$$$
ligand_51_conformer_5_docked
     RDKit          3D

 40 43  0  0  0  0  0  0  0  0999 V2000
    7.5200   44.1880   49.5750 O   0  0  0  0  0  0  0  0  0  0  0  0
    6.6220   44.2240   50.4590 C   0  0  0  0  0  0  0  0  0  0  0  0
    6.5370   45.3420   51.3540 N   0  0  0  0  0  0  0  0  0  0  0  0
    7.6220   46.3130   51.5030 C   0  0  1  0  0  0  0  0  0  0  0  0
    7.1560   47.5260   52.3020 C   0  0  0  0  0  0  0  0  0  0  0  0
    8.3840   48.0260   53.0440 C   0  0  0  0  0  0  0  0  0  0  0  0
    9.2660   46.7930   53.2670 C   0  0  2  0  0  0  0  0  0  0  0  0
   10.6280   46.8080   52.5690 C   0  0  0  0  0  0  0  0  0  0  0  0
   10.1500   45.7170   51.6180 C   0  0  0  0  0  0  0  0  0  0  0  0
    8.7850   45.7130   52.3120 C   0  0  2  0  0  0  0  0  0  0  0  0
    5.6350   43.1320   50.5290 C   0  0  0  0  0  0  0  0  0  0  0  0
    5.7760   41.8800   49.9690 C   0  0  0  0  0  0  0  0  0  0  0  0
    4.6320   41.1990   50.1540 N   0  0  0  0  0  0  0  0  0  0  0  0
    3.7650   41.9480   50.8170 N   0  0  0  0  0  0  0  0  0  0  0  0
    4.3520   43.1360   51.0700 C   0  0  0  0  0  0  0  0  0  0  0  0
    3.7040   44.1980   51.8660 C   0  0  0  0  0  0  0  0  0  0  0  0
    3.0310   45.2450   51.2160 C   0  0  0  0  0  0  0  0  0  0  0  0
    2.4060   46.2520   51.9600 C   0  0  0  0  0  0  0  0  0  0  0  0
    2.4380   46.2140   53.3570 C   0  0  0  0  0  0  0  0  0  0  0  0
    3.0860   45.1620   54.0120 C   0  0  0  0  0  0  0  0  0  0  0  0
    3.1010   45.1180   55.3670 F   0  0  0  0  0  0  0  0  0  0  0  0
    3.7100   44.1550   53.2720 C   0  0  0  0  0  0  0  0  0  0  0  0
    5.6220   45.5360   51.8220 H   0  0  0  0  0  0  0  0  0  0  0  0
    7.9343   46.5902   50.4853 H   0  0  0  0  0  0  0  0  0  0  0  0
    6.7719   48.3052   51.6273 H   0  0  0  0  0  0  0  0  0  0  0  0
    6.3408   47.2677   52.9939 H   0  0  0  0  0  0  0  0  0  0  0  0
    8.9178   48.7751   52.4407 H   0  0  0  0  0  0  0  0  0  0  0  0
    8.1145   48.5090   53.9948 H   0  0  0  0  0  0  0  0  0  0  0  0
    9.2680   46.7004   54.3631 H   0  0  0  0  0  0  0  0  0  0  0  0
   10.8694   47.7607   52.0750 H   0  0  0  0  0  0  0  0  0  0  0  0
   11.5532   46.6759   53.1491 H   0  0  0  0  0  0  0  0  0  0  0  0
   10.1165   46.0241   50.5623 H   0  0  0  0  0  0  0  0  0  0  0  0
   10.7219   44.7839   51.5076 H   0  0  0  0  0  0  0  0  0  0  0  0
    8.3849   44.7365   52.6224 H   0  0  0  0  0  0  0  0  0  0  0  0
    6.6734   41.5022   49.4572 H   0  0  0  0  0  0  0  0  0  0  0  0
    4.4360   40.2270   49.8270 H   0  0  0  0  0  0  0  0  0  0  0  0
    2.9949   45.2738   50.1170 H   0  0  0  0  0  0  0  0  0  0  0  0
    1.8887   47.0748   51.4447 H   0  0  0  0  0  0  0  0  0  0  0  0
    1.9539   47.0109   53.9406 H   0  0  0  0  0  0  0  0  0  0  0  0
    4.2089   43.3237   53.7916 H   0  0  0  0  0  0  0  0  0  0  0  0
  1  2  2  0
  2  3  1  0
  3  4  1  0
  4  5  1  0
  5  6  1  0
  6  7  1  0
  7  8  1  0
  8  9  1  0
  9 10  1  0
  2 11  1  0
 11 12  2  0
 12 13  1  0
 13 14  1  0
 14 15  2  0
 15 16  1  0
 16 17  2  0
 17 18  1  0
 18 19  2  0
 19 20  1  0
 20 21  1  0
 20 22  2  0
 10  4  1  0
 15 11  1  0
 22 16  1  0
 10  7  1  0
  3 23  1  0
  4 24  1  6
  5 25  1  0
  5 26  1  0
  6 27  1  0
  6 28  1  0
  7 29  1  1
  8 30  1  0
  8 31  1  0
  9 32  1  0
  9 33  1  0
 10 34  1  1
 12 35  1  0
 13 36  1  0
 17 37  1  0
 18 38  1  0
 19 39  1  0
 22 40  1  0
M  END
>  <meeko>  (3) 
{"is_sidechain": [false], "free_energy": -8.889, "intermolecular_energy": -10.219, "internal_energy": -0.501}

$$$$
ligand_51_conformer_5_docked
     RDKit          3D

 40 43  0  0  0  0  0  0  0  0999 V2000
    7.6430   45.6300   49.7820 O   0  0  0  0  0  0  0  0  0  0  0  0
    7.2690   45.5240   50.9810 C   0  0  0  0  0  0  0  0  0  0  0  0
    6.4340   44.4280   51.3800 N   0  0  0  0  0  0  0  0  0  0  0  0
    5.7330   43.5810   50.4130 C   0  0  1  0  0  0  0  0  0  0  0  0
    6.7250   42.7670   49.5890 C   0  0  0  0  0  0  0  0  0  0  0  0
    6.0090   41.4700   49.2480 C   0  0  0  0  0  0  0  0  0  0  0  0
    5.0190   41.2290   50.3920 C   0  0  2  0  0  0  0  0  0  0  0  0
    3.5370   41.2510   50.0110 C   0  0  0  0  0  0  0  0  0  0  0  0
    3.3650   42.5650   50.7620 C   0  0  0  0  0  0  0  0  0  0  0  0
    4.8510   42.5460   51.1320 C   0  0  2  0  0  0  0  0  0  0  0  0
    7.7390   46.5070   51.9730 C   0  0  0  0  0  0  0  0  0  0  0  0
    8.9550   47.1570   51.9520 C   0  0  0  0  0  0  0  0  0  0  0  0
    9.0640   47.8940   53.0710 N   0  0  0  0  0  0  0  0  0  0  0  0
    7.9720   47.7590   53.8070 N   0  0  0  0  0  0  0  0  0  0  0  0
    7.1370   46.9210   53.1570 C   0  0  0  0  0  0  0  0  0  0  0  0
    5.7810   46.6010   53.6490 C   0  0  0  0  0  0  0  0  0  0  0  0
    5.6240   45.8940   54.8530 C   0  0  0  0  0  0  0  0  0  0  0  0
    4.3450   45.5930   55.3320 C   0  0  0  0  0  0  0  0  0  0  0  0
    3.2140   46.0060   54.6220 C   0  0  0  0  0  0  0  0  0  0  0  0
    3.3610   46.7310   53.4350 C   0  0  0  0  0  0  0  0  0  0  0  0
    2.2630   47.1460   52.7560 F   0  0  0  0  0  0  0  0  0  0  0  0
    4.6370   47.0350   52.9540 C   0  0  0  0  0  0  0  0  0  0  0  0
    6.4240   44.1510   52.3880 H   0  0  0  0  0  0  0  0  0  0  0  0
    5.1359   44.2557   49.7819 H   0  0  0  0  0  0  0  0  0  0  0  0
    6.9962   43.3084   48.6707 H   0  0  0  0  0  0  0  0  0  0  0  0
    7.6578   42.5828   50.1421 H   0  0  0  0  0  0  0  0  0  0  0  0
    5.4738   41.5674   48.2919 H   0  0  0  0  0  0  0  0  0  0  0  0
    6.7149   40.6334   49.1393 H   0  0  0  0  0  0  0  0  0  0  0  0
    5.4046   40.3039   50.8454 H   0  0  0  0  0  0  0  0  0  0  0  0
    3.3523   41.3243   48.9291 H   0  0  0  0  0  0  0  0  0  0  0  0
    2.8904   40.3906   50.2382 H   0  0  0  0  0  0  0  0  0  0  0  0
    3.0715   43.4119   50.1243 H   0  0  0  0  0  0  0  0  0  0  0  0
    2.5973   42.6639   51.5436 H   0  0  0  0  0  0  0  0  0  0  0  0
    5.1044   42.7064   52.1903 H   0  0  0  0  0  0  0  0  0  0  0  0
    9.7087   47.0846   51.1541 H   0  0  0  0  0  0  0  0  0  0  0  0
    9.8820   48.4860   53.3390 H   0  0  0  0  0  0  0  0  0  0  0  0
    6.5106   45.5760   55.4211 H   0  0  0  0  0  0  0  0  0  0  0  0
    4.2288   45.0299   56.2698 H   0  0  0  0  0  0  0  0  0  0  0  0
    2.2091   45.7610   54.9965 H   0  0  0  0  0  0  0  0  0  0  0  0
    4.7480   47.6167   52.0270 H   0  0  0  0  0  0  0  0  0  0  0  0
  1  2  2  0
  2  3  1  0
  3  4  1  0
  4  5  1  0
  5  6  1  0
  6  7  1  0
  7  8  1  0
  8  9  1  0
  9 10  1  0
  2 11  1  0
 11 12  2  0
 12 13  1  0
 13 14  1  0
 14 15  2  0
 15 16  1  0
 16 17  2  0
 17 18  1  0
 18 19  2  0
 19 20  1  0
 20 21  1  0
 20 22  2  0
 10  4  1  0
 15 11  1  0
 22 16  1  0
 10  7  1  0
  3 23  1  0
  4 24  1  6
  5 25  1  0
  5 26  1  0
  6 27  1  0
  6 28  1  0
  7 29  1  1
  8 30  1  0
  8 31  1  0
  9 32  1  0
  9 33  1  0
 10 34  1  1
 12 35  1  0
 13 36  1  0
 17 37  1  0
 18 38  1  0
 19 39  1  0
 22 40  1  0
M  END
>  <meeko>  (4) 
{"is_sidechain": [false], "free_energy": -8.677, "intermolecular_energy": -10.238, "internal_energy": -0.233}

$$$$
ligand_51_conformer_5_docked
     RDKit          3D

 40 43  0  0  0  0  0  0  0  0999 V2000
    6.1870   44.5920   54.5490 O   0  0  0  0  0  0  0  0  0  0  0  0
    5.7390   45.4340   53.7250 C   0  0  0  0  0  0  0  0  0  0  0  0
    4.3240   45.6270   53.5910 N   0  0  0  0  0  0  0  0  0  0  0  0
    3.3470   44.6850   54.1400 C   0  0  1  0  0  0  0  0  0  0  0  0
    2.5230   45.3410   55.2420 C   0  0  0  0  0  0  0  0  0  0  0  0
    1.1570   44.6770   55.1860 C   0  0  0  0  0  0  0  0  0  0  0  0
    0.9620   44.2500   53.7280 C   0  0  2  0  0  0  0  0  0  0  0  0
    0.8550   42.7430   53.4780 C   0  0  0  0  0  0  0  0  0  0  0  0
    2.2210   42.7590   52.8040 C   0  0  0  0  0  0  0  0  0  0  0  0
    2.3300   44.2640   53.0640 C   0  0  2  0  0  0  0  0  0  0  0  0
    6.6830   46.2500   52.9420 C   0  0  0  0  0  0  0  0  0  0  0  0
    7.2350   47.4500   53.3390 C   0  0  0  0  0  0  0  0  0  0  0  0
    7.9620   47.9430   52.3210 N   0  0  0  0  0  0  0  0  0  0  0  0
    7.9150   47.1120   51.2910 N   0  0  0  0  0  0  0  0  0  0  0  0
    7.1450   46.0610   51.6430 C   0  0  0  0  0  0  0  0  0  0  0  0
    6.9340   44.8920   50.7640 C   0  0  0  0  0  0  0  0  0  0  0  0
    7.8960   44.5670   49.7930 C   0  0  0  0  0  0  0  0  0  0  0  0
    7.7110   43.4580   48.9600 C   0  0  0  0  0  0  0  0  0  0  0  0
    6.5720   42.6590   49.0990 C   0  0  0  0  0  0  0  0  0  0  0  0
    5.6220   42.9630   50.0780 C   0  0  0  0  0  0  0  0  0  0  0  0
    4.5260   42.1770   50.2230 F   0  0  0  0  0  0  0  0  0  0  0  0
    5.8040   44.0690   50.9120 C   0  0  0  0  0  0  0  0  0  0  0  0
    3.9800   46.5320   53.1960 H   0  0  0  0  0  0  0  0  0  0  0  0
    3.9205   43.8254   54.5171 H   0  0  0  0  0  0  0  0  0  0  0  0
    2.9913   45.1723   56.2229 H   0  0  0  0  0  0  0  0  0  0  0  0
    2.4509   46.4296   55.1012 H   0  0  0  0  0  0  0  0  0  0  0  0
    1.1296   43.7999   55.8493 H   0  0  0  0  0  0  0  0  0  0  0  0
    0.3606   45.3589   55.5189 H   0  0  0  0  0  0  0  0  0  0  0  0
    0.1094   44.8702   53.4144 H   0  0  0  0  0  0  0  0  0  0  0  0
    0.8137   42.1373   54.3953 H   0  0  0  0  0  0  0  0  0  0  0  0
   -0.0188   42.3255   52.9563 H   0  0  0  0  0  0  0  0  0  0  0  0
    2.9837   42.1575   53.3201 H   0  0  0  0  0  0  0  0  0  0  0  0
    2.3453   42.3588   51.7870 H   0  0  0  0  0  0  0  0  0  0  0  0
    2.6044   44.8998   52.2093 H   0  0  0  0  0  0  0  0  0  0  0  0
    7.1027   47.9239   54.3228 H   0  0  0  0  0  0  0  0  0  0  0  0
    8.4880   48.8450   52.3220 H   0  0  0  0  0  0  0  0  0  0  0  0
    8.7985   45.1870   49.6871 H   0  0  0  0  0  0  0  0  0  0  0  0
    8.4627   43.2144   48.1947 H   0  0  0  0  0  0  0  0  0  0  0  0
    6.4238   41.7920   48.4385 H   0  0  0  0  0  0  0  0  0  0  0  0
    5.0591   44.2970   51.6886 H   0  0  0  0  0  0  0  0  0  0  0  0
  1  2  2  0
  2  3  1  0
  3  4  1  0
  4  5  1  0
  5  6  1  0
  6  7  1  0
  7  8  1  0
  8  9  1  0
  9 10  1  0
  2 11  1  0
 11 12  2  0
 12 13  1  0
 13 14  1  0
 14 15  2  0
 15 16  1  0
 16 17  2  0
 17 18  1  0
 18 19  2  0
 19 20  1  0
 20 21  1  0
 20 22  2  0
 10  4  1  0
 15 11  1  0
 22 16  1  0
 10  7  1  0
  3 23  1  0
  4 24  1  1
  5 25  1  0
  5 26  1  0
  6 27  1  0
  6 28  1  0
  7 29  1  6
  8 30  1  0
  8 31  1  0
  9 32  1  0
  9 33  1  0
 10 34  1  6
 12 35  1  0
 13 36  1  0
 17 37  1  0
 18 38  1  0
 19 39  1  0
 22 40  1  0
M  END
>  <meeko>  (5) 
{"is_sidechain": [false], "free_energy": -8.532, "intermolecular_energy": -9.79, "internal_energy": -0.511}

$$$$
