ligand_0_conformer_3_docked
     RDKit          3D

 45 48  0  0  0  0  0  0  0  0999 V2000
    6.5750   42.4970   49.6830 C   0  0  0  0  0  0  0  0  0  0  0  0
    5.8030   41.3860   50.0330 C   0  0  0  0  0  0  0  0  0  0  0  0
    4.6260   41.5530   50.7710 C   0  0  0  0  0  0  0  0  0  0  0  0
    4.2210   42.8390   51.1770 C   0  0  0  0  0  0  0  0  0  0  0  0
    3.0040   43.0410   51.9150 N   0  0  0  0  0  0  0  0  0  0  0  0
    2.8980   43.8550   53.0910 C   0  0  0  0  0  0  0  0  0  0  0  0
    4.0100   44.5120   53.5570 N   0  0  0  0  0  0  0  0  0  0  0  0
    3.9720   45.2720   54.6940 C   0  0  0  0  0  0  0  0  0  0  0  0
    5.1010   45.9410   55.1780 O   0  0  0  0  0  0  0  0  0  0  0  0
    5.8160   46.9400   54.4500 C   0  0  0  0  0  0  0  0  0  0  0  0
    6.9160   46.3170   53.5660 C   0  0  0  0  0  0  0  0  0  0  0  0
    8.3380   46.4820   54.1710 C   0  0  0  0  0  0  0  0  0  0  0  0
    9.1260   47.6160   53.5020 C   0  0  0  0  0  0  0  0  0  0  0  0
    9.3010   47.3720   51.9900 C   0  0  0  0  0  0  0  0  0  0  0  0
    8.1270   46.6040   51.3490 C   0  0  0  0  0  0  0  0  0  0  0  0
    6.8170   46.8340   52.1080 C   0  0  0  0  0  0  0  0  0  0  0  0
    2.7600   45.3560   55.3620 C   0  0  0  0  0  0  0  0  0  0  0  0
    2.4410   46.0030   56.4880 N   0  0  0  0  0  0  0  0  0  0  0  0
    1.1310   45.7010   56.6690 C   0  0  0  0  0  0  0  0  0  0  0  0
    0.6170   44.8880   55.7040 N   0  0  0  0  0  0  0  0  0  0  0  0
    1.6770   44.6960   54.9010 C   0  0  0  0  0  0  0  0  0  0  0  0
    1.7160   43.9370   53.7800 N   0  0  0  0  0  0  0  0  0  0  0  0
    4.9910   43.9490   50.8000 C   0  0  0  0  0  0  0  0  0  0  0  0
    6.1670   43.7790   50.0620 C   0  0  0  0  0  0  0  0  0  0  0  0
    7.5038   42.3626   49.1092 H   0  0  0  0  0  0  0  0  0  0  0  0
    6.1212   40.3783   49.7278 H   0  0  0  0  0  0  0  0  0  0  0  0
    4.0152   40.6770   51.0348 H   0  0  0  0  0  0  0  0  0  0  0  0
    2.1210   42.6380   51.5280 H   0  0  0  0  0  0  0  0  0  0  0  0
    5.1104   47.4887   53.8089 H   0  0  0  0  0  0  0  0  0  0  0  0
    6.2960   47.6163   55.1727 H   0  0  0  0  0  0  0  0  0  0  0  0
    6.7384   45.2318   53.5380 H   0  0  0  0  0  0  0  0  0  0  0  0
    8.2426   46.7026   55.2444 H   0  0  0  0  0  0  0  0  0  0  0  0
    8.8873   45.5442   54.0016 H   0  0  0  0  0  0  0  0  0  0  0  0
    8.5850   48.5622   53.6504 H   0  0  0  0  0  0  0  0  0  0  0  0
   10.1248   47.6576   53.9611 H   0  0  0  0  0  0  0  0  0  0  0  0
    9.3940   48.3468   51.4888 H   0  0  0  0  0  0  0  0  0  0  0  0
   10.1999   46.7503   51.8653 H   0  0  0  0  0  0  0  0  0  0  0  0
    8.0021   46.9457   50.3109 H   0  0  0  0  0  0  0  0  0  0  0  0
    8.3599   45.5296   51.3854 H   0  0  0  0  0  0  0  0  0  0  0  0
    6.5957   47.9114   52.1235 H   0  0  0  0  0  0  0  0  0  0  0  0
    6.0159   46.2809   51.5958 H   0  0  0  0  0  0  0  0  0  0  0  0
    3.0550   46.5940   57.0910 H   0  0  0  0  0  0  0  0  0  0  0  0
    0.5388   46.0775   57.5161 H   0  0  0  0  0  0  0  0  0  0  0  0
    4.6677   44.9606   51.0868 H   0  0  0  0  0  0  0  0  0  0  0  0
    6.7707   44.6542   49.7799 H   0  0  0  0  0  0  0  0  0  0  0  0
  1  2  2  0
  2  3  1  0
  3  4  2  0
  4  5  1  0
  5  6  1  0
  6  7  2  0
  7  8  1  0
  8  9  1  0
  9 10  1  0
 10 11  1  0
 11 12  1  0
 12 13  1  0
 13 14  1  0
 14 15  1  0
 15 16  1  0
  8 17  2  0
 17 18  1  0
 18 19  1  0
 19 20  2  0
 20 21  1  0
 21 22  2  0
  4 23  1  0
 23 24  2  0
 24  1  1  0
 22  6  1  0
 16 11  1  0
 21 17  1  0
  1 25  1  0
  2 26  1  0
  3 27  1  0
  5 28  1  0
 10 29  1  0
 10 30  1  0
 11 31  1  0
 12 32  1  0
 12 33  1  0
 13 34  1  0
 13 35  1  0
 14 36  1  0
 14 37  1  0
 15 38  1  0
 15 39  1  0
 16 40  1  0
 16 41  1  0
 18 42  1  0
 19 43  1  0
 23 44  1  0
 24 45  1  0
M  END
>  <meeko>  (1) 
{"is_sidechain": [false], "free_energy": -9.347, "intermolecular_energy": -12.079, "internal_energy": -0.584}

$$$$
ligand_0_conformer_3_docked
     RDKit          3D

 45 48  0  0  0  0  0  0  0  0999 V2000
    4.1480   41.0930   45.4140 C   0  0  0  0  0  0  0  0  0  0  0  0
    3.4050   40.4060   46.3770 C   0  0  0  0  0  0  0  0  0  0  0  0
    3.8060   40.4250   47.7170 C   0  0  0  0  0  0  0  0  0  0  0  0
    4.9670   41.1220   48.1000 C   0  0  0  0  0  0  0  0  0  0  0  0
    5.3880   41.1770   49.4740 N   0  0  0  0  0  0  0  0  0  0  0  0
    4.8680   42.0980   50.4420 C   0  0  0  0  0  0  0  0  0  0  0  0
    5.6530   43.1410   50.8670 N   0  0  0  0  0  0  0  0  0  0  0  0
    5.2190   44.0280   51.8140 C   0  0  0  0  0  0  0  0  0  0  0  0
    6.0150   45.0900   52.2570 O   0  0  0  0  0  0  0  0  0  0  0  0
    6.6010   46.0660   51.3950 C   0  0  0  0  0  0  0  0  0  0  0  0
    7.4150   47.1070   52.1920 C   0  0  0  0  0  0  0  0  0  0  0  0
    8.7900   47.4210   51.5400 C   0  0  0  0  0  0  0  0  0  0  0  0
    9.9460   46.6990   52.2440 C   0  0  0  0  0  0  0  0  0  0  0  0
   10.0460   47.0990   53.7300 C   0  0  0  0  0  0  0  0  0  0  0  0
    8.6840   47.4370   54.3700 C   0  0  0  0  0  0  0  0  0  0  0  0
    7.5340   46.6960   53.6830 C   0  0  0  0  0  0  0  0  0  0  0  0
    3.9480   43.8330   52.3310 C   0  0  0  0  0  0  0  0  0  0  0  0
    3.2840   44.5240   53.2640 N   0  0  0  0  0  0  0  0  0  0  0  0
    2.1070   43.8570   53.3760 C   0  0  0  0  0  0  0  0  0  0  0  0
    2.0090   42.7760   52.5540 N   0  0  0  0  0  0  0  0  0  0  0  0
    3.1900   42.7970   51.9140 C   0  0  0  0  0  0  0  0  0  0  0  0
    3.6220   41.9150   50.9820 N   0  0  0  0  0  0  0  0  0  0  0  0
    5.6930   41.8280   47.1290 C   0  0  0  0  0  0  0  0  0  0  0  0
    5.2890   41.8080   45.7900 C   0  0  0  0  0  0  0  0  0  0  0  0
    3.8352   41.0714   44.3596 H   0  0  0  0  0  0  0  0  0  0  0  0
    2.5035   39.8494   46.0812 H   0  0  0  0  0  0  0  0  0  0  0  0
    3.2115   39.8930   48.4743 H   0  0  0  0  0  0  0  0  0  0  0  0
    6.0560   40.4470   49.8130 H   0  0  0  0  0  0  0  0  0  0  0  0
    7.2686   45.5592   50.6826 H   0  0  0  0  0  0  0  0  0  0  0  0
    5.7915   46.5911   50.8667 H   0  0  0  0  0  0  0  0  0  0  0  0
    6.8572   48.0545   52.1597 H   0  0  0  0  0  0  0  0  0  0  0  0
    8.7632   47.1033   50.4872 H   0  0  0  0  0  0  0  0  0  0  0  0
    8.9653   48.5033   51.6284 H   0  0  0  0  0  0  0  0  0  0  0  0
    9.7821   45.6133   52.1771 H   0  0  0  0  0  0  0  0  0  0  0  0
   10.8842   46.9867   51.7470 H   0  0  0  0  0  0  0  0  0  0  0  0
   10.4938   46.2623   54.2862 H   0  0  0  0  0  0  0  0  0  0  0  0
   10.6610   48.0097   53.7789 H   0  0  0  0  0  0  0  0  0  0  0  0
    8.7085   47.1504   55.4317 H   0  0  0  0  0  0  0  0  0  0  0  0
    8.5112   48.5174   54.2562 H   0  0  0  0  0  0  0  0  0  0  0  0
    7.7177   45.6131   53.7434 H   0  0  0  0  0  0  0  0  0  0  0  0
    6.5955   46.9586   54.1933 H   0  0  0  0  0  0  0  0  0  0  0  0
    3.5970   45.3700   53.7880 H   0  0  0  0  0  0  0  0  0  0  0  0
    1.3068   44.1615   54.0666 H   0  0  0  0  0  0  0  0  0  0  0  0
    6.5852   42.4006   47.4224 H   0  0  0  0  0  0  0  0  0  0  0  0
    5.8693   42.3551   45.0325 H   0  0  0  0  0  0  0  0  0  0  0  0
  1  2  2  0
  2  3  1  0
  3  4  2  0
  4  5  1  0
  5  6  1  0
  6  7  2  0
  7  8  1  0
  8  9  1  0
  9 10  1  0
 10 11  1  0
 11 12  1  0
 12 13  1  0
 13 14  1  0
 14 15  1  0
 15 16  1  0
  8 17  2  0
 17 18  1  0
 18 19  1  0
 19 20  2  0
 20 21  1  0
 21 22  2  0
  4 23  1  0
 23 24  2  0
 24  1  1  0
 22  6  1  0
 16 11  1  0
 21 17  1  0
  1 25  1  0
  2 26  1  0
  3 27  1  0
  5 28  1  0
 10 29  1  0
 10 30  1  0
 11 31  1  0
 12 32  1  0
 12 33  1  0
 13 34  1  0
 13 35  1  0
 14 36  1  0
 14 37  1  0
 15 38  1  0
 15 39  1  0
 16 40  1  0
 16 41  1  0
 18 42  1  0
 19 43  1  0
 23 44  1  0
 24 45  1  0
M  END
>  <meeko>  (2) 
{"is_sidechain": [false], "free_energy": -9.21, "intermolecular_energy": -11.907, "internal_energy": -0.58}

$$$$
ligand_0_conformer_3_docked
     RDKit          3D

 45 48  0  0  0  0  0  0  0  0999 V2000
    9.6490   47.2750   53.7570 C   0  0  0  0  0  0  0  0  0  0  0  0
   10.3280   46.5560   52.7690 C   0  0  0  0  0  0  0  0  0  0  0  0
    9.6320   46.0500   51.6660 C   0  0  0  0  0  0  0  0  0  0  0  0
    8.2430   46.2480   51.5530 C   0  0  0  0  0  0  0  0  0  0  0  0
    7.5080   45.7600   50.4180 N   0  0  0  0  0  0  0  0  0  0  0  0
    6.6110   44.6420   50.4570 C   0  0  0  0  0  0  0  0  0  0  0  0
    5.7190   44.5300   51.4950 N   0  0  0  0  0  0  0  0  0  0  0  0
    4.8660   43.4650   51.5990 C   0  0  0  0  0  0  0  0  0  0  0  0
    3.9580   43.3410   52.6550 O   0  0  0  0  0  0  0  0  0  0  0  0
    2.6600   43.9360   52.6720 C   0  0  0  0  0  0  0  0  0  0  0  0
    2.6060   45.1510   53.6210 C   0  0  0  0  0  0  0  0  0  0  0  0
    2.4840   46.5010   52.8610 C   0  0  0  0  0  0  0  0  0  0  0  0
    3.8240   47.2440   52.7760 C   0  0  0  0  0  0  0  0  0  0  0  0
    4.3890   47.5600   54.1760 C   0  0  0  0  0  0  0  0  0  0  0  0
    4.0180   46.5080   55.2420 C   0  0  0  0  0  0  0  0  0  0  0  0
    3.7910   45.1270   54.6210 C   0  0  0  0  0  0  0  0  0  0  0  0
    4.9360   42.4970   50.6090 C   0  0  0  0  0  0  0  0  0  0  0  0
    4.2450   41.3610   50.4670 N   0  0  0  0  0  0  0  0  0  0  0  0
    4.7590   40.8150   49.3360 C   0  0  0  0  0  0  0  0  0  0  0  0
    5.7460   41.5610   48.7660 N   0  0  0  0  0  0  0  0  0  0  0  0
    5.8240   42.6120   49.5990 C   0  0  0  0  0  0  0  0  0  0  0  0
    6.6740   43.6620   49.5010 N   0  0  0  0  0  0  0  0  0  0  0  0
    7.5750   46.9920   52.5380 C   0  0  0  0  0  0  0  0  0  0  0  0
    8.2740   47.4970   53.6390 C   0  0  0  0  0  0  0  0  0  0  0  0
   10.1967   47.6660   54.6272 H   0  0  0  0  0  0  0  0  0  0  0  0
   11.4113   46.3878   52.8590 H   0  0  0  0  0  0  0  0  0  0  0  0
   10.1720   45.4955   50.8844 H   0  0  0  0  0  0  0  0  0  0  0  0
    7.5640   46.3010   49.5250 H   0  0  0  0  0  0  0  0  0  0  0  0
    2.4050   44.2661   51.6542 H   0  0  0  0  0  0  0  0  0  0  0  0
    1.9414   43.1851   53.0323 H   0  0  0  0  0  0  0  0  0  0  0  0
    1.6812   45.0668   54.2105 H   0  0  0  0  0  0  0  0  0  0  0  0
    2.1247   46.3014   51.8407 H   0  0  0  0  0  0  0  0  0  0  0  0
    1.7804   47.1380   53.4170 H   0  0  0  0  0  0  0  0  0  0  0  0
    4.5461   46.6164   52.2331 H   0  0  0  0  0  0  0  0  0  0  0  0
    3.6565   48.1956   52.2502 H   0  0  0  0  0  0  0  0  0  0  0  0
    5.4855   47.6120   54.1052 H   0  0  0  0  0  0  0  0  0  0  0  0
    3.9455   48.5145   54.4957 H   0  0  0  0  0  0  0  0  0  0  0  0
    4.8357   46.4393   55.9745 H   0  0  0  0  0  0  0  0  0  0  0  0
    3.0816   46.8247   55.7245 H   0  0  0  0  0  0  0  0  0  0  0  0
    4.7031   44.8181   54.0894 H   0  0  0  0  0  0  0  0  0  0  0  0
    3.5531   44.4170   55.4268 H   0  0  0  0  0  0  0  0  0  0  0  0
    3.4940   40.9790   51.0830 H   0  0  0  0  0  0  0  0  0  0  0  0
    4.4109   39.8588   48.9183 H   0  0  0  0  0  0  0  0  0  0  0  0
    6.4951   47.1790   52.4434 H   0  0  0  0  0  0  0  0  0  0  0  0
    7.7413   48.0694   54.4127 H   0  0  0  0  0  0  0  0  0  0  0  0
  1  2  2  0
  2  3  1  0
  3  4  2  0
  4  5  1  0
  5  6  1  0
  6  7  2  0
  7  8  1  0
  8  9  1  0
  9 10  1  0
 10 11  1  0
 11 12  1  0
 12 13  1  0
 13 14  1  0
 14 15  1  0
 15 16  1  0
  8 17  2  0
 17 18  1  0
 18 19  1  0
 19 20  2  0
 20 21  1  0
 21 22  2  0
  4 23  1  0
 23 24  2  0
 24  1  1  0
 22  6  1  0
 16 11  1  0
 21 17  1  0
  1 25  1  0
  2 26  1  0
  3 27  1  0
  5 28  1  0
 10 29  1  0
 10 30  1  0
 11 31  1  0
 12 32  1  0
 12 33  1  0
 13 34  1  0
 13 35  1  0
 14 36  1  0
 14 37  1  0
 15 38  1  0
 15 39  1  0
 16 40  1  0
 16 41  1  0
 18 42  1  0
 19 43  1  0
 23 44  1  0
 24 45  1  0
M  END
>  <meeko>  (3) 
{"is_sidechain": [false], "free_energy": -9.136, "intermolecular_energy": -11.399, "internal_energy": -0.992}

$$$$
ligand_0_conformer_3_docked
     RDKit          3D

 45 48  0  0  0  0  0  0  0  0999 V2000
    1.0100   44.6190   53.2650 C   0  0  0  0  0  0  0  0  0  0  0  0
    1.2570   45.6150   52.3160 C   0  0  0  0  0  0  0  0  0  0  0  0
    2.2960   46.5310   52.5130 C   0  0  0  0  0  0  0  0  0  0  0  0
    3.0900   46.4630   53.6730 C   0  0  0  0  0  0  0  0  0  0  0  0
    4.1790   47.3760   53.8880 N   0  0  0  0  0  0  0  0  0  0  0  0
    5.5420   47.1060   53.5320 C   0  0  0  0  0  0  0  0  0  0  0  0
    5.8120   46.4410   52.3610 N   0  0  0  0  0  0  0  0  0  0  0  0
    7.0920   46.1280   51.9920 C   0  0  0  0  0  0  0  0  0  0  0  0
    7.3750   45.4470   50.8040 O   0  0  0  0  0  0  0  0  0  0  0  0
    6.4110   44.7100   50.0510 C   0  0  0  0  0  0  0  0  0  0  0  0
    5.9570   43.4410   50.8020 C   0  0  0  0  0  0  0  0  0  0  0  0
    6.3540   42.1330   50.0640 C   0  0  0  0  0  0  0  0  0  0  0  0
    5.1750   41.5130   49.3030 C   0  0  0  0  0  0  0  0  0  0  0  0
    4.0070   41.1650   50.2490 C   0  0  0  0  0  0  0  0  0  0  0  0
    3.8890   42.1160   51.4570 C   0  0  0  0  0  0  0  0  0  0  0  0
    4.4450   43.5070   51.1410 C   0  0  0  0  0  0  0  0  0  0  0  0
    8.1120   46.5100   52.8490 C   0  0  0  0  0  0  0  0  0  0  0  0
    9.4330   46.3240   52.7510 N   0  0  0  0  0  0  0  0  0  0  0  0
    9.9180   46.8830   53.8880 C   0  0  0  0  0  0  0  0  0  0  0  0
    8.9560   47.4090   54.6950 N   0  0  0  0  0  0  0  0  0  0  0  0
    7.8330   47.1520   54.0030 C   0  0  0  0  0  0  0  0  0  0  0  0
    6.5660   47.4570   54.3730 N   0  0  0  0  0  0  0  0  0  0  0  0
    2.8500   45.4450   54.6080 C   0  0  0  0  0  0  0  0  0  0  0  0
    1.8100   44.5310   54.4080 C   0  0  0  0  0  0  0  0  0  0  0  0
    0.1870   43.9052   53.1126 H   0  0  0  0  0  0  0  0  0  0  0  0
    0.6331   45.6788   51.4123 H   0  0  0  0  0  0  0  0  0  0  0  0
    2.4930   47.3070   51.7587 H   0  0  0  0  0  0  0  0  0  0  0  0
    3.9570   48.3310   54.2530 H   0  0  0  0  0  0  0  0  0  0  0  0
    5.5351   45.3498   49.8682 H   0  0  0  0  0  0  0  0  0  0  0  0
    6.8757   44.4022   49.1027 H   0  0  0  0  0  0  0  0  0  0  0  0
    6.5029   43.4114   51.7565 H   0  0  0  0  0  0  0  0  0  0  0  0
    7.1569   42.3609   49.3475 H   0  0  0  0  0  0  0  0  0  0  0  0
    6.6852   41.4068   50.8209 H   0  0  0  0  0  0  0  0  0  0  0  0
    4.8210   42.2303   48.5479 H   0  0  0  0  0  0  0  0  0  0  0  0
    5.5226   40.5829   48.8296 H   0  0  0  0  0  0  0  0  0  0  0  0
    3.0692   41.2120   49.6761 H   0  0  0  0  0  0  0  0  0  0  0  0
    4.2026   40.1586   50.6477 H   0  0  0  0  0  0  0  0  0  0  0  0
    2.8285   42.2107   51.7336 H   0  0  0  0  0  0  0  0  0  0  0  0
    4.4768   41.6924   52.2847 H   0  0  0  0  0  0  0  0  0  0  0  0
    3.9018   43.9238   50.2801 H   0  0  0  0  0  0  0  0  0  0  0  0
    4.3135   44.1451   52.0273 H   0  0  0  0  0  0  0  0  0  0  0  0
    9.9650   45.8530   51.9870 H   0  0  0  0  0  0  0  0  0  0  0  0
   10.9896   46.9089   54.1350 H   0  0  0  0  0  0  0  0  0  0  0  0
    3.4834   45.3650   55.5038 H   0  0  0  0  0  0  0  0  0  0  0  0
    1.6215   43.7421   55.1510 H   0  0  0  0  0  0  0  0  0  0  0  0
  1  2  2  0
  2  3  1  0
  3  4  2  0
  4  5  1  0
  5  6  1  0
  6  7  2  0
  7  8  1  0
  8  9  1  0
  9 10  1  0
 10 11  1  0
 11 12  1  0
 12 13  1  0
 13 14  1  0
 14 15  1  0
 15 16  1  0
  8 17  2  0
 17 18  1  0
 18 19  1  0
 19 20  2  0
 20 21  1  0
 21 22  2  0
  4 23  1  0
 23 24  2  0
 24  1  1  0
 22  6  1  0
 16 11  1  0
 21 17  1  0
  1 25  1  0
  2 26  1  0
  3 27  1  0
  5 28  1  0
 10 29  1  0
 10 30  1  0
 11 31  1  0
 12 32  1  0
 12 33  1  0
 13 34  1  0
 13 35  1  0
 14 36  1  0
 14 37  1  0
 15 38  1  0
 15 39  1  0
 16 40  1  0
 16 41  1  0
 18 42  1  0
 19 43  1  0
 23 44  1  0
 24 45  1  0
M  END
>  <meeko>  (4) 
{"is_sidechain": [false], "free_energy": -9.106, "intermolecular_energy": -11.263, "internal_energy": -1.09}

$$$$
ligand_0_conformer_3_docked
     RDKit          3D

 45 48  0  0  0  0  0  0  0  0999 V2000
   -1.2860   44.3560   53.5030 C   0  0  0  0  0  0  0  0  0  0  0  0
   -1.0800   43.5220   52.4010 C   0  0  0  0  0  0  0  0  0  0  0  0
    0.1320   42.8400   52.2540 C   0  0  0  0  0  0  0  0  0  0  0  0
    1.1570   43.0010   53.2050 C   0  0  0  0  0  0  0  0  0  0  0  0
    2.4020   42.2930   53.0910 N   0  0  0  0  0  0  0  0  0  0  0  0
    3.5180   42.7430   52.3100 C   0  0  0  0  0  0  0  0  0  0  0  0
    3.9820   44.0240   52.4750 N   0  0  0  0  0  0  0  0  0  0  0  0
    5.0200   44.5140   51.7310 C   0  0  0  0  0  0  0  0  0  0  0  0
    5.4950   45.8200   51.8900 O   0  0  0  0  0  0  0  0  0  0  0  0
    5.9000   46.3810   53.1390 C   0  0  0  0  0  0  0  0  0  0  0  0
    7.1690   47.2440   52.9860 C   0  0  0  0  0  0  0  0  0  0  0  0
    7.8600   47.0570   51.6070 C   0  0  0  0  0  0  0  0  0  0  0  0
    9.0860   46.1390   51.6890 C   0  0  0  0  0  0  0  0  0  0  0  0
   10.1490   46.6940   52.6580 C   0  0  0  0  0  0  0  0  0  0  0  0
    9.5530   47.4940   53.8340 C   0  0  0  0  0  0  0  0  0  0  0  0
    8.1370   47.0260   54.1790 C   0  0  0  0  0  0  0  0  0  0  0  0
    5.5920   43.6620   50.7990 C   0  0  0  0  0  0  0  0  0  0  0  0
    6.5930   43.8750   49.9390 N   0  0  0  0  0  0  0  0  0  0  0  0
    6.6920   42.7000   49.2680 C   0  0  0  0  0  0  0  0  0  0  0  0
    5.7930   41.7600   49.6720 N   0  0  0  0  0  0  0  0  0  0  0  0
    5.1200   42.4080   50.6370 C   0  0  0  0  0  0  0  0  0  0  0  0
    4.0870   41.9250   51.3690 N   0  0  0  0  0  0  0  0  0  0  0  0
    0.9310   43.8220   54.3210 C   0  0  0  0  0  0  0  0  0  0  0  0
   -0.2820   44.5030   54.4650 C   0  0  0  0  0  0  0  0  0  0  0  0
   -2.2376   44.8966   53.6137 H   0  0  0  0  0  0  0  0  0  0  0  0
   -1.8726   43.4017   51.6478 H   0  0  0  0  0  0  0  0  0  0  0  0
    0.2849   42.1748   51.3914 H   0  0  0  0  0  0  0  0  0  0  0  0
    2.5380   41.4370   53.6760 H   0  0  0  0  0  0  0  0  0  0  0  0
    5.0857   47.0089   53.5296 H   0  0  0  0  0  0  0  0  0  0  0  0
    6.1249   45.5561   53.8311 H   0  0  0  0  0  0  0  0  0  0  0  0
    6.8535   48.2975   53.0110 H   0  0  0  0  0  0  0  0  0  0  0  0
    7.1357   46.6178   50.9052 H   0  0  0  0  0  0  0  0  0  0  0  0
    8.2022   48.0451   51.2657 H   0  0  0  0  0  0  0  0  0  0  0  0
    8.7660   45.1471   52.0407 H   0  0  0  0  0  0  0  0  0  0  0  0
    9.5349   46.0754   50.6868 H   0  0  0  0  0  0  0  0  0  0  0  0
   10.7221   45.8489   53.0670 H   0  0  0  0  0  0  0  0  0  0  0  0
   10.7802   47.3872   52.0826 H   0  0  0  0  0  0  0  0  0  0  0  0
   10.1965   47.3628   54.7165 H   0  0  0  0  0  0  0  0  0  0  0  0
    9.5010   48.5518   53.5369 H   0  0  0  0  0  0  0  0  0  0  0  0
    8.1637   45.9550   54.4286 H   0  0  0  0  0  0  0  0  0  0  0  0
    7.7740   47.6142   55.0347 H   0  0  0  0  0  0  0  0  0  0  0  0
    7.1590   44.7420   49.8060 H   0  0  0  0  0  0  0  0  0  0  0  0
    7.4298   42.5229   48.4716 H   0  0  0  0  0  0  0  0  0  0  0  0
    1.7129   43.9304   55.0871 H   0  0  0  0  0  0  0  0  0  0  0  0
   -0.4464   45.1548   55.3357 H   0  0  0  0  0  0  0  0  0  0  0  0
  1  2  2  0
  2  3  1  0
  3  4  2  0
  4  5  1  0
  5  6  1  0
  6  7  2  0
  7  8  1  0
  8  9  1  0
  9 10  1  0
 10 11  1  0
 11 12  1  0
 12 13  1  0
 13 14  1  0
 14 15  1  0
 15 16  1  0
  8 17  2  0
 17 18  1  0
 18 19  1  0
 19 20  2  0
 20 21  1  0
 21 22  2  0
  4 23  1  0
 23 24  2  0
 24  1  1  0
 22  6  1  0
 16 11  1  0
 21 17  1  0
  1 25  1  0
  2 26  1  0
  3 27  1  0
  5 28  1  0
 10 29  1  0
 10 30  1  0
 11 31  1  0
 12 32  1  0
 12 33  1  0
 13 34  1  0
 13 35  1  0
 14 36  1  0
 14 37  1  0
 15 38  1  0
 15 39  1  0
 16 40  1  0
 16 41  1  0
 18 42  1  0
 19 43  1  0
 23 44  1  0
 24 45  1  0
M  END
>  <meeko>  (5) 
{"is_sidechain": [false], "free_energy": -9.048, "intermolecular_energy": -11.543, "internal_energy": -0.734}

$$$$
