ligand_57_conformer_5_docked
     RDKit          3D

 45 49  0  0  0  0  0  0  0  0999 V2000
    2.7570   47.8600   52.3570 O   0  0  0  0  0  0  0  0  0  0  0  0
    2.3130   46.5500   52.5740 C   0  0  0  0  0  0  0  0  0  0  0  0
    2.9480   45.5900   51.5630 C   0  0  0  0  0  0  0  0  0  0  0  0
    4.3510   45.1140   51.9960 C   0  0  2  0  0  0  0  0  0  0  0  0
    5.4920   46.0680   51.5250 C   0  0  0  0  0  0  0  0  0  0  0  0
    6.4120   45.2440   50.7450 N   0  0  0  0  0  0  0  0  0  0  0  0
    7.6600   45.7300   50.1590 C   0  0  0  0  0  0  0  0  0  0  0  0
    8.6880   46.0250   51.2520 C   0  0  2  0  0  0  0  0  0  0  0  0
    8.9460   47.4740   51.6380 C   0  0  0  0  0  0  0  0  0  0  0  0
    9.4360   46.7370   52.8690 C   0  0  2  0  0  0  0  0  0  0  0  0
    9.5930   47.4620   54.1670 C   0  0  0  0  0  0  0  0  0  0  0  0
   10.4650   47.1100   55.1310 N   0  0  0  0  0  0  0  0  0  0  0  0
   10.2320   47.9560   56.1220 N   0  0  0  0  0  0  0  0  0  0  0  0
    9.2540   48.7730   55.7730 N   0  0  0  0  0  0  0  0  0  0  0  0
    8.8190   48.4920   54.5560 N   0  0  0  0  0  0  0  0  0  0  0  0
   10.6010   45.9760   52.2610 C   0  0  0  0  0  0  0  0  0  0  0  0
    9.9850   45.4800   51.0770 O   0  0  0  0  0  0  0  0  0  0  0  0
    8.3410   45.7030   52.6990 C   0  0  0  0  0  0  0  0  0  0  0  0
    5.8900   43.9300   50.6530 C   0  0  0  0  0  0  0  0  0  0  0  0
    6.4440   42.8440   49.9670 C   0  0  0  0  0  0  0  0  0  0  0  0
    5.7830   41.6080   50.0260 C   0  0  0  0  0  0  0  0  0  0  0  0
    4.5930   41.4770   50.7660 C   0  0  0  0  0  0  0  0  0  0  0  0
    4.0530   42.5850   51.4400 C   0  0  0  0  0  0  0  0  0  0  0  0
    4.7160   43.8120   51.3500 C   0  0  0  0  0  0  0  0  0  0  0  0
    3.4960   48.0110   53.0020 H   0  0  0  0  0  0  0  0  0  0  0  0
    2.5905   46.2383   53.5918 H   0  0  0  0  0  0  0  0  0  0  0  0
    1.2202   46.5215   52.4515 H   0  0  0  0  0  0  0  0  0  0  0  0
    2.2958   44.7109   51.4544 H   0  0  0  0  0  0  0  0  0  0  0  0
    3.0592   46.1329   50.6128 H   0  0  0  0  0  0  0  0  0  0  0  0
    4.2796   45.0588   53.0923 H   0  0  0  0  0  0  0  0  0  0  0  0
    5.0812   46.8761   50.9020 H   0  0  0  0  0  0  0  0  0  0  0  0
    6.0000   46.5396   52.3791 H   0  0  0  0  0  0  0  0  0  0  0  0
    8.0633   44.9639   49.4805 H   0  0  0  0  0  0  0  0  0  0  0  0
    7.4544   46.6580   49.6054 H   0  0  0  0  0  0  0  0  0  0  0  0
    9.7053   48.0121   51.0515 H   0  0  0  0  0  0  0  0  0  0  0  0
    8.2153   48.2959   51.6163 H   0  0  0  0  0  0  0  0  0  0  0  0
    8.8730   49.5330   56.3770 H   0  0  0  0  0  0  0  0  0  0  0  0
   11.4474   46.6405   52.0326 H   0  0  0  0  0  0  0  0  0  0  0  0
   11.0394   45.2050   52.9117 H   0  0  0  0  0  0  0  0  0  0  0  0
    8.5682   44.6838   53.0448 H   0  0  0  0  0  0  0  0  0  0  0  0
    7.3393   45.7314   53.1526 H   0  0  0  0  0  0  0  0  0  0  0  0
    7.3765   42.9566   49.3945 H   0  0  0  0  0  0  0  0  0  0  0  0
    6.1958   40.7391   49.4926 H   0  0  0  0  0  0  0  0  0  0  0  0
    4.0838   40.5033   50.8168 H   0  0  0  0  0  0  0  0  0  0  0  0
    3.1274   42.4888   52.0265 H   0  0  0  0  0  0  0  0  0  0  0  0
  1  2  1  0
  2  3  1  0
  3  4  1  0
  4  5  1  0
  5  6  1  0
  6  7  1  0
  8  7  1  6
  8  9  1  0
  9 10  1  0
 10 11  1  1
 11 12  1  0
 12 13  2  0
 13 14  1  0
 14 15  1  0
 10 16  1  0
 16 17  1  0
 10 18  1  0
  6 19  1  0
 19 20  2  0
 20 21  1  0
 21 22  2  0
 22 23  1  0
 23 24  2  0
 24  4  1  0
 17  8  1  0
 24 19  1  0
 18  8  1  0
 15 11  2  0
  1 25  1  0
  2 26  1  0
  2 27  1  0
  3 28  1  0
  3 29  1  0
  4 30  1  1
  5 31  1  0
  5 32  1  0
  7 33  1  0
  7 34  1  0
  9 35  1  0
  9 36  1  0
 14 37  1  0
 16 38  1  0
 16 39  1  0
 18 40  1  0
 18 41  1  0
 20 42  1  0
 21 43  1  0
 22 44  1  0
 23 45  1  0
M  END
>  <meeko>  (1) 
{"is_sidechain": [false], "free_energy": -9.651, "intermolecular_energy": -12.754, "internal_energy": -0.081}

$$$$
ligand_57_conformer_5_docked
     RDKit          3D

 45 49  0  0  0  0  0  0  0  0999 V2000
    1.1930   41.9180   53.8200 O   0  0  0  0  0  0  0  0  0  0  0  0
    1.5870   43.1000   53.1810 C   0  0  0  0  0  0  0  0  0  0  0  0
    2.5370   42.7950   52.0190 C   0  0  0  0  0  0  0  0  0  0  0  0
    3.9990   43.1840   52.3300 C   0  0  2  0  0  0  0  0  0  0  0  0
    4.1960   44.7210   52.5080 C   0  0  0  0  0  0  0  0  0  0  0  0
    5.2200   45.1120   51.5410 N   0  0  0  0  0  0  0  0  0  0  0  0
    5.7540   46.4650   51.4060 C   0  0  0  0  0  0  0  0  0  0  0  0
    7.1610   46.5480   51.9990 C   0  0  2  0  0  0  0  0  0  0  0  0
    7.6830   47.9050   52.4500 C   0  0  0  0  0  0  0  0  0  0  0  0
    8.5660   46.9600   53.2410 C   0  0  2  0  0  0  0  0  0  0  0  0
    9.3040   47.4490   54.4450 C   0  0  0  0  0  0  0  0  0  0  0  0
   10.3420   46.8030   55.0120 N   0  0  0  0  0  0  0  0  0  0  0  0
   10.6490   47.5280   56.0760 N   0  0  0  0  0  0  0  0  0  0  0  0
    9.8250   48.5580   56.1510 N   0  0  0  0  0  0  0  0  0  0  0  0
    8.9600   48.5410   55.1510 N   0  0  0  0  0  0  0  0  0  0  0  0
    9.3070   46.2900   52.0960 C   0  0  0  0  0  0  0  0  0  0  0  0
    8.2190   46.0160   51.2200 O   0  0  0  0  0  0  0  0  0  0  0  0
    7.4100   45.9920   53.3940 C   0  0  0  0  0  0  0  0  0  0  0  0
    5.5840   43.9790   50.7720 C   0  0  0  0  0  0  0  0  0  0  0  0
    6.5040   43.9290   49.7190 C   0  0  0  0  0  0  0  0  0  0  0  0
    6.7490   42.6920   49.1030 C   0  0  0  0  0  0  0  0  0  0  0  0
    6.0820   41.5360   49.5470 C   0  0  0  0  0  0  0  0  0  0  0  0
    5.1570   41.6140   50.6010 C   0  0  0  0  0  0  0  0  0  0  0  0
    4.9120   42.8590   51.1870 C   0  0  0  0  0  0  0  0  0  0  0  0
    0.2200   41.8260   53.6540 H   0  0  0  0  0  0  0  0  0  0  0  0
    0.6959   43.6155   52.7934 H   0  0  0  0  0  0  0  0  0  0  0  0
    2.1103   43.7382   53.9082 H   0  0  0  0  0  0  0  0  0  0  0  0
    2.4971   41.7168   51.8049 H   0  0  0  0  0  0  0  0  0  0  0  0
    2.2096   43.3922   51.1552 H   0  0  0  0  0  0  0  0  0  0  0  0
    4.2273   42.6251   53.2495 H   0  0  0  0  0  0  0  0  0  0  0  0
    3.2550   45.2529   52.3039 H   0  0  0  0  0  0  0  0  0  0  0  0
    4.4967   44.9717   53.5360 H   0  0  0  0  0  0  0  0  0  0  0  0
    5.7942   46.7334   50.3400 H   0  0  0  0  0  0  0  0  0  0  0  0
    5.0980   47.1617   51.9485 H   0  0  0  0  0  0  0  0  0  0  0  0
    8.1807   48.5198   51.6856 H   0  0  0  0  0  0  0  0  0  0  0  0
    7.0837   48.7329   52.8566 H   0  0  0  0  0  0  0  0  0  0  0  0
    9.8490   49.2830   56.9000 H   0  0  0  0  0  0  0  0  0  0  0  0
   10.0416   46.9664   51.6346 H   0  0  0  0  0  0  0  0  0  0  0  0
    9.9022   45.4105   52.3827 H   0  0  0  0  0  0  0  0  0  0  0  0
    7.6673   44.9245   53.4596 H   0  0  0  0  0  0  0  0  0  0  0  0
    6.6883   45.9629   54.2236 H   0  0  0  0  0  0  0  0  0  0  0  0
    7.0232   44.8382   49.3818 H   0  0  0  0  0  0  0  0  0  0  0  0
    7.4649   42.6263   48.2704 H   0  0  0  0  0  0  0  0  0  0  0  0
    6.2855   40.5674   49.0670 H   0  0  0  0  0  0  0  0  0  0  0  0
    4.6359   40.7135   50.9581 H   0  0  0  0  0  0  0  0  0  0  0  0
  1  2  1  0
  2  3  1  0
  3  4  1  0
  4  5  1  0
  5  6  1  0
  6  7  1  0
  8  7  1  6
  8  9  1  0
  9 10  1  0
 10 11  1  1
 11 12  1  0
 12 13  2  0
 13 14  1  0
 14 15  1  0
 10 16  1  0
 16 17  1  0
 10 18  1  0
  6 19  1  0
 19 20  2  0
 20 21  1  0
 21 22  2  0
 22 23  1  0
 23 24  2  0
 24  4  1  0
 17  8  1  0
 24 19  1  0
 18  8  1  0
 15 11  2  0
  1 25  1  0
  2 26  1  0
  2 27  1  0
  3 28  1  0
  3 29  1  0
  4 30  1  1
  5 31  1  0
  5 32  1  0
  7 33  1  0
  7 34  1  0
  9 35  1  0
  9 36  1  0
 14 37  1  0
 16 38  1  0
 16 39  1  0
 18 40  1  0
 18 41  1  0
 20 42  1  0
 21 43  1  0
 22 44  1  0
 23 45  1  0
M  END
>  <meeko>  (2) 
{"is_sidechain": [false], "free_energy": -9.53, "intermolecular_energy": -12.632, "internal_energy": -0.042}

$$$$
ligand_57_conformer_5_docked
     RDKit          3D

 45 49  0  0  0  0  0  0  0  0999 V2000
   11.2980   47.2620   56.5990 O   0  0  0  0  0  0  0  0  0  0  0  0
   10.3240   47.7380   55.7130 C   0  0  0  0  0  0  0  0  0  0  0  0
   10.1180   46.7550   54.5570 C   0  0  0  0  0  0  0  0  0  0  0  0
    9.5170   47.4290   53.3040 C   0  0  2  0  0  0  0  0  0  0  0  0
    8.0690   47.9600   53.5330 C   0  0  0  0  0  0  0  0  0  0  0  0
    7.2390   47.3230   52.5130 N   0  0  0  0  0  0  0  0  0  0  0  0
    5.8130   47.5850   52.3280 C   0  0  0  0  0  0  0  0  0  0  0  0
    4.9760   46.6220   53.1720 C   0  0  2  0  0  0  0  0  0  0  0  0
    3.4740   46.5660   52.9390 C   0  0  0  0  0  0  0  0  0  0  0  0
    3.7310   45.2260   53.6000 C   0  0  2  0  0  0  0  0  0  0  0  0
    2.7320   44.1200   53.4740 C   0  0  0  0  0  0  0  0  0  0  0  0
    1.5940   44.0420   54.1900 N   0  0  0  0  0  0  0  0  0  0  0  0
    1.0470   42.8930   53.8280 N   0  0  0  0  0  0  0  0  0  0  0  0
    1.8280   42.3010   52.9410 N   0  0  0  0  0  0  0  0  0  0  0  0
    2.9010   43.0340   52.6980 N   0  0  0  0  0  0  0  0  0  0  0  0
    4.1910   45.7020   54.9660 C   0  0  0  0  0  0  0  0  0  0  0  0
    5.1010   46.7280   54.5800 O   0  0  0  0  0  0  0  0  0  0  0  0
    5.0720   45.1270   52.9010 C   0  0  0  0  0  0  0  0  0  0  0  0
    8.0380   46.4250   51.7630 C   0  0  0  0  0  0  0  0  0  0  0  0
    7.6240   45.5920   50.7180 C   0  0  0  0  0  0  0  0  0  0  0  0
    8.5850   44.7940   50.0780 C   0  0  0  0  0  0  0  0  0  0  0  0
    9.9300   44.8420   50.4860 C   0  0  0  0  0  0  0  0  0  0  0  0
   10.3190   45.6810   51.5440 C   0  0  0  0  0  0  0  0  0  0  0  0
    9.3420   46.4520   52.1820 C   0  0  0  0  0  0  0  0  0  0  0  0
   11.9200   46.7130   56.0550 H   0  0  0  0  0  0  0  0  0  0  0  0
    9.3744   47.8638   56.2537 H   0  0  0  0  0  0  0  0  0  0  0  0
   10.6597   48.7018   55.3025 H   0  0  0  0  0  0  0  0  0  0  0  0
   11.0910   46.3173   54.2891 H   0  0  0  0  0  0  0  0  0  0  0  0
    9.4070   45.9870   54.8955 H   0  0  0  0  0  0  0  0  0  0  0  0
   10.2270   48.2381   53.0778 H   0  0  0  0  0  0  0  0  0  0  0  0
    7.7162   47.6861   54.5383 H   0  0  0  0  0  0  0  0  0  0  0  0
    8.0263   49.0567   53.4593 H   0  0  0  0  0  0  0  0  0  0  0  0
    5.5926   48.6186   52.6330 H   0  0  0  0  0  0  0  0  0  0  0  0
    5.5599   47.4397   51.2674 H   0  0  0  0  0  0  0  0  0  0  0  0
    2.8611   47.2840   53.5037 H   0  0  0  0  0  0  0  0  0  0  0  0
    2.9545   46.7343   51.9841 H   0  0  0  0  0  0  0  0  0  0  0  0
    1.6290   41.3770   52.4990 H   0  0  0  0  0  0  0  0  0  0  0  0
    3.3562   46.1002   55.5615 H   0  0  0  0  0  0  0  0  0  0  0  0
    4.6221   44.9191   55.6073 H   0  0  0  0  0  0  0  0  0  0  0  0
    5.8650   44.5802   53.4323 H   0  0  0  0  0  0  0  0  0  0  0  0
    5.2686   44.6505   51.9293 H   0  0  0  0  0  0  0  0  0  0  0  0
    6.5698   45.5631   50.4052 H   0  0  0  0  0  0  0  0  0  0  0  0
    8.2852   44.1289   49.2547 H   0  0  0  0  0  0  0  0  0  0  0  0
   10.6802   44.2206   49.9751 H   0  0  0  0  0  0  0  0  0  0  0  0
   11.3703   45.7304   51.8638 H   0  0  0  0  0  0  0  0  0  0  0  0
  1  2  1  0
  2  3  1  0
  3  4  1  0
  4  5  1  0
  5  6  1  0
  6  7  1  0
  8  7  1  6
  8  9  1  0
  9 10  1  0
 10 11  1  1
 11 12  1  0
 12 13  2  0
 13 14  1  0
 14 15  1  0
 10 16  1  0
 16 17  1  0
 10 18  1  0
  6 19  1  0
 19 20  2  0
 20 21  1  0
 21 22  2  0
 22 23  1  0
 23 24  2  0
 24  4  1  0
 17  8  1  0
 24 19  1  0
 18  8  1  0
 15 11  2  0
  1 25  1  0
  2 26  1  0
  2 27  1  0
  3 28  1  0
  3 29  1  0
  4 30  1  6
  5 31  1  0
  5 32  1  0
  7 33  1  0
  7 34  1  0
  9 35  1  0
  9 36  1  0
 14 37  1  0
 16 38  1  0
 16 39  1  0
 18 40  1  0
 18 41  1  0
 20 42  1  0
 21 43  1  0
 22 44  1  0
 23 45  1  0
M  END
>  <meeko>  (3) 
{"is_sidechain": [false], "free_energy": -8.365, "intermolecular_energy": -11.002, "internal_energy": -0.133}

$$$$
ligand_57_conformer_5_docked
     RDKit          3D

 45 49  0  0  0  0  0  0  0  0999 V2000
   -0.2300   41.2250   53.0740 O   0  0  0  0  0  0  0  0  0  0  0  0
   -0.0620   42.5510   52.6590 C   0  0  0  0  0  0  0  0  0  0  0  0
    1.0820   42.6590   51.6460 C   0  0  0  0  0  0  0  0  0  0  0  0
    2.4110   43.1000   52.2960 C   0  0  2  0  0  0  0  0  0  0  0  0
    2.5440   44.6490   52.4220 C   0  0  0  0  0  0  0  0  0  0  0  0
    3.7780   45.0070   51.7260 N   0  0  0  0  0  0  0  0  0  0  0  0
    4.3180   46.3630   51.6490 C   0  0  0  0  0  0  0  0  0  0  0  0
    5.1800   46.6690   52.8750 C   0  0  2  0  0  0  0  0  0  0  0  0
    6.2980   45.7030   53.2380 C   0  0  0  0  0  0  0  0  0  0  0  0
    6.7490   46.9710   53.9370 C   0  0  2  0  0  0  0  0  0  0  0  0
    8.1750   47.1320   54.3590 C   0  0  0  0  0  0  0  0  0  0  0  0
    8.5880   47.9720   55.3270 N   0  0  0  0  0  0  0  0  0  0  0  0
    9.9060   47.8590   55.3300 N   0  0  0  0  0  0  0  0  0  0  0  0
   10.2700   46.9970   54.3970 N   0  0  0  0  0  0  0  0  0  0  0  0
    9.2140   46.5240   53.7580 N   0  0  0  0  0  0  0  0  0  0  0  0
    5.6220   47.1190   54.9440 C   0  0  0  0  0  0  0  0  0  0  0  0
    4.5000   46.8830   54.1000 O   0  0  0  0  0  0  0  0  0  0  0  0
    6.1880   47.8070   52.8050 C   0  0  0  0  0  0  0  0  0  0  0  0
    4.3380   43.8400   51.1490 C   0  0  0  0  0  0  0  0  0  0  0  0
    5.4980   43.7510   50.3720 C   0  0  0  0  0  0  0  0  0  0  0  0
    5.9030   42.4870   49.9180 C   0  0  0  0  0  0  0  0  0  0  0  0
    5.1530   41.3420   50.2480 C   0  0  0  0  0  0  0  0  0  0  0  0
    3.9880   41.4600   51.0230 C   0  0  0  0  0  0  0  0  0  0  0  0
    3.5900   42.7310   51.4470 C   0  0  0  0  0  0  0  0  0  0  0  0
    0.3030   40.6700   52.4490 H   0  0  0  0  0  0  0  0  0  0  0  0
   -0.9931   42.9041   52.1916 H   0  0  0  0  0  0  0  0  0  0  0  0
    0.1820   43.1685   53.5360 H   0  0  0  0  0  0  0  0  0  0  0  0
    1.2294   41.6760   51.1749 H   0  0  0  0  0  0  0  0  0  0  0  0
    0.8020   43.4249   50.9077 H   0  0  0  0  0  0  0  0  0  0  0  0
    2.3992   42.6012   53.2764 H   0  0  0  0  0  0  0  0  0  0  0  0
    1.6825   45.1458   51.9519 H   0  0  0  0  0  0  0  0  0  0  0  0
    2.5697   44.9661   53.4750 H   0  0  0  0  0  0  0  0  0  0  0  0
    4.9333   46.4562   50.7419 H   0  0  0  0  0  0  0  0  0  0  0  0
    3.4816   47.0767   51.6161 H   0  0  0  0  0  0  0  0  0  0  0  0
    6.0258   44.8550   53.8836 H   0  0  0  0  0  0  0  0  0  0  0  0
    6.8910   45.0968   52.5373 H   0  0  0  0  0  0  0  0  0  0  0  0
   11.2570   46.7310   54.1880 H   0  0  0  0  0  0  0  0  0  0  0  0
    5.6923   46.3710   55.7475 H   0  0  0  0  0  0  0  0  0  0  0  0
    5.6037   48.0798   55.4793 H   0  0  0  0  0  0  0  0  0  0  0  0
    5.8185   48.8089   53.0692 H   0  0  0  0  0  0  0  0  0  0  0  0
    6.7318   48.1437   51.9101 H   0  0  0  0  0  0  0  0  0  0  0  0
    6.0790   44.6512   50.1229 H   0  0  0  0  0  0  0  0  0  0  0  0
    6.8093   42.3901   49.3023 H   0  0  0  0  0  0  0  0  0  0  0  0
    5.4806   40.3521   49.8977 H   0  0  0  0  0  0  0  0  0  0  0  0
    3.4002   40.5697   51.2911 H   0  0  0  0  0  0  0  0  0  0  0  0
  1  2  1  0
  2  3  1  0
  3  4  1  0
  4  5  1  0
  5  6  1  0
  6  7  1  0
  8  7  1  6
  8  9  1  0
  9 10  1  0
 10 11  1  1
 11 12  1  0
 12 13  2  0
 13 14  1  0
 14 15  1  0
 10 16  1  0
 16 17  1  0
 10 18  1  0
  6 19  1  0
 19 20  2  0
 20 21  1  0
 21 22  2  0
 22 23  1  0
 23 24  2  0
 24  4  1  0
 17  8  1  0
 24 19  1  0
 18  8  1  0
 15 11  2  0
  1 25  1  0
  2 26  1  0
  2 27  1  0
  3 28  1  0
  3 29  1  0
  4 30  1  1
  5 31  1  0
  5 32  1  0
  7 33  1  0
  7 34  1  0
  9 35  1  0
  9 36  1  0
 14 37  1  0
 16 38  1  0
 16 39  1  0
 18 40  1  0
 18 41  1  0
 20 42  1  0
 21 43  1  0
 22 44  1  0
 23 45  1  0
M  END
>  <meeko>  (4) 
{"is_sidechain": [false], "free_energy": -8.322, "intermolecular_energy": -10.787, "internal_energy": -0.291}

$$$$
ligand_57_conformer_5_docked
     RDKit          3D

 45 49  0  0  0  0  0  0  0  0999 V2000
   10.2620   47.1940   55.3550 O   0  0  0  0  0  0  0  0  0  0  0  0
    9.2350   47.8790   54.6940 C   0  0  0  0  0  0  0  0  0  0  0  0
    8.9670   47.2560   53.3200 C   0  0  0  0  0  0  0  0  0  0  0  0
    7.4630   47.2100   52.9730 C   0  0  2  0  0  0  0  0  0  0  0  0
    6.5690   46.8070   54.1860 C   0  0  0  0  0  0  0  0  0  0  0  0
    5.8090   45.6350   53.7570 N   0  0  0  0  0  0  0  0  0  0  0  0
    4.8000   44.9620   54.5720 C   0  0  0  0  0  0  0  0  0  0  0  0
    3.4040   45.1800   53.9870 C   0  0  2  0  0  0  0  0  0  0  0  0
    2.7820   44.0700   53.1520 C   0  0  0  0  0  0  0  0  0  0  0  0
    1.5570   44.8550   53.5760 C   0  0  2  0  0  0  0  0  0  0  0  0
    0.2010   44.2290   53.5130 C   0  0  0  0  0  0  0  0  0  0  0  0
   -0.0300   42.9070   53.6350 N   0  0  0  0  0  0  0  0  0  0  0  0
   -1.3330   42.7750   53.4490 N   0  0  0  0  0  0  0  0  0  0  0  0
   -1.8610   43.9630   53.2150 N   0  0  0  0  0  0  0  0  0  0  0  0
   -0.9310   44.9030   53.2380 N   0  0  0  0  0  0  0  0  0  0  0  0
    1.8390   46.1670   52.8640 C   0  0  0  0  0  0  0  0  0  0  0  0
    3.2100   46.3460   53.2040 O   0  0  0  0  0  0  0  0  0  0  0  0
    2.1990   45.1520   54.9170 C   0  0  0  0  0  0  0  0  0  0  0  0
    6.2190   45.2740   52.4490 C   0  0  0  0  0  0  0  0  0  0  0  0
    5.7640   44.1910   51.6880 C   0  0  0  0  0  0  0  0  0  0  0  0
    6.2770   44.0230   50.3920 C   0  0  0  0  0  0  0  0  0  0  0  0
    7.2230   44.9320   49.8820 C   0  0  0  0  0  0  0  0  0  0  0  0
    7.6680   46.0060   50.6700 C   0  0  0  0  0  0  0  0  0  0  0  0
    7.1610   46.1420   51.9660 C   0  0  0  0  0  0  0  0  0  0  0  0
   10.2810   46.2830   54.9640 H   0  0  0  0  0  0  0  0  0  0  0  0
    8.3180   47.8270   55.2994 H   0  0  0  0  0  0  0  0  0  0  0  0
    9.5406   48.9265   54.5544 H   0  0  0  0  0  0  0  0  0  0  0  0
    9.4871   47.8517   52.5554 H   0  0  0  0  0  0  0  0  0  0  0  0
    9.3351   46.2198   53.3461 H   0  0  0  0  0  0  0  0  0  0  0  0
    7.2475   48.2278   52.6157 H   0  0  0  0  0  0  0  0  0  0  0  0
    7.1949   46.5588   55.0559 H   0  0  0  0  0  0  0  0  0  0  0  0
    5.9036   47.6299   54.4860 H   0  0  0  0  0  0  0  0  0  0  0  0
    5.0167   43.8839   54.5985 H   0  0  0  0  0  0  0  0  0  0  0  0
    4.8281   45.3804   55.5889 H   0  0  0  0  0  0  0  0  0  0  0  0
    3.0192   44.0703   52.0779 H   0  0  0  0  0  0  0  0  0  0  0  0
    2.9414   42.9892   53.2802 H   0  0  0  0  0  0  0  0  0  0  0  0
   -2.8730   44.1370   53.0310 H   0  0  0  0  0  0  0  0  0  0  0  0
    1.6965   46.0798   51.7768 H   0  0  0  0  0  0  0  0  0  0  0  0
    1.1792   46.9994   53.1501 H   0  0  0  0  0  0  0  0  0  0  0  0
    1.9236   46.1039   55.3946 H   0  0  0  0  0  0  0  0  0  0  0  0
    2.0971   44.5563   55.8361 H   0  0  0  0  0  0  0  0  0  0  0  0
    5.0223   43.4884   52.0956 H   0  0  0  0  0  0  0  0  0  0  0  0
    5.9387   43.1787   49.7734 H   0  0  0  0  0  0  0  0  0  0  0  0
    7.6151   44.8007   48.8627 H   0  0  0  0  0  0  0  0  0  0  0  0
    8.4005   46.7256   50.2756 H   0  0  0  0  0  0  0  0  0  0  0  0
  1  2  1  0
  2  3  1  0
  3  4  1  0
  4  5  1  0
  5  6  1  0
  6  7  1  0
  8  7  1  1
  8  9  1  0
  9 10  1  0
 10 11  1  1
 11 12  1  0
 12 13  2  0
 13 14  1  0
 14 15  1  0
 10 16  1  0
 16 17  1  0
 10 18  1  0
  6 19  1  0
 19 20  2  0
 20 21  1  0
 21 22  2  0
 22 23  1  0
 23 24  2  0
 24  4  1  0
 17  8  1  0
 24 19  1  0
 18  8  1  0
 15 11  2  0
  1 25  1  0
  2 26  1  0
  2 27  1  0
  3 28  1  0
  3 29  1  0
  4 30  1  6
  5 31  1  0
  5 32  1  0
  7 33  1  0
  7 34  1  0
  9 35  1  0
  9 36  1  0
 14 37  1  0
 16 38  1  0
 16 39  1  0
 18 40  1  0
 18 41  1  0
 20 42  1  0
 21 43  1  0
 22 44  1  0
 23 45  1  0
M  END
>  <meeko>  (5) 
{"is_sidechain": [false], "free_energy": -8.193, "intermolecular_energy": -10.786, "internal_energy": -0.123}

$$$$
