ligand_8_conformer_4_docked
     RDKit          3D

 55 58  0  0  0  0  0  0  0  0999 V2000
    2.0010   42.5980   52.9890 O   0  0  0  0  0  0  0  0  0  0  0  0
    2.1640   43.8390   53.1510 C   0  0  0  0  0  0  0  0  0  0  0  0
    1.2230   44.5860   53.9380 N   0  0  0  0  0  0  0  0  0  0  0  0
   -0.1020   44.0570   54.2760 C   0  0  1  0  0  0  0  0  0  0  0  0
   -0.6440   44.6550   55.5660 C   0  0  0  0  0  0  0  0  0  0  0  0
   -2.1690   44.5480   55.4390 C   0  0  1  0  0  0  0  0  0  0  0  0
   -2.9110   45.8010   55.9060 C   0  0  0  0  0  0  0  0  0  0  0  0
   -3.2190   46.6000   54.7210 N   0  0  0  0  0  0  0  0  0  0  0  0
   -3.3600   45.6380   53.6280 C   0  0  0  0  0  0  0  0  0  0  0  0
   -2.4780   44.4300   53.9540 C   0  0  1  0  0  0  0  0  0  0  0  0
   -1.1290   44.4350   53.2200 C   0  0  0  0  0  0  0  0  0  0  0  0
    3.3450   44.4980   52.5470 C   0  0  0  0  0  0  0  0  0  0  0  0
    3.2110   45.3440   51.4320 C   0  0  0  0  0  0  0  0  0  0  0  0
    4.3330   45.9560   50.8660 C   0  0  0  0  0  0  0  0  0  0  0  0
    5.6140   45.7310   51.4060 C   0  0  0  0  0  0  0  0  0  0  0  0
    6.7690   46.3270   50.8800 O   0  0  0  0  0  0  0  0  0  0  0  0
    8.1000   45.9110   51.1790 C   0  0  0  0  0  0  0  0  0  0  0  0
    8.9690   47.1380   51.5160 C   0  0  0  0  0  0  0  0  0  0  0  0
    8.1710   48.2550   52.2280 C   0  0  0  0  0  0  0  0  0  0  0  0
    7.8440   47.9060   53.6870 C   0  0  0  0  0  0  0  0  0  0  0  0
    9.1130   47.5520   54.4680 C   0  0  0  0  0  0  0  0  0  0  0  0
    9.8770   46.4060   53.7960 C   0  0  0  0  0  0  0  0  0  0  0  0
   10.2170   46.7480   52.3380 C   0  0  0  0  0  0  0  0  0  0  0  0
    5.7490   44.8800   52.5090 C   0  0  0  0  0  0  0  0  0  0  0  0
    4.6280   44.2620   53.0720 C   0  0  0  0  0  0  0  0  0  0  0  0
    1.4380   45.5810   54.1750 H   0  0  0  0  0  0  0  0  0  0  0  0
    0.0367   42.9690   54.3598 H   0  0  0  0  0  0  0  0  0  0  0  0
   -0.2870   44.0855   56.4368 H   0  0  0  0  0  0  0  0  0  0  0  0
   -0.3121   45.6934   55.7132 H   0  0  0  0  0  0  0  0  0  0  0  0
   -2.4901   43.6960   56.0562 H   0  0  0  0  0  0  0  0  0  0  0  0
   -3.8416   45.5165   56.4188 H   0  0  0  0  0  0  0  0  0  0  0  0
   -2.2919   46.3767   56.6098 H   0  0  0  0  0  0  0  0  0  0  0  0
   -2.3830   47.1970   54.5140 H   0  0  0  0  0  0  0  0  0  0  0  0
   -4.4100   45.3223   53.5400 H   0  0  0  0  0  0  0  0  0  0  0  0
   -3.0542   46.0918   52.6737 H   0  0  0  0  0  0  0  0  0  0  0  0
   -3.0096   43.5149   53.6540 H   0  0  0  0  0  0  0  0  0  0  0  0
   -1.1314   43.6988   52.4026 H   0  0  0  0  0  0  0  0  0  0  0  0
   -0.9112   45.4123   52.7645 H   0  0  0  0  0  0  0  0  0  0  0  0
    2.2151   45.5257   51.0016 H   0  0  0  0  0  0  0  0  0  0  0  0
    4.2148   46.6166   49.9945 H   0  0  0  0  0  0  0  0  0  0  0  0
    8.0838   45.2276   52.0408 H   0  0  0  0  0  0  0  0  0  0  0  0
    8.5238   45.3959   50.3043 H   0  0  0  0  0  0  0  0  0  0  0  0
    9.3078   47.5448   50.5518 H   0  0  0  0  0  0  0  0  0  0  0  0
    8.7669   49.1795   52.2115 H   0  0  0  0  0  0  0  0  0  0  0  0
    7.2181   48.3782   51.6924 H   0  0  0  0  0  0  0  0  0  0  0  0
    7.3589   48.7709   54.1631 H   0  0  0  0  0  0  0  0  0  0  0  0
    7.1743   47.0334   53.6954 H   0  0  0  0  0  0  0  0  0  0  0  0
    9.7637   48.4376   54.5153 H   0  0  0  0  0  0  0  0  0  0  0  0
    8.8211   47.2301   55.4785 H   0  0  0  0  0  0  0  0  0  0  0  0
   10.8101   46.2234   54.3491 H   0  0  0  0  0  0  0  0  0  0  0  0
    9.2402   45.5091   53.8050 H   0  0  0  0  0  0  0  0  0  0  0  0
   10.9232   47.5913   52.3289 H   0  0  0  0  0  0  0  0  0  0  0  0
   10.6539   45.8499   51.8770 H   0  0  0  0  0  0  0  0  0  0  0  0
    6.7455   44.6957   52.9367 H   0  0  0  0  0  0  0  0  0  0  0  0
    4.7507   43.5866   53.9315 H   0  0  0  0  0  0  0  0  0  0  0  0
  1  2  2  0
  2  3  1  0
  3  4  1  0
  4  5  1  0
  5  6  1  0
  6  7  1  0
  7  8  1  0
  8  9  1  0
  9 10  1  0
 10 11  1  0
  2 12  1  0
 12 13  2  0
 13 14  1  0
 14 15  2  0
 15 16  1  0
 16 17  1  0
 17 18  1  0
 18 19  1  0
 19 20  1  0
 20 21  1  0
 21 22  1  0
 22 23  1  0
 15 24  1  0
 24 25  2  0
 11  4  1  0
 25 12  1  0
 10  6  1  0
 23 18  1  0
  3 26  1  0
  4 27  1  1
  5 28  1  0
  5 29  1  0
  6 30  1  1
  7 31  1  0
  7 32  1  0
  8 33  1  0
  9 34  1  0
  9 35  1  0
 10 36  1  1
 11 37  1  0
 11 38  1  0
 13 39  1  0
 14 40  1  0
 17 41  1  0
 17 42  1  0
 18 43  1  0
 19 44  1  0
 19 45  1  0
 20 46  1  0
 20 47  1  0
 21 48  1  0
 21 49  1  0
 22 50  1  0
 22 51  1  0
 23 52  1  0
 23 53  1  0
 24 54  1  0
 25 55  1  0
M  END
>  <meeko>  (1) 
{"is_sidechain": [false], "free_energy": -8.514, "intermolecular_energy": -11.002, "internal_energy": -0.866}

$$$$
ligand_8_conformer_4_docked
     RDKit          3D

 55 58  0  0  0  0  0  0  0  0999 V2000
    1.5380   44.0560   54.9620 O   0  0  0  0  0  0  0  0  0  0  0  0
    2.2400   45.0730   55.2200 C   0  0  0  0  0  0  0  0  0  0  0  0
    2.0120   45.8110   56.4310 N   0  0  0  0  0  0  0  0  0  0  0  0
    0.7830   45.6570   57.2150 C   0  0  1  0  0  0  0  0  0  0  0  0
    0.5340   46.8500   58.1270 C   0  0  0  0  0  0  0  0  0  0  0  0
   -0.9840   46.8690   58.3460 C   0  0  1  0  0  0  0  0  0  0  0  0
   -1.5940   48.2690   58.2720 C   0  0  0  0  0  0  0  0  0  0  0  0
   -2.1370   48.4440   56.9260 N   0  0  0  0  0  0  0  0  0  0  0  0
   -2.5190   47.1040   56.4820 C   0  0  0  0  0  0  0  0  0  0  0  0
   -1.6030   46.1010   57.1870 C   0  0  1  0  0  0  0  0  0  0  0  0
   -0.4410   45.6060   56.3140 C   0  0  0  0  0  0  0  0  0  0  0  0
    3.3120   45.4680   54.2770 C   0  0  0  0  0  0  0  0  0  0  0  0
    4.6370   45.0350   54.4640 C   0  0  0  0  0  0  0  0  0  0  0  0
    5.6420   45.4190   53.5710 C   0  0  0  0  0  0  0  0  0  0  0  0
    5.3390   46.2470   52.4740 C   0  0  0  0  0  0  0  0  0  0  0  0
    6.3100   46.6540   51.5470 O   0  0  0  0  0  0  0  0  0  0  0  0
    7.5210   45.9490   51.2840 C   0  0  0  0  0  0  0  0  0  0  0  0
    8.7070   46.9320   51.2700 C   0  0  0  0  0  0  0  0  0  0  0  0
    8.3900   48.2570   52.0000 C   0  0  0  0  0  0  0  0  0  0  0  0
    8.3540   48.0950   53.5260 C   0  0  0  0  0  0  0  0  0  0  0  0
    9.6570   47.4780   54.0470 C   0  0  0  0  0  0  0  0  0  0  0  0
    9.9450   46.1360   53.3670 C   0  0  0  0  0  0  0  0  0  0  0  0
    9.9910   46.2880   51.8390 C   0  0  0  0  0  0  0  0  0  0  0  0
    4.0230   46.6870   52.2940 C   0  0  0  0  0  0  0  0  0  0  0  0
    3.0190   46.3100   53.1900 C   0  0  0  0  0  0  0  0  0  0  0  0
    2.6820   46.5660   56.6980 H   0  0  0  0  0  0  0  0  0  0  0  0
    0.9242   44.7288   57.7882 H   0  0  0  0  0  0  0  0  0  0  0  0
    1.0615   46.7225   59.0838 H   0  0  0  0  0  0  0  0  0  0  0  0
    0.9011   47.7899   57.6890 H   0  0  0  0  0  0  0  0  0  0  0  0
   -1.1769   46.4510   59.3450 H   0  0  0  0  0  0  0  0  0  0  0  0
   -2.3977   48.3678   59.0165 H   0  0  0  0  0  0  0  0  0  0  0  0
   -0.8324   49.0339   58.4838 H   0  0  0  0  0  0  0  0  0  0  0  0
   -1.3580   48.7740   56.3090 H   0  0  0  0  0  0  0  0  0  0  0  0
   -3.5675   46.9056   56.7490 H   0  0  0  0  0  0  0  0  0  0  0  0
   -2.4177   47.0166   55.3902 H   0  0  0  0  0  0  0  0  0  0  0  0
   -2.1976   45.2195   57.4688 H   0  0  0  0  0  0  0  0  0  0  0  0
   -0.6261   44.5769   55.9724 H   0  0  0  0  0  0  0  0  0  0  0  0
   -0.3134   46.2213   55.4111 H   0  0  0  0  0  0  0  0  0  0  0  0
    4.8845   44.3893   55.3194 H   0  0  0  0  0  0  0  0  0  0  0  0
    6.6743   45.0723   53.7266 H   0  0  0  0  0  0  0  0  0  0  0  0
    7.6817   45.1946   52.0683 H   0  0  0  0  0  0  0  0  0  0  0  0
    7.4475   45.4559   50.3035 H   0  0  0  0  0  0  0  0  0  0  0  0
    8.8861   47.1779   50.2129 H   0  0  0  0  0  0  0  0  0  0  0  0
    9.1635   48.9954   51.7421 H   0  0  0  0  0  0  0  0  0  0  0  0
    7.3917   48.5860   51.6758 H   0  0  0  0  0  0  0  0  0  0  0  0
    8.2143   49.0831   53.9889 H   0  0  0  0  0  0  0  0  0  0  0  0
    7.5217   47.4246   53.7864 H   0  0  0  0  0  0  0  0  0  0  0  0
   10.4880   48.1692   53.8430 H   0  0  0  0  0  0  0  0  0  0  0  0
    9.5527   47.3053   55.1283 H   0  0  0  0  0  0  0  0  0  0  0  0
   10.9151   45.7557   53.7194 H   0  0  0  0  0  0  0  0  0  0  0  0
    9.1378   45.4342   53.6238 H   0  0  0  0  0  0  0  0  0  0  0  0
   10.8507   46.9206   51.5731 H   0  0  0  0  0  0  0  0  0  0  0  0
   10.0806   45.2811   51.4053 H   0  0  0  0  0  0  0  0  0  0  0  0
    3.7766   47.3351   51.4400 H   0  0  0  0  0  0  0  0  0  0  0  0
    1.9916   46.6749   53.0436 H   0  0  0  0  0  0  0  0  0  0  0  0
  1  2  2  0
  2  3  1  0
  3  4  1  0
  4  5  1  0
  5  6  1  0
  6  7  1  0
  7  8  1  0
  8  9  1  0
  9 10  1  0
 10 11  1  0
  2 12  1  0
 12 13  2  0
 13 14  1  0
 14 15  2  0
 15 16  1  0
 16 17  1  0
 17 18  1  0
 18 19  1  0
 19 20  1  0
 20 21  1  0
 21 22  1  0
 22 23  1  0
 15 24  1  0
 24 25  2  0
 11  4  1  0
 25 12  1  0
 10  6  1  0
 23 18  1  0
  3 26  1  0
  4 27  1  1
  5 28  1  0
  5 29  1  0
  6 30  1  1
  7 31  1  0
  7 32  1  0
  8 33  1  0
  9 34  1  0
  9 35  1  0
 10 36  1  1
 11 37  1  0
 11 38  1  0
 13 39  1  0
 14 40  1  0
 17 41  1  0
 17 42  1  0
 18 43  1  0
 19 44  1  0
 19 45  1  0
 20 46  1  0
 20 47  1  0
 21 48  1  0
 21 49  1  0
 22 50  1  0
 22 51  1  0
 23 52  1  0
 23 53  1  0
 24 54  1  0
 25 55  1  0
M  END
>  <meeko>  (2) 
{"is_sidechain": [false], "free_energy": -8.423, "intermolecular_energy": -11.437, "internal_energy": -0.314}

$$$$
ligand_8_conformer_4_docked
     RDKit          3D

 55 58  0  0  0  0  0  0  0  0999 V2000
    0.5160   44.0470   54.4970 O   0  0  0  0  0  0  0  0  0  0  0  0
    0.7890   45.0080   53.7250 C   0  0  0  0  0  0  0  0  0  0  0  0
   -0.1780   45.4420   52.7560 N   0  0  0  0  0  0  0  0  0  0  0  0
   -1.3250   44.6120   52.3770 C   0  0  1  0  0  0  0  0  0  0  0  0
   -2.4250   45.4280   51.7110 C   0  0  0  0  0  0  0  0  0  0  0  0
   -3.1820   44.4250   50.8320 C   0  0  1  0  0  0  0  0  0  0  0  0
   -3.5350   44.9710   49.4480 C   0  0  0  0  0  0  0  0  0  0  0  0
   -2.5190   44.4930   48.5110 N   0  0  0  0  0  0  0  0  0  0  0  0
   -2.0590   43.2150   49.0540 C   0  0  0  0  0  0  0  0  0  0  0  0
   -2.2320   43.2650   50.5740 C   0  0  1  0  0  0  0  0  0  0  0  0
   -0.9340   43.5780   51.3320 C   0  0  0  0  0  0  0  0  0  0  0  0
    2.0970   45.6910   53.8570 C   0  0  0  0  0  0  0  0  0  0  0  0
    2.5720   46.5470   52.8460 C   0  0  0  0  0  0  0  0  0  0  0  0
    3.8090   47.1820   52.9780 C   0  0  0  0  0  0  0  0  0  0  0  0
    4.5980   46.9710   54.1250 C   0  0  0  0  0  0  0  0  0  0  0  0
    5.8430   47.5910   54.3070 O   0  0  0  0  0  0  0  0  0  0  0  0
    7.0900   46.9000   54.3500 C   0  0  0  0  0  0  0  0  0  0  0  0
    8.2250   47.8400   53.9020 C   0  0  0  0  0  0  0  0  0  0  0  0
    9.6280   47.2500   54.1720 C   0  0  0  0  0  0  0  0  0  0  0  0
    9.9870   46.1170   53.2000 C   0  0  0  0  0  0  0  0  0  0  0  0
    9.8530   46.5750   51.7430 C   0  0  0  0  0  0  0  0  0  0  0  0
    8.4460   47.1090   51.4570 C   0  0  0  0  0  0  0  0  0  0  0  0
    8.0790   48.2490   52.4190 C   0  0  0  0  0  0  0  0  0  0  0  0
    4.1310   46.1120   55.1250 C   0  0  0  0  0  0  0  0  0  0  0  0
    2.8960   45.4700   54.9920 C   0  0  0  0  0  0  0  0  0  0  0  0
    0.0050   46.3170   52.2160 H   0  0  0  0  0  0  0  0  0  0  0  0
   -1.6692   44.1539   53.3160 H   0  0  0  0  0  0  0  0  0  0  0  0
   -3.0953   45.8637   52.4666 H   0  0  0  0  0  0  0  0  0  0  0  0
   -2.0218   46.2687   51.1274 H   0  0  0  0  0  0  0  0  0  0  0  0
   -4.1123   44.1643   51.3579 H   0  0  0  0  0  0  0  0  0  0  0  0
   -4.5272   44.6069   49.1431 H   0  0  0  0  0  0  0  0  0  0  0  0
   -3.5606   46.0706   49.4618 H   0  0  0  0  0  0  0  0  0  0  0  0
   -1.7140   45.1630   48.5470 H   0  0  0  0  0  0  0  0  0  0  0  0
   -2.6583   42.3929   48.6357 H   0  0  0  0  0  0  0  0  0  0  0  0
   -1.0046   43.0426   48.7920 H   0  0  0  0  0  0  0  0  0  0  0  0
   -2.5836   42.2822   50.9211 H   0  0  0  0  0  0  0  0  0  0  0  0
   -0.5402   42.6712   51.8144 H   0  0  0  0  0  0  0  0  0  0  0  0
   -0.1441   43.9477   50.6617 H   0  0  0  0  0  0  0  0  0  0  0  0
    1.9644   46.7173   51.9450 H   0  0  0  0  0  0  0  0  0  0  0  0
    4.1687   47.8504   52.1818 H   0  0  0  0  0  0  0  0  0  0  0  0
    7.2829   46.5590   55.3779 H   0  0  0  0  0  0  0  0  0  0  0  0
    7.0481   46.0340   53.6730 H   0  0  0  0  0  0  0  0  0  0  0  0
    8.1299   48.7464   54.5179 H   0  0  0  0  0  0  0  0  0  0  0  0
   10.3736   48.0522   54.0694 H   0  0  0  0  0  0  0  0  0  0  0  0
    9.6235   46.8292   55.1883 H   0  0  0  0  0  0  0  0  0  0  0  0
   11.0249   45.8020   53.3833 H   0  0  0  0  0  0  0  0  0  0  0  0
    9.2930   45.2802   53.3679 H   0  0  0  0  0  0  0  0  0  0  0  0
   10.5856   47.3722   51.5487 H   0  0  0  0  0  0  0  0  0  0  0  0
   10.0372   45.7107   51.0880 H   0  0  0  0  0  0  0  0  0  0  0  0
    8.4079   47.4849   50.4239 H   0  0  0  0  0  0  0  0  0  0  0  0
    7.7266   46.2889   51.5978 H   0  0  0  0  0  0  0  0  0  0  0  0
    8.7418   49.1045   52.2218 H   0  0  0  0  0  0  0  0  0  0  0  0
    7.0240   48.5073   52.2452 H   0  0  0  0  0  0  0  0  0  0  0  0
    4.7407   45.9399   56.0242 H   0  0  0  0  0  0  0  0  0  0  0  0
    2.5474   44.7874   55.7810 H   0  0  0  0  0  0  0  0  0  0  0  0
  1  2  2  0
  2  3  1  0
  3  4  1  0
  4  5  1  0
  5  6  1  0
  6  7  1  0
  7  8  1  0
  8  9  1  0
  9 10  1  0
 10 11  1  0
  2 12  1  0
 12 13  2  0
 13 14  1  0
 14 15  2  0
 15 16  1  0
 16 17  1  0
 17 18  1  0
 18 19  1  0
 19 20  1  0
 20 21  1  0
 21 22  1  0
 22 23  1  0
 15 24  1  0
 24 25  2  0
 11  4  1  0
 25 12  1  0
 10  6  1  0
 23 18  1  0
  3 26  1  0
  4 27  1  1
  5 28  1  0
  5 29  1  0
  6 30  1  1
  7 31  1  0
  7 32  1  0
  8 33  1  0
  9 34  1  0
  9 35  1  0
 10 36  1  1
 11 37  1  0
 11 38  1  0
 13 39  1  0
 14 40  1  0
 17 41  1  0
 17 42  1  0
 18 43  1  0
 19 44  1  0
 19 45  1  0
 20 46  1  0
 20 47  1  0
 21 48  1  0
 21 49  1  0
 22 50  1  0
 22 51  1  0
 23 52  1  0
 23 53  1  0
 24 54  1  0
 25 55  1  0
M  END
>  <meeko>  (3) 
{"is_sidechain": [false], "free_energy": -8.338, "intermolecular_energy": -10.993, "internal_energy": -0.649}

$$$$
ligand_8_conformer_4_docked
     RDKit          3D

 55 58  0  0  0  0  0  0  0  0999 V2000
    2.8500   42.5120   51.7500 O   0  0  0  0  0  0  0  0  0  0  0  0
    2.4840   43.5370   52.3910 C   0  0  0  0  0  0  0  0  0  0  0  0
    1.1010   43.7000   52.7440 N   0  0  0  0  0  0  0  0  0  0  0  0
    0.0370   42.9210   52.1050 C   0  0  1  0  0  0  0  0  0  0  0  0
   -1.2740   43.0070   52.8730 C   0  0  0  0  0  0  0  0  0  0  0  0
   -2.3630   42.7430   51.8250 C   0  0  1  0  0  0  0  0  0  0  0  0
   -3.5680   43.6760   51.9470 C   0  0  0  0  0  0  0  0  0  0  0  0
   -3.3890   44.7580   50.9800 N   0  0  0  0  0  0  0  0  0  0  0  0
   -2.6130   44.1780   49.8840 C   0  0  0  0  0  0  0  0  0  0  0  0
   -1.7490   43.0570   50.4680 C   0  0  1  0  0  0  0  0  0  0  0  0
   -0.2940   43.4700   50.7260 C   0  0  0  0  0  0  0  0  0  0  0  0
    3.4980   44.5390   52.7930 C   0  0  0  0  0  0  0  0  0  0  0  0
    4.6600   44.1550   53.4860 C   0  0  0  0  0  0  0  0  0  0  0  0
    5.6080   45.1090   53.8650 C   0  0  0  0  0  0  0  0  0  0  0  0
    5.4080   46.4690   53.5600 C   0  0  0  0  0  0  0  0  0  0  0  0
    6.3320   47.4630   53.9130 O   0  0  0  0  0  0  0  0  0  0  0  0
    7.5880   47.2130   54.5400 C   0  0  0  0  0  0  0  0  0  0  0  0
    8.7060   47.9640   53.7930 C   0  0  0  0  0  0  0  0  0  0  0  0
   10.0660   47.2330   53.8650 C   0  0  0  0  0  0  0  0  0  0  0  0
   10.1110   45.9840   52.9730 C   0  0  0  0  0  0  0  0  0  0  0  0
    9.7450   46.3260   51.5250 C   0  0  0  0  0  0  0  0  0  0  0  0
    8.3720   47.0010   51.4440 C   0  0  0  0  0  0  0  0  0  0  0  0
    8.3190   48.2570   52.3270 C   0  0  0  0  0  0  0  0  0  0  0  0
    4.2470   46.8520   52.8810 C   0  0  0  0  0  0  0  0  0  0  0  0
    3.2950   45.9000   52.5060 C   0  0  0  0  0  0  0  0  0  0  0  0
    0.8320   44.4800   53.3860 H   0  0  0  0  0  0  0  0  0  0  0  0
    0.4203   41.8906   52.0682 H   0  0  0  0  0  0  0  0  0  0  0  0
   -1.3082   42.2463   53.6668 H   0  0  0  0  0  0  0  0  0  0  0  0
   -1.4017   43.9817   53.3667 H   0  0  0  0  0  0  0  0  0  0  0  0
   -2.7039   41.7059   51.9599 H   0  0  0  0  0  0  0  0  0  0  0  0
   -4.4935   43.1243   51.7255 H   0  0  0  0  0  0  0  0  0  0  0  0
   -3.6430   44.0787   52.9679 H   0  0  0  0  0  0  0  0  0  0  0  0
   -2.7990   45.4950   51.4330 H   0  0  0  0  0  0  0  0  0  0  0  0
   -3.2909   43.7693   49.1202 H   0  0  0  0  0  0  0  0  0  0  0  0
   -1.9816   44.9446   49.4110 H   0  0  0  0  0  0  0  0  0  0  0  0
   -1.7286   42.2203   49.7542 H   0  0  0  0  0  0  0  0  0  0  0  0
    0.3715   43.0332   49.9668 H   0  0  0  0  0  0  0  0  0  0  0  0
   -0.1606   44.5607   50.6745 H   0  0  0  0  0  0  0  0  0  0  0  0
    4.8238   43.0954   53.7316 H   0  0  0  0  0  0  0  0  0  0  0  0
    6.5145   44.7962   54.4040 H   0  0  0  0  0  0  0  0  0  0  0  0
    7.5501   47.5594   55.5833 H   0  0  0  0  0  0  0  0  0  0  0  0
    7.7971   46.1334   54.5138 H   0  0  0  0  0  0  0  0  0  0  0  0
    8.8265   48.9253   54.3139 H   0  0  0  0  0  0  0  0  0  0  0  0
   10.8565   47.9261   53.5414 H   0  0  0  0  0  0  0  0  0  0  0  0
   10.2149   46.9063   54.9048 H   0  0  0  0  0  0  0  0  0  0  0  0
   11.1266   45.5622   52.9967 H   0  0  0  0  0  0  0  0  0  0  0  0
    9.3805   45.2557   53.3550 H   0  0  0  0  0  0  0  0  0  0  0  0
   10.5045   47.0077   51.1146 H   0  0  0  0  0  0  0  0  0  0  0  0
    9.7080   45.3917   50.9456 H   0  0  0  0  0  0  0  0  0  0  0  0
    8.1735   47.2870   50.4005 H   0  0  0  0  0  0  0  0  0  0  0  0
    7.6123   46.2906   51.8019 H   0  0  0  0  0  0  0  0  0  0  0  0
    9.0164   49.0042   51.9203 H   0  0  0  0  0  0  0  0  0  0  0  0
    7.2830   48.6268   52.3216 H   0  0  0  0  0  0  0  0  0  0  0  0
    4.0815   47.9124   52.6398 H   0  0  0  0  0  0  0  0  0  0  0  0
    2.3810   46.2178   51.9829 H   0  0  0  0  0  0  0  0  0  0  0  0
  1  2  2  0
  2  3  1  0
  3  4  1  0
  4  5  1  0
  5  6  1  0
  6  7  1  0
  7  8  1  0
  8  9  1  0
  9 10  1  0
 10 11  1  0
  2 12  1  0
 12 13  2  0
 13 14  1  0
 14 15  2  0
 15 16  1  0
 16 17  1  0
 17 18  1  0
 18 19  1  0
 19 20  1  0
 20 21  1  0
 21 22  1  0
 22 23  1  0
 15 24  1  0
 24 25  2  0
 11  4  1  0
 25 12  1  0
 10  6  1  0
 23 18  1  0
  3 26  1  0
  4 27  1  6
  5 28  1  0
  5 29  1  0
  6 30  1  6
  7 31  1  0
  7 32  1  0
  8 33  1  0
  9 34  1  0
  9 35  1  0
 10 36  1  6
 11 37  1  0
 11 38  1  0
 13 39  1  0
 14 40  1  0
 17 41  1  0
 17 42  1  0
 18 43  1  0
 19 44  1  0
 19 45  1  0
 20 46  1  0
 20 47  1  0
 21 48  1  0
 21 49  1  0
 22 50  1  0
 22 51  1  0
 23 52  1  0
 23 53  1  0
 24 54  1  0
 25 55  1  0
M  END
>  <meeko>  (4) 
{"is_sidechain": [false], "free_energy": -8.004, "intermolecular_energy": -10.461, "internal_energy": -0.749}

$$$$
ligand_8_conformer_4_docked
     RDKit          3D

 55 58  0  0  0  0  0  0  0  0999 V2000
    0.4420   43.8800   51.1330 O   0  0  0  0  0  0  0  0  0  0  0  0
    0.7170   44.8370   51.9080 C   0  0  0  0  0  0  0  0  0  0  0  0
   -0.2940   45.3560   52.7880 N   0  0  0  0  0  0  0  0  0  0  0  0
   -1.7180   45.0690   52.5910 C   0  0  1  0  0  0  0  0  0  0  0  0
   -2.1680   45.3650   51.1680 C   0  0  0  0  0  0  0  0  0  0  0  0
   -3.3830   44.4550   50.9410 C   0  0  1  0  0  0  0  0  0  0  0  0
   -3.3910   43.7770   49.5710 C   0  0  0  0  0  0  0  0  0  0  0  0
   -2.8520   42.4280   49.7420 N   0  0  0  0  0  0  0  0  0  0  0  0
   -3.1930   42.0420   51.1100 C   0  0  0  0  0  0  0  0  0  0  0  0
   -3.2720   43.3200   51.9490 C   0  0  1  0  0  0  0  0  0  0  0  0
   -2.0120   43.5900   52.7830 C   0  0  0  0  0  0  0  0  0  0  0  0
    2.0910   45.3900   51.9170 C   0  0  0  0  0  0  0  0  0  0  0  0
    3.1320   44.7520   51.2180 C   0  0  0  0  0  0  0  0  0  0  0  0
    4.4260   45.2780   51.2370 C   0  0  0  0  0  0  0  0  0  0  0  0
    4.7050   46.4540   51.9590 C   0  0  0  0  0  0  0  0  0  0  0  0
    5.9840   47.0260   52.0040 O   0  0  0  0  0  0  0  0  0  0  0  0
    7.1860   46.3430   51.6520 C   0  0  0  0  0  0  0  0  0  0  0  0
    8.3580   47.3420   51.5950 C   0  0  0  0  0  0  0  0  0  0  0  0
    8.2650   48.4310   52.6880 C   0  0  0  0  0  0  0  0  0  0  0  0
    8.6020   47.8930   54.0860 C   0  0  0  0  0  0  0  0  0  0  0  0
    9.9750   47.2140   54.1010 C   0  0  0  0  0  0  0  0  0  0  0  0
   10.0520   46.0950   53.0570 C   0  0  0  0  0  0  0  0  0  0  0  0
    9.7250   46.6240   51.6530 C   0  0  0  0  0  0  0  0  0  0  0  0
    3.6720   47.0830   52.6630 C   0  0  0  0  0  0  0  0  0  0  0  0
    2.3780   46.5540   52.6500 C   0  0  0  0  0  0  0  0  0  0  0  0
   -0.0220   46.0550   53.5150 H   0  0  0  0  0  0  0  0  0  0  0  0
   -2.2414   45.7014   53.3232 H   0  0  0  0  0  0  0  0  0  0  0  0
   -2.4517   46.4227   51.0639 H   0  0  0  0  0  0  0  0  0  0  0  0
   -1.3695   45.1806   50.4342 H   0  0  0  0  0  0  0  0  0  0  0  0
   -4.2836   45.0801   51.0312 H   0  0  0  0  0  0  0  0  0  0  0  0
   -4.4196   43.7238   49.1848 H   0  0  0  0  0  0  0  0  0  0  0  0
   -2.7829   44.3479   48.8539 H   0  0  0  0  0  0  0  0  0  0  0  0
   -1.8080   42.4930   49.6790 H   0  0  0  0  0  0  0  0  0  0  0  0
   -4.1640   41.5253   51.1223 H   0  0  0  0  0  0  0  0  0  0  0  0
   -2.4328   41.3598   51.5183 H   0  0  0  0  0  0  0  0  0  0  0  0
   -4.1138   43.2286   52.6512 H   0  0  0  0  0  0  0  0  0  0  0  0
   -2.1967   43.3678   53.8444 H   0  0  0  0  0  0  0  0  0  0  0  0
   -1.1677   42.9584   52.4696 H   0  0  0  0  0  0  0  0  0  0  0  0
    2.9254   43.8317   50.6520 H   0  0  0  0  0  0  0  0  0  0  0  0
    5.2310   44.7708   50.6850 H   0  0  0  0  0  0  0  0  0  0  0  0
    7.4010   45.5708   52.4053 H   0  0  0  0  0  0  0  0  0  0  0  0
    7.0609   45.8740   50.6649 H   0  0  0  0  0  0  0  0  0  0  0  0
    8.2784   47.8501   50.6226 H   0  0  0  0  0  0  0  0  0  0  0  0
    8.9699   49.2387   52.4417 H   0  0  0  0  0  0  0  0  0  0  0  0
    7.2264   48.7928   52.7111 H   0  0  0  0  0  0  0  0  0  0  0  0
    8.6072   48.7291   54.8008 H   0  0  0  0  0  0  0  0  0  0  0  0
    7.8418   47.1488   54.3659 H   0  0  0  0  0  0  0  0  0  0  0  0
   10.7486   47.9642   53.8804 H   0  0  0  0  0  0  0  0  0  0  0  0
   10.1344   46.7731   55.0961 H   0  0  0  0  0  0  0  0  0  0  0  0
   11.0688   45.6753   53.0548 H   0  0  0  0  0  0  0  0  0  0  0  0
    9.3147   45.3219   53.3191 H   0  0  0  0  0  0  0  0  0  0  0  0
   10.5094   47.3339   51.3519 H   0  0  0  0  0  0  0  0  0  0  0  0
    9.6783   45.7607   50.9729 H   0  0  0  0  0  0  0  0  0  0  0  0
    3.8799   48.0015   53.2314 H   0  0  0  0  0  0  0  0  0  0  0  0
    1.5786   47.0526   53.2178 H   0  0  0  0  0  0  0  0  0  0  0  0
  1  2  2  0
  2  3  1  0
  3  4  1  0
  4  5  1  0
  5  6  1  0
  6  7  1  0
  7  8  1  0
  8  9  1  0
  9 10  1  0
 10 11  1  0
  2 12  1  0
 12 13  2  0
 13 14  1  0
 14 15  2  0
 15 16  1  0
 16 17  1  0
 17 18  1  0
 18 19  1  0
 19 20  1  0
 20 21  1  0
 21 22  1  0
 22 23  1  0
 15 24  1  0
 24 25  2  0
 11  4  1  0
 25 12  1  0
 10  6  1  0
 23 18  1  0
  3 26  1  0
  4 27  1  1
  5 28  1  0
  5 29  1  0
  6 30  1  1
  7 31  1  0
  7 32  1  0
  8 33  1  0
  9 34  1  0
  9 35  1  0
 10 36  1  1
 11 37  1  0
 11 38  1  0
 13 39  1  0
 14 40  1  0
 17 41  1  0
 17 42  1  0
 18 43  1  0
 19 44  1  0
 19 45  1  0
 20 46  1  0
 20 47  1  0
 21 48  1  0
 21 49  1  0
 22 50  1  0
 22 51  1  0
 23 52  1  0
 23 53  1  0
 24 54  1  0
 25 55  1  0
M  END
>  <meeko>  (5) 
{"is_sidechain": [false], "free_energy": -7.628, "intermolecular_energy": -10.611, "internal_energy": -0.113}

$$$$
