ligand_30_conformer_1_docked
     RDKit          3D

 40 42  0  0  0  0  0  0  0  0999 V2000
   11.3430   47.6500   56.5640 C   0  0  0  0  0  0  0  0  0  0  0  0
   10.5000   46.9560   55.6530 O   0  0  0  0  0  0  0  0  0  0  0  0
    9.5060   47.5940   54.9060 C   0  0  0  0  0  0  0  0  0  0  0  0
    9.0110   48.6800   55.3200 O   0  0  0  0  0  0  0  0  0  0  0  0
    8.9980   46.9890   53.6470 C   0  0  0  0  0  0  0  0  0  0  0  0
    9.9030   46.7900   52.5870 C   0  0  0  0  0  0  0  0  0  0  0  0
    9.4780   46.2520   51.3720 C   0  0  0  0  0  0  0  0  0  0  0  0
    8.1360   45.9130   51.1810 C   0  0  0  0  0  0  0  0  0  0  0  0
    7.6890   45.2880   49.8880 C   0  0  0  0  0  0  0  0  0  0  0  0
    6.5990   44.3540   50.1450 N   0  0  0  0  0  0  0  0  0  0  0  0
    5.3850   44.6580   50.6330 C   0  0  0  0  0  0  0  0  0  0  0  0
    4.7450   43.4540   50.8280 C   0  0  0  0  0  0  0  0  0  0  0  0
    3.4110   43.2520   51.4700 C   0  0  0  0  0  0  0  0  0  0  0  0
    3.0210   44.4610   52.1860 N   0  0  0  0  0  0  0  0  0  0  0  0
    3.3260   44.7570   53.4630 C   0  0  0  0  0  0  0  0  0  0  0  0
    2.7060   45.9420   53.7920 C   0  0  0  0  0  0  0  0  0  0  0  0
    2.0210   46.3110   52.6500 C   0  0  0  0  0  0  0  0  0  0  0  0
    2.2200   45.3890   51.6870 N   0  0  0  0  0  0  0  0  0  0  0  0
    5.5890   42.4590   50.4860 N   0  0  0  0  0  0  0  0  0  0  0  0
    6.7090   43.0370   50.0740 N   0  0  0  0  0  0  0  0  0  0  0  0
    7.2280   46.0790   52.2340 C   0  0  0  0  0  0  0  0  0  0  0  0
    7.6420   46.6010   53.4720 C   0  0  0  0  0  0  0  0  0  0  0  0
    6.6240   46.7150   54.5770 C   0  0  0  0  0  0  0  0  0  0  0  0
   11.0474   47.4067   57.5952 H   0  0  0  0  0  0  0  0  0  0  0  0
   12.3877   47.3467   56.4007 H   0  0  0  0  0  0  0  0  0  0  0  0
   11.2460   48.7335   56.4007 H   0  0  0  0  0  0  0  0  0  0  0  0
   10.9605   47.0627   52.7187 H   0  0  0  0  0  0  0  0  0  0  0  0
   10.2032   46.0939   50.5601 H   0  0  0  0  0  0  0  0  0  0  0  0
    7.3422   46.0749   49.2021 H   0  0  0  0  0  0  0  0  0  0  0  0
    8.5325   44.7476   49.4337 H   0  0  0  0  0  0  0  0  0  0  0  0
    4.9843   45.6622   50.8353 H   0  0  0  0  0  0  0  0  0  0  0  0
    2.6627   43.0286   50.6954 H   0  0  0  0  0  0  0  0  0  0  0  0
    3.4716   42.4129   52.1787 H   0  0  0  0  0  0  0  0  0  0  0  0
    3.9615   44.1556   54.1297 H   0  0  0  0  0  0  0  0  0  0  0  0
    2.7471   46.4769   54.7523 H   0  0  0  0  0  0  0  0  0  0  0  0
    1.4076   47.2178   52.5432 H   0  0  0  0  0  0  0  0  0  0  0  0
    6.1746   45.7966   52.0903 H   0  0  0  0  0  0  0  0  0  0  0  0
    7.1321   46.6581   55.5510 H   0  0  0  0  0  0  0  0  0  0  0  0
    6.0983   47.6776   54.4934 H   0  0  0  0  0  0  0  0  0  0  0  0
    5.8984   45.8925   54.4934 H   0  0  0  0  0  0  0  0  0  0  0  0
  1  2  1  0
  2  3  1  0
  3  4  2  0
  3  5  1  0
  5  6  2  0
  6  7  1  0
  7  8  2  0
  8  9  1  0
  9 10  1  0
 10 11  1  0
 11 12  2  0
 12 13  1  0
 13 14  1  0
 14 15  1  0
 15 16  2  0
 16 17  1  0
 17 18  2  0
 12 19  1  0
 19 20  2  0
  8 21  1  0
 21 22  2  0
 22 23  1  0
 22  5  1  0
 20 10  1  0
 18 14  1  0
  1 24  1  0
  1 25  1  0
  1 26  1  0
  6 27  1  0
  7 28  1  0
  9 29  1  0
  9 30  1  0
 11 31  1  0
 13 32  1  0
 13 33  1  0
 15 34  1  0
 16 35  1  0
 17 36  1  0
 21 37  1  0
 23 38  1  0
 23 39  1  0
 23 40  1  0
M  END
>  <meeko>  (1) 
{"is_sidechain": [false], "free_energy": -8.439, "intermolecular_energy": -11.399, "internal_energy": 0.191}

$$$$
ligand_30_conformer_1_docked
     RDKit          3D

 40 42  0  0  0  0  0  0  0  0999 V2000
    9.9780   47.2700   54.5230 C   0  0  0  0  0  0  0  0  0  0  0  0
    9.6960   47.4100   53.1360 O   0  0  0  0  0  0  0  0  0  0  0  0
    8.4100   47.6630   52.6480 C   0  0  0  0  0  0  0  0  0  0  0  0
    7.9920   48.8520   52.5700 O   0  0  0  0  0  0  0  0  0  0  0  0
    7.5150   46.5430   52.2540 C   0  0  0  0  0  0  0  0  0  0  0  0
    7.5880   46.0610   50.9330 C   0  0  0  0  0  0  0  0  0  0  0  0
    6.7530   45.0310   50.4990 C   0  0  0  0  0  0  0  0  0  0  0  0
    5.8150   44.4670   51.3680 C   0  0  0  0  0  0  0  0  0  0  0  0
    4.9510   43.3240   50.9140 C   0  0  0  0  0  0  0  0  0  0  0  0
    3.6450   43.4080   51.5590 N   0  0  0  0  0  0  0  0  0  0  0  0
    2.8140   44.4630   51.5460 C   0  0  0  0  0  0  0  0  0  0  0  0
    1.7750   44.1340   52.3870 C   0  0  0  0  0  0  0  0  0  0  0  0
    0.6530   45.0280   52.8040 C   0  0  0  0  0  0  0  0  0  0  0  0
    0.5560   45.0520   54.2590 N   0  0  0  0  0  0  0  0  0  0  0  0
   -0.5410   44.7590   54.9830 C   0  0  0  0  0  0  0  0  0  0  0  0
   -0.2530   44.9800   56.3110 C   0  0  0  0  0  0  0  0  0  0  0  0
    1.0570   45.4230   56.3190 C   0  0  0  0  0  0  0  0  0  0  0  0
    1.5260   45.4680   55.0570 N   0  0  0  0  0  0  0  0  0  0  0  0
    2.0130   42.9130   52.9070 N   0  0  0  0  0  0  0  0  0  0  0  0
    3.1590   42.4950   52.3840 N   0  0  0  0  0  0  0  0  0  0  0  0
    5.7480   44.9170   52.6930 C   0  0  0  0  0  0  0  0  0  0  0  0
    6.5950   45.9400   53.1540 C   0  0  0  0  0  0  0  0  0  0  0  0
    6.5020   46.3490   54.6020 C   0  0  0  0  0  0  0  0  0  0  0  0
    9.1448   47.6836   55.1101 H   0  0  0  0  0  0  0  0  0  0  0  0
   10.1043   46.2046   54.7658 H   0  0  0  0  0  0  0  0  0  0  0  0
   10.9030   47.8135   54.7658 H   0  0  0  0  0  0  0  0  0  0  0  0
    8.3132   46.5026   50.2337 H   0  0  0  0  0  0  0  0  0  0  0  0
    6.8335   44.6605   49.4664 H   0  0  0  0  0  0  0  0  0  0  0  0
    4.8235   43.3731   49.8225 H   0  0  0  0  0  0  0  0  0  0  0  0
    5.4317   42.3731   51.1875 H   0  0  0  0  0  0  0  0  0  0  0  0
    2.9381   45.3978   50.9797 H   0  0  0  0  0  0  0  0  0  0  0  0
    0.8405   46.0466   52.4335 H   0  0  0  0  0  0  0  0  0  0  0  0
   -0.2898   44.6486   52.3830 H   0  0  0  0  0  0  0  0  0  0  0  0
   -1.5020   44.4041   54.5822 H   0  0  0  0  0  0  0  0  0  0  0  0
   -0.9182   44.8360   57.1751 H   0  0  0  0  0  0  0  0  0  0  0  0
    1.6285   45.6967   57.2182 H   0  0  0  0  0  0  0  0  0  0  0  0
    5.0216   44.4630   53.3832 H   0  0  0  0  0  0  0  0  0  0  0  0
    6.7002   45.4771   55.2427 H   0  0  0  0  0  0  0  0  0  0  0  0
    7.2447   47.1333   54.8099 H   0  0  0  0  0  0  0  0  0  0  0  0
    5.4932   46.7350   54.8099 H   0  0  0  0  0  0  0  0  0  0  0  0
  1  2  1  0
  2  3  1  0
  3  4  2  0
  3  5  1  0
  5  6  2  0
  6  7  1  0
  7  8  2  0
  8  9  1  0
  9 10  1  0
 10 11  1  0
 11 12  2  0
 12 13  1  0
 13 14  1  0
 14 15  1  0
 15 16  2  0
 16 17  1  0
 17 18  2  0
 12 19  1  0
 19 20  2  0
  8 21  1  0
 21 22  2  0
 22 23  1  0
 22  5  1  0
 20 10  1  0
 18 14  1  0
  1 24  1  0
  1 25  1  0
  1 26  1  0
  6 27  1  0
  7 28  1  0
  9 29  1  0
  9 30  1  0
 11 31  1  0
 13 32  1  0
 13 33  1  0
 15 34  1  0
 16 35  1  0
 17 36  1  0
 21 37  1  0
 23 38  1  0
 23 39  1  0
 23 40  1  0
M  END
>  <meeko>  (2) 
{"is_sidechain": [false], "free_energy": -8.427, "intermolecular_energy": -10.764, "internal_energy": -0.428}

$$$$
ligand_30_conformer_1_docked
     RDKit          3D

 40 42  0  0  0  0  0  0  0  0999 V2000
   11.1130   47.4800   56.3070 C   0  0  0  0  0  0  0  0  0  0  0  0
   10.2820   46.9540   55.2800 O   0  0  0  0  0  0  0  0  0  0  0  0
    9.1410   47.6170   54.8160 C   0  0  0  0  0  0  0  0  0  0  0  0
    8.7990   48.7140   55.3390 O   0  0  0  0  0  0  0  0  0  0  0  0
    8.3050   47.0240   53.7400 C   0  0  0  0  0  0  0  0  0  0  0  0
    6.9240   46.8770   53.9690 C   0  0  0  0  0  0  0  0  0  0  0  0
    6.0950   46.3010   53.0060 C   0  0  0  0  0  0  0  0  0  0  0  0
    6.6270   45.8450   51.7970 C   0  0  0  0  0  0  0  0  0  0  0  0
    5.7250   45.2690   50.7410 C   0  0  0  0  0  0  0  0  0  0  0  0
    4.3710   45.1380   51.2680 N   0  0  0  0  0  0  0  0  0  0  0  0
    3.9050   44.1360   52.0320 C   0  0  0  0  0  0  0  0  0  0  0  0
    2.5550   44.3680   52.1750 C   0  0  0  0  0  0  0  0  0  0  0  0
    1.5660   43.4670   52.8390 C   0  0  0  0  0  0  0  0  0  0  0  0
    1.1440   44.0500   54.1080 N   0  0  0  0  0  0  0  0  0  0  0  0
   -0.1270   44.1900   54.5290 C   0  0  0  0  0  0  0  0  0  0  0  0
   -0.1120   44.8580   55.7340 C   0  0  0  0  0  0  0  0  0  0  0  0
    1.2250   45.1050   55.9830 C   0  0  0  0  0  0  0  0  0  0  0  0
    1.9710   44.6120   54.9740 N   0  0  0  0  0  0  0  0  0  0  0  0
    2.2340   45.4760   51.4770 N   0  0  0  0  0  0  0  0  0  0  0  0
    3.3590   45.9230   50.9360 N   0  0  0  0  0  0  0  0  0  0  0  0
    7.9950   46.0080   51.5420 C   0  0  0  0  0  0  0  0  0  0  0  0
    8.8420   46.6040   52.4930 C   0  0  0  0  0  0  0  0  0  0  0  0
   10.2960   46.7890   52.1390 C   0  0  0  0  0  0  0  0  0  0  0  0
   10.6944   47.2150   57.2891 H   0  0  0  0  0  0  0  0  0  0  0  0
   12.1241   47.0570   56.2132 H   0  0  0  0  0  0  0  0  0  0  0  0
   11.1634   48.5748   56.2132 H   0  0  0  0  0  0  0  0  0  0  0  0
    6.4924   47.2211   54.9205 H   0  0  0  0  0  0  0  0  0  0  0  0
    5.0164   46.2053   53.1995 H   0  0  0  0  0  0  0  0  0  0  0  0
    5.7139   45.9359   49.8663 H   0  0  0  0  0  0  0  0  0  0  0  0
    6.0979   44.2774   50.4451 H   0  0  0  0  0  0  0  0  0  0  0  0
    4.4829   43.3017   52.4562 H   0  0  0  0  0  0  0  0  0  0  0  0
    0.6902   43.3406   52.1855 H   0  0  0  0  0  0  0  0  0  0  0  0
    2.0325   42.4883   53.0250 H   0  0  0  0  0  0  0  0  0  0  0  0
   -1.0236   43.8325   54.0015 H   0  0  0  0  0  0  0  0  0  0  0  0
   -0.9737   45.1338   56.3596 H   0  0  0  0  0  0  0  0  0  0  0  0
    1.6198   45.6242   56.8687 H   0  0  0  0  0  0  0  0  0  0  0  0
    8.4124   45.6647   50.5839 H   0  0  0  0  0  0  0  0  0  0  0  0
   10.8911   46.8647   53.0610 H   0  0  0  0  0  0  0  0  0  0  0  0
   10.6422   45.9277   51.5489 H   0  0  0  0  0  0  0  0  0  0  0  0
   10.4154   47.7096   51.5489 H   0  0  0  0  0  0  0  0  0  0  0  0
  1  2  1  0
  2  3  1  0
  3  4  2  0
  3  5  1  0
  5  6  2  0
  6  7  1  0
  7  8  2  0
  8  9  1  0
  9 10  1  0
 10 11  1  0
 11 12  2  0
 12 13  1  0
 13 14  1  0
 14 15  1  0
 15 16  2  0
 16 17  1  0
 17 18  2  0
 12 19  1  0
 19 20  2  0
  8 21  1  0
 21 22  2  0
 22 23  1  0
 22  5  1  0
 20 10  1  0
 18 14  1  0
  1 24  1  0
  1 25  1  0
  1 26  1  0
  6 27  1  0
  7 28  1  0
  9 29  1  0
  9 30  1  0
 11 31  1  0
 13 32  1  0
 13 33  1  0
 15 34  1  0
 16 35  1  0
 17 36  1  0
 21 37  1  0
 23 38  1  0
 23 39  1  0
 23 40  1  0
M  END
>  <meeko>  (3) 
{"is_sidechain": [false], "free_energy": -8.396, "intermolecular_energy": -10.997, "internal_energy": -0.152}

$$$$
ligand_30_conformer_1_docked
     RDKit          3D

 40 42  0  0  0  0  0  0  0  0999 V2000
    9.7010   47.0660   54.2000 C   0  0  0  0  0  0  0  0  0  0  0  0
    8.4930   46.5790   53.6300 O   0  0  0  0  0  0  0  0  0  0  0  0
    7.6530   47.3740   52.8440 C   0  0  0  0  0  0  0  0  0  0  0  0
    7.9730   48.5710   52.5990 O   0  0  0  0  0  0  0  0  0  0  0  0
    6.3670   46.8370   52.3270 C   0  0  0  0  0  0  0  0  0  0  0  0
    5.1720   47.2440   52.9520 C   0  0  0  0  0  0  0  0  0  0  0  0
    3.9380   46.7520   52.5280 C   0  0  0  0  0  0  0  0  0  0  0  0
    3.8670   45.8300   51.4800 C   0  0  0  0  0  0  0  0  0  0  0  0
    2.5330   45.3370   50.9920 C   0  0  0  0  0  0  0  0  0  0  0  0
    1.8500   44.6220   52.0640 N   0  0  0  0  0  0  0  0  0  0  0  0
    0.6950   44.9750   52.6510 C   0  0  0  0  0  0  0  0  0  0  0  0
    0.5100   44.0840   53.6850 C   0  0  0  0  0  0  0  0  0  0  0  0
   -0.5720   44.1320   54.7140 C   0  0  0  0  0  0  0  0  0  0  0  0
   -0.1530   44.9690   55.8320 N   0  0  0  0  0  0  0  0  0  0  0  0
   -0.9490   45.7760   56.5580 C   0  0  0  0  0  0  0  0  0  0  0  0
   -0.1650   46.4570   57.4620 C   0  0  0  0  0  0  0  0  0  0  0  0
    1.1210   46.0150   57.2170 C   0  0  0  0  0  0  0  0  0  0  0  0
    1.1060   45.1150   56.2140 N   0  0  0  0  0  0  0  0  0  0  0  0
    1.5610   43.2410   53.7180 N   0  0  0  0  0  0  0  0  0  0  0  0
    2.3610   43.5920   52.7190 N   0  0  0  0  0  0  0  0  0  0  0  0
    5.0440   45.4350   50.8300 C   0  0  0  0  0  0  0  0  0  0  0  0
    6.2950   45.9360   51.2310 C   0  0  0  0  0  0  0  0  0  0  0  0
    7.5180   45.5040   50.4630 C   0  0  0  0  0  0  0  0  0  0  0  0
    9.6269   47.0361   55.2971 H   0  0  0  0  0  0  0  0  0  0  0  0
   10.5412   46.4363   53.8720 H   0  0  0  0  0  0  0  0  0  0  0  0
    9.8695   48.1023   53.8720 H   0  0  0  0  0  0  0  0  0  0  0  0
    5.2128   47.9599   53.7862 H   0  0  0  0  0  0  0  0  0  0  0  0
    3.0152   47.0915   53.0212 H   0  0  0  0  0  0  0  0  0  0  0  0
    1.9200   46.1939   50.6758 H   0  0  0  0  0  0  0  0  0  0  0  0
    2.6855   44.6572   50.1407 H   0  0  0  0  0  0  0  0  0  0  0  0
    0.0326   45.8053   52.3648 H   0  0  0  0  0  0  0  0  0  0  0  0
   -1.4844   44.5518   54.2653 H   0  0  0  0  0  0  0  0  0  0  0  0
   -0.7729   43.1135   55.0778 H   0  0  0  0  0  0  0  0  0  0  0  0
   -2.0390   45.8745   56.4479 H   0  0  0  0  0  0  0  0  0  0  0  0
   -0.4906   47.1912   58.2136 H   0  0  0  0  0  0  0  0  0  0  0  0
    2.0195   46.3469   57.7578 H   0  0  0  0  0  0  0  0  0  0  0  0
    4.9883   44.7225   49.9938 H   0  0  0  0  0  0  0  0  0  0  0  0
    8.3137   45.2229   51.1686 H   0  0  0  0  0  0  0  0  0  0  0  0
    7.2672   44.6400   49.8300 H   0  0  0  0  0  0  0  0  0  0  0  0
    7.8655   46.3338   49.8300 H   0  0  0  0  0  0  0  0  0  0  0  0
  1  2  1  0
  2  3  1  0
  3  4  2  0
  3  5  1  0
  5  6  2  0
  6  7  1  0
  7  8  2  0
  8  9  1  0
  9 10  1  0
 10 11  1  0
 11 12  2  0
 12 13  1  0
 13 14  1  0
 14 15  1  0
 15 16  2  0
 16 17  1  0
 17 18  2  0
 12 19  1  0
 19 20  2  0
  8 21  1  0
 21 22  2  0
 22 23  1  0
 22  5  1  0
 20 10  1  0
 18 14  1  0
  1 24  1  0
  1 25  1  0
  1 26  1  0
  6 27  1  0
  7 28  1  0
  9 29  1  0
  9 30  1  0
 11 31  1  0
 13 32  1  0
 13 33  1  0
 15 34  1  0
 16 35  1  0
 17 36  1  0
 21 37  1  0
 23 38  1  0
 23 39  1  0
 23 40  1  0
M  END
>  <meeko>  (4) 
{"is_sidechain": [false], "free_energy": -7.869, "intermolecular_energy": -9.913, "internal_energy": -0.526}

$$$$
ligand_30_conformer_1_docked
     RDKit          3D

 40 42  0  0  0  0  0  0  0  0999 V2000
   10.1360   47.0090   54.0110 C   0  0  0  0  0  0  0  0  0  0  0  0
    9.6770   47.2330   52.6840 O   0  0  0  0  0  0  0  0  0  0  0  0
    8.3490   47.5590   52.3880 C   0  0  0  0  0  0  0  0  0  0  0  0
    7.9930   48.7700   52.3610 O   0  0  0  0  0  0  0  0  0  0  0  0
    7.3440   46.4910   52.1420 C   0  0  0  0  0  0  0  0  0  0  0  0
    7.2470   45.9500   50.8460 C   0  0  0  0  0  0  0  0  0  0  0  0
    6.3030   44.9660   50.5490 C   0  0  0  0  0  0  0  0  0  0  0  0
    5.4250   44.5090   51.5360 C   0  0  0  0  0  0  0  0  0  0  0  0
    4.4420   43.4130   51.2270 C   0  0  0  0  0  0  0  0  0  0  0  0
    3.1440   43.7400   51.8070 N   0  0  0  0  0  0  0  0  0  0  0  0
    2.5060   43.0580   52.7720 C   0  0  0  0  0  0  0  0  0  0  0  0
    1.2710   43.6540   52.9010 C   0  0  0  0  0  0  0  0  0  0  0  0
    0.1440   43.1840   53.7620 C   0  0  0  0  0  0  0  0  0  0  0  0
   -1.0810   43.1120   52.9750 N   0  0  0  0  0  0  0  0  0  0  0  0
   -1.3130   42.2730   51.9480 C   0  0  0  0  0  0  0  0  0  0  0  0
   -2.5470   42.5730   51.4150 C   0  0  0  0  0  0  0  0  0  0  0  0
   -3.0120   43.6300   52.1750 C   0  0  0  0  0  0  0  0  0  0  0  0
   -2.0980   43.9480   53.1130 N   0  0  0  0  0  0  0  0  0  0  0  0
    1.1800   44.6520   51.9990 N   0  0  0  0  0  0  0  0  0  0  0  0
    2.3350   44.6820   51.3480 N   0  0  0  0  0  0  0  0  0  0  0  0
    5.5270   45.0180   52.8370 C   0  0  0  0  0  0  0  0  0  0  0  0
    6.4850   45.9950   53.1590 C   0  0  0  0  0  0  0  0  0  0  0  0
    6.5700   46.4700   54.5870 C   0  0  0  0  0  0  0  0  0  0  0  0
    9.3845   47.3757   54.7257 H   0  0  0  0  0  0  0  0  0  0  0  0
   10.2954   45.9318   54.1669 H   0  0  0  0  0  0  0  0  0  0  0  0
   11.0832   47.5461   54.1669 H   0  0  0  0  0  0  0  0  0  0  0  0
    7.9245   46.3077   50.0567 H   0  0  0  0  0  0  0  0  0  0  0  0
    6.2496   44.5479   49.5330 H   0  0  0  0  0  0  0  0  0  0  0  0
    4.3399   43.3099   50.1366 H   0  0  0  0  0  0  0  0  0  0  0  0
    4.8046   42.4667   51.6548 H   0  0  0  0  0  0  0  0  0  0  0  0
    2.8907   42.1997   53.3423 H   0  0  0  0  0  0  0  0  0  0  0  0
    0.3807   42.1868   54.1614 H   0  0  0  0  0  0  0  0  0  0  0  0
    0.0015   43.8913   54.5924 H   0  0  0  0  0  0  0  0  0  0  0  0
   -0.6335   41.4833   51.5951 H   0  0  0  0  0  0  0  0  0  0  0  0
   -3.0514   42.0802   50.5707 H   0  0  0  0  0  0  0  0  0  0  0  0
   -3.9796   44.1342   52.0355 H   0  0  0  0  0  0  0  0  0  0  0  0
    4.8472   44.6476   53.6185 H   0  0  0  0  0  0  0  0  0  0  0  0
    6.4176   45.6184   55.2664 H   0  0  0  0  0  0  0  0  0  0  0  0
    7.5613   46.9109   54.7684 H   0  0  0  0  0  0  0  0  0  0  0  0
    5.7931   47.2273   54.7684 H   0  0  0  0  0  0  0  0  0  0  0  0
  1  2  1  0
  2  3  1  0
  3  4  2  0
  3  5  1  0
  5  6  2  0
  6  7  1  0
  7  8  2  0
  8  9  1  0
  9 10  1  0
 10 11  1  0
 11 12  2  0
 12 13  1  0
 13 14  1  0
 14 15  1  0
 15 16  2  0
 16 17  1  0
 17 18  2  0
 12 19  1  0
 19 20  2  0
  8 21  1  0
 21 22  2  0
 22 23  1  0
 22  5  1  0
 20 10  1  0
 18 14  1  0
  1 24  1  0
  1 25  1  0
  1 26  1  0
  6 27  1  0
  7 28  1  0
  9 29  1  0
  9 30  1  0
 11 31  1  0
 13 32  1  0
 13 33  1  0
 15 34  1  0
 16 35  1  0
 17 36  1  0
 21 37  1  0
 23 38  1  0
 23 39  1  0
 23 40  1  0
M  END
>  <meeko>  (5) 
{"is_sidechain": [false], "free_energy": -7.753, "intermolecular_energy": -9.701, "internal_energy": -0.581}

$$$$
