MODEL 1
REMARK VINA RESULT:    -8.514      0.000      0.000
REMARK INTER + INTRA:         -11.087
REMARK INTER:                 -10.505
REMARK INTRA:                  -0.582
REMARK UNBOUND:                -0.582
REMARK SMILES C[C@H]1CCCCN1CCC1CCN(c2ncnc3[nH]ncc23)CC1
REMARK SMILES IDX 9 1 8 2 7 3 2 4 3 5 4 6 6 7 5 8 1 9 10 10 11 11 24 12 12 13
REMARK SMILES IDX 23 14 13 15 14 16 15 17 22 18 16 19 21 20 18 21 17 22 20 23
REMARK SMILES IDX 19 24
REMARK H PARENT 19 25
ROOT
ATOM      1  C   UNL     1       6.179  46.530  52.914  1.00  0.00     0.019 C 
ENDROOT
BRANCH   1   2
ATOM      2  C   UNL     1       7.295  46.779  53.949  1.00  0.00     0.085 C 
BRANCH   2   3
ATOM      3  N   UNL     1       8.214  47.865  53.514  1.00  0.00    -0.301 NA
ATOM      4  C   UNL     1       9.651  47.615  53.794  1.00  0.00     0.053 C 
ATOM      5  C   UNL     1      10.204  46.414  52.986  1.00  0.00     0.019 C 
ATOM      6  C   UNL     1       9.463  46.214  51.654  1.00  0.00     0.003 C 
ATOM      7  C   UNL     1       8.013  48.272  52.099  1.00  0.00     0.085 C 
ATOM      8  C   UNL     1       8.938  47.539  51.097  1.00  0.00     0.016 C 
ATOM      9  C   UNL     1       9.939  47.481  55.295  1.00  0.00     0.024 C 
ENDBRANCH   2   3
ENDBRANCH   1   2
BRANCH   1  10
ATOM     10  C   UNL     1       4.888  45.841  53.425  1.00  0.00    -0.006 C 
ATOM     11  C   UNL     1       3.728  46.835  53.725  1.00  0.00     0.025 C 
ATOM     12  C   UNL     1       4.454  44.642  52.556  1.00  0.00     0.025 C 
ATOM     13  C   UNL     1       2.383  46.408  53.122  1.00  0.00     0.118 C 
ATOM     14  C   UNL     1       3.197  43.990  53.142  1.00  0.00     0.118 C 
ATOM     15  N   UNL     1       2.133  44.980  53.367  1.00  0.00    -0.356 N 
BRANCH  15  16
ATOM     16  C   UNL     1       0.849  44.518  53.825  1.00  0.00     0.143 A 
ATOM     17  N   UNL     1      -0.010  43.904  52.954  1.00  0.00    -0.219 NA
ATOM     18  C   UNL     1       0.405  44.694  55.137  1.00  0.00     0.081 A 
ATOM     19  C   UNL     1      -1.245  43.460  53.350  1.00  0.00     0.226 A 
ATOM     20  C   UNL     1       0.909  45.311  56.267  1.00  0.00     0.149 A 
ATOM     21  C   UNL     1      -0.823  44.246  55.504  1.00  0.00     0.160 A 
ATOM     22  N   UNL     1      -1.665  43.632  54.639  1.00  0.00    -0.217 NA
ATOM     23  N   UNL     1      -0.012  45.204  57.257  1.00  0.00    -0.181 NA
ATOM     24  N   UNL     1      -1.068  44.551  56.785  1.00  0.00    -0.261 N 
ATOM     25  H   UNL     1      -1.934  44.340  57.329  1.00  0.00     0.192 HD
ENDBRANCH  15  16
ENDBRANCH   1  10
TORSDOF 4
ENDMDL
MODEL 2
REMARK VINA RESULT:    -8.478      1.430      2.233
REMARK INTER + INTRA:         -11.042
REMARK INTER:                 -10.155
REMARK INTRA:                  -0.888
REMARK UNBOUND:                -0.582
REMARK SMILES C[C@H]1CCCCN1CCC1CCN(c2ncnc3[nH]ncc23)CC1
REMARK SMILES IDX 9 1 8 2 7 3 2 4 3 5 4 6 6 7 5 8 1 9 10 10 11 11 24 12 12 13
REMARK SMILES IDX 23 14 13 15 14 16 15 17 22 18 16 19 21 20 18 21 17 22 20 23
REMARK SMILES IDX 19 24
REMARK H PARENT 19 25
ROOT
ATOM      1  C   UNL     1       6.196  45.300  50.440  1.00  0.00     0.019 C 
ENDROOT
BRANCH   1   2
ATOM      2  C   UNL     1       7.202  45.472  51.596  1.00  0.00     0.085 C 
BRANCH   2   3
ATOM      3  N   UNL     1       7.525  46.905  51.834  1.00  0.00    -0.301 NA
ATOM      4  C   UNL     1       7.155  47.412  53.180  1.00  0.00     0.053 C 
ATOM      5  C   UNL     1       7.972  46.731  54.307  1.00  0.00     0.019 C 
ATOM      6  C   UNL     1       9.361  46.275  53.829  1.00  0.00     0.003 C 
ATOM      7  C   UNL     1       8.932  47.252  51.506  1.00  0.00     0.085 C 
ATOM      8  C   UNL     1       9.897  47.176  52.714  1.00  0.00     0.016 C 
ATOM      9  C   UNL     1       5.645  47.337  53.438  1.00  0.00     0.024 C 
ENDBRANCH   2   3
ENDBRANCH   1   2
BRANCH   1  10
ATOM     10  C   UNL     1       4.787  44.767  50.809  1.00  0.00    -0.006 C 
ATOM     11  C   UNL     1       4.782  43.829  52.051  1.00  0.00     0.025 C 
ATOM     12  C   UNL     1       3.717  45.876  50.877  1.00  0.00     0.025 C 
ATOM     13  C   UNL     1       3.696  44.178  53.078  1.00  0.00     0.118 C 
ATOM     14  C   UNL     1       2.349  45.271  51.208  1.00  0.00     0.118 C 
ATOM     15  N   UNL     1       2.410  44.427  52.410  1.00  0.00    -0.356 N 
BRANCH  15  16
ATOM     16  C   UNL     1       1.188  43.858  52.916  1.00  0.00     0.143 A 
ATOM     17  N   UNL     1       0.558  42.860  52.223  1.00  0.00    -0.219 NA
ATOM     18  C   UNL     1       0.576  44.301  54.090  1.00  0.00     0.081 A 
ATOM     19  C   UNL     1      -0.613  42.301  52.667  1.00  0.00     0.226 A 
ATOM     20  C   UNL     1       0.831  45.301  55.010  1.00  0.00     0.149 A 
ATOM     21  C   UNL     1      -0.583  43.731  54.508  1.00  0.00     0.160 A 
ATOM     22  N   UNL     1      -1.197  42.738  53.822  1.00  0.00    -0.217 NA
ATOM     23  N   UNL     1      -0.160  45.290  55.937  1.00  0.00    -0.181 NA
ATOM     24  N   UNL     1      -1.020  44.327  55.625  1.00  0.00    -0.261 N 
ATOM     25  H   UNL     1      -1.888  44.104  56.160  1.00  0.00     0.192 HD
ENDBRANCH  15  16
ENDBRANCH   1  10
TORSDOF 4
ENDMDL
MODEL 3
REMARK VINA RESULT:    -8.385      1.949      8.347
REMARK INTER + INTRA:         -10.928
REMARK INTER:                  -9.621
REMARK INTRA:                  -1.307
REMARK UNBOUND:                -0.582
REMARK SMILES C[C@H]1CCCCN1CCC1CCN(c2ncnc3[nH]ncc23)CC1
REMARK SMILES IDX 9 1 8 2 7 3 2 4 3 5 4 6 6 7 5 8 1 9 10 10 11 11 24 12 12 13
REMARK SMILES IDX 23 14 13 15 14 16 15 17 22 18 16 19 21 20 18 21 17 22 20 23
REMARK SMILES IDX 19 24
REMARK H PARENT 19 25
ROOT
ATOM      1  C   UNL     1       1.827  45.419  54.908  1.00  0.00     0.019 C 
ENDROOT
BRANCH   1   2
ATOM      2  C   UNL     1       1.002  45.418  53.605  1.00  0.00     0.085 C 
BRANCH   2   3
ATOM      3  N   UNL     1       0.612  44.039  53.204  1.00  0.00    -0.301 NA
ATOM      4  C   UNL     1       0.252  43.884  51.772  1.00  0.00     0.053 C 
ATOM      5  C   UNL     1       1.460  44.138  50.834  1.00  0.00     0.019 C 
ATOM      6  C   UNL     1       2.802  43.795  51.503  1.00  0.00     0.003 C 
ATOM      7  C   UNL     1       1.599  43.007  53.616  1.00  0.00     0.085 C 
ATOM      8  C   UNL     1       2.649  42.671  52.530  1.00  0.00     0.016 C 
ATOM      9  C   UNL     1      -0.967  44.730  51.381  1.00  0.00     0.024 C 
ENDBRANCH   2   3
ENDBRANCH   1   2
BRANCH   1  10
ATOM     10  C   UNL     1       3.256  46.016  54.834  1.00  0.00    -0.006 C 
ATOM     11  C   UNL     1       4.374  45.006  55.227  1.00  0.00     0.025 C 
ATOM     12  C   UNL     1       3.539  46.752  53.508  1.00  0.00     0.025 C 
ATOM     13  C   UNL     1       5.543  44.967  54.234  1.00  0.00     0.118 C 
ATOM     14  C   UNL     1       4.952  47.345  53.522  1.00  0.00     0.118 C 
ATOM     15  N   UNL     1       5.958  46.330  53.866  1.00  0.00    -0.356 N 
BRANCH  15  16
ATOM     16  C   UNL     1       7.349  46.698  53.830  1.00  0.00     0.143 A 
ATOM     17  N   UNL     1       7.897  47.410  54.862  1.00  0.00    -0.219 NA
ATOM     18  C   UNL     1       8.187  46.388  52.757  1.00  0.00     0.081 A 
ATOM     19  C   UNL     1       9.215  47.789  54.860  1.00  0.00     0.226 A 
ATOM     20  C   UNL     1       8.019  45.775  51.530  1.00  0.00     0.149 A 
ATOM     21  C   UNL     1       9.488  46.774  52.779  1.00  0.00     0.160 A 
ATOM     22  N   UNL     1      10.026  47.473  53.807  1.00  0.00    -0.217 NA
ATOM     23  N   UNL     1       9.207  45.805  50.873  1.00  0.00    -0.181 NA
ATOM     24  N   UNL     1      10.100  46.416  51.642  1.00  0.00    -0.261 N 
ATOM     25  H   UNL     1      11.095  46.592  51.380  1.00  0.00     0.192 HD
ENDBRANCH  15  16
ENDBRANCH   1  10
TORSDOF 4
ENDMDL
MODEL 4
REMARK VINA RESULT:    -8.182      1.808      8.183
REMARK INTER + INTRA:         -10.677
REMARK INTER:                 -10.028
REMARK INTRA:                  -0.650
REMARK UNBOUND:                -0.582
REMARK SMILES C[C@H]1CCCCN1CCC1CCN(c2ncnc3[nH]ncc23)CC1
REMARK SMILES IDX 9 1 8 2 7 3 2 4 3 5 4 6 6 7 5 8 1 9 10 10 11 11 24 12 12 13
REMARK SMILES IDX 23 14 13 15 14 16 15 17 22 18 16 19 21 20 18 21 17 22 20 23
REMARK SMILES IDX 19 24
REMARK H PARENT 19 25
ROOT
ATOM      1  C   UNL     1       1.631  44.896  51.387  1.00  0.00     0.019 C 
ENDROOT
BRANCH   1   2
ATOM      2  C   UNL     1       1.000  45.242  52.751  1.00  0.00     0.085 C 
BRANCH   2   3
ATOM      3  N   UNL     1       1.174  44.136  53.731  1.00  0.00    -0.301 NA
ATOM      4  C   UNL     1       1.432  44.576  55.127  1.00  0.00     0.053 C 
ATOM      5  C   UNL     1       0.223  45.328  55.737  1.00  0.00     0.019 C 
ATOM      6  C   UNL     1      -1.116  44.871  55.134  1.00  0.00     0.003 C 
ATOM      7  C   UNL     1       0.078  43.135  53.686  1.00  0.00     0.085 C 
ATOM      8  C   UNL     1      -1.064  43.406  54.695  1.00  0.00     0.016 C 
ATOM      9  C   UNL     1       2.734  45.378  55.255  1.00  0.00     0.024 C 
ENDBRANCH   2   3
ENDBRANCH   1   2
BRANCH   1  10
ATOM     10  C   UNL     1       3.162  45.099  51.249  1.00  0.00    -0.006 C 
ATOM     11  C   UNL     1       3.626  46.554  51.550  1.00  0.00     0.025 C 
ATOM     12  C   UNL     1       3.986  44.030  51.995  1.00  0.00     0.025 C 
ATOM     13  C   UNL     1       4.827  46.630  52.503  1.00  0.00     0.118 C 
ATOM     14  C   UNL     1       5.484  44.273  51.783  1.00  0.00     0.118 C 
ATOM     15  N   UNL     1       5.858  45.654  52.119  1.00  0.00    -0.356 N 
BRANCH  15  16
ATOM     16  C   UNL     1       7.248  46.024  52.068  1.00  0.00     0.143 A 
ATOM     17  N   UNL     1       8.008  45.685  50.982  1.00  0.00    -0.219 NA
ATOM     18  C   UNL     1       7.890  46.702  53.106  1.00  0.00     0.081 A 
ATOM     19  C   UNL     1       9.338  46.010  50.900  1.00  0.00     0.226 A 
ATOM     20  C   UNL     1       7.521  47.142  54.363  1.00  0.00     0.149 A 
ATOM     21  C   UNL     1       9.207  47.012  53.001  1.00  0.00     0.160 A 
ATOM     22  N   UNL     1       9.952  46.680  51.920  1.00  0.00    -0.217 NA
ATOM     23  N   UNL     1       8.607  47.700  54.955  1.00  0.00    -0.181 NA
ATOM     24  N   UNL     1       9.634  47.618  54.117  1.00  0.00    -0.261 N 
ATOM     25  H   UNL     1      10.601  47.957  54.320  1.00  0.00     0.192 HD
ENDBRANCH  15  16
ENDBRANCH   1  10
TORSDOF 4
ENDMDL
MODEL 5
REMARK VINA RESULT:    -8.117      1.271      2.586
REMARK INTER + INTRA:         -10.597
REMARK INTER:                 -10.313
REMARK INTRA:                  -0.285
REMARK UNBOUND:                -0.582
REMARK SMILES C[C@H]1CCCCN1CCC1CCN(c2ncnc3[nH]ncc23)CC1
REMARK SMILES IDX 9 1 8 2 7 3 2 4 3 5 4 6 6 7 5 8 1 9 10 10 11 11 24 12 12 13
REMARK SMILES IDX 23 14 13 15 14 16 15 17 22 18 16 19 21 20 18 21 17 22 20 23
REMARK SMILES IDX 19 24
REMARK H PARENT 19 25
ROOT
ATOM      1  C   UNL     1       6.016  46.983  54.674  1.00  0.00     0.019 C 
ENDROOT
BRANCH   1   2
ATOM      2  C   UNL     1       7.358  46.551  54.049  1.00  0.00     0.085 C 
BRANCH   2   3
ATOM      3  N   UNL     1       8.156  47.723  53.599  1.00  0.00    -0.301 NA
ATOM      4  C   UNL     1       9.624  47.583  53.775  1.00  0.00     0.053 C 
ATOM      5  C   UNL     1      10.216  46.460  52.886  1.00  0.00     0.019 C 
ATOM      6  C   UNL     1       9.405  46.246  51.598  1.00  0.00     0.003 C 
ATOM      7  C   UNL     1       7.828  48.160  52.217  1.00  0.00     0.085 C 
ATOM      8  C   UNL     1       8.738  47.541  51.129  1.00  0.00     0.016 C 
ATOM      9  C   UNL     1      10.022  47.422  55.248  1.00  0.00     0.024 C 
ENDBRANCH   2   3
ENDBRANCH   1   2
BRANCH   1  10
ATOM     10  C   UNL     1       4.745  46.233  54.198  1.00  0.00    -0.006 C 
ATOM     11  C   UNL     1       4.153  45.269  55.267  1.00  0.00     0.025 C 
ATOM     12  C   UNL     1       3.691  47.165  53.566  1.00  0.00     0.025 C 
ATOM     13  C   UNL     1       2.638  45.420  55.457  1.00  0.00     0.118 C 
ATOM     14  C   UNL     1       2.484  46.351  53.087  1.00  0.00     0.118 C 
ATOM     15  N   UNL     1       1.956  45.491  54.156  1.00  0.00    -0.356 N 
BRANCH  15  16
ATOM     16  C   UNL     1       0.761  44.731  53.901  1.00  0.00     0.143 A 
ATOM     17  N   UNL     1      -0.177  44.577  54.885  1.00  0.00    -0.219 NA
ATOM     18  C   UNL     1       0.512  44.098  52.682  1.00  0.00     0.081 A 
ATOM     19  C   UNL     1      -1.323  43.851  54.684  1.00  0.00     0.226 A 
ATOM     20  C   UNL     1       1.210  43.942  51.499  1.00  0.00     0.149 A 
ATOM     21  C   UNL     1      -0.630  43.385  52.508  1.00  0.00     0.160 A 
ATOM     22  N   UNL     1      -1.558  43.242  53.484  1.00  0.00    -0.217 NA
ATOM     23  N   UNL     1       0.472  43.164  50.667  1.00  0.00    -0.181 NA
ATOM     24  N   UNL     1      -0.652  42.828  51.290  1.00  0.00    -0.261 N 
ATOM     25  H   UNL     1      -1.399  42.219  50.888  1.00  0.00     0.192 HD
ENDBRANCH  15  16
ENDBRANCH   1  10
TORSDOF 4
ENDMDL
