ligand_96_conformer_1_docked
     RDKit          3D

 40 42  0  0  0  0  0  0  0  0999 V2000
    9.9880   47.1770   54.4840 C   0  0  0  0  0  0  0  0  0  0  0  0
    8.7960   47.0390   53.5270 C   0  0  0  0  0  0  0  0  0  0  0  0
    9.2260   47.2840   52.0640 C   0  0  0  0  0  0  0  0  0  0  0  0
    8.9490   46.1050   51.1750 C   0  0  0  0  0  0  0  0  0  0  0  0
    9.8740   45.2860   50.9270 O   0  0  0  0  0  0  0  0  0  0  0  0
    7.6320   45.8920   50.6480 N   0  0  0  0  0  0  0  0  0  0  0  0
    7.2400   44.6390   50.0070 C   0  0  0  0  0  0  0  0  0  0  0  0
    5.8730   44.2280   50.4790 C   0  0  0  0  0  0  0  0  0  0  0  0
    4.9590   45.2000   50.9070 C   0  0  0  0  0  0  0  0  0  0  0  0
    3.7060   44.8230   51.3980 C   0  0  0  0  0  0  0  0  0  0  0  0
    3.3440   43.4660   51.4780 C   0  0  0  0  0  0  0  0  0  0  0  0
    2.0470   43.0950   51.9920 N   0  0  0  0  0  0  0  0  0  0  0  0
    0.8740   43.0400   51.3320 C   0  0  0  0  0  0  0  0  0  0  0  0
   -0.1260   42.6430   52.1430 N   0  0  0  0  0  0  0  0  0  0  0  0
    0.5060   42.4630   53.3210 C   0  0  0  0  0  0  0  0  0  0  0  0
    1.8220   42.7310   53.2420 N   0  0  0  0  0  0  0  0  0  0  0  0
    4.2690   42.4950   51.0470 C   0  0  0  0  0  0  0  0  0  0  0  0
    5.5220   42.8730   50.5570 C   0  0  0  0  0  0  0  0  0  0  0  0
    7.8100   47.9840   53.8890 O   0  0  0  0  0  0  0  0  0  0  0  0
    6.7250   47.2480   54.3560 C   0  0  0  0  0  0  0  0  0  0  0  0
    6.9370   45.8440   53.8850 C   0  0  0  0  0  0  0  0  0  0  0  0
    8.2990   45.7210   53.6280 O   0  0  0  0  0  0  0  0  0  0  0  0
    9.6304   47.1356   55.5234 H   0  0  0  0  0  0  0  0  0  0  0  0
   10.6972   46.3550   54.3072 H   0  0  0  0  0  0  0  0  0  0  0  0
   10.4907   48.1393   54.3072 H   0  0  0  0  0  0  0  0  0  0  0  0
    8.6763   48.1543   51.6763 H   0  0  0  0  0  0  0  0  0  0  0  0
   10.3125   47.4558   52.0605 H   0  0  0  0  0  0  0  0  0  0  0  0
    6.9000   46.6230   50.7950 H   0  0  0  0  0  0  0  0  0  0  0  0
    7.2227   44.7774   48.9159 H   0  0  0  0  0  0  0  0  0  0  0  0
    7.9650   43.8550   50.2711 H   0  0  0  0  0  0  0  0  0  0  0  0
    5.2290   46.2651   50.8563 H   0  0  0  0  0  0  0  0  0  0  0  0
    2.9951   45.5959   51.7255 H   0  0  0  0  0  0  0  0  0  0  0  0
    0.7486   43.2874   50.2675 H   0  0  0  0  0  0  0  0  0  0  0  0
    0.0024   42.1343   54.2420 H   0  0  0  0  0  0  0  0  0  0  0  0
    4.0025   41.4289   51.0966 H   0  0  0  0  0  0  0  0  0  0  0  0
    6.2367   42.1031   50.2307 H   0  0  0  0  0  0  0  0  0  0  0  0
    6.6878   47.2797   55.4549 H   0  0  0  0  0  0  0  0  0  0  0  0
    5.7742   47.6561   53.9825 H   0  0  0  0  0  0  0  0  0  0  0  0
    6.6302   45.1303   54.6638 H   0  0  0  0  0  0  0  0  0  0  0  0
    6.3391   45.6284   52.9872 H   0  0  0  0  0  0  0  0  0  0  0  0
  1  2  1  0
  2  3  1  0
  3  4  1  0
  4  5  2  0
  4  6  1  0
  6  7  1  0
  7  8  1  0
  8  9  2  0
  9 10  1  0
 10 11  2  0
 11 12  1  0
 12 13  1  0
 13 14  2  0
 14 15  1  0
 15 16  2  0
 11 17  1  0
 17 18  2  0
  2 19  1  0
 19 20  1  0
 20 21  1  0
 21 22  1  0
 22  2  1  0
 18  8  1  0
 16 12  1  0
  1 23  1  0
  1 24  1  0
  1 25  1  0
  3 26  1  0
  3 27  1  0
  6 28  1  0
  7 29  1  0
  7 30  1  0
  9 31  1  0
 10 32  1  0
 13 33  1  0
 15 34  1  0
 17 35  1  0
 18 36  1  0
 20 37  1  0
 20 38  1  0
 21 39  1  0
 21 40  1  0
M  END
>  <meeko>  (1) 
{"is_sidechain": [false], "free_energy": -7.696, "intermolecular_energy": -9.945, "internal_energy": -0.657}

$$$$
ligand_96_conformer_1_docked
     RDKit          3D

 40 42  0  0  0  0  0  0  0  0999 V2000
    0.2050   42.2180   53.7700 C   0  0  0  0  0  0  0  0  0  0  0  0
    0.2360   43.7510   53.8490 C   0  0  0  0  0  0  0  0  0  0  0  0
   -0.0950   44.3850   52.4800 C   0  0  0  0  0  0  0  0  0  0  0  0
    1.1150   44.5290   51.6030 C   0  0  0  0  0  0  0  0  0  0  0  0
    1.2920   43.7200   50.6530 O   0  0  0  0  0  0  0  0  0  0  0  0
    2.0410   45.6040   51.8190 N   0  0  0  0  0  0  0  0  0  0  0  0
    3.0760   45.9510   50.8500 C   0  0  0  0  0  0  0  0  0  0  0  0
    4.3830   46.1800   51.5580 C   0  0  0  0  0  0  0  0  0  0  0  0
    4.4170   46.9360   52.7370 C   0  0  0  0  0  0  0  0  0  0  0  0
    5.6340   47.1990   53.3720 C   0  0  0  0  0  0  0  0  0  0  0  0
    6.8430   46.7200   52.8360 C   0  0  0  0  0  0  0  0  0  0  0  0
    8.0910   47.0060   53.5020 N   0  0  0  0  0  0  0  0  0  0  0  0
    9.3430   46.7680   53.0650 C   0  0  0  0  0  0  0  0  0  0  0  0
   10.2610   47.1790   53.9610 N   0  0  0  0  0  0  0  0  0  0  0  0
    9.4970   47.6750   54.9560 C   0  0  0  0  0  0  0  0  0  0  0  0
    8.1820   47.5780   54.6900 N   0  0  0  0  0  0  0  0  0  0  0  0
    6.8010   45.9620   51.6490 C   0  0  0  0  0  0  0  0  0  0  0  0
    5.5830   45.6990   51.0150 C   0  0  0  0  0  0  0  0  0  0  0  0
    1.5270   44.1590   54.2540 O   0  0  0  0  0  0  0  0  0  0  0  0
    1.3740   44.7160   55.5210 C   0  0  0  0  0  0  0  0  0  0  0  0
   -0.0870   44.9930   55.6840 C   0  0  0  0  0  0  0  0  0  0  0  0
   -0.7430   44.1650   54.7790 O   0  0  0  0  0  0  0  0  0  0  0  0
    0.1965   41.7985   54.7869 H   0  0  0  0  0  0  0  0  0  0  0  0
   -0.6998   41.8967   53.2333 H   0  0  0  0  0  0  0  0  0  0  0  0
    1.0961   41.8604   53.2333 H   0  0  0  0  0  0  0  0  0  0  0  0
   -0.8295   43.7483   51.9652 H   0  0  0  0  0  0  0  0  0  0  0  0
   -0.4928   45.3933   52.6672 H   0  0  0  0  0  0  0  0  0  0  0  0
    1.9250   46.2140   52.6590 H   0  0  0  0  0  0  0  0  0  0  0  0
    3.1910   45.1285   50.1287 H   0  0  0  0  0  0  0  0  0  0  0  0
    2.7841   46.8705   50.3215 H   0  0  0  0  0  0  0  0  0  0  0  0
    3.4812   47.3246   53.1651 H   0  0  0  0  0  0  0  0  0  0  0  0
    5.6465   47.7872   54.3014 H   0  0  0  0  0  0  0  0  0  0  0  0
    9.5846   46.2982   52.1001 H   0  0  0  0  0  0  0  0  0  0  0  0
    9.9037   48.1099   55.8809 H   0  0  0  0  0  0  0  0  0  0  0  0
    7.7351   45.5736   51.2172 H   0  0  0  0  0  0  0  0  0  0  0  0
    5.5660   45.1116   50.0852 H   0  0  0  0  0  0  0  0  0  0  0  0
    1.7160   44.0094   56.2916 H   0  0  0  0  0  0  0  0  0  0  0  0
    1.9696   45.6345   55.6286 H   0  0  0  0  0  0  0  0  0  0  0  0
   -0.4062   44.7634   56.7113 H   0  0  0  0  0  0  0  0  0  0  0  0
   -0.3171   46.0523   55.4972 H   0  0  0  0  0  0  0  0  0  0  0  0
  1  2  1  0
  2  3  1  0
  3  4  1  0
  4  5  2  0
  4  6  1  0
  6  7  1  0
  7  8  1  0
  8  9  2  0
  9 10  1  0
 10 11  2  0
 11 12  1  0
 12 13  1  0
 13 14  2  0
 14 15  1  0
 15 16  2  0
 11 17  1  0
 17 18  2  0
  2 19  1  0
 19 20  1  0
 20 21  1  0
 21 22  1  0
 22  2  1  0
 18  8  1  0
 16 12  1  0
  1 23  1  0
  1 24  1  0
  1 25  1  0
  3 26  1  0
  3 27  1  0
  6 28  1  0
  7 29  1  0
  7 30  1  0
  9 31  1  0
 10 32  1  0
 13 33  1  0
 15 34  1  0
 17 35  1  0
 18 36  1  0
 20 37  1  0
 20 38  1  0
 21 39  1  0
 21 40  1  0
M  END
>  <meeko>  (2) 
{"is_sidechain": [false], "free_energy": -7.622, "intermolecular_energy": -9.683, "internal_energy": -0.824}

$$$$
ligand_96_conformer_1_docked
     RDKit          3D

 40 42  0  0  0  0  0  0  0  0999 V2000
    9.6660   47.7990   54.9550 C   0  0  0  0  0  0  0  0  0  0  0  0
    8.8610   47.1330   53.8310 C   0  0  0  0  0  0  0  0  0  0  0  0
    7.4490   46.7370   54.3170 C   0  0  0  0  0  0  0  0  0  0  0  0
    6.4470   46.6860   53.1990 C   0  0  0  0  0  0  0  0  0  0  0  0
    5.5800   47.5960   53.1020 O   0  0  0  0  0  0  0  0  0  0  0  0
    6.5030   45.6340   52.2260 N   0  0  0  0  0  0  0  0  0  0  0  0
    5.7370   45.6760   50.9830 C   0  0  0  0  0  0  0  0  0  0  0  0
    4.4090   44.9980   51.1780 C   0  0  0  0  0  0  0  0  0  0  0  0
    3.2220   45.7320   51.0470 C   0  0  0  0  0  0  0  0  0  0  0  0
    1.9870   45.1230   51.2790 C   0  0  0  0  0  0  0  0  0  0  0  0
    1.9120   43.7690   51.6530 C   0  0  0  0  0  0  0  0  0  0  0  0
    0.6260   43.1580   51.8930 N   0  0  0  0  0  0  0  0  0  0  0  0
    0.2630   42.3520   52.9110 C   0  0  0  0  0  0  0  0  0  0  0  0
   -1.0270   41.9790   52.8040 N   0  0  0  0  0  0  0  0  0  0  0  0
   -1.4190   42.6020   51.6720 C   0  0  0  0  0  0  0  0  0  0  0  0
   -0.4280   43.3200   51.1130 N   0  0  0  0  0  0  0  0  0  0  0  0
    3.1090   43.0380   51.7840 C   0  0  0  0  0  0  0  0  0  0  0  0
    4.3440   43.6480   51.5520 C   0  0  0  0  0  0  0  0  0  0  0  0
    9.5490   45.9750   53.4020 O   0  0  0  0  0  0  0  0  0  0  0  0
    9.9700   46.2380   52.1020 C   0  0  0  0  0  0  0  0  0  0  0  0
    9.1700   47.4110   51.6310 C   0  0  0  0  0  0  0  0  0  0  0  0
    8.7230   48.0620   52.7760 O   0  0  0  0  0  0  0  0  0  0  0  0
    9.2731   47.4739   55.9296 H   0  0  0  0  0  0  0  0  0  0  0  0
   10.7235   47.5082   54.8705 H   0  0  0  0  0  0  0  0  0  0  0  0
    9.5785   48.8923   54.8705 H   0  0  0  0  0  0  0  0  0  0  0  0
    7.5037   45.7439   54.7868 H   0  0  0  0  0  0  0  0  0  0  0  0
    7.1143   47.5049   55.0299 H   0  0  0  0  0  0  0  0  0  0  0  0
    7.1730   44.8450   52.3680 H   0  0  0  0  0  0  0  0  0  0  0  0
    5.5724   46.7237   50.6910 H   0  0  0  0  0  0  0  0  0  0  0  0
    6.2980   45.1542   50.1937 H   0  0  0  0  0  0  0  0  0  0  0  0
    3.2636   46.7931   50.7600 H   0  0  0  0  0  0  0  0  0  0  0  0
    1.0625   45.7086   51.1681 H   0  0  0  0  0  0  0  0  0  0  0  0
    0.9341   42.0391   53.7245 H   0  0  0  0  0  0  0  0  0  0  0  0
   -2.4340   42.5306   51.2540 H   0  0  0  0  0  0  0  0  0  0  0  0
    3.0708   41.9770   52.0717 H   0  0  0  0  0  0  0  0  0  0  0  0
    5.2708   43.0661   51.6633 H   0  0  0  0  0  0  0  0  0  0  0  0
   11.0431   46.4795   52.0907 H   0  0  0  0  0  0  0  0  0  0  0  0
    9.8219   45.3650   51.4494 H   0  0  0  0  0  0  0  0  0  0  0  0
    9.7988   48.0847   51.0304 H   0  0  0  0  0  0  0  0  0  0  0  0
    8.3291   47.0935   50.9968 H   0  0  0  0  0  0  0  0  0  0  0  0
  1  2  1  0
  2  3  1  0
  3  4  1  0
  4  5  2  0
  4  6  1  0
  6  7  1  0
  7  8  1  0
  8  9  2  0
  9 10  1  0
 10 11  2  0
 11 12  1  0
 12 13  1  0
 13 14  2  0
 14 15  1  0
 15 16  2  0
 11 17  1  0
 17 18  2  0
  2 19  1  0
 19 20  1  0
 20 21  1  0
 21 22  1  0
 22  2  1  0
 18  8  1  0
 16 12  1  0
  1 23  1  0
  1 24  1  0
  1 25  1  0
  3 26  1  0
  3 27  1  0
  6 28  1  0
  7 29  1  0
  7 30  1  0
  9 31  1  0
 10 32  1  0
 13 33  1  0
 15 34  1  0
 17 35  1  0
 18 36  1  0
 20 37  1  0
 20 38  1  0
 21 39  1  0
 21 40  1  0
M  END
>  <meeko>  (3) 
{"is_sidechain": [false], "free_energy": -7.603, "intermolecular_energy": -9.987, "internal_energy": -0.496}

$$$$
ligand_96_conformer_1_docked
     RDKit          3D

 40 42  0  0  0  0  0  0  0  0999 V2000
   -1.0670   44.9140   52.6640 C   0  0  0  0  0  0  0  0  0  0  0  0
    0.0370   44.2790   53.5200 C   0  0  0  0  0  0  0  0  0  0  0  0
    0.4720   42.9130   52.9450 C   0  0  0  0  0  0  0  0  0  0  0  0
    1.5060   43.0440   51.8640 C   0  0  0  0  0  0  0  0  0  0  0  0
    1.1450   43.0320   50.6560 O   0  0  0  0  0  0  0  0  0  0  0  0
    2.8880   43.2230   52.2040 N   0  0  0  0  0  0  0  0  0  0  0  0
    3.8910   43.6180   51.2190 C   0  0  0  0  0  0  0  0  0  0  0  0
    4.9730   44.4240   51.8840 C   0  0  0  0  0  0  0  0  0  0  0  0
    5.9810   45.0150   51.1110 C   0  0  0  0  0  0  0  0  0  0  0  0
    7.0200   45.7190   51.7250 C   0  0  0  0  0  0  0  0  0  0  0  0
    7.0760   45.8410   53.1250 C   0  0  0  0  0  0  0  0  0  0  0  0
    8.1590   46.5690   53.7420 N   0  0  0  0  0  0  0  0  0  0  0  0
    9.4820   46.4420   53.5190 C   0  0  0  0  0  0  0  0  0  0  0  0
   10.1910   47.3000   54.2790 N   0  0  0  0  0  0  0  0  0  0  0  0
    9.2280   47.9470   54.9670 C   0  0  0  0  0  0  0  0  0  0  0  0
    7.9930   47.5150   54.6490 N   0  0  0  0  0  0  0  0  0  0  0  0
    6.0590   45.2440   53.8960 C   0  0  0  0  0  0  0  0  0  0  0  0
    5.0210   44.5390   53.2800 C   0  0  0  0  0  0  0  0  0  0  0  0
   -0.4520   44.1000   54.8340 O   0  0  0  0  0  0  0  0  0  0  0  0
    0.2800   44.9670   55.6390 C   0  0  0  0  0  0  0  0  0  0  0  0
    1.4820   45.3650   54.8420 C   0  0  0  0  0  0  0  0  0  0  0  0
    1.1560   45.1410   53.5080 O   0  0  0  0  0  0  0  0  0  0  0  0
   -1.8323   45.3542   53.3202 H   0  0  0  0  0  0  0  0  0  0  0  0
   -0.6322   45.7001   52.0291 H   0  0  0  0  0  0  0  0  0  0  0  0
   -1.5279   44.1430   52.0291 H   0  0  0  0  0  0  0  0  0  0  0  0
    0.8901   42.3046   53.7605 H   0  0  0  0  0  0  0  0  0  0  0  0
   -0.4164   42.4406   52.5006 H   0  0  0  0  0  0  0  0  0  0  0  0
    3.1800   43.1480   53.2040 H   0  0  0  0  0  0  0  0  0  0  0  0
    4.3326   42.7176   50.7671 H   0  0  0  0  0  0  0  0  0  0  0  0
    3.4119   44.2288   50.4397 H   0  0  0  0  0  0  0  0  0  0  0  0
    5.9543   44.9243   50.0151 H   0  0  0  0  0  0  0  0  0  0  0  0
    7.8027   46.1829   51.1067 H   0  0  0  0  0  0  0  0  0  0  0  0
    9.9261   45.7297   52.8081 H   0  0  0  0  0  0  0  0  0  0  0  0
    9.4289   48.7381   55.7045 H   0  0  0  0  0  0  0  0  0  0  0  0
    6.0820   45.3335   54.9921 H   0  0  0  0  0  0  0  0  0  0  0  0
    4.2373   44.0718   53.8944 H   0  0  0  0  0  0  0  0  0  0  0  0
   -0.3214   45.8533   55.8898 H   0  0  0  0  0  0  0  0  0  0  0  0
    0.5687   44.4865   56.5854 H   0  0  0  0  0  0  0  0  0  0  0  0
    1.7122   46.4283   55.0047 H   0  0  0  0  0  0  0  0  0  0  0  0
    2.3693   44.7871   55.1399 H   0  0  0  0  0  0  0  0  0  0  0  0
  1  2  1  0
  2  3  1  0
  3  4  1  0
  4  5  2  0
  4  6  1  0
  6  7  1  0
  7  8  1  0
  8  9  2  0
  9 10  1  0
 10 11  2  0
 11 12  1  0
 12 13  1  0
 13 14  2  0
 14 15  1  0
 15 16  2  0
 11 17  1  0
 17 18  2  0
  2 19  1  0
 19 20  1  0
 20 21  1  0
 21 22  1  0
 22  2  1  0
 18  8  1  0
 16 12  1  0
  1 23  1  0
  1 24  1  0
  1 25  1  0
  3 26  1  0
  3 27  1  0
  6 28  1  0
  7 29  1  0
  7 30  1  0
  9 31  1  0
 10 32  1  0
 13 33  1  0
 15 34  1  0
 17 35  1  0
 18 36  1  0
 20 37  1  0
 20 38  1  0
 21 39  1  0
 21 40  1  0
M  END
>  <meeko>  (4) 
{"is_sidechain": [false], "free_energy": -7.476, "intermolecular_energy": -9.416, "internal_energy": -0.902}

$$$$
ligand_96_conformer_1_docked
     RDKit          3D

 40 42  0  0  0  0  0  0  0  0999 V2000
   -1.5640   44.0000   55.2870 C   0  0  0  0  0  0  0  0  0  0  0  0
   -0.5580   43.7640   54.1520 C   0  0  0  0  0  0  0  0  0  0  0  0
    0.8750   44.1350   54.5930 C   0  0  0  0  0  0  0  0  0  0  0  0
    1.7710   44.4540   53.4300 C   0  0  0  0  0  0  0  0  0  0  0  0
    2.4850   43.5440   52.9290 O   0  0  0  0  0  0  0  0  0  0  0  0
    1.7840   45.7750   52.8690 N   0  0  0  0  0  0  0  0  0  0  0  0
    2.4240   46.0750   51.5910 C   0  0  0  0  0  0  0  0  0  0  0  0
    3.9030   46.2580   51.7900 C   0  0  0  0  0  0  0  0  0  0  0  0
    4.8090   45.5870   50.9580 C   0  0  0  0  0  0  0  0  0  0  0  0
    6.1850   45.7090   51.1700 C   0  0  0  0  0  0  0  0  0  0  0  0
    6.6830   46.4990   52.2220 C   0  0  0  0  0  0  0  0  0  0  0  0
    8.1070   46.6100   52.4280 N   0  0  0  0  0  0  0  0  0  0  0  0
    8.7590   47.0490   53.5230 C   0  0  0  0  0  0  0  0  0  0  0  0
   10.0950   47.0020   53.3490 N   0  0  0  0  0  0  0  0  0  0  0  0
   10.2100   46.5140   52.0970 C   0  0  0  0  0  0  0  0  0  0  0  0
    9.0140   46.2710   51.5290 N   0  0  0  0  0  0  0  0  0  0  0  0
    5.7660   47.1700   53.0550 C   0  0  0  0  0  0  0  0  0  0  0  0
    4.3900   47.0470   52.8420 C   0  0  0  0  0  0  0  0  0  0  0  0
   -0.9280   44.5600   53.0440 O   0  0  0  0  0  0  0  0  0  0  0  0
   -1.3190   43.6710   52.0470 C   0  0  0  0  0  0  0  0  0  0  0  0
   -0.7910   42.3300   52.4480 C   0  0  0  0  0  0  0  0  0  0  0  0
   -0.5790   42.3910   53.8220 O   0  0  0  0  0  0  0  0  0  0  0  0
   -1.0577   43.8812   56.2563 H   0  0  0  0  0  0  0  0  0  0  0  0
   -1.9725   45.0184   55.2090 H   0  0  0  0  0  0  0  0  0  0  0  0
   -2.3828   43.2695   55.2090 H   0  0  0  0  0  0  0  0  0  0  0  0
    0.8247   45.0149   55.2512 H   0  0  0  0  0  0  0  0  0  0  0  0
    1.3003   43.2641   55.1133 H   0  0  0  0  0  0  0  0  0  0  0  0
    1.2520   46.5360   53.3470 H   0  0  0  0  0  0  0  0  0  0  0  0
    2.2501   45.2437   50.8919 H   0  0  0  0  0  0  0  0  0  0  0  0
    1.9964   47.0016   51.1804 H   0  0  0  0  0  0  0  0  0  0  0  0
    4.4355   44.9612   50.1341 H   0  0  0  0  0  0  0  0  0  0  0  0
    6.8864   45.1814   50.5069 H   0  0  0  0  0  0  0  0  0  0  0  0
    8.2645   47.4004   54.4406 H   0  0  0  0  0  0  0  0  0  0  0  0
   11.1729   46.3347   51.5963 H   0  0  0  0  0  0  0  0  0  0  0  0
    6.1361   47.7961   53.8802 H   0  0  0  0  0  0  0  0  0  0  0  0
    3.6852   47.5721   53.5034 H   0  0  0  0  0  0  0  0  0  0  0  0
   -2.4161   43.6414   51.9722 H   0  0  0  0  0  0  0  0  0  0  0  0
   -0.9294   43.9761   51.0646 H   0  0  0  0  0  0  0  0  0  0  0  0
   -1.5237   41.5449   52.2097 H   0  0  0  0  0  0  0  0  0  0  0  0
    0.1371   42.0874   51.9097 H   0  0  0  0  0  0  0  0  0  0  0  0
  1  2  1  0
  2  3  1  0
  3  4  1  0
  4  5  2  0
  4  6  1  0
  6  7  1  0
  7  8  1  0
  8  9  2  0
  9 10  1  0
 10 11  2  0
 11 12  1  0
 12 13  1  0
 13 14  2  0
 14 15  1  0
 15 16  2  0
 11 17  1  0
 17 18  2  0
  2 19  1  0
 19 20  1  0
 20 21  1  0
 21 22  1  0
 22  2  1  0
 18  8  1  0
 16 12  1  0
  1 23  1  0
  1 24  1  0
  1 25  1  0
  3 26  1  0
  3 27  1  0
  6 28  1  0
  7 29  1  0
  7 30  1  0
  9 31  1  0
 10 32  1  0
 13 33  1  0
 15 34  1  0
 17 35  1  0
 18 36  1  0
 20 37  1  0
 20 38  1  0
 21 39  1  0
 21 40  1  0
M  END
>  <meeko>  (5) 
{"is_sidechain": [false], "free_energy": -7.264, "intermolecular_energy": -9.31, "internal_energy": -0.733}

$$$$
