ligand_39_conformer_4_docked
     RDKit          3D

 49 52  0  0  0  0  0  0  0  0999 V2000
   -2.5510   45.3000   51.7910 C   0  0  0  0  0  0  0  0  0  0  0  0
   -2.1280   44.1650   52.6120 N   0  0  0  0  0  0  0  0  0  0  0  0
   -2.0300   42.8330   52.0170 C   0  0  0  0  0  0  0  0  0  0  0  0
   -1.8540   44.3390   54.0120 C   0  0  0  0  0  0  0  0  0  0  0  0
   -2.8840   44.1760   54.9610 C   0  0  0  0  0  0  0  0  0  0  0  0
   -2.6310   44.3610   56.3320 C   0  0  0  0  0  0  0  0  0  0  0  0
   -1.3480   44.7090   56.7770 C   0  0  0  0  0  0  0  0  0  0  0  0
   -0.3410   44.8580   55.8280 C   0  0  0  0  0  0  0  0  0  0  0  0
    1.2700   45.2430   56.0860 S   0  0  0  0  0  0  0  0  0  0  0  0
    1.7110   45.1740   54.4530 C   0  0  0  0  0  0  0  0  0  0  0  0
    3.0760   45.4310   53.9540 C   0  0  0  0  0  0  0  0  0  0  0  0
    3.7210   46.4050   54.4270 O   0  0  0  0  0  0  0  0  0  0  0  0
    3.6800   44.5870   52.9560 N   0  0  0  0  0  0  0  0  0  0  0  0
    5.0160   44.8540   52.3870 C   0  0  1  0  0  0  0  0  0  0  0  0
    5.3770   43.7810   51.3450 C   0  0  0  0  0  0  0  0  0  0  0  0
    6.3320   44.0090   50.3270 C   0  0  0  0  0  0  0  0  0  0  0  0
    6.5990   43.0280   49.3680 C   0  0  0  0  0  0  0  0  0  0  0  0
    5.9080   41.8170   49.3890 C   0  0  0  0  0  0  0  0  0  0  0  0
    4.9360   41.5880   50.3620 C   0  0  0  0  0  0  0  0  0  0  0  0
    4.6620   42.5640   51.3250 C   0  0  0  0  0  0  0  0  0  0  0  0
    5.0640   46.2320   51.7330 C   0  0  0  0  0  0  0  0  0  0  0  0
    6.4930   46.7040   51.9430 C   0  0  0  0  0  0  0  0  0  0  0  0
    7.0470   45.9870   53.0930 N   0  0  0  0  0  0  0  0  0  0  0  0
    6.0430   45.0080   53.5200 C   0  0  0  0  0  0  0  0  0  0  0  0
    0.5850   44.8490   53.6890 C   0  0  0  0  0  0  0  0  0  0  0  0
   -0.5690   44.6780   54.4710 C   0  0  0  0  0  0  0  0  0  0  0  0
   -2.8602   46.1296   52.4438 H   0  0  0  0  0  0  0  0  0  0  0  0
   -1.7138   45.6254   51.1560 H   0  0  0  0  0  0  0  0  0  0  0  0
   -3.3970   44.9981   51.1560 H   0  0  0  0  0  0  0  0  0  0  0  0
   -1.9745   42.0781   52.8151 H   0  0  0  0  0  0  0  0  0  0  0  0
   -2.9166   42.6435   51.3941 H   0  0  0  0  0  0  0  0  0  0  0  0
   -1.1252   42.7753   51.3941 H   0  0  0  0  0  0  0  0  0  0  0  0
   -3.8951   43.9015   54.6258 H   0  0  0  0  0  0  0  0  0  0  0  0
   -3.4454   44.2318   57.0601 H   0  0  0  0  0  0  0  0  0  0  0  0
   -1.1428   44.8602   57.8471 H   0  0  0  0  0  0  0  0  0  0  0  0
    3.1820   43.7150   52.6710 H   0  0  0  0  0  0  0  0  0  0  0  0
    6.8699   44.9678   50.2897 H   0  0  0  0  0  0  0  0  0  0  0  0
    7.3577   43.2120   48.5931 H   0  0  0  0  0  0  0  0  0  0  0  0
    6.1295   41.0434   48.6390 H   0  0  0  0  0  0  0  0  0  0  0  0
    4.3833   40.6370   50.3721 H   0  0  0  0  0  0  0  0  0  0  0  0
    3.8796   42.3812   52.0763 H   0  0  0  0  0  0  0  0  0  0  0  0
    4.8317   46.1614   50.6601 H   0  0  0  0  0  0  0  0  0  0  0  0
    4.3271   46.9254   52.1645 H   0  0  0  0  0  0  0  0  0  0  0  0
    7.0920   46.4885   51.0459 H   0  0  0  0  0  0  0  0  0  0  0  0
    6.5120   47.7885   52.1261 H   0  0  0  0  0  0  0  0  0  0  0  0
    7.2090   46.6680   53.8730 H   0  0  0  0  0  0  0  0  0  0  0  0
    6.5266   44.0403   53.7192 H   0  0  0  0  0  0  0  0  0  0  0  0
    5.5468   45.3473   54.4413 H   0  0  0  0  0  0  0  0  0  0  0  0
    0.6017   44.7393   52.5946 H   0  0  0  0  0  0  0  0  0  0  0  0
  1  2  1  0
  2  3  1  0
  2  4  1  0
  4  5  2  0
  5  6  1  0
  6  7  2  0
  7  8  1  0
  8  9  1  0
  9 10  1  0
 10 11  1  0
 11 12  2  0
 11 13  1  0
 14 13  1  1
 14 15  1  0
 15 16  2  0
 16 17  1  0
 17 18  2  0
 18 19  1  0
 19 20  2  0
 14 21  1  0
 21 22  1  0
 22 23  1  0
 23 24  1  0
 10 25  2  0
 25 26  1  0
 26  4  1  0
 26  8  2  0
 24 14  1  0
 20 15  1  0
  1 27  1  0
  1 28  1  0
  1 29  1  0
  3 30  1  0
  3 31  1  0
  3 32  1  0
  5 33  1  0
  6 34  1  0
  7 35  1  0
 13 36  1  0
 16 37  1  0
 17 38  1  0
 18 39  1  0
 19 40  1  0
 20 41  1  0
 21 42  1  0
 21 43  1  0
 22 44  1  0
 22 45  1  0
 23 46  1  0
 24 47  1  0
 24 48  1  0
 25 49  1  0
M  END
>  <meeko>  (1) 
{"is_sidechain": [false], "free_energy": -8.153, "intermolecular_energy": -10.059, "internal_energy": 0.327}

$$$$
ligand_39_conformer_4_docked
     RDKit          3D

 49 52  0  0  0  0  0  0  0  0999 V2000
    6.1520   43.4760   50.0750 C   0  0  0  0  0  0  0  0  0  0  0  0
    7.2750   44.4130   50.0460 N   0  0  0  0  0  0  0  0  0  0  0  0
    8.4010   44.1710   49.1460 C   0  0  0  0  0  0  0  0  0  0  0  0
    7.3030   45.5450   50.9300 C   0  0  0  0  0  0  0  0  0  0  0  0
    8.4820   46.3060   51.0690 C   0  0  0  0  0  0  0  0  0  0  0  0
    8.5260   47.4070   51.9440 C   0  0  0  0  0  0  0  0  0  0  0  0
    7.3950   47.7650   52.6910 C   0  0  0  0  0  0  0  0  0  0  0  0
    6.2380   47.0100   52.5360 C   0  0  0  0  0  0  0  0  0  0  0  0
    4.7530   47.2320   53.2820 S   0  0  0  0  0  0  0  0  0  0  0  0
    3.9910   45.9370   52.5040 C   0  0  0  0  0  0  0  0  0  0  0  0
    2.5830   45.5520   52.7250 C   0  0  0  0  0  0  0  0  0  0  0  0
    1.6780   46.3870   52.4580 O   0  0  0  0  0  0  0  0  0  0  0  0
    2.2320   44.2480   53.2240 N   0  0  0  0  0  0  0  0  0  0  0  0
    0.8400   43.8550   53.5190 C   0  0  1  0  0  0  0  0  0  0  0  0
    0.3510   44.5450   54.8050 C   0  0  0  0  0  0  0  0  0  0  0  0
   -0.9980   44.9270   54.9890 C   0  0  0  0  0  0  0  0  0  0  0  0
   -1.3980   45.5970   56.1490 C   0  0  0  0  0  0  0  0  0  0  0  0
   -0.4620   45.9180   57.1330 C   0  0  0  0  0  0  0  0  0  0  0  0
    0.8800   45.5820   56.9530 C   0  0  0  0  0  0  0  0  0  0  0  0
    1.2870   44.9140   55.7950 C   0  0  0  0  0  0  0  0  0  0  0  0
   -0.0870   44.2210   52.3630 C   0  0  0  0  0  0  0  0  0  0  0  0
   -1.1560   43.1410   52.3740 C   0  0  0  0  0  0  0  0  0  0  0  0
   -0.6040   41.9590   53.0410 N   0  0  0  0  0  0  0  0  0  0  0  0
    0.7250   42.3220   53.5410 C   0  0  0  0  0  0  0  0  0  0  0  0
    4.9070   45.3150   51.6480 C   0  0  0  0  0  0  0  0  0  0  0  0
    6.1720   45.9220   51.6760 C   0  0  0  0  0  0  0  0  0  0  0  0
    5.8863   43.2543   51.1192 H   0  0  0  0  0  0  0  0  0  0  0  0
    5.2872   43.9242   49.5638 H   0  0  0  0  0  0  0  0  0  0  0  0
    6.4380   42.5449   49.5638 H   0  0  0  0  0  0  0  0  0  0  0  0
    9.3078   43.9761   49.7374 H   0  0  0  0  0  0  0  0  0  0  0  0
    8.1826   43.2993   48.5116 H   0  0  0  0  0  0  0  0  0  0  0  0
    8.5600   45.0555   48.5116 H   0  0  0  0  0  0  0  0  0  0  0  0
    9.3760   46.0363   50.4877 H   0  0  0  0  0  0  0  0  0  0  0  0
    9.4534   47.9903   52.0425 H   0  0  0  0  0  0  0  0  0  0  0  0
    7.4223   48.6208   53.3816 H   0  0  0  0  0  0  0  0  0  0  0  0
    2.9840   43.5300   53.3180 H   0  0  0  0  0  0  0  0  0  0  0  0
   -1.7404   44.6946   54.2113 H   0  0  0  0  0  0  0  0  0  0  0  0
   -2.4541   45.8721   56.2865 H   0  0  0  0  0  0  0  0  0  0  0  0
   -0.7820   46.4354   58.0495 H   0  0  0  0  0  0  0  0  0  0  0  0
    1.6194   45.8435   57.7243 H   0  0  0  0  0  0  0  0  0  0  0  0
    2.3508   44.6726   55.6531 H   0  0  0  0  0  0  0  0  0  0  0  0
   -0.5350   45.2128   52.5232 H   0  0  0  0  0  0  0  0  0  0  0  0
    0.4447   44.2726   51.4014 H   0  0  0  0  0  0  0  0  0  0  0  0
   -2.0410   43.4983   52.9210 H   0  0  0  0  0  0  0  0  0  0  0  0
   -1.4560   42.8921   51.3454 H   0  0  0  0  0  0  0  0  0  0  0  0
   -0.5020   41.1880   52.3380 H   0  0  0  0  0  0  0  0  0  0  0  0
    0.8501   41.9532   54.5698 H   0  0  0  0  0  0  0  0  0  0  0  0
    1.5059   41.8717   52.9106 H   0  0  0  0  0  0  0  0  0  0  0  0
    4.6620   44.4448   51.0213 H   0  0  0  0  0  0  0  0  0  0  0  0
  1  2  1  0
  2  3  1  0
  2  4  1  0
  4  5  2  0
  5  6  1  0
  6  7  2  0
  7  8  1  0
  8  9  1  0
  9 10  1  0
 10 11  1  0
 11 12  2  0
 11 13  1  0
 14 13  1  6
 14 15  1  0
 15 16  2  0
 16 17  1  0
 17 18  2  0
 18 19  1  0
 19 20  2  0
 14 21  1  0
 21 22  1  0
 22 23  1  0
 23 24  1  0
 10 25  2  0
 25 26  1  0
 26  4  1  0
 26  8  2  0
 24 14  1  0
 20 15  1  0
  1 27  1  0
  1 28  1  0
  1 29  1  0
  3 30  1  0
  3 31  1  0
  3 32  1  0
  5 33  1  0
  6 34  1  0
  7 35  1  0
 13 36  1  0
 16 37  1  0
 17 38  1  0
 18 39  1  0
 19 40  1  0
 20 41  1  0
 21 42  1  0
 21 43  1  0
 22 44  1  0
 22 45  1  0
 23 46  1  0
 24 47  1  0
 24 48  1  0
 25 49  1  0
M  END
>  <meeko>  (2) 
{"is_sidechain": [false], "free_energy": -8.047, "intermolecular_energy": -10.889, "internal_energy": 1.287}

$$$$
ligand_39_conformer_4_docked
     RDKit          3D

 49 52  0  0  0  0  0  0  0  0999 V2000
   -0.6820   44.4980   51.5620 C   0  0  0  0  0  0  0  0  0  0  0  0
   -0.3420   43.6810   52.7270 N   0  0  0  0  0  0  0  0  0  0  0  0
   -0.2650   42.2270   52.5990 C   0  0  0  0  0  0  0  0  0  0  0  0
   -0.1280   44.2930   54.0090 C   0  0  0  0  0  0  0  0  0  0  0  0
   -1.2110   44.4850   54.8920 C   0  0  0  0  0  0  0  0  0  0  0  0
   -1.0160   45.0990   56.1430 C   0  0  0  0  0  0  0  0  0  0  0  0
    0.2610   45.5270   56.5320 C   0  0  0  0  0  0  0  0  0  0  0  0
    1.3200   45.3210   55.6540 C   0  0  0  0  0  0  0  0  0  0  0  0
    2.9350   45.7120   55.8770 S   0  0  0  0  0  0  0  0  0  0  0  0
    3.4510   45.0980   54.3870 C   0  0  0  0  0  0  0  0  0  0  0  0
    4.8510   45.1290   53.9210 C   0  0  0  0  0  0  0  0  0  0  0  0
    5.6800   44.3330   54.4400 O   0  0  0  0  0  0  0  0  0  0  0  0
    5.2780   46.0350   52.8860 N   0  0  0  0  0  0  0  0  0  0  0  0
    6.6820   46.1380   52.4440 C   0  0  1  0  0  0  0  0  0  0  0  0
    6.9550   45.1500   51.2960 C   0  0  0  0  0  0  0  0  0  0  0  0
    8.1180   45.2250   50.4960 C   0  0  0  0  0  0  0  0  0  0  0  0
    8.3090   44.3410   49.4300 C   0  0  0  0  0  0  0  0  0  0  0  0
    7.3390   43.3860   49.1260 C   0  0  0  0  0  0  0  0  0  0  0  0
    6.1680   43.3200   49.8810 C   0  0  0  0  0  0  0  0  0  0  0  0
    5.9690   44.2010   50.9470 C   0  0  0  0  0  0  0  0  0  0  0  0
    7.0050   47.5550   51.9800 C   0  0  0  0  0  0  0  0  0  0  0  0
    8.4690   47.7510   52.3400 C   0  0  0  0  0  0  0  0  0  0  0  0
    8.8020   46.8200   53.4200 N   0  0  0  0  0  0  0  0  0  0  0  0
    7.6220   45.9810   53.6500 C   0  0  0  0  0  0  0  0  0  0  0  0
    2.3480   44.5820   53.6980 C   0  0  0  0  0  0  0  0  0  0  0  0
    1.1500   44.7160   54.4160 C   0  0  0  0  0  0  0  0  0  0  0  0
   -1.0845   45.4652   51.8973 H   0  0  0  0  0  0  0  0  0  0  0  0
    0.2206   44.6666   50.9564 H   0  0  0  0  0  0  0  0  0  0  0  0
   -1.4378   43.9765   50.9564 H   0  0  0  0  0  0  0  0  0  0  0  0
   -0.2409   41.7716   53.6000 H   0  0  0  0  0  0  0  0  0  0  0  0
   -1.1450   41.8601   52.0503 H   0  0  0  0  0  0  0  0  0  0  0  0
    0.6488   41.9551   52.0503 H   0  0  0  0  0  0  0  0  0  0  0  0
   -2.2177   44.1516   54.5999 H   0  0  0  0  0  0  0  0  0  0  0  0
   -1.8709   45.2440   56.8199 H   0  0  0  0  0  0  0  0  0  0  0  0
    0.4213   46.0129   57.5058 H   0  0  0  0  0  0  0  0  0  0  0  0
    4.5540   46.5940   52.3830 H   0  0  0  0  0  0  0  0  0  0  0  0
    8.8807   45.9869   50.7145 H   0  0  0  0  0  0  0  0  0  0  0  0
    9.2281   44.3988   48.8285 H   0  0  0  0  0  0  0  0  0  0  0  0
    7.4972   42.6861   48.2923 H   0  0  0  0  0  0  0  0  0  0  0  0
    5.3991   42.5723   49.6365 H   0  0  0  0  0  0  0  0  0  0  0  0
    5.0323   44.1549   51.5218 H   0  0  0  0  0  0  0  0  0  0  0  0
    6.8555   47.6519   50.8945 H   0  0  0  0  0  0  0  0  0  0  0  0
    6.3549   48.3070   52.4510 H   0  0  0  0  0  0  0  0  0  0  0  0
    9.0993   47.5445   51.4625 H   0  0  0  0  0  0  0  0  0  0  0  0
    8.6459   48.7875   52.6632 H   0  0  0  0  0  0  0  0  0  0  0  0
    9.0030   47.3660   54.2910 H   0  0  0  0  0  0  0  0  0  0  0  0
    7.9266   44.9288   53.7509 H   0  0  0  0  0  0  0  0  0  0  0  0
    7.1106   46.2878   54.5743 H   0  0  0  0  0  0  0  0  0  0  0  0
    2.4130   44.1212   52.7013 H   0  0  0  0  0  0  0  0  0  0  0  0
  1  2  1  0
  2  3  1  0
  2  4  1  0
  4  5  2  0
  5  6  1  0
  6  7  2  0
  7  8  1  0
  8  9  1  0
  9 10  1  0
 10 11  1  0
 11 12  2  0
 11 13  1  0
 14 13  1  1
 14 15  1  0
 15 16  2  0
 16 17  1  0
 17 18  2  0
 18 19  1  0
 19 20  2  0
 14 21  1  0
 21 22  1  0
 22 23  1  0
 23 24  1  0
 10 25  2  0
 25 26  1  0
 26  4  1  0
 26  8  2  0
 24 14  1  0
 20 15  1  0
  1 27  1  0
  1 28  1  0
  1 29  1  0
  3 30  1  0
  3 31  1  0
  3 32  1  0
  5 33  1  0
  6 34  1  0
  7 35  1  0
 13 36  1  0
 16 37  1  0
 17 38  1  0
 18 39  1  0
 19 40  1  0
 20 41  1  0
 21 42  1  0
 21 43  1  0
 22 44  1  0
 22 45  1  0
 23 46  1  0
 24 47  1  0
 24 48  1  0
 25 49  1  0
M  END
>  <meeko>  (3) 
{"is_sidechain": [false], "free_energy": -7.993, "intermolecular_energy": -10.114, "internal_energy": 0.579}

$$$$
ligand_39_conformer_4_docked
     RDKit          3D

 49 52  0  0  0  0  0  0  0  0999 V2000
    0.8830   46.8270   58.5710 C   0  0  0  0  0  0  0  0  0  0  0  0
   -0.4350   46.8650   57.9380 N   0  0  0  0  0  0  0  0  0  0  0  0
   -1.3740   47.9340   58.2750 C   0  0  0  0  0  0  0  0  0  0  0  0
   -0.8340   45.8330   57.0210 C   0  0  0  0  0  0  0  0  0  0  0  0
   -2.1180   45.2580   57.1170 C   0  0  0  0  0  0  0  0  0  0  0  0
   -2.5130   44.2350   56.2360 C   0  0  0  0  0  0  0  0  0  0  0  0
   -1.6350   43.7720   55.2460 C   0  0  0  0  0  0  0  0  0  0  0  0
   -0.3750   44.3550   55.1600 C   0  0  0  0  0  0  0  0  0  0  0  0
    0.8490   44.0100   54.0670 S   0  0  0  0  0  0  0  0  0  0  0  0
    1.9280   45.1670   54.6690 C   0  0  0  0  0  0  0  0  0  0  0  0
    3.2790   45.3990   54.1250 C   0  0  0  0  0  0  0  0  0  0  0  0
    4.0040   46.2820   54.6580 O   0  0  0  0  0  0  0  0  0  0  0  0
    3.7820   44.6340   53.0130 N   0  0  0  0  0  0  0  0  0  0  0  0
    5.1020   44.8860   52.4030 C   0  0  1  0  0  0  0  0  0  0  0  0
    5.4110   43.8170   51.3390 C   0  0  0  0  0  0  0  0  0  0  0  0
    6.3440   44.0350   50.2990 C   0  0  0  0  0  0  0  0  0  0  0  0
    6.5640   43.0610   49.3210 C   0  0  0  0  0  0  0  0  0  0  0  0
    5.8440   41.8660   49.3460 C   0  0  0  0  0  0  0  0  0  0  0  0
    4.8920   41.6480   50.3420 C   0  0  0  0  0  0  0  0  0  0  0  0
    4.6660   42.6180   51.3220 C   0  0  0  0  0  0  0  0  0  0  0  0
    5.1500   46.2690   51.7600 C   0  0  0  0  0  0  0  0  0  0  0  0
    6.5930   46.7170   51.9250 C   0  0  0  0  0  0  0  0  0  0  0  0
    7.1740   45.9800   53.0500 N   0  0  0  0  0  0  0  0  0  0  0  0
    6.1700   45.0120   53.5010 C   0  0  0  0  0  0  0  0  0  0  0  0
    1.3290   45.8340   55.7440 C   0  0  0  0  0  0  0  0  0  0  0  0
    0.0340   45.3680   56.0170 C   0  0  0  0  0  0  0  0  0  0  0  0
    0.7648   46.8304   59.6646 H   0  0  0  0  0  0  0  0  0  0  0  0
    1.4119   45.9132   58.2622 H   0  0  0  0  0  0  0  0  0  0  0  0
    1.4636   47.7088   58.2622 H   0  0  0  0  0  0  0  0  0  0  0  0
   -1.4517   48.0225   59.3687 H   0  0  0  0  0  0  0  0  0  0  0  0
   -1.0136   48.8846   57.8549 H   0  0  0  0  0  0  0  0  0  0  0  0
   -2.3631   47.6991   57.8549 H   0  0  0  0  0  0  0  0  0  0  0  0
   -2.8175   45.6129   57.8883 H   0  0  0  0  0  0  0  0  0  0  0  0
   -3.5175   43.7954   56.3244 H   0  0  0  0  0  0  0  0  0  0  0  0
   -1.9344   42.9694   54.5559 H   0  0  0  0  0  0  0  0  0  0  0  0
    3.2190   43.8250   52.6690 H   0  0  0  0  0  0  0  0  0  0  0  0
    6.9028   44.9816   50.2592 H   0  0  0  0  0  0  0  0  0  0  0  0
    7.3070   43.2370   48.5292 H   0  0  0  0  0  0  0  0  0  0  0  0
    6.0269   41.0968   48.5812 H   0  0  0  0  0  0  0  0  0  0  0  0
    4.3177   40.7099   50.3559 H   0  0  0  0  0  0  0  0  0  0  0  0
    3.8978   42.4452   52.0901 H   0  0  0  0  0  0  0  0  0  0  0  0
    4.8802   46.2120   50.6951 H   0  0  0  0  0  0  0  0  0  0  0  0
    4.4395   46.9697   52.2228 H   0  0  0  0  0  0  0  0  0  0  0  0
    7.1578   46.5004   51.0062 H   0  0  0  0  0  0  0  0  0  0  0  0
    6.6359   47.7994   52.1164 H   0  0  0  0  0  0  0  0  0  0  0  0
    7.3720   46.6500   53.8300 H   0  0  0  0  0  0  0  0  0  0  0  0
    6.6450   44.0349   53.6732 H   0  0  0  0  0  0  0  0  0  0  0  0
    5.7113   45.3490   54.4423 H   0  0  0  0  0  0  0  0  0  0  0  0
    1.8204   46.6368   56.3133 H   0  0  0  0  0  0  0  0  0  0  0  0
  1  2  1  0
  2  3  1  0
  2  4  1  0
  4  5  2  0
  5  6  1  0
  6  7  2  0
  7  8  1  0
  8  9  1  0
  9 10  1  0
 10 11  1  0
 11 12  2  0
 11 13  1  0
 14 13  1  1
 14 15  1  0
 15 16  2  0
 16 17  1  0
 17 18  2  0
 18 19  1  0
 19 20  2  0
 14 21  1  0
 21 22  1  0
 22 23  1  0
 23 24  1  0
 10 25  2  0
 25 26  1  0
 26  4  1  0
 26  8  2  0
 24 14  1  0
 20 15  1  0
  1 27  1  0
  1 28  1  0
  1 29  1  0
  3 30  1  0
  3 31  1  0
  3 32  1  0
  5 33  1  0
  6 34  1  0
  7 35  1  0
 13 36  1  0
 16 37  1  0
 17 38  1  0
 18 39  1  0
 19 40  1  0
 20 41  1  0
 21 42  1  0
 21 43  1  0
 22 44  1  0
 22 45  1  0
 23 46  1  0
 24 47  1  0
 24 48  1  0
 25 49  1  0
M  END
>  <meeko>  (4) 
{"is_sidechain": [false], "free_energy": -7.843, "intermolecular_energy": -10.295, "internal_energy": 0.945}

$$$$
ligand_39_conformer_4_docked
     RDKit          3D

 49 52  0  0  0  0  0  0  0  0999 V2000
   -2.1500   43.7940   56.8590 C   0  0  0  0  0  0  0  0  0  0  0  0
   -2.3260   44.7780   55.7920 N   0  0  0  0  0  0  0  0  0  0  0  0
   -2.6480   46.1650   56.1260 C   0  0  0  0  0  0  0  0  0  0  0  0
   -2.2320   44.3840   54.4130 C   0  0  0  0  0  0  0  0  0  0  0  0
   -3.3780   43.9370   53.7240 C   0  0  0  0  0  0  0  0  0  0  0  0
   -3.2930   43.5330   52.3790 C   0  0  0  0  0  0  0  0  0  0  0  0
   -2.0660   43.5700   51.7020 C   0  0  0  0  0  0  0  0  0  0  0  0
   -0.9470   44.0220   52.3940 C   0  0  0  0  0  0  0  0  0  0  0  0
    0.6210   44.1880   51.8240 S   0  0  0  0  0  0  0  0  0  0  0  0
    1.2510   44.7980   53.2710 C   0  0  0  0  0  0  0  0  0  0  0  0
    2.6650   45.1730   53.4640 C   0  0  0  0  0  0  0  0  0  0  0  0
    2.9960   45.7650   54.5270 O   0  0  0  0  0  0  0  0  0  0  0  0
    3.6640   44.8660   52.4730 N   0  0  0  0  0  0  0  0  0  0  0  0
    5.0730   45.2850   52.6040 C   0  0  1  0  0  0  0  0  0  0  0  0
    5.9160   44.6900   51.4620 C   0  0  0  0  0  0  0  0  0  0  0  0
    7.0130   45.3790   50.8960 C   0  0  0  0  0  0  0  0  0  0  0  0
    7.7260   44.8300   49.8270 C   0  0  0  0  0  0  0  0  0  0  0  0
    7.3470   43.6000   49.2870 C   0  0  0  0  0  0  0  0  0  0  0  0
    6.2450   42.9220   49.8080 C   0  0  0  0  0  0  0  0  0  0  0  0
    5.5270   43.4660   50.8760 C   0  0  0  0  0  0  0  0  0  0  0  0
    5.1940   46.8070   52.5830 C   0  0  0  0  0  0  0  0  0  0  0  0
    6.3800   47.1080   53.4840 C   0  0  0  0  0  0  0  0  0  0  0  0
    6.5550   45.9800   54.4010 N   0  0  0  0  0  0  0  0  0  0  0  0
    5.5890   44.9490   54.0130 C   0  0  0  0  0  0  0  0  0  0  0  0
    0.2250   44.8720   54.2200 C   0  0  0  0  0  0  0  0  0  0  0  0
   -1.0080   44.4280   53.7200 C   0  0  0  0  0  0  0  0  0  0  0  0
   -2.2391   44.2923   57.8356 H   0  0  0  0  0  0  0  0  0  0  0  0
   -2.9233   43.0166   56.7721 H   0  0  0  0  0  0  0  0  0  0  0  0
   -1.1551   43.3329   56.7721 H   0  0  0  0  0  0  0  0  0  0  0  0
   -2.6752   46.2820   57.2194 H   0  0  0  0  0  0  0  0  0  0  0  0
   -1.8806   46.8312   55.7049 H   0  0  0  0  0  0  0  0  0  0  0  0
   -3.6304   46.4250   55.7049 H   0  0  0  0  0  0  0  0  0  0  0  0
   -4.3474   43.9038   54.2428 H   0  0  0  0  0  0  0  0  0  0  0  0
   -4.1956   43.1857   51.8550 H   0  0  0  0  0  0  0  0  0  0  0  0
   -1.9901   43.2503   50.6522 H   0  0  0  0  0  0  0  0  0  0  0  0
    3.3950   44.2660   51.6630 H   0  0  0  0  0  0  0  0  0  0  0  0
    7.3085   46.3579   51.3015 H   0  0  0  0  0  0  0  0  0  0  0  0
    8.5891   45.3692   49.4095 H   0  0  0  0  0  0  0  0  0  0  0  0
    7.9165   43.1660   48.4519 H   0  0  0  0  0  0  0  0  0  0  0  0
    5.9405   41.9568   49.3771 H   0  0  0  0  0  0  0  0  0  0  0  0
    4.6468   42.9334   51.2654 H   0  0  0  0  0  0  0  0  0  0  0  0
    5.3810   47.1679   51.5609 H   0  0  0  0  0  0  0  0  0  0  0  0
    4.2737   47.3040   52.9237 H   0  0  0  0  0  0  0  0  0  0  0  0
    7.2870   47.2373   52.8752 H   0  0  0  0  0  0  0  0  0  0  0  0
    6.2020   48.0342   54.0501 H   0  0  0  0  0  0  0  0  0  0  0  0
    6.3370   46.2970   55.3760 H   0  0  0  0  0  0  0  0  0  0  0  0
    6.0778   43.9636   54.0061 H   0  0  0  0  0  0  0  0  0  0  0  0
    4.7538   44.9203   54.7283 H   0  0  0  0  0  0  0  0  0  0  0  0
    0.3699   45.2387   55.2469 H   0  0  0  0  0  0  0  0  0  0  0  0
  1  2  1  0
  2  3  1  0
  2  4  1  0
  4  5  2  0
  5  6  1  0
  6  7  2  0
  7  8  1  0
  8  9  1  0
  9 10  1  0
 10 11  1  0
 11 12  2  0
 11 13  1  0
 14 13  1  1
 14 15  1  0
 15 16  2  0
 16 17  1  0
 17 18  2  0
 18 19  1  0
 19 20  2  0
 14 21  1  0
 21 22  1  0
 22 23  1  0
 23 24  1  0
 10 25  2  0
 25 26  1  0
 26  4  1  0
 26  8  2  0
 24 14  1  0
 20 15  1  0
  1 27  1  0
  1 28  1  0
  1 29  1  0
  3 30  1  0
  3 31  1  0
  3 32  1  0
  5 33  1  0
  6 34  1  0
  7 35  1  0
 13 36  1  0
 16 37  1  0
 17 38  1  0
 18 39  1  0
 19 40  1  0
 20 41  1  0
 21 42  1  0
 21 43  1  0
 22 44  1  0
 22 45  1  0
 23 46  1  0
 24 47  1  0
 24 48  1  0
 25 49  1  0
M  END
>  <meeko>  (5) 
{"is_sidechain": [false], "free_energy": -7.622, "intermolecular_energy": -9.445, "internal_energy": 0.368}

$$$$
