ligand_69_conformer_4_docked
     RDKit          3D

 43 46  0  0  0  0  0  0  0  0999 V2000
   -1.8450   42.7650   51.8840 C   0  0  0  0  0  0  0  0  0  0  0  0
   -0.4860   43.2880   51.9610 N   0  0  0  0  0  0  0  0  0  0  0  0
    0.0130   44.4090   51.1870 C   0  0  0  0  0  0  0  0  0  0  0  0
    1.5070   44.5210   51.5400 C   0  0  0  0  0  0  0  0  0  0  0  0
    1.7290   43.7030   52.8500 C   0  0  0  0  0  0  0  0  0  0  0  0
    1.8100   44.6340   54.0980 C   0  0  0  0  0  0  0  0  0  0  0  0
    3.2560   44.9760   54.5050 C   0  0  0  0  0  0  0  0  0  0  0  0
    4.1540   44.9110   53.3460 N   0  0  0  0  0  0  0  0  0  0  0  0
    4.7100   46.1220   52.7940 C   0  0  0  0  0  0  0  0  0  0  0  0
    4.0700   47.2040   52.8990 O   0  0  0  0  0  0  0  0  0  0  0  0
    6.0130   46.1270   52.0980 C   0  0  0  0  0  0  0  0  0  0  0  0
    6.2680   45.6580   50.8120 C   0  0  0  0  0  0  0  0  0  0  0  0
    7.6300   45.8170   50.5770 C   0  0  0  0  0  0  0  0  0  0  0  0
    8.1460   46.3680   51.7320 C   0  0  0  0  0  0  0  0  0  0  0  0
    9.4570   46.7230   52.0270 C   0  0  0  0  0  0  0  0  0  0  0  0
    9.7070   47.2700   53.2940 C   0  0  0  0  0  0  0  0  0  0  0  0
    8.6460   47.4360   54.2040 C   0  0  0  0  0  0  0  0  0  0  0  0
    7.3840   47.0630   53.8470 N   0  0  0  0  0  0  0  0  0  0  0  0
    7.1740   46.5450   52.6370 N   0  0  0  0  0  0  0  0  0  0  0  0
    4.2660   43.6370   52.6170 C   0  0  0  0  0  0  0  0  0  0  0  0
    2.9820   42.7970   52.7540 C   0  0  0  0  0  0  0  0  0  0  0  0
    0.4840   42.8850   52.9080 C   0  0  0  0  0  0  0  0  0  0  0  0
    0.2860   41.9520   53.7330 O   0  0  0  0  0  0  0  0  0  0  0  0
   -2.2378   42.6138   52.9003 H   0  0  0  0  0  0  0  0  0  0  0  0
   -2.4838   43.4815   51.3468 H   0  0  0  0  0  0  0  0  0  0  0  0
   -1.8386   41.8051   51.3468 H   0  0  0  0  0  0  0  0  0  0  0  0
   -0.1145   44.2201   50.1109 H   0  0  0  0  0  0  0  0  0  0  0  0
   -0.5309   45.3372   51.4164 H   0  0  0  0  0  0  0  0  0  0  0  0
    2.1196   44.1050   50.7265 H   0  0  0  0  0  0  0  0  0  0  0  0
    1.7996   45.5722   51.6793 H   0  0  0  0  0  0  0  0  0  0  0  0
    1.2796   45.5705   53.8710 H   0  0  0  0  0  0  0  0  0  0  0  0
    1.3516   44.0942   54.9398 H   0  0  0  0  0  0  0  0  0  0  0  0
    3.2816   45.9927   54.9242 H   0  0  0  0  0  0  0  0  0  0  0  0
    3.5936   44.2440   55.2535 H   0  0  0  0  0  0  0  0  0  0  0  0
    5.5298   45.2396   50.1120 H   0  0  0  0  0  0  0  0  0  0  0  0
    8.1809   45.5574   49.6610 H   0  0  0  0  0  0  0  0  0  0  0  0
   10.2663   46.5806   51.2958 H   0  0  0  0  0  0  0  0  0  0  0  0
   10.7278   47.5680   53.5754 H   0  0  0  0  0  0  0  0  0  0  0  0
    8.8342   47.8650   55.1993 H   0  0  0  0  0  0  0  0  0  0  0  0
    4.4437   43.8482   51.5522 H   0  0  0  0  0  0  0  0  0  0  0  0
    5.1018   43.0647   53.0459 H   0  0  0  0  0  0  0  0  0  0  0  0
    2.8855   42.1427   51.8750 H   0  0  0  0  0  0  0  0  0  0  0  0
    3.0523   42.2000   53.6752 H   0  0  0  0  0  0  0  0  0  0  0  0
  1  2  1  0
  2  3  1  0
  3  4  1  0
  4  5  1  0
  5  6  1  0
  6  7  1  0
  7  8  1  0
  8  9  1  0
  9 10  2  0
  9 11  1  0
 11 12  2  0
 12 13  1  0
 13 14  2  0
 14 15  1  0
 15 16  2  0
 16 17  1  0
 17 18  2  0
 18 19  1  0
  8 20  1  0
 20 21  1  0
  5 22  1  0
 22 23  2  0
 22  2  1  0
 21  5  1  0
 19 11  1  0
 19 14  1  0
  1 24  1  0
  1 25  1  0
  1 26  1  0
  3 27  1  0
  3 28  1  0
  4 29  1  0
  4 30  1  0
  6 31  1  0
  6 32  1  0
  7 33  1  0
  7 34  1  0
 12 35  1  0
 13 36  1  0
 15 37  1  0
 16 38  1  0
 17 39  1  0
 20 40  1  0
 20 41  1  0
 21 42  1  0
 21 43  1  0
M  END
>  <meeko>  (1) 
{"is_sidechain": [false], "free_energy": -9.466, "intermolecular_energy": -10.019, "internal_energy": -0.203}

$$$$
ligand_69_conformer_4_docked
     RDKit          3D

 43 46  0  0  0  0  0  0  0  0999 V2000
    9.5130   47.1760   51.8010 C   0  0  0  0  0  0  0  0  0  0  0  0
    8.1430   46.7180   51.9980 N   0  0  0  0  0  0  0  0  0  0  0  0
    7.4220   45.8510   51.0860 C   0  0  0  0  0  0  0  0  0  0  0  0
    6.0030   45.7280   51.6690 C   0  0  0  0  0  0  0  0  0  0  0  0
    6.0770   46.2040   53.1530 C   0  0  0  0  0  0  0  0  0  0  0  0
    6.1170   44.9970   54.1390 C   0  0  0  0  0  0  0  0  0  0  0  0
    4.7330   44.6360   54.7100 C   0  0  0  0  0  0  0  0  0  0  0  0
    3.6660   45.0300   53.7830 N   0  0  0  0  0  0  0  0  0  0  0  0
    2.9170   44.0240   53.0720 C   0  0  0  0  0  0  0  0  0  0  0  0
    3.4630   42.9200   52.7990 O   0  0  0  0  0  0  0  0  0  0  0  0
    1.5220   44.2560   52.6440 C   0  0  0  0  0  0  0  0  0  0  0  0
    1.0630   44.3560   51.3330 C   0  0  0  0  0  0  0  0  0  0  0  0
   -0.3030   44.6180   51.3940 C   0  0  0  0  0  0  0  0  0  0  0  0
   -0.6130   44.6730   52.7370 C   0  0  0  0  0  0  0  0  0  0  0  0
   -1.8390   44.9100   53.3470 C   0  0  0  0  0  0  0  0  0  0  0  0
   -1.8720   44.9120   54.7490 C   0  0  0  0  0  0  0  0  0  0  0  0
   -0.6890   44.6800   55.4750 C   0  0  0  0  0  0  0  0  0  0  0  0
    0.4800   44.4570   54.8090 N   0  0  0  0  0  0  0  0  0  0  0  0
    0.4850   44.4620   53.4760 N   0  0  0  0  0  0  0  0  0  0  0  0
    3.5530   46.4500   53.4090 C   0  0  0  0  0  0  0  0  0  0  0  0
    4.9140   47.1650   53.5040 C   0  0  0  0  0  0  0  0  0  0  0  0
    7.3850   46.9200   53.1740 C   0  0  0  0  0  0  0  0  0  0  0  0
    7.8010   47.6070   54.1460 O   0  0  0  0  0  0  0  0  0  0  0  0
    9.9905   47.3356   52.7790 H   0  0  0  0  0  0  0  0  0  0  0  0
   10.0759   46.4172   51.2377 H   0  0  0  0  0  0  0  0  0  0  0  0
    9.5063   48.1208   51.2377 H   0  0  0  0  0  0  0  0  0  0  0  0
    7.3870   46.2953   50.0803 H   0  0  0  0  0  0  0  0  0  0  0  0
    7.9083   44.8694   50.9865 H   0  0  0  0  0  0  0  0  0  0  0  0
    5.3056   46.3630   51.1029 H   0  0  0  0  0  0  0  0  0  0  0  0
    5.6415   44.6910   51.6068 H   0  0  0  0  0  0  0  0  0  0  0  0
    6.5142   44.1215   53.6044 H   0  0  0  0  0  0  0  0  0  0  0  0
    6.7554   45.2873   54.9864 H   0  0  0  0  0  0  0  0  0  0  0  0
    4.6837   43.5496   54.8753 H   0  0  0  0  0  0  0  0  0  0  0  0
    4.5921   45.1754   55.6583 H   0  0  0  0  0  0  0  0  0  0  0  0
    1.6669   44.2481   50.4199 H   0  0  0  0  0  0  0  0  0  0  0  0
   -0.9919   44.7531   50.5472 H   0  0  0  0  0  0  0  0  0  0  0  0
   -2.7477   45.0890   52.7535 H   0  0  0  0  0  0  0  0  0  0  0  0
   -2.8186   45.0941   55.2790 H   0  0  0  0  0  0  0  0  0  0  0  0
   -0.7071   44.6785   56.5748 H   0  0  0  0  0  0  0  0  0  0  0  0
    3.1832   46.5197   52.3754 H   0  0  0  0  0  0  0  0  0  0  0  0
    2.8558   46.9377   54.1061 H   0  0  0  0  0  0  0  0  0  0  0  0
    4.9241   48.0120   52.8022 H   0  0  0  0  0  0  0  0  0  0  0  0
    5.0518   47.5160   54.5374 H   0  0  0  0  0  0  0  0  0  0  0  0
  1  2  1  0
  2  3  1  0
  3  4  1  0
  4  5  1  0
  5  6  1  0
  6  7  1  0
  7  8  1  0
  8  9  1  0
  9 10  2  0
  9 11  1  0
 11 12  2  0
 12 13  1  0
 13 14  2  0
 14 15  1  0
 15 16  2  0
 16 17  1  0
 17 18  2  0
 18 19  1  0
  8 20  1  0
 20 21  1  0
  5 22  1  0
 22 23  2  0
 22  2  1  0
 21  5  1  0
 19 11  1  0
 19 14  1  0
  1 24  1  0
  1 25  1  0
  1 26  1  0
  3 27  1  0
  3 28  1  0
  4 29  1  0
  4 30  1  0
  6 31  1  0
  6 32  1  0
  7 33  1  0
  7 34  1  0
 12 35  1  0
 13 36  1  0
 15 37  1  0
 16 38  1  0
 17 39  1  0
 20 40  1  0
 20 41  1  0
 21 42  1  0
 21 43  1  0
M  END
>  <meeko>  (2) 
{"is_sidechain": [false], "free_energy": -8.273, "intermolecular_energy": -8.576, "internal_energy": -0.383}

$$$$
ligand_69_conformer_4_docked
     RDKit          3D

 43 46  0  0  0  0  0  0  0  0999 V2000
   -1.3060   45.1400   56.4710 C   0  0  0  0  0  0  0  0  0  0  0  0
   -0.1810   45.0220   55.5510 N   0  0  0  0  0  0  0  0  0  0  0  0
    1.1980   44.8200   55.9530 C   0  0  0  0  0  0  0  0  0  0  0  0
    2.0160   44.8540   54.6500 C   0  0  0  0  0  0  0  0  0  0  0  0
    1.0110   44.6550   53.4740 C   0  0  0  0  0  0  0  0  0  0  0  0
    1.0370   43.1900   52.9410 C   0  0  0  0  0  0  0  0  0  0  0  0
    1.9430   43.0100   51.7090 C   0  0  0  0  0  0  0  0  0  0  0  0
    3.0160   44.0120   51.6990 N   0  0  0  0  0  0  0  0  0  0  0  0
    4.3780   43.6140   51.9530 C   0  0  0  0  0  0  0  0  0  0  0  0
    4.6070   42.6120   52.6830 O   0  0  0  0  0  0  0  0  0  0  0  0
    5.5200   44.3590   51.3830 C   0  0  0  0  0  0  0  0  0  0  0  0
    6.1550   44.1020   50.1700 C   0  0  0  0  0  0  0  0  0  0  0  0
    7.2000   45.0140   50.0500 C   0  0  0  0  0  0  0  0  0  0  0  0
    7.1590   45.7800   51.1970 C   0  0  0  0  0  0  0  0  0  0  0  0
    7.9840   46.8310   51.5810 C   0  0  0  0  0  0  0  0  0  0  0  0
    7.7170   47.4420   52.8150 C   0  0  0  0  0  0  0  0  0  0  0  0
    6.6470   46.9800   53.6050 C   0  0  0  0  0  0  0  0  0  0  0  0
    5.8800   45.9420   53.1650 N   0  0  0  0  0  0  0  0  0  0  0  0
    6.1560   45.3780   51.9900 N   0  0  0  0  0  0  0  0  0  0  0  0
    2.6430   45.4360   51.6800 C   0  0  0  0  0  0  0  0  0  0  0  0
    1.2640   45.6640   52.3270 C   0  0  0  0  0  0  0  0  0  0  0  0
   -0.2930   44.9270   54.1450 C   0  0  0  0  0  0  0  0  0  0  0  0
   -1.3940   45.0280   53.5390 O   0  0  0  0  0  0  0  0  0  0  0  0
   -0.9381   45.1014   57.5069 H   0  0  0  0  0  0  0  0  0  0  0  0
   -1.8206   46.0970   56.3001 H   0  0  0  0  0  0  0  0  0  0  0  0
   -2.0080   44.3106   56.3001 H   0  0  0  0  0  0  0  0  0  0  0  0
    1.5221   45.6230   56.6313 H   0  0  0  0  0  0  0  0  0  0  0  0
    1.3305   43.8709   56.4931 H   0  0  0  0  0  0  0  0  0  0  0  0
    2.5269   45.8230   54.5501 H   0  0  0  0  0  0  0  0  0  0  0  0
    2.7831   44.0656   54.6479 H   0  0  0  0  0  0  0  0  0  0  0  0
    1.4027   42.5323   53.7433 H   0  0  0  0  0  0  0  0  0  0  0  0
    0.0120   42.9352   52.6337 H   0  0  0  0  0  0  0  0  0  0  0  0
    2.3888   42.0047   51.7332 H   0  0  0  0  0  0  0  0  0  0  0  0
    1.3337   43.1374   50.8021 H   0  0  0  0  0  0  0  0  0  0  0  0
    5.8817   43.3235   49.4425 H   0  0  0  0  0  0  0  0  0  0  0  0
    7.9102   45.1050   49.2150 H   0  0  0  0  0  0  0  0  0  0  0  0
    8.8131   47.1699   50.9425 H   0  0  0  0  0  0  0  0  0  0  0  0
    8.3407   48.2782   53.1639 H   0  0  0  0  0  0  0  0  0  0  0  0
    6.4306   47.4546   54.5735 H   0  0  0  0  0  0  0  0  0  0  0  0
    3.3984   46.0114   52.2352 H   0  0  0  0  0  0  0  0  0  0  0  0
    2.5929   45.7670   50.6322 H   0  0  0  0  0  0  0  0  0  0  0  0
    1.2220   46.6859   52.7320 H   0  0  0  0  0  0  0  0  0  0  0  0
    0.4902   45.5198   51.5586 H   0  0  0  0  0  0  0  0  0  0  0  0
  1  2  1  0
  2  3  1  0
  3  4  1  0
  4  5  1  0
  5  6  1  0
  6  7  1  0
  7  8  1  0
  8  9  1  0
  9 10  2  0
  9 11  1  0
 11 12  2  0
 12 13  1  0
 13 14  2  0
 14 15  1  0
 15 16  2  0
 16 17  1  0
 17 18  2  0
 18 19  1  0
  8 20  1  0
 20 21  1  0
  5 22  1  0
 22 23  2  0
 22  2  1  0
 21  5  1  0
 19 11  1  0
 19 14  1  0
  1 24  1  0
  1 25  1  0
  1 26  1  0
  3 27  1  0
  3 28  1  0
  4 29  1  0
  4 30  1  0
  6 31  1  0
  6 32  1  0
  7 33  1  0
  7 34  1  0
 12 35  1  0
 13 36  1  0
 15 37  1  0
 16 38  1  0
 17 39  1  0
 20 40  1  0
 20 41  1  0
 21 42  1  0
 21 43  1  0
M  END
>  <meeko>  (3) 
{"is_sidechain": [false], "free_energy": -8.214, "intermolecular_energy": -8.466, "internal_energy": -0.431}

$$$$
ligand_69_conformer_4_docked
     RDKit          3D

 43 46  0  0  0  0  0  0  0  0999 V2000
    9.4630   46.7320   51.5430 C   0  0  0  0  0  0  0  0  0  0  0  0
    8.0870   46.4650   51.9440 N   0  0  0  0  0  0  0  0  0  0  0  0
    7.3300   47.2680   52.8850 C   0  0  0  0  0  0  0  0  0  0  0  0
    5.9820   46.5440   53.0540 C   0  0  0  0  0  0  0  0  0  0  0  0
    5.8460   45.5490   51.8600 C   0  0  0  0  0  0  0  0  0  0  0  0
    4.9090   46.1140   50.7480 C   0  0  0  0  0  0  0  0  0  0  0  0
    3.4620   45.6020   50.8600 C   0  0  0  0  0  0  0  0  0  0  0  0
    3.1360   45.2540   52.2470 N   0  0  0  0  0  0  0  0  0  0  0  0
    2.2180   46.0710   53.0020 C   0  0  0  0  0  0  0  0  0  0  0  0
    2.1170   47.2990   52.7350 O   0  0  0  0  0  0  0  0  0  0  0  0
    1.3950   45.5060   54.0910 C   0  0  0  0  0  0  0  0  0  0  0  0
    1.7730   45.3550   55.4230 C   0  0  0  0  0  0  0  0  0  0  0  0
    0.7120   44.7450   56.0860 C   0  0  0  0  0  0  0  0  0  0  0  0
   -0.2610   44.5460   55.1290 C   0  0  0  0  0  0  0  0  0  0  0  0
   -1.5190   43.9690   55.2610 C   0  0  0  0  0  0  0  0  0  0  0  0
   -2.3160   43.8900   54.1090 C   0  0  0  0  0  0  0  0  0  0  0  0
   -1.8260   44.3850   52.8870 C   0  0  0  0  0  0  0  0  0  0  0  0
   -0.5800   44.9360   52.8300 N   0  0  0  0  0  0  0  0  0  0  0  0
    0.1580   44.9980   53.9390 N   0  0  0  0  0  0  0  0  0  0  0  0
    3.9460   44.2230   52.9190 C   0  0  0  0  0  0  0  0  0  0  0  0
    5.3670   44.1530   52.3290 C   0  0  0  0  0  0  0  0  0  0  0  0
    7.2490   45.4890   51.3580 C   0  0  0  0  0  0  0  0  0  0  0  0
    7.6530   44.6830   50.4760 O   0  0  0  0  0  0  0  0  0  0  0  0
   10.0891   46.8535   52.4392 H   0  0  0  0  0  0  0  0  0  0  0  0
    9.8401   45.8903   50.9436 H   0  0  0  0  0  0  0  0  0  0  0  0
    9.4980   47.6537   50.9436 H   0  0  0  0  0  0  0  0  0  0  0  0
    7.8568   47.3292   53.8487 H   0  0  0  0  0  0  0  0  0  0  0  0
    7.1967   48.2992   52.5261 H   0  0  0  0  0  0  0  0  0  0  0  0
    5.9649   45.9950   54.0071 H   0  0  0  0  0  0  0  0  0  0  0  0
    5.1490   47.2623   53.0633 H   0  0  0  0  0  0  0  0  0  0  0  0
    4.8988   47.2114   50.8230 H   0  0  0  0  0  0  0  0  0  0  0  0
    5.3043   45.7709   49.7805 H   0  0  0  0  0  0  0  0  0  0  0  0
    2.7741   46.3879   50.5146 H   0  0  0  0  0  0  0  0  0  0  0  0
    3.3589   44.7007   50.2379 H   0  0  0  0  0  0  0  0  0  0  0  0
    2.7313   45.6608   55.8680 H   0  0  0  0  0  0  0  0  0  0  0  0
    0.6603   44.4773   57.1517 H   0  0  0  0  0  0  0  0  0  0  0  0
   -1.8753   43.5895   56.2300 H   0  0  0  0  0  0  0  0  0  0  0  0
   -3.3197   43.4429   54.1613 H   0  0  0  0  0  0  0  0  0  0  0  0
   -2.4460   44.3278   51.9802 H   0  0  0  0  0  0  0  0  0  0  0  0
    4.0145   44.4634   53.9902 H   0  0  0  0  0  0  0  0  0  0  0  0
    3.4599   43.2478   52.7686 H   0  0  0  0  0  0  0  0  0  0  0  0
    6.0571   43.7762   53.0983 H   0  0  0  0  0  0  0  0  0  0  0  0
    5.3513   43.4791   51.4598 H   0  0  0  0  0  0  0  0  0  0  0  0
  1  2  1  0
  2  3  1  0
  3  4  1  0
  4  5  1  0
  5  6  1  0
  6  7  1  0
  7  8  1  0
  8  9  1  0
  9 10  2  0
  9 11  1  0
 11 12  2  0
 12 13  1  0
 13 14  2  0
 14 15  1  0
 15 16  2  0
 16 17  1  0
 17 18  2  0
 18 19  1  0
  8 20  1  0
 20 21  1  0
  5 22  1  0
 22 23  2  0
 22  2  1  0
 21  5  1  0
 19 11  1  0
 19 14  1  0
  1 24  1  0
  1 25  1  0
  1 26  1  0
  3 27  1  0
  3 28  1  0
  4 29  1  0
  4 30  1  0
  6 31  1  0
  6 32  1  0
  7 33  1  0
  7 34  1  0
 12 35  1  0
 13 36  1  0
 15 37  1  0
 16 38  1  0
 17 39  1  0
 20 40  1  0
 20 41  1  0
 21 42  1  0
 21 43  1  0
M  END
>  <meeko>  (4) 
{"is_sidechain": [false], "free_energy": -7.925, "intermolecular_energy": -8.281, "internal_energy": -0.309}

$$$$
ligand_69_conformer_4_docked
     RDKit          3D

 43 46  0  0  0  0  0  0  0  0999 V2000
    9.1190   46.4990   53.4350 C   0  0  0  0  0  0  0  0  0  0  0  0
    7.7420   46.0500   53.2670 N   0  0  0  0  0  0  0  0  0  0  0  0
    6.7930   45.8690   54.3490 C   0  0  0  0  0  0  0  0  0  0  0  0
    5.5230   45.3000   53.6940 C   0  0  0  0  0  0  0  0  0  0  0  0
    5.6410   45.5680   52.1610 C   0  0  0  0  0  0  0  0  0  0  0  0
    4.7890   46.8000   51.7280 C   0  0  0  0  0  0  0  0  0  0  0  0
    3.4030   46.4130   51.1800 C   0  0  0  0  0  0  0  0  0  0  0  0
    2.9530   45.1380   51.7480 N   0  0  0  0  0  0  0  0  0  0  0  0
    1.8670   45.1120   52.6970 C   0  0  0  0  0  0  0  0  0  0  0  0
    1.6650   46.1130   53.4370 O   0  0  0  0  0  0  0  0  0  0  0  0
    0.9860   43.9340   52.8320 C   0  0  0  0  0  0  0  0  0  0  0  0
    1.1810   42.8440   53.6780 C   0  0  0  0  0  0  0  0  0  0  0  0
    0.1370   41.9530   53.4500 C   0  0  0  0  0  0  0  0  0  0  0  0
   -0.6430   42.5340   52.4720 C   0  0  0  0  0  0  0  0  0  0  0  0
   -1.8060   42.0580   51.8780 C   0  0  0  0  0  0  0  0  0  0  0  0
   -2.4040   42.8630   50.8960 C   0  0  0  0  0  0  0  0  0  0  0  0
   -1.8180   44.0950   50.5530 C   0  0  0  0  0  0  0  0  0  0  0  0
   -0.6740   44.4980   51.1760 N   0  0  0  0  0  0  0  0  0  0  0  0
   -0.1250   43.7140   52.1040 N   0  0  0  0  0  0  0  0  0  0  0  0
    3.7840   43.9420   51.5300 C   0  0  0  0  0  0  0  0  0  0  0  0
    5.2640   44.3160   51.3300 C   0  0  0  0  0  0  0  0  0  0  0  0
    7.0920   45.8820   52.0230 C   0  0  0  0  0  0  0  0  0  0  0  0
    7.6850   46.0230   50.9180 O   0  0  0  0  0  0  0  0  0  0  0  0
    9.3517   46.5749   54.5074 H   0  0  0  0  0  0  0  0  0  0  0  0
    9.8005   45.7765   52.9622 H   0  0  0  0  0  0  0  0  0  0  0  0
    9.2437   47.4843   52.9622 H   0  0  0  0  0  0  0  0  0  0  0  0
    7.1899   45.1637   55.0940 H   0  0  0  0  0  0  0  0  0  0  0  0
    6.5913   46.8133   54.8759 H   0  0  0  0  0  0  0  0  0  0  0  0
    5.4518   44.2189   53.8841 H   0  0  0  0  0  0  0  0  0  0  0  0
    4.6213   45.7755   54.1074 H   0  0  0  0  0  0  0  0  0  0  0  0
    4.6500   47.4540   52.6015 H   0  0  0  0  0  0  0  0  0  0  0  0
    5.3329   47.3063   50.9169 H   0  0  0  0  0  0  0  0  0  0  0  0
    2.6797   47.1993   51.4421 H   0  0  0  0  0  0  0  0  0  0  0  0
    3.4745   46.3053   50.0876 H   0  0  0  0  0  0  0  0  0  0  0  0
    2.0066   42.7125   54.3929 H   0  0  0  0  0  0  0  0  0  0  0  0
   -0.0314   40.9860   53.9466 H   0  0  0  0  0  0  0  0  0  0  0  0
   -2.2403   41.0893   52.1660 H   0  0  0  0  0  0  0  0  0  0  0  0
   -3.3267   42.5320   50.3969 H   0  0  0  0  0  0  0  0  0  0  0  0
   -2.2812   44.7313   49.7846 H   0  0  0  0  0  0  0  0  0  0  0  0
    3.6968   43.2811   52.4050 H   0  0  0  0  0  0  0  0  0  0  0  0
    3.4290   43.4344   50.6210 H   0  0  0  0  0  0  0  0  0  0  0  0
    5.8938   43.4716   51.6470 H   0  0  0  0  0  0  0  0  0  0  0  0
    5.4262   44.5417   50.2657 H   0  0  0  0  0  0  0  0  0  0  0  0
  1  2  1  0
  2  3  1  0
  3  4  1  0
  4  5  1  0
  5  6  1  0
  6  7  1  0
  7  8  1  0
  8  9  1  0
  9 10  2  0
  9 11  1  0
 11 12  2  0
 12 13  1  0
 13 14  2  0
 14 15  1  0
 15 16  2  0
 16 17  1  0
 17 18  2  0
 18 19  1  0
  8 20  1  0
 20 21  1  0
  5 22  1  0
 22 23  2  0
 22  2  1  0
 21  5  1  0
 19 11  1  0
 19 14  1  0
  1 24  1  0
  1 25  1  0
  1 26  1  0
  3 27  1  0
  3 28  1  0
  4 29  1  0
  4 30  1  0
  6 31  1  0
  6 32  1  0
  7 33  1  0
  7 34  1  0
 12 35  1  0
 13 36  1  0
 15 37  1  0
 16 38  1  0
 17 39  1  0
 20 40  1  0
 20 41  1  0
 21 42  1  0
 21 43  1  0
M  END
>  <meeko>  (5) 
{"is_sidechain": [false], "free_energy": -7.699, "intermolecular_energy": -8.018, "internal_energy": -0.334}

$$$$
