MODEL 1
REMARK VINA RESULT:    -8.573      0.000      0.000
REMARK INTER + INTRA:         -12.754
REMARK INTER:                 -12.082
REMARK INTRA:                  -0.672
REMARK UNBOUND:                -0.672
REMARK SMILES COc1cccc(CCC(=O)Nc2ccc(Nc3ncccn3)cc2)c1
REMARK SMILES IDX 9 1 8 2 7 3 3 4 4 5 26 6 5 7 6 8 2 9 1 10 10 11 11 12 12 13
REMARK SMILES IDX 13 15 14 16 25 17 15 18 24 19 16 20 17 21 18 23 19 24 23 25
REMARK SMILES IDX 20 26 22 27 21 28
REMARK H PARENT 12 14 17 22
ROOT
ATOM      1  C   UNL     1       5.418  45.640  52.787  1.00  0.00     0.105 C 
ENDROOT
BRANCH   1   2
ATOM      2  C   UNL     1       6.145  46.811  52.113  1.00  0.00     0.045 C 
BRANCH   2   3
ATOM      3  C   UNL     1       7.590  46.893  52.537  1.00  0.00    -0.044 A 
ATOM      4  C   UNL     1       9.269  47.387  54.241  1.00  0.00     0.119 A 
ATOM      5  C   UNL     1      10.266  46.922  53.376  1.00  0.00     0.046 A 
ATOM      6  C   UNL     1       7.926  47.368  53.816  1.00  0.00     0.050 A 
ATOM      7  C   UNL     1       9.937  46.441  52.106  1.00  0.00     0.004 A 
ATOM      8  C   UNL     1       8.605  46.425  51.688  1.00  0.00     0.004 A 
BRANCH   4   9
ATOM      9  O   UNL     1       9.651  47.851  55.508  1.00  0.00    -0.497 OA
ATOM     10  C   UNL     1      10.903  47.566  56.125  1.00  0.00     0.278 C 
ENDBRANCH   4   9
ENDBRANCH   2   3
ENDBRANCH   1   2
BRANCH   1  11
ATOM     11  C   UNL     1       4.842  44.693  51.773  1.00  0.00     0.224 C 
ATOM     12  O   UNL     1       3.877  45.072  51.056  1.00  0.00    -0.275 OA
ATOM     13  N   UNL     1       5.460  43.414  51.558  1.00  0.00    -0.326 N 
ATOM     14  H   UNL     1       6.352  43.213  52.065  1.00  0.00     0.169 HD
BRANCH  13  15
ATOM     15  C   UNL     1       5.055  42.492  50.532  1.00  0.00     0.041 A 
ATOM     16  C   UNL     1       5.844  42.358  49.381  1.00  0.00     0.028 A 
ATOM     17  C   UNL     1       3.919  41.680  50.684  1.00  0.00     0.028 A 
ATOM     18  C   UNL     1       5.480  41.459  48.374  1.00  0.00     0.028 A 
ATOM     19  C   UNL     1       3.558  40.780  49.679  1.00  0.00     0.028 A 
ATOM     20  C   UNL     1       4.319  40.678  48.506  1.00  0.00     0.041 A 
BRANCH  20  21
ATOM     21  N   UNL     1       3.939  39.728  47.497  1.00  0.00    -0.324 N 
ATOM     22  H   UNL     1       4.114  38.714  47.683  1.00  0.00     0.170 HD
BRANCH  21  23
ATOM     23  C   UNL     1       3.236  40.067  46.294  1.00  0.00     0.227 A 
ATOM     24  N   UNL     1       3.548  39.433  45.131  1.00  0.00    -0.221 NA
ATOM     25  N   UNL     1       2.222  40.978  46.310  1.00  0.00    -0.221 NA
ATOM     26  C   UNL     1       2.882  39.708  43.980  1.00  0.00     0.117 A 
ATOM     27  C   UNL     1       1.533  41.280  45.179  1.00  0.00     0.117 A 
ATOM     28  C   UNL     1       1.852  40.647  43.980  1.00  0.00     0.040 A 
ENDBRANCH  21  23
ENDBRANCH  20  21
ENDBRANCH  13  15
ENDBRANCH   1  11
TORSDOF 7
ENDMDL
MODEL 2
REMARK VINA RESULT:    -8.133      1.650      2.404
REMARK INTER + INTRA:         -12.133
REMARK INTER:                 -11.460
REMARK INTRA:                  -0.673
REMARK UNBOUND:                -0.672
REMARK SMILES COc1cccc(CCC(=O)Nc2ccc(Nc3ncccn3)cc2)c1
REMARK SMILES IDX 9 1 8 2 7 3 3 4 4 5 26 6 5 7 6 8 2 9 1 10 10 11 11 12 12 13
REMARK SMILES IDX 13 15 14 16 25 17 15 18 24 19 16 20 17 21 18 23 19 24 23 25
REMARK SMILES IDX 20 26 22 27 21 28
REMARK H PARENT 12 14 17 22
ROOT
ATOM      1  C   UNL     1       5.247  46.555  53.192  1.00  0.00     0.105 C 
ENDROOT
BRANCH   1   2
ATOM      2  C   UNL     1       6.200  47.602  52.599  1.00  0.00     0.045 C 
BRANCH   2   3
ATOM      3  C   UNL     1       7.613  47.085  52.504  1.00  0.00    -0.044 A 
ATOM      4  C   UNL     1       9.297  45.728  51.368  1.00  0.00     0.119 A 
ATOM      5  C   UNL     1      10.269  46.224  52.244  1.00  0.00     0.046 A 
ATOM      6  C   UNL     1       7.964  46.166  51.501  1.00  0.00     0.050 A 
ATOM      7  C   UNL     1       9.928  47.144  53.238  1.00  0.00     0.004 A 
ATOM      8  C   UNL     1       8.606  47.574  53.368  1.00  0.00     0.004 A 
BRANCH   4   9
ATOM      9  O   UNL     1       9.694  44.813  50.382  1.00  0.00    -0.497 OA
ATOM     10  C   UNL     1       8.863  44.375  49.312  1.00  0.00     0.278 C 
ENDBRANCH   4   9
ENDBRANCH   2   3
ENDBRANCH   1   2
BRANCH   1  11
ATOM     11  C   UNL     1       4.816  45.555  52.158  1.00  0.00     0.224 C 
ATOM     12  O   UNL     1       4.278  45.963  51.093  1.00  0.00    -0.275 OA
ATOM     13  N   UNL     1       5.113  44.161  52.343  1.00  0.00    -0.326 N 
ATOM     14  H   UNL     1       5.701  43.895  53.166  1.00  0.00     0.169 HD
BRANCH  13  15
ATOM     15  C   UNL     1       4.847  43.148  51.359  1.00  0.00     0.041 A 
ATOM     16  C   UNL     1       5.838  42.829  50.419  1.00  0.00     0.028 A 
ATOM     17  C   UNL     1       3.640  42.431  51.354  1.00  0.00     0.028 A 
ATOM     18  C   UNL     1       5.610  41.838  49.460  1.00  0.00     0.028 A 
ATOM     19  C   UNL     1       3.414  41.439  50.396  1.00  0.00     0.028 A 
ATOM     20  C   UNL     1       4.384  41.150  49.427  1.00  0.00     0.041 A 
BRANCH  20  21
ATOM     21  N   UNL     1       4.136  40.110  48.467  1.00  0.00    -0.324 N 
ATOM     22  H   UNL     1       4.212  39.117  48.785  1.00  0.00     0.170 HD
BRANCH  21  23
ATOM     23  C   UNL     1       3.687  40.342  47.124  1.00  0.00     0.227 A 
ATOM     24  N   UNL     1       4.479  41.034  46.261  1.00  0.00    -0.221 NA
ATOM     25  N   UNL     1       2.502  39.831  46.686  1.00  0.00    -0.221 NA
ATOM     26  C   UNL     1       4.099  41.245  44.975  1.00  0.00     0.117 A 
ATOM     27  C   UNL     1       2.087  40.021  45.407  1.00  0.00     0.117 A 
ATOM     28  C   UNL     1       2.882  40.740  44.518  1.00  0.00     0.040 A 
ENDBRANCH  21  23
ENDBRANCH  20  21
ENDBRANCH  13  15
ENDBRANCH   1  11
TORSDOF 7
ENDMDL
MODEL 3
REMARK VINA RESULT:    -8.125      4.261      6.461
REMARK INTER + INTRA:         -12.122
REMARK INTER:                 -11.939
REMARK INTRA:                  -0.183
REMARK UNBOUND:                -0.672
REMARK SMILES COc1cccc(CCC(=O)Nc2ccc(Nc3ncccn3)cc2)c1
REMARK SMILES IDX 9 1 8 2 7 3 3 4 4 5 26 6 5 7 6 8 2 9 1 10 10 11 11 12 12 13
REMARK SMILES IDX 13 15 14 16 25 17 15 18 24 19 16 20 17 21 18 23 19 24 23 25
REMARK SMILES IDX 20 26 22 27 21 28
REMARK H PARENT 12 14 17 22
ROOT
ATOM      1  C   UNL     1       7.585  44.297  50.034  1.00  0.00     0.105 C 
ENDROOT
BRANCH   1   2
ATOM      2  C   UNL     1       7.748  45.821  50.102  1.00  0.00     0.045 C 
BRANCH   2   3
ATOM      3  C   UNL     1       8.311  46.267  51.429  1.00  0.00    -0.044 A 
ATOM      4  C   UNL     1       7.974  46.893  53.766  1.00  0.00     0.119 A 
ATOM      5  C   UNL     1       9.362  46.967  53.932  1.00  0.00     0.046 A 
ATOM      6  C   UNL     1       7.451  46.538  52.506  1.00  0.00     0.050 A 
ATOM      7  C   UNL     1      10.221  46.691  52.867  1.00  0.00     0.004 A 
ATOM      8  C   UNL     1       9.700  46.340  51.620  1.00  0.00     0.004 A 
BRANCH   4   9
ATOM      9  O   UNL     1       7.155  47.171  54.870  1.00  0.00    -0.497 OA
ATOM     10  C   UNL     1       5.777  46.822  54.956  1.00  0.00     0.278 C 
ENDBRANCH   4   9
ENDBRANCH   2   3
ENDBRANCH   1   2
BRANCH   1  11
ATOM     11  C   UNL     1       6.188  43.876  50.386  1.00  0.00     0.224 C 
ATOM     12  O   UNL     1       5.878  42.656  50.320  1.00  0.00    -0.275 OA
ATOM     13  N   UNL     1       5.255  44.845  50.892  1.00  0.00    -0.326 N 
ATOM     14  H   UNL     1       5.610  45.811  51.078  1.00  0.00     0.169 HD
BRANCH  13  15
ATOM     15  C   UNL     1       3.938  44.518  51.365  1.00  0.00     0.041 A 
ATOM     16  C   UNL     1       3.767  43.402  52.197  1.00  0.00     0.028 A 
ATOM     17  C   UNL     1       2.829  45.325  51.062  1.00  0.00     0.028 A 
ATOM     18  C   UNL     1       2.499  43.069  52.682  1.00  0.00     0.028 A 
ATOM     19  C   UNL     1       1.563  44.993  51.550  1.00  0.00     0.028 A 
ATOM     20  C   UNL     1       1.381  43.851  52.342  1.00  0.00     0.041 A 
BRANCH  20  21
ATOM     21  N   UNL     1       0.072  43.544  52.850  1.00  0.00    -0.324 N 
ATOM     22  H   UNL     1      -0.544  42.919  52.281  1.00  0.00     0.170 HD
BRANCH  21  23
ATOM     23  C   UNL     1      -0.409  43.952  54.139  1.00  0.00     0.227 A 
ATOM     24  N   UNL     1      -1.530  43.375  54.651  1.00  0.00    -0.221 NA
ATOM     25  N   UNL     1       0.273  44.869  54.880  1.00  0.00    -0.221 NA
ATOM     26  C   UNL     1      -1.995  43.715  55.881  1.00  0.00     0.117 A 
ATOM     27  C   UNL     1      -0.161  45.236  56.114  1.00  0.00     0.117 A 
ATOM     28  C   UNL     1      -1.314  44.662  56.644  1.00  0.00     0.040 A 
ENDBRANCH  21  23
ENDBRANCH  20  21
ENDBRANCH  13  15
ENDBRANCH   1  11
TORSDOF 7
ENDMDL
MODEL 4
REMARK VINA RESULT:    -8.014      4.276      5.862
REMARK INTER + INTRA:         -11.966
REMARK INTER:                 -11.423
REMARK INTRA:                  -0.543
REMARK UNBOUND:                -0.672
REMARK SMILES COc1cccc(CCC(=O)Nc2ccc(Nc3ncccn3)cc2)c1
REMARK SMILES IDX 9 1 8 2 7 3 3 4 4 5 26 6 5 7 6 8 2 9 1 10 10 11 11 12 12 13
REMARK SMILES IDX 13 15 14 16 25 17 15 18 24 19 16 20 17 21 18 23 19 24 23 25
REMARK SMILES IDX 20 26 22 27 21 28
REMARK H PARENT 12 14 17 22
ROOT
ATOM      1  C   UNL     1       6.907  44.337  50.312  1.00  0.00     0.105 C 
ENDROOT
BRANCH   1   2
ATOM      2  C   UNL     1       7.625  45.680  50.122  1.00  0.00     0.045 C 
BRANCH   2   3
ATOM      3  C   UNL     1       8.247  46.171  51.405  1.00  0.00    -0.044 A 
ATOM      4  C   UNL     1       8.014  46.885  53.729  1.00  0.00     0.119 A 
ATOM      5  C   UNL     1       9.408  46.956  53.833  1.00  0.00     0.046 A 
ATOM      6  C   UNL     1       7.435  46.486  52.508  1.00  0.00     0.050 A 
ATOM      7  C   UNL     1      10.220  46.636  52.743  1.00  0.00     0.004 A 
ATOM      8  C   UNL     1       9.643  46.243  51.534  1.00  0.00     0.004 A 
BRANCH   4   9
ATOM      9  O   UNL     1       7.245  47.209  54.856  1.00  0.00    -0.497 OA
ATOM     10  C   UNL     1       5.840  47.000  54.957  1.00  0.00     0.278 C 
ENDBRANCH   4   9
ENDBRANCH   2   3
ENDBRANCH   1   2
BRANCH   1  11
ATOM     11  C   UNL     1       5.547  44.522  50.921  1.00  0.00     0.224 C 
ATOM     12  O   UNL     1       4.769  45.388  50.438  1.00  0.00    -0.275 OA
ATOM     13  N   UNL     1       5.109  43.645  51.972  1.00  0.00    -0.326 N 
ATOM     14  H   UNL     1       5.729  42.843  52.227  1.00  0.00     0.169 HD
BRANCH  13  15
ATOM     15  C   UNL     1       3.786  43.668  52.534  1.00  0.00     0.041 A 
ATOM     16  C   UNL     1       3.471  44.627  53.507  1.00  0.00     0.028 A 
ATOM     17  C   UNL     1       2.785  42.789  52.087  1.00  0.00     0.028 A 
ATOM     18  C   UNL     1       2.188  44.679  54.060  1.00  0.00     0.028 A 
ATOM     19  C   UNL     1       1.503  42.844  52.638  1.00  0.00     0.028 A 
ATOM     20  C   UNL     1       1.199  43.770  53.645  1.00  0.00     0.041 A 
BRANCH  20  21
ATOM     21  N   UNL     1      -0.134  43.822  54.179  1.00  0.00    -0.324 N 
ATOM     22  H   UNL     1      -0.258  43.689  55.209  1.00  0.00     0.170 HD
BRANCH  21  23
ATOM     23  C   UNL     1      -1.299  44.150  53.409  1.00  0.00     0.227 A 
ATOM     24  N   UNL     1      -1.241  45.160  52.500  1.00  0.00    -0.221 NA
ATOM     25  N   UNL     1      -2.448  43.428  53.538  1.00  0.00    -0.221 NA
ATOM     26  C   UNL     1      -2.316  45.477  51.732  1.00  0.00     0.117 A 
ATOM     27  C   UNL     1      -3.544  43.714  52.789  1.00  0.00     0.117 A 
ATOM     28  C   UNL     1      -3.501  44.755  51.864  1.00  0.00     0.040 A 
ENDBRANCH  21  23
ENDBRANCH  20  21
ENDBRANCH  13  15
ENDBRANCH   1  11
TORSDOF 7
ENDMDL
MODEL 5
REMARK VINA RESULT:    -7.876      5.304      7.585
REMARK INTER + INTRA:         -11.771
REMARK INTER:                 -11.079
REMARK INTRA:                  -0.692
REMARK UNBOUND:                -0.672
REMARK SMILES COc1cccc(CCC(=O)Nc2ccc(Nc3ncccn3)cc2)c1
REMARK SMILES IDX 9 1 8 2 7 3 3 4 4 5 26 6 5 7 6 8 2 9 1 10 10 11 11 12 12 13
REMARK SMILES IDX 13 15 14 16 25 17 15 18 24 19 16 20 17 21 18 23 19 24 23 25
REMARK SMILES IDX 20 26 22 27 21 28
REMARK H PARENT 12 14 17 22
ROOT
ATOM      1  C   UNL     1       5.777  45.606  51.659  1.00  0.00     0.105 C 
ENDROOT
BRANCH   1   2
ATOM      2  C   UNL     1       6.072  46.811  52.561  1.00  0.00     0.045 C 
BRANCH   2   3
ATOM      3  C   UNL     1       7.544  46.936  52.867  1.00  0.00    -0.044 A 
ATOM      4  C   UNL     1       9.340  47.453  54.439  1.00  0.00     0.119 A 
ATOM      5  C   UNL     1      10.277  47.043  53.483  1.00  0.00     0.046 A 
ATOM      6  C   UNL     1       7.968  47.395  54.126  1.00  0.00     0.050 A 
ATOM      7  C   UNL     1       9.861  46.579  52.234  1.00  0.00     0.004 A 
ATOM      8  C   UNL     1       8.501  46.524  51.926  1.00  0.00     0.004 A 
BRANCH   4   9
ATOM      9  O   UNL     1       9.810  47.903  55.682  1.00  0.00    -0.497 OA
ATOM     10  C   UNL     1      11.054  47.517  56.258  1.00  0.00     0.278 C 
ENDBRANCH   4   9
ENDBRANCH   2   3
ENDBRANCH   1   2
BRANCH   1  11
ATOM     11  C   UNL     1       4.396  45.065  51.897  1.00  0.00     0.224 C 
ATOM     12  O   UNL     1       4.101  43.919  51.463  1.00  0.00    -0.275 OA
ATOM     13  N   UNL     1       3.466  45.809  52.701  1.00  0.00    -0.326 N 
ATOM     14  H   UNL     1       3.814  46.677  53.169  1.00  0.00     0.169 HD
BRANCH  13  15
ATOM     15  C   UNL     1       2.169  45.322  53.081  1.00  0.00     0.041 A 
ATOM     16  C   UNL     1       2.000  44.733  54.343  1.00  0.00     0.028 A 
ATOM     17  C   UNL     1       1.053  45.475  52.241  1.00  0.00     0.028 A 
ATOM     18  C   UNL     1       0.746  44.263  54.743  1.00  0.00     0.028 A 
ATOM     19  C   UNL     1      -0.200  45.007  52.643  1.00  0.00     0.028 A 
ATOM     20  C   UNL     1      -0.361  44.376  53.884  1.00  0.00     0.041 A 
BRANCH  20  21
ATOM     21  N   UNL     1      -1.666  43.924  54.283  1.00  0.00    -0.324 N 
ATOM     22  H   UNL     1      -2.225  43.365  53.599  1.00  0.00     0.170 HD
BRANCH  21  23
ATOM     23  C   UNL     1      -2.211  44.098  55.598  1.00  0.00     0.227 A 
ATOM     24  N   UNL     1      -2.474  45.352  56.057  1.00  0.00    -0.221 NA
ATOM     25  N   UNL     1      -2.522  43.021  56.374  1.00  0.00    -0.221 NA
ATOM     26  C   UNL     1      -3.019  45.551  57.284  1.00  0.00     0.117 A 
ATOM     27  C   UNL     1      -3.067  43.179  57.608  1.00  0.00     0.117 A 
ATOM     28  C   UNL     1      -3.328  44.458  58.093  1.00  0.00     0.040 A 
ENDBRANCH  21  23
ENDBRANCH  20  21
ENDBRANCH  13  15
ENDBRANCH   1  11
TORSDOF 7
ENDMDL
