ligand_28_conformer_3_docked
     RDKit          3D

 55 60  0  0  0  0  0  0  0  0999 V2000
    9.9010   47.2020   54.4560 C   0  0  0  0  0  0  0  0  0  0  0  0
    9.6660   46.6790   53.0760 C   0  0  0  0  0  0  0  0  0  0  0  0
   10.6320   46.4070   52.1100 C   0  0  0  0  0  0  0  0  0  0  0  0
   10.0610   45.8660   51.0080 N   0  0  0  0  0  0  0  0  0  0  0  0
    8.7490   45.7900   51.2830 C   0  0  0  0  0  0  0  0  0  0  0  0
    7.7920   45.2810   50.4710 N   0  0  0  0  0  0  0  0  0  0  0  0
    6.4990   45.2480   50.9090 C   0  0  0  0  0  0  0  0  0  0  0  0
    6.1480   45.7380   52.1970 C   0  0  0  0  0  0  0  0  0  0  0  0
    4.7380   45.6770   52.6540 C   0  0  0  0  0  0  0  0  0  0  0  0
    4.0530   46.7370   52.6850 O   0  0  0  0  0  0  0  0  0  0  0  0
    4.1400   44.4400   53.0690 N   0  0  0  0  0  0  0  0  0  0  0  0
    2.7130   44.3600   53.3630 C   0  0  1  0  0  0  0  0  0  0  0  0
    1.8250   44.3900   52.1250 C   0  0  2  0  0  0  0  0  0  0  0  0
    0.3710   44.7690   52.3670 C   0  0  0  0  0  0  0  0  0  0  0  0
   -0.1930   43.7140   53.1960 N   0  0  0  0  0  0  0  0  0  0  0  0
   -1.4800   43.8310   53.8280 C   0  0  0  0  0  0  0  0  0  0  0  0
   -2.4160   43.0570   53.4860 O   0  0  0  0  0  0  0  0  0  0  0  0
   -1.7410   44.8530   54.8600 C   0  0  0  0  0  0  0  0  0  0  0  0
   -3.0240   45.4530   54.9490 C   0  0  0  0  0  0  0  0  0  0  0  0
   -3.2920   46.4280   55.9260 C   0  0  0  0  0  0  0  0  0  0  0  0
   -2.2690   46.7680   56.8040 C   0  0  0  0  0  0  0  0  0  0  0  0
   -2.3130   47.6770   57.7960 N   0  0  0  0  0  0  0  0  0  0  0  0
   -1.0640   47.6040   58.3240 C   0  0  0  0  0  0  0  0  0  0  0  0
   -0.6450   48.4290   59.4130 N   0  0  0  0  0  0  0  0  0  0  0  0
   -0.2620   46.6950   57.7130 N   0  0  0  0  0  0  0  0  0  0  0  0
    1.1420   46.4100   58.0150 C   0  0  0  0  0  0  0  0  0  0  0  0
   -1.0370   46.1800   56.7420 C   0  0  0  0  0  0  0  0  0  0  0  0
   -0.7320   45.2130   55.7820 C   0  0  0  0  0  0  0  0  0  0  0  0
    0.7690   42.6680   53.5150 C   0  0  0  0  0  0  0  0  0  0  0  0
    2.0750   43.0750   52.8530 C   0  0  2  0  0  0  0  0  0  0  0  0
    7.1700   46.2530   53.0310 C   0  0  0  0  0  0  0  0  0  0  0  0
    8.4670   46.2680   52.5300 C   0  0  0  0  0  0  0  0  0  0  0  0
    9.5661   46.4567   55.1925 H   0  0  0  0  0  0  0  0  0  0  0  0
   10.9742   47.3990   54.5956 H   0  0  0  0  0  0  0  0  0  0  0  0
    9.3357   48.1352   54.5956 H   0  0  0  0  0  0  0  0  0  0  0  0
   11.7079   46.6041   52.2262 H   0  0  0  0  0  0  0  0  0  0  0  0
   10.5440   45.5560   50.1360 H   0  0  0  0  0  0  0  0  0  0  0  0
    5.7164   44.8358   50.2550 H   0  0  0  0  0  0  0  0  0  0  0  0
    4.7270   43.5830   53.1930 H   0  0  0  0  0  0  0  0  0  0  0  0
    2.7299   44.9050   54.3184 H   0  0  0  0  0  0  0  0  0  0  0  0
    1.9688   44.8269   51.1258 H   0  0  0  0  0  0  0  0  0  0  0  0
    0.3110   45.7360   52.8879 H   0  0  0  0  0  0  0  0  0  0  0  0
   -0.1789   44.8706   51.4198 H   0  0  0  0  0  0  0  0  0  0  0  0
   -3.8160   45.1525   54.2473 H   0  0  0  0  0  0  0  0  0  0  0  0
   -4.2800   46.9068   55.9936 H   0  0  0  0  0  0  0  0  0  0  0  0
   -0.3410   49.4110   59.2340 H   0  0  0  0  0  0  0  0  0  0  0  0
   -0.6340   48.0680   60.3910 H   0  0  0  0  0  0  0  0  0  0  0  0
    1.2840   46.3812   59.1054 H   0  0  0  0  0  0  0  0  0  0  0  0
    1.4198   45.4372   57.5832 H   0  0  0  0  0  0  0  0  0  0  0  0
    1.7771   47.1975   57.5832 H   0  0  0  0  0  0  0  0  0  0  0  0
    0.2631   44.7457   55.7444 H   0  0  0  0  0  0  0  0  0  0  0  0
    0.9016   42.5915   54.6043 H   0  0  0  0  0  0  0  0  0  0  0  0
    0.4269   41.6863   53.1555 H   0  0  0  0  0  0  0  0  0  0  0  0
    2.4936   42.0782   52.6502 H   0  0  0  0  0  0  0  0  0  0  0  0
    6.9456   46.6282   54.0404 H   0  0  0  0  0  0  0  0  0  0  0  0
  1  2  1  0
  2  3  2  0
  3  4  1  0
  4  5  1  0
  5  6  2  0
  6  7  1  0
  7  8  2  0
  8  9  1  0
  9 10  2  0
  9 11  1  0
 11 12  1  0
 12 13  1  0
 13 14  1  0
 14 15  1  0
 15 16  1  0
 16 17  2  0
 16 18  1  0
 18 19  2  0
 19 20  1  0
 20 21  2  0
 21 22  1  0
 22 23  2  0
 23 24  1  0
 23 25  1  0
 25 26  1  0
 25 27  1  0
 27 28  2  0
 15 29  1  0
 29 30  1  0
  8 31  1  0
 31 32  2  0
 32  2  1  0
 32  5  1  0
 30 12  1  0
 30 13  1  0
 28 18  1  0
 27 21  1  0
  1 33  1  0
  1 34  1  0
  1 35  1  0
  3 36  1  0
  4 37  1  0
  7 38  1  0
 11 39  1  0
 12 40  1  1
 13 41  1  6
 14 42  1  0
 14 43  1  0
 19 44  1  0
 20 45  1  0
 24 46  1  0
 24 47  1  0
 26 48  1  0
 26 49  1  0
 26 50  1  0
 28 51  1  0
 29 52  1  0
 29 53  1  0
 30 54  1  6
 31 55  1  0
M  END
>  <meeko>  (1) 
{"is_sidechain": [false], "free_energy": -9.564, "intermolecular_energy": -12.08, "internal_energy": -0.762}

$$$$
ligand_28_conformer_3_docked
     RDKit          3D

 55 60  0  0  0  0  0  0  0  0999 V2000
   -2.4720   47.3650   58.6580 C   0  0  0  0  0  0  0  0  0  0  0  0
   -2.8080   46.0500   58.0320 C   0  0  0  0  0  0  0  0  0  0  0  0
   -3.9470   45.2820   58.2630 C   0  0  0  0  0  0  0  0  0  0  0  0
   -3.9560   44.1930   57.4580 N   0  0  0  0  0  0  0  0  0  0  0  0
   -2.8370   44.2820   56.7210 C   0  0  0  0  0  0  0  0  0  0  0  0
   -2.4480   43.4170   55.7540 N   0  0  0  0  0  0  0  0  0  0  0  0
   -1.2910   43.6610   55.0710 C   0  0  0  0  0  0  0  0  0  0  0  0
   -0.4960   44.8040   55.3600 C   0  0  0  0  0  0  0  0  0  0  0  0
    0.7480   45.0540   54.5930 C   0  0  0  0  0  0  0  0  0  0  0  0
    0.6730   45.2830   53.3540 O   0  0  0  0  0  0  0  0  0  0  0  0
    2.0360   45.0340   55.2280 N   0  0  0  0  0  0  0  0  0  0  0  0
    3.2360   45.4380   54.5020 C   0  0  1  0  0  0  0  0  0  0  0  0
    3.5130   46.9350   54.5540 C   0  0  2  0  0  0  0  0  0  0  0  0
    4.4440   47.4700   53.4760 C   0  0  0  0  0  0  0  0  0  0  0  0
    5.7390   46.8500   53.7100 N   0  0  0  0  0  0  0  0  0  0  0  0
    6.8170   46.9250   52.7600 C   0  0  0  0  0  0  0  0  0  0  0  0
    7.6370   47.8820   52.8230 O   0  0  0  0  0  0  0  0  0  0  0  0
    6.9790   45.9160   51.6960 C   0  0  0  0  0  0  0  0  0  0  0  0
    8.0890   45.9900   50.8180 C   0  0  0  0  0  0  0  0  0  0  0  0
    8.2600   45.0370   49.7980 C   0  0  0  0  0  0  0  0  0  0  0  0
    7.3190   44.0190   49.6940 C   0  0  0  0  0  0  0  0  0  0  0  0
    7.2920   43.0220   48.7910 N   0  0  0  0  0  0  0  0  0  0  0  0
    6.1790   42.3290   49.1440 C   0  0  0  0  0  0  0  0  0  0  0  0
    5.7370   41.1740   48.4270 N   0  0  0  0  0  0  0  0  0  0  0  0
    5.5280   42.8440   50.2180 N   0  0  0  0  0  0  0  0  0  0  0  0
    4.2830   42.3600   50.8150 C   0  0  0  0  0  0  0  0  0  0  0  0
    6.2580   43.9250   50.5500 C   0  0  0  0  0  0  0  0  0  0  0  0
    6.0520   44.8560   51.5700 C   0  0  0  0  0  0  0  0  0  0  0  0
    5.7390   45.9550   54.8590 C   0  0  0  0  0  0  0  0  0  0  0  0
    4.3260   45.9780   55.4180 C   0  0  2  0  0  0  0  0  0  0  0  0
   -0.9330   45.6990   56.3660 C   0  0  0  0  0  0  0  0  0  0  0  0
   -2.1140   45.3960   57.0340 C   0  0  0  0  0  0  0  0  0  0  0  0
   -2.4971   47.2668   59.7533 H   0  0  0  0  0  0  0  0  0  0  0  0
   -1.4656   47.6757   58.3407 H   0  0  0  0  0  0  0  0  0  0  0  0
   -3.2060   48.1204   58.3407 H   0  0  0  0  0  0  0  0  0  0  0  0
   -4.7295   45.5259   58.9966 H   0  0  0  0  0  0  0  0  0  0  0  0
   -4.6890   43.4520   57.4090 H   0  0  0  0  0  0  0  0  0  0  0  0
   -0.9689   42.9623   54.2848 H   0  0  0  0  0  0  0  0  0  0  0  0
    2.1340   44.7020   56.2150 H   0  0  0  0  0  0  0  0  0  0  0  0
    3.1826   44.6872   53.6998 H   0  0  0  0  0  0  0  0  0  0  0  0
    2.8486   47.8032   54.6752 H   0  0  0  0  0  0  0  0  0  0  0  0
    4.0670   47.1996   52.4787 H   0  0  0  0  0  0  0  0  0  0  0  0
    4.5131   48.5671   53.5160 H   0  0  0  0  0  0  0  0  0  0  0  0
    8.8236   46.8003   50.9354 H   0  0  0  0  0  0  0  0  0  0  0  0
    9.1116   45.0953   49.1042 H   0  0  0  0  0  0  0  0  0  0  0  0
    5.7000   41.1910   47.3850 H   0  0  0  0  0  0  0  0  0  0  0  0
    5.4470   40.3060   48.9270 H   0  0  0  0  0  0  0  0  0  0  0  0
    4.3654   42.3920   51.9114 H   0  0  0  0  0  0  0  0  0  0  0  0
    3.4484   42.9992   50.4912 H   0  0  0  0  0  0  0  0  0  0  0  0
    4.0992   41.3249   50.4912 H   0  0  0  0  0  0  0  0  0  0  0  0
    5.1952   44.7675   52.2542 H   0  0  0  0  0  0  0  0  0  0  0  0
    6.0087   44.9351   54.5473 H   0  0  0  0  0  0  0  0  0  0  0  0
    6.4727   46.2739   55.6140 H   0  0  0  0  0  0  0  0  0  0  0  0
    4.5470   45.7995   56.4807 H   0  0  0  0  0  0  0  0  0  0  0  0
   -0.3574   46.6038   56.6109 H   0  0  0  0  0  0  0  0  0  0  0  0
  1  2  1  0
  2  3  2  0
  3  4  1  0
  4  5  1  0
  5  6  2  0
  6  7  1  0
  7  8  2  0
  8  9  1  0
  9 10  2  0
  9 11  1  0
 11 12  1  0
 12 13  1  0
 13 14  1  0
 14 15  1  0
 15 16  1  0
 16 17  2  0
 16 18  1  0
 18 19  2  0
 19 20  1  0
 20 21  2  0
 21 22  1  0
 22 23  2  0
 23 24  1  0
 23 25  1  0
 25 26  1  0
 25 27  1  0
 27 28  2  0
 15 29  1  0
 29 30  1  0
  8 31  1  0
 31 32  2  0
 32  2  1  0
 32  5  1  0
 30 12  1  0
 30 13  1  0
 28 18  1  0
 27 21  1  0
  1 33  1  0
  1 34  1  0
  1 35  1  0
  3 36  1  0
  4 37  1  0
  7 38  1  0
 11 39  1  0
 12 40  1  6
 13 41  1  1
 14 42  1  0
 14 43  1  0
 19 44  1  0
 20 45  1  0
 24 46  1  0
 24 47  1  0
 26 48  1  0
 26 49  1  0
 26 50  1  0
 28 51  1  0
 29 52  1  0
 29 53  1  0
 30 54  1  1
 31 55  1  0
M  END
>  <meeko>  (2) 
{"is_sidechain": [false], "free_energy": -9.233, "intermolecular_energy": -11.625, "internal_energy": -0.8}

$$$$
ligand_28_conformer_3_docked
     RDKit          3D

 55 60  0  0  0  0  0  0  0  0999 V2000
   -0.9910   49.0520   59.8330 C   0  0  0  0  0  0  0  0  0  0  0  0
   -1.9900   48.1060   59.2490 C   0  0  0  0  0  0  0  0  0  0  0  0
   -3.3570   48.0650   59.5170 C   0  0  0  0  0  0  0  0  0  0  0  0
   -3.9640   47.1340   58.7440 N   0  0  0  0  0  0  0  0  0  0  0  0
   -2.9880   46.6030   57.9890 C   0  0  0  0  0  0  0  0  0  0  0  0
   -3.1440   45.6480   57.0410 N   0  0  0  0  0  0  0  0  0  0  0  0
   -2.0530   45.2290   56.3340 C   0  0  0  0  0  0  0  0  0  0  0  0
   -0.7650   45.7810   56.5800 C   0  0  0  0  0  0  0  0  0  0  0  0
    0.4010   45.3200   55.7880 C   0  0  0  0  0  0  0  0  0  0  0  0
    1.3330   44.6970   56.3670 O   0  0  0  0  0  0  0  0  0  0  0  0
    0.4960   45.5750   54.3780 N   0  0  0  0  0  0  0  0  0  0  0  0
    1.5630   44.9820   53.5790 C   0  0  1  0  0  0  0  0  0  0  0  0
    1.2710   43.5600   53.1170 C   0  0  2  0  0  0  0  0  0  0  0  0
    2.4840   42.7430   52.6960 C   0  0  0  0  0  0  0  0  0  0  0  0
    3.0330   43.4030   51.5220 N   0  0  0  0  0  0  0  0  0  0  0  0
    4.3190   43.0620   50.9720 C   0  0  0  0  0  0  0  0  0  0  0  0
    4.4760   41.9510   50.3950 O   0  0  0  0  0  0  0  0  0  0  0  0
    5.4710   43.9770   51.0840 C   0  0  0  0  0  0  0  0  0  0  0  0
    6.3850   44.0940   50.0050 C   0  0  0  0  0  0  0  0  0  0  0  0
    7.4880   44.9610   50.0920 C   0  0  0  0  0  0  0  0  0  0  0  0
    7.6410   45.7050   51.2570 C   0  0  0  0  0  0  0  0  0  0  0  0
    8.6250   46.5770   51.5460 N   0  0  0  0  0  0  0  0  0  0  0  0
    8.2880   47.0080   52.7880 C   0  0  0  0  0  0  0  0  0  0  0  0
    9.0830   47.9480   53.5140 N   0  0  0  0  0  0  0  0  0  0  0  0
    7.1480   46.4510   53.2720 N   0  0  0  0  0  0  0  0  0  0  0  0
    6.5450   46.6710   54.5870 C   0  0  0  0  0  0  0  0  0  0  0  0
    6.7550   45.6170   52.2930 C   0  0  0  0  0  0  0  0  0  0  0  0
    5.6510   44.7630   52.2450 C   0  0  0  0  0  0  0  0  0  0  0  0
    2.2790   44.5860   51.1310 C   0  0  0  0  0  0  0  0  0  0  0  0
    1.1480   44.7220   52.1380 C   0  0  2  0  0  0  0  0  0  0  0  0
   -0.6330   46.7880   57.5660 C   0  0  0  0  0  0  0  0  0  0  0  0
   -1.7770   47.1690   58.2600 C   0  0  0  0  0  0  0  0  0  0  0  0
   -1.0402   49.0054   60.9309 H   0  0  0  0  0  0  0  0  0  0  0  0
    0.0187   48.7712   59.4989 H   0  0  0  0  0  0  0  0  0  0  0  0
   -1.2164   50.0755   59.4989 H   0  0  0  0  0  0  0  0  0  0  0  0
   -3.8709   48.7002   60.2535 H   0  0  0  0  0  0  0  0  0  0  0  0
   -4.9800   46.8940   58.7260 H   0  0  0  0  0  0  0  0  0  0  0  0
   -2.1720   44.4534   55.5631 H   0  0  0  0  0  0  0  0  0  0  0  0
   -0.1860   46.2150   53.9090 H   0  0  0  0  0  0  0  0  0  0  0  0
    2.4102   45.4764   54.0767 H   0  0  0  0  0  0  0  0  0  0  0  0
    0.6451   42.7612   53.5413 H   0  0  0  0  0  0  0  0  0  0  0  0
    3.2291   42.7228   53.5050 H   0  0  0  0  0  0  0  0  0  0  0  0
    2.2078   41.7011   52.4765 H   0  0  0  0  0  0  0  0  0  0  0  0
    6.2290   43.5007   49.0919 H   0  0  0  0  0  0  0  0  0  0  0  0
    8.2076   45.0483   49.2646 H   0  0  0  0  0  0  0  0  0  0  0  0
    8.7230   48.3550   54.4050 H   0  0  0  0  0  0  0  0  0  0  0  0
   10.0230   48.2400   53.1700 H   0  0  0  0  0  0  0  0  0  0  0  0
    7.2694   46.4067   55.3714 H   0  0  0  0  0  0  0  0  0  0  0  0
    6.2640   47.7296   54.6890 H   0  0  0  0  0  0  0  0  0  0  0  0
    5.6483   46.0421   54.6890 H   0  0  0  0  0  0  0  0  0  0  0  0
    4.9432   44.7038   53.0849 H   0  0  0  0  0  0  0  0  0  0  0  0
    2.9245   45.4762   51.1604 H   0  0  0  0  0  0  0  0  0  0  0  0
    1.8926   44.4934   50.1053 H   0  0  0  0  0  0  0  0  0  0  0  0
    0.3886   45.1932   51.4966 H   0  0  0  0  0  0  0  0  0  0  0  0
    0.3412   47.2536   57.7764 H   0  0  0  0  0  0  0  0  0  0  0  0
  1  2  1  0
  2  3  2  0
  3  4  1  0
  4  5  1  0
  5  6  2  0
  6  7  1  0
  7  8  2  0
  8  9  1  0
  9 10  2  0
  9 11  1  0
 11 12  1  0
 12 13  1  0
 13 14  1  0
 14 15  1  0
 15 16  1  0
 16 17  2  0
 16 18  1  0
 18 19  2  0
 19 20  1  0
 20 21  2  0
 21 22  1  0
 22 23  2  0
 23 24  1  0
 23 25  1  0
 25 26  1  0
 25 27  1  0
 27 28  2  0
 15 29  1  0
 29 30  1  0
  8 31  1  0
 31 32  2  0
 32  2  1  0
 32  5  1  0
 30 12  1  0
 30 13  1  0
 28 18  1  0
 27 21  1  0
  1 33  1  0
  1 34  1  0
  1 35  1  0
  3 36  1  0
  4 37  1  0
  7 38  1  0
 11 39  1  0
 12 40  1  6
 13 41  1  1
 14 42  1  0
 14 43  1  0
 19 44  1  0
 20 45  1  0
 24 46  1  0
 24 47  1  0
 26 48  1  0
 26 49  1  0
 26 50  1  0
 28 51  1  0
 29 52  1  0
 29 53  1  0
 30 54  1  6
 31 55  1  0
M  END
>  <meeko>  (3) 
{"is_sidechain": [false], "free_energy": -9.016, "intermolecular_energy": -11.356, "internal_energy": -0.794}

$$$$
ligand_28_conformer_3_docked
     RDKit          3D

 55 60  0  0  0  0  0  0  0  0999 V2000
   -3.5200   43.7750   53.8060 C   0  0  0  0  0  0  0  0  0  0  0  0
   -2.8650   44.1230   55.1040 C   0  0  0  0  0  0  0  0  0  0  0  0
   -3.4450   44.0810   56.3690 C   0  0  0  0  0  0  0  0  0  0  0  0
   -2.5290   44.3800   57.3210 N   0  0  0  0  0  0  0  0  0  0  0  0
   -1.3820   44.5990   56.6580 C   0  0  0  0  0  0  0  0  0  0  0  0
   -0.1850   44.9010   57.2150 N   0  0  0  0  0  0  0  0  0  0  0  0
    0.9020   45.0670   56.4050 C   0  0  0  0  0  0  0  0  0  0  0  0
    0.7920   44.9270   54.9940 C   0  0  0  0  0  0  0  0  0  0  0  0
    1.9910   45.0970   54.1370 C   0  0  0  0  0  0  0  0  0  0  0  0
    2.6080   46.1970   54.1510 O   0  0  0  0  0  0  0  0  0  0  0  0
    2.4590   44.0380   53.2870 N   0  0  0  0  0  0  0  0  0  0  0  0
    3.7250   44.1570   52.5720 C   0  0  1  0  0  0  0  0  0  0  0  0
    3.8180   43.2740   51.3330 C   0  0  2  0  0  0  0  0  0  0  0  0
    5.2260   43.0020   50.8230 C   0  0  0  0  0  0  0  0  0  0  0  0
    5.7610   44.2870   50.3980 N   0  0  0  0  0  0  0  0  0  0  0  0
    7.1500   44.4780   50.0730 C   0  0  0  0  0  0  0  0  0  0  0  0
    7.6060   44.0160   48.9910 O   0  0  0  0  0  0  0  0  0  0  0  0
    8.0640   45.1880   50.9870 C   0  0  0  0  0  0  0  0  0  0  0  0
    9.4490   45.2500   50.6900 C   0  0  0  0  0  0  0  0  0  0  0  0
   10.3360   45.9230   51.5490 C   0  0  0  0  0  0  0  0  0  0  0  0
    9.8080   46.5340   52.6810 C   0  0  0  0  0  0  0  0  0  0  0  0
   10.4790   47.2130   53.6300 N   0  0  0  0  0  0  0  0  0  0  0  0
    9.4920   47.5860   54.4850 C   0  0  0  0  0  0  0  0  0  0  0  0
    9.7530   48.3260   55.6790 N   0  0  0  0  0  0  0  0  0  0  0  0
    8.2540   47.1770   54.1070 N   0  0  0  0  0  0  0  0  0  0  0  0
    6.9970   47.3780   54.8280 C   0  0  0  0  0  0  0  0  0  0  0  0
    8.4720   46.4990   52.9650 C   0  0  0  0  0  0  0  0  0  0  0  0
    7.5620   45.8360   52.1390 C   0  0  0  0  0  0  0  0  0  0  0  0
    4.8190   45.3820   50.5810 C   0  0  0  0  0  0  0  0  0  0  0  0
    3.5660   44.7700   51.1880 C   0  0  2  0  0  0  0  0  0  0  0  0
   -0.4680   44.5970   54.4390 C   0  0  0  0  0  0  0  0  0  0  0  0
   -1.5400   44.4470   55.3120 C   0  0  0  0  0  0  0  0  0  0  0  0
   -4.4758   43.2672   54.0022 H   0  0  0  0  0  0  0  0  0  0  0  0
   -3.7045   44.6940   53.2304 H   0  0  0  0  0  0  0  0  0  0  0  0
   -2.8617   43.1077   53.2304 H   0  0  0  0  0  0  0  0  0  0  0  0
   -4.4995   43.8389   56.5675 H   0  0  0  0  0  0  0  0  0  0  0  0
   -2.6810   44.4160   58.3530 H   0  0  0  0  0  0  0  0  0  0  0  0
    1.8772   45.3127   56.8506 H   0  0  0  0  0  0  0  0  0  0  0  0
    1.8820   43.1770   53.1470 H   0  0  0  0  0  0  0  0  0  0  0  0
    4.3700   44.3397   53.4441 H   0  0  0  0  0  0  0  0  0  0  0  0
    3.3362   42.3210   51.0692 H   0  0  0  0  0  0  0  0  0  0  0  0
    5.8467   42.5776   51.6259 H   0  0  0  0  0  0  0  0  0  0  0  0
    5.2187   42.2780   49.9949 H   0  0  0  0  0  0  0  0  0  0  0  0
    9.8332   44.7673   49.7793 H   0  0  0  0  0  0  0  0  0  0  0  0
   11.4136   45.9648   51.3322 H   0  0  0  0  0  0  0  0  0  0  0  0
    8.9620   48.6150   56.2950 H   0  0  0  0  0  0  0  0  0  0  0  0
   10.7250   48.5870   55.9510 H   0  0  0  0  0  0  0  0  0  0  0  0
    7.1867   47.3477   55.9111 H   0  0  0  0  0  0  0  0  0  0  0  0
    6.5714   48.3556   54.5575 H   0  0  0  0  0  0  0  0  0  0  0  0
    6.2878   46.5818   54.5575 H   0  0  0  0  0  0  0  0  0  0  0  0
    6.4882   45.8184   52.3771 H   0  0  0  0  0  0  0  0  0  0  0  0
    5.2409   46.1380   51.2596 H   0  0  0  0  0  0  0  0  0  0  0  0
    4.5976   45.8827   49.6269 H   0  0  0  0  0  0  0  0  0  0  0  0
    2.8092   45.4495   50.7691 H   0  0  0  0  0  0  0  0  0  0  0  0
   -0.5946   44.4638   53.3545 H   0  0  0  0  0  0  0  0  0  0  0  0
  1  2  1  0
  2  3  2  0
  3  4  1  0
  4  5  1  0
  5  6  2  0
  6  7  1  0
  7  8  2  0
  8  9  1  0
  9 10  2  0
  9 11  1  0
 11 12  1  0
 12 13  1  0
 13 14  1  0
 14 15  1  0
 15 16  1  0
 16 17  2  0
 16 18  1  0
 18 19  2  0
 19 20  1  0
 20 21  2  0
 21 22  1  0
 22 23  2  0
 23 24  1  0
 23 25  1  0
 25 26  1  0
 25 27  1  0
 27 28  2  0
 15 29  1  0
 29 30  1  0
  8 31  1  0
 31 32  2  0
 32  2  1  0
 32  5  1  0
 30 12  1  0
 30 13  1  0
 28 18  1  0
 27 21  1  0
  1 33  1  0
  1 34  1  0
  1 35  1  0
  3 36  1  0
  4 37  1  0
  7 38  1  0
 11 39  1  0
 12 40  1  1
 13 41  1  1
 14 42  1  0
 14 43  1  0
 19 44  1  0
 20 45  1  0
 24 46  1  0
 24 47  1  0
 26 48  1  0
 26 49  1  0
 26 50  1  0
 28 51  1  0
 29 52  1  0
 29 53  1  0
 30 54  1  1
 31 55  1  0
M  END
>  <meeko>  (4) 
{"is_sidechain": [false], "free_energy": -8.831, "intermolecular_energy": -11.337, "internal_energy": -0.58}

$$$$
ligand_28_conformer_3_docked
     RDKit          3D

 55 60  0  0  0  0  0  0  0  0999 V2000
   -0.0590   35.2190   47.5060 C   0  0  0  0  0  0  0  0  0  0  0  0
    0.9650   35.3590   46.4270 C   0  0  0  0  0  0  0  0  0  0  0  0
    1.2160   34.4600   45.3930 C   0  0  0  0  0  0  0  0  0  0  0  0
    2.1570   34.9540   44.5540 N   0  0  0  0  0  0  0  0  0  0  0  0
    2.4870   36.1570   45.0510 C   0  0  0  0  0  0  0  0  0  0  0  0
    3.3760   37.0260   44.5140 N   0  0  0  0  0  0  0  0  0  0  0  0
    3.5820   38.2290   45.1270 C   0  0  0  0  0  0  0  0  0  0  0  0
    2.8800   38.5770   46.3130 C   0  0  0  0  0  0  0  0  0  0  0  0
    3.1110   39.8960   46.9510 C   0  0  0  0  0  0  0  0  0  0  0  0
    2.6650   40.9370   46.3940 O   0  0  0  0  0  0  0  0  0  0  0  0
    3.8380   40.0140   48.1830 N   0  0  0  0  0  0  0  0  0  0  0  0
    3.9220   41.2910   48.8840 C   0  0  1  0  0  0  0  0  0  0  0  0
    4.0740   41.1580   50.3940 C   0  0  2  0  0  0  0  0  0  0  0  0
    3.7100   42.3940   51.2040 C   0  0  0  0  0  0  0  0  0  0  0  0
    4.6690   43.4220   50.8300 N   0  0  0  0  0  0  0  0  0  0  0  0
    4.5110   44.8020   51.2090 C   0  0  0  0  0  0  0  0  0  0  0  0
    3.6260   45.5050   50.6490 O   0  0  0  0  0  0  0  0  0  0  0  0
    5.3760   45.4240   52.2290 C   0  0  0  0  0  0  0  0  0  0  0  0
    4.8190   45.8490   53.4620 C   0  0  0  0  0  0  0  0  0  0  0  0
    5.6270   46.4430   54.4470 C   0  0  0  0  0  0  0  0  0  0  0  0
    6.9850   46.5830   54.1770 C   0  0  0  0  0  0  0  0  0  0  0  0
    7.9230   47.1300   54.9720 N   0  0  0  0  0  0  0  0  0  0  0  0
    9.0530   47.0080   54.2300 C   0  0  0  0  0  0  0  0  0  0  0  0
   10.3210   47.4870   54.6820 N   0  0  0  0  0  0  0  0  0  0  0  0
    8.8570   46.4090   53.0260 N   0  0  0  0  0  0  0  0  0  0  0  0
    9.8560   46.1710   51.9840 C   0  0  0  0  0  0  0  0  0  0  0  0
    7.5360   46.1560   53.0020 C   0  0  0  0  0  0  0  0  0  0  0  0
    6.7630   45.5670   51.9990 C   0  0  0  0  0  0  0  0  0  0  0  0
    5.6380   42.9640   49.8450 C   0  0  0  0  0  0  0  0  0  0  0  0
    5.2790   41.5190   49.5350 C   0  0  2  0  0  0  0  0  0  0  0  0
    1.9470   37.6560   46.8470 C   0  0  0  0  0  0  0  0  0  0  0  0
    1.7830   36.4440   46.1850 C   0  0  0  0  0  0  0  0  0  0  0  0
    0.4318   35.2861   48.4882 H   0  0  0  0  0  0  0  0  0  0  0  0
   -0.8030   36.0238   47.4121 H   0  0  0  0  0  0  0  0  0  0  0  0
   -0.5597   34.2441   47.4121 H   0  0  0  0  0  0  0  0  0  0  0  0
    0.7195   33.4856   45.2747 H   0  0  0  0  0  0  0  0  0  0  0  0
    2.5330   34.5010   43.6910 H   0  0  0  0  0  0  0  0  0  0  0  0
    4.3025   38.9398   44.6961 H   0  0  0  0  0  0  0  0  0  0  0  0
    4.3420   39.1890   48.5820 H   0  0  0  0  0  0  0  0  0  0  0  0
    3.2608   41.8665   48.2194 H   0  0  0  0  0  0  0  0  0  0  0  0
    3.7621   40.3740   51.0997 H   0  0  0  0  0  0  0  0  0  0  0  0
    2.6877   42.7205   50.9627 H   0  0  0  0  0  0  0  0  0  0  0  0
    3.7432   42.1891   52.2842 H   0  0  0  0  0  0  0  0  0  0  0  0
    3.7437   45.7124   53.6495 H   0  0  0  0  0  0  0  0  0  0  0  0
    5.1996   46.7862   55.4007 H   0  0  0  0  0  0  0  0  0  0  0  0
   10.4700   47.6870   55.6950 H   0  0  0  0  0  0  0  0  0  0  0  0
   11.1080   47.6420   54.0160 H   0  0  0  0  0  0  0  0  0  0  0  0
   10.8249   45.9402   52.4508 H   0  0  0  0  0  0  0  0  0  0  0  0
    9.5390   45.3233   51.3589 H   0  0  0  0  0  0  0  0  0  0  0  0
    9.9553   47.0706   51.3589 H   0  0  0  0  0  0  0  0  0  0  0  0
    7.2198   45.2248   51.0587 H   0  0  0  0  0  0  0  0  0  0  0  0
    5.5737   43.5766   48.9337 H   0  0  0  0  0  0  0  0  0  0  0  0
    6.6665   43.0481   50.2260 H   0  0  0  0  0  0  0  0  0  0  0  0
    6.2803   41.1291   49.2996 H   0  0  0  0  0  0  0  0  0  0  0  0
    1.3714   37.8909   47.7545 H   0  0  0  0  0  0  0  0  0  0  0  0
  1  2  1  0
  2  3  2  0
  3  4  1  0
  4  5  1  0
  5  6  2  0
  6  7  1  0
  7  8  2  0
  8  9  1  0
  9 10  2  0
  9 11  1  0
 11 12  1  0
 12 13  1  0
 13 14  1  0
 14 15  1  0
 15 16  1  0
 16 17  2  0
 16 18  1  0
 18 19  2  0
 19 20  1  0
 20 21  2  0
 21 22  1  0
 22 23  2  0
 23 24  1  0
 23 25  1  0
 25 26  1  0
 25 27  1  0
 27 28  2  0
 15 29  1  0
 29 30  1  0
  8 31  1  0
 31 32  2  0
 32  2  1  0
 32  5  1  0
 30 12  1  0
 30 13  1  0
 28 18  1  0
 27 21  1  0
  1 33  1  0
  1 34  1  0
  1 35  1  0
  3 36  1  0
  4 37  1  0
  7 38  1  0
 11 39  1  0
 12 40  1  1
 13 41  1  1
 14 42  1  0
 14 43  1  0
 19 44  1  0
 20 45  1  0
 24 46  1  0
 24 47  1  0
 26 48  1  0
 26 49  1  0
 26 50  1  0
 28 51  1  0
 29 52  1  0
 29 53  1  0
 30 54  1  6
 31 55  1  0
M  END
>  <meeko>  (5) 
{"is_sidechain": [false], "free_energy": -8.761, "intermolecular_energy": -11.257, "internal_energy": -0.571}

$$$$
