MODEL 1
REMARK VINA RESULT:    -8.039      0.000      0.000
REMARK INTER + INTRA:          -8.818
REMARK INTER:                  -8.743
REMARK INTRA:                  -0.075
REMARK UNBOUND:                -0.075
REMARK SMILES O=C(c1ccc2scnc2c1)N1CCC2(CCC(O)CC2)CC1
REMARK SMILES IDX 1 1 2 2 12 3 13 4 14 5 15 6 16 7 17 8 18 9 20 10 21 11 22 12
REMARK SMILES IDX 23 13 3 14 4 15 11 16 5 17 10 18 6 19 9 20 7 21 8 22 19 23
REMARK H PARENT 19 24
ROOT
ATOM      1  O   UNL     1       2.375  45.161  50.830  1.00  0.00    -0.269 OA
ATOM      2  C   UNL     1       3.119  45.177  51.849  1.00  0.00     0.253 C 
ATOM      3  N   UNL     1       4.548  45.138  51.677  1.00  0.00    -0.339 N 
ATOM      4  C   UNL     1       5.139  45.778  50.496  1.00  0.00     0.120 C 
ATOM      5  C   UNL     1       6.675  45.697  50.514  1.00  0.00     0.028 C 
ATOM      6  C   UNL     1       7.253  45.977  51.932  1.00  0.00    -0.026 C 
ATOM      7  C   UNL     1       6.902  47.447  52.357  1.00  0.00     0.010 C 
ATOM      8  C   UNL     1       8.011  48.178  53.144  1.00  0.00     0.032 C 
ATOM      9  C   UNL     1       8.825  47.224  54.027  1.00  0.00     0.114 C 
ATOM     10  C   UNL     1       9.512  46.126  53.187  1.00  0.00     0.032 C 
ATOM     11  C   UNL     1       8.798  45.823  51.852  1.00  0.00     0.010 C 
ATOM     12  C   UNL     1       6.665  44.937  52.955  1.00  0.00     0.028 C 
ATOM     13  C   UNL     1       5.375  44.238  52.490  1.00  0.00     0.120 C 
ENDROOT
BRANCH   2  14
ATOM     14  C   UNL     1       2.499  45.257  53.191  1.00  0.00     0.042 A 
ATOM     15  C   UNL     1       3.264  45.702  54.298  1.00  0.00     0.015 A 
ATOM     16  C   UNL     1       1.158  44.859  53.388  1.00  0.00     0.043 A 
ATOM     17  C   UNL     1       2.694  45.773  55.580  1.00  0.00     0.022 A 
ATOM     18  C   UNL     1       0.607  44.937  54.668  1.00  0.00     0.082 A 
ATOM     19  C   UNL     1       1.368  45.386  55.731  1.00  0.00     0.054 A 
ATOM     20  N   UNL     1      -0.668  44.587  54.976  1.00  0.00    -0.245 NA
ATOM     21  S   UNL     1       0.433  45.359  57.122  1.00  0.00    -0.122 S 
ATOM     22  C   UNL     1      -0.921  44.765  56.296  1.00  0.00     0.176 A 
ENDBRANCH   2  14
BRANCH   9  23
ATOM     23  O   UNL     1       9.803  47.946  54.732  1.00  0.00    -0.393 OA
ATOM     24  H   UNL     1       9.590  47.855  55.697  1.00  0.00     0.210 HD
ENDBRANCH   9  23
TORSDOF 2
ENDMDL
MODEL 2
REMARK VINA RESULT:    -7.831      3.251      4.845
REMARK INTER + INTRA:          -8.592
REMARK INTER:                  -8.335
REMARK INTRA:                  -0.258
REMARK UNBOUND:                -0.075
REMARK SMILES O=C(c1ccc2scnc2c1)N1CCC2(CCC(O)CC2)CC1
REMARK SMILES IDX 1 1 2 2 12 3 13 4 14 5 15 6 16 7 17 8 18 9 20 10 21 11 22 12
REMARK SMILES IDX 23 13 3 14 4 15 11 16 5 17 10 18 6 19 9 20 7 21 8 22 19 23
REMARK H PARENT 19 24
ROOT
ATOM      1  O   UNL     1       2.808  44.650  54.472  1.00  0.00    -0.269 OA
ATOM      2  C   UNL     1       3.604  44.726  53.497  1.00  0.00     0.253 C 
ATOM      3  N   UNL     1       4.571  45.793  53.459  1.00  0.00    -0.339 N 
ATOM      4  C   UNL     1       5.124  46.295  54.722  1.00  0.00     0.120 C 
ATOM      5  C   UNL     1       6.186  47.382  54.485  1.00  0.00     0.028 C 
ATOM      6  C   UNL     1       7.131  47.021  53.302  1.00  0.00    -0.026 C 
ATOM      7  C   UNL     1       7.931  45.716  53.653  1.00  0.00     0.010 C 
ATOM      8  C   UNL     1       9.396  45.703  53.170  1.00  0.00     0.032 C 
ATOM      9  C   UNL     1       9.584  46.470  51.854  1.00  0.00     0.114 C 
ATOM     10  C   UNL     1       9.166  47.949  51.999  1.00  0.00     0.032 C 
ATOM     11  C   UNL     1       8.128  48.198  53.115  1.00  0.00     0.010 C 
ATOM     12  C   UNL     1       6.282  46.828  51.991  1.00  0.00     0.028 C 
ATOM     13  C   UNL     1       4.784  46.565  52.229  1.00  0.00     0.120 C 
ENDROOT
BRANCH   2  14
ATOM     14  C   UNL     1       3.535  43.701  52.430  1.00  0.00     0.042 A 
ATOM     15  C   UNL     1       2.307  43.052  52.150  1.00  0.00     0.015 A 
ATOM     16  C   UNL     1       4.694  43.336  51.709  1.00  0.00     0.043 A 
ATOM     17  C   UNL     1       2.227  42.070  51.149  1.00  0.00     0.022 A 
ATOM     18  C   UNL     1       4.598  42.360  50.717  1.00  0.00     0.082 A 
ATOM     19  C   UNL     1       3.386  41.749  50.452  1.00  0.00     0.054 A 
ATOM     20  N   UNL     1       5.639  41.932  49.958  1.00  0.00    -0.245 NA
ATOM     21  S   UNL     1       3.596  40.628  49.223  1.00  0.00    -0.122 S 
ATOM     22  C   UNL     1       5.248  40.976  49.081  1.00  0.00     0.176 A 
ENDBRANCH   2  14
BRANCH   9  23
ATOM     23  O   UNL     1      10.929  46.408  51.454  1.00  0.00    -0.393 OA
ATOM     24  H   UNL     1      11.478  46.635  52.250  1.00  0.00     0.210 HD
ENDBRANCH   9  23
TORSDOF 2
ENDMDL
MODEL 3
REMARK VINA RESULT:    -7.776      3.189      7.228
REMARK INTER + INTRA:          -8.533
REMARK INTER:                  -8.116
REMARK INTRA:                  -0.417
REMARK UNBOUND:                -0.075
REMARK SMILES O=C(c1ccc2scnc2c1)N1CCC2(CCC(O)CC2)CC1
REMARK SMILES IDX 1 1 2 2 12 3 13 4 14 5 15 6 16 7 17 8 18 9 20 10 21 11 22 12
REMARK SMILES IDX 23 13 3 14 4 15 11 16 5 17 10 18 6 19 9 20 7 21 8 22 19 23
REMARK H PARENT 19 24
ROOT
ATOM      1  O   UNL     1       5.021  42.814  50.435  1.00  0.00    -0.269 OA
ATOM      2  C   UNL     1       4.505  43.700  51.168  1.00  0.00     0.253 C 
ATOM      3  N   UNL     1       3.072  43.837  51.207  1.00  0.00    -0.339 N 
ATOM      4  C   UNL     1       2.241  42.638  51.046  1.00  0.00     0.120 C 
ATOM      5  C   UNL     1       0.744  42.962  51.182  1.00  0.00     0.028 C 
ATOM      6  C   UNL     1       0.470  43.958  52.346  1.00  0.00    -0.026 C 
ATOM      7  C   UNL     1       0.885  43.294  53.708  1.00  0.00     0.010 C 
ATOM      8  C   UNL     1      -0.045  43.617  54.897  1.00  0.00     0.032 C 
ATOM      9  C   UNL     1      -0.647  45.025  54.802  1.00  0.00     0.114 C 
ATOM     10  C   UNL     1      -1.480  45.197  53.515  1.00  0.00     0.032 C 
ATOM     11  C   UNL     1      -1.056  44.256  52.366  1.00  0.00     0.010 C 
ATOM     12  C   UNL     1       1.270  45.289  52.100  1.00  0.00     0.028 C 
ATOM     13  C   UNL     1       2.444  45.159  51.112  1.00  0.00     0.120 C 
ENDROOT
BRANCH   2  14
ATOM     14  C   UNL     1       5.390  44.563  51.985  1.00  0.00     0.042 A 
ATOM     15  C   UNL     1       5.231  44.610  53.392  1.00  0.00     0.015 A 
ATOM     16  C   UNL     1       6.372  45.371  51.370  1.00  0.00     0.043 A 
ATOM     17  C   UNL     1       6.054  45.430  54.180  1.00  0.00     0.022 A 
ATOM     18  C   UNL     1       7.182  46.181  52.167  1.00  0.00     0.082 A 
ATOM     19  C   UNL     1       7.018  46.200  53.540  1.00  0.00     0.054 A 
ATOM     20  N   UNL     1       8.159  46.994  51.691  1.00  0.00    -0.245 NA
ATOM     21  S   UNL     1       8.127  47.265  54.208  1.00  0.00    -0.122 S 
ATOM     22  C   UNL     1       8.777  47.661  52.695  1.00  0.00     0.176 A 
ENDBRANCH   2  14
BRANCH   9  23
ATOM     23  O   UNL     1      -1.465  45.270  55.918  1.00  0.00    -0.393 OA
ATOM     24  H   UNL     1      -2.360  45.522  55.570  1.00  0.00     0.210 HD
ENDBRANCH   9  23
TORSDOF 2
ENDMDL
MODEL 4
REMARK VINA RESULT:    -7.644      3.466      6.872
REMARK INTER + INTRA:          -8.389
REMARK INTER:                  -8.278
REMARK INTRA:                  -0.111
REMARK UNBOUND:                -0.075
REMARK SMILES O=C(c1ccc2scnc2c1)N1CCC2(CCC(O)CC2)CC1
REMARK SMILES IDX 1 1 2 2 12 3 13 4 14 5 15 6 16 7 17 8 18 9 20 10 21 11 22 12
REMARK SMILES IDX 23 13 3 14 4 15 11 16 5 17 10 18 6 19 9 20 7 21 8 22 19 23
REMARK H PARENT 19 24
ROOT
ATOM      1  O   UNL     1       7.380  47.214  51.695  1.00  0.00    -0.269 OA
ATOM      2  C   UNL     1       6.655  46.211  51.938  1.00  0.00     0.253 C 
ATOM      3  N   UNL     1       5.818  46.216  53.110  1.00  0.00    -0.339 N 
ATOM      4  C   UNL     1       5.250  47.488  53.572  1.00  0.00     0.120 C 
ATOM      5  C   UNL     1       4.332  47.292  54.789  1.00  0.00     0.028 C 
ATOM      6  C   UNL     1       3.424  46.037  54.634  1.00  0.00    -0.026 C 
ATOM      7  C   UNL     1       2.464  46.237  53.407  1.00  0.00     0.010 C 
ATOM      8  C   UNL     1       1.037  45.682  53.602  1.00  0.00     0.032 C 
ATOM      9  C   UNL     1       1.014  44.429  54.488  1.00  0.00     0.114 C 
ATOM     10  C   UNL     1       1.585  44.719  55.892  1.00  0.00     0.032 C 
ATOM     11  C   UNL     1       2.576  45.902  55.930  1.00  0.00     0.010 C 
ATOM     12  C   UNL     1       4.321  44.758  54.448  1.00  0.00     0.028 C 
ATOM     13  C   UNL     1       5.764  45.047  53.995  1.00  0.00     0.120 C 
ENDROOT
BRANCH   2  14
ATOM     14  C   UNL     1       6.672  45.066  51.000  1.00  0.00     0.042 A 
ATOM     15  C   UNL     1       7.726  44.934  50.062  1.00  0.00     0.015 A 
ATOM     16  C   UNL     1       5.625  44.117  51.005  1.00  0.00     0.043 A 
ATOM     17  C   UNL     1       7.751  43.860  49.158  1.00  0.00     0.022 A 
ATOM     18  C   UNL     1       5.665  43.055  50.101  1.00  0.00     0.082 A 
ATOM     19  C   UNL     1       6.710  42.940  49.203  1.00  0.00     0.054 A 
ATOM     20  N   UNL     1       4.721  42.084  50.016  1.00  0.00    -0.245 NA
ATOM     21  S   UNL     1       6.470  41.577  48.258  1.00  0.00    -0.122 S 
ATOM     22  C   UNL     1       5.022  41.188  49.045  1.00  0.00     0.176 A 
ENDBRANCH   2  14
BRANCH   9  23
ATOM     23  O   UNL     1      -0.304  43.959  54.613  1.00  0.00    -0.393 OA
ATOM     24  H   UNL     1      -0.885  44.755  54.735  1.00  0.00     0.210 HD
ENDBRANCH   9  23
TORSDOF 2
ENDMDL
MODEL 5
REMARK VINA RESULT:    -7.409      1.843      2.442
REMARK INTER + INTRA:          -8.134
REMARK INTER:                  -7.913
REMARK INTRA:                  -0.221
REMARK UNBOUND:                -0.075
REMARK SMILES O=C(c1ccc2scnc2c1)N1CCC2(CCC(O)CC2)CC1
REMARK SMILES IDX 1 1 2 2 12 3 13 4 14 5 15 6 16 7 17 8 18 9 20 10 21 11 22 12
REMARK SMILES IDX 23 13 3 14 4 15 11 16 5 17 10 18 6 19 9 20 7 21 8 22 19 23
REMARK H PARENT 19 24
ROOT
ATOM      1  O   UNL     1       0.040  44.542  51.191  1.00  0.00    -0.269 OA
ATOM      2  C   UNL     1       0.790  44.571  52.204  1.00  0.00     0.253 C 
ATOM      3  N   UNL     1       2.219  44.592  52.022  1.00  0.00    -0.339 N 
ATOM      4  C   UNL     1       2.775  45.274  50.847  1.00  0.00     0.120 C 
ATOM      5  C   UNL     1       4.312  45.253  50.853  1.00  0.00     0.028 C 
ATOM      6  C   UNL     1       4.890  45.533  52.271  1.00  0.00    -0.026 C 
ATOM      7  C   UNL     1       4.484  46.981  52.723  1.00  0.00     0.010 C 
ATOM      8  C   UNL     1       5.569  47.742  53.514  1.00  0.00     0.032 C 
ATOM      9  C   UNL     1       6.428  46.806  54.375  1.00  0.00     0.114 C 
ATOM     10  C   UNL     1       7.151  45.751  53.512  1.00  0.00     0.032 C 
ATOM     11  C   UNL     1       6.439  45.441  52.178  1.00  0.00     0.010 C 
ATOM     12  C   UNL     1       4.352  44.453  53.281  1.00  0.00     0.028 C 
ATOM     13  C   UNL     1       3.086  43.711  52.813  1.00  0.00     0.120 C 
ENDROOT
BRANCH   2  14
ATOM     14  C   UNL     1       0.178  44.604  53.552  1.00  0.00     0.042 A 
ATOM     15  C   UNL     1       0.834  45.281  54.610  1.00  0.00     0.015 A 
ATOM     16  C   UNL     1      -1.040  43.934  53.805  1.00  0.00     0.043 A 
ATOM     17  C   UNL     1       0.273  45.313  55.897  1.00  0.00     0.022 A 
ATOM     18  C   UNL     1      -1.585  43.976  55.089  1.00  0.00     0.082 A 
ATOM     19  C   UNL     1      -0.934  44.654  56.103  1.00  0.00     0.054 A 
ATOM     20  N   UNL     1      -2.748  43.376  55.448  1.00  0.00    -0.245 NA
ATOM     21  S   UNL     1      -1.829  44.516  57.514  1.00  0.00    -0.122 S 
ATOM     22  C   UNL     1      -3.024  43.583  56.758  1.00  0.00     0.176 A 
ENDBRANCH   2  14
BRANCH   9  23
ATOM     23  O   UNL     1       7.382  47.554  55.085  1.00  0.00    -0.393 OA
ATOM     24  H   UNL     1       7.076  48.499  55.073  1.00  0.00     0.210 HD
ENDBRANCH   9  23
TORSDOF 2
ENDMDL
