ligand_97_conformer_3_docked
     RDKit          3D

 36 39  0  0  0  0  0  0  0  0999 V2000
    8.7780   44.1290   49.0370 O   0  0  0  0  0  0  0  0  0  0  0  0
    8.9140   44.8160   50.0860 C   0  0  0  0  0  0  0  0  0  0  0  0
   10.1580   44.8470   50.7190 C   0  0  0  0  0  0  0  0  0  0  0  0
   10.3210   45.5910   51.8850 C   0  0  0  0  0  0  0  0  0  0  0  0
    9.2460   46.3180   52.4050 C   0  0  0  0  0  0  0  0  0  0  0  0
    9.4000   47.0900   53.6540 C   0  0  0  0  0  0  0  0  0  0  0  0
    8.5190   48.0080   54.0980 N   0  0  0  0  0  0  0  0  0  0  0  0
    9.0040   48.4660   55.2410 N   0  0  0  0  0  0  0  0  0  0  0  0
   10.1610   47.8130   55.4550 C   0  0  0  0  0  0  0  0  0  0  0  0
   10.4090   46.9670   54.4840 O   0  0  0  0  0  0  0  0  0  0  0  0
    8.0170   46.2810   51.7300 C   0  0  0  0  0  0  0  0  0  0  0  0
    7.8540   45.5200   50.6030 N   0  0  0  0  0  0  0  0  0  0  0  0
    6.5230   45.4380   49.9770 C   0  0  0  0  0  0  0  0  0  0  0  0
    5.7640   44.2490   50.5000 C   0  0  0  0  0  0  0  0  0  0  0  0
    5.7430   43.0570   49.8710 N   0  0  0  0  0  0  0  0  0  0  0  0
    5.0770   42.2760   50.7500 C   0  0  0  0  0  0  0  0  0  0  0  0
    4.7190   42.9410   51.8660 N   0  0  0  0  0  0  0  0  0  0  0  0
    5.1450   44.1800   51.6970 N   0  0  0  0  0  0  0  0  0  0  0  0
    5.0020   45.2120   52.6780 C   0  0  0  0  0  0  0  0  0  0  0  0
    5.6240   45.0800   53.9280 C   0  0  0  0  0  0  0  0  0  0  0  0
    5.5180   46.1020   54.8770 C   0  0  0  0  0  0  0  0  0  0  0  0
    4.7770   47.2510   54.5890 C   0  0  0  0  0  0  0  0  0  0  0  0
    4.1330   47.3770   53.3540 C   0  0  0  0  0  0  0  0  0  0  0  0
    4.2420   46.3580   52.4010 C   0  0  0  0  0  0  0  0  0  0  0  0
   11.0058   44.2862   50.2986 H   0  0  0  0  0  0  0  0  0  0  0  0
   11.2948   45.6066   52.3964 H   0  0  0  0  0  0  0  0  0  0  0  0
   10.8120   47.9681   56.3280 H   0  0  0  0  0  0  0  0  0  0  0  0
    7.1714   46.8721   52.1115 H   0  0  0  0  0  0  0  0  0  0  0  0
    5.9596   46.3550   50.2042 H   0  0  0  0  0  0  0  0  0  0  0  0
    6.6487   45.3281   48.8897 H   0  0  0  0  0  0  0  0  0  0  0  0
    4.8518   41.2138   50.5738 H   0  0  0  0  0  0  0  0  0  0  0  0
    6.1966   44.1706   54.1627 H   0  0  0  0  0  0  0  0  0  0  0  0
    6.0186   46.0011   55.8513 H   0  0  0  0  0  0  0  0  0  0  0  0
    4.7001   48.0567   55.3339 H   0  0  0  0  0  0  0  0  0  0  0  0
    3.5408   48.2770   53.1317 H   0  0  0  0  0  0  0  0  0  0  0  0
    3.7304   46.4560   51.4322 H   0  0  0  0  0  0  0  0  0  0  0  0
  1  2  2  0
  2  3  1  0
  3  4  2  0
  4  5  1  0
  5  6  1  0
  6  7  2  0
  7  8  1  0
  8  9  2  0
  9 10  1  0
  5 11  2  0
 11 12  1  0
 12 13  1  0
 13 14  1  0
 14 15  2  0
 15 16  1  0
 16 17  2  0
 17 18  1  0
 18 19  1  0
 19 20  2  0
 20 21  1  0
 21 22  2  0
 22 23  1  0
 23 24  2  0
 12  2  1  0
 18 14  1  0
 24 19  1  0
 10  6  1  0
  3 25  1  0
  4 26  1  0
  9 27  1  0
 11 28  1  0
 13 29  1  0
 13 30  1  0
 16 31  1  0
 20 32  1  0
 21 33  1  0
 22 34  1  0
 23 35  1  0
 24 36  1  0
M  END
>  <meeko>  (1) 
{"is_sidechain": [false], "free_energy": -8.917, "intermolecular_energy": -11.003, "internal_energy": -0.775}

$$$$
ligand_97_conformer_3_docked
     RDKit          3D

 36 39  0  0  0  0  0  0  0  0999 V2000
    8.3840   43.7490   49.1900 O   0  0  0  0  0  0  0  0  0  0  0  0
    7.2610   43.5810   49.7400 C   0  0  0  0  0  0  0  0  0  0  0  0
    6.6410   42.3340   49.6450 C   0  0  0  0  0  0  0  0  0  0  0  0
    5.3960   42.1360   50.2370 C   0  0  0  0  0  0  0  0  0  0  0  0
    4.7820   43.1780   50.9380 C   0  0  0  0  0  0  0  0  0  0  0  0
    3.4520   42.9880   51.5480 C   0  0  0  0  0  0  0  0  0  0  0  0
    2.3550   42.5860   50.8770 N   0  0  0  0  0  0  0  0  0  0  0  0
    1.3750   42.5290   51.7650 N   0  0  0  0  0  0  0  0  0  0  0  0
    1.9070   42.8980   52.9450 C   0  0  0  0  0  0  0  0  0  0  0  0
    3.1820   43.1800   52.8170 O   0  0  0  0  0  0  0  0  0  0  0  0
    5.4460   44.4110   51.0320 C   0  0  0  0  0  0  0  0  0  0  0  0
    6.6540   44.6090   50.4190 N   0  0  0  0  0  0  0  0  0  0  0  0
    7.2740   45.9450   50.4650 C   0  0  0  0  0  0  0  0  0  0  0  0
    8.2430   46.0410   51.6120 C   0  0  0  0  0  0  0  0  0  0  0  0
    9.5800   46.0830   51.4410 N   0  0  0  0  0  0  0  0  0  0  0  0
   10.0260   46.3050   52.6970 C   0  0  0  0  0  0  0  0  0  0  0  0
    9.0230   46.4110   53.5920 N   0  0  0  0  0  0  0  0  0  0  0  0
    7.9100   46.2330   52.9050 N   0  0  0  0  0  0  0  0  0  0  0  0
    6.6000   46.3090   53.4780 C   0  0  0  0  0  0  0  0  0  0  0  0
    6.1570   45.3000   54.3450 C   0  0  0  0  0  0  0  0  0  0  0  0
    4.8920   45.3880   54.9370 C   0  0  0  0  0  0  0  0  0  0  0  0
    4.0600   46.4740   54.6510 C   0  0  0  0  0  0  0  0  0  0  0  0
    4.4870   47.4700   53.7680 C   0  0  0  0  0  0  0  0  0  0  0  0
    5.7530   47.3870   53.1790 C   0  0  0  0  0  0  0  0  0  0  0  0
    7.1333   41.5117   49.1052 H   0  0  0  0  0  0  0  0  0  0  0  0
    4.8959   41.1599   50.1530 H   0  0  0  0  0  0  0  0  0  0  0  0
    1.3476   42.9555   53.8904 H   0  0  0  0  0  0  0  0  0  0  0  0
    4.9891   45.2302   51.6066 H   0  0  0  0  0  0  0  0  0  0  0  0
    7.8108   46.1269   49.5223 H   0  0  0  0  0  0  0  0  0  0  0  0
    6.4839   46.6975   50.6048 H   0  0  0  0  0  0  0  0  0  0  0  0
   11.0906   46.3899   52.9605 H   0  0  0  0  0  0  0  0  0  0  0  0
    6.8050   44.4376   54.5603 H   0  0  0  0  0  0  0  0  0  0  0  0
    4.5524   44.6021   55.6277 H   0  0  0  0  0  0  0  0  0  0  0  0
    3.0681   46.5450   55.1212 H   0  0  0  0  0  0  0  0  0  0  0  0
    3.8273   48.3192   53.5363 H   0  0  0  0  0  0  0  0  0  0  0  0
    6.0853   48.1685   52.4799 H   0  0  0  0  0  0  0  0  0  0  0  0
  1  2  2  0
  2  3  1  0
  3  4  2  0
  4  5  1  0
  5  6  1  0
  6  7  2  0
  7  8  1  0
  8  9  2  0
  9 10  1  0
  5 11  2  0
 11 12  1  0
 12 13  1  0
 13 14  1  0
 14 15  2  0
 15 16  1  0
 16 17  2  0
 17 18  1  0
 18 19  1  0
 19 20  2  0
 20 21  1  0
 21 22  2  0
 22 23  1  0
 23 24  2  0
 12  2  1  0
 18 14  1  0
 24 19  1  0
 10  6  1  0
  3 25  1  0
  4 26  1  0
  9 27  1  0
 11 28  1  0
 13 29  1  0
 13 30  1  0
 16 31  1  0
 20 32  1  0
 21 33  1  0
 22 34  1  0
 23 35  1  0
 24 36  1  0
M  END
>  <meeko>  (2) 
{"is_sidechain": [false], "free_energy": -8.774, "intermolecular_energy": -10.893, "internal_energy": -0.709}

$$$$
ligand_97_conformer_3_docked
     RDKit          3D

 36 39  0  0  0  0  0  0  0  0999 V2000
    6.7280   44.0540   50.3490 O   0  0  0  0  0  0  0  0  0  0  0  0
    5.5750   43.7920   50.7890 C   0  0  0  0  0  0  0  0  0  0  0  0
    5.1260   42.4710   50.7680 C   0  0  0  0  0  0  0  0  0  0  0  0
    3.8510   42.1670   51.2400 C   0  0  0  0  0  0  0  0  0  0  0  0
    3.0360   43.1820   51.7500 C   0  0  0  0  0  0  0  0  0  0  0  0
    1.6740   42.8770   52.2290 C   0  0  0  0  0  0  0  0  0  0  0  0
    0.5670   42.9180   51.4630 N   0  0  0  0  0  0  0  0  0  0  0  0
   -0.4420   42.5760   52.2470 N   0  0  0  0  0  0  0  0  0  0  0  0
    0.0830   42.3380   53.4640 C   0  0  0  0  0  0  0  0  0  0  0  0
    1.3810   42.5210   53.4580 O   0  0  0  0  0  0  0  0  0  0  0  0
    3.5300   44.4950   51.7770 C   0  0  0  0  0  0  0  0  0  0  0  0
    4.7710   44.7920   51.2800 N   0  0  0  0  0  0  0  0  0  0  0  0
    5.2150   46.1960   51.2440 C   0  0  0  0  0  0  0  0  0  0  0  0
    5.0960   46.8240   52.6060 C   0  0  0  0  0  0  0  0  0  0  0  0
    3.9140   47.0190   53.2240 N   0  0  0  0  0  0  0  0  0  0  0  0
    4.2920   47.4640   54.4430 C   0  0  0  0  0  0  0  0  0  0  0  0
    5.6320   47.5260   54.5780 N   0  0  0  0  0  0  0  0  0  0  0  0
    6.1280   47.1330   53.4190 N   0  0  0  0  0  0  0  0  0  0  0  0
    7.5290   47.0130   53.1510 C   0  0  0  0  0  0  0  0  0  0  0  0
    8.4410   46.9460   54.2150 C   0  0  0  0  0  0  0  0  0  0  0  0
    9.8080   46.7920   53.9600 C   0  0  0  0  0  0  0  0  0  0  0  0
   10.2710   46.7220   52.6440 C   0  0  0  0  0  0  0  0  0  0  0  0
    9.3690   46.8130   51.5790 C   0  0  0  0  0  0  0  0  0  0  0  0
    8.0010   46.9620   51.8310 C   0  0  0  0  0  0  0  0  0  0  0  0
    5.7762   41.6729   50.3803 H   0  0  0  0  0  0  0  0  0  0  0  0
    3.4860   41.1297   51.2115 H   0  0  0  0  0  0  0  0  0  0  0  0
   -0.4994   42.0311   54.3452 H   0  0  0  0  0  0  0  0  0  0  0  0
    2.9111   45.2979   52.2039 H   0  0  0  0  0  0  0  0  0  0  0  0
    6.2650   46.2349   50.9185 H   0  0  0  0  0  0  0  0  0  0  0  0
    4.5777   46.7516   50.5403 H   0  0  0  0  0  0  0  0  0  0  0  0
    3.5845   47.7446   55.2372 H   0  0  0  0  0  0  0  0  0  0  0  0
    8.0805   47.0147   55.2520 H   0  0  0  0  0  0  0  0  0  0  0  0
   10.5189   46.7260   54.7968 H   0  0  0  0  0  0  0  0  0  0  0  0
   11.3454   46.5953   52.4452 H   0  0  0  0  0  0  0  0  0  0  0  0
    9.7354   46.7674   50.5428 H   0  0  0  0  0  0  0  0  0  0  0  0
    7.2938   47.0394   50.9920 H   0  0  0  0  0  0  0  0  0  0  0  0
  1  2  2  0
  2  3  1  0
  3  4  2  0
  4  5  1  0
  5  6  1  0
  6  7  2  0
  7  8  1  0
  8  9  2  0
  9 10  1  0
  5 11  2  0
 11 12  1  0
 12 13  1  0
 13 14  1  0
 14 15  2  0
 15 16  1  0
 16 17  2  0
 17 18  1  0
 18 19  1  0
 19 20  2  0
 20 21  1  0
 21 22  2  0
 22 23  1  0
 23 24  2  0
 12  2  1  0
 18 14  1  0
 24 19  1  0
 10  6  1  0
  3 25  1  0
  4 26  1  0
  9 27  1  0
 11 28  1  0
 13 29  1  0
 13 30  1  0
 16 31  1  0
 20 32  1  0
 21 33  1  0
 22 34  1  0
 23 35  1  0
 24 36  1  0
M  END
>  <meeko>  (3) 
{"is_sidechain": [false], "free_energy": -8.607, "intermolecular_energy": -11.641, "internal_energy": 0.246}

$$$$
ligand_97_conformer_3_docked
     RDKit          3D

 36 39  0  0  0  0  0  0  0  0999 V2000
    1.6010   42.7820   52.0840 O   0  0  0  0  0  0  0  0  0  0  0  0
    2.7450   43.0510   51.6240 C   0  0  0  0  0  0  0  0  0  0  0  0
    3.6220   42.0030   51.3380 C   0  0  0  0  0  0  0  0  0  0  0  0
    4.8920   42.2830   50.8400 C   0  0  0  0  0  0  0  0  0  0  0  0
    5.2770   43.6070   50.6120 C   0  0  0  0  0  0  0  0  0  0  0  0
    6.6290   43.9170   50.1100 C   0  0  0  0  0  0  0  0  0  0  0  0
    7.3500   43.1100   49.3080 N   0  0  0  0  0  0  0  0  0  0  0  0
    8.4910   43.7390   49.0750 N   0  0  0  0  0  0  0  0  0  0  0  0
    8.4280   44.9060   49.7430 C   0  0  0  0  0  0  0  0  0  0  0  0
    7.2870   45.0200   50.3800 O   0  0  0  0  0  0  0  0  0  0  0  0
    4.3610   44.6330   50.8910 C   0  0  0  0  0  0  0  0  0  0  0  0
    3.1250   44.3530   51.4110 N   0  0  0  0  0  0  0  0  0  0  0  0
    2.2290   45.4640   51.7740 C   0  0  0  0  0  0  0  0  0  0  0  0
    2.0580   45.5410   53.2670 C   0  0  0  0  0  0  0  0  0  0  0  0
    0.8970   45.2500   53.8880 N   0  0  0  0  0  0  0  0  0  0  0  0
    1.2410   45.3160   55.1940 C   0  0  0  0  0  0  0  0  0  0  0  0
    2.5440   45.6150   55.3710 N   0  0  0  0  0  0  0  0  0  0  0  0
    3.0450   45.7640   54.1580 N   0  0  0  0  0  0  0  0  0  0  0  0
    4.4240   46.0500   53.8970 C   0  0  0  0  0  0  0  0  0  0  0  0
    5.4050   45.0950   54.1980 C   0  0  0  0  0  0  0  0  0  0  0  0
    6.7500   45.3540   53.9110 C   0  0  0  0  0  0  0  0  0  0  0  0
    7.1200   46.5730   53.3370 C   0  0  0  0  0  0  0  0  0  0  0  0
    6.1480   47.5390   53.0570 C   0  0  0  0  0  0  0  0  0  0  0  0
    4.8030   47.2800   53.3390 C   0  0  0  0  0  0  0  0  0  0  0  0
    3.3113   40.9611   51.5052 H   0  0  0  0  0  0  0  0  0  0  0  0
    5.5922   41.4620   50.6261 H   0  0  0  0  0  0  0  0  0  0  0  0
    9.2264   45.6626   49.7533 H   0  0  0  0  0  0  0  0  0  0  0  0
    4.6398   45.6778   50.6891 H   0  0  0  0  0  0  0  0  0  0  0  0
    2.6591   46.4088   51.4103 H   0  0  0  0  0  0  0  0  0  0  0  0
    1.2453   45.2911   51.3131 H   0  0  0  0  0  0  0  0  0  0  0  0
    0.5359   45.1447   56.0207 H   0  0  0  0  0  0  0  0  0  0  0  0
    5.1169   44.1397   54.6609 H   0  0  0  0  0  0  0  0  0  0  0  0
    7.5161   44.5978   54.1373 H   0  0  0  0  0  0  0  0  0  0  0  0
    8.1765   46.7731   53.1052 H   0  0  0  0  0  0  0  0  0  0  0  0
    6.4416   48.5025   52.6149 H   0  0  0  0  0  0  0  0  0  0  0  0
    4.0404   48.0426   53.1227 H   0  0  0  0  0  0  0  0  0  0  0  0
  1  2  2  0
  2  3  1  0
  3  4  2  0
  4  5  1  0
  5  6  1  0
  6  7  2  0
  7  8  1  0
  8  9  2  0
  9 10  1  0
  5 11  2  0
 11 12  1  0
 12 13  1  0
 13 14  1  0
 14 15  2  0
 15 16  1  0
 16 17  2  0
 17 18  1  0
 18 19  1  0
 19 20  2  0
 20 21  1  0
 21 22  2  0
 22 23  1  0
 23 24  2  0
 12  2  1  0
 18 14  1  0
 24 19  1  0
 10  6  1  0
  3 25  1  0
  4 26  1  0
  9 27  1  0
 11 28  1  0
 13 29  1  0
 13 30  1  0
 16 31  1  0
 20 32  1  0
 21 33  1  0
 22 34  1  0
 23 35  1  0
 24 36  1  0
M  END
>  <meeko>  (4) 
{"is_sidechain": [false], "free_energy": -7.942, "intermolecular_energy": -9.929, "internal_energy": -0.645}

$$$$
ligand_97_conformer_3_docked
     RDKit          3D

 36 39  0  0  0  0  0  0  0  0999 V2000
    8.1420   46.2920   50.8890 O   0  0  0  0  0  0  0  0  0  0  0  0
    7.4250   45.2970   50.5930 C   0  0  0  0  0  0  0  0  0  0  0  0
    7.9240   44.3440   49.7030 C   0  0  0  0  0  0  0  0  0  0  0  0
    7.1410   43.2460   49.3580 C   0  0  0  0  0  0  0  0  0  0  0  0
    5.8690   43.0920   49.9170 C   0  0  0  0  0  0  0  0  0  0  0  0
    5.0200   41.9450   49.5390 C   0  0  0  0  0  0  0  0  0  0  0  0
    4.0620   41.4130   50.3220 N   0  0  0  0  0  0  0  0  0  0  0  0
    3.5260   40.4190   49.6310 N   0  0  0  0  0  0  0  0  0  0  0  0
    4.1750   40.3790   48.4520 C   0  0  0  0  0  0  0  0  0  0  0  0
    5.0920   41.3140   48.3900 O   0  0  0  0  0  0  0  0  0  0  0  0
    5.4090   44.0580   50.8250 C   0  0  0  0  0  0  0  0  0  0  0  0
    6.1710   45.1530   51.1340 N   0  0  0  0  0  0  0  0  0  0  0  0
    5.6140   46.1890   52.0210 C   0  0  0  0  0  0  0  0  0  0  0  0
    5.4730   45.6650   53.4250 C   0  0  0  0  0  0  0  0  0  0  0  0
    6.4340   45.8050   54.3600 N   0  0  0  0  0  0  0  0  0  0  0  0
    5.8320   45.3250   55.4700 C   0  0  0  0  0  0  0  0  0  0  0  0
    4.5650   44.9260   55.2400 N   0  0  0  0  0  0  0  0  0  0  0  0
    4.3520   45.1330   53.9530 N   0  0  0  0  0  0  0  0  0  0  0  0
    3.1030   44.8780   53.3020 C   0  0  0  0  0  0  0  0  0  0  0  0
    2.1960   45.9260   53.0920 C   0  0  0  0  0  0  0  0  0  0  0  0
    0.9900   45.6890   52.4240 C   0  0  0  0  0  0  0  0  0  0  0  0
    0.6780   44.4030   51.9770 C   0  0  0  0  0  0  0  0  0  0  0  0
    1.5690   43.3480   52.2050 C   0  0  0  0  0  0  0  0  0  0  0  0
    2.7770   43.5830   52.8690 C   0  0  0  0  0  0  0  0  0  0  0  0
    8.9312   44.4603   49.2764 H   0  0  0  0  0  0  0  0  0  0  0  0
    7.5230   42.4998   48.6458 H   0  0  0  0  0  0  0  0  0  0  0  0
    3.9641   39.6582   47.6483 H   0  0  0  0  0  0  0  0  0  0  0  0
    4.4223   43.9339   51.2952 H   0  0  0  0  0  0  0  0  0  0  0  0
    6.2859   47.0599   52.0260 H   0  0  0  0  0  0  0  0  0  0  0  0
    4.6199   46.4773   51.6487 H   0  0  0  0  0  0  0  0  0  0  0  0
    6.3217   45.2662   56.4532 H   0  0  0  0  0  0  0  0  0  0  0  0
    2.4333   46.9375   53.4535 H   0  0  0  0  0  0  0  0  0  0  0  0
    0.2864   46.5166   52.2505 H   0  0  0  0  0  0  0  0  0  0  0  0
   -0.2677   44.2195   51.4460 H   0  0  0  0  0  0  0  0  0  0  0  0
    1.3188   42.3333   51.8617 H   0  0  0  0  0  0  0  0  0  0  0  0
    3.4733   42.7514   53.0524 H   0  0  0  0  0  0  0  0  0  0  0  0
  1  2  2  0
  2  3  1  0
  3  4  2  0
  4  5  1  0
  5  6  1  0
  6  7  2  0
  7  8  1  0
  8  9  2  0
  9 10  1  0
  5 11  2  0
 11 12  1  0
 12 13  1  0
 13 14  1  0
 14 15  2  0
 15 16  1  0
 16 17  2  0
 17 18  1  0
 18 19  1  0
 19 20  2  0
 20 21  1  0
 21 22  2  0
 22 23  1  0
 23 24  2  0
 12  2  1  0
 18 14  1  0
 24 19  1  0
 10  6  1  0
  3 25  1  0
  4 26  1  0
  9 27  1  0
 11 28  1  0
 13 29  1  0
 13 30  1  0
 16 31  1  0
 20 32  1  0
 21 33  1  0
 22 34  1  0
 23 35  1  0
 24 36  1  0
M  END
>  <meeko>  (5) 
{"is_sidechain": [false], "free_energy": -7.92, "intermolecular_energy": -9.745, "internal_energy": -0.803}

$$$$
