ligand_19_conformer_4_docked
     RDKit          3D

 47 50  0  0  0  0  0  0  0  0999 V2000
   10.2920   46.8530   54.5340 O   0  0  0  0  0  0  0  0  0  0  0  0
    9.6680   47.0910   53.4640 C   0  0  0  0  0  0  0  0  0  0  0  0
    8.6010   48.1050   53.3420 C   0  0  0  0  0  0  0  0  0  0  0  0
    8.2660   48.0760   51.8420 C   0  0  0  0  0  0  0  0  0  0  0  0
    8.9660   46.8290   51.2450 C   0  0  2  0  0  0  0  0  0  0  0  0
    7.9590   45.7540   50.8840 C   0  0  0  0  0  0  0  0  0  0  0  0
    8.3060   44.7790   49.9360 C   0  0  0  0  0  0  0  0  0  0  0  0
    7.3800   43.8080   49.5510 C   0  0  0  0  0  0  0  0  0  0  0  0
    6.0930   43.8120   50.0920 C   0  0  0  0  0  0  0  0  0  0  0  0
    5.7090   44.7980   51.0110 C   0  0  0  0  0  0  0  0  0  0  0  0
    4.3800   44.7690   51.5610 N   0  0  0  0  0  0  0  0  0  0  0  0
    4.0610   44.3160   52.8880 C   0  0  0  0  0  0  0  0  0  0  0  0
    4.9660   44.2440   53.7650 O   0  0  0  0  0  0  0  0  0  0  0  0
    2.6660   43.9760   53.2440 C   0  0  0  0  0  0  0  0  0  0  0  0
    1.9360   43.0340   52.4980 C   0  0  0  0  0  0  0  0  0  0  0  0
    0.6240   42.7350   52.8650 C   0  0  0  0  0  0  0  0  0  0  0  0
    0.0410   43.3690   53.9750 C   0  0  0  0  0  0  0  0  0  0  0  0
   -1.2810   43.1150   54.3720 O   0  0  0  0  0  0  0  0  0  0  0  0
   -2.0590   43.9620   55.1720 C   0  0  0  0  0  0  0  0  0  0  0  0
   -2.1660   43.7740   56.5620 C   0  0  0  0  0  0  0  0  0  0  0  0
   -2.9430   44.6470   57.3310 C   0  0  0  0  0  0  0  0  0  0  0  0
   -3.6080   45.7140   56.7230 C   0  0  0  0  0  0  0  0  0  0  0  0
   -3.4860   45.9170   55.3470 C   0  0  0  0  0  0  0  0  0  0  0  0
   -2.7080   45.0500   54.5760 C   0  0  0  0  0  0  0  0  0  0  0  0
    0.7940   44.3130   54.6780 C   0  0  0  0  0  0  0  0  0  0  0  0
    2.0720   44.5850   54.3060 N   0  0  0  0  0  0  0  0  0  0  0  0
    6.6530   45.7630   51.4110 C   0  0  0  0  0  0  0  0  0  0  0  0
    9.8880   46.3690   52.2730 N   0  0  0  0  0  0  0  0  0  0  0  0
    7.7247   47.8317   53.9481 H   0  0  0  0  0  0  0  0  0  0  0  0
    8.9057   49.0999   53.6989 H   0  0  0  0  0  0  0  0  0  0  0  0
    7.1777   48.0027   51.6994 H   0  0  0  0  0  0  0  0  0  0  0  0
    8.6106   48.9949   51.3452 H   0  0  0  0  0  0  0  0  0  0  0  0
    9.4940   47.0701   50.3106 H   0  0  0  0  0  0  0  0  0  0  0  0
    9.3133   44.7800   49.4939 H   0  0  0  0  0  0  0  0  0  0  0  0
    7.6651   43.0376   48.8194 H   0  0  0  0  0  0  0  0  0  0  0  0
    5.3741   43.0345   49.7944 H   0  0  0  0  0  0  0  0  0  0  0  0
    3.6080   45.1700   50.9810 H   0  0  0  0  0  0  0  0  0  0  0  0
    2.3961   42.5366   51.6315 H   0  0  0  0  0  0  0  0  0  0  0  0
    0.0449   42.0017   52.2845 H   0  0  0  0  0  0  0  0  0  0  0  0
   -1.6377   42.9389   57.0452 H   0  0  0  0  0  0  0  0  0  0  0  0
   -3.0303   44.4927   58.4166 H   0  0  0  0  0  0  0  0  0  0  0  0
   -4.2270   46.3935   57.3273 H   0  0  0  0  0  0  0  0  0  0  0  0
   -4.0037   46.7616   54.8689 H   0  0  0  0  0  0  0  0  0  0  0  0
   -2.6047   45.2231   53.4946 H   0  0  0  0  0  0  0  0  0  0  0  0
    0.3500   44.8383   55.5365 H   0  0  0  0  0  0  0  0  0  0  0  0
    6.3673   46.5325   52.1433 H   0  0  0  0  0  0  0  0  0  0  0  0
   10.5470   45.5630   52.1770 H   0  0  0  0  0  0  0  0  0  0  0  0
  1  2  2  0
  2  3  1  0
  3  4  1  0
  4  5  1  0
  5  6  1  0
  6  7  2  0
  7  8  1  0
  8  9  2  0
  9 10  1  0
 10 11  1  0
 11 12  1  0
 12 13  2  0
 12 14  1  0
 14 15  2  0
 15 16  1  0
 16 17  2  0
 17 18  1  0
 18 19  1  0
 19 20  2  0
 20 21  1  0
 21 22  2  0
 22 23  1  0
 23 24  2  0
 17 25  1  0
 25 26  2  0
 10 27  2  0
  5 28  1  0
 28  2  1  0
 27  6  1  0
 26 14  1  0
 24 19  1  0
  3 29  1  0
  3 30  1  0
  4 31  1  0
  4 32  1  0
  5 33  1  6
  7 34  1  0
  8 35  1  0
  9 36  1  0
 11 37  1  0
 15 38  1  0
 16 39  1  0
 20 40  1  0
 21 41  1  0
 22 42  1  0
 23 43  1  0
 24 44  1  0
 25 45  1  0
 27 46  1  0
 28 47  1  0
M  END
>  <meeko>  (1) 
{"is_sidechain": [false], "free_energy": -9.212, "intermolecular_energy": -11.905, "internal_energy": -0.634}

$$$$
ligand_19_conformer_4_docked
     RDKit          3D

 47 50  0  0  0  0  0  0  0  0999 V2000
   10.3600   47.0050   54.5410 O   0  0  0  0  0  0  0  0  0  0  0  0
    9.6270   47.2030   53.5350 C   0  0  0  0  0  0  0  0  0  0  0  0
    8.5490   48.2110   53.4870 C   0  0  0  0  0  0  0  0  0  0  0  0
    8.0600   48.1260   52.0320 C   0  0  0  0  0  0  0  0  0  0  0  0
    8.6980   46.8580   51.4120 C   0  0  2  0  0  0  0  0  0  0  0  0
    7.6630   45.7700   51.1990 C   0  0  0  0  0  0  0  0  0  0  0  0
    7.7490   44.9550   50.0590 C   0  0  0  0  0  0  0  0  0  0  0  0
    6.7810   43.9790   49.8150 C   0  0  0  0  0  0  0  0  0  0  0  0
    5.7070   43.8200   50.6940 C   0  0  0  0  0  0  0  0  0  0  0  0
    5.5780   44.6460   51.8190 C   0  0  0  0  0  0  0  0  0  0  0  0
    4.4690   44.4500   52.7130 N   0  0  0  0  0  0  0  0  0  0  0  0
    3.1890   45.0890   52.5690 C   0  0  0  0  0  0  0  0  0  0  0  0
    2.8540   45.5880   51.4600 O   0  0  0  0  0  0  0  0  0  0  0  0
    2.2410   45.1230   53.7050 C   0  0  0  0  0  0  0  0  0  0  0  0
    0.8750   44.8520   53.5180 C   0  0  0  0  0  0  0  0  0  0  0  0
    0.0110   44.8900   54.6120 C   0  0  0  0  0  0  0  0  0  0  0  0
    0.5070   45.1920   55.8910 C   0  0  0  0  0  0  0  0  0  0  0  0
   -0.3260   45.2600   57.0190 O   0  0  0  0  0  0  0  0  0  0  0  0
   -0.7940   46.4430   57.6050 C   0  0  0  0  0  0  0  0  0  0  0  0
   -0.0720   47.1070   58.6130 C   0  0  0  0  0  0  0  0  0  0  0  0
   -0.5670   48.2930   59.1670 C   0  0  0  0  0  0  0  0  0  0  0  0
   -1.7750   48.8280   58.7140 C   0  0  0  0  0  0  0  0  0  0  0  0
   -2.4830   48.1840   57.6970 C   0  0  0  0  0  0  0  0  0  0  0  0
   -1.9910   47.0020   57.1380 C   0  0  0  0  0  0  0  0  0  0  0  0
    1.8690   45.4740   56.0310 C   0  0  0  0  0  0  0  0  0  0  0  0
    2.6930   45.4260   54.9520 N   0  0  0  0  0  0  0  0  0  0  0  0
    6.5680   45.6160   52.0710 C   0  0  0  0  0  0  0  0  0  0  0  0
    9.7240   46.4370   52.3540 N   0  0  0  0  0  0  0  0  0  0  0  0
    7.7416   47.9601   54.1907 H   0  0  0  0  0  0  0  0  0  0  0  0
    8.8849   49.2186   53.7731 H   0  0  0  0  0  0  0  0  0  0  0  0
    6.9631   48.0479   52.0063 H   0  0  0  0  0  0  0  0  0  0  0  0
    8.3481   49.0256   51.4683 H   0  0  0  0  0  0  0  0  0  0  0  0
    9.1240   47.0639   50.4190 H   0  0  0  0  0  0  0  0  0  0  0  0
    8.5835   45.0862   49.3544 H   0  0  0  0  0  0  0  0  0  0  0  0
    6.8642   43.3335   48.9282 H   0  0  0  0  0  0  0  0  0  0  0  0
    4.9559   43.0397   50.5016 H   0  0  0  0  0  0  0  0  0  0  0  0
    4.5800   43.7420   53.4730 H   0  0  0  0  0  0  0  0  0  0  0  0
    0.4900   44.6116   52.5160 H   0  0  0  0  0  0  0  0  0  0  0  0
   -1.0604   44.6832   54.4731 H   0  0  0  0  0  0  0  0  0  0  0  0
    0.8839   46.6932   58.9667 H   0  0  0  0  0  0  0  0  0  0  0  0
   -0.0035   48.8049   59.9609 H   0  0  0  0  0  0  0  0  0  0  0  0
   -2.1680   49.7548   59.1574 H   0  0  0  0  0  0  0  0  0  0  0  0
   -3.4309   48.6087   57.3350 H   0  0  0  0  0  0  0  0  0  0  0  0
   -2.5461   46.5076   56.3271 H   0  0  0  0  0  0  0  0  0  0  0  0
    2.2753   45.7359   57.0191 H   0  0  0  0  0  0  0  0  0  0  0  0
    6.4848   46.2602   52.9587 H   0  0  0  0  0  0  0  0  0  0  0  0
   10.3730   45.6270   52.2200 H   0  0  0  0  0  0  0  0  0  0  0  0
  1  2  2  0
  2  3  1  0
  3  4  1  0
  4  5  1  0
  5  6  1  0
  6  7  2  0
  7  8  1  0
  8  9  2  0
  9 10  1  0
 10 11  1  0
 11 12  1  0
 12 13  2  0
 12 14  1  0
 14 15  2  0
 15 16  1  0
 16 17  2  0
 17 18  1  0
 18 19  1  0
 19 20  2  0
 20 21  1  0
 21 22  2  0
 22 23  1  0
 23 24  2  0
 17 25  1  0
 25 26  2  0
 10 27  2  0
  5 28  1  0
 28  2  1  0
 27  6  1  0
 26 14  1  0
 24 19  1  0
  3 29  1  0
  3 30  1  0
  4 31  1  0
  4 32  1  0
  5 33  1  6
  7 34  1  0
  8 35  1  0
  9 36  1  0
 11 37  1  0
 15 38  1  0
 16 39  1  0
 20 40  1  0
 21 41  1  0
 22 42  1  0
 23 43  1  0
 24 44  1  0
 25 45  1  0
 27 46  1  0
 28 47  1  0
M  END
>  <meeko>  (2) 
{"is_sidechain": [false], "free_energy": -9.124, "intermolecular_energy": -11.63, "internal_energy": -0.795}

$$$$
ligand_19_conformer_4_docked
     RDKit          3D

 47 50  0  0  0  0  0  0  0  0999 V2000
   -0.4010   45.1270   57.5470 O   0  0  0  0  0  0  0  0  0  0  0  0
   -1.3660   44.8950   56.7710 C   0  0  0  0  0  0  0  0  0  0  0  0
   -2.3110   43.7740   56.9440 C   0  0  0  0  0  0  0  0  0  0  0  0
   -3.3390   44.0110   55.8260 C   0  0  0  0  0  0  0  0  0  0  0  0
   -2.7510   45.0980   54.8930 C   0  0  2  0  0  0  0  0  0  0  0  0
   -2.3250   44.5080   53.5620 C   0  0  0  0  0  0  0  0  0  0  0  0
   -3.2210   43.6930   52.8530 C   0  0  0  0  0  0  0  0  0  0  0  0
   -2.8360   43.0990   51.6500 C   0  0  0  0  0  0  0  0  0  0  0  0
   -1.5460   43.2960   51.1520 C   0  0  0  0  0  0  0  0  0  0  0  0
   -0.6200   44.0750   51.8600 C   0  0  0  0  0  0  0  0  0  0  0  0
    0.6970   44.2700   51.3150 N   0  0  0  0  0  0  0  0  0  0  0  0
    1.8920   43.6750   51.8490 C   0  0  0  0  0  0  0  0  0  0  0  0
    1.8110   42.6730   52.6130 O   0  0  0  0  0  0  0  0  0  0  0  0
    3.2210   44.2020   51.4700 C   0  0  0  0  0  0  0  0  0  0  0  0
    3.3910   45.5500   51.1100 C   0  0  0  0  0  0  0  0  0  0  0  0
    4.6590   46.0150   50.7630 C   0  0  0  0  0  0  0  0  0  0  0  0
    5.7580   45.1400   50.7770 C   0  0  0  0  0  0  0  0  0  0  0  0
    7.0490   45.5550   50.4170 O   0  0  0  0  0  0  0  0  0  0  0  0
    7.9970   46.0930   51.2980 C   0  0  0  0  0  0  0  0  0  0  0  0
    7.6320   46.9840   52.3230 C   0  0  0  0  0  0  0  0  0  0  0  0
    8.6050   47.4930   53.1910 C   0  0  0  0  0  0  0  0  0  0  0  0
    9.9410   47.1100   53.0490 C   0  0  0  0  0  0  0  0  0  0  0  0
   10.3030   46.2070   52.0460 C   0  0  0  0  0  0  0  0  0  0  0  0
    9.3340   45.6940   51.1800 C   0  0  0  0  0  0  0  0  0  0  0  0
    5.5430   43.8020   51.1220 C   0  0  0  0  0  0  0  0  0  0  0  0
    4.3000   43.3730   51.4630 N   0  0  0  0  0  0  0  0  0  0  0  0
   -1.0210   44.6880   53.0620 C   0  0  0  0  0  0  0  0  0  0  0  0
   -1.6170   45.6590   55.6120 N   0  0  0  0  0  0  0  0  0  0  0  0
   -1.8039   42.8063   56.8159 H   0  0  0  0  0  0  0  0  0  0  0  0
   -2.7621   43.7388   57.9466 H   0  0  0  0  0  0  0  0  0  0  0  0
   -3.5065   43.0807   55.2635 H   0  0  0  0  0  0  0  0  0  0  0  0
   -4.3050   44.3322   56.2427 H   0  0  0  0  0  0  0  0  0  0  0  0
   -3.4962   45.8707   54.6529 H   0  0  0  0  0  0  0  0  0  0  0  0
   -4.2332   43.5212   53.2479 H   0  0  0  0  0  0  0  0  0  0  0  0
   -3.5500   42.4745   51.0930 H   0  0  0  0  0  0  0  0  0  0  0  0
   -1.2542   42.8361   50.1963 H   0  0  0  0  0  0  0  0  0  0  0  0
    0.7780   44.8230   50.4320 H   0  0  0  0  0  0  0  0  0  0  0  0
    2.5293   46.2337   51.1020 H   0  0  0  0  0  0  0  0  0  0  0  0
    4.7989   47.0682   50.4780 H   0  0  0  0  0  0  0  0  0  0  0  0
    6.5798   47.2815   52.4428 H   0  0  0  0  0  0  0  0  0  0  0  0
    8.3171   48.1960   53.9866 H   0  0  0  0  0  0  0  0  0  0  0  0
   10.7063   47.5184   53.7253 H   0  0  0  0  0  0  0  0  0  0  0  0
   11.3535   45.8992   51.9379 H   0  0  0  0  0  0  0  0  0  0  0  0
    9.6230   44.9728   50.4013 H   0  0  0  0  0  0  0  0  0  0  0  0
    6.3844   43.0935   51.1172 H   0  0  0  0  0  0  0  0  0  0  0  0
   -0.3076   45.3148   53.6171 H   0  0  0  0  0  0  0  0  0  0  0  0
   -1.0170   46.4470   55.2750 H   0  0  0  0  0  0  0  0  0  0  0  0
  1  2  2  0
  2  3  1  0
  3  4  1  0
  4  5  1  0
  5  6  1  0
  6  7  2  0
  7  8  1  0
  8  9  2  0
  9 10  1  0
 10 11  1  0
 11 12  1  0
 12 13  2  0
 12 14  1  0
 14 15  2  0
 15 16  1  0
 16 17  2  0
 17 18  1  0
 18 19  1  0
 19 20  2  0
 20 21  1  0
 21 22  2  0
 22 23  1  0
 23 24  2  0
 17 25  1  0
 25 26  2  0
 10 27  2  0
  5 28  1  0
 28  2  1  0
 27  6  1  0
 26 14  1  0
 24 19  1  0
  3 29  1  0
  3 30  1  0
  4 31  1  0
  4 32  1  0
  5 33  1  6
  7 34  1  0
  8 35  1  0
  9 36  1  0
 11 37  1  0
 15 38  1  0
 16 39  1  0
 20 40  1  0
 21 41  1  0
 22 42  1  0
 23 43  1  0
 24 44  1  0
 25 45  1  0
 27 46  1  0
 28 47  1  0
M  END
>  <meeko>  (3) 
{"is_sidechain": [false], "free_energy": -9.035, "intermolecular_energy": -11.4, "internal_energy": -0.91}

$$$$
ligand_19_conformer_4_docked
     RDKit          3D

 47 50  0  0  0  0  0  0  0  0999 V2000
   10.9140   46.1040   51.5490 O   0  0  0  0  0  0  0  0  0  0  0  0
    9.8300   46.4920   52.0640 C   0  0  0  0  0  0  0  0  0  0  0  0
    9.6760   46.8420   53.4900 C   0  0  0  0  0  0  0  0  0  0  0  0
    8.2280   47.3530   53.5670 C   0  0  0  0  0  0  0  0  0  0  0  0
    7.5470   46.9850   52.2260 C   0  0  2  0  0  0  0  0  0  0  0  0
    6.5350   45.8710   52.4100 C   0  0  0  0  0  0  0  0  0  0  0  0
    6.0780   45.5640   53.7010 C   0  0  0  0  0  0  0  0  0  0  0  0
    5.1840   44.5110   53.9020 C   0  0  0  0  0  0  0  0  0  0  0  0
    4.7530   43.7400   52.8210 C   0  0  0  0  0  0  0  0  0  0  0  0
    5.2230   44.0020   51.5270 C   0  0  0  0  0  0  0  0  0  0  0  0
    4.7500   43.1990   50.4300 N   0  0  0  0  0  0  0  0  0  0  0  0
    5.5180   42.1640   49.7930 C   0  0  0  0  0  0  0  0  0  0  0  0
    6.5180   41.6660   50.3820 O   0  0  0  0  0  0  0  0  0  0  0  0
    5.1150   41.6460   48.4680 C   0  0  0  0  0  0  0  0  0  0  0  0
    5.7740   42.0580   47.2970 C   0  0  0  0  0  0  0  0  0  0  0  0
    5.3690   41.5460   46.0640 C   0  0  0  0  0  0  0  0  0  0  0  0
    4.3140   40.6210   45.9970 C   0  0  0  0  0  0  0  0  0  0  0  0
    3.8590   40.0910   44.7800 O   0  0  0  0  0  0  0  0  0  0  0  0
    4.5770   39.2020   43.9700 C   0  0  0  0  0  0  0  0  0  0  0  0
    4.2460   37.8360   43.8970 C   0  0  0  0  0  0  0  0  0  0  0  0
    4.9790   36.9790   43.0690 C   0  0  0  0  0  0  0  0  0  0  0  0
    6.0350   37.4780   42.3030 C   0  0  0  0  0  0  0  0  0  0  0  0
    6.3510   38.8370   42.3550 C   0  0  0  0  0  0  0  0  0  0  0  0
    5.6200   39.6970   43.1780 C   0  0  0  0  0  0  0  0  0  0  0  0
    3.6730   40.2510   47.1830 C   0  0  0  0  0  0  0  0  0  0  0  0
    4.0870   40.7590   48.3740 N   0  0  0  0  0  0  0  0  0  0  0  0
    6.1090   45.0780   51.3270 C   0  0  0  0  0  0  0  0  0  0  0  0
    8.6260   46.5810   51.3370 N   0  0  0  0  0  0  0  0  0  0  0  0
    9.8183   45.9596   54.1312 H   0  0  0  0  0  0  0  0  0  0  0  0
   10.4147   47.5794   53.8373 H   0  0  0  0  0  0  0  0  0  0  0  0
    7.7010   46.8706   54.4034 H   0  0  0  0  0  0  0  0  0  0  0  0
    8.2033   48.4398   53.7349 H   0  0  0  0  0  0  0  0  0  0  0  0
    6.9834   47.8346   51.8130 H   0  0  0  0  0  0  0  0  0  0  0  0
    6.4264   46.1568   54.5596 H   0  0  0  0  0  0  0  0  0  0  0  0
    4.8181   44.2881   54.9151 H   0  0  0  0  0  0  0  0  0  0  0  0
    4.0386   42.9201   52.9862 H   0  0  0  0  0  0  0  0  0  0  0  0
    3.7590   43.3310   50.1270 H   0  0  0  0  0  0  0  0  0  0  0  0
    6.6030   42.7789   47.3522 H   0  0  0  0  0  0  0  0  0  0  0  0
    5.8768   41.8673   45.1426 H   0  0  0  0  0  0  0  0  0  0  0  0
    3.4093   37.4414   44.4922 H   0  0  0  0  0  0  0  0  0  0  0  0
    4.7232   35.9102   43.0212 H   0  0  0  0  0  0  0  0  0  0  0  0
    6.6168   36.8014   41.6598 H   0  0  0  0  0  0  0  0  0  0  0  0
    7.1779   39.2315   41.7462 H   0  0  0  0  0  0  0  0  0  0  0  0
    5.8652   40.7690   43.2040 H   0  0  0  0  0  0  0  0  0  0  0  0
    2.8296   39.5455   47.1523 H   0  0  0  0  0  0  0  0  0  0  0  0
    6.4726   45.3017   50.3132 H   0  0  0  0  0  0  0  0  0  0  0  0
    8.5120   46.3040   50.3340 H   0  0  0  0  0  0  0  0  0  0  0  0
  1  2  2  0
  2  3  1  0
  3  4  1  0
  4  5  1  0
  5  6  1  0
  6  7  2  0
  7  8  1  0
  8  9  2  0
  9 10  1  0
 10 11  1  0
 11 12  1  0
 12 13  2  0
 12 14  1  0
 14 15  2  0
 15 16  1  0
 16 17  2  0
 17 18  1  0
 18 19  1  0
 19 20  2  0
 20 21  1  0
 21 22  2  0
 22 23  1  0
 23 24  2  0
 17 25  1  0
 25 26  2  0
 10 27  2  0
  5 28  1  0
 28  2  1  0
 27  6  1  0
 26 14  1  0
 24 19  1  0
  3 29  1  0
  3 30  1  0
  4 31  1  0
  4 32  1  0
  5 33  1  6
  7 34  1  0
  8 35  1  0
  9 36  1  0
 11 37  1  0
 15 38  1  0
 16 39  1  0
 20 40  1  0
 21 41  1  0
 22 42  1  0
 23 43  1  0
 24 44  1  0
 25 45  1  0
 27 46  1  0
 28 47  1  0
M  END
>  <meeko>  (4) 
{"is_sidechain": [false], "free_energy": -8.386, "intermolecular_energy": -10.622, "internal_energy": -0.85}

$$$$
ligand_19_conformer_4_docked
     RDKit          3D

 47 50  0  0  0  0  0  0  0  0999 V2000
   -0.3380   48.9070   60.6070 O   0  0  0  0  0  0  0  0  0  0  0  0
   -1.3040   48.4070   59.9680 C   0  0  0  0  0  0  0  0  0  0  0  0
   -2.3870   47.6210   60.5920 C   0  0  0  0  0  0  0  0  0  0  0  0
   -3.3450   47.3590   59.4190 C   0  0  0  0  0  0  0  0  0  0  0  0
   -2.5990   47.7650   58.1250 C   0  0  2  0  0  0  0  0  0  0  0  0
   -2.2130   46.5480   57.3060 C   0  0  0  0  0  0  0  0  0  0  0  0
   -2.9240   45.3510   57.4800 C   0  0  0  0  0  0  0  0  0  0  0  0
   -2.5570   44.2030   56.7740 C   0  0  0  0  0  0  0  0  0  0  0  0
   -1.4650   44.2330   55.9040 C   0  0  0  0  0  0  0  0  0  0  0  0
   -0.7150   45.4070   55.7410 C   0  0  0  0  0  0  0  0  0  0  0  0
    0.3960   45.4110   54.8280 N   0  0  0  0  0  0  0  0  0  0  0  0
    1.7590   45.1610   55.2090 C   0  0  0  0  0  0  0  0  0  0  0  0
    2.0130   44.5820   56.3020 O   0  0  0  0  0  0  0  0  0  0  0  0
    2.8670   45.5360   54.3040 C   0  0  0  0  0  0  0  0  0  0  0  0
    3.9360   44.6560   54.0600 C   0  0  0  0  0  0  0  0  0  0  0  0
    4.9610   45.0420   53.1980 C   0  0  0  0  0  0  0  0  0  0  0  0
    4.9220   46.3000   52.5750 C   0  0  0  0  0  0  0  0  0  0  0  0
    5.9390   46.7410   51.7130 O   0  0  0  0  0  0  0  0  0  0  0  0
    7.3050   46.7560   52.0220 C   0  0  0  0  0  0  0  0  0  0  0  0
    8.2430   46.0300   51.2650 C   0  0  0  0  0  0  0  0  0  0  0  0
    9.6010   46.0770   51.5950 C   0  0  0  0  0  0  0  0  0  0  0  0
   10.0340   46.8540   52.6730 C   0  0  0  0  0  0  0  0  0  0  0  0
    9.1090   47.5950   53.4130 C   0  0  0  0  0  0  0  0  0  0  0  0
    7.7510   47.5520   53.0830 C   0  0  0  0  0  0  0  0  0  0  0  0
    3.8510   47.1530   52.8580 C   0  0  0  0  0  0  0  0  0  0  0  0
    2.8610   46.7550   53.6970 N   0  0  0  0  0  0  0  0  0  0  0  0
   -1.1020   46.5660   56.4410 C   0  0  0  0  0  0  0  0  0  0  0  0
   -1.4240   48.5030   58.5660 N   0  0  0  0  0  0  0  0  0  0  0  0
   -2.0023   46.6775   61.0064 H   0  0  0  0  0  0  0  0  0  0  0  0
   -2.8668   48.1383   61.4359 H   0  0  0  0  0  0  0  0  0  0  0  0
   -3.6134   46.2929   59.3815 H   0  0  0  0  0  0  0  0  0  0  0  0
   -4.2736   47.9373   59.5343 H   0  0  0  0  0  0  0  0  0  0  0  0
   -3.2347   48.3768   57.4680 H   0  0  0  0  0  0  0  0  0  0  0  0
   -3.7750   45.3164   58.1761 H   0  0  0  0  0  0  0  0  0  0  0  0
   -3.1297   43.2728   56.9036 H   0  0  0  0  0  0  0  0  0  0  0  0
   -1.1907   43.3282   55.3418 H   0  0  0  0  0  0  0  0  0  0  0  0
    0.1860   45.5340   53.8120 H   0  0  0  0  0  0  0  0  0  0  0  0
    3.9632   43.6696   54.5461 H   0  0  0  0  0  0  0  0  0  0  0  0
    5.8022   44.3599   53.0053 H   0  0  0  0  0  0  0  0  0  0  0  0
    7.9069   45.4236   50.4110 H   0  0  0  0  0  0  0  0  0  0  0  0
   10.3297   45.5015   51.0052 H   0  0  0  0  0  0  0  0  0  0  0  0
   11.1011   46.8821   52.9384 H   0  0  0  0  0  0  0  0  0  0  0  0
    9.4497   48.2132   54.2566 H   0  0  0  0  0  0  0  0  0  0  0  0
    7.0289   48.1475   53.6609 H   0  0  0  0  0  0  0  0  0  0  0  0
    3.8105   48.1516   52.3985 H   0  0  0  0  0  0  0  0  0  0  0  0
   -0.5297   47.4963   56.3106 H   0  0  0  0  0  0  0  0  0  0  0  0
   -0.7200   48.9530   57.9360 H   0  0  0  0  0  0  0  0  0  0  0  0
  1  2  2  0
  2  3  1  0
  3  4  1  0
  4  5  1  0
  5  6  1  0
  6  7  2  0
  7  8  1  0
  8  9  2  0
  9 10  1  0
 10 11  1  0
 11 12  1  0
 12 13  2  0
 12 14  1  0
 14 15  2  0
 15 16  1  0
 16 17  2  0
 17 18  1  0
 18 19  1  0
 19 20  2  0
 20 21  1  0
 21 22  2  0
 22 23  1  0
 23 24  2  0
 17 25  1  0
 25 26  2  0
 10 27  2  0
  5 28  1  0
 28  2  1  0
 27  6  1  0
 26 14  1  0
 24 19  1  0
  3 29  1  0
  3 30  1  0
  4 31  1  0
  4 32  1  0
  5 33  1  6
  7 34  1  0
  8 35  1  0
  9 36  1  0
 11 37  1  0
 15 38  1  0
 16 39  1  0
 20 40  1  0
 21 41  1  0
 22 42  1  0
 23 43  1  0
 24 44  1  0
 25 45  1  0
 27 46  1  0
 28 47  1  0
M  END
>  <meeko>  (5) 
{"is_sidechain": [false], "free_energy": -8.268, "intermolecular_energy": -10.309, "internal_energy": -1.011}

$$$$
