ligand_55_conformer_5_docked
     RDKit          3D

 39 41  0  0  0  0  0  0  0  0999 V2000
    2.0190   43.9620   53.6380 O   0  0  0  0  0  0  0  0  0  0  0  0
    2.9690   44.2190   52.8530 C   0  0  0  0  0  0  0  0  0  0  0  0
    2.9510   45.5040   52.0800 C   0  0  0  0  0  0  0  0  0  0  0  0
    3.8830   45.4650   50.8620 C   0  0  0  0  0  0  0  0  0  0  0  0
    5.2590   44.8490   51.1820 C   0  0  1  0  0  0  0  0  0  0  0  0
    6.0040   45.6870   52.1320 N   0  0  0  0  0  0  0  0  0  0  0  0
    7.3900   46.0120   51.9400 C   0  0  0  0  0  0  0  0  0  0  0  0
    7.9380   45.7850   50.8250 O   0  0  0  0  0  0  0  0  0  0  0  0
    8.1810   46.6410   53.0220 C   0  0  0  0  0  0  0  0  0  0  0  0
    9.5840   46.5700   52.9960 C   0  0  0  0  0  0  0  0  0  0  0  0
   10.3350   47.1630   54.0110 C   0  0  0  0  0  0  0  0  0  0  0  0
    9.6800   47.8150   55.0550 C   0  0  0  0  0  0  0  0  0  0  0  0
    8.3230   47.8620   55.0820 N   0  0  0  0  0  0  0  0  0  0  0  0
    7.5630   47.2970   54.1050 C   0  0  0  0  0  0  0  0  0  0  0  0
    6.2130   47.3360   54.2220 F   0  0  0  0  0  0  0  0  0  0  0  0
    5.1120   43.4060   51.7300 C   0  0  2  0  0  0  0  0  0  0  0  0
    4.8500   42.4130   50.6100 C   0  0  0  0  0  0  0  0  0  0  0  0
    5.7580   42.3320   49.5380 C   0  0  0  0  0  0  0  0  0  0  0  0
    5.5280   41.4530   48.4760 C   0  0  0  0  0  0  0  0  0  0  0  0
    4.3840   40.6520   48.4660 C   0  0  0  0  0  0  0  0  0  0  0  0
    3.4660   40.7330   49.5150 C   0  0  0  0  0  0  0  0  0  0  0  0
    3.6920   41.6100   50.5800 C   0  0  0  0  0  0  0  0  0  0  0  0
    4.0790   43.3150   52.7670 N   0  0  0  0  0  0  0  0  0  0  0  0
    1.9244   45.6939   51.7337 H   0  0  0  0  0  0  0  0  0  0  0  0
    3.3044   46.3032   52.7482 H   0  0  0  0  0  0  0  0  0  0  0  0
    3.4049   44.8662   50.0727 H   0  0  0  0  0  0  0  0  0  0  0  0
    4.0518   46.5035   50.5409 H   0  0  0  0  0  0  0  0  0  0  0  0
    5.8291   44.8024   50.2424 H   0  0  0  0  0  0  0  0  0  0  0  0
    5.4980   46.1580   52.9140 H   0  0  0  0  0  0  0  0  0  0  0  0
   10.0915   46.0454   52.1731 H   0  0  0  0  0  0  0  0  0  0  0  0
   11.4338   47.1167   53.9880 H   0  0  0  0  0  0  0  0  0  0  0  0
   10.2626   48.2915   55.8571 H   0  0  0  0  0  0  0  0  0  0  0  0
    6.0709   43.1422   52.2001 H   0  0  0  0  0  0  0  0  0  0  0  0
    6.6568   42.9661   49.5358 H   0  0  0  0  0  0  0  0  0  0  0  0
    6.2487   41.3920   47.6472 H   0  0  0  0  0  0  0  0  0  0  0  0
    4.2062   39.9574   47.6318 H   0  0  0  0  0  0  0  0  0  0  0  0
    2.5628   40.1052   49.5034 H   0  0  0  0  0  0  0  0  0  0  0  0
    2.9614   41.6738   51.3998 H   0  0  0  0  0  0  0  0  0  0  0  0
    4.0720   42.4670   53.3770 H   0  0  0  0  0  0  0  0  0  0  0  0
  1  2  2  0
  2  3  1  0
  3  4  1  0
  4  5  1  0
  5  6  1  0
  6  7  1  0
  7  8  2  0
  7  9  1  0
  9 10  2  0
 10 11  1  0
 11 12  2  0
 12 13  1  0
 13 14  2  0
 14 15  1  0
  5 16  1  0
 16 17  1  0
 17 18  2  0
 18 19  1  0
 19 20  2  0
 20 21  1  0
 21 22  2  0
 16 23  1  0
 23  2  1  0
 14  9  1  0
 22 17  1  0
  3 24  1  0
  3 25  1  0
  4 26  1  0
  4 27  1  0
  5 28  1  6
  6 29  1  0
 10 30  1  0
 11 31  1  0
 12 32  1  0
 16 33  1  1
 18 34  1  0
 19 35  1  0
 20 36  1  0
 21 37  1  0
 22 38  1  0
 23 39  1  0
M  END
>  <meeko>  (1) 
{"is_sidechain": [false], "free_energy": -9.405, "intermolecular_energy": -11.054, "internal_energy": -0.467}

$$$$
ligand_55_conformer_5_docked
     RDKit          3D

 39 41  0  0  0  0  0  0  0  0999 V2000
    5.4470   48.2250   53.3830 O   0  0  0  0  0  0  0  0  0  0  0  0
    5.2740   46.9780   53.3290 C   0  0  0  0  0  0  0  0  0  0  0  0
    5.6160   46.1400   54.5240 C   0  0  0  0  0  0  0  0  0  0  0  0
    5.8000   44.6600   54.1660 C   0  0  0  0  0  0  0  0  0  0  0  0
    4.7030   44.1340   53.2190 C   0  0  1  0  0  0  0  0  0  0  0  0
    3.3890   44.1450   53.8770 N   0  0  0  0  0  0  0  0  0  0  0  0
    2.2470   43.4790   53.3150 C   0  0  0  0  0  0  0  0  0  0  0  0
    2.4040   42.6650   52.3620 O   0  0  0  0  0  0  0  0  0  0  0  0
    0.8890   43.7090   53.8560 C   0  0  0  0  0  0  0  0  0  0  0  0
    0.6850   44.6810   54.8480 C   0  0  0  0  0  0  0  0  0  0  0  0
   -0.5930   44.9050   55.3600 C   0  0  0  0  0  0  0  0  0  0  0  0
   -1.6630   44.1460   54.8860 C   0  0  0  0  0  0  0  0  0  0  0  0
   -1.4530   43.1940   53.9400 N   0  0  0  0  0  0  0  0  0  0  0  0
   -0.2200   42.9560   53.4190 C   0  0  0  0  0  0  0  0  0  0  0  0
   -0.0740   41.9560   52.5150 F   0  0  0  0  0  0  0  0  0  0  0  0
    4.6590   44.9520   51.9040 C   0  0  2  0  0  0  0  0  0  0  0  0
    5.7720   44.5380   50.9560 C   0  0  0  0  0  0  0  0  0  0  0  0
    5.7260   43.2650   50.3580 C   0  0  0  0  0  0  0  0  0  0  0  0
    6.7520   42.8420   49.5080 C   0  0  0  0  0  0  0  0  0  0  0  0
    7.8410   43.6790   49.2550 C   0  0  0  0  0  0  0  0  0  0  0  0
    7.9080   44.9390   49.8530 C   0  0  0  0  0  0  0  0  0  0  0  0
    6.8840   45.3670   50.7040 C   0  0  0  0  0  0  0  0  0  0  0  0
    4.6900   46.3970   52.1550 N   0  0  0  0  0  0  0  0  0  0  0  0
    6.5516   46.5163   54.9634 H   0  0  0  0  0  0  0  0  0  0  0  0
    4.7797   46.2120   55.2349 H   0  0  0  0  0  0  0  0  0  0  0  0
    6.7768   44.5357   53.6758 H   0  0  0  0  0  0  0  0  0  0  0  0
    5.7361   44.0827   55.1001 H   0  0  0  0  0  0  0  0  0  0  0  0
    4.9535   43.0932   52.9659 H   0  0  0  0  0  0  0  0  0  0  0  0
    3.2930   44.5490   54.8360 H   0  0  0  0  0  0  0  0  0  0  0  0
    1.5362   45.2682   55.2230 H   0  0  0  0  0  0  0  0  0  0  0  0
   -0.7555   45.6731   56.1305 H   0  0  0  0  0  0  0  0  0  0  0  0
   -2.6762   44.3182   55.2780 H   0  0  0  0  0  0  0  0  0  0  0  0
    3.6987   44.7253   51.4177 H   0  0  0  0  0  0  0  0  0  0  0  0
    4.8757   42.5973   50.5611 H   0  0  0  0  0  0  0  0  0  0  0  0
    6.7016   41.8488   49.0379 H   0  0  0  0  0  0  0  0  0  0  0  0
    8.6465   43.3454   48.5842 H   0  0  0  0  0  0  0  0  0  0  0  0
    8.7676   45.5960   49.6544 H   0  0  0  0  0  0  0  0  0  0  0  0
    6.9467   46.3568   51.1797 H   0  0  0  0  0  0  0  0  0  0  0  0
    4.4100   47.0350   51.3760 H   0  0  0  0  0  0  0  0  0  0  0  0
  1  2  2  0
  2  3  1  0
  3  4  1  0
  4  5  1  0
  5  6  1  0
  6  7  1  0
  7  8  2  0
  7  9  1  0
  9 10  2  0
 10 11  1  0
 11 12  2  0
 12 13  1  0
 13 14  2  0
 14 15  1  0
  5 16  1  0
 16 17  1  0
 17 18  2  0
 18 19  1  0
 19 20  2  0
 20 21  1  0
 21 22  2  0
 16 23  1  0
 23  2  1  0
 14  9  1  0
 22 17  1  0
  3 24  1  0
  3 25  1  0
  4 26  1  0
  4 27  1  0
  5 28  1  6
  6 29  1  0
 10 30  1  0
 11 31  1  0
 12 32  1  0
 16 33  1  6
 18 34  1  0
 19 35  1  0
 20 36  1  0
 21 37  1  0
 22 38  1  0
 23 39  1  0
M  END
>  <meeko>  (2) 
{"is_sidechain": [false], "free_energy": -9.009, "intermolecular_energy": -10.702, "internal_energy": -0.354}

$$$$
ligand_55_conformer_5_docked
     RDKit          3D

 39 41  0  0  0  0  0  0  0  0999 V2000
    3.0740   46.9290   52.0730 O   0  0  0  0  0  0  0  0  0  0  0  0
    3.9720   46.0660   51.8840 C   0  0  0  0  0  0  0  0  0  0  0  0
    3.8890   44.7550   52.6060 C   0  0  0  0  0  0  0  0  0  0  0  0
    5.2370   44.0260   52.6490 C   0  0  0  0  0  0  0  0  0  0  0  0
    5.9700   44.0450   51.2920 C   0  0  1  0  0  0  0  0  0  0  0  0
    5.2240   43.2850   50.2800 N   0  0  0  0  0  0  0  0  0  0  0  0
    5.7780   42.1300   49.6300 C   0  0  0  0  0  0  0  0  0  0  0  0
    6.8280   41.5980   50.0870 O   0  0  0  0  0  0  0  0  0  0  0  0
    5.1200   41.5330   48.4460 C   0  0  0  0  0  0  0  0  0  0  0  0
    5.5750   41.8500   47.1560 C   0  0  0  0  0  0  0  0  0  0  0  0
    4.9600   41.2880   46.0370 C   0  0  0  0  0  0  0  0  0  0  0  0
    3.8840   40.4190   46.2120 C   0  0  0  0  0  0  0  0  0  0  0  0
    3.4370   40.1330   47.4630 N   0  0  0  0  0  0  0  0  0  0  0  0
    4.0180   40.6620   48.5730 C   0  0  0  0  0  0  0  0  0  0  0  0
    3.4900   40.3740   49.7880 F   0  0  0  0  0  0  0  0  0  0  0  0
    6.2150   45.4980   50.8100 C   0  0  2  0  0  0  0  0  0  0  0  0
    7.3920   46.1290   51.5330 C   0  0  0  0  0  0  0  0  0  0  0  0
    8.6980   45.7060   51.2200 C   0  0  0  0  0  0  0  0  0  0  0  0
    9.8000   46.2440   51.8920 C   0  0  0  0  0  0  0  0  0  0  0  0
    9.6110   47.2020   52.8910 C   0  0  0  0  0  0  0  0  0  0  0  0
    8.3210   47.6200   53.2220 C   0  0  0  0  0  0  0  0  0  0  0  0
    7.2160   47.0860   52.5530 C   0  0  0  0  0  0  0  0  0  0  0  0
    5.0130   46.3280   50.9330 N   0  0  0  0  0  0  0  0  0  0  0  0
    3.5543   44.9401   53.6374 H   0  0  0  0  0  0  0  0  0  0  0  0
    3.1789   44.1158   52.0608 H   0  0  0  0  0  0  0  0  0  0  0  0
    5.8760   44.5127   53.4005 H   0  0  0  0  0  0  0  0  0  0  0  0
    5.0371   42.9745   52.9029 H   0  0  0  0  0  0  0  0  0  0  0  0
    6.9479   43.5619   51.4342 H   0  0  0  0  0  0  0  0  0  0  0  0
    4.2210   43.5110   50.0970 H   0  0  0  0  0  0  0  0  0  0  0  0
    6.4190   42.5436   47.0273 H   0  0  0  0  0  0  0  0  0  0  0  0
    5.3207   41.5283   45.0260 H   0  0  0  0  0  0  0  0  0  0  0  0
    3.3965   39.9646   45.3369 H   0  0  0  0  0  0  0  0  0  0  0  0
    6.4644   45.4433   49.7400 H   0  0  0  0  0  0  0  0  0  0  0  0
    8.8528   44.9458   50.4402 H   0  0  0  0  0  0  0  0  0  0  0  0
   10.8166   45.9126   51.6337 H   0  0  0  0  0  0  0  0  0  0  0  0
   10.4787   47.6269   53.4168 H   0  0  0  0  0  0  0  0  0  0  0  0
    8.1736   48.3717   54.0115 H   0  0  0  0  0  0  0  0  0  0  0  0
    6.2020   47.4148   52.8243 H   0  0  0  0  0  0  0  0  0  0  0  0
    4.9870   47.2320   50.4100 H   0  0  0  0  0  0  0  0  0  0  0  0
  1  2  2  0
  2  3  1  0
  3  4  1  0
  4  5  1  0
  5  6  1  0
  6  7  1  0
  7  8  2  0
  7  9  1  0
  9 10  2  0
 10 11  1  0
 11 12  2  0
 12 13  1  0
 13 14  2  0
 14 15  1  0
  5 16  1  0
 16 17  1  0
 17 18  2  0
 18 19  1  0
 19 20  2  0
 20 21  1  0
 21 22  2  0
 16 23  1  0
 23  2  1  0
 14  9  1  0
 22 17  1  0
  3 24  1  0
  3 25  1  0
  4 26  1  0
  4 27  1  0
  5 28  1  1
  6 29  1  0
 10 30  1  0
 11 31  1  0
 12 32  1  0
 16 33  1  6
 18 34  1  0
 19 35  1  0
 20 36  1  0
 21 37  1  0
 22 38  1  0
 23 39  1  0
M  END
>  <meeko>  (3) 
{"is_sidechain": [false], "free_energy": -8.958, "intermolecular_energy": -10.274, "internal_energy": -0.722}

$$$$
ligand_55_conformer_5_docked
     RDKit          3D

 39 41  0  0  0  0  0  0  0  0999 V2000
    5.7920   43.6580   49.9040 O   0  0  0  0  0  0  0  0  0  0  0  0
    5.4750   44.4420   50.8390 C   0  0  0  0  0  0  0  0  0  0  0  0
    4.4430   45.4990   50.5870 C   0  0  0  0  0  0  0  0  0  0  0  0
    4.5040   46.6320   51.6200 C   0  0  0  0  0  0  0  0  0  0  0  0
    4.6550   46.1150   53.0650 C   0  0  1  0  0  0  0  0  0  0  0  0
    3.4630   45.3620   53.4820 N   0  0  0  0  0  0  0  0  0  0  0  0
    2.1390   45.9110   53.3800 C   0  0  0  0  0  0  0  0  0  0  0  0
    1.9460   46.9610   52.7060 O   0  0  0  0  0  0  0  0  0  0  0  0
    0.9870   45.2450   54.0300 C   0  0  0  0  0  0  0  0  0  0  0  0
    0.7710   45.4060   55.4080 C   0  0  0  0  0  0  0  0  0  0  0  0
   -0.3140   44.7830   56.0260 C   0  0  0  0  0  0  0  0  0  0  0  0
   -1.1730   43.9920   55.2640 C   0  0  0  0  0  0  0  0  0  0  0  0
   -0.9450   43.8260   53.9350 N   0  0  0  0  0  0  0  0  0  0  0  0
    0.1020   44.4230   53.3040 C   0  0  0  0  0  0  0  0  0  0  0  0
    0.2990   44.1730   51.9860 F   0  0  0  0  0  0  0  0  0  0  0  0
    5.9290   45.2450   53.2180 C   0  0  2  0  0  0  0  0  0  0  0  0
    7.1760   46.1040   53.3230 C   0  0  0  0  0  0  0  0  0  0  0  0
    8.0750   46.1460   52.2400 C   0  0  0  0  0  0  0  0  0  0  0  0
    9.2480   46.9010   52.3190 C   0  0  0  0  0  0  0  0  0  0  0  0
    9.5450   47.6140   53.4830 C   0  0  0  0  0  0  0  0  0  0  0  0
    8.6710   47.5700   54.5700 C   0  0  0  0  0  0  0  0  0  0  0  0
    7.4950   46.8170   54.4970 C   0  0  0  0  0  0  0  0  0  0  0  0
    6.0540   44.2610   52.1380 N   0  0  0  0  0  0  0  0  0  0  0  0
    4.6092   45.9238   49.5861 H   0  0  0  0  0  0  0  0  0  0  0  0
    3.4525   45.0268   50.6642 H   0  0  0  0  0  0  0  0  0  0  0  0
    5.3645   47.2758   51.3852 H   0  0  0  0  0  0  0  0  0  0  0  0
    3.5542   47.1839   51.5630 H   0  0  0  0  0  0  0  0  0  0  0  0
    4.7580   46.9905   53.7230 H   0  0  0  0  0  0  0  0  0  0  0  0
    3.5540   44.3590   53.7570 H   0  0  0  0  0  0  0  0  0  0  0  0
    1.4592   46.0251   56.0022 H   0  0  0  0  0  0  0  0  0  0  0  0
   -0.4899   44.9146   57.1038 H   0  0  0  0  0  0  0  0  0  0  0  0
   -2.0357   43.5021   55.7391 H   0  0  0  0  0  0  0  0  0  0  0  0
    5.8246   44.6848   54.1589 H   0  0  0  0  0  0  0  0  0  0  0  0
    7.8519   45.5795   51.3239 H   0  0  0  0  0  0  0  0  0  0  0  0
    9.9386   46.9340   51.4634 H   0  0  0  0  0  0  0  0  0  0  0  0
   10.4676   48.2100   53.5427 H   0  0  0  0  0  0  0  0  0  0  0  0
    8.9079   48.1294   55.4871 H   0  0  0  0  0  0  0  0  0  0  0  0
    6.8146   46.7806   55.3606 H   0  0  0  0  0  0  0  0  0  0  0  0
    6.7200   43.4670   52.2750 H   0  0  0  0  0  0  0  0  0  0  0  0
  1  2  2  0
  2  3  1  0
  3  4  1  0
  4  5  1  0
  5  6  1  0
  6  7  1  0
  7  8  2  0
  7  9  1  0
  9 10  2  0
 10 11  1  0
 11 12  2  0
 12 13  1  0
 13 14  2  0
 14 15  1  0
  5 16  1  0
 16 17  1  0
 17 18  2  0
 18 19  1  0
 19 20  2  0
 20 21  1  0
 21 22  2  0
 16 23  1  0
 23  2  1  0
 14  9  1  0
 22 17  1  0
  3 24  1  0
  3 25  1  0
  4 26  1  0
  4 27  1  0
  5 28  1  1
  6 29  1  0
 10 30  1  0
 11 31  1  0
 12 32  1  0
 16 33  1  1
 18 34  1  0
 19 35  1  0
 20 36  1  0
 21 37  1  0
 22 38  1  0
 23 39  1  0
M  END
>  <meeko>  (4) 
{"is_sidechain": [false], "free_energy": -7.971, "intermolecular_energy": -9.666, "internal_energy": -0.17}

$$$$
ligand_55_conformer_5_docked
     RDKit          3D

 39 41  0  0  0  0  0  0  0  0999 V2000
    3.2960   41.1570   50.5030 O   0  0  0  0  0  0  0  0  0  0  0  0
    3.2300   42.2750   51.0800 C   0  0  0  0  0  0  0  0  0  0  0  0
    2.1390   43.2300   50.6980 C   0  0  0  0  0  0  0  0  0  0  0  0
    2.4530   44.6720   51.1170 C   0  0  0  0  0  0  0  0  0  0  0  0
    3.0130   44.7690   52.5500 C   0  0  1  0  0  0  0  0  0  0  0  0
    2.0060   44.3580   53.5380 N   0  0  0  0  0  0  0  0  0  0  0  0
    0.7670   45.0660   53.7050 C   0  0  0  0  0  0  0  0  0  0  0  0
    0.4090   45.9140   52.8410 O   0  0  0  0  0  0  0  0  0  0  0  0
   -0.1150   44.7940   54.8620 C   0  0  0  0  0  0  0  0  0  0  0  0
   -1.3580   44.1700   54.6650 C   0  0  0  0  0  0  0  0  0  0  0  0
   -2.1920   43.9080   55.7520 C   0  0  0  0  0  0  0  0  0  0  0  0
   -1.7850   44.2810   57.0320 C   0  0  0  0  0  0  0  0  0  0  0  0
   -0.5900   44.9020   57.2120 N   0  0  0  0  0  0  0  0  0  0  0  0
    0.2460   45.1670   56.1730 C   0  0  0  0  0  0  0  0  0  0  0  0
    1.4010   45.8350   56.4170 F   0  0  0  0  0  0  0  0  0  0  0  0
    4.3040   43.9240   52.7050 C   0  0  2  0  0  0  0  0  0  0  0  0
    5.5070   44.6370   52.1130 C   0  0  0  0  0  0  0  0  0  0  0  0
    6.1210   45.6700   52.8440 C   0  0  0  0  0  0  0  0  0  0  0  0
    7.2090   46.3680   52.3120 C   0  0  0  0  0  0  0  0  0  0  0  0
    7.6900   46.0500   51.0390 C   0  0  0  0  0  0  0  0  0  0  0  0
    7.0800   45.0380   50.2960 C   0  0  0  0  0  0  0  0  0  0  0  0
    5.9920   44.3370   50.8230 C   0  0  0  0  0  0  0  0  0  0  0  0
    4.1520   42.5810   52.1350 N   0  0  0  0  0  0  0  0  0  0  0  0
    2.0087   43.1995   49.6062 H   0  0  0  0  0  0  0  0  0  0  0  0
    1.2225   42.9200   51.2213 H   0  0  0  0  0  0  0  0  0  0  0  0
    3.1965   45.0865   50.4203 H   0  0  0  0  0  0  0  0  0  0  0  0
    1.5098   45.2374   51.0909 H   0  0  0  0  0  0  0  0  0  0  0  0
    3.2694   45.8223   52.7366 H   0  0  0  0  0  0  0  0  0  0  0  0
    2.1300   43.4640   54.0630 H   0  0  0  0  0  0  0  0  0  0  0  0
   -1.6747   43.8871   53.6503 H   0  0  0  0  0  0  0  0  0  0  0  0
   -3.1619   43.4116   55.6005 H   0  0  0  0  0  0  0  0  0  0  0  0
   -2.4318   44.0724   57.8970 H   0  0  0  0  0  0  0  0  0  0  0  0
    4.4808   43.8026   53.7839 H   0  0  0  0  0  0  0  0  0  0  0  0
    5.7417   45.9308   53.8430 H   0  0  0  0  0  0  0  0  0  0  0  0
    7.6870   47.1683   52.8959 H   0  0  0  0  0  0  0  0  0  0  0  0
    8.5489   46.5969   50.6228 H   0  0  0  0  0  0  0  0  0  0  0  0
    7.4569   44.7915   49.2924 H   0  0  0  0  0  0  0  0  0  0  0  0
    5.5110   43.5465   50.2282 H   0  0  0  0  0  0  0  0  0  0  0  0
    4.8510   41.8530   52.4050 H   0  0  0  0  0  0  0  0  0  0  0  0
  1  2  2  0
  2  3  1  0
  3  4  1  0
  4  5  1  0
  5  6  1  0
  6  7  1  0
  7  8  2  0
  7  9  1  0
  9 10  2  0
 10 11  1  0
 11 12  2  0
 12 13  1  0
 13 14  2  0
 14 15  1  0
  5 16  1  0
 16 17  1  0
 17 18  2  0
 18 19  1  0
 19 20  2  0
 20 21  1  0
 21 22  2  0
 16 23  1  0
 23  2  1  0
 14  9  1  0
 22 17  1  0
  3 24  1  0
  3 25  1  0
  4 26  1  0
  4 27  1  0
  5 28  1  1
  6 29  1  0
 10 30  1  0
 11 31  1  0
 12 32  1  0
 16 33  1  1
 18 34  1  0
 19 35  1  0
 20 36  1  0
 21 37  1  0
 22 38  1  0
 23 39  1  0
M  END
>  <meeko>  (5) 
{"is_sidechain": [false], "free_energy": -7.759, "intermolecular_energy": -9.216, "internal_energy": -0.371}

$$$$
