MODEL 1
REMARK VINA RESULT:    -9.563      0.000      0.000
REMARK INTER + INTRA:         -13.889
REMARK INTER:                 -12.917
REMARK INTRA:                  -0.972
REMARK UNBOUND:                -0.972
REMARK SMILES C[C@@H](C(=O)NC1(Cc2ccccc2)CCC1)n1ccc(C(F)(F)F)n1
REMARK SMILES IDX 3 1 4 2 5 3 2 5 1 6 17 7 18 8 25 9 19 10 20 11 21 12 22 13
REMARK SMILES IDX 23 14 24 15 6 16 14 17 16 18 15 19 7 20 8 21 9 22 13 23
REMARK SMILES IDX 10 24 12 25 11 26
REMARK H PARENT 5 4
ROOT
ATOM      1  C   UNL     1       5.922  46.717  53.965  1.00  0.00     0.245 C 
ATOM      2  O   UNL     1       5.723  47.894  53.562  1.00  0.00    -0.273 OA
ATOM      3  N   UNL     1       7.139  46.031  53.623  1.00  0.00    -0.348 N 
ATOM      4  H   UNL     1       7.269  45.051  53.959  1.00  0.00     0.164 HD
ENDROOT
BRANCH   1   5
ATOM      5  C   UNL     1       4.866  46.042  54.803  1.00  0.00     0.193 C 
ATOM      6  C   UNL     1       5.473  44.958  55.698  1.00  0.00     0.044 C 
BRANCH   5   7
ATOM      7  N   UNL     1       3.816  45.485  53.946  1.00  0.00    -0.260 N 
ATOM      8  C   UNL     1       2.720  46.140  53.517  1.00  0.00     0.110 A 
ATOM      9  N   UNL     1       3.832  44.259  53.444  1.00  0.00    -0.168 NA
ATOM     10  C   UNL     1       1.990  45.292  52.712  1.00  0.00     0.055 A 
ATOM     11  C   UNL     1       2.732  44.125  52.679  1.00  0.00     0.166 A 
BRANCH  11  12
ATOM     12  C   UNL     1       2.357  42.863  51.970  1.00  0.00     0.435 C 
ATOM     13  F   UNL     1       3.437  42.000  51.943  1.00  0.00    -0.164 F 
ATOM     14  F   UNL     1       1.975  43.142  50.671  1.00  0.00    -0.164 F 
ATOM     15  F   UNL     1       1.307  42.258  52.634  1.00  0.00    -0.164 F 
ENDBRANCH  11  12
ENDBRANCH   5   7
ENDBRANCH   1   5
BRANCH   3  16
ATOM     16  C   UNL     1       8.186  46.627  52.778  1.00  0.00     0.044 C 
ATOM     17  C   UNL     1       9.548  45.935  52.954  1.00  0.00     0.029 C 
ATOM     18  C   UNL     1       8.775  47.902  53.398  1.00  0.00     0.029 C 
ATOM     19  C   UNL     1      10.116  47.204  53.573  1.00  0.00     0.005 C 
BRANCH  16  20
ATOM     20  C   UNL     1       7.749  46.797  51.302  1.00  0.00     0.063 C 
BRANCH  20  21
ATOM     21  C   UNL     1       7.362  45.485  50.663  1.00  0.00    -0.046 A 
ATOM     22  C   UNL     1       6.076  44.950  50.850  1.00  0.00     0.004 A 
ATOM     23  C   UNL     1       8.283  44.789  49.860  1.00  0.00     0.004 A 
ATOM     24  C   UNL     1       5.718  43.743  50.242  1.00  0.00     0.000 A 
ATOM     25  C   UNL     1       7.925  43.576  49.265  1.00  0.00     0.000 A 
ATOM     26  C   UNL     1       6.641  43.057  49.449  1.00  0.00     0.000 A 
ENDBRANCH  20  21
ENDBRANCH  16  20
ENDBRANCH   3  16
TORSDOF 6
ENDMDL
MODEL 2
REMARK VINA RESULT:    -8.829      3.083      5.762
REMARK INTER + INTRA:         -12.898
REMARK INTER:                 -12.169
REMARK INTRA:                  -0.729
REMARK UNBOUND:                -0.972
REMARK SMILES C[C@@H](C(=O)NC1(Cc2ccccc2)CCC1)n1ccc(C(F)(F)F)n1
REMARK SMILES IDX 3 1 4 2 5 3 2 5 1 6 17 7 18 8 25 9 19 10 20 11 21 12 22 13
REMARK SMILES IDX 23 14 24 15 6 16 14 17 16 18 15 19 7 20 8 21 9 22 13 23
REMARK SMILES IDX 10 24 12 25 11 26
REMARK H PARENT 5 4
ROOT
ATOM      1  C   UNL     1       3.299  45.321  53.522  1.00  0.00     0.245 C 
ATOM      2  O   UNL     1       3.319  44.626  54.573  1.00  0.00    -0.273 OA
ATOM      3  N   UNL     1       2.871  44.739  52.278  1.00  0.00    -0.348 N 
ATOM      4  H   UNL     1       2.879  45.335  51.422  1.00  0.00     0.164 HD
ENDROOT
BRANCH   1   5
ATOM      5  C   UNL     1       3.736  46.762  53.589  1.00  0.00     0.193 C 
ATOM      6  C   UNL     1       3.119  47.585  52.455  1.00  0.00     0.044 C 
BRANCH   5   7
ATOM      7  N   UNL     1       5.198  46.852  53.564  1.00  0.00    -0.260 N 
ATOM      8  C   UNL     1       6.015  46.690  54.623  1.00  0.00     0.110 A 
ATOM      9  N   UNL     1       5.916  47.071  52.472  1.00  0.00    -0.168 NA
ATOM     10  C   UNL     1       7.318  46.822  54.196  1.00  0.00     0.055 A 
ATOM     11  C   UNL     1       7.213  47.045  52.834  1.00  0.00     0.166 A 
BRANCH  11  12
ATOM     12  C   UNL     1       8.347  47.297  51.892  1.00  0.00     0.435 C 
ATOM     13  F   UNL     1       9.551  47.073  52.535  1.00  0.00    -0.164 F 
ATOM     14  F   UNL     1       8.314  48.605  51.447  1.00  0.00    -0.164 F 
ATOM     15  F   UNL     1       8.242  46.443  50.810  1.00  0.00    -0.164 F 
ENDBRANCH  11  12
ENDBRANCH   5   7
ENDBRANCH   1   5
BRANCH   3  16
ATOM     16  C   UNL     1       2.471  43.328  52.147  1.00  0.00     0.044 C 
ATOM     17  C   UNL     1       1.588  43.080  50.912  1.00  0.00     0.029 C 
ATOM     18  C   UNL     1       1.277  42.979  53.047  1.00  0.00     0.029 C 
ATOM     19  C   UNL     1       0.412  42.743  51.819  1.00  0.00     0.005 C 
BRANCH  16  20
ATOM     20  C   UNL     1       3.661  42.346  52.282  1.00  0.00     0.063 C 
BRANCH  20  21
ATOM     21  C   UNL     1       4.657  42.494  51.157  1.00  0.00    -0.046 A 
ATOM     22  C   UNL     1       5.424  43.665  51.029  1.00  0.00     0.004 A 
ATOM     23  C   UNL     1       4.838  41.452  50.230  1.00  0.00     0.004 A 
ATOM     24  C   UNL     1       6.357  43.788  49.996  1.00  0.00     0.000 A 
ATOM     25  C   UNL     1       5.763  41.586  49.190  1.00  0.00     0.000 A 
ATOM     26  C   UNL     1       6.527  42.749  49.077  1.00  0.00     0.000 A 
ENDBRANCH  20  21
ENDBRANCH  16  20
ENDBRANCH   3  16
TORSDOF 6
ENDMDL
MODEL 3
REMARK VINA RESULT:    -8.513      2.347      4.383
REMARK INTER + INTRA:         -12.471
REMARK INTER:                 -11.562
REMARK INTRA:                  -0.909
REMARK UNBOUND:                -0.972
REMARK SMILES C[C@@H](C(=O)NC1(Cc2ccccc2)CCC1)n1ccc(C(F)(F)F)n1
REMARK SMILES IDX 3 1 4 2 5 3 2 5 1 6 17 7 18 8 25 9 19 10 20 11 21 12 22 13
REMARK SMILES IDX 23 14 24 15 6 16 14 17 16 18 15 19 7 20 8 21 9 22 13 23
REMARK SMILES IDX 10 24 12 25 11 26
REMARK H PARENT 5 4
ROOT
ATOM      1  C   UNL     1       3.331  45.600  52.280  1.00  0.00     0.245 C 
ATOM      2  O   UNL     1       2.771  46.617  52.772  1.00  0.00    -0.273 OA
ATOM      3  N   UNL     1       4.625  45.188  52.755  1.00  0.00    -0.348 N 
ATOM      4  H   UNL     1       5.070  44.351  52.318  1.00  0.00     0.164 HD
ENDROOT
BRANCH   1   5
ATOM      5  C   UNL     1       2.629  44.833  51.190  1.00  0.00     0.193 C 
ATOM      6  C   UNL     1       1.179  44.523  51.572  1.00  0.00     0.044 C 
BRANCH   5   7
ATOM      7  N   UNL     1       3.361  43.602  50.881  1.00  0.00    -0.260 N 
ATOM      8  C   UNL     1       2.900  42.348  51.052  1.00  0.00     0.110 A 
ATOM      9  N   UNL     1       4.575  43.566  50.350  1.00  0.00    -0.168 NA
ATOM     10  C   UNL     1       3.866  41.463  50.622  1.00  0.00     0.055 A 
ATOM     11  C   UNL     1       4.896  42.270  50.173  1.00  0.00     0.166 A 
BRANCH  11  12
ATOM     12  C   UNL     1       6.212  41.803  49.637  1.00  0.00     0.435 C 
ATOM     13  F   UNL     1       6.885  41.082  50.606  1.00  0.00    -0.164 F 
ATOM     14  F   UNL     1       6.986  42.887  49.266  1.00  0.00    -0.164 F 
ATOM     15  F   UNL     1       5.997  40.997  48.535  1.00  0.00    -0.164 F 
ENDBRANCH  11  12
ENDBRANCH   5   7
ENDBRANCH   1   5
BRANCH   3  16
ATOM     16  C   UNL     1       5.373  45.921  53.789  1.00  0.00     0.044 C 
ATOM     17  C   UNL     1       6.328  45.011  54.579  1.00  0.00     0.029 C 
ATOM     18  C   UNL     1       4.544  46.128  55.065  1.00  0.00     0.029 C 
ATOM     19  C   UNL     1       5.492  45.221  55.834  1.00  0.00     0.005 C 
BRANCH  16  20
ATOM     20  C   UNL     1       6.030  47.218  53.256  1.00  0.00     0.063 C 
BRANCH  20  21
ATOM     21  C   UNL     1       7.503  47.043  52.978  1.00  0.00    -0.046 A 
ATOM     22  C   UNL     1       8.463  47.456  53.918  1.00  0.00     0.004 A 
ATOM     23  C   UNL     1       7.932  46.450  51.778  1.00  0.00     0.004 A 
ATOM     24  C   UNL     1       9.826  47.274  53.663  1.00  0.00     0.000 A 
ATOM     25  C   UNL     1       9.296  46.282  51.521  1.00  0.00     0.000 A 
ATOM     26  C   UNL     1      10.242  46.687  52.465  1.00  0.00     0.000 A 
ENDBRANCH  20  21
ENDBRANCH  16  20
ENDBRANCH   3  16
TORSDOF 6
ENDMDL
