ligand_78_conformer_3_docked
     RDKit          3D

 42 44  0  0  0  0  0  0  0  0999 V2000
    5.4420   44.1880   51.5430 C   0  0  0  0  0  0  0  0  0  0  0  0
    5.4780   45.6340   51.0590 C   0  0  0  0  0  0  0  0  0  0  0  0
    6.0280   46.5170   52.1000 N   0  0  0  0  0  0  0  0  0  0  0  0
    5.1090   47.3250   52.9160 C   0  0  0  0  0  0  0  0  0  0  0  0
    4.3570   46.4590   53.8800 C   0  0  0  0  0  0  0  0  0  0  0  0
    3.0150   46.1520   53.8360 C   0  0  0  0  0  0  0  0  0  0  0  0
    2.7970   45.3050   54.8550 N   0  0  0  0  0  0  0  0  0  0  0  0
    1.5160   44.7450   55.2660 C   0  0  0  0  0  0  0  0  0  0  0  0
    0.8690   44.0610   54.1070 C   0  0  0  0  0  0  0  0  0  0  0  0
    1.4120   43.0030   53.4680 N   0  0  0  0  0  0  0  0  0  0  0  0
    0.5890   42.5220   52.4980 C   0  0  0  0  0  0  0  0  0  0  0  0
   -0.6250   43.1870   52.3700 C   0  0  0  0  0  0  0  0  0  0  0  0
   -0.6630   44.4170   53.5150 S   0  0  0  0  0  0  0  0  0  0  0  0
    3.9400   45.1110   55.4950 N   0  0  0  0  0  0  0  0  0  0  0  0
    4.9140   45.7960   54.9130 N   0  0  0  0  0  0  0  0  0  0  0  0
    7.4540   46.5950   52.3200 C   0  0  0  0  0  0  0  0  0  0  0  0
    8.3570   46.2010   51.3160 C   0  0  0  0  0  0  0  0  0  0  0  0
    9.7340   46.2620   51.5380 C   0  0  0  0  0  0  0  0  0  0  0  0
   10.2290   46.7200   52.7610 C   0  0  0  0  0  0  0  0  0  0  0  0
    9.3450   47.1350   53.7690 C   0  0  0  0  0  0  0  0  0  0  0  0
    9.8740   47.5930   55.0990 C   0  0  0  0  0  0  0  0  0  0  0  0
    9.1210   48.6770   55.5680 O   0  0  0  0  0  0  0  0  0  0  0  0
    7.9610   47.0580   53.5470 C   0  0  0  0  0  0  0  0  0  0  0  0
    5.4415   44.1694   52.6428 H   0  0  0  0  0  0  0  0  0  0  0  0
    4.5314   43.6982   51.1676 H   0  0  0  0  0  0  0  0  0  0  0  0
    6.3271   43.6535   51.1676 H   0  0  0  0  0  0  0  0  0  0  0  0
    6.1090   45.6985   50.1603 H   0  0  0  0  0  0  0  0  0  0  0  0
    4.4517   45.9556   50.8283 H   0  0  0  0  0  0  0  0  0  0  0  0
    5.6875   48.0730   53.4779 H   0  0  0  0  0  0  0  0  0  0  0  0
    4.3882   47.8219   52.2501 H   0  0  0  0  0  0  0  0  0  0  0  0
    2.2735   46.5244   53.1139 H   0  0  0  0  0  0  0  0  0  0  0  0
    1.6779   44.0180   56.0754 H   0  0  0  0  0  0  0  0  0  0  0  0
    0.8622   45.5551   55.6214 H   0  0  0  0  0  0  0  0  0  0  0  0
    0.8641   41.6685   51.8609 H   0  0  0  0  0  0  0  0  0  0  0  0
   -1.4199   42.9502   51.6475 H   0  0  0  0  0  0  0  0  0  0  0  0
    7.9754   45.8422   50.3487 H   0  0  0  0  0  0  0  0  0  0  0  0
   10.4313   45.9483   50.7472 H   0  0  0  0  0  0  0  0  0  0  0  0
   11.3146   46.7556   52.9347 H   0  0  0  0  0  0  0  0  0  0  0  0
    9.8096   46.7655   55.8209 H   0  0  0  0  0  0  0  0  0  0  0  0
   10.9220   47.9059   54.9817 H   0  0  0  0  0  0  0  0  0  0  0  0
    8.1780   48.4980   55.3170 H   0  0  0  0  0  0  0  0  0  0  0  0
    7.2651   47.3634   54.3422 H   0  0  0  0  0  0  0  0  0  0  0  0
  1  2  1  0
  2  3  1  0
  3  4  1  0
  4  5  1  0
  5  6  2  0
  6  7  1  0
  7  8  1  0
  8  9  1  0
  9 10  2  0
 10 11  1  0
 11 12  2  0
 12 13  1  0
  7 14  1  0
 14 15  2  0
  3 16  1  0
 16 17  2  0
 17 18  1  0
 18 19  2  0
 19 20  1  0
 20 21  1  0
 21 22  1  0
 20 23  2  0
 15  5  1  0
 23 16  1  0
 13  9  1  0
  1 24  1  0
  1 25  1  0
  1 26  1  0
  2 27  1  0
  2 28  1  0
  4 29  1  0
  4 30  1  0
  6 31  1  0
  8 32  1  0
  8 33  1  0
 11 34  1  0
 12 35  1  0
 17 36  1  0
 18 37  1  0
 19 38  1  0
 21 39  1  0
 21 40  1  0
 22 41  1  0
 23 42  1  0
M  END
>  <meeko>  (1) 
{"is_sidechain": [false], "free_energy": -7.762, "intermolecular_energy": -11.166, "internal_energy": -0.755}

$$$$
ligand_78_conformer_3_docked
     RDKit          3D

 42 44  0  0  0  0  0  0  0  0999 V2000
    5.6110   44.3800   51.4130 C   0  0  0  0  0  0  0  0  0  0  0  0
    5.4170   45.8710   51.1500 C   0  0  0  0  0  0  0  0  0  0  0  0
    6.0150   46.6720   52.2310 N   0  0  0  0  0  0  0  0  0  0  0  0
    5.1360   47.4400   53.1250 C   0  0  0  0  0  0  0  0  0  0  0  0
    3.8090   46.7590   53.2760 C   0  0  0  0  0  0  0  0  0  0  0  0
    3.5140   45.7080   54.1160 C   0  0  0  0  0  0  0  0  0  0  0  0
    2.2010   45.4700   53.9600 N   0  0  0  0  0  0  0  0  0  0  0  0
    1.4270   44.4070   54.5880 C   0  0  0  0  0  0  0  0  0  0  0  0
    0.4950   44.9910   55.5980 C   0  0  0  0  0  0  0  0  0  0  0  0
    0.8990   45.7710   56.6230 N   0  0  0  0  0  0  0  0  0  0  0  0
   -0.1520   46.2320   57.3520 C   0  0  0  0  0  0  0  0  0  0  0  0
   -1.4050   45.8320   56.9010 C   0  0  0  0  0  0  0  0  0  0  0  0
   -1.1810   44.8700   55.5400 S   0  0  0  0  0  0  0  0  0  0  0  0
    1.7200   46.3210   53.0680 N   0  0  0  0  0  0  0  0  0  0  0  0
    2.6800   47.1280   52.6400 N   0  0  0  0  0  0  0  0  0  0  0  0
    7.4470   46.7080   52.4110 C   0  0  0  0  0  0  0  0  0  0  0  0
    8.3110   46.2970   51.3800 C   0  0  0  0  0  0  0  0  0  0  0  0
    9.6950   46.3190   51.5650 C   0  0  0  0  0  0  0  0  0  0  0  0
   10.2360   46.7540   52.7770 C   0  0  0  0  0  0  0  0  0  0  0  0
    9.3920   47.1850   53.8110 C   0  0  0  0  0  0  0  0  0  0  0  0
    9.9690   47.6190   55.1300 C   0  0  0  0  0  0  0  0  0  0  0  0
    9.2000   48.6550   55.6730 O   0  0  0  0  0  0  0  0  0  0  0  0
    8.0010   47.1480   53.6270 C   0  0  0  0  0  0  0  0  0  0  0  0
    5.6345   44.1990   52.4978 H   0  0  0  0  0  0  0  0  0  0  0  0
    4.7785   43.8174   50.9654 H   0  0  0  0  0  0  0  0  0  0  0  0
    6.5598   44.0491   50.9654 H   0  0  0  0  0  0  0  0  0  0  0  0
    5.8977   46.1351   50.1965 H   0  0  0  0  0  0  0  0  0  0  0  0
    4.3389   46.0851   51.1059 H   0  0  0  0  0  0  0  0  0  0  0  0
    5.6121   47.5264   54.1129 H   0  0  0  0  0  0  0  0  0  0  0  0
    4.9743   48.4377   52.6909 H   0  0  0  0  0  0  0  0  0  0  0  0
    4.2105   45.1733   54.7786 H   0  0  0  0  0  0  0  0  0  0  0  0
    0.8467   43.8748   53.8199 H   0  0  0  0  0  0  0  0  0  0  0  0
    2.1111   43.7050   55.0872 H   0  0  0  0  0  0  0  0  0  0  0  0
   -0.0206   46.8750   58.2348 H   0  0  0  0  0  0  0  0  0  0  0  0
   -2.3715   46.0977   57.3541 H   0  0  0  0  0  0  0  0  0  0  0  0
    7.8936   45.9558   50.4212 H   0  0  0  0  0  0  0  0  0  0  0  0
   10.3616   45.9925   50.7532 H   0  0  0  0  0  0  0  0  0  0  0  0
   11.3265   46.7586   52.9209 H   0  0  0  0  0  0  0  0  0  0  0  0
    9.9723   46.7658   55.8242 H   0  0  0  0  0  0  0  0  0  0  0  0
   10.9971   47.9774   54.9732 H   0  0  0  0  0  0  0  0  0  0  0  0
    9.7730   49.1150   56.3400 H   0  0  0  0  0  0  0  0  0  0  0  0
    7.3362   47.4668   54.4433 H   0  0  0  0  0  0  0  0  0  0  0  0
  1  2  1  0
  2  3  1  0
  3  4  1  0
  4  5  1  0
  5  6  2  0
  6  7  1  0
  7  8  1  0
  8  9  1  0
  9 10  2  0
 10 11  1  0
 11 12  2  0
 12 13  1  0
  7 14  1  0
 14 15  2  0
  3 16  1  0
 16 17  2  0
 17 18  1  0
 18 19  2  0
 19 20  1  0
 20 21  1  0
 21 22  1  0
 20 23  2  0
 15  5  1  0
 23 16  1  0
 13  9  1  0
  1 24  1  0
  1 25  1  0
  1 26  1  0
  2 27  1  0
  2 28  1  0
  4 29  1  0
  4 30  1  0
  6 31  1  0
  8 32  1  0
  8 33  1  0
 11 34  1  0
 12 35  1  0
 17 36  1  0
 18 37  1  0
 19 38  1  0
 21 39  1  0
 21 40  1  0
 22 41  1  0
 23 42  1  0
M  END
>  <meeko>  (2) 
{"is_sidechain": [false], "free_energy": -7.725, "intermolecular_energy": -11.492, "internal_energy": -0.375}

$$$$
ligand_78_conformer_3_docked
     RDKit          3D

 42 44  0  0  0  0  0  0  0  0999 V2000
    4.3730   47.4570   54.5480 C   0  0  0  0  0  0  0  0  0  0  0  0
    5.2950   46.2680   54.2940 C   0  0  0  0  0  0  0  0  0  0  0  0
    5.9950   46.4190   53.0080 N   0  0  0  0  0  0  0  0  0  0  0  0
    5.2140   46.4310   51.7620 C   0  0  0  0  0  0  0  0  0  0  0  0
    4.5280   45.1160   51.5550 C   0  0  0  0  0  0  0  0  0  0  0  0
    5.1180   43.8710   51.5500 C   0  0  0  0  0  0  0  0  0  0  0  0
    4.1170   42.9890   51.3900 N   0  0  0  0  0  0  0  0  0  0  0  0
    4.2420   41.5440   51.2570 C   0  0  0  0  0  0  0  0  0  0  0  0
    4.3600   41.1780   49.8140 C   0  0  0  0  0  0  0  0  0  0  0  0
    3.3700   40.5870   49.1110 N   0  0  0  0  0  0  0  0  0  0  0  0
    3.7050   40.4280   47.8030 C   0  0  0  0  0  0  0  0  0  0  0  0
    4.9620   40.9080   47.4520 C   0  0  0  0  0  0  0  0  0  0  0  0
    5.6720   41.5540   48.8320 S   0  0  0  0  0  0  0  0  0  0  0  0
    2.9780   43.6560   51.2920 N   0  0  0  0  0  0  0  0  0  0  0  0
    3.1980   44.9590   51.3990 N   0  0  0  0  0  0  0  0  0  0  0  0
    7.4330   46.5500   52.9650 C   0  0  0  0  0  0  0  0  0  0  0  0
    8.1460   46.2600   51.7880 C   0  0  0  0  0  0  0  0  0  0  0  0
    9.5380   46.3720   51.7570 C   0  0  0  0  0  0  0  0  0  0  0  0
   10.2360   46.7770   52.8960 C   0  0  0  0  0  0  0  0  0  0  0  0
    9.5420   47.0880   54.0750 C   0  0  0  0  0  0  0  0  0  0  0  0
   10.2940   47.4890   55.3140 C   0  0  0  0  0  0  0  0  0  0  0  0
    9.6140   48.5200   55.9760 O   0  0  0  0  0  0  0  0  0  0  0  0
    8.1440   46.9610   54.1070 C   0  0  0  0  0  0  0  0  0  0  0  0
    4.2572   47.6063   55.6317 H   0  0  0  0  0  0  0  0  0  0  0  0
    4.8083   48.3613   54.0977 H   0  0  0  0  0  0  0  0  0  0  0  0
    3.3888   47.2606   54.0977 H   0  0  0  0  0  0  0  0  0  0  0  0
    6.0367   46.2065   55.1040 H   0  0  0  0  0  0  0  0  0  0  0  0
    4.6889   45.3506   54.2616 H   0  0  0  0  0  0  0  0  0  0  0  0
    4.4579   47.2280   51.8174 H   0  0  0  0  0  0  0  0  0  0  0  0
    5.8966   46.6106   50.9183 H   0  0  0  0  0  0  0  0  0  0  0  0
    6.1894   43.6452   51.6554 H   0  0  0  0  0  0  0  0  0  0  0  0
    5.1393   41.2039   51.7947 H   0  0  0  0  0  0  0  0  0  0  0  0
    3.3500   41.0612   51.6828 H   0  0  0  0  0  0  0  0  0  0  0  0
    3.0304   39.9539   47.0749 H   0  0  0  0  0  0  0  0  0  0  0  0
    5.4121   40.8715   46.4489 H   0  0  0  0  0  0  0  0  0  0  0  0
    7.6035   45.9427   50.8852 H   0  0  0  0  0  0  0  0  0  0  0  0
   10.0860   46.1403   50.8318 H   0  0  0  0  0  0  0  0  0  0  0  0
   11.3331   46.8525   52.8691 H   0  0  0  0  0  0  0  0  0  0  0  0
   10.3807   46.6210   55.9842 H   0  0  0  0  0  0  0  0  0  0  0  0
   11.2959   47.8426   55.0291 H   0  0  0  0  0  0  0  0  0  0  0  0
    8.6480   48.2950   55.9360 H   0  0  0  0  0  0  0  0  0  0  0  0
    7.5987   47.1854   55.0356 H   0  0  0  0  0  0  0  0  0  0  0  0
  1  2  1  0
  2  3  1  0
  3  4  1  0
  4  5  1  0
  5  6  2  0
  6  7  1  0
  7  8  1  0
  8  9  1  0
  9 10  2  0
 10 11  1  0
 11 12  2  0
 12 13  1  0
  7 14  1  0
 14 15  2  0
  3 16  1  0
 16 17  2  0
 17 18  1  0
 18 19  2  0
 19 20  1  0
 20 21  1  0
 21 22  1  0
 20 23  2  0
 15  5  1  0
 23 16  1  0
 13  9  1  0
  1 24  1  0
  1 25  1  0
  1 26  1  0
  2 27  1  0
  2 28  1  0
  4 29  1  0
  4 30  1  0
  6 31  1  0
  8 32  1  0
  8 33  1  0
 11 34  1  0
 12 35  1  0
 17 36  1  0
 18 37  1  0
 19 38  1  0
 21 39  1  0
 21 40  1  0
 22 41  1  0
 23 42  1  0
M  END
>  <meeko>  (3) 
{"is_sidechain": [false], "free_energy": -7.686, "intermolecular_energy": -11.056, "internal_energy": -0.755}

$$$$
ligand_78_conformer_3_docked
     RDKit          3D

 42 44  0  0  0  0  0  0  0  0999 V2000
    0.8970   43.9750   51.1860 C   0  0  0  0  0  0  0  0  0  0  0  0
    2.0750   44.9430   51.2540 C   0  0  0  0  0  0  0  0  0  0  0  0
    3.2030   44.3380   51.9810 N   0  0  0  0  0  0  0  0  0  0  0  0
    3.3110   44.5350   53.4330 C   0  0  0  0  0  0  0  0  0  0  0  0
    4.2770   45.6370   53.7470 C   0  0  0  0  0  0  0  0  0  0  0  0
    5.5930   45.4940   54.1260 C   0  0  0  0  0  0  0  0  0  0  0  0
    6.0810   46.7410   54.2410 N   0  0  0  0  0  0  0  0  0  0  0  0
    7.4170   47.1170   54.6830 C   0  0  0  0  0  0  0  0  0  0  0  0
    8.3840   46.9640   53.5560 C   0  0  0  0  0  0  0  0  0  0  0  0
    9.6200   46.4400   53.6990 N   0  0  0  0  0  0  0  0  0  0  0  0
   10.2700   46.3440   52.5090 C   0  0  0  0  0  0  0  0  0  0  0  0
    9.5460   46.7780   51.4040 C   0  0  0  0  0  0  0  0  0  0  0  0
    8.0410   47.2970   51.9440 S   0  0  0  0  0  0  0  0  0  0  0  0
    5.1150   47.6000   53.9580 N   0  0  0  0  0  0  0  0  0  0  0  0
    4.0020   46.9530   53.6420 N   0  0  0  0  0  0  0  0  0  0  0  0
    4.1970   43.5610   51.2770 C   0  0  0  0  0  0  0  0  0  0  0  0
    4.0380   42.1730   51.1120 C   0  0  0  0  0  0  0  0  0  0  0  0
    5.0100   41.4230   50.4450 C   0  0  0  0  0  0  0  0  0  0  0  0
    6.1490   42.0470   49.9320 C   0  0  0  0  0  0  0  0  0  0  0  0
    6.3170   43.4330   50.0700 C   0  0  0  0  0  0  0  0  0  0  0  0
    7.5600   44.1010   49.5510 C   0  0  0  0  0  0  0  0  0  0  0  0
    8.3830   43.1600   48.9180 O   0  0  0  0  0  0  0  0  0  0  0  0
    5.3460   44.1810   50.7530 C   0  0  0  0  0  0  0  0  0  0  0  0
    0.5783   43.7131   52.2057 H   0  0  0  0  0  0  0  0  0  0  0  0
    0.0616   44.4510   50.6516 H   0  0  0  0  0  0  0  0  0  0  0  0
    1.2021   43.0632   50.6516 H   0  0  0  0  0  0  0  0  0  0  0  0
    2.3963   45.1933   50.2322 H   0  0  0  0  0  0  0  0  0  0  0  0
    1.7567   45.8512   51.7867 H   0  0  0  0  0  0  0  0  0  0  0  0
    2.3216   44.7960   53.8367 H   0  0  0  0  0  0  0  0  0  0  0  0
    3.6758   43.6035   53.8904 H   0  0  0  0  0  0  0  0  0  0  0  0
    6.1341   44.5521   54.2992 H   0  0  0  0  0  0  0  0  0  0  0  0
    7.4095   48.1647   55.0181 H   0  0  0  0  0  0  0  0  0  0  0  0
    7.7217   46.4643   55.5143 H   0  0  0  0  0  0  0  0  0  0  0  0
   11.2943   45.9515   52.4262 H   0  0  0  0  0  0  0  0  0  0  0  0
    9.8961   46.7812   50.3612 H   0  0  0  0  0  0  0  0  0  0  0  0
    3.1422   41.6747   51.5109 H   0  0  0  0  0  0  0  0  0  0  0  0
    4.8776   40.3378   50.3236 H   0  0  0  0  0  0  0  0  0  0  0  0
    6.9168   41.4500   49.4181 H   0  0  0  0  0  0  0  0  0  0  0  0
    7.2791   44.8825   48.8297 H   0  0  0  0  0  0  0  0  0  0  0  0
    8.1069   44.5491   50.3937 H   0  0  0  0  0  0  0  0  0  0  0  0
    9.1930   43.6480   48.6170 H   0  0  0  0  0  0  0  0  0  0  0  0
    5.4848   45.2648   50.8802 H   0  0  0  0  0  0  0  0  0  0  0  0
  1  2  1  0
  2  3  1  0
  3  4  1  0
  4  5  1  0
  5  6  2  0
  6  7  1  0
  7  8  1  0
  8  9  1  0
  9 10  2  0
 10 11  1  0
 11 12  2  0
 12 13  1  0
  7 14  1  0
 14 15  2  0
  3 16  1  0
 16 17  2  0
 17 18  1  0
 18 19  2  0
 19 20  1  0
 20 21  1  0
 21 22  1  0
 20 23  2  0
 15  5  1  0
 23 16  1  0
 13  9  1  0
  1 24  1  0
  1 25  1  0
  1 26  1  0
  2 27  1  0
  2 28  1  0
  4 29  1  0
  4 30  1  0
  6 31  1  0
  8 32  1  0
  8 33  1  0
 11 34  1  0
 12 35  1  0
 17 36  1  0
 18 37  1  0
 19 38  1  0
 21 39  1  0
 21 40  1  0
 22 41  1  0
 23 42  1  0
M  END
>  <meeko>  (4) 
{"is_sidechain": [false], "free_energy": -7.608, "intermolecular_energy": -10.838, "internal_energy": -0.861}

$$$$
ligand_78_conformer_3_docked
     RDKit          3D

 42 44  0  0  0  0  0  0  0  0999 V2000
    5.6030   44.8960   55.0420 C   0  0  0  0  0  0  0  0  0  0  0  0
    5.2860   46.2610   54.4380 C   0  0  0  0  0  0  0  0  0  0  0  0
    5.9630   46.4240   53.1410 N   0  0  0  0  0  0  0  0  0  0  0  0
    5.1600   46.4440   51.9090 C   0  0  0  0  0  0  0  0  0  0  0  0
    4.5810   45.0890   51.6350 C   0  0  0  0  0  0  0  0  0  0  0  0
    3.2600   44.7960   51.3790 C   0  0  0  0  0  0  0  0  0  0  0  0
    3.2160   43.4760   51.1340 N   0  0  0  0  0  0  0  0  0  0  0  0
    2.0270   42.6750   50.8740 C   0  0  0  0  0  0  0  0  0  0  0  0
    0.9370   43.0700   51.8160 C   0  0  0  0  0  0  0  0  0  0  0  0
   -0.1940   43.6960   51.4280 N   0  0  0  0  0  0  0  0  0  0  0  0
   -1.0540   43.8760   52.4660 C   0  0  0  0  0  0  0  0  0  0  0  0
   -0.6170   43.3770   53.6880 C   0  0  0  0  0  0  0  0  0  0  0  0
    0.8980   42.6870   53.4530 S   0  0  0  0  0  0  0  0  0  0  0  0
    4.4410   42.9850   51.2430 N   0  0  0  0  0  0  0  0  0  0  0  0
    5.2980   43.9520   51.5390 N   0  0  0  0  0  0  0  0  0  0  0  0
    7.4000   46.5610   53.0750 C   0  0  0  0  0  0  0  0  0  0  0  0
    8.0960   46.2570   51.8900 C   0  0  0  0  0  0  0  0  0  0  0  0
    9.4860   46.3750   51.8360 C   0  0  0  0  0  0  0  0  0  0  0  0
   10.2000   46.8010   52.9580 C   0  0  0  0  0  0  0  0  0  0  0  0
    9.5230   47.1270   54.1430 C   0  0  0  0  0  0  0  0  0  0  0  0
   10.2920   47.5510   55.3630 C   0  0  0  0  0  0  0  0  0  0  0  0
    9.5950   48.5570   56.0440 O   0  0  0  0  0  0  0  0  0  0  0  0
    8.1260   46.9940   54.1990 C   0  0  0  0  0  0  0  0  0  0  0  0
    5.5863   44.9679   56.1395 H   0  0  0  0  0  0  0  0  0  0  0  0
    4.8507   44.1649   54.7109 H   0  0  0  0  0  0  0  0  0  0  0  0
    6.6005   44.5713   54.7109 H   0  0  0  0  0  0  0  0  0  0  0  0
    4.1992   46.3480   54.2919 H   0  0  0  0  0  0  0  0  0  0  0  0
    5.6417   47.0436   55.1243 H   0  0  0  0  0  0  0  0  0  0  0  0
    4.3419   47.1706   52.0224 H   0  0  0  0  0  0  0  0  0  0  0  0
    5.8084   46.7295   51.0675 H   0  0  0  0  0  0  0  0  0  0  0  0
    2.4140   45.4990   51.3758 H   0  0  0  0  0  0  0  0  0  0  0  0
    1.6936   42.8410   49.8390 H   0  0  0  0  0  0  0  0  0  0  0  0
    2.2659   41.6111   51.0194 H   0  0  0  0  0  0  0  0  0  0  0  0
   -2.0247   44.3797   52.3475 H   0  0  0  0  0  0  0  0  0  0  0  0
   -1.1656   43.4252   54.6402 H   0  0  0  0  0  0  0  0  0  0  0  0
    7.5410   45.9242   51.0005 H   0  0  0  0  0  0  0  0  0  0  0  0
   10.0208   46.1315   50.9061 H   0  0  0  0  0  0  0  0  0  0  0  0
   11.2961   46.8812   52.9127 H   0  0  0  0  0  0  0  0  0  0  0  0
   10.4248   46.6854   56.0287 H   0  0  0  0  0  0  0  0  0  0  0  0
   11.2739   47.9385   55.0538 H   0  0  0  0  0  0  0  0  0  0  0  0
   10.0830   49.4050   55.8760 H   0  0  0  0  0  0  0  0  0  0  0  0
    7.5939   47.2311   55.1321 H   0  0  0  0  0  0  0  0  0  0  0  0
  1  2  1  0
  2  3  1  0
  3  4  1  0
  4  5  1  0
  5  6  2  0
  6  7  1  0
  7  8  1  0
  8  9  1  0
  9 10  2  0
 10 11  1  0
 11 12  2  0
 12 13  1  0
  7 14  1  0
 14 15  2  0
  3 16  1  0
 16 17  2  0
 17 18  1  0
 18 19  2  0
 19 20  1  0
 20 21  1  0
 21 22  1  0
 20 23  2  0
 15  5  1  0
 23 16  1  0
 13  9  1  0
  1 24  1  0
  1 25  1  0
  1 26  1  0
  2 27  1  0
  2 28  1  0
  4 29  1  0
  4 30  1  0
  6 31  1  0
  8 32  1  0
  8 33  1  0
 11 34  1  0
 12 35  1  0
 17 36  1  0
 18 37  1  0
 19 38  1  0
 21 39  1  0
 21 40  1  0
 22 41  1  0
 23 42  1  0
M  END
>  <meeko>  (5) 
{"is_sidechain": [false], "free_energy": -7.512, "intermolecular_energy": -10.86, "internal_energy": -0.7}

$$$$
