MODEL 1
REMARK VINA RESULT:    -9.068      0.000      0.000
REMARK INTER + INTRA:         -13.213
REMARK INTER:                 -12.778
REMARK INTRA:                  -0.435
REMARK UNBOUND:                -0.435
REMARK SMILES COc1ccnc(N(C)C(=O)c2ccc(Oc3ccc(C(F)(F)F)cn3)cc2)n1
REMARK SMILES IDX 12 1 13 2 14 3 15 4 27 5 28 6 10 7 11 8 8 9 9 10 7 11 3 12
REMARK SMILES IDX 4 13 29 14 5 15 6 16 2 17 1 18 16 19 17 20 18 21 26 22 19 23
REMARK SMILES IDX 25 24 20 25 21 26 22 27 23 28 24 29
REMARK H PARENT
ROOT
ATOM      1  C   UNL     1       5.350  44.690  51.540  1.00  0.00     0.040 A 
ATOM      2  C   UNL     1       4.505  43.587  51.743  1.00  0.00     0.018 A 
ATOM      3  C   UNL     1       4.625  42.444  50.948  1.00  0.00     0.048 A 
ATOM      4  C   UNL     1       5.594  42.386  49.930  1.00  0.00     0.129 A 
ATOM      5  C   UNL     1       6.457  43.472  49.747  1.00  0.00     0.048 A 
ATOM      6  C   UNL     1       6.338  44.616  50.541  1.00  0.00     0.018 A 
ENDROOT
BRANCH   1   7
ATOM      7  C   UNL     1       5.222  45.900  52.389  1.00  0.00     0.260 C 
ATOM      8  O   UNL     1       4.411  46.807  52.057  1.00  0.00    -0.269 OA
BRANCH   7   9
ATOM      9  N   UNL     1       5.987  46.049  53.599  1.00  0.00    -0.280 N 
ATOM     10  C   UNL     1       5.291  45.995  54.888  1.00  0.00     0.157 C 
BRANCH   9  11
ATOM     11  C   UNL     1       7.367  46.469  53.551  1.00  0.00     0.235 A 
ATOM     12  C   UNL     1       9.243  47.464  54.614  1.00  0.00     0.217 A 
ATOM     13  C   UNL     1      10.001  47.286  53.457  1.00  0.00     0.088 A 
ATOM     14  N   UNL     1       7.945  47.055  54.636  1.00  0.00    -0.177 NA
ATOM     15  C   UNL     1       9.399  46.691  52.351  1.00  0.00     0.121 A 
ATOM     16  N   UNL     1       8.101  46.298  52.416  1.00  0.00    -0.221 NA
BRANCH  12  17
ATOM     17  O   UNL     1       9.825  48.062  55.735  1.00  0.00    -0.481 OA
ATOM     18  C   UNL     1      11.071  47.637  56.273  1.00  0.00     0.280 C 
ENDBRANCH  12  17
ENDBRANCH   9  11
ENDBRANCH   7   9
ENDBRANCH   1   7
BRANCH   4  19
ATOM     19  O   UNL     1       5.757  41.255  49.117  1.00  0.00    -0.439 OA
BRANCH  19  20
ATOM     20  C   UNL     1       5.040  40.993  47.942  1.00  0.00     0.219 A 
ATOM     21  C   UNL     1       5.472  41.557  46.740  1.00  0.00     0.069 A 
ATOM     22  N   UNL     1       3.909  40.235  47.961  1.00  0.00    -0.221 NA
ATOM     23  C   UNL     1       4.753  41.315  45.569  1.00  0.00     0.020 A 
ATOM     24  C   UNL     1       3.191  39.984  46.834  1.00  0.00     0.128 A 
ATOM     25  C   UNL     1       3.611  40.501  45.597  1.00  0.00     0.074 A 
BRANCH  25  26
ATOM     26  C   UNL     1       2.796  40.275  44.349  1.00  0.00     0.417 C 
ATOM     27  F   UNL     1       1.952  39.190  44.509  1.00  0.00    -0.166 F 
ATOM     28  F   UNL     1       3.649  40.029  43.289  1.00  0.00    -0.166 F 
ATOM     29  F   UNL     1       2.025  41.387  44.058  1.00  0.00    -0.166 F 
ENDBRANCH  25  26
ENDBRANCH  19  20
ENDBRANCH   4  19
TORSDOF 7
ENDMDL
MODEL 2
REMARK VINA RESULT:    -8.956      0.966      1.772
REMARK INTER + INTRA:         -13.055
REMARK INTER:                 -12.259
REMARK INTRA:                  -0.796
REMARK UNBOUND:                -0.435
REMARK SMILES COc1ccnc(N(C)C(=O)c2ccc(Oc3ccc(C(F)(F)F)cn3)cc2)n1
REMARK SMILES IDX 12 1 13 2 14 3 15 4 27 5 28 6 10 7 11 8 8 9 9 10 7 11 3 12
REMARK SMILES IDX 4 13 29 14 5 15 6 16 2 17 1 18 16 19 17 20 18 21 26 22 19 23
REMARK SMILES IDX 25 24 20 25 21 26 22 27 23 28 24 29
REMARK H PARENT
ROOT
ATOM      1  C   UNL     1       5.483  44.698  51.562  1.00  0.00     0.040 A 
ATOM      2  C   UNL     1       4.658  43.571  51.713  1.00  0.00     0.018 A 
ATOM      3  C   UNL     1       4.792  42.474  50.858  1.00  0.00     0.048 A 
ATOM      4  C   UNL     1       5.753  42.487  49.832  1.00  0.00     0.129 A 
ATOM      5  C   UNL     1       6.596  43.595  49.701  1.00  0.00     0.048 A 
ATOM      6  C   UNL     1       6.464  44.693  50.554  1.00  0.00     0.018 A 
ENDROOT
BRANCH   1   7
ATOM      7  C   UNL     1       5.341  45.859  52.474  1.00  0.00     0.260 C 
ATOM      8  O   UNL     1       4.573  46.808  52.155  1.00  0.00    -0.269 OA
BRANCH   7   9
ATOM      9  N   UNL     1       6.042  45.915  53.730  1.00  0.00    -0.280 N 
ATOM     10  C   UNL     1       5.302  45.646  54.967  1.00  0.00     0.157 C 
BRANCH   9  11
ATOM     11  C   UNL     1       7.383  46.443  53.802  1.00  0.00     0.235 A 
ATOM     12  C   UNL     1       9.611  46.490  52.983  1.00  0.00     0.217 A 
ATOM     13  C   UNL     1       9.952  47.440  53.944  1.00  0.00     0.088 A 
ATOM     14  N   UNL     1       8.339  46.011  52.932  1.00  0.00    -0.177 NA
ATOM     15  C   UNL     1       8.969  47.872  54.832  1.00  0.00     0.121 A 
ATOM     16  N   UNL     1       7.711  47.367  54.747  1.00  0.00    -0.221 NA
BRANCH  12  17
ATOM     17  O   UNL     1      10.582  46.040  52.083  1.00  0.00    -0.481 OA
ATOM     18  C   UNL     1      10.279  45.176  50.994  1.00  0.00     0.280 C 
ENDBRANCH  12  17
ENDBRANCH   9  11
ENDBRANCH   7   9
ENDBRANCH   1   7
BRANCH   4  19
ATOM     19  O   UNL     1       5.930  41.403  48.959  1.00  0.00    -0.439 OA
BRANCH  19  20
ATOM     20  C   UNL     1       5.131  41.125  47.841  1.00  0.00     0.219 A 
ATOM     21  C   UNL     1       5.502  41.636  46.596  1.00  0.00     0.069 A 
ATOM     22  N   UNL     1       3.981  40.406  47.958  1.00  0.00    -0.221 NA
ATOM     23  C   UNL     1       4.703  41.379  45.481  1.00  0.00     0.020 A 
ATOM     24  C   UNL     1       3.186  40.142  46.887  1.00  0.00     0.128 A 
ATOM     25  C   UNL     1       3.541  40.604  45.610  1.00  0.00     0.074 A 
BRANCH  25  26
ATOM     26  C   UNL     1       2.642  40.363  44.424  1.00  0.00     0.417 C 
ATOM     27  F   UNL     1       3.390  40.066  43.298  1.00  0.00    -0.166 F 
ATOM     28  F   UNL     1       1.896  41.502  44.181  1.00  0.00    -0.166 F 
ATOM     29  F   UNL     1       1.783  39.305  44.666  1.00  0.00    -0.166 F 
ENDBRANCH  25  26
ENDBRANCH  19  20
ENDBRANCH   4  19
TORSDOF 7
ENDMDL
MODEL 3
REMARK VINA RESULT:    -8.884      6.251      8.896
REMARK INTER + INTRA:         -12.955
REMARK INTER:                 -12.101
REMARK INTRA:                  -0.854
REMARK UNBOUND:                -0.435
REMARK SMILES COc1ccnc(N(C)C(=O)c2ccc(Oc3ccc(C(F)(F)F)cn3)cc2)n1
REMARK SMILES IDX 12 1 13 2 14 3 15 4 27 5 28 6 10 7 11 8 8 9 9 10 7 11 3 12
REMARK SMILES IDX 4 13 29 14 5 15 6 16 2 17 1 18 16 19 17 20 18 21 26 22 19 23
REMARK SMILES IDX 25 24 20 25 21 26 22 27 23 28 24 29
REMARK H PARENT
ROOT
ATOM      1  C   UNL     1       1.343  43.593  52.668  1.00  0.00     0.040 A 
ATOM      2  C   UNL     1       2.605  42.991  52.530  1.00  0.00     0.018 A 
ATOM      3  C   UNL     1       3.636  43.650  51.855  1.00  0.00     0.048 A 
ATOM      4  C   UNL     1       3.421  44.924  51.302  1.00  0.00     0.129 A 
ATOM      5  C   UNL     1       2.176  45.538  51.467  1.00  0.00     0.048 A 
ATOM      6  C   UNL     1       1.143  44.881  52.141  1.00  0.00     0.018 A 
ENDROOT
BRANCH   1   7
ATOM      7  C   UNL     1       0.252  42.892  53.389  1.00  0.00     0.260 C 
ATOM      8  O   UNL     1       0.445  41.723  53.821  1.00  0.00    -0.269 OA
BRANCH   7   9
ATOM      9  N   UNL     1      -1.017  43.529  53.629  1.00  0.00    -0.280 N 
ATOM     10  C   UNL     1      -2.050  43.461  52.591  1.00  0.00     0.157 C 
BRANCH   9  11
ATOM     11  C   UNL     1      -1.198  44.407  54.759  1.00  0.00     0.235 A 
ATOM     12  C   UNL     1      -0.340  45.403  56.736  1.00  0.00     0.217 A 
ATOM     13  C   UNL     1      -1.546  46.074  56.930  1.00  0.00     0.088 A 
ATOM     14  N   UNL     1      -0.192  44.585  55.659  1.00  0.00    -0.177 NA
ATOM     15  C   UNL     1      -2.571  45.882  56.007  1.00  0.00     0.121 A 
ATOM     16  N   UNL     1      -2.381  45.056  54.946  1.00  0.00    -0.221 NA
BRANCH  12  17
ATOM     17  O   UNL     1       0.702  45.578  57.652  1.00  0.00    -0.481 OA
ATOM     18  C   UNL     1       0.926  46.805  58.336  1.00  0.00     0.280 C 
ENDBRANCH  12  17
ENDBRANCH   9  11
ENDBRANCH   7   9
ENDBRANCH   1   7
BRANCH   4  19
ATOM     19  O   UNL     1       4.432  45.626  50.628  1.00  0.00    -0.439 OA
BRANCH  19  20
ATOM     20  C   UNL     1       5.699  45.920  51.149  1.00  0.00     0.219 A 
ATOM     21  C   UNL     1       6.834  45.448  50.487  1.00  0.00     0.069 A 
ATOM     22  N   UNL     1       5.839  46.617  52.310  1.00  0.00    -0.221 NA
ATOM     23  C   UNL     1       8.099  45.721  51.009  1.00  0.00     0.020 A 
ATOM     24  C   UNL     1       7.060  46.897  52.839  1.00  0.00     0.128 A 
ATOM     25  C   UNL     1       8.228  46.474  52.186  1.00  0.00     0.074 A 
BRANCH  25  26
ATOM     26  C   UNL     1       9.587  46.731  52.788  1.00  0.00     0.417 C 
ATOM     27  F   UNL     1       9.884  45.774  53.743  1.00  0.00    -0.166 F 
ATOM     28  F   UNL     1       9.591  47.978  53.384  1.00  0.00    -0.166 F 
ATOM     29  F   UNL     1      10.570  46.693  51.815  1.00  0.00    -0.166 F 
ENDBRANCH  25  26
ENDBRANCH  19  20
ENDBRANCH   4  19
TORSDOF 7
ENDMDL
MODEL 4
REMARK VINA RESULT:    -8.753      6.913     10.132
REMARK INTER + INTRA:         -12.770
REMARK INTER:                 -11.845
REMARK INTRA:                  -0.925
REMARK UNBOUND:                -0.435
REMARK SMILES COc1ccnc(N(C)C(=O)c2ccc(Oc3ccc(C(F)(F)F)cn3)cc2)n1
REMARK SMILES IDX 12 1 13 2 14 3 15 4 27 5 28 6 10 7 11 8 8 9 9 10 7 11 3 12
REMARK SMILES IDX 4 13 29 14 5 15 6 16 2 17 1 18 16 19 17 20 18 21 26 22 19 23
REMARK SMILES IDX 25 24 20 25 21 26 22 27 23 28 24 29
REMARK H PARENT
ROOT
ATOM      1  C   UNL     1       1.285  44.465  53.713  1.00  0.00     0.040 A 
ATOM      2  C   UNL     1       2.182  44.569  54.789  1.00  0.00     0.018 A 
ATOM      3  C   UNL     1       3.162  45.566  54.802  1.00  0.00     0.048 A 
ATOM      4  C   UNL     1       3.264  46.474  53.734  1.00  0.00     0.129 A 
ATOM      5  C   UNL     1       2.352  46.391  52.678  1.00  0.00     0.048 A 
ATOM      6  C   UNL     1       1.371  45.395  52.663  1.00  0.00     0.018 A 
ENDROOT
BRANCH   1   7
ATOM      7  C   UNL     1       0.243  43.409  53.706  1.00  0.00     0.260 C 
ATOM      8  O   UNL     1       0.585  42.201  53.590  1.00  0.00    -0.269 OA
BRANCH   7   9
ATOM      9  N   UNL     1      -1.153  43.732  53.853  1.00  0.00    -0.280 N 
ATOM     10  C   UNL     1      -1.956  43.964  52.649  1.00  0.00     0.157 C 
BRANCH   9  11
ATOM     11  C   UNL     1      -1.702  44.047  55.149  1.00  0.00     0.235 A 
ATOM     12  C   UNL     1      -2.810  43.345  57.129  1.00  0.00     0.217 A 
ATOM     13  C   UNL     1      -2.767  44.647  57.623  1.00  0.00     0.088 A 
ATOM     14  N   UNL     1      -2.280  43.072  55.905  1.00  0.00    -0.177 NA
ATOM     15  C   UNL     1      -2.178  45.638  56.840  1.00  0.00     0.121 A 
ATOM     16  N   UNL     1      -1.662  45.323  55.624  1.00  0.00    -0.221 NA
BRANCH  12  17
ATOM     17  O   UNL     1      -3.398  42.334  57.895  1.00  0.00    -0.481 OA
ATOM     18  C   UNL     1      -3.479  42.394  59.314  1.00  0.00     0.280 C 
ENDBRANCH  12  17
ENDBRANCH   9  11
ENDBRANCH   7   9
ENDBRANCH   1   7
BRANCH   4  19
ATOM     19  O   UNL     1       4.225  47.496  53.712  1.00  0.00    -0.439 OA
BRANCH  19  20
ATOM     20  C   UNL     1       5.598  47.312  53.501  1.00  0.00     0.219 A 
ATOM     21  C   UNL     1       6.045  46.900  52.244  1.00  0.00     0.069 A 
ATOM     22  N   UNL     1       6.495  47.485  54.510  1.00  0.00    -0.221 NA
ATOM     23  C   UNL     1       7.409  46.697  52.031  1.00  0.00     0.020 A 
ATOM     24  C   UNL     1       7.829  47.295  54.328  1.00  0.00     0.128 A 
ATOM     25  C   UNL     1       8.325  46.916  53.070  1.00  0.00     0.074 A 
BRANCH  25  26
ATOM     26  C   UNL     1       9.795  46.650  52.868  1.00  0.00     0.417 C 
ATOM     27  F   UNL     1      10.547  47.327  53.813  1.00  0.00    -0.166 F 
ATOM     28  F   UNL     1      10.165  47.080  51.607  1.00  0.00    -0.166 F 
ATOM     29  F   UNL     1      10.069  45.298  52.981  1.00  0.00    -0.166 F 
ENDBRANCH  25  26
ENDBRANCH  19  20
ENDBRANCH   4  19
TORSDOF 7
ENDMDL
MODEL 5
REMARK VINA RESULT:    -8.272      6.403      8.911
REMARK INTER + INTRA:         -12.093
REMARK INTER:                 -11.297
REMARK INTRA:                  -0.796
REMARK UNBOUND:                -0.435
REMARK SMILES COc1ccnc(N(C)C(=O)c2ccc(Oc3ccc(C(F)(F)F)cn3)cc2)n1
REMARK SMILES IDX 12 1 13 2 14 3 15 4 27 5 28 6 10 7 11 8 8 9 9 10 7 11 3 12
REMARK SMILES IDX 4 13 29 14 5 15 6 16 2 17 1 18 16 19 17 20 18 21 26 22 19 23
REMARK SMILES IDX 25 24 20 25 21 26 22 27 23 28 24 29
REMARK H PARENT
ROOT
ATOM      1  C   UNL     1       0.606  44.175  53.468  1.00  0.00     0.040 A 
ATOM      2  C   UNL     1       0.556  45.347  52.694  1.00  0.00     0.018 A 
ATOM      3  C   UNL     1       1.614  45.683  51.845  1.00  0.00     0.048 A 
ATOM      4  C   UNL     1       2.745  44.852  51.758  1.00  0.00     0.129 A 
ATOM      5  C   UNL     1       2.782  43.669  52.503  1.00  0.00     0.048 A 
ATOM      6  C   UNL     1       1.725  43.331  53.352  1.00  0.00     0.018 A 
ENDROOT
BRANCH   1   7
ATOM      7  C   UNL     1      -0.521  43.819  54.364  1.00  0.00     0.260 C 
ATOM      8  O   UNL     1      -0.835  42.607  54.514  1.00  0.00    -0.269 OA
BRANCH   7   9
ATOM      9  N   UNL     1      -1.249  44.828  55.088  1.00  0.00    -0.280 N 
ATOM     10  C   UNL     1      -2.536  45.290  54.558  1.00  0.00     0.157 C 
BRANCH   9  11
ATOM     11  C   UNL     1      -0.634  45.537  56.183  1.00  0.00     0.235 A 
ATOM     12  C   UNL     1      -0.770  47.176  57.896  1.00  0.00     0.217 A 
ATOM     13  C   UNL     1       0.545  46.905  58.270  1.00  0.00     0.088 A 
ATOM     14  N   UNL     1      -1.330  46.491  56.863  1.00  0.00    -0.177 NA
ATOM     15  C   UNL     1       1.250  45.931  57.566  1.00  0.00     0.121 A 
ATOM     16  N   UNL     1       0.653  45.271  56.541  1.00  0.00    -0.221 NA
BRANCH  12  17
ATOM     17  O   UNL     1      -1.497  48.151  58.586  1.00  0.00    -0.481 OA
ATOM     18  C   UNL     1      -2.376  47.838  59.660  1.00  0.00     0.280 C 
ENDBRANCH  12  17
ENDBRANCH   9  11
ENDBRANCH   7   9
ENDBRANCH   1   7
BRANCH   4  19
ATOM     19  O   UNL     1       3.823  45.145  50.910  1.00  0.00    -0.439 OA
BRANCH  19  20
ATOM     20  C   UNL     1       5.071  45.630  51.325  1.00  0.00     0.219 A 
ATOM     21  C   UNL     1       6.222  45.214  50.653  1.00  0.00     0.069 A 
ATOM     22  N   UNL     1       5.182  46.461  52.397  1.00  0.00    -0.221 NA
ATOM     23  C   UNL     1       7.469  45.678  51.072  1.00  0.00     0.020 A 
ATOM     24  C   UNL     1       6.386  46.928  52.825  1.00  0.00     0.128 A 
ATOM     25  C   UNL     1       7.565  46.565  52.155  1.00  0.00     0.074 A 
BRANCH  25  26
ATOM     26  C   UNL     1       8.910  47.032  52.649  1.00  0.00     0.417 C 
ATOM     27  F   UNL     1       9.424  46.141  53.576  1.00  0.00    -0.166 F 
ATOM     28  F   UNL     1       8.770  48.271  53.246  1.00  0.00    -0.166 F 
ATOM     29  F   UNL     1       9.809  47.135  51.602  1.00  0.00    -0.166 F 
ENDBRANCH  25  26
ENDBRANCH  19  20
ENDBRANCH   4  19
TORSDOF 7
ENDMDL
