ligand_12_conformer_2_docked
     RDKit          3D

 48 51  0  0  0  0  0  0  0  0999 V2000
   11.3610   47.4040   56.4940 C   0  0  0  0  0  0  0  0  0  0  0  0
   10.5610   48.1570   55.5890 O   0  0  0  0  0  0  0  0  0  0  0  0
    9.5820   47.5720   54.7820 C   0  0  0  0  0  0  0  0  0  0  0  0
    9.9680   46.9370   53.5810 C   0  0  0  0  0  0  0  0  0  0  0  0
    8.9970   46.3450   52.7570 C   0  0  0  0  0  0  0  0  0  0  0  0
    7.6650   46.4050   53.1600 C   0  0  0  0  0  0  0  0  0  0  0  0
    6.6170   45.8840   52.4730 N   0  0  0  0  0  0  0  0  0  0  0  0
    5.4540   46.1120   53.1350 C   0  0  0  0  0  0  0  0  0  0  0  0
    4.1690   45.6970   52.6540 N   0  0  0  0  0  0  0  0  0  0  0  0
    3.1980   45.0130   53.4650 C   0  0  0  0  0  0  0  0  0  0  0  0
    3.3430   44.9670   54.7170 O   0  0  0  0  0  0  0  0  0  0  0  0
    2.0370   44.4070   52.8650 N   0  0  0  0  0  0  0  0  0  0  0  0
    1.0000   43.8310   53.7330 C   0  0  0  0  0  0  0  0  0  0  0  0
   -0.3100   43.6270   52.9670 C   0  0  0  0  0  0  0  0  0  0  0  0
   -0.1060   42.7650   51.7120 C   0  0  0  0  0  0  0  0  0  0  0  0
    1.2280   43.0390   50.9640 C   0  0  2  0  0  0  0  0  0  0  0  0
    2.1680   41.9260   51.1710 N   0  0  0  0  0  0  0  0  0  0  0  0
    3.4600   41.8250   50.5370 C   0  0  0  0  0  0  0  0  0  0  0  0
    4.5710   42.5730   50.9770 C   0  0  0  0  0  0  0  0  0  0  0  0
    5.8070   42.4470   50.3360 C   0  0  0  0  0  0  0  0  0  0  0  0
    5.9510   41.5760   49.2530 C   0  0  0  0  0  0  0  0  0  0  0  0
    4.8570   40.8310   48.8090 C   0  0  0  0  0  0  0  0  0  0  0  0
    3.6190   40.9530   49.4460 C   0  0  0  0  0  0  0  0  0  0  0  0
    1.8760   44.3680   51.4030 C   0  0  0  0  0  0  0  0  0  0  0  0
    5.6760   46.9700   54.5840 S   0  0  0  0  0  0  0  0  0  0  0  0
    7.3340   47.0360   54.3400 C   0  0  0  0  0  0  0  0  0  0  0  0
    8.2630   47.6130   55.1430 N   0  0  0  0  0  0  0  0  0  0  0  0
   11.0869   47.6620   57.5276 H   0  0  0  0  0  0  0  0  0  0  0  0
   11.1916   46.3300   56.3269 H   0  0  0  0  0  0  0  0  0  0  0  0
   12.4227   47.6381   56.3269 H   0  0  0  0  0  0  0  0  0  0  0  0
   11.0287   46.9061   53.2911 H   0  0  0  0  0  0  0  0  0  0  0  0
    9.2808   45.8471   51.8181 H   0  0  0  0  0  0  0  0  0  0  0  0
    3.9240   45.9390   51.6690 H   0  0  0  0  0  0  0  0  0  0  0  0
    1.3488   42.8595   54.1132 H   0  0  0  0  0  0  0  0  0  0  0  0
    0.8138   44.5274   54.5639 H   0  0  0  0  0  0  0  0  0  0  0  0
   -1.0353   43.1292   53.6274 H   0  0  0  0  0  0  0  0  0  0  0  0
   -0.6786   44.6135   52.6492 H   0  0  0  0  0  0  0  0  0  0  0  0
   -0.1222   41.7072   52.0132 H   0  0  0  0  0  0  0  0  0  0  0  0
   -0.9183   43.0211   51.0159 H   0  0  0  0  0  0  0  0  0  0  0  0
    0.9913   43.1229   49.8930 H   0  0  0  0  0  0  0  0  0  0  0  0
    1.9010   41.1710   51.8430 H   0  0  0  0  0  0  0  0  0  0  0  0
    4.4647   43.2598   51.8297 H   0  0  0  0  0  0  0  0  0  0  0  0
    6.6685   43.0352   50.6852 H   0  0  0  0  0  0  0  0  0  0  0  0
    6.9248   41.4775   48.7510 H   0  0  0  0  0  0  0  0  0  0  0  0
    4.9697   40.1462   47.9556 H   0  0  0  0  0  0  0  0  0  0  0  0
    2.7621   40.3618   49.0907 H   0  0  0  0  0  0  0  0  0  0  0  0
    2.8635   44.4631   50.9278 H   0  0  0  0  0  0  0  0  0  0  0  0
    1.2243   45.1991   51.0955 H   0  0  0  0  0  0  0  0  0  0  0  0
  1  2  1  0
  2  3  1  0
  3  4  2  0
  4  5  1  0
  5  6  2  0
  6  7  1  0
  7  8  2  0
  8  9  1  0
  9 10  1  0
 10 11  2  0
 10 12  1  0
 12 13  1  0
 13 14  1  0
 14 15  1  0
 15 16  1  0
 16 17  1  0
 17 18  1  0
 18 19  2  0
 19 20  1  0
 20 21  2  0
 21 22  1  0
 22 23  2  0
 16 24  1  0
  8 25  1  0
 25 26  1  0
 26 27  2  0
 27  3  1  0
 26  6  1  0
 24 12  1  0
 23 18  1  0
  1 28  1  0
  1 29  1  0
  1 30  1  0
  4 31  1  0
  5 32  1  0
  9 33  1  0
 13 34  1  0
 13 35  1  0
 14 36  1  0
 14 37  1  0
 15 38  1  0
 15 39  1  0
 16 40  1  6
 17 41  1  0
 19 42  1  0
 20 43  1  0
 21 44  1  0
 22 45  1  0
 23 46  1  0
 24 47  1  0
 24 48  1  0
M  END
>  <meeko>  (1) 
{"is_sidechain": [false], "free_energy": -9.067, "intermolecular_energy": -11.717, "internal_energy": -0.29}

$$$$
ligand_12_conformer_2_docked
     RDKit          3D

 48 51  0  0  0  0  0  0  0  0999 V2000
   -3.9600   46.2880   59.2660 C   0  0  0  0  0  0  0  0  0  0  0  0
   -3.9200   45.0360   58.5900 O   0  0  0  0  0  0  0  0  0  0  0  0
   -3.0180   44.7640   57.5580 C   0  0  0  0  0  0  0  0  0  0  0  0
   -3.4650   44.0610   56.4190 C   0  0  0  0  0  0  0  0  0  0  0  0
   -2.5720   43.7780   55.3730 C   0  0  0  0  0  0  0  0  0  0  0  0
   -1.2530   44.2090   55.4970 C   0  0  0  0  0  0  0  0  0  0  0  0
   -0.2770   44.0100   54.5760 N   0  0  0  0  0  0  0  0  0  0  0  0
    0.8930   44.5540   55.0000 C   0  0  0  0  0  0  0  0  0  0  0  0
    2.1160   44.4940   54.2530 N   0  0  0  0  0  0  0  0  0  0  0  0
    2.3720   45.2850   53.0800 C   0  0  0  0  0  0  0  0  0  0  0  0
    1.6180   46.2550   52.7970 O   0  0  0  0  0  0  0  0  0  0  0  0
    3.5070   45.0020   52.2390 N   0  0  0  0  0  0  0  0  0  0  0  0
    4.2710   43.7660   52.4570 C   0  0  0  0  0  0  0  0  0  0  0  0
    5.1420   43.4340   51.2430 C   0  0  0  0  0  0  0  0  0  0  0  0
    6.0770   44.5980   50.8790 C   0  0  0  0  0  0  0  0  0  0  0  0
    5.4360   46.0030   51.0480 C   0  0  2  0  0  0  0  0  0  0  0  0
    6.0000   46.6840   52.2250 N   0  0  0  0  0  0  0  0  0  0  0  0
    7.4090   46.7470   52.5300 C   0  0  0  0  0  0  0  0  0  0  0  0
    8.3970   46.6780   51.5270 C   0  0  0  0  0  0  0  0  0  0  0  0
    9.7520   46.7430   51.8650 C   0  0  0  0  0  0  0  0  0  0  0  0
   10.1380   46.8770   53.2010 C   0  0  0  0  0  0  0  0  0  0  0  0
    9.1680   46.9450   54.2020 C   0  0  0  0  0  0  0  0  0  0  0  0
    7.8110   46.8820   53.8700 C   0  0  0  0  0  0  0  0  0  0  0  0
    3.9000   45.9290   51.1660 C   0  0  0  0  0  0  0  0  0  0  0  0
    0.7660   45.2890   56.5260 S   0  0  0  0  0  0  0  0  0  0  0  0
   -0.8600   44.8930   56.6280 C   0  0  0  0  0  0  0  0  0  0  0  0
   -1.7140   45.1700   57.6450 N   0  0  0  0  0  0  0  0  0  0  0  0
   -3.9546   46.1182   60.3528 H   0  0  0  0  0  0  0  0  0  0  0  0
   -3.0805   46.8853   58.9838 H   0  0  0  0  0  0  0  0  0  0  0  0
   -4.8759   46.8280   58.9838 H   0  0  0  0  0  0  0  0  0  0  0  0
   -4.5132   43.7346   56.3505 H   0  0  0  0  0  0  0  0  0  0  0  0
   -2.9052   43.2303   54.4791 H   0  0  0  0  0  0  0  0  0  0  0  0
    2.8650   43.8610   54.6100 H   0  0  0  0  0  0  0  0  0  0  0  0
    4.9169   43.8938   53.3382 H   0  0  0  0  0  0  0  0  0  0  0  0
    3.5614   42.9402   52.6137 H   0  0  0  0  0  0  0  0  0  0  0  0
    5.7502   42.5466   51.4725 H   0  0  0  0  0  0  0  0  0  0  0  0
    4.4785   43.2462   50.3860 H   0  0  0  0  0  0  0  0  0  0  0  0
    6.9649   44.5433   51.5261 H   0  0  0  0  0  0  0  0  0  0  0  0
    6.3213   44.4870   49.8122 H   0  0  0  0  0  0  0  0  0  0  0  0
    5.6723   46.5811   50.1425 H   0  0  0  0  0  0  0  0  0  0  0  0
    5.3450   47.1820   52.8690 H   0  0  0  0  0  0  0  0  0  0  0  0
    8.1004   46.5725   50.4730 H   0  0  0  0  0  0  0  0  0  0  0  0
   10.5169   46.6884   51.0763 H   0  0  0  0  0  0  0  0  0  0  0  0
   11.2050   46.9288   53.4635 H   0  0  0  0  0  0  0  0  0  0  0  0
    9.4714   47.0484   55.2543 H   0  0  0  0  0  0  0  0  0  0  0  0
    7.0520   46.9386   54.6641 H   0  0  0  0  0  0  0  0  0  0  0  0
    3.5061   46.9310   51.3916 H   0  0  0  0  0  0  0  0  0  0  0  0
    3.4884   45.5639   50.2135 H   0  0  0  0  0  0  0  0  0  0  0  0
  1  2  1  0
  2  3  1  0
  3  4  2  0
  4  5  1  0
  5  6  2  0
  6  7  1  0
  7  8  2  0
  8  9  1  0
  9 10  1  0
 10 11  2  0
 10 12  1  0
 12 13  1  0
 13 14  1  0
 14 15  1  0
 15 16  1  0
 16 17  1  0
 17 18  1  0
 18 19  2  0
 19 20  1  0
 20 21  2  0
 21 22  1  0
 22 23  2  0
 16 24  1  0
  8 25  1  0
 25 26  1  0
 26 27  2  0
 27  3  1  0
 26  6  1  0
 24 12  1  0
 23 18  1  0
  1 28  1  0
  1 29  1  0
  1 30  1  0
  4 31  1  0
  5 32  1  0
  9 33  1  0
 13 34  1  0
 13 35  1  0
 14 36  1  0
 14 37  1  0
 15 38  1  0
 15 39  1  0
 16 40  1  6
 17 41  1  0
 19 42  1  0
 20 43  1  0
 21 44  1  0
 22 45  1  0
 23 46  1  0
 24 47  1  0
 24 48  1  0
M  END
>  <meeko>  (2) 
{"is_sidechain": [false], "free_energy": -8.887, "intermolecular_energy": -11.366, "internal_energy": -0.409}

$$$$
ligand_12_conformer_2_docked
     RDKit          3D

 48 51  0  0  0  0  0  0  0  0999 V2000
   -3.2320   44.1190   54.3860 C   0  0  0  0  0  0  0  0  0  0  0  0
   -2.4600   44.0280   55.5780 O   0  0  0  0  0  0  0  0  0  0  0  0
   -1.1210   44.4230   55.6420 C   0  0  0  0  0  0  0  0  0  0  0  0
   -0.6250   44.9860   56.8370 C   0  0  0  0  0  0  0  0  0  0  0  0
    0.7180   45.3890   56.9190 C   0  0  0  0  0  0  0  0  0  0  0  0
    1.5280   45.2160   55.7990 C   0  0  0  0  0  0  0  0  0  0  0  0
    2.8390   45.5570   55.7230 N   0  0  0  0  0  0  0  0  0  0  0  0
    3.3370   45.2580   54.4960 C   0  0  0  0  0  0  0  0  0  0  0  0
    4.6910   45.5150   54.1010 N   0  0  0  0  0  0  0  0  0  0  0  0
    5.1700   46.8080   53.6920 C   0  0  0  0  0  0  0  0  0  0  0  0
    4.4670   47.8350   53.9020 O   0  0  0  0  0  0  0  0  0  0  0  0
    6.4640   46.9500   53.0760 N   0  0  0  0  0  0  0  0  0  0  0  0
    6.8580   48.2570   52.5310 C   0  0  0  0  0  0  0  0  0  0  0  0
    8.3720   48.3300   52.3130 C   0  0  0  0  0  0  0  0  0  0  0  0
    8.8720   47.1890   51.4140 C   0  0  0  0  0  0  0  0  0  0  0  0
    8.1600   45.8300   51.6590 C   0  0  2  0  0  0  0  0  0  0  0  0
    7.2460   45.5240   50.5470 N   0  0  0  0  0  0  0  0  0  0  0  0
    6.5450   44.2730   50.3920 C   0  0  0  0  0  0  0  0  0  0  0  0
    5.2830   44.0430   50.9790 C   0  0  0  0  0  0  0  0  0  0  0  0
    4.6360   42.8160   50.8050 C   0  0  0  0  0  0  0  0  0  0  0  0
    5.2350   41.8070   50.0470 C   0  0  0  0  0  0  0  0  0  0  0  0
    6.4840   42.0240   49.4610 C   0  0  0  0  0  0  0  0  0  0  0  0
    7.1360   43.2490   49.6320 C   0  0  0  0  0  0  0  0  0  0  0  0
    7.3920   45.8110   52.9960 C   0  0  0  0  0  0  0  0  0  0  0  0
    2.1780   44.5720   53.4620 S   0  0  0  0  0  0  0  0  0  0  0  0
    1.0000   44.6620   54.6510 C   0  0  0  0  0  0  0  0  0  0  0  0
   -0.2950   44.2710   54.5610 N   0  0  0  0  0  0  0  0  0  0  0  0
   -4.2936   44.2441   54.6454 H   0  0  0  0  0  0  0  0  0  0  0  0
   -2.8944   44.9836   53.7956 H   0  0  0  0  0  0  0  0  0  0  0  0
   -3.1047   43.1996   53.7956 H   0  0  0  0  0  0  0  0  0  0  0  0
   -1.2901   45.1093   57.7044 H   0  0  0  0  0  0  0  0  0  0  0  0
    1.1196   45.8297   57.8434 H   0  0  0  0  0  0  0  0  0  0  0  0
    5.3640   44.7190   54.1480 H   0  0  0  0  0  0  0  0  0  0  0  0
    6.3486   48.4133   51.5687 H   0  0  0  0  0  0  0  0  0  0  0  0
    6.5709   49.0369   53.2517 H   0  0  0  0  0  0  0  0  0  0  0  0
    8.6180   49.2915   51.8387 H   0  0  0  0  0  0  0  0  0  0  0  0
    8.8645   48.2362   53.2921 H   0  0  0  0  0  0  0  0  0  0  0  0
    8.7107   47.4794   50.3654 H   0  0  0  0  0  0  0  0  0  0  0  0
    9.9348   47.0382   51.6544 H   0  0  0  0  0  0  0  0  0  0  0  0
    8.9406   45.0570   51.7137 H   0  0  0  0  0  0  0  0  0  0  0  0
    7.0650   46.2690   49.8360 H   0  0  0  0  0  0  0  0  0  0  0  0
    4.8055   44.8333   51.5768 H   0  0  0  0  0  0  0  0  0  0  0  0
    3.6523   42.6446   51.2664 H   0  0  0  0  0  0  0  0  0  0  0  0
    4.7235   40.8426   49.9118 H   0  0  0  0  0  0  0  0  0  0  0  0
    6.9557   41.2297   48.8638 H   0  0  0  0  0  0  0  0  0  0  0  0
    8.1197   43.4127   49.1678 H   0  0  0  0  0  0  0  0  0  0  0  0
    6.8214   44.8737   53.0719 H   0  0  0  0  0  0  0  0  0  0  0  0
    8.1152   45.8839   53.8216 H   0  0  0  0  0  0  0  0  0  0  0  0
  1  2  1  0
  2  3  1  0
  3  4  2  0
  4  5  1  0
  5  6  2  0
  6  7  1  0
  7  8  2  0
  8  9  1  0
  9 10  1  0
 10 11  2  0
 10 12  1  0
 12 13  1  0
 13 14  1  0
 14 15  1  0
 15 16  1  0
 16 17  1  0
 17 18  1  0
 18 19  2  0
 19 20  1  0
 20 21  2  0
 21 22  1  0
 22 23  2  0
 16 24  1  0
  8 25  1  0
 25 26  1  0
 26 27  2  0
 27  3  1  0
 26  6  1  0
 24 12  1  0
 23 18  1  0
  1 28  1  0
  1 29  1  0
  1 30  1  0
  4 31  1  0
  5 32  1  0
  9 33  1  0
 13 34  1  0
 13 35  1  0
 14 36  1  0
 14 37  1  0
 15 38  1  0
 15 39  1  0
 16 40  1  1
 17 41  1  0
 19 42  1  0
 20 43  1  0
 21 44  1  0
 22 45  1  0
 23 46  1  0
 24 47  1  0
 24 48  1  0
M  END
>  <meeko>  (3) 
{"is_sidechain": [false], "free_energy": -8.657, "intermolecular_energy": -10.704, "internal_energy": -0.773}

$$$$
ligand_12_conformer_2_docked
     RDKit          3D

 48 51  0  0  0  0  0  0  0  0999 V2000
   -1.3610   47.2410   57.8220 C   0  0  0  0  0  0  0  0  0  0  0  0
   -0.7730   45.9450   57.7970 O   0  0  0  0  0  0  0  0  0  0  0  0
   -0.1110   45.4380   56.6750 C   0  0  0  0  0  0  0  0  0  0  0  0
   -0.8460   44.7170   55.7090 C   0  0  0  0  0  0  0  0  0  0  0  0
   -0.1970   44.2000   54.5760 C   0  0  0  0  0  0  0  0  0  0  0  0
    1.1710   44.4210   54.4410 C   0  0  0  0  0  0  0  0  0  0  0  0
    1.9350   43.9840   53.4080 N   0  0  0  0  0  0  0  0  0  0  0  0
    3.2270   44.3670   53.5780 C   0  0  0  0  0  0  0  0  0  0  0  0
    4.2810   44.0430   52.6610 N   0  0  0  0  0  0  0  0  0  0  0  0
    5.0500   45.0290   51.9510 C   0  0  0  0  0  0  0  0  0  0  0  0
    4.9930   46.2410   52.2960 O   0  0  0  0  0  0  0  0  0  0  0  0
    5.9180   44.6410   50.8690 N   0  0  0  0  0  0  0  0  0  0  0  0
    6.0890   43.2140   50.5630 C   0  0  0  0  0  0  0  0  0  0  0  0
    6.6810   43.0160   49.1650 C   0  0  0  0  0  0  0  0  0  0  0  0
    8.0080   43.7740   48.9980 C   0  0  0  0  0  0  0  0  0  0  0  0
    8.0370   45.1620   49.6940 C   0  0  2  0  0  0  0  0  0  0  0  0
    8.8880   45.1150   50.8940 N   0  0  0  0  0  0  0  0  0  0  0  0
    8.9480   46.1570   51.8890 C   0  0  0  0  0  0  0  0  0  0  0  0
    8.2080   47.3520   51.7700 C   0  0  0  0  0  0  0  0  0  0  0  0
    8.2950   48.3380   52.7570 C   0  0  0  0  0  0  0  0  0  0  0  0
    9.1150   48.1460   53.8720 C   0  0  0  0  0  0  0  0  0  0  0  0
    9.8520   46.9680   54.0000 C   0  0  0  0  0  0  0  0  0  0  0  0
    9.7700   45.9780   53.0160 C   0  0  0  0  0  0  0  0  0  0  0  0
    6.6230   45.6530   50.0670 C   0  0  0  0  0  0  0  0  0  0  0  0
    3.4720   45.2480   55.0090 S   0  0  0  0  0  0  0  0  0  0  0  0
    1.8490   45.1310   55.4100 C   0  0  0  0  0  0  0  0  0  0  0  0
    1.2330   45.6340   56.5090 N   0  0  0  0  0  0  0  0  0  0  0  0
   -1.5049   47.5583   58.8654 H   0  0  0  0  0  0  0  0  0  0  0  0
   -0.6983   47.9542   57.3100 H   0  0  0  0  0  0  0  0  0  0  0  0
   -2.3341   47.2121   57.3100 H   0  0  0  0  0  0  0  0  0  0  0  0
   -1.9264   44.5603   55.8437 H   0  0  0  0  0  0  0  0  0  0  0  0
   -0.7551   43.6350   53.8148 H   0  0  0  0  0  0  0  0  0  0  0  0
    4.5130   43.0330   52.5350 H   0  0  0  0  0  0  0  0  0  0  0  0
    6.7652   42.7660   51.3060 H   0  0  0  0  0  0  0  0  0  0  0  0
    5.1020   42.7294   50.5958 H   0  0  0  0  0  0  0  0  0  0  0  0
    6.8602   41.9430   49.0023 H   0  0  0  0  0  0  0  0  0  0  0  0
    5.9648   43.4115   48.4297 H   0  0  0  0  0  0  0  0  0  0  0  0
    8.8139   43.1575   49.4229 H   0  0  0  0  0  0  0  0  0  0  0  0
    8.1358   43.9564   47.9208 H   0  0  0  0  0  0  0  0  0  0  0  0
    8.4588   45.8794   48.9747 H   0  0  0  0  0  0  0  0  0  0  0  0
    9.4660   44.2590   51.0560 H   0  0  0  0  0  0  0  0  0  0  0  0
    7.5590   47.5088   50.8958 H   0  0  0  0  0  0  0  0  0  0  0  0
    7.7162   49.2679   52.6556 H   0  0  0  0  0  0  0  0  0  0  0  0
    9.1795   48.9228   54.6482 H   0  0  0  0  0  0  0  0  0  0  0  0
   10.4989   46.8179   54.8769 H   0  0  0  0  0  0  0  0  0  0  0  0
   10.3532   45.0516   53.1243 H   0  0  0  0  0  0  0  0  0  0  0  0
    6.7051   46.5827   50.6492 H   0  0  0  0  0  0  0  0  0  0  0  0
    6.0544   45.8318   49.1425 H   0  0  0  0  0  0  0  0  0  0  0  0
  1  2  1  0
  2  3  1  0
  3  4  2  0
  4  5  1  0
  5  6  2  0
  6  7  1  0
  7  8  2  0
  8  9  1  0
  9 10  1  0
 10 11  2  0
 10 12  1  0
 12 13  1  0
 13 14  1  0
 14 15  1  0
 15 16  1  0
 16 17  1  0
 17 18  1  0
 18 19  2  0
 19 20  1  0
 20 21  2  0
 21 22  1  0
 22 23  2  0
 16 24  1  0
  8 25  1  0
 25 26  1  0
 26 27  2  0
 27  3  1  0
 26  6  1  0
 24 12  1  0
 23 18  1  0
  1 28  1  0
  1 29  1  0
  1 30  1  0
  4 31  1  0
  5 32  1  0
  9 33  1  0
 13 34  1  0
 13 35  1  0
 14 36  1  0
 14 37  1  0
 15 38  1  0
 15 39  1  0
 16 40  1  6
 17 41  1  0
 19 42  1  0
 20 43  1  0
 21 44  1  0
 22 45  1  0
 23 46  1  0
 24 47  1  0
 24 48  1  0
M  END
>  <meeko>  (4) 
{"is_sidechain": [false], "free_energy": -8.569, "intermolecular_energy": -11.46, "internal_energy": 0.095}

$$$$
ligand_12_conformer_2_docked
     RDKit          3D

 48 51  0  0  0  0  0  0  0  0999 V2000
   10.2030   46.4340   51.8220 C   0  0  0  0  0  0  0  0  0  0  0  0
    9.0570   47.2300   51.5420 O   0  0  0  0  0  0  0  0  0  0  0  0
    7.7520   46.7480   51.6760 C   0  0  0  0  0  0  0  0  0  0  0  0
    7.3270   45.6770   50.8610 C   0  0  0  0  0  0  0  0  0  0  0  0
    6.0180   45.1800   50.9820 C   0  0  0  0  0  0  0  0  0  0  0  0
    5.1720   45.7710   51.9170 C   0  0  0  0  0  0  0  0  0  0  0  0
    3.8860   45.4050   52.1470 N   0  0  0  0  0  0  0  0  0  0  0  0
    3.3400   46.1770   53.1210 C   0  0  0  0  0  0  0  0  0  0  0  0
    1.9870   46.0450   53.5780 N   0  0  0  0  0  0  0  0  0  0  0  0
    1.6120   45.3080   54.7540 C   0  0  0  0  0  0  0  0  0  0  0  0
    2.4950   44.9480   55.5800 O   0  0  0  0  0  0  0  0  0  0  0  0
    0.2290   45.0060   55.0210 N   0  0  0  0  0  0  0  0  0  0  0  0
   -0.7080   44.8830   53.8940 C   0  0  0  0  0  0  0  0  0  0  0  0
   -1.9890   44.1610   54.3180 C   0  0  0  0  0  0  0  0  0  0  0  0
   -2.6610   44.8520   55.5150 C   0  0  0  0  0  0  0  0  0  0  0  0
   -1.6630   45.4050   56.5700 C   0  0  2  0  0  0  0  0  0  0  0  0
   -1.6060   46.8740   56.5000 N   0  0  0  0  0  0  0  0  0  0  0  0
   -1.5420   47.7410   57.6510 C   0  0  0  0  0  0  0  0  0  0  0  0
   -0.5460   47.6010   58.6400 C   0  0  0  0  0  0  0  0  0  0  0  0
   -0.5190   48.4630   59.7410 C   0  0  0  0  0  0  0  0  0  0  0  0
   -1.4780   49.4700   59.8690 C   0  0  0  0  0  0  0  0  0  0  0  0
   -2.4680   49.6160   58.8960 C   0  0  0  0  0  0  0  0  0  0  0  0
   -2.5010   48.7590   57.7930 C   0  0  0  0  0  0  0  0  0  0  0  0
   -0.2500   44.8120   56.3980 C   0  0  0  0  0  0  0  0  0  0  0  0
    4.4190   47.3420   53.7240 S   0  0  0  0  0  0  0  0  0  0  0  0
    5.6310   46.8160   52.6920 C   0  0  0  0  0  0  0  0  0  0  0  0
    6.8910   47.3040   52.5830 N   0  0  0  0  0  0  0  0  0  0  0  0
   10.3307   46.3453   52.9110 H   0  0  0  0  0  0  0  0  0  0  0  0
   10.0697   45.4331   51.3857 H   0  0  0  0  0  0  0  0  0  0  0  0
   11.0944   46.9084   51.3857 H   0  0  0  0  0  0  0  0  0  0  0  0
    8.0197   45.2317   50.1317 H   0  0  0  0  0  0  0  0  0  0  0  0
    5.6708   44.3459   50.3545 H   0  0  0  0  0  0  0  0  0  0  0  0
    1.2470   46.5420   53.0350 H   0  0  0  0  0  0  0  0  0  0  0  0
   -0.9661   45.8885   53.5301 H   0  0  0  0  0  0  0  0  0  0  0  0
   -0.2234   44.2966   53.0995 H   0  0  0  0  0  0  0  0  0  0  0  0
   -2.6907   44.1529   53.4710 H   0  0  0  0  0  0  0  0  0  0  0  0
   -1.7222   43.1370   54.6185 H   0  0  0  0  0  0  0  0  0  0  0  0
   -3.2634   45.6908   55.1362 H   0  0  0  0  0  0  0  0  0  0  0  0
   -3.2684   44.0881   56.0225 H   0  0  0  0  0  0  0  0  0  0  0  0
   -2.0327   45.1005   57.5603 H   0  0  0  0  0  0  0  0  0  0  0  0
   -1.5790   47.3230   55.5560 H   0  0  0  0  0  0  0  0  0  0  0  0
    0.2128   46.8103   58.5449 H   0  0  0  0  0  0  0  0  0  0  0  0
    0.2603   48.3474   60.5087 H   0  0  0  0  0  0  0  0  0  0  0  0
   -1.4532   50.1472   60.7355 H   0  0  0  0  0  0  0  0  0  0  0  0
   -3.2245   50.4081   58.9979 H   0  0  0  0  0  0  0  0  0  0  0  0
   -3.2835   48.8818   57.0297 H   0  0  0  0  0  0  0  0  0  0  0  0
    0.4392   45.3122   57.0943 H   0  0  0  0  0  0  0  0  0  0  0  0
   -0.2898   43.7335   56.6109 H   0  0  0  0  0  0  0  0  0  0  0  0
  1  2  1  0
  2  3  1  0
  3  4  2  0
  4  5  1  0
  5  6  2  0
  6  7  1  0
  7  8  2  0
  8  9  1  0
  9 10  1  0
 10 11  2  0
 10 12  1  0
 12 13  1  0
 13 14  1  0
 14 15  1  0
 15 16  1  0
 16 17  1  0
 17 18  1  0
 18 19  2  0
 19 20  1  0
 20 21  2  0
 21 22  1  0
 22 23  2  0
 16 24  1  0
  8 25  1  0
 25 26  1  0
 26 27  2  0
 27  3  1  0
 26  6  1  0
 24 12  1  0
 23 18  1  0
  1 28  1  0
  1 29  1  0
  1 30  1  0
  4 31  1  0
  5 32  1  0
  9 33  1  0
 13 34  1  0
 13 35  1  0
 14 36  1  0
 14 37  1  0
 15 38  1  0
 15 39  1  0
 16 40  1  1
 17 41  1  0
 19 42  1  0
 20 43  1  0
 21 44  1  0
 22 45  1  0
 23 46  1  0
 24 47  1  0
 24 48  1  0
M  END
>  <meeko>  (5) 
{"is_sidechain": [false], "free_energy": -7.989, "intermolecular_energy": -10.033, "internal_energy": -0.581}

$$$$
