ligand_13_conformer_1_docked
     RDKit          3D

 40 42  0  0  0  0  0  0  0  0999 V2000
    5.0410   47.7600   53.8470 O   0  0  0  0  0  0  0  0  0  0  0  0
    4.8090   46.5770   53.4770 C   0  0  0  0  0  0  0  0  0  0  0  0
    5.8660   45.7840   52.9030 N   0  0  0  0  0  0  0  0  0  0  0  0
    7.2330   46.2210   52.8080 C   0  0  0  0  0  0  0  0  0  0  0  0
    7.7610   46.7130   51.6020 C   0  0  0  0  0  0  0  0  0  0  0  0
    9.0850   47.1540   51.5430 C   0  0  0  0  0  0  0  0  0  0  0  0
    9.8860   47.1240   52.6840 C   0  0  0  0  0  0  0  0  0  0  0  0
    9.3730   46.6610   53.9010 C   0  0  0  0  0  0  0  0  0  0  0  0
   10.2170   46.6600   55.0220 O   0  0  0  0  0  0  0  0  0  0  0  0
   10.6140   47.8240   55.7420 C   0  0  0  0  0  0  0  0  0  0  0  0
   11.0580   47.4710   57.0030 F   0  0  0  0  0  0  0  0  0  0  0  0
    9.5280   48.6680   55.8680 F   0  0  0  0  0  0  0  0  0  0  0  0
    8.0370   46.2160   53.9570 C   0  0  0  0  0  0  0  0  0  0  0  0
    3.4380   46.0330   53.6340 C   0  0  0  0  0  0  0  0  0  0  0  0
    3.0810   45.2520   54.7490 C   0  0  0  0  0  0  0  0  0  0  0  0
    1.7840   44.7460   54.8750 C   0  0  0  0  0  0  0  0  0  0  0  0
    0.8160   45.0160   53.8930 C   0  0  0  0  0  0  0  0  0  0  0  0
   -0.5170   44.4860   53.9880 N   0  0  0  0  0  0  0  0  0  0  0  0
   -1.3000   44.4840   55.1910 C   0  0  0  0  0  0  0  0  0  0  0  0
   -1.3300   45.5960   55.9740 N   0  0  0  0  0  0  0  0  0  0  0  0
   -2.0370   45.6190   57.1340 C   0  0  0  0  0  0  0  0  0  0  0  0
   -2.7390   44.4860   57.5430 C   0  0  0  0  0  0  0  0  0  0  0  0
   -2.6890   43.3490   56.7380 C   0  0  0  0  0  0  0  0  0  0  0  0
   -1.9700   43.3650   55.5860 N   0  0  0  0  0  0  0  0  0  0  0  0
    1.1810   45.7600   52.7630 C   0  0  0  0  0  0  0  0  0  0  0  0
    2.4770   46.2670   52.6360 C   0  0  0  0  0  0  0  0  0  0  0  0
    5.6370   44.8570   52.4820 H   0  0  0  0  0  0  0  0  0  0  0  0
    7.1297   46.7509   50.7020 H   0  0  0  0  0  0  0  0  0  0  0  0
    9.4971   47.5261   50.5934 H   0  0  0  0  0  0  0  0  0  0  0  0
   10.9296   47.4670   52.6271 H   0  0  0  0  0  0  0  0  0  0  0  0
   11.4266   48.3277   55.1979 H   0  0  0  0  0  0  0  0  0  0  0  0
    7.6207   45.8612   54.9114 H   0  0  0  0  0  0  0  0  0  0  0  0
    3.8283   45.0381   55.5273 H   0  0  0  0  0  0  0  0  0  0  0  0
    1.5195   44.1324   55.7488 H   0  0  0  0  0  0  0  0  0  0  0  0
   -0.9790   44.1540   53.1120 H   0  0  0  0  0  0  0  0  0  0  0  0
   -2.0555   46.5304   57.7497 H   0  0  0  0  0  0  0  0  0  0  0  0
   -3.3182   44.4892   58.4781 H   0  0  0  0  0  0  0  0  0  0  0  0
   -3.2315   42.4396   57.0357 H   0  0  0  0  0  0  0  0  0  0  0  0
    0.4418   45.9463   51.9700 H   0  0  0  0  0  0  0  0  0  0  0  0
    2.7474   46.8548   51.7464 H   0  0  0  0  0  0  0  0  0  0  0  0
  1  2  2  0
  2  3  1  0
  3  4  1  0
  4  5  2  0
  5  6  1  0
  6  7  2  0
  7  8  1  0
  8  9  1  0
  9 10  1  0
 10 11  1  0
 10 12  1  0
  8 13  2  0
  2 14  1  0
 14 15  2  0
 15 16  1  0
 16 17  2  0
 17 18  1  0
 18 19  1  0
 19 20  2  0
 20 21  1  0
 21 22  2  0
 22 23  1  0
 23 24  2  0
 17 25  1  0
 25 26  2  0
 13  4  1  0
 26 14  1  0
 24 19  1  0
  3 27  1  0
  5 28  1  0
  6 29  1  0
  7 30  1  0
 10 31  1  0
 13 32  1  0
 15 33  1  0
 16 34  1  0
 18 35  1  0
 21 36  1  0
 22 37  1  0
 23 38  1  0
 25 39  1  0
 26 40  1  0
M  END
>  <meeko>  (1) 
{"is_sidechain": [false], "free_energy": -8.289, "intermolecular_energy": -11.196, "internal_energy": -0.677}

$$$$
ligand_13_conformer_1_docked
     RDKit          3D

 40 42  0  0  0  0  0  0  0  0999 V2000
    3.0720   46.4150   52.1050 O   0  0  0  0  0  0  0  0  0  0  0  0
    3.1900   45.5090   52.9740 C   0  0  0  0  0  0  0  0  0  0  0  0
    4.3710   44.6830   52.9940 N   0  0  0  0  0  0  0  0  0  0  0  0
    5.5040   44.8850   52.1320 C   0  0  0  0  0  0  0  0  0  0  0  0
    5.6020   44.2380   50.8890 C   0  0  0  0  0  0  0  0  0  0  0  0
    6.7010   44.4710   50.0600 C   0  0  0  0  0  0  0  0  0  0  0  0
    7.7020   45.3600   50.4540 C   0  0  0  0  0  0  0  0  0  0  0  0
    7.6120   46.0350   51.6770 C   0  0  0  0  0  0  0  0  0  0  0  0
    8.6390   46.9260   52.0220 O   0  0  0  0  0  0  0  0  0  0  0  0
    9.8710   46.5490   52.6290 C   0  0  0  0  0  0  0  0  0  0  0  0
   10.2770   47.5260   53.5190 F   0  0  0  0  0  0  0  0  0  0  0  0
   10.8330   46.4100   51.6470 F   0  0  0  0  0  0  0  0  0  0  0  0
    6.5010   45.7960   52.5120 C   0  0  0  0  0  0  0  0  0  0  0  0
    2.0960   45.3090   53.9540 C   0  0  0  0  0  0  0  0  0  0  0  0
    0.7730   45.0660   53.5400 C   0  0  0  0  0  0  0  0  0  0  0  0
   -0.2430   44.8840   54.4820 C   0  0  0  0  0  0  0  0  0  0  0  0
    0.0430   44.9340   55.8570 C   0  0  0  0  0  0  0  0  0  0  0  0
   -0.9900   44.7740   56.8440 N   0  0  0  0  0  0  0  0  0  0  0  0
   -1.7270   45.8610   57.4230 C   0  0  0  0  0  0  0  0  0  0  0  0
   -2.8430   45.6000   58.1560 N   0  0  0  0  0  0  0  0  0  0  0  0
   -3.5810   46.6060   58.6940 C   0  0  0  0  0  0  0  0  0  0  0  0
   -3.2030   47.9310   58.4900 C   0  0  0  0  0  0  0  0  0  0  0  0
   -2.0650   48.1860   57.7260 C   0  0  0  0  0  0  0  0  0  0  0  0
   -1.3540   47.1530   57.2040 N   0  0  0  0  0  0  0  0  0  0  0  0
    1.3520   45.2150   56.2710 C   0  0  0  0  0  0  0  0  0  0  0  0
    2.3690   45.3970   55.3300 C   0  0  0  0  0  0  0  0  0  0  0  0
    4.4040   43.8550   53.6290 H   0  0  0  0  0  0  0  0  0  0  0  0
    4.8101   43.5454   50.5677 H   0  0  0  0  0  0  0  0  0  0  0  0
    6.7781   43.9521   49.0931 H   0  0  0  0  0  0  0  0  0  0  0  0
    8.5685   45.5316   49.7984 H   0  0  0  0  0  0  0  0  0  0  0  0
    9.7348   45.5992   53.1669 H   0  0  0  0  0  0  0  0  0  0  0  0
    6.4153   46.3289   53.4704 H   0  0  0  0  0  0  0  0  0  0  0  0
    0.5369   45.0190   52.4667 H   0  0  0  0  0  0  0  0  0  0  0  0
   -1.2738   44.7003   54.1449 H   0  0  0  0  0  0  0  0  0  0  0  0
   -1.2820   43.8040   57.0990 H   0  0  0  0  0  0  0  0  0  0  0  0
   -4.4760   46.3743   59.2900 H   0  0  0  0  0  0  0  0  0  0  0  0
   -3.7883   48.7564   58.9214 H   0  0  0  0  0  0  0  0  0  0  0  0
   -1.7433   49.2224   57.5462 H   0  0  0  0  0  0  0  0  0  0  0  0
    1.5806   45.2929   57.3442 H   0  0  0  0  0  0  0  0  0  0  0  0
    3.3931   45.6112   55.6695 H   0  0  0  0  0  0  0  0  0  0  0  0
  1  2  2  0
  2  3  1  0
  3  4  1  0
  4  5  2  0
  5  6  1  0
  6  7  2  0
  7  8  1  0
  8  9  1  0
  9 10  1  0
 10 11  1  0
 10 12  1  0
  8 13  2  0
  2 14  1  0
 14 15  2  0
 15 16  1  0
 16 17  2  0
 17 18  1  0
 18 19  1  0
 19 20  2  0
 20 21  1  0
 21 22  2  0
 22 23  1  0
 23 24  2  0
 17 25  1  0
 25 26  2  0
 13  4  1  0
 26 14  1  0
 24 19  1  0
  3 27  1  0
  5 28  1  0
  6 29  1  0
  7 30  1  0
 10 31  1  0
 13 32  1  0
 15 33  1  0
 16 34  1  0
 18 35  1  0
 21 36  1  0
 22 37  1  0
 23 38  1  0
 25 39  1  0
 26 40  1  0
M  END
>  <meeko>  (2) 
{"is_sidechain": [false], "free_energy": -8.092, "intermolecular_energy": -10.926, "internal_energy": -0.682}

$$$$
ligand_13_conformer_1_docked
     RDKit          3D

 40 42  0  0  0  0  0  0  0  0999 V2000
    4.4420   43.5500   52.9530 O   0  0  0  0  0  0  0  0  0  0  0  0
    3.6530   44.3450   52.3760 C   0  0  0  0  0  0  0  0  0  0  0  0
    4.1650   45.5410   51.7560 N   0  0  0  0  0  0  0  0  0  0  0  0
    5.5650   45.8560   51.6590 C   0  0  0  0  0  0  0  0  0  0  0  0
    6.3670   45.3150   50.6400 C   0  0  0  0  0  0  0  0  0  0  0  0
    7.7180   45.6580   50.5530 C   0  0  0  0  0  0  0  0  0  0  0  0
    8.2770   46.5510   51.4680 C   0  0  0  0  0  0  0  0  0  0  0  0
    7.4900   47.1210   52.4750 C   0  0  0  0  0  0  0  0  0  0  0  0
    8.0970   48.0220   53.3640 O   0  0  0  0  0  0  0  0  0  0  0  0
    9.0310   47.6590   54.3760 C   0  0  0  0  0  0  0  0  0  0  0  0
    9.1280   48.6710   55.3130 F   0  0  0  0  0  0  0  0  0  0  0  0
   10.2700   47.4630   53.7970 F   0  0  0  0  0  0  0  0  0  0  0  0
    6.1270   46.7730   52.5600 C   0  0  0  0  0  0  0  0  0  0  0  0
    2.2040   44.0310   52.3580 C   0  0  0  0  0  0  0  0  0  0  0  0
    1.6780   42.9470   53.0840 C   0  0  0  0  0  0  0  0  0  0  0  0
    0.3090   42.6670   53.0500 C   0  0  0  0  0  0  0  0  0  0  0  0
   -0.5640   43.4700   52.2960 C   0  0  0  0  0  0  0  0  0  0  0  0
   -1.9710   43.1870   52.2260 N   0  0  0  0  0  0  0  0  0  0  0  0
   -2.5660   42.2850   51.2820 C   0  0  0  0  0  0  0  0  0  0  0  0
   -3.0130   41.0710   51.7050 N   0  0  0  0  0  0  0  0  0  0  0  0
   -3.5550   40.1800   50.8330 C   0  0  0  0  0  0  0  0  0  0  0  0
   -3.6510   40.5010   49.4810 C   0  0  0  0  0  0  0  0  0  0  0  0
   -3.1780   41.7420   49.0590 C   0  0  0  0  0  0  0  0  0  0  0  0
   -2.6410   42.6050   49.9600 N   0  0  0  0  0  0  0  0  0  0  0  0
   -0.0360   44.5260   51.5410 C   0  0  0  0  0  0  0  0  0  0  0  0
    1.3330   44.8070   51.5740 C   0  0  0  0  0  0  0  0  0  0  0  0
    3.4960   46.2560   51.3960 H   0  0  0  0  0  0  0  0  0  0  0  0
    5.9295   44.6194   49.9087 H   0  0  0  0  0  0  0  0  0  0  0  0
    8.3439   45.2225   49.7601 H   0  0  0  0  0  0  0  0  0  0  0  0
    9.3440   46.8088   51.3972 H   0  0  0  0  0  0  0  0  0  0  0  0
    8.6913   46.7364   54.8694 H   0  0  0  0  0  0  0  0  0  0  0  0
    5.4974   47.2249   53.3406 H   0  0  0  0  0  0  0  0  0  0  0  0
    2.3495   42.3146   53.6833 H   0  0  0  0  0  0  0  0  0  0  0  0
   -0.0879   41.8122   53.6173 H   0  0  0  0  0  0  0  0  0  0  0  0
   -2.5940   43.6000   52.9560 H   0  0  0  0  0  0  0  0  0  0  0  0
   -3.9174   39.2065   51.1948 H   0  0  0  0  0  0  0  0  0  0  0  0
   -4.0897   39.7919   48.7636 H   0  0  0  0  0  0  0  0  0  0  0  0
   -3.2395   42.0225   47.9971 H   0  0  0  0  0  0  0  0  0  0  0  0
   -0.7040   45.1385   50.9176 H   0  0  0  0  0  0  0  0  0  0  0  0
    1.7322   45.6430   50.9810 H   0  0  0  0  0  0  0  0  0  0  0  0
  1  2  2  0
  2  3  1  0
  3  4  1  0
  4  5  2  0
  5  6  1  0
  6  7  2  0
  7  8  1  0
  8  9  1  0
  9 10  1  0
 10 11  1  0
 10 12  1  0
  8 13  2  0
  2 14  1  0
 14 15  2  0
 15 16  1  0
 16 17  2  0
 17 18  1  0
 18 19  1  0
 19 20  2  0
 20 21  1  0
 21 22  2  0
 22 23  1  0
 23 24  2  0
 17 25  1  0
 25 26  2  0
 13  4  1  0
 26 14  1  0
 24 19  1  0
  3 27  1  0
  5 28  1  0
  6 29  1  0
  7 30  1  0
 10 31  1  0
 13 32  1  0
 15 33  1  0
 16 34  1  0
 18 35  1  0
 21 36  1  0
 22 37  1  0
 23 38  1  0
 25 39  1  0
 26 40  1  0
M  END
>  <meeko>  (3) 
{"is_sidechain": [false], "free_energy": -8.032, "intermolecular_energy": -10.83, "internal_energy": -0.696}

$$$$
ligand_13_conformer_1_docked
     RDKit          3D

 40 42  0  0  0  0  0  0  0  0999 V2000
    5.1180   47.9500   53.8270 O   0  0  0  0  0  0  0  0  0  0  0  0
    4.8430   46.7670   53.4900 C   0  0  0  0  0  0  0  0  0  0  0  0
    5.8680   45.9210   52.9350 N   0  0  0  0  0  0  0  0  0  0  0  0
    7.2500   46.3050   52.8230 C   0  0  0  0  0  0  0  0  0  0  0  0
    7.7920   46.7380   51.6020 C   0  0  0  0  0  0  0  0  0  0  0  0
    9.1300   47.1300   51.5260 C   0  0  0  0  0  0  0  0  0  0  0  0
    9.9330   47.1090   52.6670 C   0  0  0  0  0  0  0  0  0  0  0  0
    9.4070   46.7050   53.8990 C   0  0  0  0  0  0  0  0  0  0  0  0
   10.2530   46.7100   55.0180 O   0  0  0  0  0  0  0  0  0  0  0  0
   10.6400   47.8760   55.7390 C   0  0  0  0  0  0  0  0  0  0  0  0
   11.1560   47.5200   56.9720 F   0  0  0  0  0  0  0  0  0  0  0  0
    9.5300   48.6760   55.9320 F   0  0  0  0  0  0  0  0  0  0  0  0
    8.0560   46.3090   53.9720 C   0  0  0  0  0  0  0  0  0  0  0  0
    3.4540   46.2760   53.6660 C   0  0  0  0  0  0  0  0  0  0  0  0
    2.5140   46.3400   52.6220 C   0  0  0  0  0  0  0  0  0  0  0  0
    1.2090   45.8750   52.8120 C   0  0  0  0  0  0  0  0  0  0  0  0
    0.8210   45.3290   54.0480 C   0  0  0  0  0  0  0  0  0  0  0  0
   -0.5210   44.8680   54.2740 N   0  0  0  0  0  0  0  0  0  0  0  0
   -1.3450   44.2580   53.2700 C   0  0  0  0  0  0  0  0  0  0  0  0
   -2.4840   44.8830   52.8660 N   0  0  0  0  0  0  0  0  0  0  0  0
   -3.3020   44.3210   51.9390 C   0  0  0  0  0  0  0  0  0  0  0  0
   -2.9840   43.0790   51.3930 C   0  0  0  0  0  0  0  0  0  0  0  0
   -1.8210   42.4430   51.8240 C   0  0  0  0  0  0  0  0  0  0  0  0
   -1.0300   43.0370   52.7540 N   0  0  0  0  0  0  0  0  0  0  0  0
    1.7450   45.3010   55.1000 C   0  0  0  0  0  0  0  0  0  0  0  0
    3.0500   45.7660   54.9120 C   0  0  0  0  0  0  0  0  0  0  0  0
    5.6050   44.9910   52.5400 H   0  0  0  0  0  0  0  0  0  0  0  0
    7.1601   46.7685   50.7021 H   0  0  0  0  0  0  0  0  0  0  0  0
    9.5522   47.4563   50.5641 H   0  0  0  0  0  0  0  0  0  0  0  0
   10.9880   47.4125   52.5973 H   0  0  0  0  0  0  0  0  0  0  0  0
   11.4063   48.4185   55.1659 H   0  0  0  0  0  0  0  0  0  0  0  0
    7.6298   46.0004   54.9380 H   0  0  0  0  0  0  0  0  0  0  0  0
    2.8076   46.7591   51.6483 H   0  0  0  0  0  0  0  0  0  0  0  0
    0.4815   45.9368   51.9892 H   0  0  0  0  0  0  0  0  0  0  0  0
   -0.8970   44.9030   55.2490 H   0  0  0  0  0  0  0  0  0  0  0  0
   -4.2145   44.8456   51.6195 H   0  0  0  0  0  0  0  0  0  0  0  0
   -3.6353   42.6116   50.6398 H   0  0  0  0  0  0  0  0  0  0  0  0
   -1.5445   41.4615   51.4114 H   0  0  0  0  0  0  0  0  0  0  0  0
    1.4415   44.9099   56.0823 H   0  0  0  0  0  0  0  0  0  0  0  0
    3.7665   45.7325   55.7460 H   0  0  0  0  0  0  0  0  0  0  0  0
  1  2  2  0
  2  3  1  0
  3  4  1  0
  4  5  2  0
  5  6  1  0
  6  7  2  0
  7  8  1  0
  8  9  1  0
  9 10  1  0
 10 11  1  0
 10 12  1  0
  8 13  2  0
  2 14  1  0
 14 15  2  0
 15 16  1  0
 16 17  2  0
 17 18  1  0
 18 19  1  0
 19 20  2  0
 20 21  1  0
 21 22  2  0
 22 23  1  0
 23 24  2  0
 17 25  1  0
 25 26  2  0
 13  4  1  0
 26 14  1  0
 24 19  1  0
  3 27  1  0
  5 28  1  0
  6 29  1  0
  7 30  1  0
 10 31  1  0
 13 32  1  0
 15 33  1  0
 16 34  1  0
 18 35  1  0
 21 36  1  0
 22 37  1  0
 23 38  1  0
 25 39  1  0
 26 40  1  0
M  END
>  <meeko>  (4) 
{"is_sidechain": [false], "free_energy": -8.026, "intermolecular_energy": -10.782, "internal_energy": -0.736}

$$$$
ligand_13_conformer_1_docked
     RDKit          3D

 40 42  0  0  0  0  0  0  0  0999 V2000
    4.6620   44.5670   54.0910 O   0  0  0  0  0  0  0  0  0  0  0  0
    3.8590   45.1610   53.3220 C   0  0  0  0  0  0  0  0  0  0  0  0
    4.3650   45.9890   52.2560 N   0  0  0  0  0  0  0  0  0  0  0  0
    5.7600   46.1140   51.9330 C   0  0  0  0  0  0  0  0  0  0  0  0
    6.3160   45.4540   50.8230 C   0  0  0  0  0  0  0  0  0  0  0  0
    7.6690   45.6140   50.5160 C   0  0  0  0  0  0  0  0  0  0  0  0
    8.4740   46.4400   51.3000 C   0  0  0  0  0  0  0  0  0  0  0  0
    7.9360   47.1270   52.3950 C   0  0  0  0  0  0  0  0  0  0  0  0
    8.7850   47.9540   53.1450 O   0  0  0  0  0  0  0  0  0  0  0  0
    9.3060   47.6310   54.4300 C   0  0  0  0  0  0  0  0  0  0  0  0
    9.2010   48.7230   55.2710 F   0  0  0  0  0  0  0  0  0  0  0  0
   10.6390   47.2890   54.3040 F   0  0  0  0  0  0  0  0  0  0  0  0
    6.5700   46.9640   52.7020 C   0  0  0  0  0  0  0  0  0  0  0  0
    2.4010   44.9990   53.5430 C   0  0  0  0  0  0  0  0  0  0  0  0
    1.4770   45.1570   52.4940 C   0  0  0  0  0  0  0  0  0  0  0  0
    0.1070   45.0030   52.7270 C   0  0  0  0  0  0  0  0  0  0  0  0
   -0.3660   44.6800   54.0110 C   0  0  0  0  0  0  0  0  0  0  0  0
   -1.7710   44.5410   54.2790 N   0  0  0  0  0  0  0  0  0  0  0  0
   -2.3290   44.3770   55.5910 C   0  0  0  0  0  0  0  0  0  0  0  0
   -2.5750   43.1260   56.0640 N   0  0  0  0  0  0  0  0  0  0  0  0
   -3.1310   42.9350   57.2890 C   0  0  0  0  0  0  0  0  0  0  0  0
   -3.4660   44.0330   58.0790 C   0  0  0  0  0  0  0  0  0  0  0  0
   -3.2210   45.3100   57.5770 C   0  0  0  0  0  0  0  0  0  0  0  0
   -2.6660   45.4600   56.3460 N   0  0  0  0  0  0  0  0  0  0  0  0
    0.5510   44.5610   55.0640 C   0  0  0  0  0  0  0  0  0  0  0  0
    1.9210   44.7150   54.8330 C   0  0  0  0  0  0  0  0  0  0  0  0
    3.7000   46.5780   51.7080 H   0  0  0  0  0  0  0  0  0  0  0  0
    5.6835   44.8098   50.1946 H   0  0  0  0  0  0  0  0  0  0  0  0
    8.1012   45.0867   49.6528 H   0  0  0  0  0  0  0  0  0  0  0  0
    9.5407   46.5527   51.0560 H   0  0  0  0  0  0  0  0  0  0  0  0
    8.7349   46.7904   54.8510 H   0  0  0  0  0  0  0  0  0  0  0  0
    6.1344   47.5084   53.5528 H   0  0  0  0  0  0  0  0  0  0  0  0
    1.8348   45.4034   51.4834 H   0  0  0  0  0  0  0  0  0  0  0  0
   -0.6059   45.1355   51.8998 H   0  0  0  0  0  0  0  0  0  0  0  0
   -2.4380   44.6460   53.4810 H   0  0  0  0  0  0  0  0  0  0  0  0
   -3.3164   41.9150   57.6566 H   0  0  0  0  0  0  0  0  0  0  0  0
   -3.9129   43.8953   59.0746 H   0  0  0  0  0  0  0  0  0  0  0  0
   -3.4768   46.1957   58.1771 H   0  0  0  0  0  0  0  0  0  0  0  0
    0.1899   44.3447   56.0803 H   0  0  0  0  0  0  0  0  0  0  0  0
    2.6296   44.6130   55.6682 H   0  0  0  0  0  0  0  0  0  0  0  0
  1  2  2  0
  2  3  1  0
  3  4  1  0
  4  5  2  0
  5  6  1  0
  6  7  2  0
  7  8  1  0
  8  9  1  0
  9 10  1  0
 10 11  1  0
 10 12  1  0
  8 13  2  0
  2 14  1  0
 14 15  2  0
 15 16  1  0
 16 17  2  0
 17 18  1  0
 18 19  1  0
 19 20  2  0
 20 21  1  0
 21 22  2  0
 22 23  1  0
 23 24  2  0
 17 25  1  0
 25 26  2  0
 13  4  1  0
 26 14  1  0
 24 19  1  0
  3 27  1  0
  5 28  1  0
  6 29  1  0
  7 30  1  0
 10 31  1  0
 13 32  1  0
 15 33  1  0
 16 34  1  0
 18 35  1  0
 21 36  1  0
 22 37  1  0
 23 38  1  0
 25 39  1  0
 26 40  1  0
M  END
>  <meeko>  (5) 
{"is_sidechain": [false], "free_energy": -7.89, "intermolecular_energy": -10.661, "internal_energy": -0.674}

$$$$
