ligand_67_conformer_5_docked
     RDKit          3D

 59 61  0  0  0  0  0  0  0  0999 V2000
    3.1990   46.4360   50.9100 C   0  0  0  0  0  0  0  0  0  0  0  0
    4.0080   46.8390   52.1390 C   0  0  0  0  0  0  0  0  0  0  0  0
    4.7400   45.6730   52.6780 N   0  0  0  0  0  0  0  0  0  0  0  0
    6.1770   45.6650   52.2900 C   0  0  0  0  0  0  0  0  0  0  0  0
    6.7670   47.0880   52.3150 C   0  0  0  0  0  0  0  0  0  0  0  0
    8.3020   47.0660   52.1600 C   0  0  0  0  0  0  0  0  0  0  0  0
    8.8170   45.9020   51.2870 C   0  0  0  0  0  0  0  0  0  0  0  0
    7.7700   45.4370   50.2690 C   0  0  0  0  0  0  0  0  0  0  0  0
    6.4940   44.9170   50.9600 C   0  0  0  0  0  0  0  0  0  0  0  0
    4.4040   45.4600   54.3900 S   0  0  0  0  0  0  0  0  0  0  0  0
    4.8320   46.6800   55.1580 O   0  0  0  0  0  0  0  0  0  0  0  0
    5.1150   44.2620   54.9510 O   0  0  0  0  0  0  0  0  0  0  0  0
    2.6440   45.2350   54.6140 C   0  0  0  0  0  0  0  0  0  0  0  0
    2.0970   44.1060   53.7330 C   0  0  0  0  0  0  0  0  0  0  0  0
    3.1750   43.2790   53.1960 N   0  0  0  0  0  0  0  0  0  0  0  0
    3.1830   42.7940   51.8460 C   0  0  0  0  0  0  0  0  0  0  0  0
    2.2770   43.1480   51.0450 O   0  0  0  0  0  0  0  0  0  0  0  0
    4.2100   41.8820   51.4310 N   0  0  0  0  0  0  0  0  0  0  0  0
    4.4340   41.4700   50.0740 C   0  0  0  0  0  0  0  0  0  0  0  0
    5.5650   41.7040   49.3090 C   0  0  0  0  0  0  0  0  0  0  0  0
    5.3020   41.0600   48.1180 C   0  0  0  0  0  0  0  0  0  0  0  0
    4.0880   40.4740   48.1980 N   0  0  0  0  0  0  0  0  0  0  0  0
    3.4420   39.7120   47.1570 C   0  0  0  0  0  0  0  0  0  0  0  0
    2.7340   38.5420   47.4900 C   0  0  0  0  0  0  0  0  0  0  0  0
    2.1080   37.7820   46.5020 C   0  0  0  0  0  0  0  0  0  0  0  0
    2.1780   38.1770   45.1660 C   0  0  0  0  0  0  0  0  0  0  0  0
    2.8730   39.3360   44.8130 C   0  0  0  0  0  0  0  0  0  0  0  0
    2.9190   39.7080   43.5080 F   0  0  0  0  0  0  0  0  0  0  0  0
    3.5070   40.1090   45.7990 C   0  0  0  0  0  0  0  0  0  0  0  0
    4.1760   41.3250   45.3990 C   0  0  0  0  0  0  0  0  0  0  0  0
    4.7110   42.2990   45.0760 N   0  0  0  0  0  0  0  0  0  0  0  0
    3.5560   40.7170   49.3860 N   0  0  0  0  0  0  0  0  0  0  0  0
    2.2567   45.9666   51.2290 H   0  0  0  0  0  0  0  0  0  0  0  0
    2.9780   47.3293   50.3074 H   0  0  0  0  0  0  0  0  0  0  0  0
    3.7789   45.7215   50.3074 H   0  0  0  0  0  0  0  0  0  0  0  0
    4.7285   47.6214   51.8583 H   0  0  0  0  0  0  0  0  0  0  0  0
    3.3212   47.2175   52.9104 H   0  0  0  0  0  0  0  0  0  0  0  0
    6.6835   45.0650   53.0603 H   0  0  0  0  0  0  0  0  0  0  0  0
    6.3325   47.6697   51.4887 H   0  0  0  0  0  0  0  0  0  0  0  0
    6.5244   47.5454   53.2855 H   0  0  0  0  0  0  0  0  0  0  0  0
    8.6188   48.0132   51.6992 H   0  0  0  0  0  0  0  0  0  0  0  0
    8.7264   46.9281   53.1654 H   0  0  0  0  0  0  0  0  0  0  0  0
    9.7146   46.2351   50.7454 H   0  0  0  0  0  0  0  0  0  0  0  0
    9.0428   45.0548   51.9513 H   0  0  0  0  0  0  0  0  0  0  0  0
    7.5037   46.2839   49.6195 H   0  0  0  0  0  0  0  0  0  0  0  0
    8.2033   44.6124   49.6840 H   0  0  0  0  0  0  0  0  0  0  0  0
    5.6448   45.0473   50.2730 H   0  0  0  0  0  0  0  0  0  0  0  0
    6.6609   43.8585   51.2082 H   0  0  0  0  0  0  0  0  0  0  0  0
    2.4478   44.9906   55.6684 H   0  0  0  0  0  0  0  0  0  0  0  0
    2.1406   46.1691   54.3240 H   0  0  0  0  0  0  0  0  0  0  0  0
    1.4275   43.4744   54.3353 H   0  0  0  0  0  0  0  0  0  0  0  0
    1.5538   44.5572   52.8896 H   0  0  0  0  0  0  0  0  0  0  0  0
    3.9900   43.0620   53.8120 H   0  0  0  0  0  0  0  0  0  0  0  0
    4.8040   41.4450   52.1700 H   0  0  0  0  0  0  0  0  0  0  0  0
    6.4649   42.2722   49.5872 H   0  0  0  0  0  0  0  0  0  0  0  0
    5.9715   41.0288   47.2458 H   0  0  0  0  0  0  0  0  0  0  0  0
    2.6737   38.2234   48.5411 H   0  0  0  0  0  0  0  0  0  0  0  0
    1.5583   36.8697   46.7768 H   0  0  0  0  0  0  0  0  0  0  0  0
    1.6849   37.5745   44.3889 H   0  0  0  0  0  0  0  0  0  0  0  0
  1  2  1  0
  2  3  1  0
  3  4  1  0
  4  5  1  0
  5  6  1  0
  6  7  1  0
  7  8  1  0
  8  9  1  0
  3 10  1  0
 10 11  2  0
 10 12  2  0
 10 13  1  0
 13 14  1  0
 14 15  1  0
 15 16  1  0
 16 17  2  0
 16 18  1  0
 18 19  1  0
 19 20  1  0
 20 21  2  0
 21 22  1  0
 22 23  1  0
 23 24  2  0
 24 25  1  0
 25 26  2  0
 26 27  1  0
 27 28  1  0
 27 29  2  0
 29 30  1  0
 30 31  3  0
 22 32  1  0
  9  4  1  0
 32 19  2  0
 29 23  1  0
  1 33  1  0
  1 34  1  0
  1 35  1  0
  2 36  1  0
  2 37  1  0
  4 38  1  0
  5 39  1  0
  5 40  1  0
  6 41  1  0
  6 42  1  0
  7 43  1  0
  7 44  1  0
  8 45  1  0
  8 46  1  0
  9 47  1  0
  9 48  1  0
 13 49  1  0
 13 50  1  0
 14 51  1  0
 14 52  1  0
 15 53  1  0
 18 54  1  0
 20 55  1  0
 21 56  1  0
 24 57  1  0
 25 58  1  0
 26 59  1  0
M  END
>  <meeko>  (1) 
{"is_sidechain": [false], "free_energy": -8.735, "intermolecular_energy": -12.821, "internal_energy": -1.24}

$$$$
ligand_67_conformer_5_docked
     RDKit          3D

 59 61  0  0  0  0  0  0  0  0999 V2000
   -2.0650   43.1790   50.3360 C   0  0  0  0  0  0  0  0  0  0  0  0
   -1.3980   44.2330   51.2150 C   0  0  0  0  0  0  0  0  0  0  0  0
   -0.7930   43.6010   52.4060 N   0  0  0  0  0  0  0  0  0  0  0  0
    0.6840   43.7840   52.4690 C   0  0  0  0  0  0  0  0  0  0  0  0
    1.2080   44.5000   51.2100 C   0  0  0  0  0  0  0  0  0  0  0  0
    2.6850   44.9160   51.3710 C   0  0  0  0  0  0  0  0  0  0  0  0
    3.5050   43.9530   52.2570 C   0  0  0  0  0  0  0  0  0  0  0  0
    2.9320   42.5320   52.2450 C   0  0  0  0  0  0  0  0  0  0  0  0
    1.4920   42.4920   52.7950 C   0  0  0  0  0  0  0  0  0  0  0  0
   -1.6830   44.0270   53.8600 S   0  0  0  0  0  0  0  0  0  0  0  0
   -2.9800   43.2680   53.9160 O   0  0  0  0  0  0  0  0  0  0  0  0
   -1.9820   45.4980   53.9180 O   0  0  0  0  0  0  0  0  0  0  0  0
   -0.7050   43.5870   55.2920 C   0  0  0  0  0  0  0  0  0  0  0  0
   -0.3720   44.8110   56.1520 C   0  0  0  0  0  0  0  0  0  0  0  0
    1.0700   44.9510   56.3460 N   0  0  0  0  0  0  0  0  0  0  0  0
    1.9280   45.5620   55.3730 C   0  0  0  0  0  0  0  0  0  0  0  0
    1.4350   46.0810   54.3360 O   0  0  0  0  0  0  0  0  0  0  0  0
    3.3490   45.5470   55.5770 N   0  0  0  0  0  0  0  0  0  0  0  0
    4.2940   46.2740   54.7800 C   0  0  0  0  0  0  0  0  0  0  0  0
    4.0730   47.4610   54.1000 C   0  0  0  0  0  0  0  0  0  0  0  0
    5.2990   47.7640   53.5480 C   0  0  0  0  0  0  0  0  0  0  0  0
    6.1850   46.8090   53.9020 N   0  0  0  0  0  0  0  0  0  0  0  0
    7.5750   46.7550   53.5180 C   0  0  0  0  0  0  0  0  0  0  0  0
    8.5570   47.2590   54.3910 C   0  0  0  0  0  0  0  0  0  0  0  0
    9.9070   47.2260   54.0400 C   0  0  0  0  0  0  0  0  0  0  0  0
   10.2980   46.6900   52.8140 C   0  0  0  0  0  0  0  0  0  0  0  0
    9.3420   46.1820   51.9330 C   0  0  0  0  0  0  0  0  0  0  0  0
    9.7460   45.6540   50.7490 F   0  0  0  0  0  0  0  0  0  0  0  0
    7.9790   46.2090   52.2750 C   0  0  0  0  0  0  0  0  0  0  0  0
    7.0250   45.6310   51.3580 C   0  0  0  0  0  0  0  0  0  0  0  0
    6.2630   45.1670   50.6220 N   0  0  0  0  0  0  0  0  0  0  0  0
    5.5820   45.9010   54.6540 N   0  0  0  0  0  0  0  0  0  0  0  0
   -2.5447   42.4209   50.9725 H   0  0  0  0  0  0  0  0  0  0  0  0
   -2.8245   43.6584   49.7009 H   0  0  0  0  0  0  0  0  0  0  0  0
   -1.3066   42.6979   49.7009 H   0  0  0  0  0  0  0  0  0  0  0  0
   -0.6133   44.7433   50.6372 H   0  0  0  0  0  0  0  0  0  0  0  0
   -2.1577   44.9581   51.5423 H   0  0  0  0  0  0  0  0  0  0  0  0
    0.8614   44.4347   53.3380 H   0  0  0  0  0  0  0  0  0  0  0  0
    1.1195   43.8207   50.3493 H   0  0  0  0  0  0  0  0  0  0  0  0
    0.6080   45.4087   51.0542 H   0  0  0  0  0  0  0  0  0  0  0  0
    3.1475   44.9499   50.3735 H   0  0  0  0  0  0  0  0  0  0  0  0
    2.6916   45.8970   51.8686 H   0  0  0  0  0  0  0  0  0  0  0  0
    4.5395   43.9217   51.8843 H   0  0  0  0  0  0  0  0  0  0  0  0
    3.4652   44.3262   53.2910 H   0  0  0  0  0  0  0  0  0  0  0  0
    2.9288   42.1578   51.2106 H   0  0  0  0  0  0  0  0  0  0  0  0
    3.5627   41.9029   52.8904 H   0  0  0  0  0  0  0  0  0  0  0  0
    0.9706   41.6305   52.3522 H   0  0  0  0  0  0  0  0  0  0  0  0
    1.5583   42.4107   53.8900 H   0  0  0  0  0  0  0  0  0  0  0  0
   -1.2704   42.8668   55.9016 H   0  0  0  0  0  0  0  0  0  0  0  0
    0.2406   43.1499   54.9389 H   0  0  0  0  0  0  0  0  0  0  0  0
   -0.7552   45.7135   55.6534 H   0  0  0  0  0  0  0  0  0  0  0  0
   -0.8425   44.6796   57.1376 H   0  0  0  0  0  0  0  0  0  0  0  0
    1.4850   44.6230   57.2470 H   0  0  0  0  0  0  0  0  0  0  0  0
    3.7280   44.9240   56.3240 H   0  0  0  0  0  0  0  0  0  0  0  0
    3.1352   48.0302   54.0193 H   0  0  0  0  0  0  0  0  0  0  0  0
    5.5195   48.6408   52.9214 H   0  0  0  0  0  0  0  0  0  0  0  0
    8.2571   47.6835   55.3605 H   0  0  0  0  0  0  0  0  0  0  0  0
   10.6641   47.6236   54.7319 H   0  0  0  0  0  0  0  0  0  0  0  0
   11.3631   46.6673   52.5401 H   0  0  0  0  0  0  0  0  0  0  0  0
  1  2  1  0
  2  3  1  0
  3  4  1  0
  4  5  1  0
  5  6  1  0
  6  7  1  0
  7  8  1  0
  8  9  1  0
  3 10  1  0
 10 11  2  0
 10 12  2  0
 10 13  1  0
 13 14  1  0
 14 15  1  0
 15 16  1  0
 16 17  2  0
 16 18  1  0
 18 19  1  0
 19 20  1  0
 20 21  2  0
 21 22  1  0
 22 23  1  0
 23 24  2  0
 24 25  1  0
 25 26  2  0
 26 27  1  0
 27 28  1  0
 27 29  2  0
 29 30  1  0
 30 31  3  0
 22 32  1  0
  9  4  1  0
 32 19  2  0
 29 23  1  0
  1 33  1  0
  1 34  1  0
  1 35  1  0
  2 36  1  0
  2 37  1  0
  4 38  1  0
  5 39  1  0
  5 40  1  0
  6 41  1  0
  6 42  1  0
  7 43  1  0
  7 44  1  0
  8 45  1  0
  8 46  1  0
  9 47  1  0
  9 48  1  0
 13 49  1  0
 13 50  1  0
 14 51  1  0
 14 52  1  0
 15 53  1  0
 18 54  1  0
 20 55  1  0
 21 56  1  0
 24 57  1  0
 25 58  1  0
 26 59  1  0
M  END
>  <meeko>  (2) 
{"is_sidechain": [false], "free_energy": -8.22, "intermolecular_energy": -12.137, "internal_energy": -1.168}

$$$$
ligand_67_conformer_5_docked
     RDKit          3D

 59 61  0  0  0  0  0  0  0  0999 V2000
   -2.7440   45.0390   50.7660 C   0  0  0  0  0  0  0  0  0  0  0  0
   -1.8540   45.3610   51.9620 C   0  0  0  0  0  0  0  0  0  0  0  0
   -1.3500   44.1160   52.5790 N   0  0  0  0  0  0  0  0  0  0  0  0
    0.1250   43.9640   52.4480 C   0  0  0  0  0  0  0  0  0  0  0  0
    0.7630   45.2310   51.8490 C   0  0  0  0  0  0  0  0  0  0  0  0
    2.3030   45.1850   51.9370 C   0  0  0  0  0  0  0  0  0  0  0  0
    2.8840   43.7590   51.8320 C   0  0  0  0  0  0  0  0  0  0  0  0
    1.9660   42.8200   51.0420 C   0  0  0  0  0  0  0  0  0  0  0  0
    0.5880   42.6670   51.7160 C   0  0  0  0  0  0  0  0  0  0  0  0
   -2.0030   43.9110   54.1970 S   0  0  0  0  0  0  0  0  0  0  0  0
   -1.2890   42.7940   54.9080 O   0  0  0  0  0  0  0  0  0  0  0  0
   -3.4730   43.6030   54.1690 O   0  0  0  0  0  0  0  0  0  0  0  0
   -1.7560   45.4230   55.1210 C   0  0  0  0  0  0  0  0  0  0  0  0
   -0.8580   45.2030   56.3430 C   0  0  0  0  0  0  0  0  0  0  0  0
    0.3820   45.9710   56.2390 N   0  0  0  0  0  0  0  0  0  0  0  0
    1.6290   45.3810   55.8470 C   0  0  0  0  0  0  0  0  0  0  0  0
    1.6700   44.1720   55.4930 O   0  0  0  0  0  0  0  0  0  0  0  0
    2.8270   46.1690   55.8920 N   0  0  0  0  0  0  0  0  0  0  0  0
    4.0950   45.7580   55.3590 C   0  0  0  0  0  0  0  0  0  0  0  0
    4.9990   44.8850   55.9410 C   0  0  0  0  0  0  0  0  0  0  0  0
    6.0120   44.7830   55.0110 C   0  0  0  0  0  0  0  0  0  0  0  0
    5.7010   45.5470   53.9420 N   0  0  0  0  0  0  0  0  0  0  0  0
    6.5060   45.7200   52.7580 C   0  0  0  0  0  0  0  0  0  0  0  0
    6.1190   45.0970   51.5570 C   0  0  0  0  0  0  0  0  0  0  0  0
    6.8850   45.2410   50.3990 C   0  0  0  0  0  0  0  0  0  0  0  0
    8.0480   46.0100   50.4220 C   0  0  0  0  0  0  0  0  0  0  0  0
    8.4510   46.6390   51.6010 C   0  0  0  0  0  0  0  0  0  0  0  0
    9.5810   47.3920   51.5980 F   0  0  0  0  0  0  0  0  0  0  0  0
    7.6880   46.5020   52.7730 C   0  0  0  0  0  0  0  0  0  0  0  0
    8.1110   47.2070   53.9600 C   0  0  0  0  0  0  0  0  0  0  0  0
    8.4530   47.7730   54.9100 N   0  0  0  0  0  0  0  0  0  0  0  0
    4.5350   46.1410   54.1450 N   0  0  0  0  0  0  0  0  0  0  0  0
   -3.7227   44.6849   51.1220 H   0  0  0  0  0  0  0  0  0  0  0  0
   -2.8812   45.9445   50.1567 H   0  0  0  0  0  0  0  0  0  0  0  0
   -2.2700   44.2554   50.1567 H   0  0  0  0  0  0  0  0  0  0  0  0
   -1.0017   45.9699   51.6261 H   0  0  0  0  0  0  0  0  0  0  0  0
   -2.4440   45.9151   52.7070 H   0  0  0  0  0  0  0  0  0  0  0  0
    0.4980   43.8396   53.4753 H   0  0  0  0  0  0  0  0  0  0  0  0
    0.4678   45.3146   50.7927 H   0  0  0  0  0  0  0  0  0  0  0  0
    0.4104   46.0998   52.4243 H   0  0  0  0  0  0  0  0  0  0  0  0
    2.7167   45.7906   51.1172 H   0  0  0  0  0  0  0  0  0  0  0  0
    2.5820   45.5757   52.9267 H   0  0  0  0  0  0  0  0  0  0  0  0
    3.8596   43.8097   51.3264 H   0  0  0  0  0  0  0  0  0  0  0  0
    2.9835   43.3575   52.8513 H   0  0  0  0  0  0  0  0  0  0  0  0
    1.8244   43.2282   50.0304 H   0  0  0  0  0  0  0  0  0  0  0  0
    2.4408   41.8285   51.0049 H   0  0  0  0  0  0  0  0  0  0  0  0
   -0.1544   42.4150   50.9444 H   0  0  0  0  0  0  0  0  0  0  0  0
    0.6761   41.8735   52.4727 H   0  0  0  0  0  0  0  0  0  0  0  0
   -1.2861   46.1693   54.4636 H   0  0  0  0  0  0  0  0  0  0  0  0
   -2.7373   45.7709   55.4760 H   0  0  0  0  0  0  0  0  0  0  0  0
   -1.3998   45.5187   57.2468 H   0  0  0  0  0  0  0  0  0  0  0  0
   -0.6003   44.1349   56.3955 H   0  0  0  0  0  0  0  0  0  0  0  0
    0.3480   46.9980   56.4240 H   0  0  0  0  0  0  0  0  0  0  0  0
    2.7910   47.0850   56.3930 H   0  0  0  0  0  0  0  0  0  0  0  0
    4.9258   44.3877   56.9194 H   0  0  0  0  0  0  0  0  0  0  0  0
    6.9241   44.1782   55.1219 H   0  0  0  0  0  0  0  0  0  0  0  0
    5.2023   44.4896   51.5304 H   0  0  0  0  0  0  0  0  0  0  0  0
    6.5709   44.7474   49.4675 H   0  0  0  0  0  0  0  0  0  0  0  0
    8.6498   46.1213   49.5080 H   0  0  0  0  0  0  0  0  0  0  0  0
  1  2  1  0
  2  3  1  0
  3  4  1  0
  4  5  1  0
  5  6  1  0
  6  7  1  0
  7  8  1  0
  8  9  1  0
  3 10  1  0
 10 11  2  0
 10 12  2  0
 10 13  1  0
 13 14  1  0
 14 15  1  0
 15 16  1  0
 16 17  2  0
 16 18  1  0
 18 19  1  0
 19 20  1  0
 20 21  2  0
 21 22  1  0
 22 23  1  0
 23 24  2  0
 24 25  1  0
 25 26  2  0
 26 27  1  0
 27 28  1  0
 27 29  2  0
 29 30  1  0
 30 31  3  0
 22 32  1  0
  9  4  1  0
 32 19  2  0
 29 23  1  0
  1 33  1  0
  1 34  1  0
  1 35  1  0
  2 36  1  0
  2 37  1  0
  4 38  1  0
  5 39  1  0
  5 40  1  0
  6 41  1  0
  6 42  1  0
  7 43  1  0
  7 44  1  0
  8 45  1  0
  8 46  1  0
  9 47  1  0
  9 48  1  0
 13 49  1  0
 13 50  1  0
 14 51  1  0
 14 52  1  0
 15 53  1  0
 18 54  1  0
 20 55  1  0
 21 56  1  0
 24 57  1  0
 25 58  1  0
 26 59  1  0
M  END
>  <meeko>  (3) 
{"is_sidechain": [false], "free_energy": -8.17, "intermolecular_energy": -11.498, "internal_energy": -1.733}

$$$$
ligand_67_conformer_5_docked
     RDKit          3D

 59 61  0  0  0  0  0  0  0  0999 V2000
    2.8400   46.0870   51.3310 C   0  0  0  0  0  0  0  0  0  0  0  0
    4.3060   46.4450   51.1040 C   0  0  0  0  0  0  0  0  0  0  0  0
    5.1680   45.7010   52.0450 N   0  0  0  0  0  0  0  0  0  0  0  0
    6.0690   44.7330   51.3590 C   0  0  0  0  0  0  0  0  0  0  0  0
    6.8630   45.4190   50.2310 C   0  0  0  0  0  0  0  0  0  0  0  0
    7.9720   44.4970   49.6810 C   0  0  0  0  0  0  0  0  0  0  0  0
    7.6110   42.9980   49.7340 C   0  0  0  0  0  0  0  0  0  0  0  0
    6.0970   42.7670   49.6840 C   0  0  0  0  0  0  0  0  0  0  0  0
    5.3800   43.4190   50.8830 C   0  0  0  0  0  0  0  0  0  0  0  0
    5.9390   46.7930   53.1850 S   0  0  0  0  0  0  0  0  0  0  0  0
    4.9310   47.7660   53.7340 O   0  0  0  0  0  0  0  0  0  0  0  0
    7.0570   47.5670   52.5460 O   0  0  0  0  0  0  0  0  0  0  0  0
    6.6090   45.8410   54.5430 C   0  0  0  0  0  0  0  0  0  0  0  0
    5.6620   44.7150   54.9710 C   0  0  0  0  0  0  0  0  0  0  0  0
    4.4000   45.2460   55.4850 N   0  0  0  0  0  0  0  0  0  0  0  0
    3.1310   44.9430   54.8900 C   0  0  0  0  0  0  0  0  0  0  0  0
    3.0630   44.1220   53.9360 O   0  0  0  0  0  0  0  0  0  0  0  0
    1.9510   45.6030   55.3710 N   0  0  0  0  0  0  0  0  0  0  0  0
    0.6110   45.2590   54.9900 C   0  0  0  0  0  0  0  0  0  0  0  0
   -0.4560   45.0070   55.8360 C   0  0  0  0  0  0  0  0  0  0  0  0
   -1.5150   44.7840   54.9810 C   0  0  0  0  0  0  0  0  0  0  0  0
   -1.0830   44.9140   53.7080 N   0  0  0  0  0  0  0  0  0  0  0  0
   -1.8820   44.7480   52.5190 C   0  0  0  0  0  0  0  0  0  0  0  0
   -2.5630   45.8550   51.9790 C   0  0  0  0  0  0  0  0  0  0  0  0
   -3.3490   45.7190   50.8330 C   0  0  0  0  0  0  0  0  0  0  0  0
   -3.4670   44.4780   50.2100 C   0  0  0  0  0  0  0  0  0  0  0  0
   -2.7990   43.3660   50.7260 C   0  0  0  0  0  0  0  0  0  0  0  0
   -2.9190   42.1690   50.0960 F   0  0  0  0  0  0  0  0  0  0  0  0
   -2.0050   43.4900   51.8780 C   0  0  0  0  0  0  0  0  0  0  0  0
   -1.2920   42.3280   52.3540 C   0  0  0  0  0  0  0  0  0  0  0  0
   -0.7210   41.3950   52.7330 N   0  0  0  0  0  0  0  0  0  0  0  0
    0.2080   45.2060   53.7060 N   0  0  0  0  0  0  0  0  0  0  0  0
    2.6376   46.0376   52.4111 H   0  0  0  0  0  0  0  0  0  0  0  0
    2.1998   46.8552   50.8728 H   0  0  0  0  0  0  0  0  0  0  0  0
    2.6259   45.1102   50.8728 H   0  0  0  0  0  0  0  0  0  0  0  0
    4.5871   46.1861   50.0725 H   0  0  0  0  0  0  0  0  0  0  0  0
    4.4407   47.5237   51.2724 H   0  0  0  0  0  0  0  0  0  0  0  0
    6.7786   44.3970   52.1295 H   0  0  0  0  0  0  0  0  0  0  0  0
    6.1735   45.6763   49.4135 H   0  0  0  0  0  0  0  0  0  0  0  0
    7.3366   46.3229   50.6416 H   0  0  0  0  0  0  0  0  0  0  0  0
    8.1648   44.7715   48.6334 H   0  0  0  0  0  0  0  0  0  0  0  0
    8.8561   44.6389   50.3199 H   0  0  0  0  0  0  0  0  0  0  0  0
    8.0756   42.4908   48.8756 H   0  0  0  0  0  0  0  0  0  0  0  0
    7.9838   42.5935   50.6866 H   0  0  0  0  0  0  0  0  0  0  0  0
    5.7010   43.2000   48.7536 H   0  0  0  0  0  0  0  0  0  0  0  0
    5.9144   41.6830   49.7238 H   0  0  0  0  0  0  0  0  0  0  0  0
    4.3456   43.6513   50.5896 H   0  0  0  0  0  0  0  0  0  0  0  0
    5.4174   42.7047   51.7187 H   0  0  0  0  0  0  0  0  0  0  0  0
    7.5673   45.4006   54.2303 H   0  0  0  0  0  0  0  0  0  0  0  0
    6.7452   46.5172   55.3999 H   0  0  0  0  0  0  0  0  0  0  0  0
    5.4530   44.0734   54.1022 H   0  0  0  0  0  0  0  0  0  0  0  0
    6.1479   44.1399   55.7729 H   0  0  0  0  0  0  0  0  0  0  0  0
    4.4240   45.8430   56.3410 H   0  0  0  0  0  0  0  0  0  0  0  0
    2.0750   46.4270   56.0010 H   0  0  0  0  0  0  0  0  0  0  0  0
   -0.4584   44.9889   56.9358 H   0  0  0  0  0  0  0  0  0  0  0  0
   -2.5433   44.5401   55.2860 H   0  0  0  0  0  0  0  0  0  0  0  0
   -2.4751   46.8379   52.4650 H   0  0  0  0  0  0  0  0  0  0  0  0
   -3.8758   46.5926   50.4214 H   0  0  0  0  0  0  0  0  0  0  0  0
   -4.0887   44.3743   49.3085 H   0  0  0  0  0  0  0  0  0  0  0  0
  1  2  1  0
  2  3  1  0
  3  4  1  0
  4  5  1  0
  5  6  1  0
  6  7  1  0
  7  8  1  0
  8  9  1  0
  3 10  1  0
 10 11  2  0
 10 12  2  0
 10 13  1  0
 13 14  1  0
 14 15  1  0
 15 16  1  0
 16 17  2  0
 16 18  1  0
 18 19  1  0
 19 20  1  0
 20 21  2  0
 21 22  1  0
 22 23  1  0
 23 24  2  0
 24 25  1  0
 25 26  2  0
 26 27  1  0
 27 28  1  0
 27 29  2  0
 29 30  1  0
 30 31  3  0
 22 32  1  0
  9  4  1  0
 32 19  2  0
 29 23  1  0
  1 33  1  0
  1 34  1  0
  1 35  1  0
  2 36  1  0
  2 37  1  0
  4 38  1  0
  5 39  1  0
  5 40  1  0
  6 41  1  0
  6 42  1  0
  7 43  1  0
  7 44  1  0
  8 45  1  0
  8 46  1  0
  9 47  1  0
  9 48  1  0
 13 49  1  0
 13 50  1  0
 14 51  1  0
 14 52  1  0
 15 53  1  0
 18 54  1  0
 20 55  1  0
 21 56  1  0
 24 57  1  0
 25 58  1  0
 26 59  1  0
M  END
>  <meeko>  (4) 
{"is_sidechain": [false], "free_energy": -7.774, "intermolecular_energy": -11.25, "internal_energy": -1.399}

$$$$
ligand_67_conformer_5_docked
     RDKit          3D

 59 61  0  0  0  0  0  0  0  0999 V2000
    9.2540   46.4190   52.6120 C   0  0  0  0  0  0  0  0  0  0  0  0
    7.8070   46.8100   52.3240 C   0  0  0  0  0  0  0  0  0  0  0  0
    6.9440   45.6100   52.3110 N   0  0  0  0  0  0  0  0  0  0  0  0
    5.8010   45.7110   53.2610 C   0  0  0  0  0  0  0  0  0  0  0  0
    5.6250   47.1560   53.7650 C   0  0  0  0  0  0  0  0  0  0  0  0
    4.3060   47.3240   54.5470 C   0  0  0  0  0  0  0  0  0  0  0  0
    3.8750   46.0540   55.3110 C   0  0  0  0  0  0  0  0  0  0  0  0
    5.0710   45.1700   55.6790 C   0  0  0  0  0  0  0  0  0  0  0  0
    5.8240   44.6770   54.4270 C   0  0  0  0  0  0  0  0  0  0  0  0
    6.5370   45.1510   50.6650 S   0  0  0  0  0  0  0  0  0  0  0  0
    7.5670   45.6830   49.7070 O   0  0  0  0  0  0  0  0  0  0  0  0
    5.1870   45.6720   50.2590 O   0  0  0  0  0  0  0  0  0  0  0  0
    6.5170   43.3660   50.5460 C   0  0  0  0  0  0  0  0  0  0  0  0
    5.0890   42.8160   50.4590 C   0  0  0  0  0  0  0  0  0  0  0  0
    4.4420   42.8030   51.7700 N   0  0  0  0  0  0  0  0  0  0  0  0
    3.0450   43.0710   51.9490 C   0  0  0  0  0  0  0  0  0  0  0  0
    2.3040   43.2470   50.9450 O   0  0  0  0  0  0  0  0  0  0  0  0
    2.5100   43.1660   53.2770 N   0  0  0  0  0  0  0  0  0  0  0  0
    1.1110   43.2480   53.5890 C   0  0  0  0  0  0  0  0  0  0  0  0
    0.1780   42.2290   53.5000 C   0  0  0  0  0  0  0  0  0  0  0  0
   -0.9890   42.8020   53.9610 C   0  0  0  0  0  0  0  0  0  0  0  0
   -0.7370   44.0810   54.3120 N   0  0  0  0  0  0  0  0  0  0  0  0
   -1.6960   45.0250   54.8310 C   0  0  0  0  0  0  0  0  0  0  0  0
   -2.8510   45.3230   54.0840 C   0  0  0  0  0  0  0  0  0  0  0  0
   -3.7910   46.2390   54.5600 C   0  0  0  0  0  0  0  0  0  0  0  0
   -3.5930   46.8700   55.7880 C   0  0  0  0  0  0  0  0  0  0  0  0
   -2.4560   46.5870   56.5480 C   0  0  0  0  0  0  0  0  0  0  0  0
   -2.2890   47.2040   57.7450 F   0  0  0  0  0  0  0  0  0  0  0  0
   -1.5030   45.6670   56.0790 C   0  0  0  0  0  0  0  0  0  0  0  0
   -0.3640   45.3660   56.9150 C   0  0  0  0  0  0  0  0  0  0  0  0
    0.5470   45.1270   57.5860 N   0  0  0  0  0  0  0  0  0  0  0  0
    0.5390   44.3590   54.0910 N   0  0  0  0  0  0  0  0  0  0  0  0
    9.4127   46.3761   53.6996 H   0  0  0  0  0  0  0  0  0  0  0  0
    9.4618   45.4325   52.1720 H   0  0  0  0  0  0  0  0  0  0  0  0
    9.9304   47.1666   52.1720 H   0  0  0  0  0  0  0  0  0  0  0  0
    7.4557   47.5011   53.1044 H   0  0  0  0  0  0  0  0  0  0  0  0
    7.7573   47.2970   51.3390 H   0  0  0  0  0  0  0  0  0  0  0  0
    4.9103   45.4351   52.6774 H   0  0  0  0  0  0  0  0  0  0  0  0
    6.4672   47.4094   54.4256 H   0  0  0  0  0  0  0  0  0  0  0  0
    5.5972   47.8254   52.8926 H   0  0  0  0  0  0  0  0  0  0  0  0
    4.4337   48.1403   55.2732 H   0  0  0  0  0  0  0  0  0  0  0  0
    3.5188   47.5398   53.8096 H   0  0  0  0  0  0  0  0  0  0  0  0
    3.3579   46.3538   56.2344 H   0  0  0  0  0  0  0  0  0  0  0  0
    3.2123   45.4716   54.6540 H   0  0  0  0  0  0  0  0  0  0  0  0
    5.7638   45.7507   56.3057 H   0  0  0  0  0  0  0  0  0  0  0  0
    4.6927   44.2899   56.2197 H   0  0  0  0  0  0  0  0  0  0  0  0
    6.8709   44.4803   54.7015 H   0  0  0  0  0  0  0  0  0  0  0  0
    5.3167   43.7675   54.0727 H   0  0  0  0  0  0  0  0  0  0  0  0
    7.0704   43.0632   49.6449 H   0  0  0  0  0  0  0  0  0  0  0  0
    6.9852   42.9581   51.4540 H   0  0  0  0  0  0  0  0  0  0  0  0
    4.5026   43.4489   49.7767 H   0  0  0  0  0  0  0  0  0  0  0  0
    5.1381   41.7821   50.0867 H   0  0  0  0  0  0  0  0  0  0  0  0
    5.0170   42.5540   52.6060 H   0  0  0  0  0  0  0  0  0  0  0  0
    3.1840   43.2340   54.0720 H   0  0  0  0  0  0  0  0  0  0  0  0
    0.3319   41.1997   53.1438 H   0  0  0  0  0  0  0  0  0  0  0  0
   -1.9649   42.2993   54.0311 H   0  0  0  0  0  0  0  0  0  0  0  0
   -3.0148   44.8290   53.1149 H   0  0  0  0  0  0  0  0  0  0  0  0
   -4.6890   46.4634   53.9657 H   0  0  0  0  0  0  0  0  0  0  0  0
   -4.3346   47.5927   56.1590 H   0  0  0  0  0  0  0  0  0  0  0  0
  1  2  1  0
  2  3  1  0
  3  4  1  0
  4  5  1  0
  5  6  1  0
  6  7  1  0
  7  8  1  0
  8  9  1  0
  3 10  1  0
 10 11  2  0
 10 12  2  0
 10 13  1  0
 13 14  1  0
 14 15  1  0
 15 16  1  0
 16 17  2  0
 16 18  1  0
 18 19  1  0
 19 20  1  0
 20 21  2  0
 21 22  1  0
 22 23  1  0
 23 24  2  0
 24 25  1  0
 25 26  2  0
 26 27  1  0
 27 28  1  0
 27 29  2  0
 29 30  1  0
 30 31  3  0
 22 32  1  0
  9  4  1  0
 32 19  2  0
 29 23  1  0
  1 33  1  0
  1 34  1  0
  1 35  1  0
  2 36  1  0
  2 37  1  0
  4 38  1  0
  5 39  1  0
  5 40  1  0
  6 41  1  0
  6 42  1  0
  7 43  1  0
  7 44  1  0
  8 45  1  0
  8 46  1  0
  9 47  1  0
  9 48  1  0
 13 49  1  0
 13 50  1  0
 14 51  1  0
 14 52  1  0
 15 53  1  0
 18 54  1  0
 20 55  1  0
 21 56  1  0
 24 57  1  0
 25 58  1  0
 26 59  1  0
M  END
>  <meeko>  (5) 
{"is_sidechain": [false], "free_energy": -7.526, "intermolecular_energy": -10.77, "internal_energy": -1.516}

$$$$
