MODEL 1
REMARK VINA RESULT:    -9.616      0.000      0.000
REMARK INTER + INTRA:         -13.196
REMARK INTER:                 -12.427
REMARK INTRA:                  -0.769
REMARK UNBOUND:                -0.769
REMARK SMILES O=C1CC[C@@H](c2cccc(NC(=O)c3ccc(Oc4ccccc4)cn3)c2)N1
REMARK SMILES IDX 13 1 12 2 11 3 14 5 15 6 26 7 16 8 25 9 17 10 18 11 19 12
REMARK SMILES IDX 20 13 24 14 21 15 23 16 22 17 10 18 9 19 27 20 8 21 6 22
REMARK SMILES IDX 7 23 5 24 4 25 28 26 3 27 2 28 1 29
REMARK H PARENT 11 4 28 30
ROOT
ATOM      1  O   UNL     1       4.759  44.231  53.951  1.00  0.00    -0.267 OA
ATOM      2  C   UNL     1       3.845  44.384  53.095  1.00  0.00     0.274 C 
ATOM      3  N   UNL     1       4.165  44.860  51.776  1.00  0.00    -0.321 N 
ATOM      4  H   UNL     1       3.397  45.273  51.200  1.00  0.00     0.170 HD
ENDROOT
BRANCH   2   5
ATOM      5  C   UNL     1       2.438  44.118  53.472  1.00  0.00     0.128 A 
ATOM      6  C   UNL     1       1.754  44.959  54.365  1.00  0.00     0.038 A 
ATOM      7  N   UNL     1       1.793  43.038  52.950  1.00  0.00    -0.247 NA
ATOM      8  C   UNL     1       0.425  44.680  54.691  1.00  0.00     0.051 A 
ATOM      9  C   UNL     1       0.499  42.750  53.252  1.00  0.00     0.159 A 
ATOM     10  C   UNL     1      -0.223  43.581  54.123  1.00  0.00     0.145 A 
BRANCH  10  11
ATOM     11  O   UNL     1      -1.554  43.316  54.476  1.00  0.00    -0.456 OA
BRANCH  11  12
ATOM     12  C   UNL     1      -2.310  44.054  55.399  1.00  0.00     0.127 A 
ATOM     13  C   UNL     1      -3.038  45.160  54.944  1.00  0.00     0.047 A 
ATOM     14  C   UNL     1      -2.395  43.685  56.755  1.00  0.00     0.047 A 
ATOM     15  C   UNL     1      -3.817  45.908  55.832  1.00  0.00     0.004 A 
ATOM     16  C   UNL     1      -3.175  44.435  57.641  1.00  0.00     0.004 A 
ATOM     17  C   UNL     1      -3.882  45.549  57.181  1.00  0.00     0.000 A 
ENDBRANCH  11  12
ENDBRANCH  10  11
ENDBRANCH   2   5
BRANCH   3  18
ATOM     18  C   UNL     1       5.502  44.930  51.249  1.00  0.00     0.041 A 
ATOM     19  C   UNL     1       5.950  44.034  50.262  1.00  0.00     0.026 A 
ATOM     20  C   UNL     1       6.357  45.956  51.681  1.00  0.00     0.032 A 
ATOM     21  C   UNL     1       7.245  44.140  49.750  1.00  0.00     0.003 A 
ATOM     22  C   UNL     1       7.664  46.064  51.175  1.00  0.00    -0.024 A 
ATOM     23  C   UNL     1       8.100  45.145  50.205  1.00  0.00     0.006 A 
BRANCH  22  24
ATOM     24  C   UNL     1       8.572  47.177  51.650  1.00  0.00     0.113 C 
ATOM     25  C   UNL     1       9.967  46.651  52.080  1.00  0.00     0.040 C 
ATOM     26  N   UNL     1       8.011  47.825  52.821  1.00  0.00    -0.349 N 
ATOM     27  C   UNL     1      10.149  46.997  53.566  1.00  0.00     0.102 C 
ATOM     28  C   UNL     1       8.912  47.731  53.900  1.00  0.00     0.220 C 
ATOM     29  O   UNL     1       8.672  48.226  55.033  1.00  0.00    -0.275 OA
ATOM     30  H   UNL     1       7.089  48.316  52.852  1.00  0.00     0.164 HD
ENDBRANCH  22  24
ENDBRANCH   3  18
TORSDOF 5
ENDMDL
MODEL 2
REMARK VINA RESULT:    -9.492      1.581      1.863
REMARK INTER + INTRA:         -13.035
REMARK INTER:                 -12.109
REMARK INTRA:                  -0.927
REMARK UNBOUND:                -0.769
REMARK SMILES O=C1CC[C@@H](c2cccc(NC(=O)c3ccc(Oc4ccccc4)cn3)c2)N1
REMARK SMILES IDX 13 1 12 2 11 3 14 5 15 6 26 7 16 8 25 9 17 10 18 11 19 12
REMARK SMILES IDX 20 13 24 14 21 15 23 16 22 17 10 18 9 19 27 20 8 21 6 22
REMARK SMILES IDX 7 23 5 24 4 25 28 26 3 27 2 28 1 29
REMARK H PARENT 11 4 28 30
ROOT
ATOM      1  O   UNL     1       3.017  45.894  51.341  1.00  0.00    -0.267 OA
ATOM      2  C   UNL     1       3.201  45.173  52.359  1.00  0.00     0.274 C 
ATOM      3  N   UNL     1       4.425  44.431  52.505  1.00  0.00    -0.321 N 
ATOM      4  H   UNL     1       4.436  43.620  53.165  1.00  0.00     0.170 HD
ENDROOT
BRANCH   2   5
ATOM      5  C   UNL     1       2.132  45.057  53.376  1.00  0.00     0.128 A 
ATOM      6  C   UNL     1       0.778  45.001  53.004  1.00  0.00     0.038 A 
ATOM      7  N   UNL     1       2.459  45.006  54.696  1.00  0.00    -0.247 NA
ATOM      8  C   UNL     1      -0.203  44.885  53.990  1.00  0.00     0.051 A 
ATOM      9  C   UNL     1       1.520  44.889  55.674  1.00  0.00     0.159 A 
ATOM     10  C   UNL     1       0.160  44.809  55.338  1.00  0.00     0.145 A 
BRANCH  10  11
ATOM     11  O   UNL     1      -0.845  44.703  56.309  1.00  0.00    -0.456 OA
BRANCH  11  12
ATOM     12  C   UNL     1      -1.652  45.758  56.760  1.00  0.00     0.127 A 
ATOM     13  C   UNL     1      -1.058  46.801  57.482  1.00  0.00     0.047 A 
ATOM     14  C   UNL     1      -3.027  45.820  56.467  1.00  0.00     0.047 A 
ATOM     15  C   UNL     1      -1.827  47.878  57.932  1.00  0.00     0.004 A 
ATOM     16  C   UNL     1      -3.795  46.899  56.918  1.00  0.00     0.004 A 
ATOM     17  C   UNL     1      -3.196  47.925  57.654  1.00  0.00     0.000 A 
ENDBRANCH  11  12
ENDBRANCH  10  11
ENDBRANCH   2   5
BRANCH   3  18
ATOM     18  C   UNL     1       5.598  44.648  51.702  1.00  0.00     0.041 A 
ATOM     19  C   UNL     1       5.833  43.909  50.529  1.00  0.00     0.026 A 
ATOM     20  C   UNL     1       6.496  45.666  52.059  1.00  0.00     0.032 A 
ATOM     21  C   UNL     1       6.968  44.157  49.754  1.00  0.00     0.003 A 
ATOM     22  C   UNL     1       7.644  45.917  51.288  1.00  0.00    -0.024 A 
ATOM     23  C   UNL     1       7.871  45.152  50.131  1.00  0.00     0.006 A 
BRANCH  22  24
ATOM     24  C   UNL     1       8.601  47.019  51.686  1.00  0.00     0.113 C 
ATOM     25  C   UNL     1       9.965  46.463  52.174  1.00  0.00     0.040 C 
ATOM     26  N   UNL     1       8.060  47.783  52.795  1.00  0.00    -0.349 N 
ATOM     27  C   UNL     1      10.149  46.916  53.631  1.00  0.00     0.102 C 
ATOM     28  C   UNL     1       8.946  47.732  53.890  1.00  0.00     0.220 C 
ATOM     29  O   UNL     1       8.720  48.325  54.978  1.00  0.00    -0.275 OA
ATOM     30  H   UNL     1       7.164  48.318  52.776  1.00  0.00     0.164 HD
ENDBRANCH  22  24
ENDBRANCH   3  18
TORSDOF 5
ENDMDL
MODEL 3
REMARK VINA RESULT:    -8.670      2.308      9.560
REMARK INTER + INTRA:         -11.974
REMARK INTER:                 -11.145
REMARK INTRA:                  -0.828
REMARK UNBOUND:                -0.769
REMARK SMILES O=C1CC[C@@H](c2cccc(NC(=O)c3ccc(Oc4ccccc4)cn3)c2)N1
REMARK SMILES IDX 13 1 12 2 11 3 14 5 15 6 26 7 16 8 25 9 17 10 18 11 19 12
REMARK SMILES IDX 20 13 24 14 21 15 23 16 22 17 10 18 9 19 27 20 8 21 6 22
REMARK SMILES IDX 7 23 5 24 4 25 28 26 3 27 2 28 1 29
REMARK H PARENT 11 4 28 30
ROOT
ATOM      1  O   UNL     1       1.689  42.685  52.512  1.00  0.00    -0.267 OA
ATOM      2  C   UNL     1       1.831  43.858  52.070  1.00  0.00     0.274 C 
ATOM      3  N   UNL     1       0.687  44.721  51.935  1.00  0.00    -0.321 N 
ATOM      4  H   UNL     1       0.762  45.543  51.294  1.00  0.00     0.170 HD
ENDROOT
BRANCH   2   5
ATOM      5  C   UNL     1       3.171  44.323  51.646  1.00  0.00     0.128 A 
ATOM      6  C   UNL     1       3.377  45.640  51.202  1.00  0.00     0.038 A 
ATOM      7  N   UNL     1       4.225  43.462  51.681  1.00  0.00    -0.247 NA
ATOM      8  C   UNL     1       4.656  46.044  50.817  1.00  0.00     0.051 A 
ATOM      9  C   UNL     1       5.480  43.836  51.314  1.00  0.00     0.159 A 
ATOM     10  C   UNL     1       5.727  45.150  50.886  1.00  0.00     0.145 A 
BRANCH  10  11
ATOM     11  O   UNL     1       7.000  45.578  50.483  1.00  0.00    -0.456 OA
BRANCH  11  12
ATOM     12  C   UNL     1       7.986  46.104  51.331  1.00  0.00     0.127 A 
ATOM     13  C   UNL     1       7.608  47.029  52.311  1.00  0.00     0.047 A 
ATOM     14  C   UNL     1       9.329  45.693  51.253  1.00  0.00     0.047 A 
ATOM     15  C   UNL     1       8.560  47.562  53.186  1.00  0.00     0.004 A 
ATOM     16  C   UNL     1      10.280  46.227  52.130  1.00  0.00     0.004 A 
ATOM     17  C   UNL     1       9.896  47.165  53.092  1.00  0.00     0.000 A 
ENDBRANCH  11  12
ENDBRANCH  10  11
ENDBRANCH   2   5
BRANCH   3  18
ATOM     18  C   UNL     1      -0.598  44.449  52.520  1.00  0.00     0.041 A 
ATOM     19  C   UNL     1      -1.632  43.850  51.779  1.00  0.00     0.026 A 
ATOM     20  C   UNL     1      -0.806  44.728  53.881  1.00  0.00     0.032 A 
ATOM     21  C   UNL     1      -2.863  43.575  52.378  1.00  0.00     0.003 A 
ATOM     22  C   UNL     1      -2.044  44.460  54.489  1.00  0.00    -0.024 A 
ATOM     23  C   UNL     1      -3.071  43.880  53.725  1.00  0.00     0.006 A 
BRANCH  22  24
ATOM     24  C   UNL     1      -2.251  44.764  55.957  1.00  0.00     0.113 C 
ATOM     25  C   UNL     1      -2.852  46.176  56.183  1.00  0.00     0.040 C 
ATOM     26  N   UNL     1      -0.981  44.752  56.660  1.00  0.00    -0.349 N 
ATOM     27  C   UNL     1      -1.838  46.977  57.016  1.00  0.00     0.102 C 
ATOM     28  C   UNL     1      -0.758  46.003  57.268  1.00  0.00     0.220 C 
ATOM     29  O   UNL     1       0.269  46.253  57.954  1.00  0.00    -0.275 OA
ATOM     30  H   UNL     1      -0.342  43.929  56.733  1.00  0.00     0.164 HD
ENDBRANCH  22  24
ENDBRANCH   3  18
TORSDOF 5
ENDMDL
MODEL 4
REMARK VINA RESULT:    -8.486      2.340     10.045
REMARK INTER + INTRA:         -11.735
REMARK INTER:                 -10.804
REMARK INTRA:                  -0.930
REMARK UNBOUND:                -0.769
REMARK SMILES O=C1CC[C@@H](c2cccc(NC(=O)c3ccc(Oc4ccccc4)cn3)c2)N1
REMARK SMILES IDX 13 1 12 2 11 3 14 5 15 6 26 7 16 8 25 9 17 10 18 11 19 12
REMARK SMILES IDX 20 13 24 14 21 15 23 16 22 17 10 18 9 19 27 20 8 21 6 22
REMARK SMILES IDX 7 23 5 24 4 25 28 26 3 27 2 28 1 29
REMARK H PARENT 11 4 28 30
ROOT
ATOM      1  O   UNL     1       1.665  43.592  53.584  1.00  0.00    -0.267 OA
ATOM      2  C   UNL     1       1.654  44.796  53.210  1.00  0.00     0.274 C 
ATOM      3  N   UNL     1       0.448  45.374  52.679  1.00  0.00    -0.321 N 
ATOM      4  H   UNL     1       0.529  46.239  52.097  1.00  0.00     0.170 HD
ENDROOT
BRANCH   2   5
ATOM      5  C   UNL     1       2.899  45.594  53.273  1.00  0.00     0.128 A 
ATOM      6  C   UNL     1       4.138  44.987  53.537  1.00  0.00     0.038 A 
ATOM      7  N   UNL     1       2.848  46.940  53.077  1.00  0.00    -0.247 NA
ATOM      8  C   UNL     1       5.293  45.770  53.582  1.00  0.00     0.051 A 
ATOM      9  C   UNL     1       3.961  47.721  53.113  1.00  0.00     0.159 A 
ATOM     10  C   UNL     1       5.218  47.146  53.352  1.00  0.00     0.145 A 
BRANCH  10  11
ATOM     11  O   UNL     1       6.391  47.912  53.414  1.00  0.00    -0.456 OA
BRANCH  11  12
ATOM     12  C   UNL     1       7.687  47.434  53.166  1.00  0.00     0.127 A 
ATOM     13  C   UNL     1       8.076  47.198  51.842  1.00  0.00     0.047 A 
ATOM     14  C   UNL     1       8.616  47.233  54.203  1.00  0.00     0.047 A 
ATOM     15  C   UNL     1       9.365  46.739  51.554  1.00  0.00     0.004 A 
ATOM     16  C   UNL     1       9.905  46.773  53.913  1.00  0.00     0.004 A 
ATOM     17  C   UNL     1      10.278  46.522  52.590  1.00  0.00     0.000 A 
ENDBRANCH  11  12
ENDBRANCH  10  11
ENDBRANCH   2   5
BRANCH   3  18
ATOM     18  C   UNL     1      -0.850  44.764  52.784  1.00  0.00     0.041 A 
ATOM     19  C   UNL     1      -1.345  43.911  51.781  1.00  0.00     0.026 A 
ATOM     20  C   UNL     1      -1.614  44.971  53.944  1.00  0.00     0.032 A 
ATOM     21  C   UNL     1      -2.599  43.313  51.920  1.00  0.00     0.003 A 
ATOM     22  C   UNL     1      -2.880  44.377  54.087  1.00  0.00    -0.024 A 
ATOM     23  C   UNL     1      -3.366  43.545  53.063  1.00  0.00     0.006 A 
BRANCH  22  24
ATOM     24  C   UNL     1      -3.690  44.609  55.344  1.00  0.00     0.113 C 
ATOM     25  C   UNL     1      -3.256  45.897  56.091  1.00  0.00     0.040 C 
ATOM     26  N   UNL     1      -3.495  43.517  56.280  1.00  0.00    -0.349 N 
ATOM     27  C   UNL     1      -2.764  45.474  57.485  1.00  0.00     0.102 C 
ATOM     28  C   UNL     1      -2.982  44.014  57.495  1.00  0.00     0.220 C 
ATOM     29  O   UNL     1      -2.735  43.273  58.483  1.00  0.00    -0.275 OA
ATOM     30  H   UNL     1      -3.728  42.516  56.095  1.00  0.00     0.164 HD
ENDBRANCH  22  24
ENDBRANCH   3  18
TORSDOF 5
ENDMDL
MODEL 5
REMARK VINA RESULT:    -8.257      5.242      9.252
REMARK INTER + INTRA:         -11.439
REMARK INTER:                 -10.640
REMARK INTRA:                  -0.799
REMARK UNBOUND:                -0.769
REMARK SMILES O=C1CC[C@@H](c2cccc(NC(=O)c3ccc(Oc4ccccc4)cn3)c2)N1
REMARK SMILES IDX 13 1 12 2 11 3 14 5 15 6 26 7 16 8 25 9 17 10 18 11 19 12
REMARK SMILES IDX 20 13 24 14 21 15 23 16 22 17 10 18 9 19 27 20 8 21 6 22
REMARK SMILES IDX 7 23 5 24 4 25 28 26 3 27 2 28 1 29
REMARK H PARENT 11 4 28 30
ROOT
ATOM      1  O   UNL     1       6.459  41.719  50.452  1.00  0.00    -0.267 OA
ATOM      2  C   UNL     1       5.512  42.256  49.815  1.00  0.00     0.274 C 
ATOM      3  N   UNL     1       4.795  43.365  50.389  1.00  0.00    -0.321 N 
ATOM      4  H   UNL     1       3.846  43.587  50.011  1.00  0.00     0.170 HD
ENDROOT
BRANCH   2   5
ATOM      5  C   UNL     1       5.112  41.709  48.500  1.00  0.00     0.128 A 
ATOM      6  C   UNL     1       5.769  42.097  47.321  1.00  0.00     0.038 A 
ATOM      7  N   UNL     1       4.087  40.815  48.425  1.00  0.00    -0.247 NA
ATOM      8  C   UNL     1       5.369  41.553  46.098  1.00  0.00     0.051 A 
ATOM      9  C   UNL     1       3.684  40.271  47.245  1.00  0.00     0.159 A 
ATOM     10  C   UNL     1       4.332  40.619  46.050  1.00  0.00     0.145 A 
BRANCH  10  11
ATOM     11  O   UNL     1       3.942  40.096  44.809  1.00  0.00    -0.456 OA
BRANCH  11  12
ATOM     12  C   UNL     1       4.722  39.256  44.001  1.00  0.00     0.127 A 
ATOM     13  C   UNL     1       4.508  37.873  44.062  1.00  0.00     0.047 A 
ATOM     14  C   UNL     1       5.675  39.765  43.100  1.00  0.00     0.047 A 
ATOM     15  C   UNL     1       5.254  37.006  43.258  1.00  0.00     0.004 A 
ATOM     16  C   UNL     1       6.420  38.896  42.296  1.00  0.00     0.004 A 
ATOM     17  C   UNL     1       6.212  37.516  42.379  1.00  0.00     0.000 A 
ENDBRANCH  11  12
ENDBRANCH  10  11
ENDBRANCH   2   5
BRANCH   3  18
ATOM     18  C   UNL     1       5.243  44.103  51.539  1.00  0.00     0.041 A 
ATOM     19  C   UNL     1       4.745  43.833  52.825  1.00  0.00     0.026 A 
ATOM     20  C   UNL     1       6.247  45.072  51.383  1.00  0.00     0.032 A 
ATOM     21  C   UNL     1       5.214  44.549  53.928  1.00  0.00     0.003 A 
ATOM     22  C   UNL     1       6.719  45.801  52.488  1.00  0.00    -0.024 A 
ATOM     23  C   UNL     1       6.194  45.530  53.763  1.00  0.00     0.006 A 
BRANCH  22  24
ATOM     24  C   UNL     1       7.804  46.840  52.304  1.00  0.00     0.113 C 
ATOM     25  C   UNL     1       9.047  46.267  51.575  1.00  0.00     0.040 C 
ATOM     26  N   UNL     1       8.278  47.311  53.593  1.00  0.00    -0.349 N 
ATOM     27  C   UNL     1      10.242  46.398  52.533  1.00  0.00     0.102 C 
ATOM     28  C   UNL     1       9.661  47.070  53.713  1.00  0.00     0.220 C 
ATOM     29  O   UNL     1      10.323  47.396  54.733  1.00  0.00    -0.275 OA
ATOM     30  H   UNL     1       7.689  47.787  54.313  1.00  0.00     0.164 HD
ENDBRANCH  22  24
ENDBRANCH   3  18
TORSDOF 5
ENDMDL
