MODEL 1
REMARK VINA RESULT:    -9.151      0.000      0.000
REMARK INTER + INTRA:         -11.505
REMARK INTER:                 -11.290
REMARK INTRA:                  -0.214
REMARK UNBOUND:                -0.214
REMARK SMILES Cc1ccc(C)c(S(=O)(=O)Nc2ccc(-c3cnc(C)o3)cc2)c1
REMARK SMILES IDX 11 1 12 3 15 4 14 5 22 6 13 7 23 8 16 9 19 10 18 11 21 12
REMARK SMILES IDX 17 13 20 14 8 15 9 16 10 17 7 18 24 19 5 20 2 21 4 22 3 23
REMARK SMILES IDX 6 24 1 25
REMARK H PARENT 11 2
ROOT
ATOM      1  N   UNL     1       5.435  43.809  52.136  1.00  0.00    -0.280 N 
ATOM      2  H   UNL     1       5.787  43.423  53.042  1.00  0.00     0.180 HD
ENDROOT
BRANCH   1   3
ATOM      3  C   UNL     1       4.989  42.900  51.115  1.00  0.00     0.049 A 
ATOM      4  C   UNL     1       4.057  41.123  49.128  1.00  0.00     0.019 A 
ATOM      5  C   UNL     1       3.188  41.600  50.124  1.00  0.00     0.014 A 
ATOM      6  C   UNL     1       5.394  41.550  49.132  1.00  0.00     0.014 A 
ATOM      7  C   UNL     1       3.651  42.484  51.103  1.00  0.00     0.027 A 
ATOM      8  C   UNL     1       5.856  42.429  50.112  1.00  0.00     0.027 A 
BRANCH   4   9
ATOM      9  C   UNL     1       3.591  40.195  48.072  1.00  0.00     0.154 A 
ATOM     10  C   UNL     1       2.730  38.512  47.142  1.00  0.00     0.191 A 
ATOM     11  N   UNL     1       3.152  39.265  46.105  1.00  0.00    -0.222 NA
ATOM     12  O   UNL     1       2.983  39.060  48.307  1.00  0.00    -0.441 OA
ATOM     13  C   UNL     1       3.705  40.336  46.702  1.00  0.00     0.162 A 
ATOM     14  C   UNL     1       2.014  37.215  46.978  1.00  0.00     0.111 C 
ENDBRANCH   4   9
ENDBRANCH   1   3
BRANCH   1  15
ATOM     15  S   UNL     1       5.574  45.524  51.901  1.00  0.00     0.262 S 
ATOM     16  O   UNL     1       4.664  46.225  52.870  1.00  0.00    -0.201 OA
ATOM     17  O   UNL     1       5.171  45.893  50.501  1.00  0.00    -0.201 OA
BRANCH  15  18
ATOM     18  C   UNL     1       7.254  46.018  52.168  1.00  0.00     0.090 A 
ATOM     19  C   UNL     1       7.578  46.713  53.343  1.00  0.00     0.026 A 
ATOM     20  C   UNL     1       8.273  45.728  51.226  1.00  0.00    -0.031 A 
ATOM     21  C   UNL     1       8.893  47.123  53.597  1.00  0.00    -0.050 A 
ATOM     22  C   UNL     1       9.582  46.165  51.479  1.00  0.00     0.005 A 
ATOM     23  C   UNL     1       9.890  46.858  52.652  1.00  0.00     0.004 A 
ATOM     24  C   UNL     1       7.987  44.984  49.947  1.00  0.00     0.046 C 
ATOM     25  C   UNL     1       9.215  47.914  54.830  1.00  0.00     0.044 C 
ENDBRANCH  15  18
ENDBRANCH   1  15
TORSDOF 4
ENDMDL
MODEL 2
REMARK VINA RESULT:    -8.943      3.794      4.306
REMARK INTER + INTRA:         -11.248
REMARK INTER:                 -11.058
REMARK INTRA:                  -0.190
REMARK UNBOUND:                -0.214
REMARK SMILES Cc1ccc(C)c(S(=O)(=O)Nc2ccc(-c3cnc(C)o3)cc2)c1
REMARK SMILES IDX 11 1 12 3 15 4 14 5 22 6 13 7 23 8 16 9 19 10 18 11 21 12
REMARK SMILES IDX 17 13 20 14 8 15 9 16 10 17 7 18 24 19 5 20 2 21 4 22 3 23
REMARK SMILES IDX 6 24 1 25
REMARK H PARENT 11 2
ROOT
ATOM      1  N   UNL     1       5.200  45.048  53.849  1.00  0.00    -0.280 N 
ATOM      2  H   UNL     1       5.884  44.388  54.284  1.00  0.00     0.180 HD
ENDROOT
BRANCH   1   3
ATOM      3  C   UNL     1       3.930  44.544  53.400  1.00  0.00     0.049 A 
ATOM      4  C   UNL     1       1.408  43.598  52.552  1.00  0.00     0.019 A 
ATOM      5  C   UNL     1       1.503  44.560  53.572  1.00  0.00     0.014 A 
ATOM      6  C   UNL     1       2.586  43.120  51.957  1.00  0.00     0.014 A 
ATOM      7  C   UNL     1       2.753  45.031  53.986  1.00  0.00     0.027 A 
ATOM      8  C   UNL     1       3.833  43.588  52.374  1.00  0.00     0.027 A 
BRANCH   4   9
ATOM      9  C   UNL     1       0.097  43.089  52.086  1.00  0.00     0.154 A 
ATOM     10  C   UNL     1      -1.601  42.781  50.878  1.00  0.00     0.191 A 
ATOM     11  N   UNL     1      -1.843  42.018  51.965  1.00  0.00    -0.222 NA
ATOM     12  O   UNL     1      -0.453  43.412  50.943  1.00  0.00    -0.441 OA
ATOM     13  C   UNL     1      -0.759  42.220  52.735  1.00  0.00     0.162 A 
ATOM     14  C   UNL     1      -2.523  42.863  49.710  1.00  0.00     0.111 C 
ENDBRANCH   4   9
ENDBRANCH   1   3
BRANCH   1  15
ATOM     15  S   UNL     1       5.740  46.675  53.571  1.00  0.00     0.262 S 
ATOM     16  O   UNL     1       5.348  47.528  54.745  1.00  0.00    -0.201 OA
ATOM     17  O   UNL     1       5.100  47.232  52.330  1.00  0.00    -0.201 OA
BRANCH  15  18
ATOM     18  C   UNL     1       7.499  46.681  53.367  1.00  0.00     0.090 A 
ATOM     19  C   UNL     1       8.305  47.081  54.444  1.00  0.00     0.026 A 
ATOM     20  C   UNL     1       8.108  46.295  52.147  1.00  0.00    -0.031 A 
ATOM     21  C   UNL     1       9.701  47.101  54.330  1.00  0.00    -0.050 A 
ATOM     22  C   UNL     1       9.506  46.342  52.035  1.00  0.00     0.005 A 
ATOM     23  C   UNL     1      10.296  46.744  53.115  1.00  0.00     0.004 A 
ATOM     24  C   UNL     1       7.296  45.854  50.956  1.00  0.00     0.046 C 
ATOM     25  C   UNL     1      10.548  47.584  55.469  1.00  0.00     0.044 C 
ENDBRANCH  15  18
ENDBRANCH   1  15
TORSDOF 4
ENDMDL
MODEL 3
REMARK VINA RESULT:    -8.890      4.855      6.408
REMARK INTER + INTRA:         -11.184
REMARK INTER:                 -10.914
REMARK INTRA:                  -0.269
REMARK UNBOUND:                -0.214
REMARK SMILES Cc1ccc(C)c(S(=O)(=O)Nc2ccc(-c3cnc(C)o3)cc2)c1
REMARK SMILES IDX 11 1 12 3 15 4 14 5 22 6 13 7 23 8 16 9 19 10 18 11 21 12
REMARK SMILES IDX 17 13 20 14 8 15 9 16 10 17 7 18 24 19 5 20 2 21 4 22 3 23
REMARK SMILES IDX 6 24 1 25
REMARK H PARENT 11 2
ROOT
ATOM      1  N   UNL     1       4.609  46.473  53.218  1.00  0.00    -0.280 N 
ATOM      2  H   UNL     1       5.029  47.317  53.672  1.00  0.00     0.180 HD
ENDROOT
BRANCH   1   3
ATOM      3  C   UNL     1       3.351  45.972  53.702  1.00  0.00     0.049 A 
ATOM      4  C   UNL     1       0.858  44.992  54.596  1.00  0.00     0.019 A 
ATOM      5  C   UNL     1       0.987  45.551  53.313  1.00  0.00     0.014 A 
ATOM      6  C   UNL     1       1.990  44.921  55.422  1.00  0.00     0.014 A 
ATOM      7  C   UNL     1       2.224  46.030  52.871  1.00  0.00     0.027 A 
ATOM      8  C   UNL     1       3.223  45.403  54.981  1.00  0.00     0.027 A 
BRANCH   4   9
ATOM      9  C   UNL     1      -0.437  44.467  55.086  1.00  0.00     0.154 A 
ATOM     10  C   UNL     1      -2.022  43.981  56.387  1.00  0.00     0.191 A 
ATOM     11  N   UNL     1      -2.433  43.502  55.194  1.00  0.00    -0.222 NA
ATOM     12  O   UNL     1      -0.844  44.557  56.327  1.00  0.00    -0.441 OA
ATOM     13  C   UNL     1      -1.418  43.810  54.367  1.00  0.00     0.162 A 
ATOM     14  C   UNL     1      -2.839  43.901  57.631  1.00  0.00     0.111 C 
ENDBRANCH   4   9
ENDBRANCH   1   3
BRANCH   1  15
ATOM     15  S   UNL     1       5.566  45.667  52.014  1.00  0.00     0.262 S 
ATOM     16  O   UNL     1       5.096  46.091  50.651  1.00  0.00    -0.201 OA
ATOM     17  O   UNL     1       5.414  44.177  52.140  1.00  0.00    -0.201 OA
BRANCH  15  18
ATOM     18  C   UNL     1       7.270  46.095  52.237  1.00  0.00     0.090 A 
ATOM     19  C   UNL     1       7.651  46.777  53.403  1.00  0.00     0.026 A 
ATOM     20  C   UNL     1       8.253  45.766  51.269  1.00  0.00    -0.031 A 
ATOM     21  C   UNL     1       8.988  47.135  53.623  1.00  0.00    -0.050 A 
ATOM     22  C   UNL     1       9.584  46.152  51.489  1.00  0.00     0.005 A 
ATOM     23  C   UNL     1       9.948  46.832  52.653  1.00  0.00     0.004 A 
ATOM     24  C   UNL     1       7.905  45.034  49.999  1.00  0.00     0.046 C 
ATOM     25  C   UNL     1       9.372  47.913  54.846  1.00  0.00     0.044 C 
ENDBRANCH  15  18
ENDBRANCH   1  15
TORSDOF 4
ENDMDL
MODEL 4
REMARK VINA RESULT:    -8.740      4.415      5.680
REMARK INTER + INTRA:         -10.998
REMARK INTER:                 -11.158
REMARK INTRA:                   0.160
REMARK UNBOUND:                -0.214
REMARK SMILES Cc1ccc(C)c(S(=O)(=O)Nc2ccc(-c3cnc(C)o3)cc2)c1
REMARK SMILES IDX 11 1 12 3 15 4 14 5 22 6 13 7 23 8 16 9 19 10 18 11 21 12
REMARK SMILES IDX 17 13 20 14 8 15 9 16 10 17 7 18 24 19 5 20 2 21 4 22 3 23
REMARK SMILES IDX 6 24 1 25
REMARK H PARENT 11 2
ROOT
ATOM      1  N   UNL     1       6.063  45.399  54.617  1.00  0.00    -0.280 N 
ATOM      2  H   UNL     1       6.692  44.769  55.166  1.00  0.00     0.180 HD
ENDROOT
BRANCH   1   3
ATOM      3  C   UNL     1       4.702  44.999  54.383  1.00  0.00     0.049 A 
ATOM      4  C   UNL     1       2.048  44.175  53.880  1.00  0.00     0.019 A 
ATOM      5  C   UNL     1       3.088  43.807  53.009  1.00  0.00     0.014 A 
ATOM      6  C   UNL     1       2.352  44.953  55.009  1.00  0.00     0.014 A 
ATOM      7  C   UNL     1       4.401  44.211  53.263  1.00  0.00     0.027 A 
ATOM      8  C   UNL     1       3.663  45.359  55.260  1.00  0.00     0.027 A 
BRANCH   4   9
ATOM      9  C   UNL     1       0.649  43.752  53.641  1.00  0.00     0.154 A 
ATOM     10  C   UNL     1      -1.458  43.749  53.657  1.00  0.00     0.191 A 
ATOM     11  N   UNL     1      -1.144  42.616  52.994  1.00  0.00    -0.222 NA
ATOM     12  O   UNL     1      -0.400  44.427  54.037  1.00  0.00    -0.441 OA
ATOM     13  C   UNL     1       0.201  42.619  52.990  1.00  0.00     0.162 A 
ATOM     14  C   UNL     1      -2.858  44.203  53.893  1.00  0.00     0.111 C 
ENDBRANCH   4   9
ENDBRANCH   1   3
BRANCH   1  15
ATOM     15  S   UNL     1       6.786  46.809  53.906  1.00  0.00     0.262 S 
ATOM     16  O   UNL     1       7.412  47.638  54.991  1.00  0.00    -0.201 OA
ATOM     17  O   UNL     1       5.741  47.633  53.205  1.00  0.00    -0.201 OA
BRANCH  15  18
ATOM     18  C   UNL     1       8.012  46.309  52.729  1.00  0.00     0.090 A 
ATOM     19  C   UNL     1       7.602  45.639  51.566  1.00  0.00     0.026 A 
ATOM     20  C   UNL     1       9.390  46.569  52.935  1.00  0.00    -0.031 A 
ATOM     21  C   UNL     1       8.537  45.225  50.607  1.00  0.00    -0.050 A 
ATOM     22  C   UNL     1      10.319  46.129  51.980  1.00  0.00     0.005 A 
ATOM     23  C   UNL     1       9.898  45.461  50.828  1.00  0.00     0.004 A 
ATOM     24  C   UNL     1       9.891  47.286  54.162  1.00  0.00     0.046 C 
ATOM     25  C   UNL     1       8.091  44.460  49.397  1.00  0.00     0.044 C 
ENDBRANCH  15  18
ENDBRANCH   1  15
TORSDOF 4
ENDMDL
MODEL 5
REMARK VINA RESULT:    -8.447      4.203      6.236
REMARK INTER + INTRA:         -10.637
REMARK INTER:                 -10.351
REMARK INTRA:                  -0.286
REMARK UNBOUND:                -0.214
REMARK SMILES Cc1ccc(C)c(S(=O)(=O)Nc2ccc(-c3cnc(C)o3)cc2)c1
REMARK SMILES IDX 11 1 12 3 15 4 14 5 22 6 13 7 23 8 16 9 19 10 18 11 21 12
REMARK SMILES IDX 17 13 20 14 8 15 9 16 10 17 7 18 24 19 5 20 2 21 4 22 3 23
REMARK SMILES IDX 6 24 1 25
REMARK H PARENT 11 2
ROOT
ATOM      1  N   UNL     1       4.940  44.347  52.880  1.00  0.00    -0.280 N 
ATOM      2  H   UNL     1       5.599  43.558  53.073  1.00  0.00     0.180 HD
ENDROOT
BRANCH   1   3
ATOM      3  C   UNL     1       3.573  44.237  53.313  1.00  0.00     0.049 A 
ATOM      4  C   UNL     1       0.897  44.068  54.200  1.00  0.00     0.019 A 
ATOM      5  C   UNL     1       1.824  44.880  54.877  1.00  0.00     0.014 A 
ATOM      6  C   UNL     1       1.321  43.349  53.072  1.00  0.00     0.014 A 
ATOM      7  C   UNL     1       3.146  44.966  54.432  1.00  0.00     0.027 A 
ATOM      8  C   UNL     1       2.642  43.433  52.631  1.00  0.00     0.027 A 
BRANCH   4   9
ATOM      9  C   UNL     1      -0.513  43.966  54.643  1.00  0.00     0.154 A 
ATOM     10  C   UNL     1      -2.209  43.955  55.892  1.00  0.00     0.191 A 
ATOM     11  N   UNL     1      -2.715  43.693  54.669  1.00  0.00    -0.222 NA
ATOM     12  O   UNL     1      -0.907  44.122  55.881  1.00  0.00    -0.441 OA
ATOM     13  C   UNL     1      -1.630  43.696  53.875  1.00  0.00     0.162 A 
ATOM     14  C   UNL     1      -3.047  44.083  57.118  1.00  0.00     0.111 C 
ENDBRANCH   4   9
ENDBRANCH   1   3
BRANCH   1  15
ATOM     15  S   UNL     1       5.538  45.656  51.909  1.00  0.00     0.262 S 
ATOM     16  O   UNL     1       4.533  46.773  51.921  1.00  0.00    -0.201 OA
ATOM     17  O   UNL     1       5.743  45.201  50.491  1.00  0.00    -0.201 OA
BRANCH  15  18
ATOM     18  C   UNL     1       7.086  46.214  52.566  1.00  0.00     0.090 A 
ATOM     19  C   UNL     1       8.251  46.031  51.805  1.00  0.00     0.026 A 
ATOM     20  C   UNL     1       7.173  46.837  53.836  1.00  0.00    -0.031 A 
ATOM     21  C   UNL     1       9.497  46.457  52.284  1.00  0.00    -0.050 A 
ATOM     22  C   UNL     1       8.430  47.237  54.316  1.00  0.00     0.005 A 
ATOM     23  C   UNL     1       9.581  47.047  53.549  1.00  0.00     0.004 A 
ATOM     24  C   UNL     1       5.958  47.062  54.698  1.00  0.00     0.046 C 
ATOM     25  C   UNL     1      10.741  46.204  51.486  1.00  0.00     0.044 C 
ENDBRANCH  15  18
ENDBRANCH   1  15
TORSDOF 4
ENDMDL
