MODEL 1
REMARK VINA RESULT:   -12.370      0.000      0.000
REMARK INTER + INTRA:         -13.312
REMARK INTER:                 -13.817
REMARK INTRA:                   0.504
REMARK UNBOUND:                 0.504
REMARK SMILES CN1C(=O)c2cccc3c(S(=O)(=O)N4Cc5ccccc5-c5ccccc5C4)ccc1c23
REMARK SMILES IDX 1 1 2 2 3 3 4 4 5 5 6 6 7 7 8 8 9 9 10 10 29 11 30 12 31 13
REMARK SMILES IDX 32 14 11 15 12 16 13 17 14 18 15 19 28 20 16 21 27 22 17 23
REMARK SMILES IDX 21 24 26 25 22 26 18 27 20 28 25 29 23 30 19 31 24 32
REMARK H PARENT
ROOT
ATOM      1  C   UNL     1      -1.705  42.698  51.767  1.00  0.00     0.153 C 
ATOM      2  N   UNL     1      -1.211  43.615  52.786  1.00  0.00    -0.311 N 
ATOM      3  C   UNL     1      -1.797  43.824  54.082  1.00  0.00     0.258 C 
ATOM      4  O   UNL     1      -2.984  43.532  54.383  1.00  0.00    -0.269 OA
ATOM      5  C   UNL     1      -0.797  44.380  54.989  1.00  0.00     0.050 A 
ATOM      6  C   UNL     1      -0.813  44.772  56.326  1.00  0.00     0.014 A 
ATOM      7  C   UNL     1       0.395  45.246  56.884  1.00  0.00     0.002 A 
ATOM      8  C   UNL     1       1.581  45.309  56.108  1.00  0.00     0.010 A 
ATOM      9  C   UNL     1       1.562  44.910  54.749  1.00  0.00     0.005 A 
ATOM     10  C   UNL     1       2.658  44.934  53.846  1.00  0.00     0.090 A 
ATOM     11  C   UNL     1       2.472  44.460  52.516  1.00  0.00     0.024 A 
ATOM     12  C   UNL     1       1.215  43.987  52.076  1.00  0.00     0.028 A 
ATOM     13  C   UNL     1       0.153  44.010  52.980  1.00  0.00     0.052 A 
ATOM     14  C   UNL     1       0.349  44.455  54.255  1.00  0.00     0.020 A 
ENDROOT
BRANCH  10  15
ATOM     15  S   UNL     1       4.217  45.626  54.312  1.00  0.00     0.244 S 
ATOM     16  O   UNL     1       4.036  47.092  54.591  1.00  0.00    -0.207 OA
ATOM     17  O   UNL     1       4.742  44.950  55.550  1.00  0.00    -0.207 OA
BRANCH  15  18
ATOM     18  N   UNL     1       5.347  45.398  53.002  1.00  0.00    -0.189 NA
ATOM     19  C   UNL     1       5.440  46.592  52.152  1.00  0.00     0.139 C 
ATOM     20  C   UNL     1       5.023  44.191  52.236  1.00  0.00     0.139 C 
ATOM     21  C   UNL     1       6.898  46.824  51.978  1.00  0.00    -0.025 A 
ATOM     22  C   UNL     1       5.929  43.919  51.037  1.00  0.00    -0.025 A 
ATOM     23  C   UNL     1       7.496  47.941  52.586  1.00  0.00     0.006 A 
ATOM     24  C   UNL     1       7.702  45.800  51.424  1.00  0.00    -0.014 A 
ATOM     25  C   UNL     1       5.518  42.832  50.238  1.00  0.00     0.006 A 
ATOM     26  C   UNL     1       7.119  44.636  50.668  1.00  0.00    -0.014 A 
ATOM     27  C   UNL     1       8.884  48.049  52.657  1.00  0.00     0.000 A 
ATOM     28  C   UNL     1       9.105  45.921  51.534  1.00  0.00     0.009 A 
ATOM     29  C   UNL     1       6.219  42.466  49.092  1.00  0.00     0.000 A 
ATOM     30  C   UNL     1       7.787  44.253  49.482  1.00  0.00     0.009 A 
ATOM     31  C   UNL     1       9.686  47.035  52.142  1.00  0.00     0.001 A 
ATOM     32  C   UNL     1       7.345  43.181  48.711  1.00  0.00     0.001 A 
ENDBRANCH  15  18
ENDBRANCH  10  15
TORSDOF 2
ENDMDL
MODEL 2
REMARK VINA RESULT:   -12.231      2.275      3.337
REMARK INTER + INTRA:         -13.157
REMARK INTER:                 -12.487
REMARK INTRA:                  -0.670
REMARK UNBOUND:                 0.504
REMARK SMILES CN1C(=O)c2cccc3c(S(=O)(=O)N4Cc5ccccc5-c5ccccc5C4)ccc1c23
REMARK SMILES IDX 1 1 2 2 3 3 4 4 5 5 6 6 7 7 8 8 9 9 10 10 29 11 30 12 31 13
REMARK SMILES IDX 32 14 11 15 12 16 13 17 14 18 15 19 28 20 16 21 27 22 17 23
REMARK SMILES IDX 21 24 26 25 22 26 18 27 20 28 25 29 23 30 19 31 24 32
REMARK H PARENT
ROOT
ATOM      1  C   UNL     1       0.873  46.798  58.326  1.00  0.00     0.153 C 
ATOM      2  N   UNL     1       0.316  45.844  57.377  1.00  0.00    -0.311 N 
ATOM      3  C   UNL     1      -1.082  45.600  57.153  1.00  0.00     0.258 C 
ATOM      4  O   UNL     1      -1.996  45.895  57.968  1.00  0.00    -0.269 OA
ATOM      5  C   UNL     1      -1.273  45.005  55.834  1.00  0.00     0.050 A 
ATOM      6  C   UNL     1      -2.387  44.570  55.119  1.00  0.00     0.014 A 
ATOM      7  C   UNL     1      -2.174  44.067  53.817  1.00  0.00     0.002 A 
ATOM      8  C   UNL     1      -0.870  44.016  53.259  1.00  0.00     0.010 A 
ATOM      9  C   UNL     1       0.242  44.458  54.016  1.00  0.00     0.005 A 
ATOM     10  C   UNL     1       1.602  44.451  53.602  1.00  0.00     0.090 A 
ATOM     11  C   UNL     1       2.596  44.969  54.480  1.00  0.00     0.024 A 
ATOM     12  C   UNL     1       2.258  45.469  55.758  1.00  0.00     0.028 A 
ATOM     13  C   UNL     1       0.918  45.429  56.143  1.00  0.00     0.052 A 
ATOM     14  C   UNL     1      -0.026  44.941  55.287  1.00  0.00     0.020 A 
ENDROOT
BRANCH  10  15
ATOM     15  S   UNL     1       2.090  43.728  52.064  1.00  0.00     0.244 S 
ATOM     16  O   UNL     1       2.060  42.232  52.197  1.00  0.00    -0.207 OA
ATOM     17  O   UNL     1       1.148  44.145  50.967  1.00  0.00    -0.207 OA
BRANCH  15  18
ATOM     18  N   UNL     1       3.705  44.266  51.679  1.00  0.00    -0.189 NA
ATOM     19  C   UNL     1       3.710  45.644  51.170  1.00  0.00     0.139 C 
ATOM     20  C   UNL     1       4.365  43.331  50.766  1.00  0.00     0.139 C 
ATOM     21  C   UNL     1       4.791  46.327  51.928  1.00  0.00    -0.025 A 
ATOM     22  C   UNL     1       5.774  43.729  50.331  1.00  0.00    -0.025 A 
ATOM     23  C   UNL     1       4.454  47.312  52.874  1.00  0.00     0.006 A 
ATOM     24  C   UNL     1       6.108  45.812  51.876  1.00  0.00    -0.014 A 
ATOM     25  C   UNL     1       6.336  42.888  49.350  1.00  0.00     0.006 A 
ATOM     26  C   UNL     1       6.551  44.837  50.819  1.00  0.00    -0.014 A 
ATOM     27  C   UNL     1       5.409  47.785  53.772  1.00  0.00     0.000 A 
ATOM     28  C   UNL     1       7.047  46.288  52.817  1.00  0.00     0.009 A 
ATOM     29  C   UNL     1       7.604  43.126  48.827  1.00  0.00     0.000 A 
ATOM     30  C   UNL     1       7.822  45.063  50.242  1.00  0.00     0.009 A 
ATOM     31  C   UNL     1       6.700  47.265  53.751  1.00  0.00     0.001 A 
ATOM     32  C   UNL     1       8.341  44.217  49.266  1.00  0.00     0.001 A 
ENDBRANCH  15  18
ENDBRANCH  10  15
TORSDOF 2
ENDMDL
MODEL 3
REMARK VINA RESULT:   -12.200      2.232      7.499
REMARK INTER + INTRA:         -13.122
REMARK INTER:                 -11.791
REMARK INTRA:                  -1.332
REMARK UNBOUND:                 0.504
REMARK SMILES CN1C(=O)c2cccc3c(S(=O)(=O)N4Cc5ccccc5-c5ccccc5C4)ccc1c23
REMARK SMILES IDX 1 1 2 2 3 3 4 4 5 5 6 6 7 7 8 8 9 9 10 10 29 11 30 12 31 13
REMARK SMILES IDX 32 14 11 15 12 16 13 17 14 18 15 19 28 20 16 21 27 22 17 23
REMARK SMILES IDX 21 24 26 25 22 26 18 27 20 28 25 29 23 30 19 31 24 32
REMARK H PARENT
ROOT
ATOM      1  C   UNL     1       8.331  44.136  48.651  1.00  0.00     0.153 C 
ATOM      2  N   UNL     1       7.061  43.955  49.341  1.00  0.00    -0.311 N 
ATOM      3  C   UNL     1       6.257  42.764  49.322  1.00  0.00     0.258 C 
ATOM      4  O   UNL     1       6.341  41.861  48.448  1.00  0.00    -0.269 OA
ATOM      5  C   UNL     1       5.373  42.749  50.484  1.00  0.00     0.050 A 
ATOM      6  C   UNL     1       4.404  41.864  50.953  1.00  0.00     0.014 A 
ATOM      7  C   UNL     1       3.762  42.181  52.170  1.00  0.00     0.002 A 
ATOM      8  C   UNL     1       4.101  43.357  52.889  1.00  0.00     0.010 A 
ATOM      9  C   UNL     1       5.085  44.240  52.380  1.00  0.00     0.005 A 
ATOM     10  C   UNL     1       5.515  45.457  52.973  1.00  0.00     0.090 A 
ATOM     11  C   UNL     1       6.546  46.209  52.343  1.00  0.00     0.024 A 
ATOM     12  C   UNL     1       7.133  45.777  51.131  1.00  0.00     0.028 A 
ATOM     13  C   UNL     1       6.662  44.595  50.560  1.00  0.00     0.052 A 
ATOM     14  C   UNL     1       5.681  43.878  51.182  1.00  0.00     0.020 A 
ENDROOT
BRANCH  10  15
ATOM     15  S   UNL     1       4.732  46.100  54.423  1.00  0.00     0.244 S 
ATOM     16  O   UNL     1       5.412  45.532  55.637  1.00  0.00    -0.207 OA
ATOM     17  O   UNL     1       4.839  47.600  54.454  1.00  0.00    -0.207 OA
BRANCH  15  18
ATOM     18  N   UNL     1       3.049  45.637  54.403  1.00  0.00    -0.189 NA
ATOM     19  C   UNL     1       2.280  46.433  53.437  1.00  0.00     0.139 C 
ATOM     20  C   UNL     1       2.476  45.687  55.751  1.00  0.00     0.139 C 
ATOM     21  C   UNL     1       1.480  45.438  52.676  1.00  0.00    -0.025 A 
ATOM     22  C   UNL     1       0.993  45.338  55.840  1.00  0.00    -0.025 A 
ATOM     23  C   UNL     1       1.787  45.195  51.325  1.00  0.00     0.006 A 
ATOM     24  C   UNL     1       0.597  44.578  53.370  1.00  0.00    -0.014 A 
ATOM     25  C   UNL     1       0.432  45.524  57.121  1.00  0.00     0.006 A 
ATOM     26  C   UNL     1       0.151  44.850  54.782  1.00  0.00    -0.014 A 
ATOM     27  C   UNL     1       1.234  44.102  50.660  1.00  0.00     0.000 A 
ATOM     28  C   UNL     1       0.074  43.462  52.681  1.00  0.00     0.009 A 
ATOM     29  C   UNL     1      -0.916  45.276  57.367  1.00  0.00     0.000 A 
ATOM     30  C   UNL     1      -1.218  44.638  55.064  1.00  0.00     0.009 A 
ATOM     31  C   UNL     1       0.388  43.231  51.341  1.00  0.00     0.001 A 
ATOM     32  C   UNL     1      -1.740  44.843  56.339  1.00  0.00     0.001 A 
ENDBRANCH  15  18
ENDBRANCH  10  15
TORSDOF 2
ENDMDL
MODEL 4
REMARK VINA RESULT:   -12.027      1.960      8.090
REMARK INTER + INTRA:         -12.929
REMARK INTER:                 -12.334
REMARK INTRA:                  -0.594
REMARK UNBOUND:                 0.504
REMARK SMILES CN1C(=O)c2cccc3c(S(=O)(=O)N4Cc5ccccc5-c5ccccc5C4)ccc1c23
REMARK SMILES IDX 1 1 2 2 3 3 4 4 5 5 6 6 7 7 8 8 9 9 10 10 29 11 30 12 31 13
REMARK SMILES IDX 32 14 11 15 12 16 13 17 14 18 15 19 28 20 16 21 27 22 17 23
REMARK SMILES IDX 21 24 26 25 22 26 18 27 20 28 25 29 23 30 19 31 24 32
REMARK H PARENT
ROOT
ATOM      1  C   UNL     1       6.376  42.295  48.504  1.00  0.00     0.153 C 
ATOM      2  N   UNL     1       6.794  43.187  49.578  1.00  0.00    -0.311 N 
ATOM      3  C   UNL     1       7.825  44.184  49.488  1.00  0.00     0.258 C 
ATOM      4  O   UNL     1       8.737  44.191  48.619  1.00  0.00    -0.269 OA
ATOM      5  C   UNL     1       7.624  45.193  50.523  1.00  0.00     0.050 A 
ATOM      6  C   UNL     1       8.306  46.351  50.892  1.00  0.00     0.014 A 
ATOM      7  C   UNL     1       7.774  47.114  51.956  1.00  0.00     0.002 A 
ATOM      8  C   UNL     1       6.582  46.713  52.615  1.00  0.00     0.010 A 
ATOM      9  C   UNL     1       5.918  45.526  52.220  1.00  0.00     0.005 A 
ATOM     10  C   UNL     1       4.733  44.990  52.793  1.00  0.00     0.090 A 
ATOM     11  C   UNL     1       4.176  43.800  52.247  1.00  0.00     0.024 A 
ATOM     12  C   UNL     1       4.789  43.134  51.161  1.00  0.00     0.028 A 
ATOM     13  C   UNL     1       5.969  43.670  50.646  1.00  0.00     0.052 A 
ATOM     14  C   UNL     1       6.485  44.819  51.172  1.00  0.00     0.020 A 
ENDROOT
BRANCH  10  15
ATOM     15  S   UNL     1       3.995  45.719  54.226  1.00  0.00     0.244 S 
ATOM     16  O   UNL     1       4.711  45.220  55.450  1.00  0.00    -0.207 OA
ATOM     17  O   UNL     1       4.105  47.218  54.167  1.00  0.00    -0.207 OA
BRANCH  15  18
ATOM     18  N   UNL     1       2.312  45.261  54.283  1.00  0.00    -0.189 NA
ATOM     19  C   UNL     1       1.527  45.957  53.256  1.00  0.00     0.139 C 
ATOM     20  C   UNL     1       1.764  45.449  55.629  1.00  0.00     0.139 C 
ATOM     21  C   UNL     1       0.712  44.892  52.614  1.00  0.00    -0.025 A 
ATOM     22  C   UNL     1       0.282  45.116  55.780  1.00  0.00    -0.025 A 
ATOM     23  C   UNL     1       0.994  44.512  51.290  1.00  0.00     0.006 A 
ATOM     24  C   UNL     1      -0.159  44.109  53.408  1.00  0.00    -0.014 A 
ATOM     25  C   UNL     1      -0.255  45.432  57.045  1.00  0.00     0.006 A 
ATOM     26  C   UNL     1      -0.579  44.525  54.792  1.00  0.00    -0.014 A 
ATOM     27  C   UNL     1       0.427  43.359  50.749  1.00  0.00     0.000 A 
ATOM     28  C   UNL     1      -0.696  42.931  52.845  1.00  0.00     0.009 A 
ATOM     29  C   UNL     1      -1.598  45.214  57.340  1.00  0.00     0.000 A 
ATOM     30  C   UNL     1      -1.943  44.346  55.119  1.00  0.00     0.009 A 
ATOM     31  C   UNL     1      -0.407  42.564  51.530  1.00  0.00     0.001 A 
ATOM     32  C   UNL     1      -2.442  44.681  56.376  1.00  0.00     0.001 A 
ENDBRANCH  15  18
ENDBRANCH  10  15
TORSDOF 2
ENDMDL
MODEL 5
REMARK VINA RESULT:   -11.569      0.971      3.109
REMARK INTER + INTRA:         -12.418
REMARK INTER:                 -11.927
REMARK INTRA:                  -0.491
REMARK UNBOUND:                 0.504
REMARK SMILES CN1C(=O)c2cccc3c(S(=O)(=O)N4Cc5ccccc5-c5ccccc5C4)ccc1c23
REMARK SMILES IDX 1 1 2 2 3 3 4 4 5 5 6 6 7 7 8 8 9 9 10 10 29 11 30 12 31 13
REMARK SMILES IDX 32 14 11 15 12 16 13 17 14 18 15 19 28 20 16 21 27 22 17 23
REMARK SMILES IDX 21 24 26 25 22 26 18 27 20 28 25 29 23 30 19 31 24 32
REMARK H PARENT
ROOT
ATOM      1  C   UNL     1      -1.618  42.839  51.035  1.00  0.00     0.153 C 
ATOM      2  N   UNL     1      -1.268  43.741  52.124  1.00  0.00    -0.311 N 
ATOM      3  C   UNL     1      -1.769  43.668  53.469  1.00  0.00     0.258 C 
ATOM      4  O   UNL     1      -2.823  43.065  53.805  1.00  0.00    -0.269 OA
ATOM      5  C   UNL     1      -0.853  44.357  54.373  1.00  0.00     0.050 A 
ATOM      6  C   UNL     1      -0.844  44.595  55.746  1.00  0.00     0.014 A 
ATOM      7  C   UNL     1       0.262  45.291  56.282  1.00  0.00     0.002 A 
ATOM      8  C   UNL     1       1.327  45.721  55.448  1.00  0.00     0.010 A 
ATOM      9  C   UNL     1       1.283  45.469  54.055  1.00  0.00     0.005 A 
ATOM     10  C   UNL     1       2.258  45.853  53.096  1.00  0.00     0.090 A 
ATOM     11  C   UNL     1       2.073  45.485  51.733  1.00  0.00     0.024 A 
ATOM     12  C   UNL     1       0.929  44.766  51.316  1.00  0.00     0.028 A 
ATOM     13  C   UNL     1      -0.024  44.436  52.280  1.00  0.00     0.052 A 
ATOM     14  C   UNL     1       0.173  44.784  53.585  1.00  0.00     0.020 A 
ENDROOT
BRANCH  10  15
ATOM     15  S   UNL     1       3.644  46.855  53.545  1.00  0.00     0.244 S 
ATOM     16  O   UNL     1       3.392  48.267  53.096  1.00  0.00    -0.207 OA
ATOM     17  O   UNL     1       3.840  46.840  55.037  1.00  0.00    -0.207 OA
BRANCH  15  18
ATOM     18  N   UNL     1       5.071  46.220  52.766  1.00  0.00    -0.189 NA
ATOM     19  C   UNL     1       5.386  44.864  53.233  1.00  0.00     0.139 C 
ATOM     20  C   UNL     1       6.202  47.140  52.915  1.00  0.00     0.139 C 
ATOM     21  C   UNL     1       5.638  44.082  51.995  1.00  0.00    -0.025 A 
ATOM     22  C   UNL     1       7.516  46.660  52.302  1.00  0.00    -0.025 A 
ATOM     23  C   UNL     1       4.720  43.091  51.606  1.00  0.00     0.006 A 
ATOM     24  C   UNL     1       6.648  44.507  51.099  1.00  0.00    -0.014 A 
ATOM     25  C   UNL     1       8.619  47.495  52.574  1.00  0.00     0.006 A 
ATOM     26  C   UNL     1       7.720  45.486  51.498  1.00  0.00    -0.014 A 
ATOM     27  C   UNL     1       4.790  42.522  50.336  1.00  0.00     0.000 A 
ATOM     28  C   UNL     1       6.678  43.935  49.808  1.00  0.00     0.009 A 
ATOM     29  C   UNL     1       9.895  47.187  52.110  1.00  0.00     0.000 A 
ATOM     30  C   UNL     1       9.035  45.192  51.070  1.00  0.00     0.009 A 
ATOM     31  C   UNL     1       5.760  42.953  49.434  1.00  0.00     0.001 A 
ATOM     32  C   UNL     1      10.103  46.034  51.367  1.00  0.00     0.001 A 
ENDBRANCH  15  18
ENDBRANCH  10  15
TORSDOF 2
ENDMDL
