ligand_40_conformer_4_docked
     RDKit          3D

 40 43  0  0  0  0  0  0  0  0999 V2000
    3.4200   46.2790   53.1450 O   0  0  0  0  0  0  0  0  0  0  0  0
    3.3330   44.9510   53.8430 S   0  0  0  0  0  0  0  0  0  0  0  0
    4.5670   44.6670   54.6520 O   0  0  0  0  0  0  0  0  0  0  0  0
    1.8750   44.8280   54.8200 C   0  0  0  0  0  0  0  0  0  0  0  0
    0.8990   44.0220   53.9570 C   0  0  0  0  0  0  0  0  0  0  0  0
    1.6810   43.0940   53.0010 C   0  0  0  0  0  0  0  0  0  0  0  0
    2.9940   43.6810   52.7390 N   0  0  0  0  0  0  0  0  0  0  0  0
    3.9440   43.1570   51.7820 C   0  0  0  0  0  0  0  0  0  0  0  0
    3.8260   41.8400   51.2970 C   0  0  0  0  0  0  0  0  0  0  0  0
    4.7520   41.3350   50.3810 C   0  0  0  0  0  0  0  0  0  0  0  0
    5.8080   42.1300   49.9350 C   0  0  0  0  0  0  0  0  0  0  0  0
    5.9470   43.4440   50.4040 C   0  0  0  0  0  0  0  0  0  0  0  0
    7.0980   44.3010   49.9520 C   0  0  0  0  0  0  0  0  0  0  0  0
    7.0260   45.6170   50.5830 N   0  0  0  0  0  0  0  0  0  0  0  0
    8.0070   46.0710   51.5280 C   0  0  0  0  0  0  0  0  0  0  0  0
    9.3420   46.0330   51.2300 N   0  0  0  0  0  0  0  0  0  0  0  0
   10.2900   46.4580   52.1250 C   0  0  0  0  0  0  0  0  0  0  0  0
    9.9200   46.9380   53.3520 N   0  0  0  0  0  0  0  0  0  0  0  0
    8.6000   46.9790   53.6490 C   0  0  0  0  0  0  0  0  0  0  0  0
    8.0520   47.4060   54.7990 N   0  0  0  0  0  0  0  0  0  0  0  0
    6.7230   47.2250   54.5710 C   0  0  0  0  0  0  0  0  0  0  0  0
    6.4440   46.7120   53.3460 N   0  0  0  0  0  0  0  0  0  0  0  0
    7.6490   46.5650   52.7800 C   0  0  0  0  0  0  0  0  0  0  0  0
    5.0160   43.9500   51.3260 C   0  0  0  0  0  0  0  0  0  0  0  0
    2.0832   44.3033   55.7641 H   0  0  0  0  0  0  0  0  0  0  0  0
    1.4725   45.8141   55.0951 H   0  0  0  0  0  0  0  0  0  0  0  0
    0.2538   43.4139   54.6081 H   0  0  0  0  0  0  0  0  0  0  0  0
    0.2839   44.7152   53.3644 H   0  0  0  0  0  0  0  0  0  0  0  0
    1.8050   42.1049   53.4661 H   0  0  0  0  0  0  0  0  0  0  0  0
    1.1283   42.9812   52.0566 H   0  0  0  0  0  0  0  0  0  0  0  0
    2.9978   41.2037   51.6424 H   0  0  0  0  0  0  0  0  0  0  0  0
    4.6479   40.3049   50.0094 H   0  0  0  0  0  0  0  0  0  0  0  0
    6.5332   41.7251   49.2138 H   0  0  0  0  0  0  0  0  0  0  0  0
    8.0444   43.8152   50.2318 H   0  0  0  0  0  0  0  0  0  0  0  0
    7.0470   44.4234   48.8600 H   0  0  0  0  0  0  0  0  0  0  0  0
    6.2220   46.2350   50.3350 H   0  0  0  0  0  0  0  0  0  0  0  0
   11.3553   46.4128   51.8548 H   0  0  0  0  0  0  0  0  0  0  0  0
    5.9470   47.4715   55.3106 H   0  0  0  0  0  0  0  0  0  0  0  0
    5.5040   46.4840   52.9530 H   0  0  0  0  0  0  0  0  0  0  0  0
    5.1252   44.9797   51.6973 H   0  0  0  0  0  0  0  0  0  0  0  0
  1  2  2  0
  2  3  2  0
  2  4  1  0
  4  5  1  0
  5  6  1  0
  6  7  1  0
  7  8  1  0
  8  9  2  0
  9 10  1  0
 10 11  2  0
 11 12  1  0
 12 13  1  0
 13 14  1  0
 14 15  1  0
 15 16  2  0
 16 17  1  0
 17 18  2  0
 18 19  1  0
 19 20  1  0
 20 21  2  0
 21 22  1  0
 22 23  1  0
 12 24  2  0
  7  2  1  0
 24  8  1  0
 23 15  1  0
 23 19  2  0
  4 25  1  0
  4 26  1  0
  5 27  1  0
  5 28  1  0
  6 29  1  0
  6 30  1  0
  9 31  1  0
 10 32  1  0
 11 33  1  0
 13 34  1  0
 13 35  1  0
 14 36  1  0
 17 37  1  0
 21 38  1  0
 22 39  1  0
 24 40  1  0
M  END
>  <meeko>  (1) 
{"is_sidechain": [false], "free_energy": -8.9, "intermolecular_energy": -10.981, "internal_energy": -1.227}

$$$$
ligand_40_conformer_4_docked
     RDKit          3D

 40 43  0  0  0  0  0  0  0  0999 V2000
    6.2150   45.2750   53.6320 O   0  0  0  0  0  0  0  0  0  0  0  0
    6.2060   46.0930   52.3720 S   0  0  0  0  0  0  0  0  0  0  0  0
    4.8060   46.4040   51.9220 O   0  0  0  0  0  0  0  0  0  0  0  0
    7.1720   47.5540   52.5420 C   0  0  0  0  0  0  0  0  0  0  0  0
    8.5070   47.2140   51.8730 C   0  0  0  0  0  0  0  0  0  0  0  0
    8.2940   46.1400   50.7840 C   0  0  0  0  0  0  0  0  0  0  0  0
    7.1190   45.3410   51.1280 N   0  0  0  0  0  0  0  0  0  0  0  0
    6.6970   44.1600   50.4080 C   0  0  0  0  0  0  0  0  0  0  0  0
    7.3760   43.7430   49.2460 C   0  0  0  0  0  0  0  0  0  0  0  0
    6.9590   42.6080   48.5480 C   0  0  0  0  0  0  0  0  0  0  0  0
    5.8620   41.8700   48.9940 C   0  0  0  0  0  0  0  0  0  0  0  0
    5.1700   42.2640   50.1470 C   0  0  0  0  0  0  0  0  0  0  0  0
    3.9690   41.4930   50.6210 C   0  0  0  0  0  0  0  0  0  0  0  0
    3.5130   42.0080   51.9100 N   0  0  0  0  0  0  0  0  0  0  0  0
    2.4510   42.9690   52.0220 C   0  0  0  0  0  0  0  0  0  0  0  0
    1.3850   42.9410   51.1650 N   0  0  0  0  0  0  0  0  0  0  0  0
    0.3660   43.8550   51.2570 C   0  0  0  0  0  0  0  0  0  0  0  0
    0.3900   44.8270   52.2190 N   0  0  0  0  0  0  0  0  0  0  0  0
    1.4430   44.8560   53.0700 C   0  0  0  0  0  0  0  0  0  0  0  0
    1.6430   45.7350   54.0650 N   0  0  0  0  0  0  0  0  0  0  0  0
    2.8320   45.3210   54.5830 C   0  0  0  0  0  0  0  0  0  0  0  0
    3.3550   44.2410   53.9510 N   0  0  0  0  0  0  0  0  0  0  0  0
    2.4580   43.9630   52.9970 C   0  0  0  0  0  0  0  0  0  0  0  0
    5.5900   43.4080   50.8470 C   0  0  0  0  0  0  0  0  0  0  0  0
    6.6877   48.4011   52.0342 H   0  0  0  0  0  0  0  0  0  0  0  0
    7.2962   47.8522   53.5935 H   0  0  0  0  0  0  0  0  0  0  0  0
    8.9253   48.1213   51.4128 H   0  0  0  0  0  0  0  0  0  0  0  0
    9.2024   46.8257   52.6317 H   0  0  0  0  0  0  0  0  0  0  0  0
    8.1365   46.6277   49.8107 H   0  0  0  0  0  0  0  0  0  0  0  0
    9.1802   45.4912   50.7231 H   0  0  0  0  0  0  0  0  0  0  0  0
    8.2425   44.3168   48.8855 H   0  0  0  0  0  0  0  0  0  0  0  0
    7.4980   42.2940   47.6419 H   0  0  0  0  0  0  0  0  0  0  0  0
    5.5396   40.9766   48.4391 H   0  0  0  0  0  0  0  0  0  0  0  0
    3.1592   41.5928   49.8832 H   0  0  0  0  0  0  0  0  0  0  0  0
    4.2454   40.4345   50.7358 H   0  0  0  0  0  0  0  0  0  0  0  0
    3.9930   41.6650   52.7720 H   0  0  0  0  0  0  0  0  0  0  0  0
   -0.4767   43.8057   50.5517 H   0  0  0  0  0  0  0  0  0  0  0  0
    3.3224   45.8160   55.4342 H   0  0  0  0  0  0  0  0  0  0  0  0
    4.2530   43.7540   54.1660 H   0  0  0  0  0  0  0  0  0  0  0  0
    5.0463   43.7206   51.7507 H   0  0  0  0  0  0  0  0  0  0  0  0
  1  2  2  0
  2  3  2  0
  2  4  1  0
  4  5  1  0
  5  6  1  0
  6  7  1  0
  7  8  1  0
  8  9  2  0
  9 10  1  0
 10 11  2  0
 11 12  1  0
 12 13  1  0
 13 14  1  0
 14 15  1  0
 15 16  2  0
 16 17  1  0
 17 18  2  0
 18 19  1  0
 19 20  1  0
 20 21  2  0
 21 22  1  0
 22 23  1  0
 12 24  2  0
  7  2  1  0
 24  8  1  0
 23 15  1  0
 23 19  2  0
  4 25  1  0
  4 26  1  0
  5 27  1  0
  5 28  1  0
  6 29  1  0
  6 30  1  0
  9 31  1  0
 10 32  1  0
 11 33  1  0
 13 34  1  0
 13 35  1  0
 14 36  1  0
 17 37  1  0
 21 38  1  0
 22 39  1  0
 24 40  1  0
M  END
>  <meeko>  (2) 
{"is_sidechain": [false], "free_energy": -8.375, "intermolecular_energy": -10.381, "internal_energy": -1.18}

$$$$
ligand_40_conformer_4_docked
     RDKit          3D

 40 43  0  0  0  0  0  0  0  0999 V2000
    5.1830   47.4960   54.5050 O   0  0  0  0  0  0  0  0  0  0  0  0
    4.5600   46.2690   53.9010 S   0  0  0  0  0  0  0  0  0  0  0  0
    5.0240   45.0150   54.5860 O   0  0  0  0  0  0  0  0  0  0  0  0
    2.8040   46.3820   53.8750 C   0  0  0  0  0  0  0  0  0  0  0  0
    2.4660   46.8090   52.4430 C   0  0  0  0  0  0  0  0  0  0  0  0
    3.5650   46.3240   51.4730 C   0  0  0  0  0  0  0  0  0  0  0  0
    4.8240   46.2010   52.2060 N   0  0  0  0  0  0  0  0  0  0  0  0
    6.0990   45.9010   51.5920 C   0  0  0  0  0  0  0  0  0  0  0  0
    7.2500   46.6430   51.9220 C   0  0  0  0  0  0  0  0  0  0  0  0
    8.4770   46.3570   51.3190 C   0  0  0  0  0  0  0  0  0  0  0  0
    8.5780   45.3300   50.3800 C   0  0  0  0  0  0  0  0  0  0  0  0
    7.4470   44.5780   50.0350 C   0  0  0  0  0  0  0  0  0  0  0  0
    7.5390   43.4880   49.0020 C   0  0  0  0  0  0  0  0  0  0  0  0
    7.1050   42.2140   49.5720 N   0  0  0  0  0  0  0  0  0  0  0  0
    5.8070   41.6570   49.3110 C   0  0  0  0  0  0  0  0  0  0  0  0
    4.9510   41.3570   50.3360 N   0  0  0  0  0  0  0  0  0  0  0  0
    3.7120   40.8210   50.1010 C   0  0  0  0  0  0  0  0  0  0  0  0
    3.2950   40.5680   48.8230 N   0  0  0  0  0  0  0  0  0  0  0  0
    4.1390   40.8650   47.8070 C   0  0  0  0  0  0  0  0  0  0  0  0
    3.9090   40.6810   46.4960 N   0  0  0  0  0  0  0  0  0  0  0  0
    5.0640   41.1290   45.9340 C   0  0  0  0  0  0  0  0  0  0  0  0
    5.9740   41.5720   46.8370 N   0  0  0  0  0  0  0  0  0  0  0  0
    5.3660   41.3970   48.0160 C   0  0  0  0  0  0  0  0  0  0  0  0
    6.2140   44.8680   50.6400 C   0  0  0  0  0  0  0  0  0  0  0  0
    2.3486   45.4081   54.1077 H   0  0  0  0  0  0  0  0  0  0  0  0
    2.4202   47.0908   54.6235 H   0  0  0  0  0  0  0  0  0  0  0  0
    1.5015   46.3688   52.1499 H   0  0  0  0  0  0  0  0  0  0  0  0
    2.4046   47.9064   52.3988 H   0  0  0  0  0  0  0  0  0  0  0  0
    3.2837   45.3458   51.0558 H   0  0  0  0  0  0  0  0  0  0  0  0
    3.6815   47.0460   50.6513 H   0  0  0  0  0  0  0  0  0  0  0  0
    7.1819   47.4548   52.6611 H   0  0  0  0  0  0  0  0  0  0  0  0
    9.3680   46.9443   51.5857 H   0  0  0  0  0  0  0  0  0  0  0  0
    9.5476   45.1101   49.9094 H   0  0  0  0  0  0  0  0  0  0  0  0
    6.8946   43.7420   48.1475 H   0  0  0  0  0  0  0  0  0  0  0  0
    8.5837   43.3953   48.6703 H   0  0  0  0  0  0  0  0  0  0  0  0
    7.7690   41.7070   50.1980 H   0  0  0  0  0  0  0  0  0  0  0  0
    3.0472   40.5923   50.9470 H   0  0  0  0  0  0  0  0  0  0  0  0
    5.2432   41.1317   44.8487 H   0  0  0  0  0  0  0  0  0  0  0  0
    6.9270   41.9540   46.6430 H   0  0  0  0  0  0  0  0  0  0  0  0
    5.3248   44.2807   50.3672 H   0  0  0  0  0  0  0  0  0  0  0  0
  1  2  2  0
  2  3  2  0
  2  4  1  0
  4  5  1  0
  5  6  1  0
  6  7  1  0
  7  8  1  0
  8  9  2  0
  9 10  1  0
 10 11  2  0
 11 12  1  0
 12 13  1  0
 13 14  1  0
 14 15  1  0
 15 16  2  0
 16 17  1  0
 17 18  2  0
 18 19  1  0
 19 20  1  0
 20 21  2  0
 21 22  1  0
 22 23  1  0
 12 24  2  0
  7  2  1  0
 24  8  1  0
 23 15  1  0
 23 19  2  0
  4 25  1  0
  4 26  1  0
  5 27  1  0
  5 28  1  0
  6 29  1  0
  6 30  1  0
  9 31  1  0
 10 32  1  0
 11 33  1  0
 13 34  1  0
 13 35  1  0
 14 36  1  0
 17 37  1  0
 21 38  1  0
 22 39  1  0
 24 40  1  0
M  END
>  <meeko>  (3) 
{"is_sidechain": [false], "free_energy": -8.163, "intermolecular_energy": -10.777, "internal_energy": -0.523}

$$$$
ligand_40_conformer_4_docked
     RDKit          3D

 40 43  0  0  0  0  0  0  0  0999 V2000
    6.4560   45.5110   55.3250 O   0  0  0  0  0  0  0  0  0  0  0  0
    6.5740   46.6530   54.3550 S   0  0  0  0  0  0  0  0  0  0  0  0
    5.6000   47.7520   54.6710 O   0  0  0  0  0  0  0  0  0  0  0  0
    8.2250   47.2560   54.2640 C   0  0  0  0  0  0  0  0  0  0  0  0
    8.8030   46.6080   53.0020 C   0  0  0  0  0  0  0  0  0  0  0  0
    7.6710   46.3060   51.9960 C   0  0  0  0  0  0  0  0  0  0  0  0
    6.4210   46.1170   52.7310 N   0  0  0  0  0  0  0  0  0  0  0  0
    5.1780   45.6860   52.1300 C   0  0  0  0  0  0  0  0  0  0  0  0
    4.3530   46.6010   51.4470 C   0  0  0  0  0  0  0  0  0  0  0  0
    3.1490   46.1830   50.8760 C   0  0  0  0  0  0  0  0  0  0  0  0
    2.7470   44.8510   50.9750 C   0  0  0  0  0  0  0  0  0  0  0  0
    3.5510   43.9220   51.6500 C   0  0  0  0  0  0  0  0  0  0  0  0
    3.1130   42.4890   51.7880 C   0  0  0  0  0  0  0  0  0  0  0  0
    2.4720   42.2790   53.0840 N   0  0  0  0  0  0  0  0  0  0  0  0
    1.2360   42.9180   53.4420 C   0  0  0  0  0  0  0  0  0  0  0  0
    0.0630   42.5770   52.8260 N   0  0  0  0  0  0  0  0  0  0  0  0
   -1.1230   43.1830   53.1550 C   0  0  0  0  0  0  0  0  0  0  0  0
   -1.1630   44.1530   54.1190 N   0  0  0  0  0  0  0  0  0  0  0  0
   -0.0040   44.4910   54.7310 C   0  0  0  0  0  0  0  0  0  0  0  0
    0.1530   45.4210   55.6880 N   0  0  0  0  0  0  0  0  0  0  0  0
    1.4900   45.3610   55.9340 C   0  0  0  0  0  0  0  0  0  0  0  0
    2.1430   44.4450   55.1760 N   0  0  0  0  0  0  0  0  0  0  0  0
    1.1760   43.9060   54.4230 C   0  0  0  0  0  0  0  0  0  0  0  0
    4.7600   44.3440   52.2250 C   0  0  0  0  0  0  0  0  0  0  0  0
    8.2339   48.3525   54.1766 H   0  0  0  0  0  0  0  0  0  0  0  0
    8.8089   47.0118   55.1637 H   0  0  0  0  0  0  0  0  0  0  0  0
    9.5275   47.2944   52.5395 H   0  0  0  0  0  0  0  0  0  0  0  0
    9.3022   45.6670   53.2762 H   0  0  0  0  0  0  0  0  0  0  0  0
    7.5642   47.1483   51.2967 H   0  0  0  0  0  0  0  0  0  0  0  0
    7.9106   45.3947   51.4284 H   0  0  0  0  0  0  0  0  0  0  0  0
    4.6598   47.6540   51.3627 H   0  0  0  0  0  0  0  0  0  0  0  0
    2.5143   46.9080   50.3454 H   0  0  0  0  0  0  0  0  0  0  0  0
    1.7974   44.5290   50.5226 H   0  0  0  0  0  0  0  0  0  0  0  0
    2.3990   42.2487   50.9865 H   0  0  0  0  0  0  0  0  0  0  0  0
    3.9950   41.8358   51.7142 H   0  0  0  0  0  0  0  0  0  0  0  0
    2.9440   41.6470   53.7680 H   0  0  0  0  0  0  0  0  0  0  0  0
   -2.0487   42.8868   52.6399 H   0  0  0  0  0  0  0  0  0  0  0  0
    1.9940   45.9957   56.6777 H   0  0  0  0  0  0  0  0  0  0  0  0
    3.1640   44.2260   55.1850 H   0  0  0  0  0  0  0  0  0  0  0  0
    5.3901   43.6164   52.7574 H   0  0  0  0  0  0  0  0  0  0  0  0
  1  2  2  0
  2  3  2  0
  2  4  1  0
  4  5  1  0
  5  6  1  0
  6  7  1  0
  7  8  1  0
  8  9  2  0
  9 10  1  0
 10 11  2  0
 11 12  1  0
 12 13  1  0
 13 14  1  0
 14 15  1  0
 15 16  2  0
 16 17  1  0
 17 18  2  0
 18 19  1  0
 19 20  1  0
 20 21  2  0
 21 22  1  0
 22 23  1  0
 12 24  2  0
  7  2  1  0
 24  8  1  0
 23 15  1  0
 23 19  2  0
  4 25  1  0
  4 26  1  0
  5 27  1  0
  5 28  1  0
  6 29  1  0
  6 30  1  0
  9 31  1  0
 10 32  1  0
 11 33  1  0
 13 34  1  0
 13 35  1  0
 14 36  1  0
 17 37  1  0
 21 38  1  0
 22 39  1  0
 24 40  1  0
M  END
>  <meeko>  (4) 
{"is_sidechain": [false], "free_energy": -8.105, "intermolecular_energy": -10.425, "internal_energy": -0.803}

$$$$
ligand_40_conformer_4_docked
     RDKit          3D

 40 43  0  0  0  0  0  0  0  0999 V2000
    2.2030   46.4340   52.3470 O   0  0  0  0  0  0  0  0  0  0  0  0
    1.6530   45.1170   52.8190 S   0  0  0  0  0  0  0  0  0  0  0  0
    2.2960   44.6750   54.1030 O   0  0  0  0  0  0  0  0  0  0  0  0
   -0.1010   45.1610   52.9540 C   0  0  0  0  0  0  0  0  0  0  0  0
   -0.6030   44.4900   51.6710 C   0  0  0  0  0  0  0  0  0  0  0  0
    0.4500   43.4870   51.1520 C   0  0  0  0  0  0  0  0  0  0  0  0
    1.7740   43.9130   51.6020 N   0  0  0  0  0  0  0  0  0  0  0  0
    3.0140   43.2900   51.1930 C   0  0  0  0  0  0  0  0  0  0  0  0
    3.0610   41.9170   50.8810 C   0  0  0  0  0  0  0  0  0  0  0  0
    4.2630   41.3170   50.4970 C   0  0  0  0  0  0  0  0  0  0  0  0
    5.4330   42.0720   50.4160 C   0  0  0  0  0  0  0  0  0  0  0  0
    5.4110   43.4400   50.7210 C   0  0  0  0  0  0  0  0  0  0  0  0
    6.6720   44.2570   50.6660 C   0  0  0  0  0  0  0  0  0  0  0  0
    6.4030   45.6320   51.0820 N   0  0  0  0  0  0  0  0  0  0  0  0
    6.8070   46.1410   52.3630 C   0  0  0  0  0  0  0  0  0  0  0  0
    5.8920   46.3450   53.3590 N   0  0  0  0  0  0  0  0  0  0  0  0
    6.2630   46.8340   54.5850 C   0  0  0  0  0  0  0  0  0  0  0  0
    7.5720   47.1340   54.8450 N   0  0  0  0  0  0  0  0  0  0  0  0
    8.4800   46.9320   53.8620 C   0  0  0  0  0  0  0  0  0  0  0  0
    9.8000   47.1750   53.9290 N   0  0  0  0  0  0  0  0  0  0  0  0
   10.2250   46.8110   52.6880 C   0  0  0  0  0  0  0  0  0  0  0  0
    9.2310   46.3640   51.8810 N   0  0  0  0  0  0  0  0  0  0  0  0
    8.1350   46.4480   52.6460 C   0  0  0  0  0  0  0  0  0  0  0  0
    4.2030   44.0410   51.1100 C   0  0  0  0  0  0  0  0  0  0  0  0
   -0.4366   44.6036   53.8409 H   0  0  0  0  0  0  0  0  0  0  0  0
   -0.4856   46.1853   53.0677 H   0  0  0  0  0  0  0  0  0  0  0  0
   -1.5413   43.9562   51.8824 H   0  0  0  0  0  0  0  0  0  0  0  0
   -0.7760   45.2602   50.9049 H   0  0  0  0  0  0  0  0  0  0  0  0
    0.2308   42.4842   51.5475 H   0  0  0  0  0  0  0  0  0  0  0  0
    0.4232   43.4548   50.0528 H   0  0  0  0  0  0  0  0  0  0  0  0
    2.1440   41.3124   50.9402 H   0  0  0  0  0  0  0  0  0  0  0  0
    4.2867   40.2437   50.2573 H   0  0  0  0  0  0  0  0  0  0  0  0
    6.3753   41.5927   50.1120 H   0  0  0  0  0  0  0  0  0  0  0  0
    7.4212   43.8141   51.3388 H   0  0  0  0  0  0  0  0  0  0  0  0
    7.0503   44.2628   49.6331 H   0  0  0  0  0  0  0  0  0  0  0  0
    5.8880   46.2520   50.4180 H   0  0  0  0  0  0  0  0  0  0  0  0
    5.5026   46.9862   55.3651 H   0  0  0  0  0  0  0  0  0  0  0  0
   11.2761   46.8736   52.3697 H   0  0  0  0  0  0  0  0  0  0  0  0
    9.3150   46.0380   50.8920 H   0  0  0  0  0  0  0  0  0  0  0  0
    4.1848   45.1136   51.3534 H   0  0  0  0  0  0  0  0  0  0  0  0
  1  2  2  0
  2  3  2  0
  2  4  1  0
  4  5  1  0
  5  6  1  0
  6  7  1  0
  7  8  1  0
  8  9  2  0
  9 10  1  0
 10 11  2  0
 11 12  1  0
 12 13  1  0
 13 14  1  0
 14 15  1  0
 15 16  2  0
 16 17  1  0
 17 18  2  0
 18 19  1  0
 19 20  1  0
 20 21  2  0
 21 22  1  0
 22 23  1  0
 12 24  2  0
  7  2  1  0
 24  8  1  0
 23 15  1  0
 23 19  2  0
  4 25  1  0
  4 26  1  0
  5 27  1  0
  5 28  1  0
  6 29  1  0
  6 30  1  0
  9 31  1  0
 10 32  1  0
 11 33  1  0
 13 34  1  0
 13 35  1  0
 14 36  1  0
 17 37  1  0
 21 38  1  0
 22 39  1  0
 24 40  1  0
M  END
>  <meeko>  (5) 
{"is_sidechain": [false], "free_energy": -7.801, "intermolecular_energy": -10.173, "internal_energy": -0.679}

$$$$
