ligand_31_conformer_1_docked
     RDKit          3D

 48 51  0  0  0  0  0  0  0  0999 V2000
    4.9990   45.1870   55.3140 C   0  0  0  0  0  0  0  0  0  0  0  0
    5.5290   44.7920   53.9360 C   0  0  0  0  0  0  0  0  0  0  0  0
    4.7390   45.4710   52.7950 C   0  0  1  0  0  0  0  0  0  0  0  0
    5.6730   46.0550   51.7290 C   0  0  0  0  0  0  0  0  0  0  0  0
    6.3000   44.9790   50.8830 C   0  0  0  0  0  0  0  0  0  0  0  0
    7.5130   45.2390   50.2250 C   0  0  0  0  0  0  0  0  0  0  0  0
    8.0900   44.2720   49.3990 C   0  0  0  0  0  0  0  0  0  0  0  0
    7.4570   43.0430   49.2120 C   0  0  0  0  0  0  0  0  0  0  0  0
    6.2420   42.7780   49.8480 C   0  0  0  0  0  0  0  0  0  0  0  0
    5.6480   43.7410   50.6790 C   0  0  0  0  0  0  0  0  0  0  0  0
    4.3410   43.4060   51.3610 C   0  0  0  0  0  0  0  0  0  0  0  0
    3.8090   44.5240   52.1580 N   0  0  0  0  0  0  0  0  0  0  0  0
    2.3930   44.6290   52.4160 C   0  0  0  0  0  0  0  0  0  0  0  0
    1.6110   44.9320   51.4730 O   0  0  0  0  0  0  0  0  0  0  0  0
    1.8130   44.3470   53.7870 C   0  0  1  0  0  0  0  0  0  0  0  0
    1.3900   45.6720   54.4780 C   0  0  0  0  0  0  0  0  0  0  0  0
    1.1590   45.5510   55.9990 C   0  0  0  0  0  0  0  0  0  0  0  0
   -0.1550   44.9220   56.3340 C   0  0  0  0  0  0  0  0  0  0  0  0
   -0.7240   44.9830   57.5530 N   0  0  0  0  0  0  0  0  0  0  0  0
   -1.8710   44.3250   57.4740 N   0  0  0  0  0  0  0  0  0  0  0  0
   -1.9850   43.8720   56.2100 C   0  0  0  0  0  0  0  0  0  0  0  0
   -0.9160   44.2180   55.4710 N   0  0  0  0  0  0  0  0  0  0  0  0
   -0.7310   43.9460   54.0390 C   0  0  0  0  0  0  0  0  0  0  0  0
    0.6430   43.3390   53.6780 C   0  0  0  0  0  0  0  0  0  0  0  0
    5.6216   44.7230   56.0931 H   0  0  0  0  0  0  0  0  0  0  0  0
    5.0337   46.2813   55.4203 H   0  0  0  0  0  0  0  0  0  0  0  0
    3.9603   44.8410   55.4203 H   0  0  0  0  0  0  0  0  0  0  0  0
    6.5852   45.0903   53.8630 H   0  0  0  0  0  0  0  0  0  0  0  0
    5.4143   43.7034   53.8274 H   0  0  0  0  0  0  0  0  0  0  0  0
    4.1667   46.2923   53.2510 H   0  0  0  0  0  0  0  0  0  0  0  0
    5.0942   46.7271   51.0784 H   0  0  0  0  0  0  0  0  0  0  0  0
    6.4795   46.5987   52.2427 H   0  0  0  0  0  0  0  0  0  0  0  0
    8.0116   46.2100   50.3610 H   0  0  0  0  0  0  0  0  0  0  0  0
    9.0454   44.4798   48.8949 H   0  0  0  0  0  0  0  0  0  0  0  0
    7.9151   42.2820   48.5632 H   0  0  0  0  0  0  0  0  0  0  0  0
    5.7469   41.8075   49.6966 H   0  0  0  0  0  0  0  0  0  0  0  0
    3.6014   43.1400   50.5915 H   0  0  0  0  0  0  0  0  0  0  0  0
    4.5323   42.5702   52.0501 H   0  0  0  0  0  0  0  0  0  0  0  0
    2.5836   43.8834   54.4204 H   0  0  0  0  0  0  0  0  0  0  0  0
    2.1815   46.4167   54.3082 H   0  0  0  0  0  0  0  0  0  0  0  0
    0.4259   45.9634   54.0358 H   0  0  0  0  0  0  0  0  0  0  0  0
    1.9634   44.9365   56.4295 H   0  0  0  0  0  0  0  0  0  0  0  0
    1.1568   46.5685   56.4170 H   0  0  0  0  0  0  0  0  0  0  0  0
   -2.8412   43.2942   55.8318 H   0  0  0  0  0  0  0  0  0  0  0  0
   -1.5132   43.2421   53.7185 H   0  0  0  0  0  0  0  0  0  0  0  0
   -0.7910   44.9164   53.5244 H   0  0  0  0  0  0  0  0  0  0  0  0
    0.8425   42.4994   54.3601 H   0  0  0  0  0  0  0  0  0  0  0  0
    0.5888   43.0197   52.6268 H   0  0  0  0  0  0  0  0  0  0  0  0
  1  2  1  0
  2  3  1  0
  3  4  1  0
  4  5  1  0
  5  6  2  0
  6  7  1  0
  7  8  2  0
  8  9  1  0
  9 10  2  0
 10 11  1  0
 11 12  1  0
 12 13  1  0
 13 14  2  0
 13 15  1  0
 15 16  1  0
 16 17  1  0
 17 18  1  0
 18 19  2  0
 19 20  1  0
 20 21  2  0
 21 22  1  0
 22 23  1  0
 23 24  1  0
 12  3  1  0
 24 15  1  0
 10  5  1  0
 22 18  1  0
  1 25  1  0
  1 26  1  0
  1 27  1  0
  2 28  1  0
  2 29  1  0
  3 30  1  1
  4 31  1  0
  4 32  1  0
  6 33  1  0
  7 34  1  0
  8 35  1  0
  9 36  1  0
 11 37  1  0
 11 38  1  0
 15 39  1  1
 16 40  1  0
 16 41  1  0
 17 42  1  0
 17 43  1  0
 21 44  1  0
 23 45  1  0
 23 46  1  0
 24 47  1  0
 24 48  1  0
M  END
>  <meeko>  (1) 
{"is_sidechain": [false], "free_energy": -7.343, "intermolecular_energy": -10.778, "internal_energy": 0.004}

$$$$
ligand_31_conformer_1_docked
     RDKit          3D

 48 51  0  0  0  0  0  0  0  0999 V2000
    5.6100   44.9280   55.2560 C   0  0  0  0  0  0  0  0  0  0  0  0
    6.5160   45.2990   54.0830 C   0  0  0  0  0  0  0  0  0  0  0  0
    5.7770   46.1500   53.0260 C   0  0  1  0  0  0  0  0  0  0  0  0
    6.6300   46.3570   51.7680 C   0  0  0  0  0  0  0  0  0  0  0  0
    6.7220   45.1020   50.9410 C   0  0  0  0  0  0  0  0  0  0  0  0
    7.8100   44.9300   50.0710 C   0  0  0  0  0  0  0  0  0  0  0  0
    7.8950   43.7960   49.2610 C   0  0  0  0  0  0  0  0  0  0  0  0
    6.8890   42.8300   49.3020 C   0  0  0  0  0  0  0  0  0  0  0  0
    5.7920   42.9970   50.1520 C   0  0  0  0  0  0  0  0  0  0  0  0
    5.6930   44.1340   50.9700 C   0  0  0  0  0  0  0  0  0  0  0  0
    4.4980   44.2670   51.8870 C   0  0  0  0  0  0  0  0  0  0  0  0
    4.4980   45.5280   52.6460 N   0  0  0  0  0  0  0  0  0  0  0  0
    3.2580   46.0950   53.1220 C   0  0  0  0  0  0  0  0  0  0  0  0
    3.2210   47.3110   53.4570 O   0  0  0  0  0  0  0  0  0  0  0  0
    1.9860   45.2750   53.1950 C   0  0  1  0  0  0  0  0  0  0  0  0
    1.4830   45.1890   54.6610 C   0  0  0  0  0  0  0  0  0  0  0  0
    0.0790   44.5390   54.8320 C   0  0  0  0  0  0  0  0  0  0  0  0
   -0.1490   43.4340   53.8510 C   0  0  0  0  0  0  0  0  0  0  0  0
   -0.3510   42.1510   54.2040 N   0  0  0  0  0  0  0  0  0  0  0  0
   -0.5200   41.4650   53.0830 N   0  0  0  0  0  0  0  0  0  0  0  0
   -0.4160   42.3400   52.0630 C   0  0  0  0  0  0  0  0  0  0  0  0
   -0.1700   43.5840   52.5100 N   0  0  0  0  0  0  0  0  0  0  0  0
   -0.0580   44.7940   51.6840 C   0  0  0  0  0  0  0  0  0  0  0  0
    0.9180   45.8560   52.2370 C   0  0  0  0  0  0  0  0  0  0  0  0
    6.1294   45.1407   56.2020 H   0  0  0  0  0  0  0  0  0  0  0  0
    4.6838   45.5193   55.2052 H   0  0  0  0  0  0  0  0  0  0  0  0
    5.3645   43.8569   55.2052 H   0  0  0  0  0  0  0  0  0  0  0  0
    7.3734   45.8729   54.4644 H   0  0  0  0  0  0  0  0  0  0  0  0
    6.8438   44.3669   53.5994 H   0  0  0  0  0  0  0  0  0  0  0  0
    5.5835   47.1299   53.4868 H   0  0  0  0  0  0  0  0  0  0  0  0
    6.1774   47.1527   51.1581 H   0  0  0  0  0  0  0  0  0  0  0  0
    7.6465   46.6318   52.0860 H   0  0  0  0  0  0  0  0  0  0  0  0
    8.6007   45.6935   50.0271 H   0  0  0  0  0  0  0  0  0  0  0  0
    8.7562   43.6639   48.5896 H   0  0  0  0  0  0  0  0  0  0  0  0
    6.9593   41.9361   48.6648 H   0  0  0  0  0  0  0  0  0  0  0  0
    5.0012   42.2329   50.1803 H   0  0  0  0  0  0  0  0  0  0  0  0
    3.5822   44.2228   51.2793 H   0  0  0  0  0  0  0  0  0  0  0  0
    4.5458   43.4431   52.6143 H   0  0  0  0  0  0  0  0  0  0  0  0
    2.1943   44.2469   52.8639 H   0  0  0  0  0  0  0  0  0  0  0  0
    2.2076   44.5949   55.2372 H   0  0  0  0  0  0  0  0  0  0  0  0
    1.3901   46.2253   55.0180 H   0  0  0  0  0  0  0  0  0  0  0  0
   -0.0024   44.1321   55.8507 H   0  0  0  0  0  0  0  0  0  0  0  0
   -0.6793   45.3153   54.6522 H   0  0  0  0  0  0  0  0  0  0  0  0
   -0.5191   42.0709   51.0014 H   0  0  0  0  0  0  0  0  0  0  0  0
    0.2882   44.4965   50.6832 H   0  0  0  0  0  0  0  0  0  0  0  0
   -1.0546   45.2594   51.6722 H   0  0  0  0  0  0  0  0  0  0  0  0
    1.4328   46.3308   51.3887 H   0  0  0  0  0  0  0  0  0  0  0  0
    0.3196   46.5738   52.8172 H   0  0  0  0  0  0  0  0  0  0  0  0
  1  2  1  0
  2  3  1  0
  3  4  1  0
  4  5  1  0
  5  6  2  0
  6  7  1  0
  7  8  2  0
  8  9  1  0
  9 10  2  0
 10 11  1  0
 11 12  1  0
 12 13  1  0
 13 14  2  0
 13 15  1  0
 15 16  1  0
 16 17  1  0
 17 18  1  0
 18 19  2  0
 19 20  1  0
 20 21  2  0
 21 22  1  0
 22 23  1  0
 23 24  1  0
 12  3  1  0
 24 15  1  0
 10  5  1  0
 22 18  1  0
  1 25  1  0
  1 26  1  0
  1 27  1  0
  2 28  1  0
  2 29  1  0
  3 30  1  1
  4 31  1  0
  4 32  1  0
  6 33  1  0
  7 34  1  0
  8 35  1  0
  9 36  1  0
 11 37  1  0
 11 38  1  0
 15 39  1  6
 16 40  1  0
 16 41  1  0
 17 42  1  0
 17 43  1  0
 21 44  1  0
 23 45  1  0
 23 46  1  0
 24 47  1  0
 24 48  1  0
M  END
>  <meeko>  (2) 
{"is_sidechain": [false], "free_energy": -7.134, "intermolecular_energy": -10.46, "internal_energy": -0.006}

$$$$
ligand_31_conformer_1_docked
     RDKit          3D

 48 51  0  0  0  0  0  0  0  0999 V2000
    5.2150   45.1520   55.3080 C   0  0  0  0  0  0  0  0  0  0  0  0
    6.0270   45.1380   54.0130 C   0  0  0  0  0  0  0  0  0  0  0  0
    5.4180   46.0640   52.9370 C   0  0  1  0  0  0  0  0  0  0  0  0
    6.4450   46.4300   51.8580 C   0  0  0  0  0  0  0  0  0  0  0  0
    6.7320   45.2710   50.9410 C   0  0  0  0  0  0  0  0  0  0  0  0
    7.9510   45.2300   50.2450 C   0  0  0  0  0  0  0  0  0  0  0  0
    8.2210   44.1890   49.3550 C   0  0  0  0  0  0  0  0  0  0  0  0
    7.2740   43.1870   49.1420 C   0  0  0  0  0  0  0  0  0  0  0  0
    6.0510   43.2250   49.8160 C   0  0  0  0  0  0  0  0  0  0  0  0
    5.7640   44.2670   50.7120 C   0  0  0  0  0  0  0  0  0  0  0  0
    4.4360   44.2600   51.4330 C   0  0  0  0  0  0  0  0  0  0  0  0
    4.2490   45.4370   52.2990 N   0  0  0  0  0  0  0  0  0  0  0  0
    2.9220   45.9050   52.6210 C   0  0  0  0  0  0  0  0  0  0  0  0
    2.6240   47.1130   52.4150 O   0  0  0  0  0  0  0  0  0  0  0  0
    1.8610   44.9710   53.1650 C   0  0  1  0  0  0  0  0  0  0  0  0
    2.3010   43.4920   52.9890 C   0  0  0  0  0  0  0  0  0  0  0  0
    1.2690   42.4480   53.4630 C   0  0  0  0  0  0  0  0  0  0  0  0
   -0.1370   42.9560   53.4460 C   0  0  0  0  0  0  0  0  0  0  0  0
   -1.1270   42.3910   52.7290 N   0  0  0  0  0  0  0  0  0  0  0  0
   -2.2220   43.0990   52.9630 N   0  0  0  0  0  0  0  0  0  0  0  0
   -1.8840   44.0860   53.8160 C   0  0  0  0  0  0  0  0  0  0  0  0
   -0.5780   44.0320   54.1300 N   0  0  0  0  0  0  0  0  0  0  0  0
    0.1210   44.9110   55.0780 C   0  0  0  0  0  0  0  0  0  0  0  0
    1.5440   45.3200   54.6390 C   0  0  0  0  0  0  0  0  0  0  0  0
    5.8987   45.1402   56.1696 H   0  0  0  0  0  0  0  0  0  0  0  0
    4.5965   46.0609   55.3431 H   0  0  0  0  0  0  0  0  0  0  0  0
    4.5655   44.2649   55.3431 H   0  0  0  0  0  0  0  0  0  0  0  0
    7.0510   45.4744   54.2325 H   0  0  0  0  0  0  0  0  0  0  0  0
    6.0208   44.1108   53.6197 H   0  0  0  0  0  0  0  0  0  0  0  0
    5.1029   46.9837   53.4516 H   0  0  0  0  0  0  0  0  0  0  0  0
    6.0518   47.2665   51.2617 H   0  0  0  0  0  0  0  0  0  0  0  0
    7.3833   46.7082   52.3603 H   0  0  0  0  0  0  0  0  0  0  0  0
    8.6973   46.0227   50.4020 H   0  0  0  0  0  0  0  0  0  0  0  0
    9.1821   44.1587   48.8207 H   0  0  0  0  0  0  0  0  0  0  0  0
    7.4906   42.3661   48.4425 H   0  0  0  0  0  0  0  0  0  0  0  0
    5.3075   42.4328   49.6435 H   0  0  0  0  0  0  0  0  0  0  0  0
    3.6301   44.2431   50.6845 H   0  0  0  0  0  0  0  0  0  0  0  0
    4.4143   43.3687   52.0773 H   0  0  0  0  0  0  0  0  0  0  0  0
    0.9312   45.1025   52.5921 H   0  0  0  0  0  0  0  0  0  0  0  0
    2.4971   43.3184   51.9206 H   0  0  0  0  0  0  0  0  0  0  0  0
    3.1905   43.3567   53.6218 H   0  0  0  0  0  0  0  0  0  0  0  0
    1.3312   41.5707   52.8023 H   0  0  0  0  0  0  0  0  0  0  0  0
    1.5129   42.1994   54.5064 H   0  0  0  0  0  0  0  0  0  0  0  0
   -2.5859   44.8384   54.2050 H   0  0  0  0  0  0  0  0  0  0  0  0
   -0.4766   45.8260   55.2035 H   0  0  0  0  0  0  0  0  0  0  0  0
    0.2326   44.3401   56.0116 H   0  0  0  0  0  0  0  0  0  0  0  0
    1.6494   46.4071   54.7695 H   0  0  0  0  0  0  0  0  0  0  0  0
    2.2501   44.7536   55.2640 H   0  0  0  0  0  0  0  0  0  0  0  0
  1  2  1  0
  2  3  1  0
  3  4  1  0
  4  5  1  0
  5  6  2  0
  6  7  1  0
  7  8  2  0
  8  9  1  0
  9 10  2  0
 10 11  1  0
 11 12  1  0
 12 13  1  0
 13 14  2  0
 13 15  1  0
 15 16  1  0
 16 17  1  0
 17 18  1  0
 18 19  2  0
 19 20  1  0
 20 21  2  0
 21 22  1  0
 22 23  1  0
 23 24  1  0
 12  3  1  0
 24 15  1  0
 10  5  1  0
 22 18  1  0
  1 25  1  0
  1 26  1  0
  1 27  1  0
  2 28  1  0
  2 29  1  0
  3 30  1  1
  4 31  1  0
  4 32  1  0
  6 33  1  0
  7 34  1  0
  8 35  1  0
  9 36  1  0
 11 37  1  0
 11 38  1  0
 15 39  1  6
 16 40  1  0
 16 41  1  0
 17 42  1  0
 17 43  1  0
 21 44  1  0
 23 45  1  0
 23 46  1  0
 24 47  1  0
 24 48  1  0
M  END
>  <meeko>  (3) 
{"is_sidechain": [false], "free_energy": -7.074, "intermolecular_energy": -10.984, "internal_energy": 0.606}

$$$$
ligand_31_conformer_1_docked
     RDKit          3D

 48 51  0  0  0  0  0  0  0  0999 V2000
    5.7760   44.9240   55.6920 C   0  0  0  0  0  0  0  0  0  0  0  0
    5.4700   44.7110   54.2100 C   0  0  0  0  0  0  0  0  0  0  0  0
    5.1460   46.0380   53.4890 C   0  0  1  0  0  0  0  0  0  0  0  0
    6.2110   47.1070   53.7640 C   0  0  0  0  0  0  0  0  0  0  0  0
    7.4930   46.8230   53.0270 C   0  0  0  0  0  0  0  0  0  0  0  0
    8.6980   47.3560   53.5110 C   0  0  0  0  0  0  0  0  0  0  0  0
    9.8930   47.1440   52.8210 C   0  0  0  0  0  0  0  0  0  0  0  0
    9.8950   46.4090   51.6360 C   0  0  0  0  0  0  0  0  0  0  0  0
    8.7000   45.8860   51.1340 C   0  0  0  0  0  0  0  0  0  0  0  0
    7.4910   46.0940   51.8160 C   0  0  0  0  0  0  0  0  0  0  0  0
    6.2240   45.4960   51.2480 C   0  0  0  0  0  0  0  0  0  0  0  0
    5.0280   45.8360   52.0350 N   0  0  0  0  0  0  0  0  0  0  0  0
    3.7240   45.8550   51.4150 C   0  0  0  0  0  0  0  0  0  0  0  0
    3.5330   46.5780   50.3980 O   0  0  0  0  0  0  0  0  0  0  0  0
    2.5860   44.9980   51.9300 C   0  0  1  0  0  0  0  0  0  0  0  0
    1.4590   45.8920   52.5140 C   0  0  0  0  0  0  0  0  0  0  0  0
    0.0330   45.3090   52.3990 C   0  0  0  0  0  0  0  0  0  0  0  0
   -0.0570   43.9300   52.9680 C   0  0  0  0  0  0  0  0  0  0  0  0
   -0.8220   43.6070   54.0280 N   0  0  0  0  0  0  0  0  0  0  0  0
   -0.6540   42.3100   54.2410 N   0  0  0  0  0  0  0  0  0  0  0  0
    0.2110   41.8620   53.3100 C   0  0  0  0  0  0  0  0  0  0  0  0
    0.6160   42.8580   52.5020 N   0  0  0  0  0  0  0  0  0  0  0  0
    1.5080   42.7210   51.3430 C   0  0  0  0  0  0  0  0  0  0  0  0
    2.0750   44.0580   50.8130 C   0  0  0  0  0  0  0  0  0  0  0  0
    5.0240   44.4005   56.3006 H   0  0  0  0  0  0  0  0  0  0  0  0
    6.7753   44.5253   55.9211 H   0  0  0  0  0  0  0  0  0  0  0  0
    5.7490   45.9995   55.9211 H   0  0  0  0  0  0  0  0  0  0  0  0
    6.3456   44.2504   53.7293 H   0  0  0  0  0  0  0  0  0  0  0  0
    4.5866   44.0598   54.1359 H   0  0  0  0  0  0  0  0  0  0  0  0
    4.1825   46.3880   53.8880 H   0  0  0  0  0  0  0  0  0  0  0  0
    5.8247   48.0853   53.4421 H   0  0  0  0  0  0  0  0  0  0  0  0
    6.4288   47.1027   54.8422 H   0  0  0  0  0  0  0  0  0  0  0  0
    8.7008   47.9447   54.4402 H   0  0  0  0  0  0  0  0  0  0  0  0
   10.8342   47.5573   53.2126 H   0  0  0  0  0  0  0  0  0  0  0  0
   10.8382   46.2406   51.0956 H   0  0  0  0  0  0  0  0  0  0  0  0
    8.7071   45.3076   50.1984 H   0  0  0  0  0  0  0  0  0  0  0  0
    6.0879   45.8707   50.2228 H   0  0  0  0  0  0  0  0  0  0  0  0
    6.3354   44.4019   51.2723 H   0  0  0  0  0  0  0  0  0  0  0  0
    2.9502   44.3605   52.7491 H   0  0  0  0  0  0  0  0  0  0  0  0
    1.6740   46.0583   53.5799 H   0  0  0  0  0  0  0  0  0  0  0  0
    1.4609   46.8158   51.9169 H   0  0  0  0  0  0  0  0  0  0  0  0
   -0.6631   45.9638   52.9437 H   0  0  0  0  0  0  0  0  0  0  0  0
   -0.2254   45.2529   51.3313 H   0  0  0  0  0  0  0  0  0  0  0  0
    0.5429   40.8170   53.2222 H   0  0  0  0  0  0  0  0  0  0  0  0
    2.3532   42.0796   51.6331 H   0  0  0  0  0  0  0  0  0  0  0  0
    0.9037   42.2917   50.5303 H   0  0  0  0  0  0  0  0  0  0  0  0
    2.9120   43.8366   50.1344 H   0  0  0  0  0  0  0  0  0  0  0  0
    1.2512   44.5793   50.3034 H   0  0  0  0  0  0  0  0  0  0  0  0
  1  2  1  0
  2  3  1  0
  3  4  1  0
  4  5  1  0
  5  6  2  0
  6  7  1  0
  7  8  2  0
  8  9  1  0
  9 10  2  0
 10 11  1  0
 11 12  1  0
 12 13  1  0
 13 14  2  0
 13 15  1  0
 15 16  1  0
 16 17  1  0
 17 18  1  0
 18 19  2  0
 19 20  1  0
 20 21  2  0
 21 22  1  0
 22 23  1  0
 23 24  1  0
 12  3  1  0
 24 15  1  0
 10  5  1  0
 22 18  1  0
  1 25  1  0
  1 26  1  0
  1 27  1  0
  2 28  1  0
  2 29  1  0
  3 30  1  1
  4 31  1  0
  4 32  1  0
  6 33  1  0
  7 34  1  0
  8 35  1  0
  9 36  1  0
 11 37  1  0
 11 38  1  0
 15 39  1  1
 16 40  1  0
 16 41  1  0
 17 42  1  0
 17 43  1  0
 21 44  1  0
 23 45  1  0
 23 46  1  0
 24 47  1  0
 24 48  1  0
M  END
>  <meeko>  (4) 
{"is_sidechain": [false], "free_energy": -7.022, "intermolecular_energy": -10.487, "internal_energy": 0.186}

$$$$
ligand_31_conformer_1_docked
     RDKit          3D

 48 51  0  0  0  0  0  0  0  0999 V2000
    6.0900   45.5750   54.3280 C   0  0  0  0  0  0  0  0  0  0  0  0
    5.1650   44.4690   53.8210 C   0  0  0  0  0  0  0  0  0  0  0  0
    4.3160   44.9310   52.6160 C   0  0  1  0  0  0  0  0  0  0  0  0
    5.1540   45.7180   51.6000 C   0  0  0  0  0  0  0  0  0  0  0  0
    6.0780   44.8190   50.8210 C   0  0  0  0  0  0  0  0  0  0  0  0
    7.2350   45.3600   50.2390 C   0  0  0  0  0  0  0  0  0  0  0  0
    8.0830   44.5560   49.4740 C   0  0  0  0  0  0  0  0  0  0  0  0
    7.7780   43.2100   49.2740 C   0  0  0  0  0  0  0  0  0  0  0  0
    6.6210   42.6630   49.8340 C   0  0  0  0  0  0  0  0  0  0  0  0
    5.7570   43.4600   50.6020 C   0  0  0  0  0  0  0  0  0  0  0  0
    4.5260   42.8230   51.2050 C   0  0  0  0  0  0  0  0  0  0  0  0
    3.6870   43.7850   51.9400 N   0  0  0  0  0  0  0  0  0  0  0  0
    2.2720   43.5470   52.1020 C   0  0  0  0  0  0  0  0  0  0  0  0
    1.8850   42.5430   52.7620 O   0  0  0  0  0  0  0  0  0  0  0  0
    1.2370   44.4940   51.5320 C   0  0  1  0  0  0  0  0  0  0  0  0
   -0.0720   43.7270   51.2020 C   0  0  0  0  0  0  0  0  0  0  0  0
   -1.3750   44.2960   51.8450 C   0  0  0  0  0  0  0  0  0  0  0  0
   -1.4230   44.0860   53.3250 C   0  0  0  0  0  0  0  0  0  0  0  0
   -2.4150   43.4290   53.9540 N   0  0  0  0  0  0  0  0  0  0  0  0
   -2.1210   43.4370   55.2460 N   0  0  0  0  0  0  0  0  0  0  0  0
   -0.9570   44.1000   55.3860 C   0  0  0  0  0  0  0  0  0  0  0  0
   -0.4970   44.5330   54.1980 N   0  0  0  0  0  0  0  0  0  0  0  0
    0.7710   45.2370   53.9660 C   0  0  0  0  0  0  0  0  0  0  0  0
    0.9990   45.6760   52.5030 C   0  0  0  0  0  0  0  0  0  0  0  0
    6.0912   45.5764   55.4280 H   0  0  0  0  0  0  0  0  0  0  0  0
    7.1112   45.3961   53.9604 H   0  0  0  0  0  0  0  0  0  0  0  0
    5.7333   46.5485   53.9604 H   0  0  0  0  0  0  0  0  0  0  0  0
    5.7764   43.6073   53.5150 H   0  0  0  0  0  0  0  0  0  0  0  0
    4.4782   44.2001   54.6371 H   0  0  0  0  0  0  0  0  0  0  0  0
    3.5333   45.5924   53.0159 H   0  0  0  0  0  0  0  0  0  0  0  0
    4.4770   46.2269   50.8981 H   0  0  0  0  0  0  0  0  0  0  0  0
    5.7687   46.4436   52.1528 H   0  0  0  0  0  0  0  0  0  0  0  0
    7.4753   46.4233   50.3862 H   0  0  0  0  0  0  0  0  0  0  0  0
    8.9927   44.9851   49.0287 H   0  0  0  0  0  0  0  0  0  0  0  0
    8.4495   42.5780   48.6743 H   0  0  0  0  0  0  0  0  0  0  0  0
    6.3852   41.6008   49.6722 H   0  0  0  0  0  0  0  0  0  0  0  0
    3.9267   42.3809   50.3954 H   0  0  0  0  0  0  0  0  0  0  0  0
    4.8651   42.0626   51.9239 H   0  0  0  0  0  0  0  0  0  0  0  0
    1.6107   44.9184   50.5885 H   0  0  0  0  0  0  0  0  0  0  0  0
   -0.2026   43.7373   50.1098 H   0  0  0  0  0  0  0  0  0  0  0  0
    0.0563   42.7213   51.6287 H   0  0  0  0  0  0  0  0  0  0  0  0
   -1.4270   45.3755   51.6401 H   0  0  0  0  0  0  0  0  0  0  0  0
   -2.2274   43.7587   51.4036 H   0  0  0  0  0  0  0  0  0  0  0  0
   -0.4483   44.2660   56.3471 H   0  0  0  0  0  0  0  0  0  0  0  0
    0.7870   46.1350   54.6011 H   0  0  0  0  0  0  0  0  0  0  0  0
    1.5739   44.5254   54.2088 H   0  0  0  0  0  0  0  0  0  0  0  0
    0.1120   46.2314   52.1642 H   0  0  0  0  0  0  0  0  0  0  0  0
    1.9092   46.2935   52.4893 H   0  0  0  0  0  0  0  0  0  0  0  0
  1  2  1  0
  2  3  1  0
  3  4  1  0
  4  5  1  0
  5  6  2  0
  6  7  1  0
  7  8  2  0
  8  9  1  0
  9 10  2  0
 10 11  1  0
 11 12  1  0
 12 13  1  0
 13 14  2  0
 13 15  1  0
 15 16  1  0
 16 17  1  0
 17 18  1  0
 18 19  2  0
 19 20  1  0
 20 21  2  0
 21 22  1  0
 22 23  1  0
 23 24  1  0
 12  3  1  0
 24 15  1  0
 10  5  1  0
 22 18  1  0
  1 25  1  0
  1 26  1  0
  1 27  1  0
  2 28  1  0
  2 29  1  0
  3 30  1  1
  4 31  1  0
  4 32  1  0
  6 33  1  0
  7 34  1  0
  8 35  1  0
  9 36  1  0
 11 37  1  0
 11 38  1  0
 15 39  1  6
 16 40  1  0
 16 41  1  0
 17 42  1  0
 17 43  1  0
 21 44  1  0
 23 45  1  0
 23 46  1  0
 24 47  1  0
 24 48  1  0
M  END
>  <meeko>  (5) 
{"is_sidechain": [false], "free_energy": -6.666, "intermolecular_energy": -10.127, "internal_energy": 0.349}

$$$$
