MODEL 1
REMARK VINA RESULT:    -8.317      0.000      0.000
REMARK INTER + INTRA:         -10.470
REMARK INTER:                 -10.019
REMARK INTRA:                  -0.451
REMARK UNBOUND:                -0.451
REMARK SMILES Cc1ccc(SCC(=O)N2CCC3(CC2)C[C@H](O)CCO3)cc1
REMARK SMILES IDX 7 1 6 2 5 3 2 4 3 5 23 6 4 7 22 8 1 9 8 10 9 11 10 12 11 13
REMARK SMILES IDX 15 14 12 15 14 16 13 17 16 18 21 19 17 20 20 21 19 22 18 23
REMARK H PARENT 18 24
ROOT
ATOM      1  C   UNL     1       1.701  44.838  53.214  1.00  0.00     0.175 C 
ENDROOT
BRANCH   1   2
ATOM      2  S   UNL     1       1.235  44.326  51.521  1.00  0.00    -0.116 SA
BRANCH   2   3
ATOM      3  C   UNL     1       2.809  43.559  51.132  1.00  0.00     0.008 A 
ATOM      4  C   UNL     1       5.263  42.353  50.493  1.00  0.00    -0.051 A 
ATOM      5  C   UNL     1       5.132  43.750  50.466  1.00  0.00     0.004 A 
ATOM      6  C   UNL     1       4.155  41.563  50.839  1.00  0.00     0.004 A 
ATOM      7  C   UNL     1       3.914  44.351  50.798  1.00  0.00     0.015 A 
ATOM      8  C   UNL     1       2.936  42.165  51.163  1.00  0.00     0.015 A 
ATOM      9  C   UNL     1       6.552  41.707  50.082  1.00  0.00     0.044 C 
ENDBRANCH   2   3
ENDBRANCH   1   2
BRANCH   1  10
ATOM     10  C   UNL     1       2.579  46.063  53.189  1.00  0.00     0.232 C 
ATOM     11  O   UNL     1       2.092  47.118  52.696  1.00  0.00    -0.274 OA
ATOM     12  N   UNL     1       3.920  46.088  53.733  1.00  0.00    -0.342 N 
ATOM     13  C   UNL     1       4.644  44.850  54.079  1.00  0.00     0.122 C 
ATOM     14  C   UNL     1       4.453  47.393  54.158  1.00  0.00     0.122 C 
ATOM     15  C   UNL     1       6.170  44.947  53.852  1.00  0.00     0.057 C 
ATOM     16  C   UNL     1       5.898  47.298  54.655  1.00  0.00     0.057 C 
ATOM     17  C   UNL     1       6.735  46.393  53.723  1.00  0.00     0.074 C 
ATOM     18  C   UNL     1       8.234  46.434  54.185  1.00  0.00     0.067 C 
ATOM     19  O   UNL     1       6.563  46.867  52.383  1.00  0.00    -0.375 OA
ATOM     20  C   UNL     1       9.064  47.455  53.389  1.00  0.00     0.119 C 
ATOM     21  C   UNL     1       7.622  46.488  51.521  1.00  0.00     0.163 C 
ATOM     22  C   UNL     1       8.919  47.231  51.868  1.00  0.00     0.060 C 
BRANCH  20  23
ATOM     23  O   UNL     1       8.737  48.771  53.762  1.00  0.00    -0.393 OA
ATOM     24  H   UNL     1       7.984  48.736  54.408  1.00  0.00     0.210 HD
ENDBRANCH  20  23
ENDBRANCH   1  10
TORSDOF 4
ENDMDL
MODEL 2
REMARK VINA RESULT:    -8.312      2.604      6.914
REMARK INTER + INTRA:         -10.464
REMARK INTER:                 -10.287
REMARK INTRA:                  -0.177
REMARK UNBOUND:                -0.451
REMARK SMILES Cc1ccc(SCC(=O)N2CCC3(CC2)C[C@H](O)CCO3)cc1
REMARK SMILES IDX 7 1 6 2 5 3 2 4 3 5 23 6 4 7 22 8 1 9 8 10 9 11 10 12 11 13
REMARK SMILES IDX 15 14 12 15 14 16 13 17 16 18 21 19 17 20 20 21 19 22 18 23
REMARK H PARENT 18 24
ROOT
ATOM      1  C   UNL     1       6.069  44.586  51.378  1.00  0.00     0.175 C 
ENDROOT
BRANCH   1   2
ATOM      2  S   UNL     1       7.252  45.601  50.421  1.00  0.00    -0.116 SA
BRANCH   2   3
ATOM      3  C   UNL     1       8.171  46.186  51.847  1.00  0.00     0.008 A 
ATOM      4  C   UNL     1       9.609  47.071  54.089  1.00  0.00    -0.051 A 
ATOM      5  C   UNL     1      10.284  46.722  52.909  1.00  0.00     0.004 A 
ATOM      6  C   UNL     1       8.210  46.971  54.140  1.00  0.00     0.004 A 
ATOM      7  C   UNL     1       9.566  46.294  51.788  1.00  0.00     0.015 A 
ATOM      8  C   UNL     1       7.495  46.536  53.021  1.00  0.00     0.015 A 
ATOM      9  C   UNL     1      10.383  47.474  55.310  1.00  0.00     0.044 C 
ENDBRANCH   2   3
ENDBRANCH   1   2
BRANCH   1  10
ATOM     10  C   UNL     1       4.707  45.229  51.417  1.00  0.00     0.232 C 
ATOM     11  O   UNL     1       4.646  46.475  51.225  1.00  0.00    -0.274 OA
ATOM     12  N   UNL     1       3.483  44.483  51.623  1.00  0.00    -0.342 N 
ATOM     13  C   UNL     1       3.493  43.091  52.109  1.00  0.00     0.122 C 
ATOM     14  C   UNL     1       2.238  45.071  51.102  1.00  0.00     0.122 C 
ATOM     15  C   UNL     1       2.279  42.745  53.003  1.00  0.00     0.057 C 
ATOM     16  C   UNL     1       1.009  44.221  51.437  1.00  0.00     0.057 C 
ATOM     17  C   UNL     1       1.072  43.724  52.899  1.00  0.00     0.074 C 
ATOM     18  C   UNL     1      -0.264  42.978  53.243  1.00  0.00     0.067 C 
ATOM     19  O   UNL     1       1.294  44.863  53.739  1.00  0.00    -0.375 OA
ATOM     20  C   UNL     1      -1.280  43.892  53.948  1.00  0.00     0.119 C 
ATOM     21  C   UNL     1       0.877  44.655  55.076  1.00  0.00     0.163 C 
ATOM     22  C   UNL     1      -0.653  44.582  55.180  1.00  0.00     0.060 C 
BRANCH  20  23
ATOM     23  O   UNL     1      -1.832  44.821  53.048  1.00  0.00    -0.393 OA
ATOM     24  H   UNL     1      -1.786  44.438  52.134  1.00  0.00     0.210 HD
ENDBRANCH  20  23
ENDBRANCH   1  10
TORSDOF 4
ENDMDL
MODEL 3
REMARK VINA RESULT:    -8.270      2.911      7.163
REMARK INTER + INTRA:         -10.413
REMARK INTER:                 -10.130
REMARK INTRA:                  -0.283
REMARK UNBOUND:                -0.451
REMARK SMILES Cc1ccc(SCC(=O)N2CCC3(CC2)C[C@H](O)CCO3)cc1
REMARK SMILES IDX 7 1 6 2 5 3 2 4 3 5 23 6 4 7 22 8 1 9 8 10 9 11 10 12 11 13
REMARK SMILES IDX 15 14 12 15 14 16 13 17 16 18 21 19 17 20 20 21 19 22 18 23
REMARK H PARENT 18 24
ROOT
ATOM      1  C   UNL     1       5.724  45.845  51.120  1.00  0.00     0.175 C 
ENDROOT
BRANCH   1   2
ATOM      2  S   UNL     1       7.411  45.589  50.460  1.00  0.00    -0.116 SA
BRANCH   2   3
ATOM      3  C   UNL     1       8.261  46.210  51.913  1.00  0.00     0.008 A 
ATOM      4  C   UNL     1       9.591  47.152  54.199  1.00  0.00    -0.051 A 
ATOM      5  C   UNL     1      10.321  46.767  53.064  1.00  0.00     0.004 A 
ATOM      6  C   UNL     1       8.191  47.057  54.183  1.00  0.00     0.004 A 
ATOM      7  C   UNL     1       9.658  46.312  51.921  1.00  0.00     0.015 A 
ATOM      8  C   UNL     1       7.530  46.594  53.043  1.00  0.00     0.015 A 
ATOM      9  C   UNL     1      10.305  47.586  55.445  1.00  0.00     0.044 C 
ENDBRANCH   2   3
ENDBRANCH   1   2
BRANCH   1  10
ATOM     10  C   UNL     1       4.948  44.553  51.143  1.00  0.00     0.232 C 
ATOM     11  O   UNL     1       5.333  43.628  50.377  1.00  0.00    -0.274 OA
ATOM     12  N   UNL     1       3.820  44.322  52.022  1.00  0.00    -0.342 N 
ATOM     13  C   UNL     1       3.155  45.424  52.743  1.00  0.00     0.122 C 
ATOM     14  C   UNL     1       3.507  42.924  52.365  1.00  0.00     0.122 C 
ATOM     15  C   UNL     1       1.635  45.207  52.928  1.00  0.00     0.057 C 
ATOM     16  C   UNL     1       2.259  42.808  53.245  1.00  0.00     0.057 C 
ATOM     17  C   UNL     1       1.141  43.743  52.732  1.00  0.00     0.074 C 
ATOM     18  C   UNL     1      -0.160  43.491  53.572  1.00  0.00     0.067 C 
ATOM     19  O   UNL     1       0.952  43.474  51.338  1.00  0.00    -0.375 OA
ATOM     20  C   UNL     1      -1.122  42.510  52.883  1.00  0.00     0.119 C 
ATOM     21  C   UNL     1      -0.329  43.859  50.869  1.00  0.00     0.163 C 
ATOM     22  C   UNL     1      -1.428  42.951  51.434  1.00  0.00     0.060 C 
BRANCH  20  23
ATOM     23  O   UNL     1      -0.627  41.194  52.940  1.00  0.00    -0.393 OA
ATOM     24  H   UNL     1      -0.276  40.952  52.044  1.00  0.00     0.210 HD
ENDBRANCH  20  23
ENDBRANCH   1  10
TORSDOF 4
ENDMDL
MODEL 4
REMARK VINA RESULT:    -7.826      2.709      6.116
REMARK INTER + INTRA:          -9.879
REMARK INTER:                  -9.799
REMARK INTRA:                  -0.079
REMARK UNBOUND:                -0.451
REMARK SMILES Cc1ccc(SCC(=O)N2CCC3(CC2)C[C@H](O)CCO3)cc1
REMARK SMILES IDX 7 1 6 2 5 3 2 4 3 5 23 6 4 7 22 8 1 9 8 10 9 11 10 12 11 13
REMARK SMILES IDX 15 14 12 15 14 16 13 17 16 18 21 19 17 20 20 21 19 22 18 23
REMARK H PARENT 18 24
ROOT
ATOM      1  C   UNL     1       6.449  46.443  54.577  1.00  0.00     0.175 C 
ENDROOT
BRANCH   1   2
ATOM      2  S   UNL     1       7.784  47.469  53.865  1.00  0.00    -0.116 SA
BRANCH   2   3
ATOM      3  C   UNL     1       7.992  46.479  52.383  1.00  0.00     0.008 A 
ATOM      4  C   UNL     1       8.318  44.902  50.083  1.00  0.00    -0.051 A 
ATOM      5  C   UNL     1       7.035  45.293  50.497  1.00  0.00     0.004 A 
ATOM      6  C   UNL     1       9.436  45.302  50.831  1.00  0.00     0.004 A 
ATOM      7  C   UNL     1       6.874  46.090  51.634  1.00  0.00     0.015 A 
ATOM      8  C   UNL     1       9.273  46.092  51.972  1.00  0.00     0.015 A 
ATOM      9  C   UNL     1       8.486  44.000  48.896  1.00  0.00     0.044 C 
ENDBRANCH   2   3
ENDBRANCH   1   2
BRANCH   1  10
ATOM     10  C   UNL     1       5.092  47.010  54.247  1.00  0.00     0.232 C 
ATOM     11  O   UNL     1       4.862  48.203  54.584  1.00  0.00    -0.274 OA
ATOM     12  N   UNL     1       4.074  46.264  53.536  1.00  0.00    -0.342 N 
ATOM     13  C   UNL     1       4.166  44.805  53.346  1.00  0.00     0.122 C 
ATOM     14  C   UNL     1       3.062  47.039  52.798  1.00  0.00     0.122 C 
ATOM     15  C   UNL     1       2.791  44.098  53.347  1.00  0.00     0.057 C 
ATOM     16  C   UNL     1       2.007  46.143  52.144  1.00  0.00     0.057 C 
ATOM     17  C   UNL     1       1.562  45.027  53.115  1.00  0.00     0.074 C 
ATOM     18  C   UNL     1       0.386  44.220  52.462  1.00  0.00     0.067 C 
ATOM     19  O   UNL     1       1.180  45.647  54.348  1.00  0.00    -0.375 OA
ATOM     20  C   UNL     1      -0.993  44.715  52.926  1.00  0.00     0.119 C 
ATOM     21  C   UNL     1       0.300  44.849  55.120  1.00  0.00     0.163 C 
ATOM     22  C   UNL     1      -1.085  44.752  54.468  1.00  0.00     0.060 C 
BRANCH  20  23
ATOM     23  O   UNL     1      -1.302  45.961  52.350  1.00  0.00    -0.393 OA
ATOM     24  H   UNL     1      -0.810  46.040  51.492  1.00  0.00     0.210 HD
ENDBRANCH  20  23
ENDBRANCH   1  10
TORSDOF 4
ENDMDL
MODEL 5
REMARK VINA RESULT:    -7.774      2.636      4.959
REMARK INTER + INTRA:          -9.815
REMARK INTER:                  -9.538
REMARK INTRA:                  -0.277
REMARK UNBOUND:                -0.451
REMARK SMILES Cc1ccc(SCC(=O)N2CCC3(CC2)C[C@H](O)CCO3)cc1
REMARK SMILES IDX 7 1 6 2 5 3 2 4 3 5 23 6 4 7 22 8 1 9 8 10 9 11 10 12 11 13
REMARK SMILES IDX 15 14 12 15 14 16 13 17 16 18 21 19 17 20 20 21 19 22 18 23
REMARK H PARENT 18 24
ROOT
ATOM      1  C   UNL     1       2.223  44.374  52.494  1.00  0.00     0.175 C 
ENDROOT
BRANCH   1   2
ATOM      2  S   UNL     1       1.365  43.038  53.402  1.00  0.00    -0.116 SA
BRANCH   2   3
ATOM      3  C   UNL     1       0.679  44.104  54.672  1.00  0.00     0.008 A 
ATOM      4  C   UNL     1      -0.390  45.797  56.639  1.00  0.00    -0.051 A 
ATOM      5  C   UNL     1      -1.241  45.100  55.768  1.00  0.00     0.004 A 
ATOM      6  C   UNL     1       0.999  45.645  56.516  1.00  0.00     0.004 A 
ATOM      7  C   UNL     1      -0.709  44.245  54.797  1.00  0.00     0.015 A 
ATOM      8  C   UNL     1       1.530  44.797  55.540  1.00  0.00     0.015 A 
ATOM      9  C   UNL     1      -0.959  46.757  57.642  1.00  0.00     0.044 C 
ENDBRANCH   2   3
ENDBRANCH   1   2
BRANCH   1  10
ATOM     10  C   UNL     1       3.668  44.024  52.249  1.00  0.00     0.232 C 
ATOM     11  O   UNL     1       4.000  42.811  52.359  1.00  0.00    -0.274 OA
ATOM     12  N   UNL     1       4.665  44.999  51.861  1.00  0.00    -0.342 N 
ATOM     13  C   UNL     1       4.419  46.449  51.967  1.00  0.00     0.122 C 
ATOM     14  C   UNL     1       5.843  44.506  51.128  1.00  0.00     0.122 C 
ATOM     15  C   UNL     1       5.688  47.264  52.311  1.00  0.00     0.057 C 
ATOM     16  C   UNL     1       6.852  45.619  50.831  1.00  0.00     0.057 C 
ATOM     17  C   UNL     1       7.039  46.528  52.067  1.00  0.00     0.074 C 
ATOM     18  C   UNL     1       8.178  47.566  51.770  1.00  0.00     0.067 C 
ATOM     19  O   UNL     1       7.345  45.687  53.186  1.00  0.00    -0.375 OA
ATOM     20  C   UNL     1       9.542  47.111  52.311  1.00  0.00     0.119 C 
ATOM     21  C   UNL     1       8.024  46.372  54.224  1.00  0.00     0.163 C 
ATOM     22  C   UNL     1       9.455  46.740  53.808  1.00  0.00     0.060 C 
BRANCH  20  23
ATOM     23  O   UNL     1      10.066  46.058  51.538  1.00  0.00    -0.393 OA
ATOM     24  H   UNL     1       9.623  45.215  51.816  1.00  0.00     0.210 HD
ENDBRANCH  20  23
ENDBRANCH   1  10
TORSDOF 4
ENDMDL
