ligand_92_conformer_1_docked
     RDKit          3D

 35 37  0  0  0  0  0  0  0  0999 V2000
    1.3500   43.1010   53.9920 O   0  0  0  0  0  0  0  0  0  0  0  0
    2.1790   43.3430   53.0740 C   0  0  0  0  0  0  0  0  0  0  0  0
    2.3590   44.7360   52.5650 C   0  0  0  0  0  0  0  0  0  0  0  0
    3.8330   45.0460   52.2030 C   0  0  1  0  0  0  0  0  0  0  0  0
    3.7910   46.1760   51.3550 O   0  0  0  0  0  0  0  0  0  0  0  0
    4.5910   45.3910   53.4860 C   0  0  0  0  0  0  0  0  0  0  0  0
    4.1400   44.9660   54.5830 O   0  0  0  0  0  0  0  0  0  0  0  0
    5.8220   46.1240   53.5000 N   0  0  0  0  0  0  0  0  0  0  0  0
    6.7420   46.5860   54.5560 C   0  0  0  0  0  0  0  0  0  0  0  0
    7.7230   47.2500   53.6410 C   0  0  0  0  0  0  0  0  0  0  0  0
    9.1030   46.5850   53.6040 C   0  0  0  0  0  0  0  0  0  0  0  0
   10.0700   47.5400   53.3510 F   0  0  0  0  0  0  0  0  0  0  0  0
    6.7820   46.7700   52.5800 C   0  0  0  0  0  0  0  0  0  0  0  0
    4.4850   43.8800   51.4460 C   0  0  0  0  0  0  0  0  0  0  0  0
    5.6440   44.0910   50.6700 C   0  0  0  0  0  0  0  0  0  0  0  0
    6.2610   43.0290   50.0040 C   0  0  0  0  0  0  0  0  0  0  0  0
    7.8250   43.3420   48.9540 Br  0  0  0  0  0  0  0  0  0  0  0  0
    5.7440   41.7380   50.1140 C   0  0  0  0  0  0  0  0  0  0  0  0
    4.6190   41.5020   50.9030 C   0  0  0  0  0  0  0  0  0  0  0  0
    3.9880   42.5580   51.5750 C   0  0  0  0  0  0  0  0  0  0  0  0
    2.8860   42.2780   52.4470 N   0  0  0  0  0  0  0  0  0  0  0  0
    1.7393   44.8664   51.6656 H   0  0  0  0  0  0  0  0  0  0  0  0
    2.0575   45.4275   53.3656 H   0  0  0  0  0  0  0  0  0  0  0  0
    3.8410   45.8800   50.4090 H   0  0  0  0  0  0  0  0  0  0  0  0
    6.2669   47.2926   55.2524 H   0  0  0  0  0  0  0  0  0  0  0  0
    7.1376   45.8225   55.2420 H   0  0  0  0  0  0  0  0  0  0  0  0
    8.0566   48.2928   53.7468 H   0  0  0  0  0  0  0  0  0  0  0  0
    9.3053   46.1068   54.5737 H   0  0  0  0  0  0  0  0  0  0  0  0
    9.1219   45.8255   52.8085 H   0  0  0  0  0  0  0  0  0  0  0  0
    6.3319   47.5944   52.0074 H   0  0  0  0  0  0  0  0  0  0  0  0
    7.2064   46.1453   51.7802 H   0  0  0  0  0  0  0  0  0  0  0  0
    6.0668   45.1032   50.5883 H   0  0  0  0  0  0  0  0  0  0  0  0
    6.2241   40.9060   49.5781 H   0  0  0  0  0  0  0  0  0  0  0  0
    4.2238   40.4799   50.9988 H   0  0  0  0  0  0  0  0  0  0  0  0
    2.6270   41.2900   52.6690 H   0  0  0  0  0  0  0  0  0  0  0  0
  1  2  2  0
  2  3  1  0
  3  4  1  0
  4  5  1  6
  4  6  1  0
  6  7  2  0
  6  8  1  0
  8  9  1  0
  9 10  1  0
 10 11  1  0
 11 12  1  0
 10 13  1  0
  4 14  1  0
 14 15  2  0
 15 16  1  0
 16 17  1  0
 16 18  2  0
 18 19  1  0
 19 20  2  0
 20 21  1  0
 21  2  1  0
 13  8  1  0
 20 14  1  0
  3 22  1  0
  3 23  1  0
  5 24  1  0
  9 25  1  0
  9 26  1  0
 10 27  1  0
 11 28  1  0
 11 29  1  0
 13 30  1  0
 13 31  1  0
 15 32  1  0
 18 33  1  0
 19 34  1  0
 21 35  1  0
M  END
>  <meeko>  (1) 
{"is_sidechain": [false], "free_energy": -8.809, "intermolecular_energy": -10.096, "internal_energy": -0.031}

$$$$
ligand_92_conformer_1_docked
     RDKit          3D

 35 37  0  0  0  0  0  0  0  0999 V2000
    2.3060   45.3790   50.8030 O   0  0  0  0  0  0  0  0  0  0  0  0
    3.3440   45.9360   51.2490 C   0  0  0  0  0  0  0  0  0  0  0  0
    3.2400   47.0540   52.2340 C   0  0  0  0  0  0  0  0  0  0  0  0
    4.3730   47.0200   53.2890 C   0  0  1  0  0  0  0  0  0  0  0  0
    4.4160   48.3160   53.8500 O   0  0  0  0  0  0  0  0  0  0  0  0
    4.0060   46.0020   54.3700 C   0  0  0  0  0  0  0  0  0  0  0  0
    4.9200   45.5650   55.1190 O   0  0  0  0  0  0  0  0  0  0  0  0
    2.6650   45.5610   54.6140 N   0  0  0  0  0  0  0  0  0  0  0  0
    2.0380   44.6170   55.5580 C   0  0  0  0  0  0  0  0  0  0  0  0
    0.6350   44.8080   55.0750 C   0  0  0  0  0  0  0  0  0  0  0  0
   -0.3000   45.4690   56.0930 C   0  0  0  0  0  0  0  0  0  0  0  0
   -1.0280   44.4960   56.7530 F   0  0  0  0  0  0  0  0  0  0  0  0
    1.2840   45.7660   54.1260 C   0  0  0  0  0  0  0  0  0  0  0  0
    5.7330   46.7110   52.6460 C   0  0  0  0  0  0  0  0  0  0  0  0
    6.9300   47.0350   53.3170 C   0  0  0  0  0  0  0  0  0  0  0  0
    8.1710   46.7280   52.7520 C   0  0  0  0  0  0  0  0  0  0  0  0
    9.7790   47.1840   53.6770 Br  0  0  0  0  0  0  0  0  0  0  0  0
    8.2380   46.0790   51.5200 C   0  0  0  0  0  0  0  0  0  0  0  0
    7.0660   45.7190   50.8550 C   0  0  0  0  0  0  0  0  0  0  0  0
    5.8150   46.0230   51.4090 C   0  0  0  0  0  0  0  0  0  0  0  0
    4.6260   45.5690   50.7500 N   0  0  0  0  0  0  0  0  0  0  0  0
    3.2919   48.0091   51.6908 H   0  0  0  0  0  0  0  0  0  0  0  0
    2.2836   46.9437   52.7660 H   0  0  0  0  0  0  0  0  0  0  0  0
    3.6570   48.8530   53.5020 H   0  0  0  0  0  0  0  0  0  0  0  0
    2.3950   43.5851   55.4250 H   0  0  0  0  0  0  0  0  0  0  0  0
    2.2239   44.7854   56.6290 H   0  0  0  0  0  0  0  0  0  0  0  0
   -0.0280   43.9859   54.7674 H   0  0  0  0  0  0  0  0  0  0  0  0
    0.2957   46.0382   56.8218 H   0  0  0  0  0  0  0  0  0  0  0  0
   -0.9884   46.1489   55.5697 H   0  0  0  0  0  0  0  0  0  0  0  0
    1.1578   45.4719   53.0736 H   0  0  0  0  0  0  0  0  0  0  0  0
    0.9038   46.7982   54.1187 H   0  0  0  0  0  0  0  0  0  0  0  0
    6.8867   47.5349   54.2959 H   0  0  0  0  0  0  0  0  0  0  0  0
    9.2163   45.8506   51.0719 H   0  0  0  0  0  0  0  0  0  0  0  0
    7.1239   45.1936   49.8903 H   0  0  0  0  0  0  0  0  0  0  0  0
    4.6920   44.9230   49.9310 H   0  0  0  0  0  0  0  0  0  0  0  0
  1  2  2  0
  2  3  1  0
  3  4  1  0
  4  5  1  1
  4  6  1  0
  6  7  2  0
  6  8  1  0
  8  9  1  0
  9 10  1  0
 10 11  1  0
 11 12  1  0
 10 13  1  0
  4 14  1  0
 14 15  2  0
 15 16  1  0
 16 17  1  0
 16 18  2  0
 18 19  1  0
 19 20  2  0
 20 21  1  0
 21  2  1  0
 13  8  1  0
 20 14  1  0
  3 22  1  0
  3 23  1  0
  5 24  1  0
  9 25  1  0
  9 26  1  0
 10 27  1  0
 11 28  1  0
 11 29  1  0
 13 30  1  0
 13 31  1  0
 15 32  1  0
 18 33  1  0
 19 34  1  0
 21 35  1  0
M  END
>  <meeko>  (2) 
{"is_sidechain": [false], "free_energy": -8.152, "intermolecular_energy": -9.742, "internal_energy": 0.368}

$$$$
ligand_92_conformer_1_docked
     RDKit          3D

 35 37  0  0  0  0  0  0  0  0999 V2000
    4.6520   48.1410   54.5820 O   0  0  0  0  0  0  0  0  0  0  0  0
    4.9780   47.1120   53.9320 C   0  0  0  0  0  0  0  0  0  0  0  0
    4.3670   45.7880   54.2550 C   0  0  0  0  0  0  0  0  0  0  0  0
    4.1220   44.9250   52.9920 C   0  0  1  0  0  0  0  0  0  0  0  0
    3.9750   43.5980   53.4550 O   0  0  0  0  0  0  0  0  0  0  0  0
    2.8250   45.3880   52.3270 C   0  0  0  0  0  0  0  0  0  0  0  0
    2.9020   46.0710   51.2710 O   0  0  0  0  0  0  0  0  0  0  0  0
    1.5230   45.0340   52.8100 N   0  0  0  0  0  0  0  0  0  0  0  0
    0.1430   45.3300   52.3830 C   0  0  0  0  0  0  0  0  0  0  0  0
   -0.5350   44.5550   53.4690 C   0  0  0  0  0  0  0  0  0  0  0  0
   -1.3140   43.3300   52.9800 C   0  0  0  0  0  0  0  0  0  0  0  0
   -2.6630   43.5080   53.2310 F   0  0  0  0  0  0  0  0  0  0  0  0
    0.8710   44.2610   53.8880 C   0  0  0  0  0  0  0  0  0  0  0  0
    5.3170   44.9850   52.0290 C   0  0  0  0  0  0  0  0  0  0  0  0
    5.4960   43.9860   51.0500 C   0  0  0  0  0  0  0  0  0  0  0  0
    6.5620   44.0510   50.1490 C   0  0  0  0  0  0  0  0  0  0  0  0
    6.7880   42.6800   48.8380 Br  0  0  0  0  0  0  0  0  0  0  0  0
    7.4550   45.1210   50.1970 C   0  0  0  0  0  0  0  0  0  0  0  0
    7.2760   46.1380   51.1340 C   0  0  0  0  0  0  0  0  0  0  0  0
    6.2130   46.0840   52.0460 C   0  0  0  0  0  0  0  0  0  0  0  0
    6.0000   47.1810   52.9430 N   0  0  0  0  0  0  0  0  0  0  0  0
    5.0432   45.2424   54.9296 H   0  0  0  0  0  0  0  0  0  0  0  0
    3.3911   45.9758   54.7265 H   0  0  0  0  0  0  0  0  0  0  0  0
    3.7380   43.0070   52.6930 H   0  0  0  0  0  0  0  0  0  0  0  0
   -0.0907   46.4043   52.4199 H   0  0  0  0  0  0  0  0  0  0  0  0
   -0.1241   45.0751   51.3468 H   0  0  0  0  0  0  0  0  0  0  0  0
   -1.3050   44.9715   54.1351 H   0  0  0  0  0  0  0  0  0  0  0  0
   -1.1563   43.2034   51.8988 H   0  0  0  0  0  0  0  0  0  0  0  0
   -0.9584   42.4347   53.5110 H   0  0  0  0  0  0  0  0  0  0  0  0
    1.1051   44.6497   54.8900 H   0  0  0  0  0  0  0  0  0  0  0  0
    1.1530   43.2022   53.9851 H   0  0  0  0  0  0  0  0  0  0  0  0
    4.7882   43.1458   50.9950 H   0  0  0  0  0  0  0  0  0  0  0  0
    8.3011   45.1628   49.4953 H   0  0  0  0  0  0  0  0  0  0  0  0
    7.9736   46.9882   51.1576 H   0  0  0  0  0  0  0  0  0  0  0  0
    6.5580   48.0600   52.8430 H   0  0  0  0  0  0  0  0  0  0  0  0
  1  2  2  0
  2  3  1  0
  3  4  1  0
  4  5  1  1
  4  6  1  0
  6  7  2  0
  6  8  1  0
  8  9  1  0
  9 10  1  0
 10 11  1  0
 11 12  1  0
 10 13  1  0
  4 14  1  0
 14 15  2  0
 15 16  1  0
 16 17  1  0
 16 18  2  0
 18 19  1  0
 19 20  2  0
 20 21  1  0
 21  2  1  0
 13  8  1  0
 20 14  1  0
  3 22  1  0
  3 23  1  0
  5 24  1  0
  9 25  1  0
  9 26  1  0
 10 27  1  0
 11 28  1  0
 11 29  1  0
 13 30  1  0
 13 31  1  0
 15 32  1  0
 18 33  1  0
 19 34  1  0
 21 35  1  0
M  END
>  <meeko>  (3) 
{"is_sidechain": [false], "free_energy": -8.007, "intermolecular_energy": -8.937, "internal_energy": -0.271}

$$$$
ligand_92_conformer_1_docked
     RDKit          3D

 35 37  0  0  0  0  0  0  0  0999 V2000
    5.4330   45.3330   55.9110 O   0  0  0  0  0  0  0  0  0  0  0  0
    4.3810   45.5790   55.2620 C   0  0  0  0  0  0  0  0  0  0  0  0
    4.2600   46.8350   54.4630 C   0  0  0  0  0  0  0  0  0  0  0  0
    3.4750   46.6240   53.1450 C   0  0  1  0  0  0  0  0  0  0  0  0
    3.0640   47.9110   52.7310 O   0  0  0  0  0  0  0  0  0  0  0  0
    4.4190   46.0230   52.1030 C   0  0  0  0  0  0  0  0  0  0  0  0
    3.9200   45.4730   51.0850 O   0  0  0  0  0  0  0  0  0  0  0  0
    5.8470   46.1050   52.1950 N   0  0  0  0  0  0  0  0  0  0  0  0
    6.9690   45.6290   51.3630 C   0  0  0  0  0  0  0  0  0  0  0  0
    8.0600   46.1660   52.2360 C   0  0  0  0  0  0  0  0  0  0  0  0
    8.8850   47.2880   51.5980 C   0  0  0  0  0  0  0  0  0  0  0  0
   10.2220   47.1100   51.9020 F   0  0  0  0  0  0  0  0  0  0  0  0
    6.9110   46.6450   53.0670 C   0  0  0  0  0  0  0  0  0  0  0  0
    2.2300   45.7510   53.3640 C   0  0  0  0  0  0  0  0  0  0  0  0
    1.1710   45.7720   52.4340 C   0  0  0  0  0  0  0  0  0  0  0  0
    0.0490   44.9570   52.6100 C   0  0  0  0  0  0  0  0  0  0  0  0
   -1.3770   45.0090   51.3400 Br  0  0  0  0  0  0  0  0  0  0  0  0
   -0.0260   44.0960   53.7040 C   0  0  0  0  0  0  0  0  0  0  0  0
    1.0260   44.0350   54.6180 C   0  0  0  0  0  0  0  0  0  0  0  0
    2.1560   44.8490   54.4560 C   0  0  0  0  0  0  0  0  0  0  0  0
    3.2600   44.7070   55.3580 N   0  0  0  0  0  0  0  0  0  0  0  0
    3.7369   47.5897   55.0686 H   0  0  0  0  0  0  0  0  0  0  0  0
    5.2761   47.1632   54.1988 H   0  0  0  0  0  0  0  0  0  0  0  0
    2.2050   48.1410   53.1730 H   0  0  0  0  0  0  0  0  0  0  0  0
    6.9968   44.5328   51.2760 H   0  0  0  0  0  0  0  0  0  0  0  0
    6.9752   45.9404   50.3080 H   0  0  0  0  0  0  0  0  0  0  0  0
    8.8940   45.5620   52.6230 H   0  0  0  0  0  0  0  0  0  0  0  0
    8.7515   47.2654   50.5064 H   0  0  0  0  0  0  0  0  0  0  0  0
    8.5470   48.2586   51.9899 H   0  0  0  0  0  0  0  0  0  0  0  0
    6.9010   46.2006   54.0732 H   0  0  0  0  0  0  0  0  0  0  0  0
    6.8729   47.7205   53.2946 H   0  0  0  0  0  0  0  0  0  0  0  0
    1.2281   46.4373   51.5598 H   0  0  0  0  0  0  0  0  0  0  0  0
   -0.9153   43.4644   53.8465 H   0  0  0  0  0  0  0  0  0  0  0  0
    0.9686   43.3436   55.4716 H   0  0  0  0  0  0  0  0  0  0  0  0
    3.2720   43.9300   56.0580 H   0  0  0  0  0  0  0  0  0  0  0  0
  1  2  2  0
  2  3  1  0
  3  4  1  0
  4  5  1  6
  4  6  1  0
  6  7  2  0
  6  8  1  0
  8  9  1  0
  9 10  1  0
 10 11  1  0
 11 12  1  0
 10 13  1  0
  4 14  1  0
 14 15  2  0
 15 16  1  0
 16 17  1  0
 16 18  2  0
 18 19  1  0
 19 20  2  0
 20 21  1  0
 21  2  1  0
 13  8  1  0
 20 14  1  0
  3 22  1  0
  3 23  1  0
  5 24  1  0
  9 25  1  0
  9 26  1  0
 10 27  1  0
 11 28  1  0
 11 29  1  0
 13 30  1  0
 13 31  1  0
 15 32  1  0
 18 33  1  0
 19 34  1  0
 21 35  1  0
M  END
>  <meeko>  (4) 
{"is_sidechain": [false], "free_energy": -7.499, "intermolecular_energy": -9.015, "internal_energy": 0.389}

$$$$
ligand_92_conformer_1_docked
     RDKit          3D

 35 37  0  0  0  0  0  0  0  0999 V2000
    3.9670   43.4510   50.7940 O   0  0  0  0  0  0  0  0  0  0  0  0
    3.6150   43.7030   51.9780 C   0  0  0  0  0  0  0  0  0  0  0  0
    4.6310   43.7870   53.0690 C   0  0  0  0  0  0  0  0  0  0  0  0
    4.2900   44.8820   54.1100 C   0  0  1  0  0  0  0  0  0  0  0  0
    5.0440   44.5650   55.2630 O   0  0  0  0  0  0  0  0  0  0  0  0
    4.7320   46.2380   53.5600 C   0  0  0  0  0  0  0  0  0  0  0  0
    3.8720   47.1510   53.4490 O   0  0  0  0  0  0  0  0  0  0  0  0
    6.0900   46.5430   53.2170 N   0  0  0  0  0  0  0  0  0  0  0  0
    6.7820   47.7290   52.6800 C   0  0  0  0  0  0  0  0  0  0  0  0
    8.1510   47.1230   52.6520 C   0  0  0  0  0  0  0  0  0  0  0  0
    9.1450   47.7610   53.6270 C   0  0  0  0  0  0  0  0  0  0  0  0
   10.4100   47.2500   53.4000 F   0  0  0  0  0  0  0  0  0  0  0  0
    7.4350   45.9280   53.2000 C   0  0  0  0  0  0  0  0  0  0  0  0
    2.7980   44.8670   54.4750 C   0  0  0  0  0  0  0  0  0  0  0  0
    2.3490   45.4670   55.6690 C   0  0  0  0  0  0  0  0  0  0  0  0
    0.9890   45.4860   55.9920 C   0  0  0  0  0  0  0  0  0  0  0  0
    0.4060   46.2980   57.6200 Br  0  0  0  0  0  0  0  0  0  0  0  0
    0.0550   44.9260   55.1210 C   0  0  0  0  0  0  0  0  0  0  0  0
    0.4740   44.3580   53.9190 C   0  0  0  0  0  0  0  0  0  0  0  0
    1.8350   44.3290   53.5840 C   0  0  0  0  0  0  0  0  0  0  0  0
    2.2340   43.8180   52.3050 N   0  0  0  0  0  0  0  0  0  0  0  0
    4.6800   42.8150   53.5818 H   0  0  0  0  0  0  0  0  0  0  0  0
    5.5955   44.0494   52.6098 H   0  0  0  0  0  0  0  0  0  0  0  0
    6.0120   44.6200   55.0500 H   0  0  0  0  0  0  0  0  0  0  0  0
    6.4234   48.0117   51.6793 H   0  0  0  0  0  0  0  0  0  0  0  0
    6.6645   48.6699   53.2376 H   0  0  0  0  0  0  0  0  0  0  0  0
    8.7983   47.1030   51.7628 H   0  0  0  0  0  0  0  0  0  0  0  0
    9.1577   48.8505   53.4762 H   0  0  0  0  0  0  0  0  0  0  0  0
    8.8398   47.5359   54.6596 H   0  0  0  0  0  0  0  0  0  0  0  0
    7.4941   45.0552   52.5331 H   0  0  0  0  0  0  0  0  0  0  0  0
    7.8074   45.5129   54.1482 H   0  0  0  0  0  0  0  0  0  0  0  0
    3.0771   45.9255   56.3544 H   0  0  0  0  0  0  0  0  0  0  0  0
   -1.0134   44.9325   55.3827 H   0  0  0  0  0  0  0  0  0  0  0  0
   -0.2679   43.9298   53.2289 H   0  0  0  0  0  0  0  0  0  0  0  0
    1.5140   43.5760   51.5870 H   0  0  0  0  0  0  0  0  0  0  0  0
  1  2  2  0
  2  3  1  0
  3  4  1  0
  4  5  1  1
  4  6  1  0
  6  7  2  0
  6  8  1  0
  8  9  1  0
  9 10  1  0
 10 11  1  0
 11 12  1  0
 10 13  1  0
  4 14  1  0
 14 15  2  0
 15 16  1  0
 16 17  1  0
 16 18  2  0
 18 19  1  0
 19 20  2  0
 20 21  1  0
 21  2  1  0
 13  8  1  0
 20 14  1  0
  3 22  1  0
  3 23  1  0
  5 24  1  0
  9 25  1  0
  9 26  1  0
 10 27  1  0
 11 28  1  0
 11 29  1  0
 13 30  1  0
 13 31  1  0
 15 32  1  0
 18 33  1  0
 19 34  1  0
 21 35  1  0
M  END
>  <meeko>  (5) 
{"is_sidechain": [false], "free_energy": -7.389, "intermolecular_energy": -8.271, "internal_energy": -0.229}

$$$$
