ligand_13_conformer_4_docked
     RDKit          3D

 40 42  0  0  0  0  0  0  0  0999 V2000
    2.8740   45.4360   51.2030 O   0  0  0  0  0  0  0  0  0  0  0  0
    3.1680   44.9190   52.3160 C   0  0  0  0  0  0  0  0  0  0  0  0
    4.4050   44.2000   52.4630 N   0  0  0  0  0  0  0  0  0  0  0  0
    5.5420   44.3830   51.6010 C   0  0  0  0  0  0  0  0  0  0  0  0
    5.7940   43.5090   50.5280 C   0  0  0  0  0  0  0  0  0  0  0  0
    6.8900   43.7220   49.6900 C   0  0  0  0  0  0  0  0  0  0  0  0
    7.7370   44.8110   49.9050 C   0  0  0  0  0  0  0  0  0  0  0  0
    7.4930   45.7040   50.9540 C   0  0  0  0  0  0  0  0  0  0  0  0
    8.3690   46.7880   51.1200 O   0  0  0  0  0  0  0  0  0  0  0  0
    8.4350   47.6090   52.2820 C   0  0  0  0  0  0  0  0  0  0  0  0
    9.7030   47.5490   52.8330 F   0  0  0  0  0  0  0  0  0  0  0  0
    8.1620   48.9160   51.9290 F   0  0  0  0  0  0  0  0  0  0  0  0
    6.3850   45.4880   51.7970 C   0  0  0  0  0  0  0  0  0  0  0  0
    2.2080   45.0180   53.4430 C   0  0  0  0  0  0  0  0  0  0  0  0
    0.8260   44.8670   53.2300 C   0  0  0  0  0  0  0  0  0  0  0  0
   -0.0710   44.9560   54.2980 C   0  0  0  0  0  0  0  0  0  0  0  0
    0.3950   45.2070   55.6000 C   0  0  0  0  0  0  0  0  0  0  0  0
   -0.5050   45.2790   56.7180 N   0  0  0  0  0  0  0  0  0  0  0  0
   -0.7840   46.4780   57.4540 C   0  0  0  0  0  0  0  0  0  0  0  0
   -0.0340   46.8250   58.5370 N   0  0  0  0  0  0  0  0  0  0  0  0
   -0.3120   47.9440   59.2540 C   0  0  0  0  0  0  0  0  0  0  0  0
   -1.3860   48.7530   58.8920 C   0  0  0  0  0  0  0  0  0  0  0  0
   -2.1550   48.3800   57.7900 C   0  0  0  0  0  0  0  0  0  0  0  0
   -1.8450   47.2530   57.0970 N   0  0  0  0  0  0  0  0  0  0  0  0
    1.7740   45.3230   55.8190 C   0  0  0  0  0  0  0  0  0  0  0  0
    2.6730   45.2330   54.7520 C   0  0  0  0  0  0  0  0  0  0  0  0
    4.4400   43.4220   53.1590 H   0  0  0  0  0  0  0  0  0  0  0  0
    5.1249   42.6545   50.3486 H   0  0  0  0  0  0  0  0  0  0  0  0
    7.0869   43.0299   48.8580 H   0  0  0  0  0  0  0  0  0  0  0  0
    8.6026   44.9680   49.2447 H   0  0  0  0  0  0  0  0  0  0  0  0
    7.6999   47.2519   53.0182 H   0  0  0  0  0  0  0  0  0  0  0  0
    6.1786   46.1920   52.6166 H   0  0  0  0  0  0  0  0  0  0  0  0
    0.4481   44.6773   52.2145 H   0  0  0  0  0  0  0  0  0  0  0  0
   -1.1488   44.8288   54.1184 H   0  0  0  0  0  0  0  0  0  0  0  0
   -0.9240   44.3890   57.0710 H   0  0  0  0  0  0  0  0  0  0  0  0
    0.3108   48.2113   60.1204 H   0  0  0  0  0  0  0  0  0  0  0  0
   -1.6221   49.6641   59.4614 H   0  0  0  0  0  0  0  0  0  0  0  0
   -3.0117   48.9975   57.4821 H   0  0  0  0  0  0  0  0  0  0  0  0
    2.1525   45.4862   56.8389 H   0  0  0  0  0  0  0  0  0  0  0  0
    3.7526   45.3312   54.9383 H   0  0  0  0  0  0  0  0  0  0  0  0
  1  2  2  0
  2  3  1  0
  3  4  1  0
  4  5  2  0
  5  6  1  0
  6  7  2  0
  7  8  1  0
  8  9  1  0
  9 10  1  0
 10 11  1  0
 10 12  1  0
  8 13  2  0
  2 14  1  0
 14 15  2  0
 15 16  1  0
 16 17  2  0
 17 18  1  0
 18 19  1  0
 19 20  2  0
 20 21  1  0
 21 22  2  0
 22 23  1  0
 23 24  2  0
 17 25  1  0
 25 26  2  0
 13  4  1  0
 26 14  1  0
 24 19  1  0
  3 27  1  0
  5 28  1  0
  6 29  1  0
  7 30  1  0
 10 31  1  0
 13 32  1  0
 15 33  1  0
 16 34  1  0
 18 35  1  0
 21 36  1  0
 22 37  1  0
 23 38  1  0
 25 39  1  0
 26 40  1  0
M  END
>  <meeko>  (1) 
{"is_sidechain": [false], "free_energy": -8.334, "intermolecular_energy": -11.257, "internal_energy": -0.765}

$$$$
ligand_13_conformer_4_docked
     RDKit          3D

 40 42  0  0  0  0  0  0  0  0999 V2000
    5.0160   47.8480   53.9840 O   0  0  0  0  0  0  0  0  0  0  0  0
    4.7680   46.7540   53.4070 C   0  0  0  0  0  0  0  0  0  0  0  0
    5.7540   46.1660   52.5400 N   0  0  0  0  0  0  0  0  0  0  0  0
    7.1580   46.4710   52.6060 C   0  0  0  0  0  0  0  0  0  0  0  0
    7.8600   46.9330   51.4780 C   0  0  0  0  0  0  0  0  0  0  0  0
    9.2170   47.2460   51.5730 C   0  0  0  0  0  0  0  0  0  0  0  0
    9.8840   47.1130   52.7930 C   0  0  0  0  0  0  0  0  0  0  0  0
    9.2010   46.6750   53.9320 C   0  0  0  0  0  0  0  0  0  0  0  0
    9.9160   46.5690   55.1350 O   0  0  0  0  0  0  0  0  0  0  0  0
   10.6870   47.6150   55.7180 C   0  0  0  0  0  0  0  0  0  0  0  0
    9.8590   48.6550   56.1030 F   0  0  0  0  0  0  0  0  0  0  0  0
   11.3430   47.1270   56.8310 F   0  0  0  0  0  0  0  0  0  0  0  0
    7.8300   46.3620   53.8340 C   0  0  0  0  0  0  0  0  0  0  0  0
    3.4420   46.1150   53.5920 C   0  0  0  0  0  0  0  0  0  0  0  0
    2.4090   46.3100   52.6570 C   0  0  0  0  0  0  0  0  0  0  0  0
    1.1640   45.7000   52.8360 C   0  0  0  0  0  0  0  0  0  0  0  0
    0.9240   44.8900   53.9590 C   0  0  0  0  0  0  0  0  0  0  0  0
   -0.3400   44.2320   54.1530 N   0  0  0  0  0  0  0  0  0  0  0  0
   -1.1800   44.4210   55.3000 C   0  0  0  0  0  0  0  0  0  0  0  0
   -1.1690   45.5950   55.9890 N   0  0  0  0  0  0  0  0  0  0  0  0
   -1.9410   45.7690   57.0930 C   0  0  0  0  0  0  0  0  0  0  0  0
   -2.7530   44.7300   57.5430 C   0  0  0  0  0  0  0  0  0  0  0  0
   -2.7450   43.5280   56.8370 C   0  0  0  0  0  0  0  0  0  0  0  0
   -1.9590   43.3940   55.7360 N   0  0  0  0  0  0  0  0  0  0  0  0
    1.9630   44.6650   54.8720 C   0  0  0  0  0  0  0  0  0  0  0  0
    3.2090   45.2750   54.6940 C   0  0  0  0  0  0  0  0  0  0  0  0
    5.4190   45.5770   51.7450 H   0  0  0  0  0  0  0  0  0  0  0  0
    7.3374   47.0481   50.5170 H   0  0  0  0  0  0  0  0  0  0  0  0
    9.7624   47.5982   50.6850 H   0  0  0  0  0  0  0  0  0  0  0  0
   10.9551   47.3547   52.8584 H   0  0  0  0  0  0  0  0  0  0  0  0
   11.4144   47.9831   54.9795 H   0  0  0  0  0  0  0  0  0  0  0  0
    7.2817   46.0293   54.7277 H   0  0  0  0  0  0  0  0  0  0  0  0
    2.5825   46.9478   51.7777 H   0  0  0  0  0  0  0  0  0  0  0  0
    0.3674   45.8550   52.0934 H   0  0  0  0  0  0  0  0  0  0  0  0
   -0.6310   43.5100   53.4550 H   0  0  0  0  0  0  0  0  0  0  0  0
   -1.9252   46.7284   57.6308 H   0  0  0  0  0  0  0  0  0  0  0  0
   -3.3854   44.8552   58.4343 H   0  0  0  0  0  0  0  0  0  0  0  0
   -3.3738   42.6892   57.1703 H   0  0  0  0  0  0  0  0  0  0  0  0
    1.7974   44.0036   55.7352 H   0  0  0  0  0  0  0  0  0  0  0  0
    4.0132   45.0956   55.4228 H   0  0  0  0  0  0  0  0  0  0  0  0
  1  2  2  0
  2  3  1  0
  3  4  1  0
  4  5  2  0
  5  6  1  0
  6  7  2  0
  7  8  1  0
  8  9  1  0
  9 10  1  0
 10 11  1  0
 10 12  1  0
  8 13  2  0
  2 14  1  0
 14 15  2  0
 15 16  1  0
 16 17  2  0
 17 18  1  0
 18 19  1  0
 19 20  2  0
 20 21  1  0
 21 22  2  0
 22 23  1  0
 23 24  2  0
 17 25  1  0
 25 26  2  0
 13  4  1  0
 26 14  1  0
 24 19  1  0
  3 27  1  0
  5 28  1  0
  6 29  1  0
  7 30  1  0
 10 31  1  0
 13 32  1  0
 15 33  1  0
 16 34  1  0
 18 35  1  0
 21 36  1  0
 22 37  1  0
 23 38  1  0
 25 39  1  0
 26 40  1  0
M  END
>  <meeko>  (2) 
{"is_sidechain": [false], "free_energy": -8.223, "intermolecular_energy": -11.286, "internal_energy": -0.586}

$$$$
ligand_13_conformer_4_docked
     RDKit          3D

 40 42  0  0  0  0  0  0  0  0999 V2000
    5.0450   47.9610   53.8820 O   0  0  0  0  0  0  0  0  0  0  0  0
    4.7910   46.7940   53.4740 C   0  0  0  0  0  0  0  0  0  0  0  0
    5.7590   46.0930   52.6750 N   0  0  0  0  0  0  0  0  0  0  0  0
    7.1620   46.4100   52.6590 C   0  0  0  0  0  0  0  0  0  0  0  0
    7.7960   46.8630   51.4880 C   0  0  0  0  0  0  0  0  0  0  0  0
    9.1530   47.1890   51.5040 C   0  0  0  0  0  0  0  0  0  0  0  0
    9.8880   47.0770   52.6860 C   0  0  0  0  0  0  0  0  0  0  0  0
    9.2730   46.6470   53.8670 C   0  0  0  0  0  0  0  0  0  0  0  0
   10.0540   46.5620   55.0300 O   0  0  0  0  0  0  0  0  0  0  0  0
   10.6800   47.6690   55.6720 C   0  0  0  0  0  0  0  0  0  0  0  0
    9.7300   48.6140   56.0170 F   0  0  0  0  0  0  0  0  0  0  0  0
   11.3120   47.2290   56.8180 F   0  0  0  0  0  0  0  0  0  0  0  0
    7.9020   46.3210   53.8490 C   0  0  0  0  0  0  0  0  0  0  0  0
    3.4750   46.1840   53.7840 C   0  0  0  0  0  0  0  0  0  0  0  0
    3.2460   45.5480   55.0190 C   0  0  0  0  0  0  0  0  0  0  0  0
    2.0020   44.9800   55.3040 C   0  0  0  0  0  0  0  0  0  0  0  0
    0.9640   45.0270   54.3580 C   0  0  0  0  0  0  0  0  0  0  0  0
   -0.3320   44.4710   54.6390 N   0  0  0  0  0  0  0  0  0  0  0  0
   -1.2270   43.9650   53.6390 C   0  0  0  0  0  0  0  0  0  0  0  0
   -2.4270   44.5640   53.4050 N   0  0  0  0  0  0  0  0  0  0  0  0
   -3.2890   44.0720   52.4790 C   0  0  0  0  0  0  0  0  0  0  0  0
   -2.9560   42.9270   51.7580 C   0  0  0  0  0  0  0  0  0  0  0  0
   -1.7310   42.3140   52.0170 C   0  0  0  0  0  0  0  0  0  0  0  0
   -0.8940   42.8380   52.9500 N   0  0  0  0  0  0  0  0  0  0  0  0
    1.1780   45.6910   53.1430 C   0  0  0  0  0  0  0  0  0  0  0  0
    2.4230   46.2600   52.8560 C   0  0  0  0  0  0  0  0  0  0  0  0
    5.4090   45.3930   51.9830 H   0  0  0  0  0  0  0  0  0  0  0  0
    7.2201   46.9607   50.5559 H   0  0  0  0  0  0  0  0  0  0  0  0
    9.6449   47.5351   50.5830 H   0  0  0  0  0  0  0  0  0  0  0  0
   10.9588   47.3288   52.6887 H   0  0  0  0  0  0  0  0  0  0  0  0
   11.4106   48.1203   54.9846 H   0  0  0  0  0  0  0  0  0  0  0  0
    7.4072   45.9939   54.7754 H   0  0  0  0  0  0  0  0  0  0  0  0
    4.0527   45.4980   55.7651 H   0  0  0  0  0  0  0  0  0  0  0  0
    1.8338   44.4926   56.2757 H   0  0  0  0  0  0  0  0  0  0  0  0
   -0.6820   44.5100   55.6230 H   0  0  0  0  0  0  0  0  0  0  0  0
   -4.2495   44.5767   52.2979 H   0  0  0  0  0  0  0  0  0  0  0  0
   -3.6429   42.5169   51.0030 H   0  0  0  0  0  0  0  0  0  0  0  0
   -1.4423   41.4066   51.4663 H   0  0  0  0  0  0  0  0  0  0  0  0
    0.3613   45.7653   52.4098 H   0  0  0  0  0  0  0  0  0  0  0  0
    2.5799   46.7716   51.8950 H   0  0  0  0  0  0  0  0  0  0  0  0
  1  2  2  0
  2  3  1  0
  3  4  1  0
  4  5  2  0
  5  6  1  0
  6  7  2  0
  7  8  1  0
  8  9  1  0
  9 10  1  0
 10 11  1  0
 10 12  1  0
  8 13  2  0
  2 14  1  0
 14 15  2  0
 15 16  1  0
 16 17  2  0
 17 18  1  0
 18 19  1  0
 19 20  2  0
 20 21  1  0
 21 22  2  0
 22 23  1  0
 23 24  2  0
 17 25  1  0
 25 26  2  0
 13  4  1  0
 26 14  1  0
 24 19  1  0
  3 27  1  0
  5 28  1  0
  6 29  1  0
  7 30  1  0
 10 31  1  0
 13 32  1  0
 15 33  1  0
 16 34  1  0
 18 35  1  0
 21 36  1  0
 22 37  1  0
 23 38  1  0
 25 39  1  0
 26 40  1  0
M  END
>  <meeko>  (3) 
{"is_sidechain": [false], "free_energy": -8.118, "intermolecular_energy": -11.035, "internal_energy": -0.695}

$$$$
ligand_13_conformer_4_docked
     RDKit          3D

 40 42  0  0  0  0  0  0  0  0999 V2000
    6.7290   44.5540   50.5580 O   0  0  0  0  0  0  0  0  0  0  0  0
    5.8100   43.8120   51.0000 C   0  0  0  0  0  0  0  0  0  0  0  0
    5.3290   43.9960   52.3430 N   0  0  0  0  0  0  0  0  0  0  0  0
    5.4800   45.2200   53.0840 C   0  0  0  0  0  0  0  0  0  0  0  0
    4.3840   46.0670   53.3270 C   0  0  0  0  0  0  0  0  0  0  0  0
    4.5510   47.2370   54.0710 C   0  0  0  0  0  0  0  0  0  0  0  0
    5.8050   47.5680   54.5870 C   0  0  0  0  0  0  0  0  0  0  0  0
    6.9050   46.7290   54.3740 C   0  0  0  0  0  0  0  0  0  0  0  0
    8.1410   47.1030   54.9240 O   0  0  0  0  0  0  0  0  0  0  0  0
    9.1690   47.7930   54.2180 C   0  0  0  0  0  0  0  0  0  0  0  0
   10.2500   46.9530   54.0180 F   0  0  0  0  0  0  0  0  0  0  0  0
    8.6810   48.1980   52.9910 F   0  0  0  0  0  0  0  0  0  0  0  0
    6.7330   45.5480   53.6250 C   0  0  0  0  0  0  0  0  0  0  0  0
    5.2730   42.7260   50.1440 C   0  0  0  0  0  0  0  0  0  0  0  0
    5.9270   42.3530   48.9550 C   0  0  0  0  0  0  0  0  0  0  0  0
    5.4170   41.3250   48.1570 C   0  0  0  0  0  0  0  0  0  0  0  0
    4.2390   40.6550   48.5260 C   0  0  0  0  0  0  0  0  0  0  0  0
    3.7080   39.5780   47.7340 N   0  0  0  0  0  0  0  0  0  0  0  0
    3.1300   39.7430   46.4320 C   0  0  0  0  0  0  0  0  0  0  0  0
    2.4430   40.8740   46.1100 N   0  0  0  0  0  0  0  0  0  0  0  0
    1.8680   41.0230   44.8890 C   0  0  0  0  0  0  0  0  0  0  0  0
    1.9690   40.0030   43.9450 C   0  0  0  0  0  0  0  0  0  0  0  0
    2.6640   38.8450   44.2910 C   0  0  0  0  0  0  0  0  0  0  0  0
    3.2250   38.7340   45.5240 N   0  0  0  0  0  0  0  0  0  0  0  0
    3.6060   41.0010   49.7280 C   0  0  0  0  0  0  0  0  0  0  0  0
    4.1140   42.0290   50.5270 C   0  0  0  0  0  0  0  0  0  0  0  0
    4.9540   43.1630   52.8480 H   0  0  0  0  0  0  0  0  0  0  0  0
    3.3917   45.8071   52.9297 H   0  0  0  0  0  0  0  0  0  0  0  0
    3.6917   47.8997   54.2509 H   0  0  0  0  0  0  0  0  0  0  0  0
    5.9297   48.4953   55.1655 H   0  0  0  0  0  0  0  0  0  0  0  0
    9.4897   48.6657   54.8058 H   0  0  0  0  0  0  0  0  0  0  0  0
    7.5890   44.8765   53.4626 H   0  0  0  0  0  0  0  0  0  0  0  0
    6.8467   42.8745   48.6513 H   0  0  0  0  0  0  0  0  0  0  0  0
    5.9418   41.0387   47.2336 H   0  0  0  0  0  0  0  0  0  0  0  0
    3.6670   38.6260   48.1630 H   0  0  0  0  0  0  0  0  0  0  0  0
    1.3234   41.9472   44.6455 H   0  0  0  0  0  0  0  0  0  0  0  0
    1.5112   40.1090   42.9504 H   0  0  0  0  0  0  0  0  0  0  0  0
    2.7582   38.0222   43.5670 H   0  0  0  0  0  0  0  0  0  0  0  0
    2.7026   40.4592   50.0447 H   0  0  0  0  0  0  0  0  0  0  0  0
    3.6024   42.2950   51.4638 H   0  0  0  0  0  0  0  0  0  0  0  0
  1  2  2  0
  2  3  1  0
  3  4  1  0
  4  5  2  0
  5  6  1  0
  6  7  2  0
  7  8  1  0
  8  9  1  0
  9 10  1  0
 10 11  1  0
 10 12  1  0
  8 13  2  0
  2 14  1  0
 14 15  2  0
 15 16  1  0
 16 17  2  0
 17 18  1  0
 18 19  1  0
 19 20  2  0
 20 21  1  0
 21 22  2  0
 22 23  1  0
 23 24  2  0
 17 25  1  0
 25 26  2  0
 13  4  1  0
 26 14  1  0
 24 19  1  0
  3 27  1  0
  5 28  1  0
  6 29  1  0
  7 30  1  0
 10 31  1  0
 13 32  1  0
 15 33  1  0
 16 34  1  0
 18 35  1  0
 21 36  1  0
 22 37  1  0
 23 38  1  0
 25 39  1  0
 26 40  1  0
M  END
>  <meeko>  (4) 
{"is_sidechain": [false], "free_energy": -7.95, "intermolecular_energy": -10.775, "internal_energy": -0.728}

$$$$
ligand_13_conformer_4_docked
     RDKit          3D

 40 42  0  0  0  0  0  0  0  0999 V2000
    4.6740   44.5170   54.5360 O   0  0  0  0  0  0  0  0  0  0  0  0
    3.7860   45.0040   53.7830 C   0  0  0  0  0  0  0  0  0  0  0  0
    4.1660   45.8880   52.7140 N   0  0  0  0  0  0  0  0  0  0  0  0
    5.4850   45.9280   52.1410 C   0  0  0  0  0  0  0  0  0  0  0  0
    5.8030   45.1910   50.9860 C   0  0  0  0  0  0  0  0  0  0  0  0
    7.0820   45.2660   50.4340 C   0  0  0  0  0  0  0  0  0  0  0  0
    8.0520   46.0830   51.0180 C   0  0  0  0  0  0  0  0  0  0  0  0
    7.7520   46.8410   52.1550 C   0  0  0  0  0  0  0  0  0  0  0  0
    8.7590   47.6540   52.6970 O   0  0  0  0  0  0  0  0  0  0  0  0
    9.9210   47.1710   53.3650 C   0  0  0  0  0  0  0  0  0  0  0  0
    9.9910   47.7070   54.6390 F   0  0  0  0  0  0  0  0  0  0  0  0
    9.8490   45.7950   53.4600 F   0  0  0  0  0  0  0  0  0  0  0  0
    6.4580   46.7650   52.7090 C   0  0  0  0  0  0  0  0  0  0  0  0
    2.3590   44.6960   54.0440 C   0  0  0  0  0  0  0  0  0  0  0  0
    1.6720   45.3020   55.1120 C   0  0  0  0  0  0  0  0  0  0  0  0
    0.3260   45.0100   55.3470 C   0  0  0  0  0  0  0  0  0  0  0  0
   -0.3580   44.0990   54.5250 C   0  0  0  0  0  0  0  0  0  0  0  0
   -1.7500   43.8010   54.7330 N   0  0  0  0  0  0  0  0  0  0  0  0
   -2.4210   43.9200   55.9950 C   0  0  0  0  0  0  0  0  0  0  0  0
   -2.5660   42.8430   56.8150 N   0  0  0  0  0  0  0  0  0  0  0  0
   -3.2250   42.9440   57.9970 C   0  0  0  0  0  0  0  0  0  0  0  0
   -3.7780   44.1630   58.3830 C   0  0  0  0  0  0  0  0  0  0  0  0
   -3.6350   45.2550   57.5290 C   0  0  0  0  0  0  0  0  0  0  0  0
   -2.9670   45.1140   56.3540 N   0  0  0  0  0  0  0  0  0  0  0  0
    0.3130   43.5210   53.4400 C   0  0  0  0  0  0  0  0  0  0  0  0
    1.6600   43.8120   53.2030 C   0  0  0  0  0  0  0  0  0  0  0  0
    3.4820   46.6190   52.4170 H   0  0  0  0  0  0  0  0  0  0  0  0
    5.0401   44.5529   50.5161 H   0  0  0  0  0  0  0  0  0  0  0  0
    7.3270   44.6798   49.5360 H   0  0  0  0  0  0  0  0  0  0  0  0
    9.0602   46.1311   50.5806 H   0  0  0  0  0  0  0  0  0  0  0  0
   10.8147   47.4662   52.7958 H   0  0  0  0  0  0  0  0  0  0  0  0
    6.2084   47.3674   53.5949 H   0  0  0  0  0  0  0  0  0  0  0  0
    2.1988   46.0113   55.7672 H   0  0  0  0  0  0  0  0  0  0  0  0
   -0.2013   45.4965   56.1808 H   0  0  0  0  0  0  0  0  0  0  0  0
   -2.2910   43.3960   53.9350 H   0  0  0  0  0  0  0  0  0  0  0  0
   -3.3224   42.0640   58.6498 H   0  0  0  0  0  0  0  0  0  0  0  0
   -4.3143   44.2612   59.3384 H   0  0  0  0  0  0  0  0  0  0  0  0
   -4.0624   46.2301   57.8058 H   0  0  0  0  0  0  0  0  0  0  0  0
   -0.2234   42.8333   52.7696 H   0  0  0  0  0  0  0  0  0  0  0  0
    2.1772   43.3455   52.3516 H   0  0  0  0  0  0  0  0  0  0  0  0
  1  2  2  0
  2  3  1  0
  3  4  1  0
  4  5  2  0
  5  6  1  0
  6  7  2  0
  7  8  1  0
  8  9  1  0
  9 10  1  0
 10 11  1  0
 10 12  1  0
  8 13  2  0
  2 14  1  0
 14 15  2  0
 15 16  1  0
 16 17  2  0
 17 18  1  0
 18 19  1  0
 19 20  2  0
 20 21  1  0
 21 22  2  0
 22 23  1  0
 23 24  2  0
 17 25  1  0
 25 26  2  0
 13  4  1  0
 26 14  1  0
 24 19  1  0
  3 27  1  0
  5 28  1  0
  6 29  1  0
  7 30  1  0
 10 31  1  0
 13 32  1  0
 15 33  1  0
 16 34  1  0
 18 35  1  0
 21 36  1  0
 22 37  1  0
 23 38  1  0
 25 39  1  0
 26 40  1  0
M  END
>  <meeko>  (5) 
{"is_sidechain": [false], "free_energy": -7.863, "intermolecular_energy": -10.769, "internal_energy": -0.617}

$$$$
