ligand_7_conformer_3_docked
     RDKit          3D

 46 48  0  0  0  0  0  0  0  0999 V2000
    4.9220   46.5760   51.7910 O   0  0  0  0  0  0  0  0  0  0  0  0
    5.7900   45.6770   51.9630 C   0  0  0  0  0  0  0  0  0  0  0  0
    6.7940   45.8400   52.9770 N   0  0  0  0  0  0  0  0  0  0  0  0
    6.9610   47.0840   53.7270 C   0  0  0  0  0  0  0  0  0  0  0  0
    8.0910   47.9500   53.1210 C   0  0  0  0  0  0  0  0  0  0  0  0
    9.1630   48.2740   54.1780 C   0  0  0  0  0  0  0  0  0  0  0  0
   10.0340   47.0400   54.5160 C   0  0  0  0  0  0  0  0  0  0  0  0
    9.9180   45.9840   53.5750 O   0  0  0  0  0  0  0  0  0  0  0  0
   10.0120   46.4880   52.2590 C   0  0  0  0  0  0  0  0  0  0  0  0
    8.7450   47.2800   51.8870 C   0  0  0  0  0  0  0  0  0  0  0  0
    5.7880   44.4690   51.1030 C   0  0  0  0  0  0  0  0  0  0  0  0
    6.7610   44.3510   50.0990 C   0  0  0  0  0  0  0  0  0  0  0  0
    6.7710   43.2740   49.2760 N   0  0  0  0  0  0  0  0  0  0  0  0
    5.8580   42.2790   49.4070 C   0  0  0  0  0  0  0  0  0  0  0  0
    5.8550   41.1590   48.5110 N   0  0  0  0  0  0  0  0  0  0  0  0
    5.1070   41.1050   47.2850 C   0  0  0  0  0  0  0  0  0  0  0  0
    3.8940   40.3960   47.1970 C   0  0  0  0  0  0  0  0  0  0  0  0
    3.1710   40.3820   45.9990 C   0  0  0  0  0  0  0  0  0  0  0  0
    3.6450   41.0820   44.8870 C   0  0  0  0  0  0  0  0  0  0  0  0
    4.8350   41.8070   44.9730 C   0  0  0  0  0  0  0  0  0  0  0  0
    5.5600   41.8260   46.1690 C   0  0  0  0  0  0  0  0  0  0  0  0
    4.9020   42.3710   50.3670 N   0  0  0  0  0  0  0  0  0  0  0  0
    4.8400   43.4230   51.2280 C   0  0  0  0  0  0  0  0  0  0  0  0
    3.7580   43.4180   52.2780 C   0  0  0  0  0  0  0  0  0  0  0  0
    4.2760   43.7760   53.5080 F   0  0  0  0  0  0  0  0  0  0  0  0
    3.2080   42.1520   52.3930 F   0  0  0  0  0  0  0  0  0  0  0  0
    2.7540   44.2990   51.9200 F   0  0  0  0  0  0  0  0  0  0  0  0
    7.3910   45.0230   53.2390 H   0  0  0  0  0  0  0  0  0  0  0  0
    6.0187   47.6507   53.6979 H   0  0  0  0  0  0  0  0  0  0  0  0
    7.2290   46.8343   54.7642 H   0  0  0  0  0  0  0  0  0  0  0  0
    7.6256   48.8878   52.7835 H   0  0  0  0  0  0  0  0  0  0  0  0
    9.8131   49.0727   53.7915 H   0  0  0  0  0  0  0  0  0  0  0  0
    8.6492   48.5901   55.0979 H   0  0  0  0  0  0  0  0  0  0  0  0
   11.0865   47.3577   54.5533 H   0  0  0  0  0  0  0  0  0  0  0  0
    9.6783   46.6505   55.4813 H   0  0  0  0  0  0  0  0  0  0  0  0
   10.8863   47.1517   52.1882 H   0  0  0  0  0  0  0  0  0  0  0  0
   10.1171   45.6424   51.5634 H   0  0  0  0  0  0  0  0  0  0  0  0
    9.0158   48.0613   51.1615 H   0  0  0  0  0  0  0  0  0  0  0  0
    8.0176   46.5732   51.4611 H   0  0  0  0  0  0  0  0  0  0  0  0
    7.5206   45.1375   49.9790 H   0  0  0  0  0  0  0  0  0  0  0  0
    6.3690   40.3000   48.8120 H   0  0  0  0  0  0  0  0  0  0  0  0
    3.5131   39.8510   48.0733 H   0  0  0  0  0  0  0  0  0  0  0  0
    2.2283   39.8191   45.9329 H   0  0  0  0  0  0  0  0  0  0  0  0
    3.0804   41.0620   43.9432 H   0  0  0  0  0  0  0  0  0  0  0  0
    5.2030   42.3641   44.0988 H   0  0  0  0  0  0  0  0  0  0  0  0
    6.4903   42.4092   46.2354 H   0  0  0  0  0  0  0  0  0  0  0  0
  1  2  2  0
  2  3  1  0
  3  4  1  0
  4  5  1  0
  5  6  1  0
  6  7  1  0
  7  8  1  0
  8  9  1  0
  9 10  1  0
  2 11  1  0
 11 12  2  0
 12 13  1  0
 13 14  2  0
 14 15  1  0
 15 16  1  0
 16 17  2  0
 17 18  1  0
 18 19  2  0
 19 20  1  0
 20 21  2  0
 14 22  1  0
 22 23  2  0
 23 24  1  0
 24 25  1  0
 24 26  1  0
 24 27  1  0
 10  5  1  0
 23 11  1  0
 21 16  1  0
  3 28  1  0
  4 29  1  0
  4 30  1  0
  5 31  1  0
  6 32  1  0
  6 33  1  0
  7 34  1  0
  7 35  1  0
  9 36  1  0
  9 37  1  0
 10 38  1  0
 10 39  1  0
 12 40  1  0
 15 41  1  0
 17 42  1  0
 18 43  1  0
 19 44  1  0
 20 45  1  0
 21 46  1  0
M  END
>  <meeko>  (1) 
{"is_sidechain": [false], "free_energy": -9.068, "intermolecular_energy": -12.248, "internal_energy": -0.842}

$$$$
ligand_7_conformer_3_docked
     RDKit          3D

 46 48  0  0  0  0  0  0  0  0999 V2000
    1.7420   42.6840   50.3800 O   0  0  0  0  0  0  0  0  0  0  0  0
    2.4480   43.0320   51.3650 C   0  0  0  0  0  0  0  0  0  0  0  0
    1.9920   42.7630   52.7000 N   0  0  0  0  0  0  0  0  0  0  0  0
    0.6560   42.2410   52.9860 C   0  0  0  0  0  0  0  0  0  0  0  0
   -0.0510   43.0860   54.0720 C   0  0  0  0  0  0  0  0  0  0  0  0
    0.8150   44.2920   54.4800 C   0  0  0  0  0  0  0  0  0  0  0  0
    0.8430   45.3830   53.3820 C   0  0  0  0  0  0  0  0  0  0  0  0
   -0.1720   45.2330   52.4020 O   0  0  0  0  0  0  0  0  0  0  0  0
   -1.4170   44.9830   53.0190 C   0  0  0  0  0  0  0  0  0  0  0  0
   -1.4530   43.5660   53.6210 C   0  0  0  0  0  0  0  0  0  0  0  0
    3.7330   43.7390   51.1450 C   0  0  0  0  0  0  0  0  0  0  0  0
    3.7910   45.1230   51.3660 C   0  0  0  0  0  0  0  0  0  0  0  0
    4.9420   45.8050   51.1470 N   0  0  0  0  0  0  0  0  0  0  0  0
    6.0660   45.1730   50.7250 C   0  0  0  0  0  0  0  0  0  0  0  0
    7.2700   45.9080   50.4640 N   0  0  0  0  0  0  0  0  0  0  0  0
    8.1820   46.3540   51.4800 C   0  0  0  0  0  0  0  0  0  0  0  0
    7.7470   47.1420   52.5630 C   0  0  0  0  0  0  0  0  0  0  0  0
    8.6510   47.5400   53.5530 C   0  0  0  0  0  0  0  0  0  0  0  0
    9.9890   47.1490   53.4790 C   0  0  0  0  0  0  0  0  0  0  0  0
   10.4250   46.3480   52.4210 C   0  0  0  0  0  0  0  0  0  0  0  0
    9.5240   45.9450   51.4290 C   0  0  0  0  0  0  0  0  0  0  0  0
    6.0360   43.8360   50.4990 N   0  0  0  0  0  0  0  0  0  0  0  0
    4.9140   43.0920   50.7040 C   0  0  0  0  0  0  0  0  0  0  0  0
    4.9910   41.6070   50.4510 C   0  0  0  0  0  0  0  0  0  0  0  0
    4.4230   40.9080   51.5000 F   0  0  0  0  0  0  0  0  0  0  0  0
    6.3120   41.2090   50.3330 F   0  0  0  0  0  0  0  0  0  0  0  0
    4.3350   41.2990   49.2740 F   0  0  0  0  0  0  0  0  0  0  0  0
    2.6550   42.8840   53.4990 H   0  0  0  0  0  0  0  0  0  0  0  0
    0.0558   42.2654   52.0645 H   0  0  0  0  0  0  0  0  0  0  0  0
    0.7554   41.2096   53.3553 H   0  0  0  0  0  0  0  0  0  0  0  0
   -0.1880   42.4305   54.9447 H   0  0  0  0  0  0  0  0  0  0  0  0
    0.4051   44.7276   55.4032 H   0  0  0  0  0  0  0  0  0  0  0  0
    1.8446   43.9356   54.6315 H   0  0  0  0  0  0  0  0  0  0  0  0
    0.7180   46.3639   53.8640 H   0  0  0  0  0  0  0  0  0  0  0  0
    1.8078   45.2905   52.8619 H   0  0  0  0  0  0  0  0  0  0  0  0
   -1.5770   45.7196   53.8201 H   0  0  0  0  0  0  0  0  0  0  0  0
   -2.2096   45.0646   52.2606 H   0  0  0  0  0  0  0  0  0  0  0  0
   -2.1240   43.5684   54.4927 H   0  0  0  0  0  0  0  0  0  0  0  0
   -1.8113   42.8771   52.8418 H   0  0  0  0  0  0  0  0  0  0  0  0
    2.8972   45.6582   51.7191 H   0  0  0  0  0  0  0  0  0  0  0  0
    7.4490   46.2050   49.4770 H   0  0  0  0  0  0  0  0  0  0  0  0
    6.6919   47.4457   52.6305 H   0  0  0  0  0  0  0  0  0  0  0  0
    8.3069   48.1626   54.3920 H   0  0  0  0  0  0  0  0  0  0  0  0
   10.7000   47.4717   54.2539 H   0  0  0  0  0  0  0  0  0  0  0  0
   11.4778   46.0336   52.3675 H   0  0  0  0  0  0  0  0  0  0  0  0
    9.8693   45.3040   50.6044 H   0  0  0  0  0  0  0  0  0  0  0  0
  1  2  2  0
  2  3  1  0
  3  4  1  0
  4  5  1  0
  5  6  1  0
  6  7  1  0
  7  8  1  0
  8  9  1  0
  9 10  1  0
  2 11  1  0
 11 12  2  0
 12 13  1  0
 13 14  2  0
 14 15  1  0
 15 16  1  0
 16 17  2  0
 17 18  1  0
 18 19  2  0
 19 20  1  0
 20 21  2  0
 14 22  1  0
 22 23  2  0
 23 24  1  0
 24 25  1  0
 24 26  1  0
 24 27  1  0
 10  5  1  0
 23 11  1  0
 21 16  1  0
  3 28  1  0
  4 29  1  0
  4 30  1  0
  5 31  1  0
  6 32  1  0
  6 33  1  0
  7 34  1  0
  7 35  1  0
  9 36  1  0
  9 37  1  0
 10 38  1  0
 10 39  1  0
 12 40  1  0
 15 41  1  0
 17 42  1  0
 18 43  1  0
 19 44  1  0
 20 45  1  0
 21 46  1  0
M  END
>  <meeko>  (2) 
{"is_sidechain": [false], "free_energy": -8.627, "intermolecular_energy": -12.068, "internal_energy": -0.427}

$$$$
ligand_7_conformer_3_docked
     RDKit          3D

 46 48  0  0  0  0  0  0  0  0999 V2000
    1.1050   43.2240   51.7550 O   0  0  0  0  0  0  0  0  0  0  0  0
    1.9500   43.6560   52.5840 C   0  0  0  0  0  0  0  0  0  0  0  0
    1.6510   43.6250   53.9890 N   0  0  0  0  0  0  0  0  0  0  0  0
    0.3330   43.2580   54.5060 C   0  0  0  0  0  0  0  0  0  0  0  0
   -0.6230   44.4740   54.5030 C   0  0  0  0  0  0  0  0  0  0  0  0
   -2.0490   44.0530   54.8980 C   0  0  0  0  0  0  0  0  0  0  0  0
   -2.1620   43.7300   56.4080 C   0  0  0  0  0  0  0  0  0  0  0  0
   -1.0660   44.2030   57.1750 O   0  0  0  0  0  0  0  0  0  0  0  0
   -0.7650   45.5390   56.8310 C   0  0  0  0  0  0  0  0  0  0  0  0
   -0.1260   45.6110   55.4320 C   0  0  0  0  0  0  0  0  0  0  0  0
    3.2370   44.2180   52.1090 C   0  0  0  0  0  0  0  0  0  0  0  0
    4.2060   43.3480   51.5870 C   0  0  0  0  0  0  0  0  0  0  0  0
    5.4040   43.8240   51.1700 N   0  0  0  0  0  0  0  0  0  0  0  0
    5.6950   45.1490   51.2300 C   0  0  0  0  0  0  0  0  0  0  0  0
    6.9780   45.6400   50.8180 N   0  0  0  0  0  0  0  0  0  0  0  0
    7.9570   46.1970   51.7110 C   0  0  0  0  0  0  0  0  0  0  0  0
    7.5770   46.9130   52.8620 C   0  0  0  0  0  0  0  0  0  0  0  0
    8.5490   47.4220   53.7290 C   0  0  0  0  0  0  0  0  0  0  0  0
    9.9040   47.2120   53.4620 C   0  0  0  0  0  0  0  0  0  0  0  0
   10.2900   46.4820   52.3350 C   0  0  0  0  0  0  0  0  0  0  0  0
    9.3200   45.9700   51.4670 C   0  0  0  0  0  0  0  0  0  0  0  0
    4.7780   46.0120   51.7360 N   0  0  0  0  0  0  0  0  0  0  0  0
    3.5550   45.5980   52.1670 C   0  0  0  0  0  0  0  0  0  0  0  0
    2.5960   46.6400   52.6860 C   0  0  0  0  0  0  0  0  0  0  0  0
    2.9570   47.8960   52.2330 F   0  0  0  0  0  0  0  0  0  0  0  0
    2.6120   46.6590   54.0710 F   0  0  0  0  0  0  0  0  0  0  0  0
    1.3120   46.3440   52.2680 F   0  0  0  0  0  0  0  0  0  0  0  0
    2.4160   43.8090   54.6760 H   0  0  0  0  0  0  0  0  0  0  0  0
   -0.0927   42.4644   53.8744 H   0  0  0  0  0  0  0  0  0  0  0  0
    0.4488   42.9063   55.5418 H   0  0  0  0  0  0  0  0  0  0  0  0
   -0.6371   44.8650   53.4749 H   0  0  0  0  0  0  0  0  0  0  0  0
   -2.7408   44.8738   54.6578 H   0  0  0  0  0  0  0  0  0  0  0  0
   -2.3018   43.1417   54.3361 H   0  0  0  0  0  0  0  0  0  0  0  0
   -3.0820   44.1928   56.7944 H   0  0  0  0  0  0  0  0  0  0  0  0
   -2.1723   42.6342   56.5029 H   0  0  0  0  0  0  0  0  0  0  0  0
   -1.6925   46.1305   56.8350 H   0  0  0  0  0  0  0  0  0  0  0  0
   -0.0522   45.9410   57.5661 H   0  0  0  0  0  0  0  0  0  0  0  0
   -0.3809   46.5787   54.9753 H   0  0  0  0  0  0  0  0  0  0  0  0
    0.9618   45.4991   55.5510 H   0  0  0  0  0  0  0  0  0  0  0  0
    3.9915   42.2715   51.5158 H   0  0  0  0  0  0  0  0  0  0  0  0
    7.1770   45.6660   49.7920 H   0  0  0  0  0  0  0  0  0  0  0  0
    6.5108   47.0728   53.0803 H   0  0  0  0  0  0  0  0  0  0  0  0
    8.2463   47.9883   54.6221 H   0  0  0  0  0  0  0  0  0  0  0  0
   10.6676   47.6217   54.1395 H   0  0  0  0  0  0  0  0  0  0  0  0
   11.3570   46.3099   52.1303 H   0  0  0  0  0  0  0  0  0  0  0  0
    9.6277   45.3856   50.5874 H   0  0  0  0  0  0  0  0  0  0  0  0
  1  2  2  0
  2  3  1  0
  3  4  1  0
  4  5  1  0
  5  6  1  0
  6  7  1  0
  7  8  1  0
  8  9  1  0
  9 10  1  0
  2 11  1  0
 11 12  2  0
 12 13  1  0
 13 14  2  0
 14 15  1  0
 15 16  1  0
 16 17  2  0
 17 18  1  0
 18 19  2  0
 19 20  1  0
 20 21  2  0
 14 22  1  0
 22 23  2  0
 23 24  1  0
 24 25  1  0
 24 26  1  0
 24 27  1  0
 10  5  1  0
 23 11  1  0
 21 16  1  0
  3 28  1  0
  4 29  1  0
  4 30  1  0
  5 31  1  0
  6 32  1  0
  6 33  1  0
  7 34  1  0
  7 35  1  0
  9 36  1  0
  9 37  1  0
 10 38  1  0
 10 39  1  0
 12 40  1  0
 15 41  1  0
 17 42  1  0
 18 43  1  0
 19 44  1  0
 20 45  1  0
 21 46  1  0
M  END
>  <meeko>  (3) 
{"is_sidechain": [false], "free_energy": -8.341, "intermolecular_energy": -11.509, "internal_energy": -0.599}

$$$$
ligand_7_conformer_3_docked
     RDKit          3D

 46 48  0  0  0  0  0  0  0  0999 V2000
    0.8090   44.3010   51.2830 O   0  0  0  0  0  0  0  0  0  0  0  0
    1.7180   44.2190   52.1530 C   0  0  0  0  0  0  0  0  0  0  0  0
    1.4050   43.7380   53.4690 N   0  0  0  0  0  0  0  0  0  0  0  0
    0.0340   43.4810   53.9080 C   0  0  0  0  0  0  0  0  0  0  0  0
   -0.6060   44.7570   54.5070 C   0  0  0  0  0  0  0  0  0  0  0  0
   -2.0390   44.9510   53.9810 C   0  0  0  0  0  0  0  0  0  0  0  0
   -3.0280   43.9360   54.6050 C   0  0  0  0  0  0  0  0  0  0  0  0
   -2.5210   43.2790   55.7560 O   0  0  0  0  0  0  0  0  0  0  0  0
   -1.9290   44.2140   56.6340 C   0  0  0  0  0  0  0  0  0  0  0  0
   -0.6030   44.7420   56.0560 C   0  0  0  0  0  0  0  0  0  0  0  0
    3.1000   44.6450   51.8240 C   0  0  0  0  0  0  0  0  0  0  0  0
    3.4200   46.0090   51.8790 C   0  0  0  0  0  0  0  0  0  0  0  0
    4.6660   46.4360   51.5570 N   0  0  0  0  0  0  0  0  0  0  0  0
    5.6360   45.5620   51.1890 C   0  0  0  0  0  0  0  0  0  0  0  0
    6.9420   46.0250   50.8180 N   0  0  0  0  0  0  0  0  0  0  0  0
    7.9460   46.4490   51.7540 C   0  0  0  0  0  0  0  0  0  0  0  0
    7.6120   47.1850   52.9070 C   0  0  0  0  0  0  0  0  0  0  0  0
    8.6060   47.5620   53.8160 C   0  0  0  0  0  0  0  0  0  0  0  0
    9.9360   47.2000   53.5900 C   0  0  0  0  0  0  0  0  0  0  0  0
   10.2740   46.4500   52.4610 C   0  0  0  0  0  0  0  0  0  0  0  0
    9.2830   46.0690   51.5500 C   0  0  0  0  0  0  0  0  0  0  0  0
    5.3520   44.2370   51.1220 N   0  0  0  0  0  0  0  0  0  0  0  0
    4.1230   43.7430   51.4370 C   0  0  0  0  0  0  0  0  0  0  0  0
    3.9160   42.2520   51.3580 C   0  0  0  0  0  0  0  0  0  0  0  0
    2.8210   41.9580   50.5660 F   0  0  0  0  0  0  0  0  0  0  0  0
    3.6860   41.7320   52.6210 F   0  0  0  0  0  0  0  0  0  0  0  0
    5.0450   41.6490   50.8360 F   0  0  0  0  0  0  0  0  0  0  0  0
    2.1840   43.4990   54.1230 H   0  0  0  0  0  0  0  0  0  0  0  0
   -0.5635   43.1498   53.0459 H   0  0  0  0  0  0  0  0  0  0  0  0
    0.0552   42.7023   54.6846 H   0  0  0  0  0  0  0  0  0  0  0  0
    0.0129   45.6062   54.1817 H   0  0  0  0  0  0  0  0  0  0  0  0
   -2.3729   45.9697   54.2274 H   0  0  0  0  0  0  0  0  0  0  0  0
   -2.0266   44.7887   52.8931 H   0  0  0  0  0  0  0  0  0  0  0  0
   -3.9450   44.4737   54.8878 H   0  0  0  0  0  0  0  0  0  0  0  0
   -3.2129   43.1602   53.8474 H   0  0  0  0  0  0  0  0  0  0  0  0
   -2.6194   45.0575   56.7818 H   0  0  0  0  0  0  0  0  0  0  0  0
   -1.7226   43.7161   57.5929 H   0  0  0  0  0  0  0  0  0  0  0  0
   -0.4409   45.7673   56.4201 H   0  0  0  0  0  0  0  0  0  0  0  0
    0.2017   44.0687   56.3861 H   0  0  0  0  0  0  0  0  0  0  0  0
    2.6550   46.7376   52.1855 H   0  0  0  0  0  0  0  0  0  0  0  0
    7.1420   46.1360   49.7980 H   0  0  0  0  0  0  0  0  0  0  0  0
    6.5647   47.4647   53.0937 H   0  0  0  0  0  0  0  0  0  0  0  0
    8.3399   48.1445   54.7103 H   0  0  0  0  0  0  0  0  0  0  0  0
   10.7175   47.5056   54.3013 H   0  0  0  0  0  0  0  0  0  0  0  0
   11.3205   46.1587   52.2881 H   0  0  0  0  0  0  0  0  0  0  0  0
    9.5523   45.4683   50.6687 H   0  0  0  0  0  0  0  0  0  0  0  0
  1  2  2  0
  2  3  1  0
  3  4  1  0
  4  5  1  0
  5  6  1  0
  6  7  1  0
  7  8  1  0
  8  9  1  0
  9 10  1  0
  2 11  1  0
 11 12  2  0
 12 13  1  0
 13 14  2  0
 14 15  1  0
 15 16  1  0
 16 17  2  0
 17 18  1  0
 18 19  2  0
 19 20  1  0
 20 21  2  0
 14 22  1  0
 22 23  2  0
 23 24  1  0
 24 25  1  0
 24 26  1  0
 24 27  1  0
 10  5  1  0
 23 11  1  0
 21 16  1  0
  3 28  1  0
  4 29  1  0
  4 30  1  0
  5 31  1  0
  6 32  1  0
  6 33  1  0
  7 34  1  0
  7 35  1  0
  9 36  1  0
  9 37  1  0
 10 38  1  0
 10 39  1  0
 12 40  1  0
 15 41  1  0
 17 42  1  0
 18 43  1  0
 19 44  1  0
 20 45  1  0
 21 46  1  0
M  END
>  <meeko>  (4) 
{"is_sidechain": [false], "free_energy": -8.302, "intermolecular_energy": -11.446, "internal_energy": -0.609}

$$$$
ligand_7_conformer_3_docked
     RDKit          3D

 46 48  0  0  0  0  0  0  0  0999 V2000
    0.9360   44.8400   55.0630 O   0  0  0  0  0  0  0  0  0  0  0  0
    1.8770   44.4310   54.3300 C   0  0  0  0  0  0  0  0  0  0  0  0
    1.6940   43.2550   53.5260 N   0  0  0  0  0  0  0  0  0  0  0  0
    0.5100   42.4030   53.6320 C   0  0  0  0  0  0  0  0  0  0  0  0
   -0.2100   42.2800   52.2690 C   0  0  0  0  0  0  0  0  0  0  0  0
   -1.7360   42.3730   52.4420 C   0  0  0  0  0  0  0  0  0  0  0  0
   -2.1950   43.8160   52.7660 C   0  0  0  0  0  0  0  0  0  0  0  0
   -1.2080   44.8010   52.5030 O   0  0  0  0  0  0  0  0  0  0  0  0
   -0.6270   44.5880   51.2340 C   0  0  0  0  0  0  0  0  0  0  0  0
    0.2770   43.3410   51.2510 C   0  0  0  0  0  0  0  0  0  0  0  0
    3.1750   45.1460   54.3200 C   0  0  0  0  0  0  0  0  0  0  0  0
    4.0830   44.9170   55.3650 C   0  0  0  0  0  0  0  0  0  0  0  0
    5.2680   45.5750   55.4020 N   0  0  0  0  0  0  0  0  0  0  0  0
    5.6130   46.4590   54.4320 C   0  0  0  0  0  0  0  0  0  0  0  0
    6.8540   47.1760   54.4970 N   0  0  0  0  0  0  0  0  0  0  0  0
    7.9850   46.9140   53.6500 C   0  0  0  0  0  0  0  0  0  0  0  0
    7.8230   46.5210   52.3080 C   0  0  0  0  0  0  0  0  0  0  0  0
    8.9420   46.2980   51.4990 C   0  0  0  0  0  0  0  0  0  0  0  0
   10.2270   46.4760   52.0150 C   0  0  0  0  0  0  0  0  0  0  0  0
   10.3970   46.8880   53.3390 C   0  0  0  0  0  0  0  0  0  0  0  0
    9.2810   47.1150   54.1520 C   0  0  0  0  0  0  0  0  0  0  0  0
    4.7510   46.7040   53.4130 N   0  0  0  0  0  0  0  0  0  0  0  0
    3.5490   46.0710   53.3140 C   0  0  0  0  0  0  0  0  0  0  0  0
    2.6740   46.3920   52.1280 C   0  0  0  0  0  0  0  0  0  0  0  0
    2.6930   45.3510   51.2180 F   0  0  0  0  0  0  0  0  0  0  0  0
    3.1320   47.5320   51.4890 F   0  0  0  0  0  0  0  0  0  0  0  0
    1.3780   46.6200   52.5510 F   0  0  0  0  0  0  0  0  0  0  0  0
    2.4000   43.0270   52.7900 H   0  0  0  0  0  0  0  0  0  0  0  0
    0.8168   41.4015   53.9681 H   0  0  0  0  0  0  0  0  0  0  0  0
   -0.1841   42.8570   54.3545 H   0  0  0  0  0  0  0  0  0  0  0  0
    0.0444   41.2891   51.8647 H   0  0  0  0  0  0  0  0  0  0  0  0
   -2.2199   42.0471   51.5094 H   0  0  0  0  0  0  0  0  0  0  0  0
   -2.0229   41.7273   53.2851 H   0  0  0  0  0  0  0  0  0  0  0  0
   -3.0829   44.0429   52.1576 H   0  0  0  0  0  0  0  0  0  0  0  0
   -2.4054   43.8518   53.8451 H   0  0  0  0  0  0  0  0  0  0  0  0
   -1.4253   44.4451   50.4908 H   0  0  0  0  0  0  0  0  0  0  0  0
   -0.0154   45.4644   50.9737 H   0  0  0  0  0  0  0  0  0  0  0  0
    0.2812   42.8926   50.2465 H   0  0  0  0  0  0  0  0  0  0  0  0
    1.2863   43.6592   51.5512 H   0  0  0  0  0  0  0  0  0  0  0  0
    3.8318   44.1989   56.1595 H   0  0  0  0  0  0  0  0  0  0  0  0
    6.9640   47.8790   55.2630 H   0  0  0  0  0  0  0  0  0  0  0  0
    6.8125   46.3888   51.8940 H   0  0  0  0  0  0  0  0  0  0  0  0
    8.8093   45.9817   50.4539 H   0  0  0  0  0  0  0  0  0  0  0  0
   11.1055   46.2919   51.3791 H   0  0  0  0  0  0  0  0  0  0  0  0
   11.4096   47.0342   53.7430 H   0  0  0  0  0  0  0  0  0  0  0  0
    9.4196   47.4526   55.1897 H   0  0  0  0  0  0  0  0  0  0  0  0
  1  2  2  0
  2  3  1  0
  3  4  1  0
  4  5  1  0
  5  6  1  0
  6  7  1  0
  7  8  1  0
  8  9  1  0
  9 10  1  0
  2 11  1  0
 11 12  2  0
 12 13  1  0
 13 14  2  0
 14 15  1  0
 15 16  1  0
 16 17  2  0
 17 18  1  0
 18 19  2  0
 19 20  1  0
 20 21  2  0
 14 22  1  0
 22 23  2  0
 23 24  1  0
 24 25  1  0
 24 26  1  0
 24 27  1  0
 10  5  1  0
 23 11  1  0
 21 16  1  0
  3 28  1  0
  4 29  1  0
  4 30  1  0
  5 31  1  0
  6 32  1  0
  6 33  1  0
  7 34  1  0
  7 35  1  0
  9 36  1  0
  9 37  1  0
 10 38  1  0
 10 39  1  0
 12 40  1  0
 15 41  1  0
 17 42  1  0
 18 43  1  0
 19 44  1  0
 20 45  1  0
 21 46  1  0
M  END
>  <meeko>  (5) 
{"is_sidechain": [false], "free_energy": -8.045, "intermolecular_energy": -10.752, "internal_energy": -0.956}

$$$$
