ligand_73_conformer_4_docked
     RDKit          3D

 41 43  0  0  0  0  0  0  0  0999 V2000
    4.0250   41.2440   50.4350 C   0  0  0  0  0  0  0  0  0  0  0  0
    4.2040   42.5780   50.9990 N   0  0  0  0  0  0  0  0  0  0  0  0
    5.3980   43.1090   51.2110 N   0  0  0  0  0  0  0  0  0  0  0  0
    5.2190   44.3740   51.6520 C   0  0  0  0  0  0  0  0  0  0  0  0
    6.3340   45.2880   51.9960 C   0  0  0  0  0  0  0  0  0  0  0  0
    7.2430   45.7350   51.0170 C   0  0  0  0  0  0  0  0  0  0  0  0
    8.2890   46.5980   51.3620 C   0  0  0  0  0  0  0  0  0  0  0  0
    8.4400   47.0240   52.6840 C   0  0  0  0  0  0  0  0  0  0  0  0
    9.4540   47.8610   53.0150 F   0  0  0  0  0  0  0  0  0  0  0  0
    7.5460   46.5870   53.6630 C   0  0  0  0  0  0  0  0  0  0  0  0
    6.5000   45.7240   53.3240 C   0  0  0  0  0  0  0  0  0  0  0  0
    3.8600   44.6540   51.7100 C   0  0  0  0  0  0  0  0  0  0  0  0
    3.2510   43.4860   51.3030 C   0  0  0  0  0  0  0  0  0  0  0  0
    1.7970   43.2890   51.1840 C   0  0  0  0  0  0  0  0  0  0  0  0
    1.3460   42.6910   50.1710 O   0  0  0  0  0  0  0  0  0  0  0  0
    0.8920   43.8000   52.1760 N   0  0  0  0  0  0  0  0  0  0  0  0
    0.3050   45.1260   52.0910 C   0  0  0  0  0  0  0  0  0  0  0  0
   -0.5320   45.2860   53.3550 C   0  0  0  0  0  0  0  0  0  0  0  0
   -0.0200   44.2180   54.3420 C   0  0  2  0  0  0  0  0  0  0  0  0
   -1.1510   43.6230   55.0900 C   0  0  0  0  0  0  0  0  0  0  0  0
   -2.0350   43.1590   55.6750 N   0  0  0  0  0  0  0  0  0  0  0  0
    0.9850   44.8370   55.3090 C   0  0  0  0  0  0  0  0  0  0  0  0
    2.3840   44.5630   55.1980 N   0  0  0  0  0  0  0  0  0  0  0  0
    0.5970   45.6510   56.1920 O   0  0  0  0  0  0  0  0  0  0  0  0
    0.6410   43.1470   53.4520 C   0  0  0  0  0  0  0  0  0  0  0  0
    3.9267   40.5116   51.2498 H   0  0  0  0  0  0  0  0  0  0  0  0
    3.1165   41.2269   49.8150 H   0  0  0  0  0  0  0  0  0  0  0  0
    4.8968   40.9880   49.8150 H   0  0  0  0  0  0  0  0  0  0  0  0
    7.1297   45.4034   49.9743 H   0  0  0  0  0  0  0  0  0  0  0  0
    8.9939   46.9418   50.5907 H   0  0  0  0  0  0  0  0  0  0  0  0
    7.6650   46.9226   54.7038 H   0  0  0  0  0  0  0  0  0  0  0  0
    5.8007   45.3827   54.1015 H   0  0  0  0  0  0  0  0  0  0  0  0
    3.3781   45.5954   52.0125 H   0  0  0  0  0  0  0  0  0  0  0  0
    1.0927   45.8928   52.0526 H   0  0  0  0  0  0  0  0  0  0  0  0
   -0.3036   45.2440   51.1823 H   0  0  0  0  0  0  0  0  0  0  0  0
   -0.3975   46.2927   53.7775 H   0  0  0  0  0  0  0  0  0  0  0  0
   -1.6047   45.1604   53.1464 H   0  0  0  0  0  0  0  0  0  0  0  0
    3.0580   45.0120   55.8570 H   0  0  0  0  0  0  0  0  0  0  0  0
    2.7610   43.9220   54.4670 H   0  0  0  0  0  0  0  0  0  0  0  0
    1.5852   42.8043   53.9004 H   0  0  0  0  0  0  0  0  0  0  0  0
   -0.0003   42.2607   53.3368 H   0  0  0  0  0  0  0  0  0  0  0  0
  1  2  1  0
  2  3  1  0
  3  4  2  0
  4  5  1  0
  5  6  2  0
  6  7  1  0
  7  8  2  0
  8  9  1  0
  8 10  1  0
 10 11  2  0
  4 12  1  0
 12 13  2  0
 13 14  1  0
 14 15  2  0
 14 16  1  0
 16 17  1  0
 17 18  1  0
 18 19  1  0
 19 20  1  1
 20 21  3  0
 19 22  1  0
 22 23  1  0
 22 24  2  0
 19 25  1  0
 13  2  1  0
 25 16  1  0
 11  5  1  0
  1 26  1  0
  1 27  1  0
  1 28  1  0
  6 29  1  0
  7 30  1  0
 10 31  1  0
 11 32  1  0
 12 33  1  0
 17 34  1  0
 17 35  1  0
 18 36  1  0
 18 37  1  0
 23 38  1  0
 23 39  1  0
 25 40  1  0
 25 41  1  0
M  END
>  <meeko>  (1) 
{"is_sidechain": [false], "free_energy": -8.29, "intermolecular_energy": -10.229, "internal_energy": -0.57}

$$$$
ligand_73_conformer_4_docked
     RDKit          3D

 41 43  0  0  0  0  0  0  0  0999 V2000
    3.1980   46.3540   50.7320 C   0  0  0  0  0  0  0  0  0  0  0  0
    4.3030   45.8360   51.5340 N   0  0  0  0  0  0  0  0  0  0  0  0
    5.3760   46.5570   51.8190 N   0  0  0  0  0  0  0  0  0  0  0  0
    6.1610   45.8280   52.6420 C   0  0  0  0  0  0  0  0  0  0  0  0
    7.4570   46.3080   53.1780 C   0  0  0  0  0  0  0  0  0  0  0  0
    8.6690   46.0410   52.5120 C   0  0  0  0  0  0  0  0  0  0  0  0
    9.8820   46.5040   53.0340 C   0  0  0  0  0  0  0  0  0  0  0  0
    9.9000   47.2360   54.2230 C   0  0  0  0  0  0  0  0  0  0  0  0
   11.0760   47.6840   54.7260 F   0  0  0  0  0  0  0  0  0  0  0  0
    8.7050   47.5080   54.8930 C   0  0  0  0  0  0  0  0  0  0  0  0
    7.4900   47.0470   54.3760 C   0  0  0  0  0  0  0  0  0  0  0  0
    5.5540   44.6040   52.8940 C   0  0  0  0  0  0  0  0  0  0  0  0
    4.3860   44.6430   52.1610 C   0  0  0  0  0  0  0  0  0  0  0  0
    3.3830   43.5670   52.1130 C   0  0  0  0  0  0  0  0  0  0  0  0
    3.5240   42.6410   51.2710 O   0  0  0  0  0  0  0  0  0  0  0  0
    2.2340   43.5800   52.9770 N   0  0  0  0  0  0  0  0  0  0  0  0
    1.2770   42.4880   53.0230 C   0  0  0  0  0  0  0  0  0  0  0  0
    0.2000   42.9270   54.0080 C   0  0  0  0  0  0  0  0  0  0  0  0
    0.3430   44.4570   54.1390 C   0  0  2  0  0  0  0  0  0  0  0  0
    0.1300   44.8750   55.5440 C   0  0  0  0  0  0  0  0  0  0  0  0
   -0.0360   45.2010   56.6410 N   0  0  0  0  0  0  0  0  0  0  0  0
   -0.6560   45.1570   53.2230 C   0  0  0  0  0  0  0  0  0  0  0  0
   -2.0120   45.3660   53.6310 N   0  0  0  0  0  0  0  0  0  0  0  0
   -0.2830   45.6150   52.1080 O   0  0  0  0  0  0  0  0  0  0  0  0
    1.7960   44.7520   53.7190 C   0  0  0  0  0  0  0  0  0  0  0  0
    2.4048   46.7258   51.3973 H   0  0  0  0  0  0  0  0  0  0  0  0
    3.5596   47.1764   50.0973 H   0  0  0  0  0  0  0  0  0  0  0  0
    2.7972   45.5500   50.0973 H   0  0  0  0  0  0  0  0  0  0  0  0
    8.6620   45.4646   51.5751 H   0  0  0  0  0  0  0  0  0  0  0  0
   10.8234   46.2908   52.5065 H   0  0  0  0  0  0  0  0  0  0  0  0
    8.7195   48.0858   55.8289 H   0  0  0  0  0  0  0  0  0  0  0  0
    6.5527   47.2635   54.9096 H   0  0  0  0  0  0  0  0  0  0  0  0
    5.9217   43.7881   53.5336 H   0  0  0  0  0  0  0  0  0  0  0  0
    0.8406   42.3179   52.0277 H   0  0  0  0  0  0  0  0  0  0  0  0
    1.7509   41.5447   53.3323 H   0  0  0  0  0  0  0  0  0  0  0  0
   -0.7977   42.6677   53.6242 H   0  0  0  0  0  0  0  0  0  0  0  0
    0.3151   42.4265   54.9808 H   0  0  0  0  0  0  0  0  0  0  0  0
   -2.6750   45.8660   52.9970 H   0  0  0  0  0  0  0  0  0  0  0  0
   -2.3640   45.0350   54.5540 H   0  0  0  0  0  0  0  0  0  0  0  0
    1.8372   45.6476   53.0816 H   0  0  0  0  0  0  0  0  0  0  0  0
    2.4398   44.9469   54.5894 H   0  0  0  0  0  0  0  0  0  0  0  0
  1  2  1  0
  2  3  1  0
  3  4  2  0
  4  5  1  0
  5  6  2  0
  6  7  1  0
  7  8  2  0
  8  9  1  0
  8 10  1  0
 10 11  2  0
  4 12  1  0
 12 13  2  0
 13 14  1  0
 14 15  2  0
 14 16  1  0
 16 17  1  0
 17 18  1  0
 18 19  1  0
 19 20  1  1
 20 21  3  0
 19 22  1  0
 22 23  1  0
 22 24  2  0
 19 25  1  0
 13  2  1  0
 25 16  1  0
 11  5  1  0
  1 26  1  0
  1 27  1  0
  1 28  1  0
  6 29  1  0
  7 30  1  0
 10 31  1  0
 11 32  1  0
 12 33  1  0
 17 34  1  0
 17 35  1  0
 18 36  1  0
 18 37  1  0
 23 38  1  0
 23 39  1  0
 25 40  1  0
 25 41  1  0
M  END
>  <meeko>  (2) 
{"is_sidechain": [false], "free_energy": -8.218, "intermolecular_energy": -9.954, "internal_energy": -0.756}

$$$$
ligand_73_conformer_4_docked
     RDKit          3D

 41 43  0  0  0  0  0  0  0  0999 V2000
    2.7460   47.2190   52.1940 C   0  0  0  0  0  0  0  0  0  0  0  0
    3.9730   46.6810   52.7730 N   0  0  0  0  0  0  0  0  0  0  0  0
    5.1630   46.8650   52.2230 N   0  0  0  0  0  0  0  0  0  0  0  0
    6.0900   46.3240   53.0430 C   0  0  0  0  0  0  0  0  0  0  0  0
    7.5450   46.3380   52.7590 C   0  0  0  0  0  0  0  0  0  0  0  0
    8.4820   46.6760   53.7550 C   0  0  0  0  0  0  0  0  0  0  0  0
    9.8510   46.6830   53.4660 C   0  0  0  0  0  0  0  0  0  0  0  0
   10.3000   46.3520   52.1860 C   0  0  0  0  0  0  0  0  0  0  0  0
   11.6270   46.3590   51.9100 F   0  0  0  0  0  0  0  0  0  0  0  0
    9.3810   46.0150   51.1900 C   0  0  0  0  0  0  0  0  0  0  0  0
    8.0110   46.0080   51.4720 C   0  0  0  0  0  0  0  0  0  0  0  0
    5.4610   45.7860   54.1590 C   0  0  0  0  0  0  0  0  0  0  0  0
    4.1190   46.0190   53.9420 C   0  0  0  0  0  0  0  0  0  0  0  0
    3.0360   45.6400   54.8640 C   0  0  0  0  0  0  0  0  0  0  0  0
    3.0970   46.0220   56.0630 O   0  0  0  0  0  0  0  0  0  0  0  0
    1.9430   44.8130   54.4310 N   0  0  0  0  0  0  0  0  0  0  0  0
    2.1420   43.5650   53.7140 C   0  0  0  0  0  0  0  0  0  0  0  0
    0.7450   43.0470   53.3970 C   0  0  0  0  0  0  0  0  0  0  0  0
   -0.2000   44.2580   53.5400 C   0  0  2  0  0  0  0  0  0  0  0  0
   -1.4750   43.8440   54.1690 C   0  0  0  0  0  0  0  0  0  0  0  0
   -2.4710   43.5210   54.6610 N   0  0  0  0  0  0  0  0  0  0  0  0
   -0.4650   44.8810   52.1730 C   0  0  0  0  0  0  0  0  0  0  0  0
    0.2440   44.4410   51.0100 N   0  0  0  0  0  0  0  0  0  0  0  0
   -1.3600   45.7600   52.0380 O   0  0  0  0  0  0  0  0  0  0  0  0
    0.5500   45.2320   54.4680 C   0  0  0  0  0  0  0  0  0  0  0  0
    2.0610   47.5194   53.0005 H   0  0  0  0  0  0  0  0  0  0  0  0
    2.9868   48.0941   51.5725 H   0  0  0  0  0  0  0  0  0  0  0  0
    2.2655   46.4490   51.5725 H   0  0  0  0  0  0  0  0  0  0  0  0
    8.1354   46.9360   54.7661 H   0  0  0  0  0  0  0  0  0  0  0  0
   10.5756   46.9500   54.2494 H   0  0  0  0  0  0  0  0  0  0  0  0
    9.7352   45.7545   50.1817 H   0  0  0  0  0  0  0  0  0  0  0  0
    7.2924   45.7427   50.6825 H   0  0  0  0  0  0  0  0  0  0  0  0
    5.9279   45.2869   55.0209 H   0  0  0  0  0  0  0  0  0  0  0  0
    2.7059   43.7410   52.7861 H   0  0  0  0  0  0  0  0  0  0  0  0
    2.7189   42.8416   54.3088 H   0  0  0  0  0  0  0  0  0  0  0  0
    0.7075   42.6520   52.3711 H   0  0  0  0  0  0  0  0  0  0  0  0
    0.4559   42.2283   54.0724 H   0  0  0  0  0  0  0  0  0  0  0  0
    0.0340   44.8660   50.0800 H   0  0  0  0  0  0  0  0  0  0  0  0
    0.9730   43.6970   51.0600 H   0  0  0  0  0  0  0  0  0  0  0  0
    0.4498   46.2647   54.1025 H   0  0  0  0  0  0  0  0  0  0  0  0
    0.1460   45.2123   55.4909 H   0  0  0  0  0  0  0  0  0  0  0  0
  1  2  1  0
  2  3  1  0
  3  4  2  0
  4  5  1  0
  5  6  2  0
  6  7  1  0
  7  8  2  0
  8  9  1  0
  8 10  1  0
 10 11  2  0
  4 12  1  0
 12 13  2  0
 13 14  1  0
 14 15  2  0
 14 16  1  0
 16 17  1  0
 17 18  1  0
 18 19  1  0
 19 20  1  1
 20 21  3  0
 19 22  1  0
 22 23  1  0
 22 24  2  0
 19 25  1  0
 13  2  1  0
 25 16  1  0
 11  5  1  0
  1 26  1  0
  1 27  1  0
  1 28  1  0
  6 29  1  0
  7 30  1  0
 10 31  1  0
 11 32  1  0
 12 33  1  0
 17 34  1  0
 17 35  1  0
 18 36  1  0
 18 37  1  0
 23 38  1  0
 23 39  1  0
 25 40  1  0
 25 41  1  0
M  END
>  <meeko>  (3) 
{"is_sidechain": [false], "free_energy": -8.206, "intermolecular_energy": -10.031, "internal_energy": -0.665}

$$$$
ligand_73_conformer_4_docked
     RDKit          3D

 41 43  0  0  0  0  0  0  0  0999 V2000
    2.2610   42.5400   52.3860 C   0  0  0  0  0  0  0  0  0  0  0  0
    3.0740   43.6740   52.8150 N   0  0  0  0  0  0  0  0  0  0  0  0
    4.2230   43.9870   52.2370 N   0  0  0  0  0  0  0  0  0  0  0  0
    4.6760   45.1270   52.8030 C   0  0  0  0  0  0  0  0  0  0  0  0
    5.9440   45.7890   52.4110 C   0  0  0  0  0  0  0  0  0  0  0  0
    6.4870   46.8410   53.1750 C   0  0  0  0  0  0  0  0  0  0  0  0
    7.6840   47.4530   52.7880 C   0  0  0  0  0  0  0  0  0  0  0  0
    8.3530   47.0230   51.6400 C   0  0  0  0  0  0  0  0  0  0  0  0
    9.5140   47.6170   51.2690 F   0  0  0  0  0  0  0  0  0  0  0  0
    7.8250   45.9810   50.8740 C   0  0  0  0  0  0  0  0  0  0  0  0
    6.6280   45.3670   51.2550 C   0  0  0  0  0  0  0  0  0  0  0  0
    3.7730   45.5550   53.7670 C   0  0  0  0  0  0  0  0  0  0  0  0
    2.7800   44.5980   53.7550 C   0  0  0  0  0  0  0  0  0  0  0  0
    1.5780   44.6180   54.6050 C   0  0  0  0  0  0  0  0  0  0  0  0
    1.7170   44.5590   55.8550 O   0  0  0  0  0  0  0  0  0  0  0  0
    0.2610   44.6610   54.0320 N   0  0  0  0  0  0  0  0  0  0  0  0
   -0.8700   43.9600   54.6170 C   0  0  0  0  0  0  0  0  0  0  0  0
   -2.0420   44.2170   53.6780 C   0  0  0  0  0  0  0  0  0  0  0  0
   -1.4240   44.6750   52.3410 C   0  0  2  0  0  0  0  0  0  0  0  0
   -2.2380   45.7570   51.7410 C   0  0  0  0  0  0  0  0  0  0  0  0
   -2.8740   46.6020   51.2720 N   0  0  0  0  0  0  0  0  0  0  0  0
   -1.3220   43.4960   51.3790 C   0  0  0  0  0  0  0  0  0  0  0  0
   -0.6030   43.6060   50.1480 N   0  0  0  0  0  0  0  0  0  0  0  0
   -1.8280   42.3810   51.6860 O   0  0  0  0  0  0  0  0  0  0  0  0
   -0.0310   45.2160   52.7200 C   0  0  0  0  0  0  0  0  0  0  0  0
    1.8792   42.0075   53.2695 H   0  0  0  0  0  0  0  0  0  0  0  0
    1.4156   42.9023   51.7826 H   0  0  0  0  0  0  0  0  0  0  0  0
    2.8755   41.8557   51.7826 H   0  0  0  0  0  0  0  0  0  0  0  0
    5.9664   47.1833   54.0815 H   0  0  0  0  0  0  0  0  0  0  0  0
    8.0993   48.2750   53.3895 H   0  0  0  0  0  0  0  0  0  0  0  0
    8.3518   45.6429   49.9695 H   0  0  0  0  0  0  0  0  0  0  0  0
    6.2174   44.5476   50.6467 H   0  0  0  0  0  0  0  0  0  0  0  0
    3.8355   46.4541   54.3977 H   0  0  0  0  0  0  0  0  0  0  0  0
   -0.6608   42.8821   54.6838 H   0  0  0  0  0  0  0  0  0  0  0  0
   -1.0821   44.3105   55.6379 H   0  0  0  0  0  0  0  0  0  0  0  0
   -2.6251   43.2955   53.5336 H   0  0  0  0  0  0  0  0  0  0  0  0
   -2.7261   44.9756   54.0862 H   0  0  0  0  0  0  0  0  0  0  0  0
   -0.5280   42.7800   49.5120 H   0  0  0  0  0  0  0  0  0  0  0  0
   -0.1410   44.4950   49.8600 H   0  0  0  0  0  0  0  0  0  0  0  0
    0.7210   44.8866   51.9878 H   0  0  0  0  0  0  0  0  0  0  0  0
   -0.0106   46.3158   52.7298 H   0  0  0  0  0  0  0  0  0  0  0  0
  1  2  1  0
  2  3  1  0
  3  4  2  0
  4  5  1  0
  5  6  2  0
  6  7  1  0
  7  8  2  0
  8  9  1  0
  8 10  1  0
 10 11  2  0
  4 12  1  0
 12 13  2  0
 13 14  1  0
 14 15  2  0
 14 16  1  0
 16 17  1  0
 17 18  1  0
 18 19  1  0
 19 20  1  6
 20 21  3  0
 19 22  1  0
 22 23  1  0
 22 24  2  0
 19 25  1  0
 13  2  1  0
 25 16  1  0
 11  5  1  0
  1 26  1  0
  1 27  1  0
  1 28  1  0
  6 29  1  0
  7 30  1  0
 10 31  1  0
 11 32  1  0
 12 33  1  0
 17 34  1  0
 17 35  1  0
 18 36  1  0
 18 37  1  0
 23 38  1  0
 23 39  1  0
 25 40  1  0
 25 41  1  0
M  END
>  <meeko>  (4) 
{"is_sidechain": [false], "free_energy": -7.951, "intermolecular_energy": -9.757, "internal_energy": -0.624}

$$$$
ligand_73_conformer_4_docked
     RDKit          3D

 41 43  0  0  0  0  0  0  0  0999 V2000
    3.7530   42.1830   50.8850 C   0  0  0  0  0  0  0  0  0  0  0  0
    4.1510   43.4370   51.5180 N   0  0  0  0  0  0  0  0  0  0  0  0
    5.4170   43.7680   51.7120 N   0  0  0  0  0  0  0  0  0  0  0  0
    5.4470   45.0140   52.2330 C   0  0  0  0  0  0  0  0  0  0  0  0
    6.6990   45.7270   52.5830 C   0  0  0  0  0  0  0  0  0  0  0  0
    6.9280   46.2050   53.8890 C   0  0  0  0  0  0  0  0  0  0  0  0
    8.1170   46.8750   54.2000 C   0  0  0  0  0  0  0  0  0  0  0  0
    9.0870   47.0750   53.2160 C   0  0  0  0  0  0  0  0  0  0  0  0
   10.2380   47.7230   53.5210 F   0  0  0  0  0  0  0  0  0  0  0  0
    8.8720   46.6060   51.9190 C   0  0  0  0  0  0  0  0  0  0  0  0
    7.6860   45.9360   51.6020 C   0  0  0  0  0  0  0  0  0  0  0  0
    4.1490   45.4910   52.3630 C   0  0  0  0  0  0  0  0  0  0  0  0
    3.3570   44.4550   51.9140 C   0  0  0  0  0  0  0  0  0  0  0  0
    1.8870   44.4860   51.8440 C   0  0  0  0  0  0  0  0  0  0  0  0
    1.3370   44.9030   50.7900 O   0  0  0  0  0  0  0  0  0  0  0  0
    1.0790   44.0900   52.9640 N   0  0  0  0  0  0  0  0  0  0  0  0
    0.6240   42.7240   53.1580 C   0  0  0  0  0  0  0  0  0  0  0  0
   -0.2400   42.7530   54.4130 C   0  0  0  0  0  0  0  0  0  0  0  0
   -0.6260   44.2300   54.6290 C   0  0  2  0  0  0  0  0  0  0  0  0
   -0.6000   44.5630   56.0720 C   0  0  0  0  0  0  0  0  0  0  0  0
   -0.5780   44.8230   57.1990 N   0  0  0  0  0  0  0  0  0  0  0  0
   -2.0120   44.5000   54.0510 C   0  0  0  0  0  0  0  0  0  0  0  0
   -2.2920   45.7050   53.3330 N   0  0  0  0  0  0  0  0  0  0  0  0
   -2.9220   43.6310   54.1520 O   0  0  0  0  0  0  0  0  0  0  0  0
    0.4600   45.0310   53.8860 C   0  0  0  0  0  0  0  0  0  0  0  0
    3.5170   41.4395   51.6606 H   0  0  0  0  0  0  0  0  0  0  0  0
    2.8650   42.3541   50.2588 H   0  0  0  0  0  0  0  0  0  0  0  0
    4.5771   41.8107   50.2588 H   0  0  0  0  0  0  0  0  0  0  0  0
    6.1676   46.0506   54.6687 H   0  0  0  0  0  0  0  0  0  0  0  0
    8.2875   47.2447   55.2219 H   0  0  0  0  0  0  0  0  0  0  0  0
    9.6371   46.7637   51.1445 H   0  0  0  0  0  0  0  0  0  0  0  0
    7.5234   45.5695   50.5777 H   0  0  0  0  0  0  0  0  0  0  0  0
    3.8258   46.4729   52.7390 H   0  0  0  0  0  0  0  0  0  0  0  0
    0.0328   42.3899   52.2927 H   0  0  0  0  0  0  0  0  0  0  0  0
    1.4673   42.0253   53.2610 H   0  0  0  0  0  0  0  0  0  0  0  0
   -1.1416   42.1392   54.2706 H   0  0  0  0  0  0  0  0  0  0  0  0
    0.2977   42.3458   55.2819 H   0  0  0  0  0  0  0  0  0  0  0  0
   -3.2420   45.8620   52.9280 H   0  0  0  0  0  0  0  0  0  0  0  0
   -1.5690   46.4420   53.1960 H   0  0  0  0  0  0  0  0  0  0  0  0
    0.0090   45.8689   53.3341 H   0  0  0  0  0  0  0  0  0  0  0  0
    1.1949   45.4623   54.5816 H   0  0  0  0  0  0  0  0  0  0  0  0
  1  2  1  0
  2  3  1  0
  3  4  2  0
  4  5  1  0
  5  6  2  0
  6  7  1  0
  7  8  2  0
  8  9  1  0
  8 10  1  0
 10 11  2  0
  4 12  1  0
 12 13  2  0
 13 14  1  0
 14 15  2  0
 14 16  1  0
 16 17  1  0
 17 18  1  0
 18 19  1  0
 19 20  1  1
 20 21  3  0
 19 22  1  0
 22 23  1  0
 22 24  2  0
 19 25  1  0
 13  2  1  0
 25 16  1  0
 11  5  1  0
  1 26  1  0
  1 27  1  0
  1 28  1  0
  6 29  1  0
  7 30  1  0
 10 31  1  0
 11 32  1  0
 12 33  1  0
 17 34  1  0
 17 35  1  0
 18 36  1  0
 18 37  1  0
 23 38  1  0
 23 39  1  0
 25 40  1  0
 25 41  1  0
M  END
>  <meeko>  (5) 
{"is_sidechain": [false], "free_energy": -7.945, "intermolecular_energy": -9.614, "internal_energy": -0.759}

$$$$
