MODEL 1
REMARK VINA RESULT:    -6.512      0.000      0.000
REMARK INTER + INTRA:          -9.681
REMARK INTER:                  -9.938
REMARK INTRA:                   0.257
REMARK UNBOUND:                 0.257
REMARK SMILES Cc1nc(N2CCCN(c3ccncc3)CC2)c(C)c(-n2cccn2)n1
REMARK SMILES IDX 17 1 5 2 4 3 2 4 3 5 26 6 20 7 18 8 1 9 19 10 21 11 22 12
REMARK SMILES IDX 25 13 23 14 24 15 6 16 7 17 16 19 9 20 8 21 10 23 11 24
REMARK SMILES IDX 15 25 12 26 14 27 13 28
REMARK H PARENT
REMARK Flexibility Score:   55.900
ROOT
ATOM      1  C   UNL     1       3.824  43.612  52.161  1.00  0.00     0.139 C 
ENDROOT
BRANCH   1   2
ATOM      2  N   UNL     1       4.265  44.917  51.668  1.00  0.00    -0.354 N 
BRANCH   2   3
ATOM      3  C   UNL     1       5.670  45.185  51.569  1.00  0.00     0.137 A 
ATOM      4  C   UNL     1       7.677  44.983  50.332  1.00  0.00     0.130 A 
ATOM      5  N   UNL     1       6.346  44.768  50.467  1.00  0.00    -0.216 NA
ATOM      6  N   UNL     1       8.360  45.625  51.312  1.00  0.00    -0.214 NA
ATOM      7  C   UNL     1       7.749  46.050  52.449  1.00  0.00     0.162 A 
ATOM      8  C   UNL     1       6.352  45.873  52.593  1.00  0.00     0.036 A 
ATOM      9  C   UNL     1       8.380  44.558  49.085  1.00  0.00     0.090 C 
ATOM     10  C   UNL     1       5.597  46.399  53.789  1.00  0.00     0.052 C 
BRANCH   7  11
ATOM     11  N   UNL     1       8.550  46.687  53.456  1.00  0.00    -0.222 N 
ATOM     12  C   UNL     1       9.848  46.450  53.728  1.00  0.00     0.117 A 
ATOM     13  N   UNL     1       8.125  47.714  54.174  1.00  0.00    -0.175 NA
ATOM     14  C   UNL     1      10.262  47.345  54.691  1.00  0.00     0.042 A 
ATOM     15  C   UNL     1       9.150  48.124  54.946  1.00  0.00     0.135 A 
ENDBRANCH   7  11
ENDBRANCH   2   3
BRANCH   2  16
ATOM     16  C   UNL     1       3.319  45.793  50.974  1.00  0.00     0.120 C 
BRANCH  16  17
ATOM     17  C   UNL     1       2.705  46.805  51.949  1.00  0.00     0.043 CG0
ATOM     18  G   UNL     1       1.896  46.144  53.079  1.00  0.00     0.000 G0
ENDBRANCH  16  17
ENDBRANCH   2  16
ENDBRANCH   1   2
BRANCH   1  19
ATOM     19  C   UNL     1       2.872  43.780  53.350  1.00  0.00     0.138 C 
BRANCH  19  20
ATOM     20  N   UNL     1       1.754  44.674  53.000  1.00  0.00    -0.370 N 
BRANCH  20  21
ATOM     21  C   UNL     1       1.885  46.145  53.081  1.00  0.00     0.118 CG0
ATOM     22  G   UNL     1       2.705  46.792  51.950  1.00  0.00     0.000 G0
ENDBRANCH  20  21
BRANCH  20  23
ATOM     23  C   UNL     1       0.514  44.110  52.505  1.00  0.00     0.040 A 
ATOM     24  C   UNL     1       0.248  42.732  52.620  1.00  0.00     0.046 A 
ATOM     25  C   UNL     1      -0.457  44.928  51.896  1.00  0.00     0.046 A 
ATOM     26  C   UNL     1      -0.953  42.211  52.133  1.00  0.00     0.113 A 
ATOM     27  C   UNL     1      -1.642  44.364  51.420  1.00  0.00     0.113 A 
ATOM     28  N   UNL     1      -1.866  43.031  51.548  1.00  0.00    -0.265 NA
ENDBRANCH  20  23
ENDBRANCH  19  20
ENDBRANCH   1  19
TORSDOF 3
ENDMDL
MODEL 2
REMARK VINA RESULT:    -6.511      1.832      8.183
REMARK INTER + INTRA:          -9.680
REMARK INTER:                  -9.515
REMARK INTRA:                  -0.165
REMARK UNBOUND:                 0.257
REMARK SMILES Cc1nc(N2CCCN(c3ccncc3)CC2)c(C)c(-n2cccn2)n1
REMARK SMILES IDX 17 1 5 2 4 3 2 4 3 5 26 6 20 7 18 8 1 9 19 10 21 11 22 12
REMARK SMILES IDX 25 13 23 14 24 15 6 16 7 17 16 19 9 20 8 21 10 23 11 24
REMARK SMILES IDX 15 25 12 26 14 27 13 28
REMARK H PARENT
REMARK Flexibility Score:   55.900
ROOT
ATOM      1  C   UNL     1       4.833  44.269  53.258  1.00  0.00     0.139 C 
ENDROOT
BRANCH   1   2
ATOM      2  N   UNL     1       3.724  45.149  52.891  1.00  0.00    -0.354 N 
BRANCH   2   3
ATOM      3  C   UNL     1       2.433  44.920  53.470  1.00  0.00     0.137 A 
ATOM      4  C   UNL     1       1.051  44.958  55.391  1.00  0.00     0.130 A 
ATOM      5  N   UNL     1       2.248  45.172  54.792  1.00  0.00    -0.216 NA
ATOM      6  N   UNL     1       0.009  44.481  54.666  1.00  0.00    -0.214 NA
ATOM      7  C   UNL     1       0.132  44.189  53.343  1.00  0.00     0.162 A 
ATOM      8  C   UNL     1       1.361  44.443  52.689  1.00  0.00     0.036 A 
ATOM      9  C   UNL     1       0.866  45.295  56.834  1.00  0.00     0.090 C 
ATOM     10  C   UNL     1       1.538  44.226  51.206  1.00  0.00     0.052 C 
BRANCH   7  11
ATOM     11  N   UNL     1      -1.007  43.651  52.656  1.00  0.00    -0.222 N 
ATOM     12  C   UNL     1      -1.937  44.340  51.965  1.00  0.00     0.117 A 
ATOM     13  N   UNL     1      -1.212  42.352  52.505  1.00  0.00    -0.175 NA
ATOM     14  C   UNL     1      -2.796  43.439  51.374  1.00  0.00     0.042 A 
ATOM     15  C   UNL     1      -2.308  42.199  51.736  1.00  0.00     0.135 A 
ENDBRANCH   7  11
ENDBRANCH   2   3
BRANCH   2  16
ATOM     16  C   UNL     1       3.995  46.426  52.228  1.00  0.00     0.120 C 
BRANCH  16  17
ATOM     17  C   UNL     1       4.059  47.564  53.254  1.00  0.00     0.043 CG0
ATOM     18  G   UNL     1       5.270  47.461  54.199  1.00  0.00     0.000 G0
ENDBRANCH  16  17
ENDBRANCH   2  16
ENDBRANCH   1   2
BRANCH   1  19
ATOM     19  C   UNL     1       5.685  44.906  54.361  1.00  0.00     0.138 C 
BRANCH  19  20
ATOM     20  N   UNL     1       6.123  46.256  53.965  1.00  0.00    -0.370 N 
BRANCH  20  21
ATOM     21  C   UNL     1       5.273  47.445  54.193  1.00  0.00     0.118 CG0
ATOM     22  G   UNL     1       4.057  47.568  53.257  1.00  0.00     0.000 G0
ENDBRANCH  20  21
BRANCH  20  23
ATOM     23  C   UNL     1       7.444  46.442  53.396  1.00  0.00     0.040 A 
ATOM     24  C   UNL     1       8.520  46.884  54.189  1.00  0.00     0.046 A 
ATOM     25  C   UNL     1       7.683  46.182  52.032  1.00  0.00     0.046 A 
ATOM     26  C   UNL     1       9.783  47.057  53.617  1.00  0.00     0.113 A 
ATOM     27  C   UNL     1       8.961  46.372  51.502  1.00  0.00     0.113 A 
ATOM     28  N   UNL     1       9.975  46.800  52.297  1.00  0.00    -0.265 NA
ENDBRANCH  20  23
ENDBRANCH  19  20
ENDBRANCH   1  19
TORSDOF 3
ENDMDL
MODEL 3
REMARK VINA RESULT:    -6.409      1.900      3.991
REMARK INTER + INTRA:          -9.525
REMARK INTER:                  -9.812
REMARK INTRA:                   0.287
REMARK UNBOUND:                 0.257
REMARK SMILES Cc1nc(N2CCCN(c3ccncc3)CC2)c(C)c(-n2cccn2)n1
REMARK SMILES IDX 17 1 5 2 4 3 2 4 3 5 26 6 20 7 18 8 1 9 19 10 21 11 22 12
REMARK SMILES IDX 25 13 23 14 24 15 6 16 7 17 16 19 9 20 8 21 10 23 11 24
REMARK SMILES IDX 15 25 12 26 14 27 13 28
REMARK H PARENT
REMARK Flexibility Score:   55.900
ROOT
ATOM      1  C   UNL     1       3.704  47.370  53.145  1.00  0.00     0.139 C 
ENDROOT
BRANCH   1   2
ATOM      2  N   UNL     1       4.669  46.336  53.520  1.00  0.00    -0.354 N 
BRANCH   2   3
ATOM      3  C   UNL     1       5.673  45.945  52.574  1.00  0.00     0.137 A 
ATOM      4  C   UNL     1       7.767  46.385  51.562  1.00  0.00     0.130 A 
ATOM      5  N   UNL     1       6.794  46.702  52.451  1.00  0.00    -0.216 NA
ATOM      6  N   UNL     1       7.627  45.292  50.771  1.00  0.00    -0.214 NA
ATOM      7  C   UNL     1       6.521  44.503  50.830  1.00  0.00     0.162 A 
ATOM      8  C   UNL     1       5.512  44.793  51.779  1.00  0.00     0.036 A 
ATOM      9  C   UNL     1       9.010  47.208  51.488  1.00  0.00     0.090 C 
ATOM     10  C   UNL     1       4.303  43.908  51.957  1.00  0.00     0.052 C 
BRANCH   7  11
ATOM     11  N   UNL     1       6.432  43.387  49.932  1.00  0.00    -0.222 N 
ATOM     12  C   UNL     1       5.891  42.180  50.190  1.00  0.00     0.117 A 
ATOM     13  N   UNL     1       6.768  43.460  48.654  1.00  0.00    -0.175 NA
ATOM     14  C   UNL     1       5.914  41.435  49.031  1.00  0.00     0.042 A 
ATOM     15  C   UNL     1       6.473  42.273  48.087  1.00  0.00     0.135 A 
ENDBRANCH   7  11
ENDBRANCH   2   3
BRANCH   2  16
ATOM     16  C   UNL     1       4.825  45.959  54.926  1.00  0.00     0.120 C 
BRANCH  16  17
ATOM     17  C   UNL     1       3.628  45.126  55.398  1.00  0.00     0.043 CG0
ATOM     18  G   UNL     1       2.271  45.738  55.007  1.00  0.00     0.000 G0
ENDBRANCH  16  17
ENDBRANCH   2  16
ENDBRANCH   1   2
BRANCH   1  19
ATOM     19  C   UNL     1       2.404  46.735  52.640  1.00  0.00     0.138 C 
BRANCH  19  20
ATOM     20  N   UNL     1       1.939  45.690  53.569  1.00  0.00    -0.370 N 
BRANCH  20  21
ATOM     21  C   UNL     1       2.259  45.738  55.012  1.00  0.00     0.118 CG0
ATOM     22  G   UNL     1       3.611  45.115  55.403  1.00  0.00     0.000 G0
ENDBRANCH  20  21
BRANCH  20  23
ATOM     23  C   UNL     1       1.095  44.619  53.076  1.00  0.00     0.040 A 
ATOM     24  C   UNL     1       0.935  43.427  53.809  1.00  0.00     0.046 A 
ATOM     25  C   UNL     1       0.413  44.745  51.851  1.00  0.00     0.046 A 
ATOM     26  C   UNL     1       0.118  42.408  53.313  1.00  0.00     0.113 A 
ATOM     27  C   UNL     1      -0.391  43.699  51.392  1.00  0.00     0.113 A 
ATOM     28  N   UNL     1      -0.522  42.564  52.125  1.00  0.00    -0.265 NA
ENDBRANCH  20  23
ENDBRANCH  19  20
ENDBRANCH   1  19
TORSDOF 3
ENDMDL
MODEL 4
REMARK VINA RESULT:    -6.393      2.621      7.532
REMARK INTER + INTRA:          -9.500
REMARK INTER:                  -9.073
REMARK INTRA:                  -0.427
REMARK UNBOUND:                 0.257
REMARK SMILES Cc1nc(N2CCCN(c3ccncc3)CC2)c(C)c(-n2cccn2)n1
REMARK SMILES IDX 17 1 5 2 4 3 2 4 3 5 26 6 20 7 18 8 1 9 19 10 21 11 22 12
REMARK SMILES IDX 25 13 23 14 24 15 6 16 7 17 16 19 9 20 8 21 10 23 11 24
REMARK SMILES IDX 15 25 12 26 14 27 13 28
REMARK H PARENT
REMARK Flexibility Score:   55.900
ROOT
ATOM      1  C   UNL     1       3.894  46.885  53.611  1.00  0.00     0.139 C 
ENDROOT
BRANCH   1   2
ATOM      2  N   UNL     1       3.602  45.545  54.119  1.00  0.00    -0.354 N 
BRANCH   2   3
ATOM      3  C   UNL     1       2.356  44.926  53.773  1.00  0.00     0.137 A 
ATOM      4  C   UNL     1       1.068  43.748  52.175  1.00  0.00     0.130 A 
ATOM      5  N   UNL     1       2.229  44.334  52.558  1.00  0.00    -0.216 NA
ATOM      6  N   UNL     1       0.003  43.749  53.015  1.00  0.00    -0.214 NA
ATOM      7  C   UNL     1       0.057  44.342  54.238  1.00  0.00     0.162 A 
ATOM      8  C   UNL     1       1.271  44.924  54.673  1.00  0.00     0.036 A 
ATOM      9  C   UNL     1       0.977  43.059  50.854  1.00  0.00     0.090 C 
ATOM     10  C   UNL     1       1.425  45.520  56.051  1.00  0.00     0.052 C 
BRANCH   7  11
ATOM     11  N   UNL     1      -1.125  44.334  55.051  1.00  0.00    -0.222 N 
ATOM     12  C   UNL     1      -2.019  45.333  55.194  1.00  0.00     0.117 A 
ATOM     13  N   UNL     1      -1.562  43.254  55.679  1.00  0.00    -0.175 NA
ATOM     14  C   UNL     1      -3.057  44.881  55.978  1.00  0.00     0.042 A 
ATOM     15  C   UNL     1      -2.735  43.569  56.264  1.00  0.00     0.135 A 
ENDBRANCH   7  11
ENDBRANCH   2   3
BRANCH   2  16
ATOM     16  C   UNL     1       4.680  44.723  54.673  1.00  0.00     0.120 C 
BRANCH  16  17
ATOM     17  C   UNL     1       5.911  45.584  54.982  1.00  0.00     0.043 CG0
ATOM     18  G   UNL     1       6.652  46.056  53.719  1.00  0.00     0.000 G0
ENDBRANCH  16  17
ENDBRANCH   2  16
ENDBRANCH   1   2
BRANCH   1  19
ATOM     19  C   UNL     1       4.667  46.804  52.291  1.00  0.00     0.138 C 
BRANCH  19  20
ATOM     20  N   UNL     1       5.902  46.019  52.457  1.00  0.00    -0.370 N 
BRANCH  20  21
ATOM     21  C   UNL     1       6.677  46.051  53.717  1.00  0.00     0.118 CG0
ATOM     22  G   UNL     1       5.912  45.580  54.967  1.00  0.00     0.000 G0
ENDBRANCH  20  21
BRANCH  20  23
ATOM     23  C   UNL     1       6.343  45.143  51.389  1.00  0.00     0.040 A 
ATOM     24  C   UNL     1       7.533  45.404  50.683  1.00  0.00     0.046 A 
ATOM     25  C   UNL     1       5.590  44.008  51.031  1.00  0.00     0.046 A 
ATOM     26  C   UNL     1       7.936  44.547  49.656  1.00  0.00     0.113 A 
ATOM     27  C   UNL     1       6.029  43.181  49.996  1.00  0.00     0.113 A 
ATOM     28  N   UNL     1       7.182  43.463  49.336  1.00  0.00    -0.265 NA
ENDBRANCH  20  23
ENDBRANCH  19  20
ENDBRANCH   1  19
TORSDOF 3
ENDMDL
MODEL 5
REMARK VINA RESULT:    -6.361      1.812      7.754
REMARK INTER + INTRA:          -9.450
REMARK INTER:                  -9.269
REMARK INTRA:                  -0.181
REMARK UNBOUND:                 0.257
REMARK SMILES Cc1nc(N2CCCN(c3ccncc3)CC2)c(C)c(-n2cccn2)n1
REMARK SMILES IDX 17 1 5 2 4 3 2 4 3 5 26 6 20 7 18 8 1 9 19 10 21 11 22 12
REMARK SMILES IDX 25 13 23 14 24 15 6 16 7 17 16 19 9 20 8 21 10 23 11 24
REMARK SMILES IDX 15 25 12 26 14 27 13 28
REMARK H PARENT
REMARK Flexibility Score:   55.900
ROOT
ATOM      1  C   UNL     1       4.232  44.924  54.309  1.00  0.00     0.139 C 
ENDROOT
BRANCH   1   2
ATOM      2  N   UNL     1       3.841  45.171  52.922  1.00  0.00    -0.354 N 
BRANCH   2   3
ATOM      3  C   UNL     1       3.079  44.176  52.226  1.00  0.00     0.137 A 
ATOM      4  C   UNL     1       3.059  42.266  50.827  1.00  0.00     0.130 A 
ATOM      5  N   UNL     1       3.733  43.221  51.515  1.00  0.00    -0.216 NA
ATOM      6  N   UNL     1       1.703  42.256  50.840  1.00  0.00    -0.214 NA
ATOM      7  C   UNL     1       0.987  43.195  51.514  1.00  0.00     0.162 A 
ATOM      8  C   UNL     1       1.670  44.176  52.272  1.00  0.00     0.036 A 
ATOM      9  C   UNL     1       3.809  41.200  50.099  1.00  0.00     0.090 C 
ATOM     10  C   UNL     1       0.937  45.191  53.114  1.00  0.00     0.052 C 
BRANCH   7  11
ATOM     11  N   UNL     1      -0.445  43.138  51.446  1.00  0.00    -0.222 N 
ATOM     12  C   UNL     1      -1.235  43.698  50.508  1.00  0.00     0.117 A 
ATOM     13  N   UNL     1      -1.177  42.388  52.254  1.00  0.00    -0.175 NA
ATOM     14  C   UNL     1      -2.537  43.317  50.751  1.00  0.00     0.042 A 
ATOM     15  C   UNL     1      -2.461  42.493  51.857  1.00  0.00     0.135 A 
ENDBRANCH   7  11
ENDBRANCH   2   3
BRANCH   2  16
ATOM     16  C   UNL     1       3.922  46.525  52.370  1.00  0.00     0.120 C 
BRANCH  16  17
ATOM     17  C   UNL     1       4.002  47.563  53.496  1.00  0.00     0.043 CG0
ATOM     18  G   UNL     1       5.373  47.595  54.195  1.00  0.00     0.000 G0
ENDBRANCH  16  17
ENDBRANCH   2  16
ENDBRANCH   1   2
BRANCH   1  19
ATOM     19  C   UNL     1       5.749  45.063  54.475  1.00  0.00     0.138 C 
BRANCH  19  20
ATOM     20  N   UNL     1       6.205  46.383  54.006  1.00  0.00    -0.370 N 
BRANCH  20  21
ATOM     21  C   UNL     1       5.384  47.599  54.196  1.00  0.00     0.118 CG0
ATOM     22  G   UNL     1       4.011  47.576  53.501  1.00  0.00     0.000 G0
ENDBRANCH  20  21
BRANCH  20  23
ATOM     23  C   UNL     1       7.516  46.513  53.400  1.00  0.00     0.040 A 
ATOM     24  C   UNL     1       8.647  46.825  54.180  1.00  0.00     0.046 A 
ATOM     25  C   UNL     1       7.690  46.330  52.015  1.00  0.00     0.046 A 
ATOM     26  C   UNL     1       9.899  46.947  53.572  1.00  0.00     0.113 A 
ATOM     27  C   UNL     1       8.960  46.466  51.450  1.00  0.00     0.113 A 
ATOM     28  N   UNL     1      10.028  46.767  52.232  1.00  0.00    -0.265 NA
ENDBRANCH  20  23
ENDBRANCH  19  20
ENDBRANCH   1  19
TORSDOF 3
ENDMDL
