MODEL 1
REMARK VINA RESULT:    -7.365      0.000      0.000
REMARK INTER + INTRA:         -10.969
REMARK INTER:                 -10.809
REMARK INTRA:                  -0.161
REMARK UNBOUND:                -0.161
REMARK SMILES CC[C@H]1Cc2ccccc2CN1C(=O)[C@@H]1CCc2nncn2CC1
REMARK SMILES IDX 15 1 13 2 14 3 12 4 3 5 4 6 5 7 11 8 6 9 10 10 7 11 9 12
REMARK SMILES IDX 8 13 2 14 1 15 16 16 24 18 23 19 22 20 21 21 18 22 20 23
REMARK SMILES IDX 19 24 17 25
REMARK H PARENT
REMARK Flexibility Score:   51.900
ROOT
ATOM      1  C   UNL     1       2.599  45.005  52.067  1.00  0.00     0.081 C 
ENDROOT
BRANCH   1   2
ATOM      2  C   UNL     1       3.694  45.862  51.457  1.00  0.00     0.226 C 
ATOM      3  O   UNL     1       3.455  46.431  50.355  1.00  0.00    -0.275 OA
BRANCH   2   4
ATOM      4  N   UNL     1       4.979  46.071  52.095  1.00  0.00    -0.335 N 
ATOM      5  C   UNL     1       5.101  46.217  53.559  1.00  0.00     0.089 C 
ATOM      6  C   UNL     1       6.178  47.263  53.894  1.00  0.00     0.061 C 
ATOM      7  C   UNL     1       7.478  46.922  53.229  1.00  0.00    -0.041 A 
ATOM      8  C   UNL     1       6.176  46.051  51.228  1.00  0.00     0.155 C 
ATOM      9  C   UNL     1       8.697  47.224  53.855  1.00  0.00     0.004 A 
ATOM     10  C   UNL     1       7.471  46.323  51.957  1.00  0.00    -0.025 A 
ATOM     11  C   UNL     1       9.905  46.916  53.223  1.00  0.00     0.000 A 
ATOM     12  C   UNL     1       8.691  46.030  51.327  1.00  0.00     0.006 A 
ATOM     13  C   UNL     1       9.901  46.319  51.961  1.00  0.00     0.000 A 
BRANCH   5  14
ATOM     14  C   UNL     1       5.388  44.839  54.205  1.00  0.00     0.022 C 
ATOM     15  C   UNL     1       5.736  44.949  55.690  1.00  0.00     0.006 C 
ENDBRANCH   5  14
ENDBRANCH   2   4
ENDBRANCH   1   2
BRANCH   1  16
ATOM     16  C   UNL     1       2.090  43.959  51.042  1.00  0.00     0.021 CG0
ATOM     17  G   UNL     1       1.495  42.687  51.687  1.00  0.00     0.000 G0
ENDBRANCH   1  16
BRANCH   1  18
ATOM     18  C   UNL     1       1.462  45.922  52.591  1.00  0.00     0.035 C 
BRANCH  18  19
ATOM     19  C   UNL     1       0.039  45.394  52.345  1.00  0.00     0.126 C 
BRANCH  19  20
ATOM     20  N   UNL     1      -0.170  44.100  52.988  1.00  0.00    -0.318 N 
ATOM     21  C   UNL     1      -1.032  43.810  53.977  1.00  0.00     0.225 A 
ATOM     22  C   UNL     1       0.422  42.920  52.719  1.00  0.00     0.132 A 
ATOM     23  N   UNL     1      -0.976  42.503  54.299  1.00  0.00    -0.139 NA
ATOM     24  N   UNL     1      -0.068  41.945  53.510  1.00  0.00    -0.136 NA
BRANCH  22  25
ATOM     25  C   UNL     1       1.483  42.676  51.676  1.00  0.00     0.078 CG0
ATOM     26  G   UNL     1       2.083  43.941  51.022  1.00  0.00     0.000 G0
ENDBRANCH  22  25
ENDBRANCH  19  20
ENDBRANCH  18  19
ENDBRANCH   1  18
TORSDOF 3
ENDMDL
MODEL 2
REMARK VINA RESULT:    -6.949      2.048      2.973
REMARK INTER + INTRA:         -10.359
REMARK INTER:                 -10.045
REMARK INTRA:                  -0.314
REMARK UNBOUND:                -0.161
REMARK SMILES CC[C@H]1Cc2ccccc2CN1C(=O)[C@@H]1CCc2nncn2CC1
REMARK SMILES IDX 15 1 13 2 14 3 12 4 3 5 4 6 5 7 11 8 6 9 10 10 7 11 9 12
REMARK SMILES IDX 8 13 2 14 1 15 16 16 24 18 23 19 22 20 21 21 18 22 20 23
REMARK SMILES IDX 19 24 17 25
REMARK H PARENT
REMARK Flexibility Score:   51.900
ROOT
ATOM      1  C   UNL     1       2.364  45.256  53.753  1.00  0.00     0.081 C 
ENDROOT
BRANCH   1   2
ATOM      2  C   UNL     1       3.764  45.821  53.918  1.00  0.00     0.226 C 
ATOM      3  O   UNL     1       3.997  46.533  54.934  1.00  0.00    -0.275 OA
BRANCH   2   4
ATOM      4  N   UNL     1       4.836  45.558  52.978  1.00  0.00    -0.335 N 
ATOM      5  C   UNL     1       6.056  46.388  52.943  1.00  0.00     0.089 C 
ATOM      6  C   UNL     1       6.521  46.576  51.489  1.00  0.00     0.061 C 
ATOM      7  C   UNL     1       6.695  45.251  50.809  1.00  0.00    -0.041 A 
ATOM      8  C   UNL     1       4.695  44.371  52.107  1.00  0.00     0.155 C 
ATOM      9  C   UNL     1       7.697  45.073  49.842  1.00  0.00     0.004 A 
ATOM     10  C   UNL     1       5.827  44.190  51.123  1.00  0.00    -0.025 A 
ATOM     11  C   UNL     1       7.844  43.840  49.203  1.00  0.00     0.000 A 
ATOM     12  C   UNL     1       5.977  42.959  50.464  1.00  0.00     0.006 A 
ATOM     13  C   UNL     1       6.985  42.784  49.514  1.00  0.00     0.000 A 
BRANCH   5  14
ATOM     14  C   UNL     1       7.149  45.758  53.842  1.00  0.00     0.022 C 
ATOM     15  C   UNL     1       8.497  46.467  53.709  1.00  0.00     0.006 C 
ENDBRANCH   5  14
ENDBRANCH   2   4
ENDBRANCH   1   2
BRANCH   1  16
ATOM     16  C   UNL     1       1.581  46.046  52.672  1.00  0.00     0.021 CG0
ATOM     17  G   UNL     1       0.475  45.223  51.972  1.00  0.00     0.000 G0
ENDBRANCH   1  16
BRANCH   1  18
ATOM     18  C   UNL     1       1.644  45.258  55.127  1.00  0.00     0.035 C 
BRANCH  18  19
ATOM     19  C   UNL     1       0.156  44.873  55.078  1.00  0.00     0.126 C 
BRANCH  19  20
ATOM     20  N   UNL     1      -0.105  43.876  54.044  1.00  0.00    -0.318 N 
ATOM     21  C   UNL     1      -0.553  42.620  54.214  1.00  0.00     0.225 A 
ATOM     22  C   UNL     1       0.013  43.998  52.707  1.00  0.00     0.132 A 
ATOM     23  N   UNL     1      -0.709  41.999  53.030  1.00  0.00    -0.139 NA
ATOM     24  N   UNL     1      -0.358  42.861  52.086  1.00  0.00    -0.136 NA
BRANCH  22  25
ATOM     25  C   UNL     1       0.479  45.225  51.966  1.00  0.00     0.078 CG0
ATOM     26  G   UNL     1       1.577  46.057  52.668  1.00  0.00     0.000 G0
ENDBRANCH  22  25
ENDBRANCH  19  20
ENDBRANCH  18  19
ENDBRANCH   1  18
TORSDOF 3
ENDMDL
MODEL 3
REMARK VINA RESULT:    -6.947      1.787      2.516
REMARK INTER + INTRA:         -10.357
REMARK INTER:                 -10.655
REMARK INTRA:                   0.298
REMARK UNBOUND:                -0.161
REMARK SMILES CC[C@H]1Cc2ccccc2CN1C(=O)[C@@H]1CCc2nncn2CC1
REMARK SMILES IDX 15 1 13 2 14 3 12 4 3 5 4 6 5 7 11 8 6 9 10 10 7 11 9 12
REMARK SMILES IDX 8 13 2 14 1 15 16 16 24 18 23 19 22 20 21 21 18 22 20 23
REMARK SMILES IDX 19 24 17 25
REMARK H PARENT
REMARK Flexibility Score:   51.900
ROOT
ATOM      1  C   UNL     1       2.154  45.791  52.726  1.00  0.00     0.081 C 
ENDROOT
BRANCH   1   2
ATOM      2  C   UNL     1       3.327  46.725  52.489  1.00  0.00     0.226 C 
ATOM      3  O   UNL     1       3.149  47.960  52.684  1.00  0.00    -0.275 OA
BRANCH   2   4
ATOM      4  N   UNL     1       4.636  46.257  52.077  1.00  0.00    -0.335 N 
ATOM      5  C   UNL     1       5.860  46.631  52.814  1.00  0.00     0.089 C 
ATOM      6  C   UNL     1       7.018  46.858  51.828  1.00  0.00     0.061 C 
ATOM      7  C   UNL     1       7.209  45.662  50.944  1.00  0.00    -0.041 A 
ATOM      8  C   UNL     1       4.691  45.322  50.933  1.00  0.00     0.155 C 
ATOM      9  C   UNL     1       8.491  45.301  50.503  1.00  0.00     0.004 A 
ATOM     10  C   UNL     1       6.089  44.917  50.533  1.00  0.00    -0.025 A 
ATOM     11  C   UNL     1       8.660  44.194  49.669  1.00  0.00     0.000 A 
ATOM     12  C   UNL     1       6.271  43.813  49.684  1.00  0.00     0.006 A 
ATOM     13  C   UNL     1       7.552  43.450  49.261  1.00  0.00     0.000 A 
BRANCH   5  14
ATOM     14  C   UNL     1       6.185  45.553  53.877  1.00  0.00     0.022 C 
ATOM     15  C   UNL     1       5.542  45.853  55.231  1.00  0.00     0.006 C 
ENDBRANCH   5  14
ENDBRANCH   2   4
ENDBRANCH   1   2
BRANCH   1  16
ATOM     16  C   UNL     1       2.506  44.734  53.804  1.00  0.00     0.021 CG0
ATOM     17  G   UNL     1       1.277  44.155  54.541  1.00  0.00     0.000 G0
ENDBRANCH   1  16
BRANCH   1  18
ATOM     18  C   UNL     1       1.731  45.147  51.380  1.00  0.00     0.035 C 
BRANCH  18  19
ATOM     19  C   UNL     1       1.432  43.640  51.449  1.00  0.00     0.126 C 
BRANCH  19  20
ATOM     20  N   UNL     1       0.306  43.358  52.336  1.00  0.00    -0.318 N 
ATOM     21  C   UNL     1      -0.873  42.804  52.008  1.00  0.00     0.225 A 
ATOM     22  C   UNL     1       0.210  43.560  53.665  1.00  0.00     0.132 A 
ATOM     23  N   UNL     1      -1.660  42.666  53.092  1.00  0.00    -0.139 NA
ATOM     24  N   UNL     1      -0.982  43.136  54.130  1.00  0.00    -0.136 NA
BRANCH  22  25
ATOM     25  C   UNL     1       1.271  44.162  54.551  1.00  0.00     0.078 CG0
ATOM     26  G   UNL     1       2.508  44.733  53.822  1.00  0.00     0.000 G0
ENDBRANCH  22  25
ENDBRANCH  19  20
ENDBRANCH  18  19
ENDBRANCH   1  18
TORSDOF 3
ENDMDL
MODEL 4
REMARK VINA RESULT:    -6.854      2.772      3.932
REMARK INTER + INTRA:         -10.220
REMARK INTER:                 -10.405
REMARK INTRA:                   0.185
REMARK UNBOUND:                -0.161
REMARK SMILES CC[C@H]1Cc2ccccc2CN1C(=O)[C@@H]1CCc2nncn2CC1
REMARK SMILES IDX 15 1 13 2 14 3 12 4 3 5 4 6 5 7 11 8 6 9 10 10 7 11 9 12
REMARK SMILES IDX 8 13 2 14 1 15 16 16 24 18 23 19 22 20 21 21 18 22 20 23
REMARK SMILES IDX 19 24 17 25
REMARK H PARENT
REMARK Flexibility Score:   51.900
ROOT
ATOM      1  C   UNL     1       2.001  46.050  53.762  1.00  0.00     0.081 C 
ENDROOT
BRANCH   1   2
ATOM      2  C   UNL     1       3.002  46.573  52.748  1.00  0.00     0.226 C 
ATOM      3  O   UNL     1       2.952  47.798  52.446  1.00  0.00    -0.275 OA
BRANCH   2   4
ATOM      4  N   UNL     1       4.017  45.735  52.138  1.00  0.00    -0.335 N 
ATOM      5  C   UNL     1       5.430  46.156  52.071  1.00  0.00     0.089 C 
ATOM      6  C   UNL     1       6.048  45.709  50.735  1.00  0.00     0.061 C 
ATOM      7  C   UNL     1       5.866  44.235  50.530  1.00  0.00    -0.041 A 
ATOM      8  C   UNL     1       3.594  44.403  51.656  1.00  0.00     0.155 C 
ATOM      9  C   UNL     1       6.842  43.485  49.857  1.00  0.00     0.004 A 
ATOM     10  C   UNL     1       4.694  43.609  50.991  1.00  0.00    -0.025 A 
ATOM     11  C   UNL     1       6.660  42.114  49.658  1.00  0.00     0.000 A 
ATOM     12  C   UNL     1       4.516  42.233  50.773  1.00  0.00     0.006 A 
ATOM     13  C   UNL     1       5.498  41.490  50.116  1.00  0.00     0.000 A 
BRANCH   5  14
ATOM     14  C   UNL     1       6.202  45.611  53.298  1.00  0.00     0.022 C 
ATOM     15  C   UNL     1       7.494  46.382  53.567  1.00  0.00     0.006 C 
ENDBRANCH   5  14
ENDBRANCH   2   4
ENDBRANCH   1   2
BRANCH   1  16
ATOM     16  C   UNL     1       2.724  45.268  54.890  1.00  0.00     0.021 CG0
ATOM     17  G   UNL     1       1.996  45.315  56.252  1.00  0.00     0.000 G0
ENDBRANCH   1  16
BRANCH   1  18
ATOM     18  C   UNL     1       0.935  45.189  53.035  1.00  0.00     0.035 C 
BRANCH  18  19
ATOM     19  C   UNL     1       0.308  44.075  53.890  1.00  0.00     0.126 C 
BRANCH  19  20
ATOM     20  N   UNL     1      -0.192  44.593  55.160  1.00  0.00    -0.318 N 
ATOM     21  C   UNL     1      -1.467  44.626  55.584  1.00  0.00     0.225 A 
ATOM     22  C   UNL     1       0.503  45.119  56.188  1.00  0.00     0.132 A 
ATOM     23  N   UNL     1      -1.551  45.146  56.824  1.00  0.00    -0.139 NA
ATOM     24  N   UNL     1      -0.318  45.452  57.204  1.00  0.00    -0.136 NA
BRANCH  22  25
ATOM     25  C   UNL     1       1.997  45.315  56.242  1.00  0.00     0.078 CG0
ATOM     26  G   UNL     1       2.729  45.262  54.882  1.00  0.00     0.000 G0
ENDBRANCH  22  25
ENDBRANCH  19  20
ENDBRANCH  18  19
ENDBRANCH   1  18
TORSDOF 3
ENDMDL
MODEL 5
REMARK VINA RESULT:    -6.730      2.924      3.718
REMARK INTER + INTRA:         -10.038
REMARK INTER:                 -10.021
REMARK INTRA:                  -0.017
REMARK UNBOUND:                -0.161
REMARK SMILES CC[C@H]1Cc2ccccc2CN1C(=O)[C@@H]1CCc2nncn2CC1
REMARK SMILES IDX 15 1 13 2 14 3 12 4 3 5 4 6 5 7 11 8 6 9 10 10 7 11 9 12
REMARK SMILES IDX 8 13 2 14 1 15 16 16 24 18 23 19 22 20 21 21 18 22 20 23
REMARK SMILES IDX 19 24 17 25
REMARK H PARENT
REMARK Flexibility Score:   51.900
ROOT
ATOM      1  C   UNL     1       1.466  44.855  53.821  1.00  0.00     0.081 C 
ENDROOT
BRANCH   1   2
ATOM      2  C   UNL     1       2.153  44.063  52.722  1.00  0.00     0.226 C 
ATOM      3  O   UNL     1       1.501  43.135  52.166  1.00  0.00    -0.275 OA
BRANCH   2   4
ATOM      4  N   UNL     1       3.504  44.343  52.275  1.00  0.00    -0.335 N 
ATOM      5  C   UNL     1       4.358  45.330  52.964  1.00  0.00     0.089 C 
ATOM      6  C   UNL     1       5.201  46.104  51.937  1.00  0.00     0.061 C 
ATOM      7  C   UNL     1       5.979  45.162  51.068  1.00  0.00    -0.041 A 
ATOM      8  C   UNL     1       4.022  43.543  51.145  1.00  0.00     0.155 C 
ATOM      9  C   UNL     1       7.250  45.519  50.590  1.00  0.00     0.004 A 
ATOM     10  C   UNL     1       5.415  43.925  50.705  1.00  0.00    -0.025 A 
ATOM     11  C   UNL     1       7.962  44.642  49.769  1.00  0.00     0.000 A 
ATOM     12  C   UNL     1       6.137  43.058  49.869  1.00  0.00     0.006 A 
ATOM     13  C   UNL     1       7.407  43.413  49.410  1.00  0.00     0.000 A 
BRANCH   5  14
ATOM     14  C   UNL     1       5.225  44.621  54.034  1.00  0.00     0.022 C 
ATOM     15  C   UNL     1       5.455  45.488  55.271  1.00  0.00     0.006 C 
ENDBRANCH   5  14
ENDBRANCH   2   4
ENDBRANCH   1   2
BRANCH   1  16
ATOM     16  C   UNL     1       1.844  44.295  55.216  1.00  0.00     0.021 CG0
ATOM     17  G   UNL     1       1.529  45.256  56.384  1.00  0.00     0.000 G0
ENDBRANCH   1  16
BRANCH   1  18
ATOM     18  C   UNL     1      -0.065  44.850  53.575  1.00  0.00     0.035 C 
BRANCH  18  19
ATOM     19  C   UNL     1      -0.898  44.198  54.691  1.00  0.00     0.126 C 
BRANCH  19  20
ATOM     20  N   UNL     1      -0.950  45.040  55.883  1.00  0.00    -0.318 N 
ATOM     21  C   UNL     1      -2.045  45.518  56.498  1.00  0.00     0.225 A 
ATOM     22  C   UNL     1       0.070  45.496  56.637  1.00  0.00     0.132 A 
ATOM     23  N   UNL     1      -1.712  46.233  57.590  1.00  0.00    -0.139 NA
ATOM     24  N   UNL     1      -0.389  46.218  57.679  1.00  0.00    -0.136 NA
BRANCH  22  25
ATOM     25  C   UNL     1       1.536  45.247  56.393  1.00  0.00     0.078 CG0
ATOM     26  G   UNL     1       1.868  44.302  55.215  1.00  0.00     0.000 G0
ENDBRANCH  22  25
ENDBRANCH  19  20
ENDBRANCH  18  19
ENDBRANCH   1  18
TORSDOF 3
ENDMDL
