ligand_80_conformer_1_docked
     RDKit          3D

 43 45  0  0  0  0  0  0  0  0999 V2000
   10.0130   47.5520   55.3550 C   0  0  0  0  0  0  0  0  0  0  0  0
    9.4430   47.2030   54.0530 N   0  0  0  0  0  0  0  0  0  0  0  0
   10.2860   47.1420   52.8520 C   0  0  0  0  0  0  0  0  0  0  0  0
    9.9030   45.9370   51.9850 C   0  0  0  0  0  0  0  0  0  0  0  0
    8.4210   45.9200   51.7000 C   0  0  0  0  0  0  0  0  0  0  0  0
    7.9410   45.3640   50.5060 C   0  0  0  0  0  0  0  0  0  0  0  0
    6.5680   45.2870   50.2650 C   0  0  0  0  0  0  0  0  0  0  0  0
    5.6490   45.7350   51.2250 C   0  0  0  0  0  0  0  0  0  0  0  0
    4.2420   45.6580   50.9400 N   0  0  0  0  0  0  0  0  0  0  0  0
    3.4210   44.5200   51.2450 C   0  0  0  0  0  0  0  0  0  0  0  0
    3.9400   43.4330   51.6180 O   0  0  0  0  0  0  0  0  0  0  0  0
    1.9380   44.5950   51.0440 C   0  0  0  0  0  0  0  0  0  0  0  0
    1.2530   44.6210   52.3410 N   0  0  0  0  0  0  0  0  0  0  0  0
    0.3620   43.5190   52.7260 C   0  0  0  0  0  0  0  0  0  0  0  0
    0.4170   43.2830   54.2370 C   0  0  0  0  0  0  0  0  0  0  0  0
    0.0370   44.5610   54.9890 C   0  0  0  0  0  0  0  0  0  0  0  0
    0.8570   45.6890   54.5510 N   0  0  0  0  0  0  0  0  0  0  0  0
    1.3920   45.7510   53.2240 C   0  0  0  0  0  0  0  0  0  0  0  0
    2.0050   46.7860   52.8480 O   0  0  0  0  0  0  0  0  0  0  0  0
    6.1260   46.2980   52.4210 C   0  0  0  0  0  0  0  0  0  0  0  0
    7.5070   46.3840   52.6670 C   0  0  0  0  0  0  0  0  0  0  0  0
    8.0290   46.9670   53.9220 C   0  0  0  0  0  0  0  0  0  0  0  0
    7.2480   47.2390   54.8740 O   0  0  0  0  0  0  0  0  0  0  0  0
    9.3689   47.1577   56.1548 H   0  0  0  0  0  0  0  0  0  0  0  0
   11.0182   47.1144   55.4444 H   0  0  0  0  0  0  0  0  0  0  0  0
   10.0802   48.6463   55.4444 H   0  0  0  0  0  0  0  0  0  0  0  0
   10.1513   48.0647   52.2685 H   0  0  0  0  0  0  0  0  0  0  0  0
   11.3365   47.0372   53.1609 H   0  0  0  0  0  0  0  0  0  0  0  0
   10.4511   45.9912   51.0328 H   0  0  0  0  0  0  0  0  0  0  0  0
   10.1638   45.0180   52.5303 H   0  0  0  0  0  0  0  0  0  0  0  0
    8.6502   44.9862   49.7547 H   0  0  0  0  0  0  0  0  0  0  0  0
    6.2039   44.8713   49.3139 H   0  0  0  0  0  0  0  0  0  0  0  0
    3.8120   46.4360   50.3920 H   0  0  0  0  0  0  0  0  0  0  0  0
    1.6927   45.5100   50.4848 H   0  0  0  0  0  0  0  0  0  0  0  0
    1.6065   43.7107   50.4800 H   0  0  0  0  0  0  0  0  0  0  0  0
   -0.6692   43.7703   52.4369 H   0  0  0  0  0  0  0  0  0  0  0  0
    0.6894   42.6030   52.2124 H   0  0  0  0  0  0  0  0  0  0  0  0
   -0.2871   42.4815   54.5049 H   0  0  0  0  0  0  0  0  0  0  0  0
    1.4409   42.9945   54.5168 H   0  0  0  0  0  0  0  0  0  0  0  0
   -1.0217   44.7899   54.7975 H   0  0  0  0  0  0  0  0  0  0  0  0
    0.2077   44.3996   56.0636 H   0  0  0  0  0  0  0  0  0  0  0  0
    0.9420   46.5230   55.1740 H   0  0  0  0  0  0  0  0  0  0  0  0
    5.4134   46.6740   53.1699 H   0  0  0  0  0  0  0  0  0  0  0  0
  1  2  1  0
  2  3  1  0
  3  4  1  0
  4  5  1  0
  5  6  2  0
  6  7  1  0
  7  8  2  0
  8  9  1  0
  9 10  1  0
 10 11  2  0
 10 12  1  0
 12 13  1  0
 13 14  1  0
 14 15  1  0
 15 16  1  0
 16 17  1  0
 17 18  1  0
 18 19  2  0
  8 20  1  0
 20 21  2  0
 21 22  1  0
 22 23  2  0
 22  2  1  0
 21  5  1  0
 18 13  1  0
  1 24  1  0
  1 25  1  0
  1 26  1  0
  3 27  1  0
  3 28  1  0
  4 29  1  0
  4 30  1  0
  6 31  1  0
  7 32  1  0
  9 33  1  0
 12 34  1  0
 12 35  1  0
 14 36  1  0
 14 37  1  0
 15 38  1  0
 15 39  1  0
 16 40  1  0
 16 41  1  0
 17 42  1  0
 20 43  1  0
M  END
>  <meeko>  (1) 
{"is_sidechain": [false], "free_energy": -8.553, "intermolecular_energy": -10.053, "internal_energy": -0.541}

$$$$
ligand_80_conformer_1_docked
     RDKit          3D

 43 45  0  0  0  0  0  0  0  0999 V2000
    9.5570   47.4850   53.5970 C   0  0  0  0  0  0  0  0  0  0  0  0
    8.3920   46.9270   52.9090 N   0  0  0  0  0  0  0  0  0  0  0  0
    8.2690   47.0090   51.4470 C   0  0  0  0  0  0  0  0  0  0  0  0
    7.7170   45.6960   50.8790 C   0  0  0  0  0  0  0  0  0  0  0  0
    6.4450   45.2900   51.5840 C   0  0  0  0  0  0  0  0  0  0  0  0
    5.4630   44.5610   50.8980 C   0  0  0  0  0  0  0  0  0  0  0  0
    4.3150   44.1260   51.5630 C   0  0  0  0  0  0  0  0  0  0  0  0
    4.1400   44.3850   52.9290 C   0  0  0  0  0  0  0  0  0  0  0  0
    2.9390   43.9390   53.5810 N   0  0  0  0  0  0  0  0  0  0  0  0
    1.8600   44.8090   53.9620 C   0  0  0  0  0  0  0  0  0  0  0  0
    1.9940   46.0620   53.9100 O   0  0  0  0  0  0  0  0  0  0  0  0
    0.5890   44.2280   54.5030 C   0  0  0  0  0  0  0  0  0  0  0  0
   -0.3240   43.9000   53.4020 N   0  0  0  0  0  0  0  0  0  0  0  0
   -1.0210   44.9720   52.6800 C   0  0  0  0  0  0  0  0  0  0  0  0
   -1.2120   44.5970   51.2090 C   0  0  0  0  0  0  0  0  0  0  0  0
   -1.9900   43.2830   51.0930 C   0  0  0  0  0  0  0  0  0  0  0  0
   -1.3570   42.2280   51.8800 N   0  0  0  0  0  0  0  0  0  0  0  0
   -0.6000   42.5280   53.0580 C   0  0  0  0  0  0  0  0  0  0  0  0
   -0.1570   41.5880   53.7700 O   0  0  0  0  0  0  0  0  0  0  0  0
    5.1190   45.1210   53.6200 C   0  0  0  0  0  0  0  0  0  0  0  0
    6.2750   45.5650   52.9560 C   0  0  0  0  0  0  0  0  0  0  0  0
    7.3200   46.3350   53.6650 C   0  0  0  0  0  0  0  0  0  0  0  0
    7.2830   46.4580   54.9200 O   0  0  0  0  0  0  0  0  0  0  0  0
    9.4092   47.4142   54.6847 H   0  0  0  0  0  0  0  0  0  0  0  0
   10.4567   46.9201   53.3117 H   0  0  0  0  0  0  0  0  0  0  0  0
    9.6807   48.5401   53.3117 H   0  0  0  0  0  0  0  0  0  0  0  0
    7.5861   47.8312   51.1869 H   0  0  0  0  0  0  0  0  0  0  0  0
    9.2646   47.1917   51.0163 H   0  0  0  0  0  0  0  0  0  0  0  0
    7.5071   45.8285   49.8074 H   0  0  0  0  0  0  0  0  0  0  0  0
    8.4678   44.9067   51.0316 H   0  0  0  0  0  0  0  0  0  0  0  0
    5.5978   44.3308   49.8308 H   0  0  0  0  0  0  0  0  0  0  0  0
    3.5406   43.5748   51.0094 H   0  0  0  0  0  0  0  0  0  0  0  0
    2.8880   42.9410   53.8830 H   0  0  0  0  0  0  0  0  0  0  0  0
    0.8191   43.3136   55.0695 H   0  0  0  0  0  0  0  0  0  0  0  0
    0.1079   44.9655   55.1622 H   0  0  0  0  0  0  0  0  0  0  0  0
   -2.0058   45.1373   53.1414 H   0  0  0  0  0  0  0  0  0  0  0  0
   -0.4151   45.8884   52.7358 H   0  0  0  0  0  0  0  0  0  0  0  0
   -1.7712   45.3961   50.7003 H   0  0  0  0  0  0  0  0  0  0  0  0
   -0.2248   44.4713   50.7403 H   0  0  0  0  0  0  0  0  0  0  0  0
   -3.0155   43.4387   51.4592 H   0  0  0  0  0  0  0  0  0  0  0  0
   -2.0002   42.9741   50.0373 H   0  0  0  0  0  0  0  0  0  0  0  0
   -1.5720   41.2310   51.6540 H   0  0  0  0  0  0  0  0  0  0  0  0
    4.9790   45.3505   54.6866 H   0  0  0  0  0  0  0  0  0  0  0  0
  1  2  1  0
  2  3  1  0
  3  4  1  0
  4  5  1  0
  5  6  2  0
  6  7  1  0
  7  8  2  0
  8  9  1  0
  9 10  1  0
 10 11  2  0
 10 12  1  0
 12 13  1  0
 13 14  1  0
 14 15  1  0
 15 16  1  0
 16 17  1  0
 17 18  1  0
 18 19  2  0
  8 20  1  0
 20 21  2  0
 21 22  1  0
 22 23  2  0
 22  2  1  0
 21  5  1  0
 18 13  1  0
  1 24  1  0
  1 25  1  0
  1 26  1  0
  3 27  1  0
  3 28  1  0
  4 29  1  0
  4 30  1  0
  6 31  1  0
  7 32  1  0
  9 33  1  0
 12 34  1  0
 12 35  1  0
 14 36  1  0
 14 37  1  0
 15 38  1  0
 15 39  1  0
 16 40  1  0
 16 41  1  0
 17 42  1  0
 20 43  1  0
M  END
>  <meeko>  (2) 
{"is_sidechain": [false], "free_energy": -8.178, "intermolecular_energy": -9.761, "internal_energy": -0.392}

$$$$
ligand_80_conformer_1_docked
     RDKit          3D

 43 45  0  0  0  0  0  0  0  0999 V2000
    9.4190   47.5950   53.6790 C   0  0  0  0  0  0  0  0  0  0  0  0
    8.2850   47.0050   52.9650 N   0  0  0  0  0  0  0  0  0  0  0  0
    8.1770   47.1100   51.5040 C   0  0  0  0  0  0  0  0  0  0  0  0
    7.6830   45.7890   50.9040 C   0  0  0  0  0  0  0  0  0  0  0  0
    6.4190   45.3200   51.5850 C   0  0  0  0  0  0  0  0  0  0  0  0
    5.4750   44.5670   50.8730 C   0  0  0  0  0  0  0  0  0  0  0  0
    4.3360   44.0770   51.5140 C   0  0  0  0  0  0  0  0  0  0  0  0
    4.1340   44.3020   52.8830 C   0  0  0  0  0  0  0  0  0  0  0  0
    2.9430   43.7990   53.5100 N   0  0  0  0  0  0  0  0  0  0  0  0
    1.7380   44.5630   53.6790 C   0  0  0  0  0  0  0  0  0  0  0  0
    1.7240   45.8020   53.4460 O   0  0  0  0  0  0  0  0  0  0  0  0
    0.5040   43.9010   54.2130 C   0  0  0  0  0  0  0  0  0  0  0  0
   -0.0680   44.7030   55.3010 N   0  0  0  0  0  0  0  0  0  0  0  0
    0.6570   44.8460   56.5700 C   0  0  0  0  0  0  0  0  0  0  0  0
    0.4060   46.2250   57.1830 C   0  0  0  0  0  0  0  0  0  0  0  0
   -1.0940   46.4440   57.4000 C   0  0  0  0  0  0  0  0  0  0  0  0
   -1.8400   46.2160   56.1640 N   0  0  0  0  0  0  0  0  0  0  0  0
   -1.3710   45.3030   55.1660 C   0  0  0  0  0  0  0  0  0  0  0  0
   -2.0910   45.0530   54.1630 O   0  0  0  0  0  0  0  0  0  0  0  0
    5.0760   45.0620   53.5990 C   0  0  0  0  0  0  0  0  0  0  0  0
    6.2210   45.5630   52.9590 C   0  0  0  0  0  0  0  0  0  0  0  0
    7.2270   46.3590   53.6960 C   0  0  0  0  0  0  0  0  0  0  0  0
    7.1700   46.4560   54.9520 O   0  0  0  0  0  0  0  0  0  0  0  0
    9.2543   47.5093   54.7632 H   0  0  0  0  0  0  0  0  0  0  0  0
   10.3418   47.0627   53.4051 H   0  0  0  0  0  0  0  0  0  0  0  0
    9.5128   48.6562   53.4051 H   0  0  0  0  0  0  0  0  0  0  0  0
    7.4664   47.9105   51.2505 H   0  0  0  0  0  0  0  0  0  0  0  0
    9.1703   47.3383   51.0902 H   0  0  0  0  0  0  0  0  0  0  0  0
    7.4807   45.9347   49.8326 H   0  0  0  0  0  0  0  0  0  0  0  0
    8.4619   45.0263   51.0508 H   0  0  0  0  0  0  0  0  0  0  0  0
    5.6326   44.3613   49.8040 H   0  0  0  0  0  0  0  0  0  0  0  0
    3.5896   43.5088   50.9395 H   0  0  0  0  0  0  0  0  0  0  0  0
    2.9870   42.8560   53.9570 H   0  0  0  0  0  0  0  0  0  0  0  0
   -0.2357   43.8042   53.4047 H   0  0  0  0  0  0  0  0  0  0  0  0
    0.7681   42.9057   54.5998 H   0  0  0  0  0  0  0  0  0  0  0  0
    0.3139   44.0711   57.2713 H   0  0  0  0  0  0  0  0  0  0  0  0
    1.7342   44.7354   56.3766 H   0  0  0  0  0  0  0  0  0  0  0  0
    0.9264   46.2927   58.1497 H   0  0  0  0  0  0  0  0  0  0  0  0
    0.7851   46.9965   56.4967 H   0  0  0  0  0  0  0  0  0  0  0  0
   -1.4519   45.7453   58.1705 H   0  0  0  0  0  0  0  0  0  0  0  0
   -1.2540   47.4843   57.7195 H   0  0  0  0  0  0  0  0  0  0  0  0
   -2.7970   46.6270   56.0700 H   0  0  0  0  0  0  0  0  0  0  0  0
    4.9147   45.2654   54.6679 H   0  0  0  0  0  0  0  0  0  0  0  0
  1  2  1  0
  2  3  1  0
  3  4  1  0
  4  5  1  0
  5  6  2  0
  6  7  1  0
  7  8  2  0
  8  9  1  0
  9 10  1  0
 10 11  2  0
 10 12  1  0
 12 13  1  0
 13 14  1  0
 14 15  1  0
 15 16  1  0
 16 17  1  0
 17 18  1  0
 18 19  2  0
  8 20  1  0
 20 21  2  0
 21 22  1  0
 22 23  2  0
 22  2  1  0
 21  5  1  0
 18 13  1  0
  1 24  1  0
  1 25  1  0
  1 26  1  0
  3 27  1  0
  3 28  1  0
  4 29  1  0
  4 30  1  0
  6 31  1  0
  7 32  1  0
  9 33  1  0
 12 34  1  0
 12 35  1  0
 14 36  1  0
 14 37  1  0
 15 38  1  0
 15 39  1  0
 16 40  1  0
 16 41  1  0
 17 42  1  0
 20 43  1  0
M  END
>  <meeko>  (3) 
{"is_sidechain": [false], "free_energy": -8.14, "intermolecular_energy": -9.633, "internal_energy": -0.475}

$$$$
ligand_80_conformer_1_docked
     RDKit          3D

 43 45  0  0  0  0  0  0  0  0999 V2000
   -1.6900   43.7840   55.2110 C   0  0  0  0  0  0  0  0  0  0  0  0
   -0.3750   44.4160   55.0850 N   0  0  0  0  0  0  0  0  0  0  0  0
   -0.0280   45.6000   55.8820 C   0  0  0  0  0  0  0  0  0  0  0  0
    1.4130   45.5010   56.3950 C   0  0  0  0  0  0  0  0  0  0  0  0
    2.3750   45.2120   55.2670 C   0  0  0  0  0  0  0  0  0  0  0  0
    3.6940   45.6800   55.3320 C   0  0  0  0  0  0  0  0  0  0  0  0
    4.6060   45.3610   54.3230 C   0  0  0  0  0  0  0  0  0  0  0  0
    4.2240   44.5450   53.2490 C   0  0  0  0  0  0  0  0  0  0  0  0
    5.1800   44.2490   52.2170 N   0  0  0  0  0  0  0  0  0  0  0  0
    5.4240   45.0930   51.0800 C   0  0  0  0  0  0  0  0  0  0  0  0
    4.6640   46.0660   50.8260 O   0  0  0  0  0  0  0  0  0  0  0  0
    6.5440   44.7700   50.1380 C   0  0  0  0  0  0  0  0  0  0  0  0
    7.8040   45.3240   50.6440 N   0  0  0  0  0  0  0  0  0  0  0  0
    7.7910   46.4940   51.5310 C   0  0  0  0  0  0  0  0  0  0  0  0
    8.9390   46.4190   52.5410 C   0  0  0  0  0  0  0  0  0  0  0  0
   10.2810   46.3190   51.8120 C   0  0  0  0  0  0  0  0  0  0  0  0
   10.2780   45.2120   50.8590 N   0  0  0  0  0  0  0  0  0  0  0  0
    9.0700   44.7730   50.2290 C   0  0  0  0  0  0  0  0  0  0  0  0
    9.1200   43.8870   49.3340 O   0  0  0  0  0  0  0  0  0  0  0  0
    2.9000   44.0790   53.1770 C   0  0  0  0  0  0  0  0  0  0  0  0
    1.9770   44.4000   54.1860 C   0  0  0  0  0  0  0  0  0  0  0  0
    0.5810   43.9140   54.1330 C   0  0  0  0  0  0  0  0  0  0  0  0
    0.2340   43.0560   53.2760 O   0  0  0  0  0  0  0  0  0  0  0  0
   -1.9388   43.6644   56.2758 H   0  0  0  0  0  0  0  0  0  0  0  0
   -2.4485   44.4159   54.7259 H   0  0  0  0  0  0  0  0  0  0  0  0
   -1.6704   42.7969   54.7259 H   0  0  0  0  0  0  0  0  0  0  0  0
   -0.1281   46.4991   55.2563 H   0  0  0  0  0  0  0  0  0  0  0  0
   -0.7084   45.6591   56.7443 H   0  0  0  0  0  0  0  0  0  0  0  0
    1.6915   46.4538   56.8690 H   0  0  0  0  0  0  0  0  0  0  0  0
    1.4688   44.6762   57.1207 H   0  0  0  0  0  0  0  0  0  0  0  0
    4.0130   46.3016   56.1816 H   0  0  0  0  0  0  0  0  0  0  0  0
    5.6325   45.7534   54.3716 H   0  0  0  0  0  0  0  0  0  0  0  0
    5.6570   43.3200   52.2440 H   0  0  0  0  0  0  0  0  0  0  0  0
    6.6380   43.6779   50.0454 H   0  0  0  0  0  0  0  0  0  0  0  0
    6.3258   45.2117   49.1545 H   0  0  0  0  0  0  0  0  0  0  0  0
    7.9005   47.4066   50.9268 H   0  0  0  0  0  0  0  0  0  0  0  0
    6.8376   46.5120   52.0794 H   0  0  0  0  0  0  0  0  0  0  0  0
    8.9321   47.3239   53.1663 H   0  0  0  0  0  0  0  0  0  0  0  0
    8.8054   45.5262   53.1695 H   0  0  0  0  0  0  0  0  0  0  0  0
   10.4675   47.2586   51.2713 H   0  0  0  0  0  0  0  0  0  0  0  0
   11.0712   46.1389   52.5557 H   0  0  0  0  0  0  0  0  0  0  0  0
   11.1930   44.8250   50.5330 H   0  0  0  0  0  0  0  0  0  0  0  0
    2.5845   43.4589   52.3250 H   0  0  0  0  0  0  0  0  0  0  0  0
  1  2  1  0
  2  3  1  0
  3  4  1  0
  4  5  1  0
  5  6  2  0
  6  7  1  0
  7  8  2  0
  8  9  1  0
  9 10  1  0
 10 11  2  0
 10 12  1  0
 12 13  1  0
 13 14  1  0
 14 15  1  0
 15 16  1  0
 16 17  1  0
 17 18  1  0
 18 19  2  0
  8 20  1  0
 20 21  2  0
 21 22  1  0
 22 23  2  0
 22  2  1  0
 21  5  1  0
 18 13  1  0
  1 24  1  0
  1 25  1  0
  1 26  1  0
  3 27  1  0
  3 28  1  0
  4 29  1  0
  4 30  1  0
  6 31  1  0
  7 32  1  0
  9 33  1  0
 12 34  1  0
 12 35  1  0
 14 36  1  0
 14 37  1  0
 15 38  1  0
 15 39  1  0
 16 40  1  0
 16 41  1  0
 17 42  1  0
 20 43  1  0
M  END
>  <meeko>  (4) 
{"is_sidechain": [false], "free_energy": -7.809, "intermolecular_energy": -9.39, "internal_energy": -0.329}

$$$$
ligand_80_conformer_1_docked
     RDKit          3D

 43 45  0  0  0  0  0  0  0  0999 V2000
   -0.3620   44.7960   55.4020 C   0  0  0  0  0  0  0  0  0  0  0  0
    0.5690   44.0780   54.5280 N   0  0  0  0  0  0  0  0  0  0  0  0
    0.2400   42.7440   54.0110 C   0  0  0  0  0  0  0  0  0  0  0  0
    0.6630   42.6160   52.5430 C   0  0  0  0  0  0  0  0  0  0  0  0
    2.1080   43.0120   52.3560 C   0  0  0  0  0  0  0  0  0  0  0  0
    2.8740   42.4200   51.3420 C   0  0  0  0  0  0  0  0  0  0  0  0
    4.1910   42.8290   51.1220 C   0  0  0  0  0  0  0  0  0  0  0  0
    4.7560   43.8560   51.8910 C   0  0  0  0  0  0  0  0  0  0  0  0
    6.1200   44.2420   51.6520 N   0  0  0  0  0  0  0  0  0  0  0  0
    6.5100   45.3420   50.8150 C   0  0  0  0  0  0  0  0  0  0  0  0
    5.6660   45.9240   50.0820 O   0  0  0  0  0  0  0  0  0  0  0  0
    7.9500   45.7550   50.7480 C   0  0  0  0  0  0  0  0  0  0  0  0
    8.3360   46.4390   51.9870 N   0  0  0  0  0  0  0  0  0  0  0  0
    7.3380   47.1960   52.7530 C   0  0  0  0  0  0  0  0  0  0  0  0
    7.6320   47.1150   54.2530 C   0  0  0  0  0  0  0  0  0  0  0  0
    9.0400   47.6420   54.5460 C   0  0  0  0  0  0  0  0  0  0  0  0
   10.0360   46.9600   53.7240 N   0  0  0  0  0  0  0  0  0  0  0  0
    9.7060   46.4340   52.4330 C   0  0  0  0  0  0  0  0  0  0  0  0
   10.6140   45.9470   51.7090 O   0  0  0  0  0  0  0  0  0  0  0  0
    3.9940   44.4480   52.9130 C   0  0  0  0  0  0  0  0  0  0  0  0
    2.6700   44.0380   53.1420 C   0  0  0  0  0  0  0  0  0  0  0  0
    1.8490   44.6530   54.2080 C   0  0  0  0  0  0  0  0  0  0  0  0
    2.2570   45.6780   54.8180 O   0  0  0  0  0  0  0  0  0  0  0  0
   -0.1051   44.5979   56.4531 H   0  0  0  0  0  0  0  0  0  0  0  0
   -0.2915   45.8758   55.2046 H   0  0  0  0  0  0  0  0  0  0  0  0
   -1.3885   44.4534   55.2046 H   0  0  0  0  0  0  0  0  0  0  0  0
    0.7677   41.9848   54.6070 H   0  0  0  0  0  0  0  0  0  0  0  0
   -0.8475   42.5941   54.0816 H   0  0  0  0  0  0  0  0  0  0  0  0
    0.5322   41.5722   52.2214 H   0  0  0  0  0  0  0  0  0  0  0  0
    0.0360   43.2886   51.9393 H   0  0  0  0  0  0  0  0  0  0  0  0
    2.4352   41.6289   50.7162 H   0  0  0  0  0  0  0  0  0  0  0  0
    4.7900   42.3413   50.3388 H   0  0  0  0  0  0  0  0  0  0  0  0
    6.8750   43.6280   52.0320 H   0  0  0  0  0  0  0  0  0  0  0  0
    8.5787   44.8624   50.6140 H   0  0  0  0  0  0  0  0  0  0  0  0
    8.0888   46.4411   49.8995 H   0  0  0  0  0  0  0  0  0  0  0  0
    7.3627   48.2492   52.4365 H   0  0  0  0  0  0  0  0  0  0  0  0
    6.3444   46.7638   52.5635 H   0  0  0  0  0  0  0  0  0  0  0  0
    6.8958   47.7217   54.8007 H   0  0  0  0  0  0  0  0  0  0  0  0
    7.5679   46.0651   54.5748 H   0  0  0  0  0  0  0  0  0  0  0  0
    9.0727   48.7201   54.3301 H   0  0  0  0  0  0  0  0  0  0  0  0
    9.2712   47.4537   55.6048 H   0  0  0  0  0  0  0  0  0  0  0  0
   11.0360   46.9740   54.0280 H   0  0  0  0  0  0  0  0  0  0  0  0
    4.4373   45.2375   53.5376 H   0  0  0  0  0  0  0  0  0  0  0  0
  1  2  1  0
  2  3  1  0
  3  4  1  0
  4  5  1  0
  5  6  2  0
  6  7  1  0
  7  8  2  0
  8  9  1  0
  9 10  1  0
 10 11  2  0
 10 12  1  0
 12 13  1  0
 13 14  1  0
 14 15  1  0
 15 16  1  0
 16 17  1  0
 17 18  1  0
 18 19  2  0
  8 20  1  0
 20 21  2  0
 21 22  1  0
 22 23  2  0
 22  2  1  0
 21  5  1  0
 18 13  1  0
  1 24  1  0
  1 25  1  0
  1 26  1  0
  3 27  1  0
  3 28  1  0
  4 29  1  0
  4 30  1  0
  6 31  1  0
  7 32  1  0
  9 33  1  0
 12 34  1  0
 12 35  1  0
 14 36  1  0
 14 37  1  0
 15 38  1  0
 15 39  1  0
 16 40  1  0
 16 41  1  0
 17 42  1  0
 20 43  1  0
M  END
>  <meeko>  (5) 
{"is_sidechain": [false], "free_energy": -7.792, "intermolecular_energy": -9.265, "internal_energy": -0.434}

$$$$
