ligand_41_conformer_5_docked
     RDKit          3D

 43 45  0  0  0  0  0  0  0  0999 V2000
    6.3560   41.1070   49.4510 C   0  0  0  0  0  0  0  0  0  0  0  0
    6.0040   42.4470   49.9110 N   0  0  0  0  0  0  0  0  0  0  0  0
    6.7600   43.5090   49.6780 N   0  0  0  0  0  0  0  0  0  0  0  0
    6.1620   44.5770   50.2390 C   0  0  0  0  0  0  0  0  0  0  0  0
    4.9810   44.1780   50.8350 C   0  0  0  0  0  0  0  0  0  0  0  0
    4.0160   45.0660   51.5080 C   0  0  0  0  0  0  0  0  0  0  0  0
    2.9470   45.3600   50.9090 O   0  0  0  0  0  0  0  0  0  0  0  0
    4.2570   45.5740   52.8350 N   0  0  0  0  0  0  0  0  0  0  0  0
    3.6450   46.8560   53.2160 C   0  0  0  0  0  0  0  0  0  0  0  0
    3.9940   47.2520   54.6580 C   0  0  0  0  0  0  0  0  0  0  0  0
    5.4670   46.9570   54.9600 C   0  0  0  0  0  0  0  0  0  0  0  0
    6.2850   47.7270   54.0730 O   0  0  0  0  0  0  0  0  0  0  0  0
    7.5080   47.3140   53.5180 C   0  0  0  0  0  0  0  0  0  0  0  0
    7.5490   47.0290   52.1480 C   0  0  0  0  0  0  0  0  0  0  0  0
    8.7370   46.6060   51.5450 C   0  0  0  0  0  0  0  0  0  0  0  0
    9.8990   46.4680   52.3100 C   0  0  0  0  0  0  0  0  0  0  0  0
   11.3900   45.9360   51.5530 Cl  0  0  0  0  0  0  0  0  0  0  0  0
    9.8720   46.7540   53.6770 C   0  0  0  0  0  0  0  0  0  0  0  0
    8.6850   47.1770   54.2830 C   0  0  0  0  0  0  0  0  0  0  0  0
    5.7710   45.4460   54.8160 C   0  0  0  0  0  0  0  0  0  0  0  0
    4.8120   44.6930   53.8740 C   0  0  0  0  0  0  0  0  0  0  0  0
    4.9240   42.8040   50.6440 C   0  0  0  0  0  0  0  0  0  0  0  0
    3.8630   41.8570   51.1440 C   0  0  0  0  0  0  0  0  0  0  0  0
    3.7120   41.9750   52.5130 F   0  0  0  0  0  0  0  0  0  0  0  0
    2.6430   42.1360   50.5590 F   0  0  0  0  0  0  0  0  0  0  0  0
    6.5274   40.4544   50.3197 H   0  0  0  0  0  0  0  0  0  0  0  0
    5.5342   40.7003   48.8433 H   0  0  0  0  0  0  0  0  0  0  0  0
    7.2716   41.1567   48.8433 H   0  0  0  0  0  0  0  0  0  0  0  0
    6.5523   45.6054   50.2250 H   0  0  0  0  0  0  0  0  0  0  0  0
    4.0078   47.6395   52.5345 H   0  0  0  0  0  0  0  0  0  0  0  0
    2.5527   46.7454   53.1481 H   0  0  0  0  0  0  0  0  0  0  0  0
    3.8063   48.3275   54.7925 H   0  0  0  0  0  0  0  0  0  0  0  0
    3.3678   46.6659   55.3468 H   0  0  0  0  0  0  0  0  0  0  0  0
    5.6882   47.2379   56.0003 H   0  0  0  0  0  0  0  0  0  0  0  0
    6.6384   47.1389   51.5408 H   0  0  0  0  0  0  0  0  0  0  0  0
    8.7576   46.3817   50.4683 H   0  0  0  0  0  0  0  0  0  0  0  0
   10.7868   46.6462   54.2782 H   0  0  0  0  0  0  0  0  0  0  0  0
    8.6691   47.4035   55.3593 H   0  0  0  0  0  0  0  0  0  0  0  0
    6.7937   45.3360   54.4262 H   0  0  0  0  0  0  0  0  0  0  0  0
    5.6440   45.0027   55.8147 H   0  0  0  0  0  0  0  0  0  0  0  0
    5.3618   43.8733   53.3883 H   0  0  0  0  0  0  0  0  0  0  0  0
    3.9757   44.3085   54.4763 H   0  0  0  0  0  0  0  0  0  0  0  0
    4.1841   40.8380   50.8822 H   0  0  0  0  0  0  0  0  0  0  0  0
  1  2  1  0
  2  3  1  0
  3  4  2  0
  4  5  1  0
  5  6  1  0
  6  7  2  0
  6  8  1  0
  8  9  1  0
  9 10  1  0
 10 11  1  0
 11 12  1  0
 12 13  1  0
 13 14  2  0
 14 15  1  0
 15 16  2  0
 16 17  1  0
 16 18  1  0
 18 19  2  0
 11 20  1  0
 20 21  1  0
  5 22  2  0
 22 23  1  0
 23 24  1  0
 23 25  1  0
 22  2  1  0
 21  8  1  0
 19 13  1  0
  1 26  1  0
  1 27  1  0
  1 28  1  0
  4 29  1  0
  9 30  1  0
  9 31  1  0
 10 32  1  0
 10 33  1  0
 11 34  1  0
 14 35  1  0
 15 36  1  0
 18 37  1  0
 19 38  1  0
 20 39  1  0
 20 40  1  0
 21 41  1  0
 21 42  1  0
 23 43  1  0
M  END
>  <meeko>  (1) 
{"is_sidechain": [false], "free_energy": -8.838, "intermolecular_energy": -10.905, "internal_energy": -1.162}

$$$$
ligand_41_conformer_5_docked
     RDKit          3D

 43 45  0  0  0  0  0  0  0  0999 V2000
    1.5850   43.7380   53.1980 C   0  0  0  0  0  0  0  0  0  0  0  0
    2.5580   44.6830   53.7350 N   0  0  0  0  0  0  0  0  0  0  0  0
    3.0600   44.5820   54.9570 N   0  0  0  0  0  0  0  0  0  0  0  0
    3.9150   45.6060   55.1410 C   0  0  0  0  0  0  0  0  0  0  0  0
    3.9630   46.3730   53.9930 C   0  0  0  0  0  0  0  0  0  0  0  0
    4.8230   47.5520   53.7840 C   0  0  0  0  0  0  0  0  0  0  0  0
    4.3200   48.6980   53.9340 O   0  0  0  0  0  0  0  0  0  0  0  0
    6.2160   47.4190   53.4440 N   0  0  0  0  0  0  0  0  0  0  0  0
    6.8580   48.5000   52.6800 C   0  0  0  0  0  0  0  0  0  0  0  0
    8.3400   48.2070   52.4050 C   0  0  0  0  0  0  0  0  0  0  0  0
    8.5400   46.7370   52.0190 C   0  0  0  0  0  0  0  0  0  0  0  0
    7.8000   46.4680   50.8240 O   0  0  0  0  0  0  0  0  0  0  0  0
    7.2640   45.2230   50.4530 C   0  0  0  0  0  0  0  0  0  0  0  0
    8.0430   44.3820   49.6490 C   0  0  0  0  0  0  0  0  0  0  0  0
    7.5550   43.1360   49.2420 C   0  0  0  0  0  0  0  0  0  0  0  0
    6.2830   42.7180   49.6420 C   0  0  0  0  0  0  0  0  0  0  0  0
    5.6710   41.1550   49.1320 Cl  0  0  0  0  0  0  0  0  0  0  0  0
    5.4990   43.5470   50.4490 C   0  0  0  0  0  0  0  0  0  0  0  0
    5.9830   44.7940   50.8570 C   0  0  0  0  0  0  0  0  0  0  0  0
    8.0930   45.7960   53.1650 C   0  0  0  0  0  0  0  0  0  0  0  0
    7.0470   46.4080   54.1170 C   0  0  0  0  0  0  0  0  0  0  0  0
    3.0560   45.7820   53.1230 C   0  0  0  0  0  0  0  0  0  0  0  0
    2.6790   46.2520   51.7410 C   0  0  0  0  0  0  0  0  0  0  0  0
    3.6200   47.1400   51.2560 F   0  0  0  0  0  0  0  0  0  0  0  0
    2.6110   45.1870   50.8640 F   0  0  0  0  0  0  0  0  0  0  0  0
    1.0666   43.2345   54.0273 H   0  0  0  0  0  0  0  0  0  0  0  0
    0.8516   44.2778   52.5809 H   0  0  0  0  0  0  0  0  0  0  0  0
    2.1031   42.9892   52.5809 H   0  0  0  0  0  0  0  0  0  0  0  0
    4.4856   45.8011   56.0610 H   0  0  0  0  0  0  0  0  0  0  0  0
    6.3345   48.6156   51.7195 H   0  0  0  0  0  0  0  0  0  0  0  0
    6.7987   49.4211   53.2784 H   0  0  0  0  0  0  0  0  0  0  0  0
    8.6876   48.8471   51.5807 H   0  0  0  0  0  0  0  0  0  0  0  0
    8.9165   48.4140   53.3187 H   0  0  0  0  0  0  0  0  0  0  0  0
    9.6092   46.5504   51.8400 H   0  0  0  0  0  0  0  0  0  0  0  0
    9.0469   44.7038   49.3349 H   0  0  0  0  0  0  0  0  0  0  0  0
    8.1730   42.4846   48.6066 H   0  0  0  0  0  0  0  0  0  0  0  0
    4.4980   43.2176   50.7643 H   0  0  0  0  0  0  0  0  0  0  0  0
    5.3631   45.4416   51.4944 H   0  0  0  0  0  0  0  0  0  0  0  0
    7.6619   44.8885   52.7172 H   0  0  0  0  0  0  0  0  0  0  0  0
    8.9879   45.5904   53.7707 H   0  0  0  0  0  0  0  0  0  0  0  0
    6.3955   45.6052   54.4926 H   0  0  0  0  0  0  0  0  0  0  0  0
    7.5838   46.9018   54.9404 H   0  0  0  0  0  0  0  0  0  0  0  0
    1.6972   46.7420   51.8181 H   0  0  0  0  0  0  0  0  0  0  0  0
  1  2  1  0
  2  3  1  0
  3  4  2  0
  4  5  1  0
  5  6  1  0
  6  7  2  0
  6  8  1  0
  8  9  1  0
  9 10  1  0
 10 11  1  0
 11 12  1  0
 12 13  1  0
 13 14  2  0
 14 15  1  0
 15 16  2  0
 16 17  1  0
 16 18  1  0
 18 19  2  0
 11 20  1  0
 20 21  1  0
  5 22  2  0
 22 23  1  0
 23 24  1  0
 23 25  1  0
 22  2  1  0
 21  8  1  0
 19 13  1  0
  1 26  1  0
  1 27  1  0
  1 28  1  0
  4 29  1  0
  9 30  1  0
  9 31  1  0
 10 32  1  0
 10 33  1  0
 11 34  1  0
 14 35  1  0
 15 36  1  0
 18 37  1  0
 19 38  1  0
 20 39  1  0
 20 40  1  0
 21 41  1  0
 21 42  1  0
 23 43  1  0
M  END
>  <meeko>  (2) 
{"is_sidechain": [false], "free_energy": -8.161, "intermolecular_energy": -10.364, "internal_energy": -0.867}

$$$$
ligand_41_conformer_5_docked
     RDKit          3D

 43 45  0  0  0  0  0  0  0  0999 V2000
    6.5740   41.5220   49.8880 C   0  0  0  0  0  0  0  0  0  0  0  0
    5.3890   42.0290   50.5730 N   0  0  0  0  0  0  0  0  0  0  0  0
    4.4050   41.2440   50.9850 N   0  0  0  0  0  0  0  0  0  0  0  0
    3.4700   42.0190   51.5650 C   0  0  0  0  0  0  0  0  0  0  0  0
    3.8830   43.3370   51.5300 C   0  0  0  0  0  0  0  0  0  0  0  0
    3.1570   44.4800   52.1120 C   0  0  0  0  0  0  0  0  0  0  0  0
    2.0050   44.7480   51.6750 O   0  0  0  0  0  0  0  0  0  0  0  0
    3.7200   45.2680   53.1770 N   0  0  0  0  0  0  0  0  0  0  0  0
    3.3000   46.6720   53.3090 C   0  0  0  0  0  0  0  0  0  0  0  0
    3.9870   47.3680   54.4920 C   0  0  0  0  0  0  0  0  0  0  0  0
    5.4660   46.9730   54.5700 C   0  0  0  0  0  0  0  0  0  0  0  0
    6.1200   47.3860   53.3670 O   0  0  0  0  0  0  0  0  0  0  0  0
    7.4460   47.0910   53.0100 C   0  0  0  0  0  0  0  0  0  0  0  0
    7.7030   46.6990   51.6910 C   0  0  0  0  0  0  0  0  0  0  0  0
    9.0030   46.3850   51.2830 C   0  0  0  0  0  0  0  0  0  0  0  0
   10.0610   46.4640   52.1950 C   0  0  0  0  0  0  0  0  0  0  0  0
   11.6910   46.0690   51.6830 Cl  0  0  0  0  0  0  0  0  0  0  0  0
    9.8170   46.8580   53.5130 C   0  0  0  0  0  0  0  0  0  0  0  0
    8.5170   47.1730   53.9230 C   0  0  0  0  0  0  0  0  0  0  0  0
    5.6220   45.4470   54.7850 C   0  0  0  0  0  0  0  0  0  0  0  0
    4.4270   44.6120   54.2880 C   0  0  0  0  0  0  0  0  0  0  0  0
    5.0960   43.3190   50.8550 C   0  0  0  0  0  0  0  0  0  0  0  0
    5.9550   44.5040   50.4930 C   0  0  0  0  0  0  0  0  0  0  0  0
    6.8060   44.1880   49.4510 F   0  0  0  0  0  0  0  0  0  0  0  0
    5.1740   45.5710   50.0930 F   0  0  0  0  0  0  0  0  0  0  0  0
    7.3191   41.2032   50.6317 H   0  0  0  0  0  0  0  0  0  0  0  0
    6.2947   40.6646   49.2580 H   0  0  0  0  0  0  0  0  0  0  0  0
    7.0012   42.3161   49.2580 H   0  0  0  0  0  0  0  0  0  0  0  0
    2.5252   41.6595   51.9988 H   0  0  0  0  0  0  0  0  0  0  0  0
    3.5568   47.2082   52.3835 H   0  0  0  0  0  0  0  0  0  0  0  0
    2.2149   46.6869   53.4890 H   0  0  0  0  0  0  0  0  0  0  0  0
    3.9108   48.4578   54.3633 H   0  0  0  0  0  0  0  0  0  0  0  0
    3.4889   47.0572   55.4223 H   0  0  0  0  0  0  0  0  0  0  0  0
    5.9313   47.4747   55.4313 H   0  0  0  0  0  0  0  0  0  0  0  0
    6.8751   46.6375   50.9693 H   0  0  0  0  0  0  0  0  0  0  0  0
    9.1939   46.0758   50.2448 H   0  0  0  0  0  0  0  0  0  0  0  0
   10.6489   46.9207   54.2300 H   0  0  0  0  0  0  0  0  0  0  0  0
    8.3300   47.4856   54.9609 H   0  0  0  0  0  0  0  0  0  0  0  0
    6.5224   45.1136   54.2482 H   0  0  0  0  0  0  0  0  0  0  0  0
    5.6884   45.2869   55.8713 H   0  0  0  0  0  0  0  0  0  0  0  0
    4.7953   43.6335   53.9461 H   0  0  0  0  0  0  0  0  0  0  0  0
    3.7193   44.5014   55.1228 H   0  0  0  0  0  0  0  0  0  0  0  0
    6.5338   44.7740   51.3886 H   0  0  0  0  0  0  0  0  0  0  0  0
  1  2  1  0
  2  3  1  0
  3  4  2  0
  4  5  1  0
  5  6  1  0
  6  7  2  0
  6  8  1  0
  8  9  1  0
  9 10  1  0
 10 11  1  0
 11 12  1  0
 12 13  1  0
 13 14  2  0
 14 15  1  0
 15 16  2  0
 16 17  1  0
 16 18  1  0
 18 19  2  0
 11 20  1  0
 20 21  1  0
  5 22  2  0
 22 23  1  0
 23 24  1  0
 23 25  1  0
 22  2  1  0
 21  8  1  0
 19 13  1  0
  1 26  1  0
  1 27  1  0
  1 28  1  0
  4 29  1  0
  9 30  1  0
  9 31  1  0
 10 32  1  0
 10 33  1  0
 11 34  1  0
 14 35  1  0
 15 36  1  0
 18 37  1  0
 19 38  1  0
 20 39  1  0
 20 40  1  0
 21 41  1  0
 21 42  1  0
 23 43  1  0
M  END
>  <meeko>  (3) 
{"is_sidechain": [false], "free_energy": -8.111, "intermolecular_energy": -10.816, "internal_energy": -0.354}

$$$$
ligand_41_conformer_5_docked
     RDKit          3D

 43 45  0  0  0  0  0  0  0  0999 V2000
   -0.7170   45.0910   55.6410 C   0  0  0  0  0  0  0  0  0  0  0  0
    0.0020   44.2480   54.6910 N   0  0  0  0  0  0  0  0  0  0  0  0
   -0.5590   43.2210   54.0720 N   0  0  0  0  0  0  0  0  0  0  0  0
    0.3700   42.6540   53.2790 C   0  0  0  0  0  0  0  0  0  0  0  0
    1.5550   43.3550   53.3920 C   0  0  0  0  0  0  0  0  0  0  0  0
    2.7930   43.0750   52.6420 C   0  0  0  0  0  0  0  0  0  0  0  0
    3.3080   41.9280   52.7350 O   0  0  0  0  0  0  0  0  0  0  0  0
    3.4010   44.0670   51.7930 N   0  0  0  0  0  0  0  0  0  0  0  0
    4.8530   44.0010   51.5650 C   0  0  0  0  0  0  0  0  0  0  0  0
    5.3400   45.1220   50.6370 C   0  0  0  0  0  0  0  0  0  0  0  0
    4.6510   46.4480   50.9800 C   0  0  0  0  0  0  0  0  0  0  0  0
    4.9800   46.8060   52.3250 O   0  0  0  0  0  0  0  0  0  0  0  0
    6.2780   46.9460   52.8440 C   0  0  0  0  0  0  0  0  0  0  0  0
    6.6110   46.2220   53.9950 C   0  0  0  0  0  0  0  0  0  0  0  0
    7.8850   46.3300   54.5590 C   0  0  0  0  0  0  0  0  0  0  0  0
    8.8420   47.1640   53.9730 C   0  0  0  0  0  0  0  0  0  0  0  0
   10.4400   47.3010   54.6820 Cl  0  0  0  0  0  0  0  0  0  0  0  0
    8.5220   47.8890   52.8210 C   0  0  0  0  0  0  0  0  0  0  0  0
    7.2480   47.7820   52.2540 C   0  0  0  0  0  0  0  0  0  0  0  0
    3.1170   46.3390   50.7980 C   0  0  0  0  0  0  0  0  0  0  0  0
    2.5640   44.9070   50.9220 C   0  0  0  0  0  0  0  0  0  0  0  0
    1.3030   44.3460   54.3320 C   0  0  0  0  0  0  0  0  0  0  0  0
    2.2780   45.3630   54.8680 C   0  0  0  0  0  0  0  0  0  0  0  0
    3.5150   44.7850   55.0850 F   0  0  0  0  0  0  0  0  0  0  0  0
    2.4470   46.3990   53.9710 F   0  0  0  0  0  0  0  0  0  0  0  0
   -0.4596   44.7892   56.6670 H   0  0  0  0  0  0  0  0  0  0  0  0
   -0.4333   46.1424   55.4860 H   0  0  0  0  0  0  0  0  0  0  0  0
   -1.8000   44.9768   55.4860 H   0  0  0  0  0  0  0  0  0  0  0  0
    0.2104   41.7717   52.6417 H   0  0  0  0  0  0  0  0  0  0  0  0
    5.3690   44.0912   52.5323 H   0  0  0  0  0  0  0  0  0  0  0  0
    5.0781   43.0384   51.0827 H   0  0  0  0  0  0  0  0  0  0  0  0
    6.4275   45.2397   50.7530 H   0  0  0  0  0  0  0  0  0  0  0  0
    5.0934   44.8537   49.5991 H   0  0  0  0  0  0  0  0  0  0  0  0
    5.0069   47.2314   50.2947 H   0  0  0  0  0  0  0  0  0  0  0  0
    5.8633   45.5623   54.4595 H   0  0  0  0  0  0  0  0  0  0  0  0
    8.1351   45.7583   55.4649 H   0  0  0  0  0  0  0  0  0  0  0  0
    9.2744   48.5454   52.3594 H   0  0  0  0  0  0  0  0  0  0  0  0
    7.0022   48.3515   51.3455 H   0  0  0  0  0  0  0  0  0  0  0  0
    2.6340   46.9624   51.5649 H   0  0  0  0  0  0  0  0  0  0  0  0
    2.8968   46.6740   49.7736 H   0  0  0  0  0  0  0  0  0  0  0  0
    1.5486   44.9535   51.3425 H   0  0  0  0  0  0  0  0  0  0  0  0
    2.5585   44.4565   49.9185 H   0  0  0  0  0  0  0  0  0  0  0  0
    1.8652   45.7447   55.8135 H   0  0  0  0  0  0  0  0  0  0  0  0
  1  2  1  0
  2  3  1  0
  3  4  2  0
  4  5  1  0
  5  6  1  0
  6  7  2  0
  6  8  1  0
  8  9  1  0
  9 10  1  0
 10 11  1  0
 11 12  1  0
 12 13  1  0
 13 14  2  0
 14 15  1  0
 15 16  2  0
 16 17  1  0
 16 18  1  0
 18 19  2  0
 11 20  1  0
 20 21  1  0
  5 22  2  0
 22 23  1  0
 23 24  1  0
 23 25  1  0
 22  2  1  0
 21  8  1  0
 19 13  1  0
  1 26  1  0
  1 27  1  0
  1 28  1  0
  4 29  1  0
  9 30  1  0
  9 31  1  0
 10 32  1  0
 10 33  1  0
 11 34  1  0
 14 35  1  0
 15 36  1  0
 18 37  1  0
 19 38  1  0
 20 39  1  0
 20 40  1  0
 21 41  1  0
 21 42  1  0
 23 43  1  0
M  END
>  <meeko>  (4) 
{"is_sidechain": [false], "free_energy": -7.869, "intermolecular_energy": -9.667, "internal_energy": -1.204}

$$$$
ligand_41_conformer_5_docked
     RDKit          3D

 43 45  0  0  0  0  0  0  0  0999 V2000
   -1.0530   46.6330   56.8810 C   0  0  0  0  0  0  0  0  0  0  0  0
   -1.0070   45.5230   55.9350 N   0  0  0  0  0  0  0  0  0  0  0  0
   -2.0950   44.9130   55.4890 N   0  0  0  0  0  0  0  0  0  0  0  0
   -1.7080   43.9370   54.6460 C   0  0  0  0  0  0  0  0  0  0  0  0
   -0.3290   43.9390   54.5460 C   0  0  0  0  0  0  0  0  0  0  0  0
    0.4700   43.0540   53.6810 C   0  0  0  0  0  0  0  0  0  0  0  0
    0.3350   41.8070   53.8040 O   0  0  0  0  0  0  0  0  0  0  0  0
    1.3710   43.5830   52.6880 N   0  0  0  0  0  0  0  0  0  0  0  0
    2.5360   42.7740   52.2970 C   0  0  0  0  0  0  0  0  0  0  0  0
    3.3890   43.4750   51.2300 C   0  0  0  0  0  0  0  0  0  0  0  0
    3.5300   44.9680   51.5440 C   0  0  0  0  0  0  0  0  0  0  0  0
    4.1840   45.1160   52.8080 O   0  0  0  0  0  0  0  0  0  0  0  0
    5.4630   45.6580   53.0130 C   0  0  0  0  0  0  0  0  0  0  0  0
    6.3140   45.7770   51.9070 C   0  0  0  0  0  0  0  0  0  0  0  0
    7.6020   46.3010   52.0540 C   0  0  0  0  0  0  0  0  0  0  0  0
    8.0490   46.7150   53.3130 C   0  0  0  0  0  0  0  0  0  0  0  0
    9.6660   47.3710   53.4970 Cl  0  0  0  0  0  0  0  0  0  0  0  0
    7.2070   46.6050   54.4230 C   0  0  0  0  0  0  0  0  0  0  0  0
    5.9190   46.0820   54.2780 C   0  0  0  0  0  0  0  0  0  0  0  0
    2.1480   45.6670   51.5540 C   0  0  0  0  0  0  0  0  0  0  0  0
    0.9650   44.7270   51.8580 C   0  0  0  0  0  0  0  0  0  0  0  0
    0.0960   44.9390   55.4120 C   0  0  0  0  0  0  0  0  0  0  0  0
    1.5170   45.3280   55.7270 C   0  0  0  0  0  0  0  0  0  0  0  0
    2.3200   44.2070   55.8170 F   0  0  0  0  0  0  0  0  0  0  0  0
    2.0330   46.1390   54.7340 F   0  0  0  0  0  0  0  0  0  0  0  0
   -1.0367   46.2401   57.9083 H   0  0  0  0  0  0  0  0  0  0  0  0
   -0.1811   47.2850   56.7239 H   0  0  0  0  0  0  0  0  0  0  0  0
   -1.9759   47.2106   56.7239 H   0  0  0  0  0  0  0  0  0  0  0  0
   -2.3831   43.2464   54.1194 H   0  0  0  0  0  0  0  0  0  0  0  0
    3.1575   42.5928   53.1863 H   0  0  0  0  0  0  0  0  0  0  0  0
    2.1670   41.8292   51.8713 H   0  0  0  0  0  0  0  0  0  0  0  0
    4.3879   43.0150   51.2068 H   0  0  0  0  0  0  0  0  0  0  0  0
    2.8949   43.3642   50.2535 H   0  0  0  0  0  0  0  0  0  0  0  0
    4.1336   45.4484   50.7599 H   0  0  0  0  0  0  0  0  0  0  0  0
    5.9661   45.4555   50.9142 H   0  0  0  0  0  0  0  0  0  0  0  0
    8.2637   46.3876   51.1795 H   0  0  0  0  0  0  0  0  0  0  0  0
    7.5587   46.9308   55.4130 H   0  0  0  0  0  0  0  0  0  0  0  0
    5.2587   46.0009   55.1540 H   0  0  0  0  0  0  0  0  0  0  0  0
    2.1666   46.4564   52.3198 H   0  0  0  0  0  0  0  0  0  0  0  0
    1.9860   46.0600   50.5394 H   0  0  0  0  0  0  0  0  0  0  0  0
    0.1879   45.2946   52.3909 H   0  0  0  0  0  0  0  0  0  0  0  0
    0.5864   44.3364   50.9019 H   0  0  0  0  0  0  0  0  0  0  0  0
    1.5045   45.8651   56.6869 H   0  0  0  0  0  0  0  0  0  0  0  0
  1  2  1  0
  2  3  1  0
  3  4  2  0
  4  5  1  0
  5  6  1  0
  6  7  2  0
  6  8  1  0
  8  9  1  0
  9 10  1  0
 10 11  1  0
 11 12  1  0
 12 13  1  0
 13 14  2  0
 14 15  1  0
 15 16  2  0
 16 17  1  0
 16 18  1  0
 18 19  2  0
 11 20  1  0
 20 21  1  0
  5 22  2  0
 22 23  1  0
 23 24  1  0
 23 25  1  0
 22  2  1  0
 21  8  1  0
 19 13  1  0
  1 26  1  0
  1 27  1  0
  1 28  1  0
  4 29  1  0
  9 30  1  0
  9 31  1  0
 10 32  1  0
 10 33  1  0
 11 34  1  0
 14 35  1  0
 15 36  1  0
 18 37  1  0
 19 38  1  0
 20 39  1  0
 20 40  1  0
 21 41  1  0
 21 42  1  0
 23 43  1  0
M  END
>  <meeko>  (5) 
{"is_sidechain": [false], "free_energy": -7.635, "intermolecular_energy": -9.432, "internal_energy": -1.15}

$$$$
