ligand_70_conformer_1_docked
     RDKit          3D

 51 53  0  0  0  0  0  0  0  0999 V2000
    8.2760   43.6740   49.1560 C   0  0  0  0  0  0  0  0  0  0  0  0
    6.8450   43.6460   49.5680 C   0  0  0  0  0  0  0  0  0  0  0  0
    6.3020   44.6940   50.0110 O   0  0  0  0  0  0  0  0  0  0  0  0
    6.1090   42.4650   49.4200 O   0  0  0  0  0  0  0  0  0  0  0  0
    5.6790   41.6670   50.5210 C   0  0  0  0  0  0  0  0  0  0  0  0
    4.1810   41.5230   50.5250 C   0  0  0  0  0  0  0  0  0  0  0  0
    3.6770   40.5280   49.9350 O   0  0  0  0  0  0  0  0  0  0  0  0
    3.3130   42.4850   51.1690 N   0  0  0  0  0  0  0  0  0  0  0  0
    1.8580   42.2370   51.2770 C   0  0  0  0  0  0  0  0  0  0  0  0
    1.0610   43.5470   51.2530 C   0  0  0  0  0  0  0  0  0  0  0  0
    1.6450   44.4860   52.1960 N   0  0  0  0  0  0  0  0  0  0  0  0
    0.9970   45.4670   52.8040 N   0  0  0  0  0  0  0  0  0  0  0  0
    1.9020   46.1520   53.5350 C   0  0  0  0  0  0  0  0  0  0  0  0
    3.1530   45.5840   53.3640 C   0  0  0  0  0  0  0  0  0  0  0  0
    4.6620   46.1110   54.0900 S   0  0  2  0  0  6  0  0  0  0  0  0
    5.2150   44.8890   55.2630 C   0  0  0  0  0  0  0  0  0  0  0  0
    4.4460   47.4310   54.7770 O   0  0  0  0  0  0  0  0  0  0  0  0
    5.7390   46.2860   52.9560 N   0  0  0  0  0  0  0  0  0  0  0  0
    7.0490   46.8190   53.1850 C   0  0  0  0  0  0  0  0  0  0  0  0
    7.3330   47.3880   54.2740 O   0  0  0  0  0  0  0  0  0  0  0  0
    8.1110   46.6620   52.1380 C   0  0  1  0  0  0  0  0  0  0  0  0
    8.8340   47.9580   51.7530 C   0  0  0  0  0  0  0  0  0  0  0  0
    9.5610   46.8970   52.5730 C   0  0  0  0  0  0  0  0  0  0  0  0
    9.8660   47.2860   54.0290 C   0  0  0  0  0  0  0  0  0  0  0  0
   10.6270   46.0980   51.8180 C   0  0  0  0  0  0  0  0  0  0  0  0
    2.9480   44.5300   52.5010 C   0  0  0  0  0  0  0  0  0  0  0  0
    3.9550   43.5890   51.9140 C   0  0  0  0  0  0  0  0  0  0  0  0
    8.9151   43.6865   50.0512 H   0  0  0  0  0  0  0  0  0  0  0  0
    8.5024   42.7801   48.5563 H   0  0  0  0  0  0  0  0  0  0  0  0
    8.4673   44.5761   48.5563 H   0  0  0  0  0  0  0  0  0  0  0  0
    6.1368   40.6698   50.4439 H   0  0  0  0  0  0  0  0  0  0  0  0
    5.9880   42.1595   51.4548 H   0  0  0  0  0  0  0  0  0  0  0  0
    1.5388   41.6090   50.4322 H   0  0  0  0  0  0  0  0  0  0  0  0
    1.6642   41.7327   52.2352 H   0  0  0  0  0  0  0  0  0  0  0  0
    1.0919   43.9766   50.2408 H   0  0  0  0  0  0  0  0  0  0  0  0
    0.0166   43.3463   51.5341 H   0  0  0  0  0  0  0  0  0  0  0  0
    1.6803   47.0244   54.1672 H   0  0  0  0  0  0  0  0  0  0  0  0
    5.0473   45.2595   56.2851 H   0  0  0  0  0  0  0  0  0  0  0  0
    4.6513   43.9562   55.1140 H   0  0  0  0  0  0  0  0  0  0  0  0
    6.2878   44.6968   55.1140 H   0  0  0  0  0  0  0  0  0  0  0  0
    7.5911   45.8539   51.6026 H   0  0  0  0  0  0  0  0  0  0  0  0
    9.1219   48.1367   50.7065 H   0  0  0  0  0  0  0  0  0  0  0  0
    8.6263   49.0308   51.8796 H   0  0  0  0  0  0  0  0  0  0  0  0
    9.3328   46.6059   54.7096 H   0  0  0  0  0  0  0  0  0  0  0  0
   10.9485   47.2110   54.2095 H   0  0  0  0  0  0  0  0  0  0  0  0
    9.5349   48.3193   54.2095 H   0  0  0  0  0  0  0  0  0  0  0  0
   11.2914   45.6000   52.5395 H   0  0  0  0  0  0  0  0  0  0  0  0
   10.1390   45.3413   51.1861 H   0  0  0  0  0  0  0  0  0  0  0  0
   11.2163   46.7787   51.1861 H   0  0  0  0  0  0  0  0  0  0  0  0
    4.6065   44.1492   51.2272 H   0  0  0  0  0  0  0  0  0  0  0  0
    4.5324   43.1501   52.7410 H   0  0  0  0  0  0  0  0  0  0  0  0
  1  2  1  0
  2  3  2  0
  2  4  1  0
  4  5  1  0
  5  6  1  0
  6  7  2  0
  6  8  1  0
  8  9  1  0
  9 10  1  0
 10 11  1  0
 11 12  1  0
 12 13  2  0
 13 14  1  0
 14 15  1  0
 15 16  1  1
 15 17  2  0
 15 18  2  0
 18 19  1  0
 19 20  2  0
 19 21  1  0
 21 22  1  0
 22 23  1  0
 23 24  1  0
 23 25  1  0
 14 26  2  0
 26 27  1  0
 27  8  1  0
 26 11  1  0
 23 21  1  0
  1 28  1  0
  1 29  1  0
  1 30  1  0
  5 31  1  0
  5 32  1  0
  9 33  1  0
  9 34  1  0
 10 35  1  0
 10 36  1  0
 13 37  1  0
 16 38  1  0
 16 39  1  0
 16 40  1  0
 21 41  1  6
 22 42  1  0
 22 43  1  0
 24 44  1  0
 24 45  1  0
 24 46  1  0
 25 47  1  0
 25 48  1  0
 25 49  1  0
 27 50  1  0
 27 51  1  0
M  END
>  <meeko>  (1) 
{"is_sidechain": [false], "free_energy": -8.99, "intermolecular_energy": -12.669, "internal_energy": 0.417}

$$$$
ligand_70_conformer_1_docked
     RDKit          3D

 51 53  0  0  0  0  0  0  0  0999 V2000
   -0.8200   48.5710   59.8150 C   0  0  0  0  0  0  0  0  0  0  0  0
   -0.0400   47.5720   59.0320 C   0  0  0  0  0  0  0  0  0  0  0  0
    1.2190   47.5700   59.1000 O   0  0  0  0  0  0  0  0  0  0  0  0
   -0.7180   46.6210   58.2600 O   0  0  0  0  0  0  0  0  0  0  0  0
   -0.5220   46.4700   56.8550 C   0  0  0  0  0  0  0  0  0  0  0  0
   -0.6060   45.0210   56.4560 C   0  0  0  0  0  0  0  0  0  0  0  0
   -1.3280   44.2530   57.1500 O   0  0  0  0  0  0  0  0  0  0  0  0
    0.1150   44.4900   55.3200 N   0  0  0  0  0  0  0  0  0  0  0  0
   -0.5910   43.7240   54.2680 C   0  0  0  0  0  0  0  0  0  0  0  0
    0.3200   42.6630   53.6380 C   0  0  0  0  0  0  0  0  0  0  0  0
    1.5910   43.2690   53.2780 N   0  0  0  0  0  0  0  0  0  0  0  0
    2.3970   42.8460   52.3160 N   0  0  0  0  0  0  0  0  0  0  0  0
    3.5000   43.6250   52.3480 C   0  0  0  0  0  0  0  0  0  0  0  0
    3.3780   44.5490   53.3720 C   0  0  0  0  0  0  0  0  0  0  0  0
    4.5450   45.7770   53.8330 S   0  0  2  0  0  6  0  0  0  0  0  0
    5.2820   45.3400   55.3950 C   0  0  0  0  0  0  0  0  0  0  0  0
    3.8480   47.1050   53.9420 O   0  0  0  0  0  0  0  0  0  0  0  0
    5.6590   45.8640   52.7240 N   0  0  0  0  0  0  0  0  0  0  0  0
    6.7010   46.8460   52.7260 C   0  0  0  0  0  0  0  0  0  0  0  0
    6.6640   47.8250   53.5190 O   0  0  0  0  0  0  0  0  0  0  0  0
    7.8750   46.6890   51.8070 C   0  0  1  0  0  0  0  0  0  0  0  0
    8.6910   47.9650   51.5780 C   0  0  0  0  0  0  0  0  0  0  0  0
    9.2700   46.8350   52.4220 C   0  0  0  0  0  0  0  0  0  0  0  0
    9.4120   47.1420   53.9220 C   0  0  0  0  0  0  0  0  0  0  0  0
   10.3870   46.0230   51.7600 C   0  0  0  0  0  0  0  0  0  0  0  0
    2.1520   44.2870   53.9420 C   0  0  0  0  0  0  0  0  0  0  0  0
    1.5120   44.9370   55.1300 C   0  0  0  0  0  0  0  0  0  0  0  0
   -0.6765   48.3872   60.8900 H   0  0  0  0  0  0  0  0  0  0  0  0
   -0.4718   49.5844   59.5666 H   0  0  0  0  0  0  0  0  0  0  0  0
   -1.8876   48.4790   59.5666 H   0  0  0  0  0  0  0  0  0  0  0  0
   -1.2979   47.0370   56.3197 H   0  0  0  0  0  0  0  0  0  0  0  0
    0.4773   46.8496   56.5957 H   0  0  0  0  0  0  0  0  0  0  0  0
   -1.4645   43.2259   54.7139 H   0  0  0  0  0  0  0  0  0  0  0  0
   -0.9005   44.4255   53.4792 H   0  0  0  0  0  0  0  0  0  0  0  0
    0.4921   41.8515   54.3604 H   0  0  0  0  0  0  0  0  0  0  0  0
   -0.1605   42.2550   52.7365 H   0  0  0  0  0  0  0  0  0  0  0  0
    4.3600   43.5389   51.6675 H   0  0  0  0  0  0  0  0  0  0  0  0
    4.6516   45.7138   56.2152 H   0  0  0  0  0  0  0  0  0  0  0  0
    5.3667   44.2456   55.4671 H   0  0  0  0  0  0  0  0  0  0  0  0
    6.2828   45.7907   55.4671 H   0  0  0  0  0  0  0  0  0  0  0  0
    7.3909   45.9317   51.1729 H   0  0  0  0  0  0  0  0  0  0  0  0
    9.1099   48.1784   50.5835 H   0  0  0  0  0  0  0  0  0  0  0  0
    8.5136   49.0393   51.7344 H   0  0  0  0  0  0  0  0  0  0  0  0
    9.0211   46.2970   54.5078 H   0  0  0  0  0  0  0  0  0  0  0  0
   10.4734   47.2973   54.1656 H   0  0  0  0  0  0  0  0  0  0  0  0
    8.8430   48.0514   54.1656 H   0  0  0  0  0  0  0  0  0  0  0  0
   11.0171   45.5650   52.5367 H   0  0  0  0  0  0  0  0  0  0  0  0
    9.9450   45.2339   51.1339 H   0  0  0  0  0  0  0  0  0  0  0  0
   11.0012   46.6869   51.1339 H   0  0  0  0  0  0  0  0  0  0  0  0
    2.0918   44.6825   56.0295 H   0  0  0  0  0  0  0  0  0  0  0  0
    1.5009   46.0234   54.9582 H   0  0  0  0  0  0  0  0  0  0  0  0
  1  2  1  0
  2  3  2  0
  2  4  1  0
  4  5  1  0
  5  6  1  0
  6  7  2  0
  6  8  1  0
  8  9  1  0
  9 10  1  0
 10 11  1  0
 11 12  1  0
 12 13  2  0
 13 14  1  0
 14 15  1  0
 15 16  1  1
 15 17  2  0
 15 18  2  0
 18 19  1  0
 19 20  2  0
 19 21  1  0
 21 22  1  0
 22 23  1  0
 23 24  1  0
 23 25  1  0
 14 26  2  0
 26 27  1  0
 27  8  1  0
 26 11  1  0
 23 21  1  0
  1 28  1  0
  1 29  1  0
  1 30  1  0
  5 31  1  0
  5 32  1  0
  9 33  1  0
  9 34  1  0
 10 35  1  0
 10 36  1  0
 13 37  1  0
 16 38  1  0
 16 39  1  0
 16 40  1  0
 21 41  1  6
 22 42  1  0
 22 43  1  0
 24 44  1  0
 24 45  1  0
 24 46  1  0
 25 47  1  0
 25 48  1  0
 25 49  1  0
 27 50  1  0
 27 51  1  0
M  END
>  <meeko>  (2) 
{"is_sidechain": [false], "free_energy": -8.774, "intermolecular_energy": -12.444, "internal_energy": 0.496}

$$$$
ligand_70_conformer_1_docked
     RDKit          3D

 51 53  0  0  0  0  0  0  0  0999 V2000
   -3.5250   42.6540   58.9920 C   0  0  0  0  0  0  0  0  0  0  0  0
   -2.9340   43.2290   57.7500 C   0  0  0  0  0  0  0  0  0  0  0  0
   -2.9280   42.5480   56.6890 O   0  0  0  0  0  0  0  0  0  0  0  0
   -2.4290   44.5330   57.7680 O   0  0  0  0  0  0  0  0  0  0  0  0
   -1.9080   45.1870   56.6120 C   0  0  0  0  0  0  0  0  0  0  0  0
   -0.4100   45.0580   56.5530 C   0  0  0  0  0  0  0  0  0  0  0  0
    0.2590   45.4280   57.5570 O   0  0  0  0  0  0  0  0  0  0  0  0
    0.2770   44.5380   55.3910 N   0  0  0  0  0  0  0  0  0  0  0  0
   -0.4580   43.7710   54.3590 C   0  0  0  0  0  0  0  0  0  0  0  0
    0.4390   42.7210   53.6940 C   0  0  0  0  0  0  0  0  0  0  0  0
    1.6930   43.3390   53.2940 N   0  0  0  0  0  0  0  0  0  0  0  0
    2.4690   42.9270   52.3040 N   0  0  0  0  0  0  0  0  0  0  0  0
    3.5660   43.7140   52.3030 C   0  0  0  0  0  0  0  0  0  0  0  0
    3.4720   44.6330   53.3350 C   0  0  0  0  0  0  0  0  0  0  0  0
    4.6440   45.8680   53.7620 S   0  0  2  0  0  6  0  0  0  0  0  0
    5.3630   45.4820   55.3460 C   0  0  0  0  0  0  0  0  0  0  0  0
    3.9560   47.2040   53.8160 O   0  0  0  0  0  0  0  0  0  0  0  0
    5.7680   45.9070   52.6620 N   0  0  0  0  0  0  0  0  0  0  0  0
    6.8180   46.8810   52.6390 C   0  0  0  0  0  0  0  0  0  0  0  0
    6.7980   47.8710   53.4180 O   0  0  0  0  0  0  0  0  0  0  0  0
    7.9800   46.7010   51.7080 C   0  0  1  0  0  0  0  0  0  0  0  0
    8.9000   47.9210   51.5810 C   0  0  0  0  0  0  0  0  0  0  0  0
    9.3790   46.6830   52.3310 C   0  0  0  0  0  0  0  0  0  0  0  0
    9.5380   46.8560   53.8510 C   0  0  0  0  0  0  0  0  0  0  0  0
   10.4290   45.8380   51.6050 C   0  0  0  0  0  0  0  0  0  0  0  0
    2.2680   44.3580   53.9440 C   0  0  0  0  0  0  0  0  0  0  0  0
    1.6630   44.9970   55.1570 C   0  0  0  0  0  0  0  0  0  0  0  0
   -3.0511   43.1151   59.8711 H   0  0  0  0  0  0  0  0  0  0  0  0
   -4.6063   42.8551   59.0107 H   0  0  0  0  0  0  0  0  0  0  0  0
   -3.3537   41.5676   59.0107 H   0  0  0  0  0  0  0  0  0  0  0  0
   -2.3448   44.7300   55.7118 H   0  0  0  0  0  0  0  0  0  0  0  0
   -2.1675   46.2546   56.6646 H   0  0  0  0  0  0  0  0  0  0  0  0
   -1.3122   43.2638   54.8314 H   0  0  0  0  0  0  0  0  0  0  0  0
   -0.7991   44.4737   53.5845 H   0  0  0  0  0  0  0  0  0  0  0  0
    0.6417   41.9076   54.4063 H   0  0  0  0  0  0  0  0  0  0  0  0
   -0.0685   42.3134   52.8073 H   0  0  0  0  0  0  0  0  0  0  0  0
    4.4033   43.6374   51.5937 H   0  0  0  0  0  0  0  0  0  0  0  0
    4.6987   45.8386   56.1469 H   0  0  0  0  0  0  0  0  0  0  0  0
    5.4923   44.3932   55.4345 H   0  0  0  0  0  0  0  0  0  0  0  0
    6.3419   45.9758   55.4345 H   0  0  0  0  0  0  0  0  0  0  0  0
    7.4389   46.0389   51.0160 H   0  0  0  0  0  0  0  0  0  0  0  0
    9.3407   48.1781   50.6065 H   0  0  0  0  0  0  0  0  0  0  0  0
    8.8107   48.9903   51.8232 H   0  0  0  0  0  0  0  0  0  0  0  0
    8.8824   46.1426   54.3718 H   0  0  0  0  0  0  0  0  0  0  0  0
   10.5840   46.6668   54.1341 H   0  0  0  0  0  0  0  0  0  0  0  0
    9.2614   47.8823   54.1341 H   0  0  0  0  0  0  0  0  0  0  0  0
   11.0636   45.3273   52.3442 H   0  0  0  0  0  0  0  0  0  0  0  0
    9.9258   45.0901   50.9746 H   0  0  0  0  0  0  0  0  0  0  0  0
   11.0520   46.4895   50.9746 H   0  0  0  0  0  0  0  0  0  0  0  0
    2.2746   44.7423   56.0351 H   0  0  0  0  0  0  0  0  0  0  0  0
    1.6379   46.0842   54.9918 H   0  0  0  0  0  0  0  0  0  0  0  0
  1  2  1  0
  2  3  2  0
  2  4  1  0
  4  5  1  0
  5  6  1  0
  6  7  2  0
  6  8  1  0
  8  9  1  0
  9 10  1  0
 10 11  1  0
 11 12  1  0
 12 13  2  0
 13 14  1  0
 14 15  1  0
 15 16  1  1
 15 17  2  0
 15 18  2  0
 18 19  1  0
 19 20  2  0
 19 21  1  0
 21 22  1  0
 22 23  1  0
 23 24  1  0
 23 25  1  0
 14 26  2  0
 26 27  1  0
 27  8  1  0
 26 11  1  0
 23 21  1  0
  1 28  1  0
  1 29  1  0
  1 30  1  0
  5 31  1  0
  5 32  1  0
  9 33  1  0
  9 34  1  0
 10 35  1  0
 10 36  1  0
 13 37  1  0
 16 38  1  0
 16 39  1  0
 16 40  1  0
 21 41  1  6
 22 42  1  0
 22 43  1  0
 24 44  1  0
 24 45  1  0
 24 46  1  0
 25 47  1  0
 25 48  1  0
 25 49  1  0
 27 50  1  0
 27 51  1  0
M  END
>  <meeko>  (3) 
{"is_sidechain": [false], "free_energy": -8.713, "intermolecular_energy": -12.185, "internal_energy": 0.323}

$$$$
ligand_70_conformer_1_docked
     RDKit          3D

 51 53  0  0  0  0  0  0  0  0999 V2000
    7.6340   45.2410   49.9430 C   0  0  0  0  0  0  0  0  0  0  0  0
    8.5370   44.1730   49.4290 C   0  0  0  0  0  0  0  0  0  0  0  0
    9.7640   44.2000   49.7180 O   0  0  0  0  0  0  0  0  0  0  0  0
    8.0030   43.1300   48.6640 O   0  0  0  0  0  0  0  0  0  0  0  0
    6.6050   42.8630   48.5720 C   0  0  0  0  0  0  0  0  0  0  0  0
    6.1600   41.9490   49.6810 C   0  0  0  0  0  0  0  0  0  0  0  0
    6.8480   40.9180   49.9150 O   0  0  0  0  0  0  0  0  0  0  0  0
    4.9760   42.2110   50.4700 N   0  0  0  0  0  0  0  0  0  0  0  0
    3.8640   41.2340   50.5120 C   0  0  0  0  0  0  0  0  0  0  0  0
    2.5120   41.9290   50.7050 C   0  0  0  0  0  0  0  0  0  0  0  0
    2.6060   42.8740   51.8050 N   0  0  0  0  0  0  0  0  0  0  0  0
    1.5970   43.2710   52.5650 N   0  0  0  0  0  0  0  0  0  0  0  0
    2.0790   44.2000   53.4180 C   0  0  0  0  0  0  0  0  0  0  0  0
    3.4270   44.3940   53.1680 C   0  0  0  0  0  0  0  0  0  0  0  0
    4.5080   45.5030   53.9970 S   0  0  2  0  0  6  0  0  0  0  0  0
    5.2420   44.6820   55.3970 C   0  0  0  0  0  0  0  0  0  0  0  0
    3.7280   46.7060   54.4510 O   0  0  0  0  0  0  0  0  0  0  0  0
    5.6330   45.9610   52.9970 N   0  0  0  0  0  0  0  0  0  0  0  0
    6.6130   46.9570   53.3120 C   0  0  0  0  0  0  0  0  0  0  0  0
    6.5270   47.6340   54.3700 O   0  0  0  0  0  0  0  0  0  0  0  0
    7.7810   47.1690   52.3950 C   0  0  1  0  0  0  0  0  0  0  0  0
    8.5040   48.5090   52.5710 C   0  0  0  0  0  0  0  0  0  0  0  0
    9.1720   47.2190   53.0350 C   0  0  0  0  0  0  0  0  0  0  0  0
    9.3150   47.0640   54.5570 C   0  0  0  0  0  0  0  0  0  0  0  0
   10.3310   46.7270   52.1630 C   0  0  0  0  0  0  0  0  0  0  0  0
    3.7230   43.5360   52.1320 C   0  0  0  0  0  0  0  0  0  0  0  0
    5.0200   43.3550   51.4050 C   0  0  0  0  0  0  0  0  0  0  0  0
    7.6428   45.2306   51.0429 H   0  0  0  0  0  0  0  0  0  0  0  0
    7.9821   46.2203   49.5828 H   0  0  0  0  0  0  0  0  0  0  0  0
    6.6104   45.0605   49.5828 H   0  0  0  0  0  0  0  0  0  0  0  0
    6.0517   43.8111   48.6425 H   0  0  0  0  0  0  0  0  0  0  0  0
    6.4032   42.3717   47.6087 H   0  0  0  0  0  0  0  0  0  0  0  0
    3.8455   40.6728   49.5661 H   0  0  0  0  0  0  0  0  0  0  0  0
    4.0298   40.5593   51.3648 H   0  0  0  0  0  0  0  0  0  0  0  0
    2.2402   42.4647   49.7835 H   0  0  0  0  0  0  0  0  0  0  0  0
    1.7422   41.1769   50.9324 H   0  0  0  0  0  0  0  0  0  0  0  0
    1.4932   44.7206   54.1898 H   0  0  0  0  0  0  0  0  0  0  0  0
    4.8498   45.1207   56.3264 H   0  0  0  0  0  0  0  0  0  0  0  0
    4.9952   43.6105   55.3646 H   0  0  0  0  0  0  0  0  0  0  0  0
    6.3343   44.8078   55.3646 H   0  0  0  0  0  0  0  0  0  0  0  0
    7.3408   46.6083   51.5572 H   0  0  0  0  0  0  0  0  0  0  0  0
    8.8924   49.0436   51.6916 H   0  0  0  0  0  0  0  0  0  0  0  0
    8.2553   49.4696   53.0458 H   0  0  0  0  0  0  0  0  0  0  0  0
    8.6526   47.7821   55.0625 H   0  0  0  0  0  0  0  0  0  0  0  0
    9.0373   46.0405   54.8490 H   0  0  0  0  0  0  0  0  0  0  0  0
   10.3575   47.2585   54.8490 H   0  0  0  0  0  0  0  0  0  0  0  0
   11.1520   46.3785   52.8068 H   0  0  0  0  0  0  0  0  0  0  0  0
    9.9858   45.8978   51.5279 H   0  0  0  0  0  0  0  0  0  0  0  0
   10.6877   47.5513   51.5279 H   0  0  0  0  0  0  0  0  0  0  0  0
    5.2388   44.2705   50.8359 H   0  0  0  0  0  0  0  0  0  0  0  0
    5.8025   43.1537   52.1514 H   0  0  0  0  0  0  0  0  0  0  0  0
  1  2  1  0
  2  3  2  0
  2  4  1  0
  4  5  1  0
  5  6  1  0
  6  7  2  0
  6  8  1  0
  8  9  1  0
  9 10  1  0
 10 11  1  0
 11 12  1  0
 12 13  2  0
 13 14  1  0
 14 15  1  0
 15 16  1  1
 15 17  2  0
 15 18  2  0
 18 19  1  0
 19 20  2  0
 19 21  1  0
 21 22  1  0
 22 23  1  0
 23 24  1  0
 23 25  1  0
 14 26  2  0
 26 27  1  0
 27  8  1  0
 26 11  1  0
 23 21  1  0
  1 28  1  0
  1 29  1  0
  1 30  1  0
  5 31  1  0
  5 32  1  0
  9 33  1  0
  9 34  1  0
 10 35  1  0
 10 36  1  0
 13 37  1  0
 16 38  1  0
 16 39  1  0
 16 40  1  0
 21 41  1  6
 22 42  1  0
 22 43  1  0
 24 44  1  0
 24 45  1  0
 24 46  1  0
 25 47  1  0
 25 48  1  0
 25 49  1  0
 27 50  1  0
 27 51  1  0
M  END
>  <meeko>  (4) 
{"is_sidechain": [false], "free_energy": -8.593, "intermolecular_energy": -12.206, "internal_energy": 0.514}

$$$$
ligand_70_conformer_1_docked
     RDKit          3D

 51 53  0  0  0  0  0  0  0  0999 V2000
    4.1690   41.0880   45.7720 C   0  0  0  0  0  0  0  0  0  0  0  0
    3.6690   40.4110   47.0020 C   0  0  0  0  0  0  0  0  0  0  0  0
    2.7180   39.5870   46.9190 O   0  0  0  0  0  0  0  0  0  0  0  0
    4.2900   40.6670   48.2290 O   0  0  0  0  0  0  0  0  0  0  0  0
    3.5940   40.6670   49.4740 C   0  0  0  0  0  0  0  0  0  0  0  0
    4.1450   41.7200   50.3970 C   0  0  0  0  0  0  0  0  0  0  0  0
    5.3980   41.8180   50.5060 O   0  0  0  0  0  0  0  0  0  0  0  0
    3.2900   42.6040   51.1600 N   0  0  0  0  0  0  0  0  0  0  0  0
    1.8630   42.2760   51.3730 C   0  0  0  0  0  0  0  0  0  0  0  0
    1.0060   43.5430   51.4830 C   0  0  0  0  0  0  0  0  0  0  0  0
    1.6230   44.4640   52.4230 N   0  0  0  0  0  0  0  0  0  0  0  0
    0.9820   45.3800   53.1320 N   0  0  0  0  0  0  0  0  0  0  0  0
    1.9130   46.0740   53.8220 C   0  0  0  0  0  0  0  0  0  0  0  0
    3.1700   45.5810   53.5190 C   0  0  0  0  0  0  0  0  0  0  0  0
    4.7090   46.1490   54.1460 S   0  0  2  0  0  6  0  0  0  0  0  0
    5.3740   44.9390   55.2720 C   0  0  0  0  0  0  0  0  0  0  0  0
    4.5010   47.4590   54.8540 O   0  0  0  0  0  0  0  0  0  0  0  0
    5.7020   46.3600   52.9430 N   0  0  0  0  0  0  0  0  0  0  0  0
    7.0080   46.9310   53.0880 C   0  0  0  0  0  0  0  0  0  0  0  0
    7.3190   47.5760   54.1240 O   0  0  0  0  0  0  0  0  0  0  0  0
    8.0350   46.7230   52.0150 C   0  0  1  0  0  0  0  0  0  0  0  0
    8.8130   47.9800   51.6130 C   0  0  0  0  0  0  0  0  0  0  0  0
    9.5050   46.8820   52.4140 C   0  0  0  0  0  0  0  0  0  0  0  0
    9.8650   47.2520   53.8620 C   0  0  0  0  0  0  0  0  0  0  0  0
   10.5100   46.0320   51.6320 C   0  0  0  0  0  0  0  0  0  0  0  0
    2.9430   44.5600   52.6220 C   0  0  0  0  0  0  0  0  0  0  0  0
    3.9410   43.7020   51.9060 C   0  0  0  0  0  0  0  0  0  0  0  0
    4.8005   41.9430   46.0550 H   0  0  0  0  0  0  0  0  0  0  0  0
    4.7602   40.3767   45.1766 H   0  0  0  0  0  0  0  0  0  0  0  0
    3.3153   41.4439   45.1766 H   0  0  0  0  0  0  0  0  0  0  0  0
    2.5285   40.8702   49.2910 H   0  0  0  0  0  0  0  0  0  0  0  0
    3.7214   39.6826   49.9480 H   0  0  0  0  0  0  0  0  0  0  0  0
    1.5041   41.6741   50.5251 H   0  0  0  0  0  0  0  0  0  0  0  0
    1.7743   41.7161   52.3157 H   0  0  0  0  0  0  0  0  0  0  0  0
    0.9310   44.0220   50.4956 H   0  0  0  0  0  0  0  0  0  0  0  0
   -0.0004   43.2758   51.8378 H   0  0  0  0  0  0  0  0  0  0  0  0
    1.7046   46.9015   54.5161 H   0  0  0  0  0  0  0  0  0  0  0  0
    5.1952   45.2644   56.3074 H   0  0  0  0  0  0  0  0  0  0  0  0
    4.8816   43.9702   55.1019 H   0  0  0  0  0  0  0  0  0  0  0  0
    6.4558   44.8354   55.1019 H   0  0  0  0  0  0  0  0  0  0  0  0
    7.4611   45.9438   51.4920 H   0  0  0  0  0  0  0  0  0  0  0  0
    9.0835   48.1456   50.5597 H   0  0  0  0  0  0  0  0  0  0  0  0
    8.6637   49.0618   51.7452 H   0  0  0  0  0  0  0  0  0  0  0  0
    9.2696   46.6401   54.5556 H   0  0  0  0  0  0  0  0  0  0  0  0
   10.9352   47.0640   54.0332 H   0  0  0  0  0  0  0  0  0  0  0  0
    9.6478   48.3166   54.0332 H   0  0  0  0  0  0  0  0  0  0  0  0
   11.1551   45.4864   52.3363 H   0  0  0  0  0  0  0  0  0  0  0  0
    9.9685   45.3137   50.9989 H   0  0  0  0  0  0  0  0  0  0  0  0
   11.1285   46.6852   50.9989 H   0  0  0  0  0  0  0  0  0  0  0  0
    4.5047   44.3275   51.1982 H   0  0  0  0  0  0  0  0  0  0  0  0
    4.6075   43.2547   52.6581 H   0  0  0  0  0  0  0  0  0  0  0  0
  1  2  1  0
  2  3  2  0
  2  4  1  0
  4  5  1  0
  5  6  1  0
  6  7  2  0
  6  8  1  0
  8  9  1  0
  9 10  1  0
 10 11  1  0
 11 12  1  0
 12 13  2  0
 13 14  1  0
 14 15  1  0
 15 16  1  1
 15 17  2  0
 15 18  2  0
 18 19  1  0
 19 20  2  0
 19 21  1  0
 21 22  1  0
 22 23  1  0
 23 24  1  0
 23 25  1  0
 14 26  2  0
 26 27  1  0
 27  8  1  0
 26 11  1  0
 23 21  1  0
  1 28  1  0
  1 29  1  0
  1 30  1  0
  5 31  1  0
  5 32  1  0
  9 33  1  0
  9 34  1  0
 10 35  1  0
 10 36  1  0
 13 37  1  0
 16 38  1  0
 16 39  1  0
 16 40  1  0
 21 41  1  6
 22 42  1  0
 22 43  1  0
 24 44  1  0
 24 45  1  0
 24 46  1  0
 25 47  1  0
 25 48  1  0
 25 49  1  0
 27 50  1  0
 27 51  1  0
M  END
>  <meeko>  (5) 
{"is_sidechain": [false], "free_energy": -8.375, "intermolecular_energy": -12.179, "internal_energy": 0.794}

$$$$
