MODEL 1
REMARK VINA RESULT:    -7.696      0.000      0.000
REMARK INTER + INTRA:         -10.602
REMARK INTER:                  -9.945
REMARK INTRA:                  -0.657
REMARK UNBOUND:                -0.657
REMARK SMILES CC1(CC(=O)NCc2ccc(-n3cncn3)cc2)OCCO1
REMARK SMILES IDX 4 1 5 2 6 3 3 5 2 6 19 7 22 8 20 9 21 10 1 11 7 12 8 13 9 14
REMARK SMILES IDX 18 15 10 16 17 17 11 18 12 19 13 20 16 21 14 22 15 23
REMARK H PARENT 6 4
ROOT
ATOM      1  C   UNL     1       8.949  46.105  51.175  1.00  0.00     0.225 C 
ATOM      2  O   UNL     1       9.874  45.286  50.927  1.00  0.00    -0.275 OA
ATOM      3  N   UNL     1       7.632  45.892  50.648  1.00  0.00    -0.352 N 
ATOM      4  H   UNL     1       6.900  46.623  50.795  1.00  0.00     0.163 HD
ENDROOT
BRANCH   1   5
ATOM      5  C   UNL     1       9.226  47.284  52.064  1.00  0.00     0.165 C 
BRANCH   5   6
ATOM      6  C   UNL     1       8.796  47.039  53.527  1.00  0.00     0.174 C 
ATOM      7  O   UNL     1       7.810  47.984  53.889  1.00  0.00    -0.347 OA
ATOM      8  O   UNL     1       8.299  45.721  53.628  1.00  0.00    -0.347 OA
ATOM      9  C   UNL     1       6.725  47.248  54.356  1.00  0.00     0.192 C 
ATOM     10  C   UNL     1       6.937  45.844  53.885  1.00  0.00     0.192 C 
ATOM     11  C   UNL     1       9.988  47.177  54.484  1.00  0.00     0.076 C 
ENDBRANCH   5   6
ENDBRANCH   1   5
BRANCH   3  12
ATOM     12  C   UNL     1       7.240  44.639  50.007  1.00  0.00     0.151 C 
BRANCH  12  13
ATOM     13  C   UNL     1       5.873  44.228  50.479  1.00  0.00    -0.029 A 
ATOM     14  C   UNL     1       4.959  45.200  50.907  1.00  0.00     0.008 A 
ATOM     15  C   UNL     1       5.522  42.873  50.557  1.00  0.00     0.008 A 
ATOM     16  C   UNL     1       3.706  44.823  51.398  1.00  0.00     0.029 A 
ATOM     17  C   UNL     1       4.269  42.495  51.047  1.00  0.00     0.029 A 
ATOM     18  C   UNL     1       3.344  43.466  51.478  1.00  0.00     0.066 A 
BRANCH  18  19
ATOM     19  N   UNL     1       2.047  43.095  51.992  1.00  0.00    -0.221 N 
ATOM     20  C   UNL     1       0.874  43.040  51.332  1.00  0.00     0.225 A 
ATOM     21  N   UNL     1       1.822  42.731  53.242  1.00  0.00    -0.155 NA
ATOM     22  N   UNL     1      -0.126  42.643  52.143  1.00  0.00    -0.223 NA
ATOM     23  C   UNL     1       0.506  42.463  53.321  1.00  0.00     0.246 A 
ENDBRANCH  18  19
ENDBRANCH  12  13
ENDBRANCH   3  12
TORSDOF 5
ENDMDL
MODEL 2
REMARK VINA RESULT:    -7.622      3.716      7.545
REMARK INTER + INTRA:         -10.506
REMARK INTER:                  -9.683
REMARK INTRA:                  -0.824
REMARK UNBOUND:                -0.657
REMARK SMILES CC1(CC(=O)NCc2ccc(-n3cncn3)cc2)OCCO1
REMARK SMILES IDX 4 1 5 2 6 3 3 5 2 6 19 7 22 8 20 9 21 10 1 11 7 12 8 13 9 14
REMARK SMILES IDX 18 15 10 16 17 17 11 18 12 19 13 20 16 21 14 22 15 23
REMARK H PARENT 6 4
ROOT
ATOM      1  C   UNL     1       1.115  44.529  51.603  1.00  0.00     0.225 C 
ATOM      2  O   UNL     1       1.292  43.720  50.653  1.00  0.00    -0.275 OA
ATOM      3  N   UNL     1       2.041  45.604  51.819  1.00  0.00    -0.352 N 
ATOM      4  H   UNL     1       1.925  46.214  52.659  1.00  0.00     0.163 HD
ENDROOT
BRANCH   1   5
ATOM      5  C   UNL     1      -0.095  44.385  52.480  1.00  0.00     0.165 C 
BRANCH   5   6
ATOM      6  C   UNL     1       0.236  43.751  53.849  1.00  0.00     0.174 C 
ATOM      7  O   UNL     1       1.527  44.159  54.254  1.00  0.00    -0.347 OA
ATOM      8  O   UNL     1      -0.743  44.165  54.779  1.00  0.00    -0.347 OA
ATOM      9  C   UNL     1       1.374  44.716  55.521  1.00  0.00     0.192 C 
ATOM     10  C   UNL     1      -0.087  44.993  55.684  1.00  0.00     0.192 C 
ATOM     11  C   UNL     1       0.205  42.218  53.770  1.00  0.00     0.076 C 
ENDBRANCH   5   6
ENDBRANCH   1   5
BRANCH   3  12
ATOM     12  C   UNL     1       3.076  45.951  50.850  1.00  0.00     0.151 C 
BRANCH  12  13
ATOM     13  C   UNL     1       4.383  46.180  51.558  1.00  0.00    -0.029 A 
ATOM     14  C   UNL     1       4.417  46.936  52.737  1.00  0.00     0.008 A 
ATOM     15  C   UNL     1       5.583  45.699  51.015  1.00  0.00     0.008 A 
ATOM     16  C   UNL     1       5.634  47.199  53.372  1.00  0.00     0.029 A 
ATOM     17  C   UNL     1       6.801  45.962  51.649  1.00  0.00     0.029 A 
ATOM     18  C   UNL     1       6.843  46.720  52.836  1.00  0.00     0.066 A 
BRANCH  18  19
ATOM     19  N   UNL     1       8.091  47.006  53.502  1.00  0.00    -0.221 N 
ATOM     20  C   UNL     1       9.343  46.768  53.065  1.00  0.00     0.225 A 
ATOM     21  N   UNL     1       8.182  47.578  54.690  1.00  0.00    -0.155 NA
ATOM     22  N   UNL     1      10.261  47.179  53.961  1.00  0.00    -0.223 NA
ATOM     23  C   UNL     1       9.497  47.675  54.956  1.00  0.00     0.246 A 
ENDBRANCH  18  19
ENDBRANCH  12  13
ENDBRANCH   3  12
TORSDOF 5
ENDMDL
MODEL 3
REMARK VINA RESULT:    -7.603      1.351      2.522
REMARK INTER + INTRA:         -10.482
REMARK INTER:                  -9.987
REMARK INTRA:                  -0.496
REMARK UNBOUND:                -0.657
REMARK SMILES CC1(CC(=O)NCc2ccc(-n3cncn3)cc2)OCCO1
REMARK SMILES IDX 4 1 5 2 6 3 3 5 2 6 19 7 22 8 20 9 21 10 1 11 7 12 8 13 9 14
REMARK SMILES IDX 18 15 10 16 17 17 11 18 12 19 13 20 16 21 14 22 15 23
REMARK H PARENT 6 4
ROOT
ATOM      1  C   UNL     1       6.447  46.686  53.199  1.00  0.00     0.225 C 
ATOM      2  O   UNL     1       5.580  47.596  53.102  1.00  0.00    -0.275 OA
ATOM      3  N   UNL     1       6.503  45.634  52.226  1.00  0.00    -0.352 N 
ATOM      4  H   UNL     1       7.173  44.845  52.368  1.00  0.00     0.163 HD
ENDROOT
BRANCH   1   5
ATOM      5  C   UNL     1       7.449  46.737  54.317  1.00  0.00     0.165 C 
BRANCH   5   6
ATOM      6  C   UNL     1       8.861  47.133  53.831  1.00  0.00     0.174 C 
ATOM      7  O   UNL     1       9.549  45.975  53.402  1.00  0.00    -0.347 OA
ATOM      8  O   UNL     1       8.723  48.062  52.776  1.00  0.00    -0.347 OA
ATOM      9  C   UNL     1       9.970  46.238  52.102  1.00  0.00     0.192 C 
ATOM     10  C   UNL     1       9.170  47.411  51.631  1.00  0.00     0.192 C 
ATOM     11  C   UNL     1       9.666  47.799  54.955  1.00  0.00     0.076 C 
ENDBRANCH   5   6
ENDBRANCH   1   5
BRANCH   3  12
ATOM     12  C   UNL     1       5.737  45.676  50.983  1.00  0.00     0.151 C 
BRANCH  12  13
ATOM     13  C   UNL     1       4.409  44.998  51.178  1.00  0.00    -0.029 A 
ATOM     14  C   UNL     1       3.222  45.732  51.047  1.00  0.00     0.008 A 
ATOM     15  C   UNL     1       4.344  43.648  51.552  1.00  0.00     0.008 A 
ATOM     16  C   UNL     1       1.987  45.123  51.279  1.00  0.00     0.029 A 
ATOM     17  C   UNL     1       3.109  43.038  51.784  1.00  0.00     0.029 A 
ATOM     18  C   UNL     1       1.912  43.769  51.653  1.00  0.00     0.066 A 
BRANCH  18  19
ATOM     19  N   UNL     1       0.626  43.158  51.893  1.00  0.00    -0.221 N 
ATOM     20  C   UNL     1       0.263  42.352  52.911  1.00  0.00     0.225 A 
ATOM     21  N   UNL     1      -0.428  43.320  51.113  1.00  0.00    -0.155 NA
ATOM     22  N   UNL     1      -1.027  41.979  52.804  1.00  0.00    -0.223 NA
ATOM     23  C   UNL     1      -1.419  42.602  51.672  1.00  0.00     0.246 A 
ENDBRANCH  18  19
ENDBRANCH  12  13
ENDBRANCH   3  12
TORSDOF 5
ENDMDL
MODEL 4
REMARK VINA RESULT:    -7.476      3.718      7.488
REMARK INTER + INTRA:         -10.318
REMARK INTER:                  -9.416
REMARK INTRA:                  -0.902
REMARK UNBOUND:                -0.657
REMARK SMILES CC1(CC(=O)NCc2ccc(-n3cncn3)cc2)OCCO1
REMARK SMILES IDX 4 1 5 2 6 3 3 5 2 6 19 7 22 8 20 9 21 10 1 11 7 12 8 13 9 14
REMARK SMILES IDX 18 15 10 16 17 17 11 18 12 19 13 20 16 21 14 22 15 23
REMARK H PARENT 6 4
ROOT
ATOM      1  C   UNL     1       1.506  43.044  51.864  1.00  0.00     0.225 C 
ATOM      2  O   UNL     1       1.145  43.032  50.656  1.00  0.00    -0.275 OA
ATOM      3  N   UNL     1       2.888  43.223  52.204  1.00  0.00    -0.352 N 
ATOM      4  H   UNL     1       3.180  43.148  53.204  1.00  0.00     0.163 HD
ENDROOT
BRANCH   1   5
ATOM      5  C   UNL     1       0.472  42.913  52.945  1.00  0.00     0.165 C 
BRANCH   5   6
ATOM      6  C   UNL     1       0.037  44.279  53.520  1.00  0.00     0.174 C 
ATOM      7  O   UNL     1      -0.452  44.100  54.834  1.00  0.00    -0.347 OA
ATOM      8  O   UNL     1       1.156  45.141  53.508  1.00  0.00    -0.347 OA
ATOM      9  C   UNL     1       0.280  44.967  55.639  1.00  0.00     0.192 C 
ATOM     10  C   UNL     1       1.482  45.365  54.842  1.00  0.00     0.192 C 
ATOM     11  C   UNL     1      -1.067  44.914  52.664  1.00  0.00     0.076 C 
ENDBRANCH   5   6
ENDBRANCH   1   5
BRANCH   3  12
ATOM     12  C   UNL     1       3.891  43.618  51.219  1.00  0.00     0.151 C 
BRANCH  12  13
ATOM     13  C   UNL     1       4.973  44.424  51.884  1.00  0.00    -0.029 A 
ATOM     14  C   UNL     1       5.981  45.015  51.111  1.00  0.00     0.008 A 
ATOM     15  C   UNL     1       5.021  44.539  53.280  1.00  0.00     0.008 A 
ATOM     16  C   UNL     1       7.020  45.719  51.725  1.00  0.00     0.029 A 
ATOM     17  C   UNL     1       6.059  45.244  53.896  1.00  0.00     0.029 A 
ATOM     18  C   UNL     1       7.076  45.841  53.125  1.00  0.00     0.066 A 
BRANCH  18  19
ATOM     19  N   UNL     1       8.159  46.569  53.742  1.00  0.00    -0.221 N 
ATOM     20  C   UNL     1       9.482  46.442  53.519  1.00  0.00     0.225 A 
ATOM     21  N   UNL     1       7.993  47.515  54.649  1.00  0.00    -0.155 NA
ATOM     22  N   UNL     1      10.191  47.300  54.279  1.00  0.00    -0.223 NA
ATOM     23  C   UNL     1       9.228  47.947  54.967  1.00  0.00     0.246 A 
ENDBRANCH  18  19
ENDBRANCH  12  13
ENDBRANCH   3  12
TORSDOF 5
ENDMDL
MODEL 5
REMARK VINA RESULT:    -7.264      3.692      7.917
REMARK INTER + INTRA:         -10.044
REMARK INTER:                  -9.310
REMARK INTRA:                  -0.733
REMARK UNBOUND:                -0.657
REMARK SMILES CC1(CC(=O)NCc2ccc(-n3cncn3)cc2)OCCO1
REMARK SMILES IDX 4 1 5 2 6 3 3 5 2 6 19 7 22 8 20 9 21 10 1 11 7 12 8 13 9 14
REMARK SMILES IDX 18 15 10 16 17 17 11 18 12 19 13 20 16 21 14 22 15 23
REMARK H PARENT 6 4
ROOT
ATOM      1  C   UNL     1       1.771  44.454  53.430  1.00  0.00     0.225 C 
ATOM      2  O   UNL     1       2.485  43.544  52.929  1.00  0.00    -0.275 OA
ATOM      3  N   UNL     1       1.784  45.775  52.869  1.00  0.00    -0.352 N 
ATOM      4  H   UNL     1       1.252  46.536  53.347  1.00  0.00     0.163 HD
ENDROOT
BRANCH   1   5
ATOM      5  C   UNL     1       0.875  44.135  54.593  1.00  0.00     0.165 C 
BRANCH   5   6
ATOM      6  C   UNL     1      -0.558  43.764  54.152  1.00  0.00     0.174 C 
ATOM      7  O   UNL     1      -0.928  44.560  53.044  1.00  0.00    -0.347 OA
ATOM      8  O   UNL     1      -0.579  42.391  53.822  1.00  0.00    -0.347 OA
ATOM      9  C   UNL     1      -1.319  43.671  52.047  1.00  0.00     0.192 C 
ATOM     10  C   UNL     1      -0.791  42.330  52.448  1.00  0.00     0.192 C 
ATOM     11  C   UNL     1      -1.564  44.000  55.287  1.00  0.00     0.076 C 
ENDBRANCH   5   6
ENDBRANCH   1   5
BRANCH   3  12
ATOM     12  C   UNL     1       2.424  46.075  51.591  1.00  0.00     0.151 C 
BRANCH  12  13
ATOM     13  C   UNL     1       3.903  46.258  51.790  1.00  0.00    -0.029 A 
ATOM     14  C   UNL     1       4.809  45.587  50.958  1.00  0.00     0.008 A 
ATOM     15  C   UNL     1       4.390  47.047  52.842  1.00  0.00     0.008 A 
ATOM     16  C   UNL     1       6.185  45.709  51.170  1.00  0.00     0.029 A 
ATOM     17  C   UNL     1       5.766  47.170  53.055  1.00  0.00     0.029 A 
ATOM     18  C   UNL     1       6.683  46.499  52.222  1.00  0.00     0.066 A 
BRANCH  18  19
ATOM     19  N   UNL     1       8.107  46.610  52.428  1.00  0.00    -0.221 N 
ATOM     20  C   UNL     1       8.759  47.049  53.523  1.00  0.00     0.225 A 
ATOM     21  N   UNL     1       9.014  46.271  51.529  1.00  0.00    -0.155 NA
ATOM     22  N   UNL     1      10.095  47.002  53.349  1.00  0.00    -0.223 NA
ATOM     23  C   UNL     1      10.210  46.514  52.097  1.00  0.00     0.246 A 
ENDBRANCH  18  19
ENDBRANCH  12  13
ENDBRANCH   3  12
TORSDOF 5
ENDMDL
