MODEL 1
REMARK VINA RESULT:    -8.402      0.000      0.000
REMARK INTER + INTRA:         -10.350
REMARK INTER:                 -10.367
REMARK INTRA:                   0.017
REMARK UNBOUND:                 0.017
REMARK SMILES CCCNC(=O)C1CCN(C(=O)c2cccc(Cl)c2)CC1
REMARK SMILES IDX 4 1 5 2 6 3 3 5 2 6 1 7 7 8 8 9 21 10 9 11 20 12 10 13 11 14
REMARK SMILES IDX 12 15 13 16 14 17 19 18 15 19 17 20 16 21 18 22
REMARK H PARENT 4 4
ROOT
ATOM      1  N   UNL     1       4.634  40.820  47.229  1.00  0.00    -0.356 N 
ATOM      2  C   UNL     1       4.297  40.832  48.623  1.00  0.00     0.223 C 
ATOM      3  O   UNL     1       3.128  40.529  48.992  1.00  0.00    -0.275 OA
ATOM      4  H   UNL     1       5.592  41.124  46.942  1.00  0.00     0.163 HD
ENDROOT
BRANCH   1   5
ATOM      5  C   UNL     1       3.659  40.419  46.214  1.00  0.00     0.115 C 
BRANCH   5   6
ATOM      6  C   UNL     1       4.054  40.922  44.819  1.00  0.00     0.018 C 
ATOM      7  C   UNL     1       5.030  42.096  44.887  1.00  0.00     0.006 C 
ENDBRANCH   5   6
ENDBRANCH   1   5
BRANCH   2   8
ATOM      8  C   UNL     1       5.321  41.255  49.649  1.00  0.00     0.082 C 
ATOM      9  C   UNL     1       4.644  41.782  50.942  1.00  0.00     0.035 C 
ATOM     10  C   UNL     1       6.310  42.265  49.022  1.00  0.00     0.035 C 
ATOM     11  C   UNL     1       4.556  43.312  50.981  1.00  0.00     0.120 C 
ATOM     12  C   UNL     1       6.935  43.178  50.079  1.00  0.00     0.120 C 
ATOM     13  N   UNL     1       5.882  43.920  50.791  1.00  0.00    -0.339 N 
ATOM     14  C   UNL     1       6.076  45.301  51.153  1.00  0.00     0.253 C 
ATOM     15  O   UNL     1       5.098  46.098  51.101  1.00  0.00    -0.269 OA
BRANCH  14  16
ATOM     16  C   UNL     1       7.395  45.814  51.586  1.00  0.00     0.041 A 
ATOM     17  C   UNL     1       8.543  45.596  50.803  1.00  0.00     0.014 A 
ATOM     18  C   UNL     1       7.521  46.493  52.811  1.00  0.00     0.034 A 
ATOM     19  C   UNL     1       9.787  46.074  51.225  1.00  0.00     0.002 A 
ATOM     20  C   UNL     1       8.768  46.970  53.230  1.00  0.00     0.041 A 
ATOM     21  C   UNL     1       9.899  46.764  52.434  1.00  0.00     0.020 A 
ATOM     22  Cl  UNL     1       8.912  47.827  54.754  1.00  0.00    -0.084 Cl
ENDBRANCH  14  16
ENDBRANCH   2   8
TORSDOF 4
ENDMDL
MODEL 2
REMARK VINA RESULT:    -8.163      3.857      4.909
REMARK INTER + INTRA:         -10.055
REMARK INTER:                  -9.736
REMARK INTRA:                  -0.318
REMARK UNBOUND:                 0.017
REMARK SMILES CCCNC(=O)C1CCN(C(=O)c2cccc(Cl)c2)CC1
REMARK SMILES IDX 4 1 5 2 6 3 3 5 2 6 1 7 7 8 8 9 21 10 9 11 20 12 10 13 11 14
REMARK SMILES IDX 12 15 13 16 14 17 19 18 15 19 17 20 16 21 18 22
REMARK H PARENT 4 4
ROOT
ATOM      1  N   UNL     1       0.873  42.796  52.761  1.00  0.00    -0.356 N 
ATOM      2  C   UNL     1       1.892  43.592  52.143  1.00  0.00     0.223 C 
ATOM      3  O   UNL     1       1.633  44.243  51.092  1.00  0.00    -0.275 OA
ATOM      4  H   UNL     1       1.123  42.225  53.601  1.00  0.00     0.163 HD
ENDROOT
BRANCH   1   5
ATOM      5  C   UNL     1      -0.488  42.752  52.226  1.00  0.00     0.115 C 
BRANCH   5   6
ATOM      6  C   UNL     1      -1.450  43.614  53.055  1.00  0.00     0.018 C 
ATOM      7  C   UNL     1      -0.964  43.799  54.491  1.00  0.00     0.006 C 
ENDBRANCH   5   6
ENDBRANCH   1   5
BRANCH   2   8
ATOM      8  C   UNL     1       3.290  43.615  52.713  1.00  0.00     0.082 C 
ATOM      9  C   UNL     1       3.356  44.449  54.020  1.00  0.00     0.035 C 
ATOM     10  C   UNL     1       4.292  44.090  51.634  1.00  0.00     0.035 C 
ATOM     11  C   UNL     1       3.855  45.879  53.783  1.00  0.00     0.120 C 
ATOM     12  C   UNL     1       5.537  44.726  52.257  1.00  0.00     0.120 C 
ATOM     13  N   UNL     1       5.153  45.876  53.092  1.00  0.00    -0.339 N 
ATOM     14  C   UNL     1       5.954  47.074  53.102  1.00  0.00     0.253 C 
ATOM     15  O   UNL     1       5.386  48.197  53.189  1.00  0.00    -0.269 OA
BRANCH  14  16
ATOM     16  C   UNL     1       7.431  47.023  53.012  1.00  0.00     0.041 A 
ATOM     17  C   UNL     1       8.067  46.755  51.787  1.00  0.00     0.014 A 
ATOM     18  C   UNL     1       8.214  47.202  54.165  1.00  0.00     0.034 A 
ATOM     19  C   UNL     1       9.462  46.698  51.713  1.00  0.00     0.002 A 
ATOM     20  C   UNL     1       9.611  47.145  54.087  1.00  0.00     0.041 A 
ATOM     21  C   UNL     1      10.233  46.896  52.860  1.00  0.00     0.020 A 
ATOM     22  Cl  UNL     1      10.580  47.383  55.530  1.00  0.00    -0.084 Cl
ENDBRANCH  14  16
ENDBRANCH   2   8
TORSDOF 4
ENDMDL
MODEL 3
REMARK VINA RESULT:    -7.956      4.130      5.106
REMARK INTER + INTRA:          -9.800
REMARK INTER:                  -9.790
REMARK INTRA:                  -0.010
REMARK UNBOUND:                 0.017
REMARK SMILES CCCNC(=O)C1CCN(C(=O)c2cccc(Cl)c2)CC1
REMARK SMILES IDX 4 1 5 2 6 3 3 5 2 6 1 7 7 8 8 9 21 10 9 11 20 12 10 13 11 14
REMARK SMILES IDX 12 15 13 16 14 17 19 18 15 19 17 20 16 21 18 22
REMARK H PARENT 4 4
ROOT
ATOM      1  N   UNL     1       1.778  43.496  53.877  1.00  0.00    -0.356 N 
ATOM      2  C   UNL     1       1.642  44.864  54.285  1.00  0.00     0.223 C 
ATOM      3  O   UNL     1       0.497  45.345  54.507  1.00  0.00    -0.275 OA
ATOM      4  H   UNL     1       2.732  43.132  53.650  1.00  0.00     0.163 HD
ENDROOT
BRANCH   1   5
ATOM      5  C   UNL     1       0.612  42.620  53.752  1.00  0.00     0.115 C 
BRANCH   5   6
ATOM      6  C   UNL     1       0.270  42.340  52.283  1.00  0.00     0.018 C 
ATOM      7  C   UNL     1       1.205  43.076  51.324  1.00  0.00     0.006 C 
ENDBRANCH   5   6
ENDBRANCH   1   5
BRANCH   2   8
ATOM      8  C   UNL     1       2.862  45.747  54.402  1.00  0.00     0.082 C 
ATOM      9  C   UNL     1       2.920  46.789  53.254  1.00  0.00     0.035 C 
ATOM     10  C   UNL     1       4.136  44.876  54.502  1.00  0.00     0.035 C 
ATOM     11  C   UNL     1       3.836  46.351  52.105  1.00  0.00     0.120 C 
ATOM     12  C   UNL     1       5.374  45.623  54.001  1.00  0.00     0.120 C 
ATOM     13  N   UNL     1       5.185  46.033  52.600  1.00  0.00    -0.339 N 
ATOM     14  C   UNL     1       6.275  45.958  51.661  1.00  0.00     0.253 C 
ATOM     15  O   UNL     1       6.041  45.628  50.466  1.00  0.00    -0.269 OA
BRANCH  14  16
ATOM     16  C   UNL     1       7.668  46.260  52.061  1.00  0.00     0.041 A 
ATOM     17  C   UNL     1       8.751  45.817  51.282  1.00  0.00     0.014 A 
ATOM     18  C   UNL     1       7.923  46.963  53.252  1.00  0.00     0.034 A 
ATOM     19  C   UNL     1      10.064  46.098  51.672  1.00  0.00     0.002 A 
ATOM     20  C   UNL     1       9.239  47.242  53.640  1.00  0.00     0.041 A 
ATOM     21  C   UNL     1      10.308  46.812  52.847  1.00  0.00     0.020 A 
ATOM     22  Cl  UNL     1       9.547  48.129  55.121  1.00  0.00    -0.084 Cl
ENDBRANCH  14  16
ENDBRANCH   2   8
TORSDOF 4
ENDMDL
MODEL 4
REMARK VINA RESULT:    -7.945      4.359      6.165
REMARK INTER + INTRA:          -9.787
REMARK INTER:                  -9.478
REMARK INTRA:                  -0.308
REMARK UNBOUND:                 0.017
REMARK SMILES CCCNC(=O)C1CCN(C(=O)c2cccc(Cl)c2)CC1
REMARK SMILES IDX 4 1 5 2 6 3 3 5 2 6 1 7 7 8 8 9 21 10 9 11 20 12 10 13 11 14
REMARK SMILES IDX 12 15 13 16 14 17 19 18 15 19 17 20 16 21 18 22
REMARK H PARENT 4 4
ROOT
ATOM      1  N   UNL     1       0.361  44.874  53.987  1.00  0.00    -0.356 N 
ATOM      2  C   UNL     1       0.383  45.371  52.642  1.00  0.00     0.223 C 
ATOM      3  O   UNL     1      -0.701  45.575  52.028  1.00  0.00    -0.275 OA
ATOM      4  H   UNL     1       1.270  44.665  54.459  1.00  0.00     0.163 HD
ENDROOT
BRANCH   1   5
ATOM      5  C   UNL     1      -0.900  44.636  54.690  1.00  0.00     0.115 C 
BRANCH   5   6
ATOM      6  C   UNL     1      -0.789  44.975  56.182  1.00  0.00     0.018 C 
ATOM      7  C   UNL     1       0.592  45.518  56.547  1.00  0.00     0.006 C 
ENDBRANCH   5   6
ENDBRANCH   1   5
BRANCH   2   8
ATOM      8  C   UNL     1       1.698  45.604  51.939  1.00  0.00     0.082 C 
ATOM      9  C   UNL     1       2.487  44.281  51.755  1.00  0.00     0.035 C 
ATOM     10  C   UNL     1       2.504  46.699  52.677  1.00  0.00     0.035 C 
ATOM     11  C   UNL     1       3.554  44.074  52.836  1.00  0.00     0.120 C 
ATOM     12  C   UNL     1       4.010  46.550  52.442  1.00  0.00     0.120 C 
ATOM     13  N   UNL     1       4.465  45.228  52.903  1.00  0.00    -0.339 N 
ATOM     14  C   UNL     1       5.729  45.083  53.578  1.00  0.00     0.253 C 
ATOM     15  O   UNL     1       5.835  44.250  54.520  1.00  0.00    -0.269 OA
BRANCH  14  16
ATOM     16  C   UNL     1       6.912  45.888  53.197  1.00  0.00     0.041 A 
ATOM     17  C   UNL     1       7.243  46.081  51.844  1.00  0.00     0.014 A 
ATOM     18  C   UNL     1       7.742  46.435  54.191  1.00  0.00     0.034 A 
ATOM     19  C   UNL     1       8.368  46.833  51.493  1.00  0.00     0.002 A 
ATOM     20  C   UNL     1       8.868  47.188  53.835  1.00  0.00     0.041 A 
ATOM     21  C   UNL     1       9.177  47.389  52.487  1.00  0.00     0.020 A 
ATOM     22  Cl  UNL     1       9.891  47.877  55.082  1.00  0.00    -0.084 Cl
ENDBRANCH  14  16
ENDBRANCH   2   8
TORSDOF 4
ENDMDL
MODEL 5
REMARK VINA RESULT:    -7.813      4.885      8.270
REMARK INTER + INTRA:          -9.623
REMARK INTER:                  -9.279
REMARK INTRA:                  -0.344
REMARK UNBOUND:                 0.017
REMARK SMILES CCCNC(=O)C1CCN(C(=O)c2cccc(Cl)c2)CC1
REMARK SMILES IDX 4 1 5 2 6 3 3 5 2 6 1 7 7 8 8 9 21 10 9 11 20 12 10 13 11 14
REMARK SMILES IDX 12 15 13 16 14 17 19 18 15 19 17 20 16 21 18 22
REMARK H PARENT 4 4
ROOT
ATOM      1  N   UNL     1       7.619  46.207  52.168  1.00  0.00    -0.356 N 
ATOM      2  C   UNL     1       6.734  47.198  52.707  1.00  0.00     0.223 C 
ATOM      3  O   UNL     1       7.061  48.416  52.683  1.00  0.00    -0.275 OA
ATOM      4  H   UNL     1       7.350  45.199  52.243  1.00  0.00     0.163 HD
ENDROOT
BRANCH   1   5
ATOM      5  C   UNL     1       8.889  46.580  51.544  1.00  0.00     0.115 C 
BRANCH   5   6
ATOM      6  C   UNL     1      10.082  46.266  52.456  1.00  0.00     0.018 C 
ATOM      7  C   UNL     1       9.909  46.860  53.853  1.00  0.00     0.006 C 
ENDBRANCH   5   6
ENDBRANCH   1   5
BRANCH   2   8
ATOM      8  C   UNL     1       5.431  46.784  53.349  1.00  0.00     0.082 C 
ATOM      9  C   UNL     1       5.592  45.479  54.171  1.00  0.00     0.035 C 
ATOM     10  C   UNL     1       4.319  46.699  52.278  1.00  0.00     0.035 C 
ATOM     11  C   UNL     1       5.147  44.233  53.396  1.00  0.00     0.120 C 
ATOM     12  C   UNL     1       3.209  45.728  52.689  1.00  0.00     0.120 C 
ATOM     13  N   UNL     1       3.768  44.384  52.907  1.00  0.00    -0.339 N 
ATOM     14  C   UNL     1       3.044  43.212  52.482  1.00  0.00     0.253 C 
ATOM     15  O   UNL     1       3.681  42.225  52.022  1.00  0.00    -0.269 OA
BRANCH  14  16
ATOM     16  C   UNL     1       1.569  43.134  52.572  1.00  0.00     0.041 A 
ATOM     17  C   UNL     1       0.931  42.991  53.817  1.00  0.00     0.014 A 
ATOM     18  C   UNL     1       0.789  43.162  51.402  1.00  0.00     0.034 A 
ATOM     19  C   UNL     1      -0.463  42.907  53.891  1.00  0.00     0.002 A 
ATOM     20  C   UNL     1      -0.606  43.078  51.481  1.00  0.00     0.041 A 
ATOM     21  C   UNL     1      -1.230  42.955  52.726  1.00  0.00     0.020 A 
ATOM     22  Cl  UNL     1      -1.571  43.127  50.017  1.00  0.00    -0.084 Cl
ENDBRANCH  14  16
ENDBRANCH   2   8
TORSDOF 4
ENDMDL
