ligand_31_conformer_3_docked
     RDKit          3D

 48 51  0  0  0  0  0  0  0  0999 V2000
    5.7360   44.9490   55.6900 C   0  0  0  0  0  0  0  0  0  0  0  0
    5.3880   44.8390   54.2050 C   0  0  0  0  0  0  0  0  0  0  0  0
    5.1010   46.2170   53.5590 C   0  0  1  0  0  0  0  0  0  0  0  0
    6.1780   47.2630   53.8940 C   0  0  0  0  0  0  0  0  0  0  0  0
    7.4780   46.9220   53.2290 C   0  0  0  0  0  0  0  0  0  0  0  0
    8.6970   47.2240   53.8550 C   0  0  0  0  0  0  0  0  0  0  0  0
    9.9050   46.9160   53.2230 C   0  0  0  0  0  0  0  0  0  0  0  0
    9.9010   46.3190   51.9610 C   0  0  0  0  0  0  0  0  0  0  0  0
    8.6910   46.0300   51.3270 C   0  0  0  0  0  0  0  0  0  0  0  0
    7.4710   46.3230   51.9570 C   0  0  0  0  0  0  0  0  0  0  0  0
    6.1760   46.0510   51.2280 C   0  0  0  0  0  0  0  0  0  0  0  0
    4.9790   46.0710   52.0950 N   0  0  0  0  0  0  0  0  0  0  0  0
    3.6940   45.8620   51.4570 C   0  0  0  0  0  0  0  0  0  0  0  0
    3.4550   46.4310   50.3550 O   0  0  0  0  0  0  0  0  0  0  0  0
    2.5990   45.0050   52.0670 C   0  0  2  0  0  0  0  0  0  0  0  0
    2.0900   43.9590   51.0420 C   0  0  0  0  0  0  0  0  0  0  0  0
    1.4830   42.6760   51.6760 C   0  0  0  0  0  0  0  0  0  0  0  0
    0.4220   42.9200   52.7190 C   0  0  0  0  0  0  0  0  0  0  0  0
   -0.0680   41.9450   53.5100 N   0  0  0  0  0  0  0  0  0  0  0  0
   -0.9760   42.5030   54.2990 N   0  0  0  0  0  0  0  0  0  0  0  0
   -1.0320   43.8100   53.9770 C   0  0  0  0  0  0  0  0  0  0  0  0
   -0.1700   44.1000   52.9880 N   0  0  0  0  0  0  0  0  0  0  0  0
    0.0390   45.3940   52.3450 C   0  0  0  0  0  0  0  0  0  0  0  0
    1.4620   45.9220   52.5910 C   0  0  0  0  0  0  0  0  0  0  0  0
    4.8592   44.6718   56.2936 H   0  0  0  0  0  0  0  0  0  0  0  0
    6.5703   44.2708   55.9223 H   0  0  0  0  0  0  0  0  0  0  0  0
    6.0289   45.9835   55.9223 H   0  0  0  0  0  0  0  0  0  0  0  0
    6.2332   44.3718   53.6784 H   0  0  0  0  0  0  0  0  0  0  0  0
    4.4737   44.2334   54.1202 H   0  0  0  0  0  0  0  0  0  0  0  0
    4.1526   46.5816   53.9804 H   0  0  0  0  0  0  0  0  0  0  0  0
    5.8425   48.2505   53.5444 H   0  0  0  0  0  0  0  0  0  0  0  0
    6.3318   47.2737   54.9831 H   0  0  0  0  0  0  0  0  0  0  0  0
    8.7019   47.7039   54.8448 H   0  0  0  0  0  0  0  0  0  0  0  0
   10.8593   47.1441   53.7202 H   0  0  0  0  0  0  0  0  0  0  0  0
   10.8525   46.0759   51.4654 H   0  0  0  0  0  0  0  0  0  0  0  0
    8.6936   45.5699   50.3278 H   0  0  0  0  0  0  0  0  0  0  0  0
    6.0508   46.8173   50.4488 H   0  0  0  0  0  0  0  0  0  0  0  0
    6.2519   45.0339   50.8159 H   0  0  0  0  0  0  0  0  0  0  0  0
    2.9992   44.4389   52.9210 H   0  0  0  0  0  0  0  0  0  0  0  0
    1.3161   44.4346   50.4216 H   0  0  0  0  0  0  0  0  0  0  0  0
    2.9678   43.6361   50.4631 H   0  0  0  0  0  0  0  0  0  0  0  0
    1.0368   42.0755   50.8696 H   0  0  0  0  0  0  0  0  0  0  0  0
    2.3105   42.1681   52.1930 H   0  0  0  0  0  0  0  0  0  0  0  0
   -1.6955   44.5426   54.4598 H   0  0  0  0  0  0  0  0  0  0  0  0
   -0.1195   45.2848   51.2620 H   0  0  0  0  0  0  0  0  0  0  0  0
   -0.6748   46.1123   52.7747 H   0  0  0  0  0  0  0  0  0  0  0  0
    1.5546   46.8990   52.0941 H   0  0  0  0  0  0  0  0  0  0  0  0
    1.5869   45.9750   53.6826 H   0  0  0  0  0  0  0  0  0  0  0  0
  1  2  1  0
  2  3  1  0
  3  4  1  0
  4  5  1  0
  5  6  2  0
  6  7  1  0
  7  8  2  0
  8  9  1  0
  9 10  2  0
 10 11  1  0
 11 12  1  0
 12 13  1  0
 13 14  2  0
 13 15  1  0
 15 16  1  0
 16 17  1  0
 17 18  1  0
 18 19  2  0
 19 20  1  0
 20 21  2  0
 21 22  1  0
 22 23  1  0
 23 24  1  0
 12  3  1  0
 24 15  1  0
 10  5  1  0
 22 18  1  0
  1 25  1  0
  1 26  1  0
  1 27  1  0
  2 28  1  0
  2 29  1  0
  3 30  1  1
  4 31  1  0
  4 32  1  0
  6 33  1  0
  7 34  1  0
  8 35  1  0
  9 36  1  0
 11 37  1  0
 11 38  1  0
 15 39  1  1
 16 40  1  0
 16 41  1  0
 17 42  1  0
 17 43  1  0
 21 44  1  0
 23 45  1  0
 23 46  1  0
 24 47  1  0
 24 48  1  0
M  END
>  <meeko>  (1) 
{"is_sidechain": [false], "free_energy": -7.365, "intermolecular_energy": -10.809, "internal_energy": -0.161}

$$$$
ligand_31_conformer_3_docked
     RDKit          3D

 48 51  0  0  0  0  0  0  0  0999 V2000
    8.4970   46.4670   53.7090 C   0  0  0  0  0  0  0  0  0  0  0  0
    7.1490   45.7580   53.8420 C   0  0  0  0  0  0  0  0  0  0  0  0
    6.0560   46.3880   52.9430 C   0  0  1  0  0  0  0  0  0  0  0  0
    6.5210   46.5760   51.4890 C   0  0  0  0  0  0  0  0  0  0  0  0
    6.6950   45.2510   50.8090 C   0  0  0  0  0  0  0  0  0  0  0  0
    7.6970   45.0730   49.8420 C   0  0  0  0  0  0  0  0  0  0  0  0
    7.8440   43.8400   49.2030 C   0  0  0  0  0  0  0  0  0  0  0  0
    6.9850   42.7840   49.5140 C   0  0  0  0  0  0  0  0  0  0  0  0
    5.9770   42.9590   50.4640 C   0  0  0  0  0  0  0  0  0  0  0  0
    5.8270   44.1900   51.1230 C   0  0  0  0  0  0  0  0  0  0  0  0
    4.6950   44.3710   52.1070 C   0  0  0  0  0  0  0  0  0  0  0  0
    4.8360   45.5580   52.9780 N   0  0  0  0  0  0  0  0  0  0  0  0
    3.7640   45.8210   53.9180 C   0  0  0  0  0  0  0  0  0  0  0  0
    3.9970   46.5330   54.9340 O   0  0  0  0  0  0  0  0  0  0  0  0
    2.3640   45.2560   53.7530 C   0  0  2  0  0  0  0  0  0  0  0  0
    1.5810   46.0460   52.6720 C   0  0  0  0  0  0  0  0  0  0  0  0
    0.4790   45.2250   51.9660 C   0  0  0  0  0  0  0  0  0  0  0  0
    0.0130   43.9980   52.7070 C   0  0  0  0  0  0  0  0  0  0  0  0
   -0.3580   42.8610   52.0860 N   0  0  0  0  0  0  0  0  0  0  0  0
   -0.7090   41.9990   53.0300 N   0  0  0  0  0  0  0  0  0  0  0  0
   -0.5530   42.6200   54.2140 C   0  0  0  0  0  0  0  0  0  0  0  0
   -0.1050   43.8760   54.0440 N   0  0  0  0  0  0  0  0  0  0  0  0
    0.1560   44.8730   55.0780 C   0  0  0  0  0  0  0  0  0  0  0  0
    1.6440   45.2580   55.1270 C   0  0  0  0  0  0  0  0  0  0  0  0
    8.9001   46.6790   54.7103 H   0  0  0  0  0  0  0  0  0  0  0  0
    9.1985   45.8211   53.1605 H   0  0  0  0  0  0  0  0  0  0  0  0
    8.3623   47.4109   53.1605 H   0  0  0  0  0  0  0  0  0  0  0  0
    7.2756   44.7032   53.5568 H   0  0  0  0  0  0  0  0  0  0  0  0
    6.8206   45.8578   54.8871 H   0  0  0  0  0  0  0  0  0  0  0  0
    5.8417   47.3887   53.3463 H   0  0  0  0  0  0  0  0  0  0  0  0
    5.7691   47.1651   50.9434 H   0  0  0  0  0  0  0  0  0  0  0  0
    7.4886   47.0992   51.4936 H   0  0  0  0  0  0  0  0  0  0  0  0
    8.3679   45.9066   49.5870 H   0  0  0  0  0  0  0  0  0  0  0  0
    8.6373   43.7005   48.4539 H   0  0  0  0  0  0  0  0  0  0  0  0
    7.1026   41.8133   49.0100 H   0  0  0  0  0  0  0  0  0  0  0  0
    5.2960   42.1274   50.6978 H   0  0  0  0  0  0  0  0  0  0  0  0
    3.7570   44.4676   51.5405 H   0  0  0  0  0  0  0  0  0  0  0  0
    4.7042   43.4907   52.7665 H   0  0  0  0  0  0  0  0  0  0  0  0
    2.4196   44.2149   53.4022 H   0  0  0  0  0  0  0  0  0  0  0  0
    1.1094   46.9155   53.1532 H   0  0  0  0  0  0  0  0  0  0  0  0
    2.3088   46.3319   51.8983 H   0  0  0  0  0  0  0  0  0  0  0  0
   -0.3905   45.8819   51.8164 H   0  0  0  0  0  0  0  0  0  0  0  0
    0.9249   44.8620   51.0282 H   0  0  0  0  0  0  0  0  0  0  0  0
   -0.7641   42.1607   55.1910 H   0  0  0  0  0  0  0  0  0  0  0  0
   -0.4393   45.7732   54.8649 H   0  0  0  0  0  0  0  0  0  0  0  0
   -0.1211   44.4415   56.0512 H   0  0  0  0  0  0  0  0  0  0  0  0
    1.7215   46.2696   55.5521 H   0  0  0  0  0  0  0  0  0  0  0  0
    2.1417   44.4902   55.7376 H   0  0  0  0  0  0  0  0  0  0  0  0
  1  2  1  0
  2  3  1  0
  3  4  1  0
  4  5  1  0
  5  6  2  0
  6  7  1  0
  7  8  2  0
  8  9  1  0
  9 10  2  0
 10 11  1  0
 11 12  1  0
 12 13  1  0
 13 14  2  0
 13 15  1  0
 15 16  1  0
 16 17  1  0
 17 18  1  0
 18 19  2  0
 19 20  1  0
 20 21  2  0
 21 22  1  0
 22 23  1  0
 23 24  1  0
 12  3  1  0
 24 15  1  0
 10  5  1  0
 22 18  1  0
  1 25  1  0
  1 26  1  0
  1 27  1  0
  2 28  1  0
  2 29  1  0
  3 30  1  1
  4 31  1  0
  4 32  1  0
  6 33  1  0
  7 34  1  0
  8 35  1  0
  9 36  1  0
 11 37  1  0
 11 38  1  0
 15 39  1  6
 16 40  1  0
 16 41  1  0
 17 42  1  0
 17 43  1  0
 21 44  1  0
 23 45  1  0
 23 46  1  0
 24 47  1  0
 24 48  1  0
M  END
>  <meeko>  (2) 
{"is_sidechain": [false], "free_energy": -6.949, "intermolecular_energy": -10.045, "internal_energy": -0.314}

$$$$
ligand_31_conformer_3_docked
     RDKit          3D

 48 51  0  0  0  0  0  0  0  0999 V2000
    5.5420   45.8530   55.2310 C   0  0  0  0  0  0  0  0  0  0  0  0
    6.1850   45.5530   53.8770 C   0  0  0  0  0  0  0  0  0  0  0  0
    5.8600   46.6310   52.8140 C   0  0  1  0  0  0  0  0  0  0  0  0
    7.0180   46.8580   51.8280 C   0  0  0  0  0  0  0  0  0  0  0  0
    7.2090   45.6620   50.9440 C   0  0  0  0  0  0  0  0  0  0  0  0
    8.4910   45.3010   50.5030 C   0  0  0  0  0  0  0  0  0  0  0  0
    8.6600   44.1940   49.6690 C   0  0  0  0  0  0  0  0  0  0  0  0
    7.5520   43.4500   49.2610 C   0  0  0  0  0  0  0  0  0  0  0  0
    6.2710   43.8130   49.6840 C   0  0  0  0  0  0  0  0  0  0  0  0
    6.0890   44.9170   50.5330 C   0  0  0  0  0  0  0  0  0  0  0  0
    4.6910   45.3220   50.9330 C   0  0  0  0  0  0  0  0  0  0  0  0
    4.6360   46.2570   52.0770 N   0  0  0  0  0  0  0  0  0  0  0  0
    3.3270   46.7250   52.4890 C   0  0  0  0  0  0  0  0  0  0  0  0
    3.1490   47.9600   52.6840 O   0  0  0  0  0  0  0  0  0  0  0  0
    2.1540   45.7910   52.7260 C   0  0  2  0  0  0  0  0  0  0  0  0
    2.5060   44.7340   53.8040 C   0  0  0  0  0  0  0  0  0  0  0  0
    1.2710   44.1620   54.5510 C   0  0  0  0  0  0  0  0  0  0  0  0
    0.2100   43.5600   53.6650 C   0  0  0  0  0  0  0  0  0  0  0  0
   -0.9820   43.1360   54.1300 N   0  0  0  0  0  0  0  0  0  0  0  0
   -1.6600   42.6660   53.0920 N   0  0  0  0  0  0  0  0  0  0  0  0
   -0.8730   42.8040   52.0080 C   0  0  0  0  0  0  0  0  0  0  0  0
    0.3060   43.3580   52.3360 N   0  0  0  0  0  0  0  0  0  0  0  0
    1.4320   43.6400   51.4490 C   0  0  0  0  0  0  0  0  0  0  0  0
    1.7310   45.1470   51.3800 C   0  0  0  0  0  0  0  0  0  0  0  0
    6.2202   45.5366   56.0371 H   0  0  0  0  0  0  0  0  0  0  0  0
    5.3513   46.9331   55.3151 H   0  0  0  0  0  0  0  0  0  0  0  0
    4.5918   45.3052   55.3151 H   0  0  0  0  0  0  0  0  0  0  0  0
    7.2761   45.5043   54.0078 H   0  0  0  0  0  0  0  0  0  0  0  0
    5.7774   44.5964   53.5182 H   0  0  0  0  0  0  0  0  0  0  0  0
    5.7015   47.5784   53.3501 H   0  0  0  0  0  0  0  0  0  0  0  0
    6.7929   47.7353   51.2037 H   0  0  0  0  0  0  0  0  0  0  0  0
    7.9418   47.0224   52.4020 H   0  0  0  0  0  0  0  0  0  0  0  0
    9.3651   45.8915   50.8150 H   0  0  0  0  0  0  0  0  0  0  0  0
    9.6677   43.9080   49.3331 H   0  0  0  0  0  0  0  0  0  0  0  0
    7.6875   42.5769   48.6057 H   0  0  0  0  0  0  0  0  0  0  0  0
    5.3996   43.2306   49.3501 H   0  0  0  0  0  0  0  0  0  0  0  0
    4.2110   45.8050   50.0691 H   0  0  0  0  0  0  0  0  0  0  0  0
    4.1737   44.4041   51.2491 H   0  0  0  0  0  0  0  0  0  0  0  0
    1.2960   46.3596   53.1138 H   0  0  0  0  0  0  0  0  0  0  0  0
    3.0308   43.9008   53.3137 H   0  0  0  0  0  0  0  0  0  0  0  0
    3.1281   45.2405   54.5567 H   0  0  0  0  0  0  0  0  0  0  0  0
    1.6220   43.3808   55.2414 H   0  0  0  0  0  0  0  0  0  0  0  0
    0.7979   45.0153   55.0590 H   0  0  0  0  0  0  0  0  0  0  0  0
   -1.1578   42.5030   50.9890 H   0  0  0  0  0  0  0  0  0  0  0  0
    2.3230   43.1156   51.8246 H   0  0  0  0  0  0  0  0  0  0  0  0
    1.1707   43.2932   50.4383 H   0  0  0  0  0  0  0  0  0  0  0  0
    2.5453   45.3011   50.6567 H   0  0  0  0  0  0  0  0  0  0  0  0
    0.7899   45.6352   51.0867 H   0  0  0  0  0  0  0  0  0  0  0  0
  1  2  1  0
  2  3  1  0
  3  4  1  0
  4  5  1  0
  5  6  2  0
  6  7  1  0
  7  8  2  0
  8  9  1  0
  9 10  2  0
 10 11  1  0
 11 12  1  0
 12 13  1  0
 13 14  2  0
 13 15  1  0
 15 16  1  0
 16 17  1  0
 17 18  1  0
 18 19  2  0
 19 20  1  0
 20 21  2  0
 21 22  1  0
 22 23  1  0
 23 24  1  0
 12  3  1  0
 24 15  1  0
 10  5  1  0
 22 18  1  0
  1 25  1  0
  1 26  1  0
  1 27  1  0
  2 28  1  0
  2 29  1  0
  3 30  1  1
  4 31  1  0
  4 32  1  0
  6 33  1  0
  7 34  1  0
  8 35  1  0
  9 36  1  0
 11 37  1  0
 11 38  1  0
 15 39  1  1
 16 40  1  0
 16 41  1  0
 17 42  1  0
 17 43  1  0
 21 44  1  0
 23 45  1  0
 23 46  1  0
 24 47  1  0
 24 48  1  0
M  END
>  <meeko>  (3) 
{"is_sidechain": [false], "free_energy": -6.947, "intermolecular_energy": -10.655, "internal_energy": 0.298}

$$$$
ligand_31_conformer_3_docked
     RDKit          3D

 48 51  0  0  0  0  0  0  0  0999 V2000
    7.4940   46.3820   53.5670 C   0  0  0  0  0  0  0  0  0  0  0  0
    6.2020   45.6110   53.2980 C   0  0  0  0  0  0  0  0  0  0  0  0
    5.4300   46.1560   52.0710 C   0  0  1  0  0  0  0  0  0  0  0  0
    6.0480   45.7090   50.7350 C   0  0  0  0  0  0  0  0  0  0  0  0
    5.8660   44.2350   50.5300 C   0  0  0  0  0  0  0  0  0  0  0  0
    6.8420   43.4850   49.8570 C   0  0  0  0  0  0  0  0  0  0  0  0
    6.6600   42.1140   49.6580 C   0  0  0  0  0  0  0  0  0  0  0  0
    5.4980   41.4900   50.1160 C   0  0  0  0  0  0  0  0  0  0  0  0
    4.5160   42.2330   50.7730 C   0  0  0  0  0  0  0  0  0  0  0  0
    4.6940   43.6090   50.9910 C   0  0  0  0  0  0  0  0  0  0  0  0
    3.5940   44.4030   51.6560 C   0  0  0  0  0  0  0  0  0  0  0  0
    4.0170   45.7350   52.1380 N   0  0  0  0  0  0  0  0  0  0  0  0
    3.0020   46.5730   52.7480 C   0  0  0  0  0  0  0  0  0  0  0  0
    2.9520   47.7980   52.4460 O   0  0  0  0  0  0  0  0  0  0  0  0
    2.0010   46.0500   53.7620 C   0  0  2  0  0  0  0  0  0  0  0  0
    2.7240   45.2680   54.8900 C   0  0  0  0  0  0  0  0  0  0  0  0
    1.9970   45.3150   56.2420 C   0  0  0  0  0  0  0  0  0  0  0  0
    0.5030   45.1190   56.1880 C   0  0  0  0  0  0  0  0  0  0  0  0
   -0.3180   45.4520   57.2040 N   0  0  0  0  0  0  0  0  0  0  0  0
   -1.5510   45.1460   56.8240 N   0  0  0  0  0  0  0  0  0  0  0  0
   -1.4670   44.6260   55.5840 C   0  0  0  0  0  0  0  0  0  0  0  0
   -0.1920   44.5930   55.1600 N   0  0  0  0  0  0  0  0  0  0  0  0
    0.3080   44.0750   53.8900 C   0  0  0  0  0  0  0  0  0  0  0  0
    0.9350   45.1890   53.0350 C   0  0  0  0  0  0  0  0  0  0  0  0
    7.6472   46.4734   54.6524 H   0  0  0  0  0  0  0  0  0  0  0  0
    8.3426   45.8425   53.1211 H   0  0  0  0  0  0  0  0  0  0  0  0
    7.4221   47.3850   53.1211 H   0  0  0  0  0  0  0  0  0  0  0  0
    6.4525   44.5554   53.1166 H   0  0  0  0  0  0  0  0  0  0  0  0
    5.5539   45.7275   54.1791 H   0  0  0  0  0  0  0  0  0  0  0  0
    5.4976   47.2533   52.1074 H   0  0  0  0  0  0  0  0  0  0  0  0
    5.5583   46.2506   49.9122 H   0  0  0  0  0  0  0  0  0  0  0  0
    7.1251   45.9318   50.7531 H   0  0  0  0  0  0  0  0  0  0  0  0
    7.7526   43.9774   49.4851 H   0  0  0  0  0  0  0  0  0  0  0  0
    7.4324   41.5262   49.1404 H   0  0  0  0  0  0  0  0  0  0  0  0
    5.3562   40.4106   49.9587 H   0  0  0  0  0  0  0  0  0  0  0  0
    3.5976   41.7382   51.1220 H   0  0  0  0  0  0  0  0  0  0  0  0
    2.7801   44.5413   50.9291 H   0  0  0  0  0  0  0  0  0  0  0  0
    3.2806   43.8304   52.5414 H   0  0  0  0  0  0  0  0  0  0  0  0
    1.4842   46.8924   54.2449 H   0  0  0  0  0  0  0  0  0  0  0  0
    2.8129   44.2162   54.5806 H   0  0  0  0  0  0  0  0  0  0  0  0
    3.7027   45.7485   55.0360 H   0  0  0  0  0  0  0  0  0  0  0  0
    2.4187   44.5245   56.8802 H   0  0  0  0  0  0  0  0  0  0  0  0
    2.1522   46.3323   56.6307 H   0  0  0  0  0  0  0  0  0  0  0  0
   -2.3280   44.2749   54.9963 H   0  0  0  0  0  0  0  0  0  0  0  0
    1.0699   43.3077   54.0920 H   0  0  0  0  0  0  0  0  0  0  0  0
   -0.5395   43.6482   53.3335 H   0  0  0  0  0  0  0  0  0  0  0  0
    1.4119   44.7213   52.1610 H   0  0  0  0  0  0  0  0  0  0  0  0
    0.1150   45.8727   52.7704 H   0  0  0  0  0  0  0  0  0  0  0  0
  1  2  1  0
  2  3  1  0
  3  4  1  0
  4  5  1  0
  5  6  2  0
  6  7  1  0
  7  8  2  0
  8  9  1  0
  9 10  2  0
 10 11  1  0
 11 12  1  0
 12 13  1  0
 13 14  2  0
 13 15  1  0
 15 16  1  0
 16 17  1  0
 17 18  1  0
 18 19  2  0
 19 20  1  0
 20 21  2  0
 21 22  1  0
 22 23  1  0
 23 24  1  0
 12  3  1  0
 24 15  1  0
 10  5  1  0
 22 18  1  0
  1 25  1  0
  1 26  1  0
  1 27  1  0
  2 28  1  0
  2 29  1  0
  3 30  1  6
  4 31  1  0
  4 32  1  0
  6 33  1  0
  7 34  1  0
  8 35  1  0
  9 36  1  0
 11 37  1  0
 11 38  1  0
 15 39  1  1
 16 40  1  0
 16 41  1  0
 17 42  1  0
 17 43  1  0
 21 44  1  0
 23 45  1  0
 23 46  1  0
 24 47  1  0
 24 48  1  0
M  END
>  <meeko>  (4) 
{"is_sidechain": [false], "free_energy": -6.854, "intermolecular_energy": -10.405, "internal_energy": 0.185}

$$$$
ligand_31_conformer_3_docked
     RDKit          3D

 48 51  0  0  0  0  0  0  0  0999 V2000
    5.4550   45.4880   55.2710 C   0  0  0  0  0  0  0  0  0  0  0  0
    5.2250   44.6210   54.0340 C   0  0  0  0  0  0  0  0  0  0  0  0
    4.3580   45.3300   52.9640 C   0  0  1  0  0  0  0  0  0  0  0  0
    5.2010   46.1040   51.9370 C   0  0  0  0  0  0  0  0  0  0  0  0
    5.9790   45.1620   51.0680 C   0  0  0  0  0  0  0  0  0  0  0  0
    7.2500   45.5190   50.5900 C   0  0  0  0  0  0  0  0  0  0  0  0
    7.9620   44.6420   49.7690 C   0  0  0  0  0  0  0  0  0  0  0  0
    7.4070   43.4130   49.4100 C   0  0  0  0  0  0  0  0  0  0  0  0
    6.1370   43.0580   49.8690 C   0  0  0  0  0  0  0  0  0  0  0  0
    5.4150   43.9250   50.7050 C   0  0  0  0  0  0  0  0  0  0  0  0
    4.0220   43.5430   51.1450 C   0  0  0  0  0  0  0  0  0  0  0  0
    3.5040   44.3430   52.2750 N   0  0  0  0  0  0  0  0  0  0  0  0
    2.1530   44.0630   52.7220 C   0  0  0  0  0  0  0  0  0  0  0  0
    1.5010   43.1350   52.1660 O   0  0  0  0  0  0  0  0  0  0  0  0
    1.4660   44.8550   53.8210 C   0  0  2  0  0  0  0  0  0  0  0  0
    1.8440   44.2950   55.2160 C   0  0  0  0  0  0  0  0  0  0  0  0
    1.5360   45.2470   56.3930 C   0  0  0  0  0  0  0  0  0  0  0  0
    0.0700   45.4960   56.6370 C   0  0  0  0  0  0  0  0  0  0  0  0
   -0.3890   46.2180   57.6790 N   0  0  0  0  0  0  0  0  0  0  0  0
   -1.7120   46.2330   57.5900 N   0  0  0  0  0  0  0  0  0  0  0  0
   -2.0450   45.5180   56.4980 C   0  0  0  0  0  0  0  0  0  0  0  0
   -0.9500   45.0400   55.8830 N   0  0  0  0  0  0  0  0  0  0  0  0
   -0.8980   44.1980   54.6910 C   0  0  0  0  0  0  0  0  0  0  0  0
   -0.0650   44.8500   53.5750 C   0  0  0  0  0  0  0  0  0  0  0  0
    5.2949   44.8845   56.1766 H   0  0  0  0  0  0  0  0  0  0  0  0
    6.4860   45.8715   55.2634 H   0  0  0  0  0  0  0  0  0  0  0  0
    4.7497   46.3321   55.2634 H   0  0  0  0  0  0  0  0  0  0  0  0
    6.2007   44.3741   53.5901 H   0  0  0  0  0  0  0  0  0  0  0  0
    4.6859   43.7176   54.3553 H   0  0  0  0  0  0  0  0  0  0  0  0
    3.7322   46.0668   53.4889 H   0  0  0  0  0  0  0  0  0  0  0  0
    4.5338   46.7093   51.3057 H   0  0  0  0  0  0  0  0  0  0  0  0
    5.9082   46.7507   52.4771 H   0  0  0  0  0  0  0  0  0  0  0  0
    7.6858   46.4915   50.8628 H   0  0  0  0  0  0  0  0  0  0  0  0
    8.9619   44.9204   49.4047 H   0  0  0  0  0  0  0  0  0  0  0  0
    7.9706   42.7231   48.7647 H   0  0  0  0  0  0  0  0  0  0  0  0
    5.6993   42.0930   49.5738 H   0  0  0  0  0  0  0  0  0  0  0  0
    3.3422   43.6727   50.2900 H   0  0  0  0  0  0  0  0  0  0  0  0
    4.0744   42.5007   51.4927 H   0  0  0  0  0  0  0  0  0  0  0  0
    1.8094   45.8998   53.8000 H   0  0  0  0  0  0  0  0  0  0  0  0
    1.2851   43.3609   55.3743 H   0  0  0  0  0  0  0  0  0  0  0  0
    2.9341   44.1479   55.2094 H   0  0  0  0  0  0  0  0  0  0  0  0
    1.9659   44.8114   57.3070 H   0  0  0  0  0  0  0  0  0  0  0  0
    1.9755   46.2199   56.1277 H   0  0  0  0  0  0  0  0  0  0  0  0
   -3.0763   45.3480   56.1552 H   0  0  0  0  0  0  0  0  0  0  0  0
   -0.4454   43.2311   54.9561 H   0  0  0  0  0  0  0  0  0  0  0  0
   -1.9246   44.0620   54.3201 H   0  0  0  0  0  0  0  0  0  0  0  0
   -0.2591   44.3037   52.6402 H   0  0  0  0  0  0  0  0  0  0  0  0
   -0.3745   45.9048   53.5352 H   0  0  0  0  0  0  0  0  0  0  0  0
  1  2  1  0
  2  3  1  0
  3  4  1  0
  4  5  1  0
  5  6  2  0
  6  7  1  0
  7  8  2  0
  8  9  1  0
  9 10  2  0
 10 11  1  0
 11 12  1  0
 12 13  1  0
 13 14  2  0
 13 15  1  0
 15 16  1  0
 16 17  1  0
 17 18  1  0
 18 19  2  0
 19 20  1  0
 20 21  2  0
 21 22  1  0
 22 23  1  0
 23 24  1  0
 12  3  1  0
 24 15  1  0
 10  5  1  0
 22 18  1  0
  1 25  1  0
  1 26  1  0
  1 27  1  0
  2 28  1  0
  2 29  1  0
  3 30  1  1
  4 31  1  0
  4 32  1  0
  6 33  1  0
  7 34  1  0
  8 35  1  0
  9 36  1  0
 11 37  1  0
 11 38  1  0
 15 39  1  1
 16 40  1  0
 16 41  1  0
 17 42  1  0
 17 43  1  0
 21 44  1  0
 23 45  1  0
 23 46  1  0
 24 47  1  0
 24 48  1  0
M  END
>  <meeko>  (5) 
{"is_sidechain": [false], "free_energy": -6.73, "intermolecular_energy": -10.021, "internal_energy": -0.017}

$$$$
