MODEL 1
REMARK VINA RESULT:    -8.110      0.000      0.000
REMARK INTER + INTRA:         -10.367
REMARK INTER:                 -10.006
REMARK INTRA:                  -0.361
REMARK UNBOUND:                -0.361
REMARK SMILES CN1CCC[C@H](N2CCN(C(=O)Cc3csc(-c4cccs4)n3)CC2)C1
REMARK SMILES IDX 7 1 8 2 9 3 10 4 24 5 25 6 11 7 12 8 6 9 2 10 3 11 26 12
REMARK SMILES IDX 4 13 5 14 1 15 13 16 14 17 15 18 23 19 16 20 17 21 18 22
REMARK SMILES IDX 19 23 22 24 20 25 21 26
REMARK H PARENT
ROOT
ATOM      1  N   UNL     1       5.352  47.231  54.136  1.00  0.00    -0.296 NA
ATOM      2  C   UNL     1       4.714  46.226  55.015  1.00  0.00     0.106 C 
ATOM      3  C   UNL     1       4.329  44.946  54.262  1.00  0.00     0.135 C 
ATOM      4  N   UNL     1       3.828  45.191  52.896  1.00  0.00    -0.340 N 
ATOM      5  C   UNL     1       3.933  46.491  52.210  1.00  0.00     0.135 C 
ATOM      6  C   UNL     1       4.341  47.640  53.141  1.00  0.00     0.106 C 
ATOM      7  C   UNL     1       3.358  44.073  52.117  1.00  0.00     0.228 C 
ATOM      8  O   UNL     1       2.471  44.252  51.238  1.00  0.00    -0.274 OA
ENDROOT
BRANCH   1   9
ATOM      9  C   UNL     1       6.658  46.775  53.557  1.00  0.00     0.071 C 
ATOM     10  N   UNL     1       9.120  47.361  53.880  1.00  0.00    -0.305 NA
ATOM     11  C   UNL     1       9.305  46.532  52.680  1.00  0.00     0.084 C 
ATOM     12  C   UNL     1       7.831  47.063  54.548  1.00  0.00     0.103 C 
ATOM     13  C   UNL     1       8.300  46.957  51.604  1.00  0.00     0.017 C 
ATOM     14  C   UNL     1       6.966  47.447  52.198  1.00  0.00     0.022 C 
ATOM     15  C   UNL     1      10.239  47.166  54.815  1.00  0.00     0.105 C 
ENDBRANCH   1   9
BRANCH   7  16
ATOM     16  C   UNL     1       3.953  42.698  52.273  1.00  0.00     0.157 C 
BRANCH  16  17
ATOM     17  C   UNL     1       4.472  42.198  50.956  1.00  0.00     0.061 A 
ATOM     18  C   UNL     1       5.717  42.558  50.443  1.00  0.00     0.091 A 
ATOM     19  N   UNL     1       3.736  41.376  50.159  1.00  0.00    -0.240 NA
ATOM     20  S   UNL     1       5.878  41.837  48.934  1.00  0.00    -0.121 S 
ATOM     21  C   UNL     1       4.374  41.088  49.003  1.00  0.00     0.133 A 
BRANCH  21  22
ATOM     22  C   UNL     1       3.779  40.276  47.939  1.00  0.00     0.063 A 
ATOM     23  C   UNL     1       3.147  39.047  48.096  1.00  0.00     0.023 A 
ATOM     24  S   UNL     1       3.800  40.659  46.301  1.00  0.00    -0.141 S 
ATOM     25  C   UNL     1       2.715  38.491  46.887  1.00  0.00     0.012 A 
ATOM     26  C   UNL     1       3.003  39.274  45.777  1.00  0.00     0.065 A 
ENDBRANCH  21  22
ENDBRANCH  16  17
ENDBRANCH   7  16
TORSDOF 4
ENDMDL
MODEL 2
REMARK VINA RESULT:    -7.771      3.986      8.372
REMARK INTER + INTRA:          -9.949
REMARK INTER:                  -9.453
REMARK INTRA:                  -0.496
REMARK UNBOUND:                -0.361
REMARK SMILES CN1CCC[C@H](N2CCN(C(=O)Cc3csc(-c4cccs4)n3)CC2)C1
REMARK SMILES IDX 7 1 8 2 9 3 10 4 24 5 25 6 11 7 12 8 6 9 2 10 3 11 26 12
REMARK SMILES IDX 4 13 5 14 1 15 13 16 14 17 15 18 23 19 16 20 17 21 18 22
REMARK SMILES IDX 19 23 22 24 20 25 21 26
REMARK H PARENT
ROOT
ATOM      1  N   UNL     1       0.352  42.784  52.662  1.00  0.00    -0.296 NA
ATOM      2  C   UNL     1       1.642  42.885  53.380  1.00  0.00     0.106 C 
ATOM      3  C   UNL     1       2.302  44.260  53.211  1.00  0.00     0.135 C 
ATOM      4  N   UNL     1       2.133  44.836  51.863  1.00  0.00    -0.340 N 
ATOM      5  C   UNL     1       1.204  44.294  50.855  1.00  0.00     0.135 C 
ATOM      6  C   UNL     1       0.647  42.912  51.221  1.00  0.00     0.106 C 
ATOM      7  C   UNL     1       2.778  46.088  51.557  1.00  0.00     0.228 C 
ATOM      8  O   UNL     1       3.119  46.341  50.368  1.00  0.00    -0.274 OA
ENDROOT
BRANCH   1   9
ATOM      9  C   UNL     1      -0.695  43.727  53.177  1.00  0.00     0.071 C 
ATOM     10  N   UNL     1      -2.357  43.753  55.113  1.00  0.00    -0.305 NA
ATOM     11  C   UNL     1      -2.902  44.924  54.412  1.00  0.00     0.084 C 
ATOM     12  C   UNL     1      -0.961  43.476  54.696  1.00  0.00     0.103 C 
ATOM     13  C   UNL     1      -3.089  44.593  52.928  1.00  0.00     0.017 C 
ATOM     14  C   UNL     1      -2.028  43.607  52.402  1.00  0.00     0.022 C 
ATOM     15  C   UNL     1      -2.428  43.946  56.569  1.00  0.00     0.105 C 
ENDBRANCH   1   9
BRANCH   7  16
ATOM     16  C   UNL     1       2.992  47.142  52.610  1.00  0.00     0.157 C 
BRANCH  16  17
ATOM     17  C   UNL     1       4.321  46.952  53.282  1.00  0.00     0.061 A 
ATOM     18  C   UNL     1       4.478  46.944  54.668  1.00  0.00     0.091 A 
ATOM     19  N   UNL     1       5.472  46.804  52.571  1.00  0.00    -0.240 NA
ATOM     20  S   UNL     1       6.116  46.769  54.998  1.00  0.00    -0.121 S 
ATOM     21  C   UNL     1       6.553  46.694  53.376  1.00  0.00     0.133 A 
BRANCH  21  22
ATOM     22  C   UNL     1       7.923  46.589  52.868  1.00  0.00     0.063 A 
ATOM     23  C   UNL     1       9.083  46.932  53.553  1.00  0.00     0.023 A 
ATOM     24  S   UNL     1       8.347  46.081  51.322  1.00  0.00    -0.141 S 
ATOM     25  C   UNL     1      10.245  46.760  52.791  1.00  0.00     0.012 A 
ATOM     26  C   UNL     1      10.007  46.284  51.509  1.00  0.00     0.065 A 
ENDBRANCH  21  22
ENDBRANCH  16  17
ENDBRANCH   7  16
TORSDOF 4
ENDMDL
MODEL 3
REMARK VINA RESULT:    -7.560      4.136      8.513
REMARK INTER + INTRA:          -9.689
REMARK INTER:                  -9.212
REMARK INTRA:                  -0.477
REMARK UNBOUND:                -0.361
REMARK SMILES CN1CCC[C@H](N2CCN(C(=O)Cc3csc(-c4cccs4)n3)CC2)C1
REMARK SMILES IDX 7 1 8 2 9 3 10 4 24 5 25 6 11 7 12 8 6 9 2 10 3 11 26 12
REMARK SMILES IDX 4 13 5 14 1 15 13 16 14 17 15 18 23 19 16 20 17 21 18 22
REMARK SMILES IDX 19 23 22 24 20 25 21 26
REMARK H PARENT
ROOT
ATOM      1  N   UNL     1      -0.607  43.849  53.568  1.00  0.00    -0.296 NA
ATOM      2  C   UNL     1       0.253  44.910  54.137  1.00  0.00     0.106 C 
ATOM      3  C   UNL     1       1.521  45.148  53.305  1.00  0.00     0.135 C 
ATOM      4  N   UNL     1       2.103  43.912  52.747  1.00  0.00    -0.340 N 
ATOM      5  C   UNL     1       1.410  42.611  52.748  1.00  0.00     0.135 C 
ATOM      6  C   UNL     1       0.159  42.588  53.635  1.00  0.00     0.106 C 
ATOM      7  C   UNL     1       3.342  43.997  52.015  1.00  0.00     0.228 C 
ATOM      8  O   UNL     1       4.125  43.007  51.995  1.00  0.00    -0.274 OA
ENDROOT
BRANCH   1   9
ATOM      9  C   UNL     1      -1.152  44.184  52.211  1.00  0.00     0.071 C 
ATOM     10  N   UNL     1      -3.131  45.509  51.298  1.00  0.00    -0.305 NA
ATOM     11  C   UNL     1      -2.743  44.892  50.022  1.00  0.00     0.084 C 
ATOM     12  C   UNL     1      -2.012  45.486  52.270  1.00  0.00     0.103 C 
ATOM     13  C   UNL     1      -2.543  43.386  50.219  1.00  0.00     0.017 C 
ATOM     14  C   UNL     1      -2.006  43.037  51.620  1.00  0.00     0.022 C 
ATOM     15  C   UNL     1      -3.596  46.888  51.083  1.00  0.00     0.105 C 
ENDBRANCH   1   9
BRANCH   7  16
ATOM     16  C   UNL     1       3.697  45.216  51.206  1.00  0.00     0.157 C 
BRANCH  16  17
ATOM     17  C   UNL     1       5.187  45.382  51.133  1.00  0.00     0.061 A 
ATOM     18  C   UNL     1       5.956  44.887  50.080  1.00  0.00     0.091 A 
ATOM     19  N   UNL     1       5.891  46.006  52.117  1.00  0.00    -0.240 NA
ATOM     20  S   UNL     1       7.567  45.229  50.417  1.00  0.00    -0.121 S 
ATOM     21  C   UNL     1       7.219  46.002  51.870  1.00  0.00     0.133 A 
BRANCH  21  22
ATOM     22  C   UNL     1       8.210  46.551  52.799  1.00  0.00     0.063 A 
ATOM     23  C   UNL     1       9.586  46.593  52.605  1.00  0.00     0.023 A 
ATOM     24  S   UNL     1       7.865  47.189  54.316  1.00  0.00    -0.141 S 
ATOM     25  C   UNL     1      10.279  47.141  53.690  1.00  0.00     0.012 A 
ATOM     26  C   UNL     1       9.457  47.531  54.739  1.00  0.00     0.065 A 
ENDBRANCH  21  22
ENDBRANCH  16  17
ENDBRANCH   7  16
TORSDOF 4
ENDMDL
MODEL 4
REMARK VINA RESULT:    -7.408      2.343      5.109
REMARK INTER + INTRA:          -9.501
REMARK INTER:                  -8.639
REMARK INTRA:                  -0.862
REMARK UNBOUND:                -0.361
REMARK SMILES CN1CCC[C@H](N2CCN(C(=O)Cc3csc(-c4cccs4)n3)CC2)C1
REMARK SMILES IDX 7 1 8 2 9 3 10 4 24 5 25 6 11 7 12 8 6 9 2 10 3 11 26 12
REMARK SMILES IDX 4 13 5 14 1 15 13 16 14 17 15 18 23 19 16 20 17 21 18 22
REMARK SMILES IDX 19 23 22 24 20 25 21 26
REMARK H PARENT
ROOT
ATOM      1  N   UNL     1       3.419  46.289  54.494  1.00  0.00    -0.296 NA
ATOM      2  C   UNL     1       3.890  47.601  53.999  1.00  0.00     0.106 C 
ATOM      3  C   UNL     1       5.125  47.480  53.096  1.00  0.00     0.135 C 
ATOM      4  N   UNL     1       6.079  46.443  53.534  1.00  0.00    -0.340 N 
ATOM      5  C   UNL     1       5.772  45.436  54.566  1.00  0.00     0.135 C 
ATOM      6  C   UNL     1       4.489  45.739  55.349  1.00  0.00     0.106 C 
ATOM      7  C   UNL     1       7.317  46.290  52.813  1.00  0.00     0.228 C 
ATOM      8  O   UNL     1       8.339  45.852  53.411  1.00  0.00    -0.274 OA
ENDROOT
BRANCH   1   9
ATOM      9  C   UNL     1       2.950  45.372  53.403  1.00  0.00     0.071 C 
ATOM     10  N   UNL     1       0.698  44.644  52.450  1.00  0.00    -0.305 NA
ATOM     11  C   UNL     1       1.509  43.650  51.733  1.00  0.00     0.084 C 
ATOM     12  C   UNL     1       1.526  45.784  52.911  1.00  0.00     0.103 C 
ATOM     13  C   UNL     1       2.459  42.958  52.715  1.00  0.00     0.017 C 
ATOM     14  C   UNL     1       2.924  43.891  53.850  1.00  0.00     0.022 C 
ATOM     15  C   UNL     1      -0.402  45.121  51.598  1.00  0.00     0.105 C 
ENDBRANCH   1   9
BRANCH   7  16
ATOM     16  C   UNL     1       7.409  46.568  51.335  1.00  0.00     0.157 C 
BRANCH  16  17
ATOM     17  C   UNL     1       7.419  45.283  50.559  1.00  0.00     0.061 A 
ATOM     18  C   UNL     1       8.495  44.882  49.767  1.00  0.00     0.091 A 
ATOM     19  N   UNL     1       6.353  44.436  50.555  1.00  0.00    -0.240 NA
ATOM     20  S   UNL     1       8.076  43.433  49.027  1.00  0.00    -0.121 S 
ATOM     21  C   UNL     1       6.560  43.368  49.754  1.00  0.00     0.133 A 
BRANCH  21  22
ATOM     22  C   UNL     1       5.548  42.334  49.518  1.00  0.00     0.063 A 
ATOM     23  C   UNL     1       4.640  41.844  50.450  1.00  0.00     0.023 A 
ATOM     24  S   UNL     1       5.333  41.500  48.074  1.00  0.00    -0.141 S 
ATOM     25  C   UNL     1       3.823  40.828  49.941  1.00  0.00     0.012 A 
ATOM     26  C   UNL     1       4.083  40.513  48.614  1.00  0.00     0.065 A 
ENDBRANCH  21  22
ENDBRANCH  16  17
ENDBRANCH   7  16
TORSDOF 4
ENDMDL
MODEL 5
REMARK VINA RESULT:    -6.813      3.470      7.047
REMARK INTER + INTRA:          -8.767
REMARK INTER:                  -8.501
REMARK INTRA:                  -0.266
REMARK UNBOUND:                -0.361
REMARK SMILES CN1CCC[C@H](N2CCN(C(=O)Cc3csc(-c4cccs4)n3)CC2)C1
REMARK SMILES IDX 7 1 8 2 9 3 10 4 24 5 25 6 11 7 12 8 6 9 2 10 3 11 26 12
REMARK SMILES IDX 4 13 5 14 1 15 13 16 14 17 15 18 23 19 16 20 17 21 18 22
REMARK SMILES IDX 19 23 22 24 20 25 21 26
REMARK H PARENT
ROOT
ATOM      1  N   UNL     1       1.358  43.257  51.673  1.00  0.00    -0.296 NA
ATOM      2  C   UNL     1       0.924  44.669  51.587  1.00  0.00     0.106 C 
ATOM      3  C   UNL     1       1.399  45.504  52.784  1.00  0.00     0.135 C 
ATOM      4  N   UNL     1       1.366  44.773  54.065  1.00  0.00    -0.340 N 
ATOM      5  C   UNL     1       1.163  43.316  54.169  1.00  0.00     0.135 C 
ATOM      6  C   UNL     1       0.698  42.672  52.857  1.00  0.00     0.106 C 
ATOM      7  C   UNL     1       1.712  45.476  55.275  1.00  0.00     0.228 C 
ATOM      8  O   UNL     1       1.209  45.113  56.374  1.00  0.00    -0.274 OA
ENDROOT
BRANCH   1   9
ATOM      9  C   UNL     1       2.848  43.086  51.633  1.00  0.00     0.071 C 
ATOM     10  N   UNL     1       4.795  44.186  50.405  1.00  0.00    -0.305 NA
ATOM     11  C   UNL     1       5.563  43.059  50.955  1.00  0.00     0.084 C 
ATOM     12  C   UNL     1       3.541  44.405  51.164  1.00  0.00     0.103 C 
ATOM     13  C   UNL     1       4.813  41.749  50.688  1.00  0.00     0.017 C 
ATOM     14  C   UNL     1       3.283  41.927  50.706  1.00  0.00     0.022 C 
ATOM     15  C   UNL     1       5.611  45.409  50.399  1.00  0.00     0.105 C 
ENDBRANCH   1   9
BRANCH   7  16
ATOM     16  C   UNL     1       2.722  46.593  55.276  1.00  0.00     0.157 C 
BRANCH  16  17
ATOM     17  C   UNL     1       4.085  46.070  54.926  1.00  0.00     0.061 A 
ATOM     18  C   UNL     1       4.557  44.832  55.360  1.00  0.00     0.091 A 
ATOM     19  N   UNL     1       4.964  46.794  54.181  1.00  0.00    -0.240 NA
ATOM     20  S   UNL     1       6.135  44.662  54.807  1.00  0.00    -0.121 S 
ATOM     21  C   UNL     1       6.144  46.153  54.029  1.00  0.00     0.133 A 
BRANCH  21  22
ATOM     22  C   UNL     1       7.289  46.738  53.324  1.00  0.00     0.063 A 
ATOM     23  C   UNL     1       7.244  47.774  52.398  1.00  0.00     0.023 A 
ATOM     24  S   UNL     1       8.882  46.217  53.466  1.00  0.00    -0.141 S 
ATOM     25  C   UNL     1       8.498  48.088  51.862  1.00  0.00     0.012 A 
ATOM     26  C   UNL     1       9.531  47.305  52.360  1.00  0.00     0.065 A 
ENDBRANCH  21  22
ENDBRANCH  16  17
ENDBRANCH   7  16
TORSDOF 4
ENDMDL
