ligand_76_conformer_3_docked
     RDKit          3D

 39 40  0  0  0  0  0  0  0  0999 V2000
   10.2270   46.3720   51.9530 C   0  0  0  0  0  0  0  0  0  0  0  0
    9.8910   46.1380   53.4300 C   0  0  0  0  0  0  0  0  0  0  0  0
    8.8750   47.1430   54.0480 C   0  0  2  0  0  0  0  0  0  0  0  0
    9.5810   48.1140   55.0220 C   0  0  0  0  0  0  0  0  0  0  0  0
    7.9020   46.4080   54.7550 O   0  0  0  0  0  0  0  0  0  0  0  0
    8.1510   47.9370   52.9280 C   0  0  0  0  0  0  0  0  0  0  0  0
    6.7200   47.5180   52.7530 C   0  0  0  0  0  0  0  0  0  0  0  0
    6.2010   46.7540   51.7300 C   0  0  0  0  0  0  0  0  0  0  0  0
    4.8950   46.6070   52.0070 N   0  0  0  0  0  0  0  0  0  0  0  0
    3.9010   45.9240   51.1870 C   0  0  0  0  0  0  0  0  0  0  0  0
    4.1180   44.4360   51.2490 C   0  0  0  0  0  0  0  0  0  0  0  0
    5.0430   43.8220   50.3900 C   0  0  0  0  0  0  0  0  0  0  0  0
    5.2110   42.4310   50.4320 C   0  0  0  0  0  0  0  0  0  0  0  0
    6.2000   41.7590   49.5250 C   0  0  0  0  0  0  0  0  0  0  0  0
    5.5500   40.8240   48.7410 F   0  0  0  0  0  0  0  0  0  0  0  0
    6.7980   42.7020   48.7080 F   0  0  0  0  0  0  0  0  0  0  0  0
    7.1810   41.1200   50.2630 F   0  0  0  0  0  0  0  0  0  0  0  0
    4.4650   41.6890   51.2960 N   0  0  0  0  0  0  0  0  0  0  0  0
    3.5530   42.2570   52.1280 C   0  0  0  0  0  0  0  0  0  0  0  0
    3.3580   43.6390   52.1180 C   0  0  0  0  0  0  0  0  0  0  0  0
    2.4340   44.1920   52.9440 F   0  0  0  0  0  0  0  0  0  0  0  0
    4.6260   47.2490   53.1330 N   0  0  0  0  0  0  0  0  0  0  0  0
    5.7260   47.8100   53.6160 N   0  0  0  0  0  0  0  0  0  0  0  0
   11.1275   46.9991   51.8767 H   0  0  0  0  0  0  0  0  0  0  0  0
   10.4106   45.4054   51.4611 H   0  0  0  0  0  0  0  0  0  0  0  0
    9.3840   46.8794   51.4611 H   0  0  0  0  0  0  0  0  0  0  0  0
    9.4701   45.1263   53.5267 H   0  0  0  0  0  0  0  0  0  0  0  0
   10.8320   46.2782   53.9822 H   0  0  0  0  0  0  0  0  0  0  0  0
    9.3642   47.8158   56.0584 H   0  0  0  0  0  0  0  0  0  0  0  0
   10.6670   48.0804   54.8503 H   0  0  0  0  0  0  0  0  0  0  0  0
    9.2141   49.1367   54.8503 H   0  0  0  0  0  0  0  0  0  0  0  0
    7.7020   45.5800   54.2420 H   0  0  0  0  0  0  0  0  0  0  0  0
    8.1758   49.0068   53.1827 H   0  0  0  0  0  0  0  0  0  0  0  0
    8.6753   47.7315   51.9831 H   0  0  0  0  0  0  0  0  0  0  0  0
    6.7448   46.3480   50.8643 H   0  0  0  0  0  0  0  0  0  0  0  0
    2.8943   46.1614   51.5615 H   0  0  0  0  0  0  0  0  0  0  0  0
    3.9998   46.2604   50.1444 H   0  0  0  0  0  0  0  0  0  0  0  0
    5.6329   44.4292   49.6876 H   0  0  0  0  0  0  0  0  0  0  0  0
    2.9665   41.6255   52.8116 H   0  0  0  0  0  0  0  0  0  0  0  0
  1  2  1  0
  2  3  1  0
  3  4  1  0
  3  5  1  1
  3  6  1  0
  6  7  1  0
  7  8  2  0
  8  9  1  0
  9 10  1  0
 10 11  1  0
 11 12  2  0
 12 13  1  0
 13 14  1  0
 14 15  1  0
 14 16  1  0
 14 17  1  0
 13 18  2  0
 18 19  1  0
 19 20  2  0
 20 21  1  0
  9 22  1  0
 22 23  2  0
 23  7  1  0
 20 11  1  0
  1 24  1  0
  1 25  1  0
  1 26  1  0
  2 27  1  0
  2 28  1  0
  4 29  1  0
  4 30  1  0
  4 31  1  0
  5 32  1  0
  6 33  1  0
  6 34  1  0
  8 35  1  0
 10 36  1  0
 10 37  1  0
 12 38  1  0
 19 39  1  0
M  END
>  <meeko>  (1) 
{"is_sidechain": [false], "free_energy": -8.174, "intermolecular_energy": -11.28, "internal_energy": -0.956}

$$$$
ligand_76_conformer_3_docked
     RDKit          3D

 39 40  0  0  0  0  0  0  0  0999 V2000
   10.2470   47.5830   55.4920 C   0  0  0  0  0  0  0  0  0  0  0  0
   10.1330   47.2050   54.0120 C   0  0  0  0  0  0  0  0  0  0  0  0
    8.7070   47.3370   53.3990 C   0  0  2  0  0  0  0  0  0  0  0  0
    8.6220   46.6140   52.0360 C   0  0  0  0  0  0  0  0  0  0  0  0
    8.4320   48.7070   53.2120 O   0  0  0  0  0  0  0  0  0  0  0  0
    7.6440   46.7680   54.3770 C   0  0  0  0  0  0  0  0  0  0  0  0
    6.2950   46.6070   53.7370 C   0  0  0  0  0  0  0  0  0  0  0  0
    5.6670   45.4230   53.4180 C   0  0  0  0  0  0  0  0  0  0  0  0
    4.4750   45.7670   52.9020 N   0  0  0  0  0  0  0  0  0  0  0  0
    3.4670   44.8640   52.3590 C   0  0  0  0  0  0  0  0  0  0  0  0
    4.1330   43.7400   51.6110 C   0  0  0  0  0  0  0  0  0  0  0  0
    5.2710   43.9910   50.8290 C   0  0  0  0  0  0  0  0  0  0  0  0
    5.8620   42.9430   50.1080 C   0  0  0  0  0  0  0  0  0  0  0  0
    7.0830   43.1920   49.2730 C   0  0  0  0  0  0  0  0  0  0  0  0
    6.8000   42.9230   47.9450 F   0  0  0  0  0  0  0  0  0  0  0  0
    7.4700   44.5140   49.3970 F   0  0  0  0  0  0  0  0  0  0  0  0
    8.1260   42.3800   49.6810 F   0  0  0  0  0  0  0  0  0  0  0  0
    5.3160   41.6970   50.1630 N   0  0  0  0  0  0  0  0  0  0  0  0
    4.2060   41.4310   50.9010 C   0  0  0  0  0  0  0  0  0  0  0  0
    3.5910   42.4470   51.6350 C   0  0  0  0  0  0  0  0  0  0  0  0
    2.4750   42.1700   52.3560 F   0  0  0  0  0  0  0  0  0  0  0  0
    4.3800   47.0870   52.8980 N   0  0  0  0  0  0  0  0  0  0  0  0
    5.4770   47.6280   53.4120 N   0  0  0  0  0  0  0  0  0  0  0  0
    9.9850   46.7141   56.1136 H   0  0  0  0  0  0  0  0  0  0  0  0
   11.2788   47.8938   55.7126 H   0  0  0  0  0  0  0  0  0  0  0  0
    9.5591   48.4125   55.7126 H   0  0  0  0  0  0  0  0  0  0  0  0
   10.8099   47.8579   53.4414 H   0  0  0  0  0  0  0  0  0  0  0  0
   10.3932   46.1380   53.9497 H   0  0  0  0  0  0  0  0  0  0  0  0
    8.4950   45.5339   52.2012 H   0  0  0  0  0  0  0  0  0  0  0  0
    7.7632   47.0016   51.4683 H   0  0  0  0  0  0  0  0  0  0  0  0
    9.5472   46.7918   51.4683 H   0  0  0  0  0  0  0  0  0  0  0  0
    7.5010   48.8830   53.5150 H   0  0  0  0  0  0  0  0  0  0  0  0
    7.9842   45.7844   54.7332 H   0  0  0  0  0  0  0  0  0  0  0  0
    7.5359   47.4850   55.2041 H   0  0  0  0  0  0  0  0  0  0  0  0
    6.0605   44.4053   53.5571 H   0  0  0  0  0  0  0  0  0  0  0  0
    2.8680   44.4488   53.1829 H   0  0  0  0  0  0  0  0  0  0  0  0
    2.8164   45.4215   51.6692 H   0  0  0  0  0  0  0  0  0  0  0  0
    5.6971   45.0040   50.7818 H   0  0  0  0  0  0  0  0  0  0  0  0
    3.7911   40.4124   50.9200 H   0  0  0  0  0  0  0  0  0  0  0  0
  1  2  1  0
  2  3  1  0
  3  4  1  0
  3  5  1  6
  3  6  1  0
  6  7  1  0
  7  8  2  0
  8  9  1  0
  9 10  1  0
 10 11  1  0
 11 12  2  0
 12 13  1  0
 13 14  1  0
 14 15  1  0
 14 16  1  0
 14 17  1  0
 13 18  2  0
 18 19  1  0
 19 20  2  0
 20 21  1  0
  9 22  1  0
 22 23  2  0
 23  7  1  0
 20 11  1  0
  1 24  1  0
  1 25  1  0
  1 26  1  0
  2 27  1  0
  2 28  1  0
  4 29  1  0
  4 30  1  0
  4 31  1  0
  5 32  1  0
  6 33  1  0
  6 34  1  0
  8 35  1  0
 10 36  1  0
 10 37  1  0
 12 38  1  0
 19 39  1  0
M  END
>  <meeko>  (2) 
{"is_sidechain": [false], "free_energy": -8.089, "intermolecular_energy": -11.666, "internal_energy": -0.453}

$$$$
ligand_76_conformer_3_docked
     RDKit          3D

 39 40  0  0  0  0  0  0  0  0999 V2000
   10.2850   45.9220   51.7000 C   0  0  0  0  0  0  0  0  0  0  0  0
   10.2140   46.8030   52.9520 C   0  0  0  0  0  0  0  0  0  0  0  0
    8.8210   47.4370   53.2410 C   0  0  2  0  0  0  0  0  0  0  0  0
    8.3510   48.3020   52.0480 C   0  0  0  0  0  0  0  0  0  0  0  0
    8.9360   48.2530   54.3850 O   0  0  0  0  0  0  0  0  0  0  0  0
    7.7770   46.3320   53.5480 C   0  0  0  0  0  0  0  0  0  0  0  0
    6.3810   46.8710   53.6720 C   0  0  0  0  0  0  0  0  0  0  0  0
    5.3670   46.7630   52.7460 C   0  0  0  0  0  0  0  0  0  0  0  0
    4.2980   47.3600   53.2990 N   0  0  0  0  0  0  0  0  0  0  0  0
    2.9920   47.5570   52.6810 C   0  0  0  0  0  0  0  0  0  0  0  0
    2.3690   46.2240   52.3620 C   0  0  0  0  0  0  0  0  0  0  0  0
    1.6140   45.5480   53.3320 C   0  0  0  0  0  0  0  0  0  0  0  0
    1.0670   44.2910   53.0350 C   0  0  0  0  0  0  0  0  0  0  0  0
    0.2520   43.5580   54.0590 C   0  0  0  0  0  0  0  0  0  0  0  0
    0.4500   44.1270   55.3040 F   0  0  0  0  0  0  0  0  0  0  0  0
   -1.0890   43.6360   53.7300 F   0  0  0  0  0  0  0  0  0  0  0  0
    0.6230   42.2260   54.1130 F   0  0  0  0  0  0  0  0  0  0  0  0
    1.2870   43.7350   51.8120 N   0  0  0  0  0  0  0  0  0  0  0  0
    2.0260   44.3620   50.8600 C   0  0  0  0  0  0  0  0  0  0  0  0
    2.5840   45.6160   51.1160 C   0  0  0  0  0  0  0  0  0  0  0  0
    3.3320   46.2240   50.1610 F   0  0  0  0  0  0  0  0  0  0  0  0
    4.6380   47.8130   54.4950 N   0  0  0  0  0  0  0  0  0  0  0  0
    5.9060   47.5210   54.7540 N   0  0  0  0  0  0  0  0  0  0  0  0
   10.3700   44.8667   51.9986 H   0  0  0  0  0  0  0  0  0  0  0  0
    9.3727   46.0613   51.1014 H   0  0  0  0  0  0  0  0  0  0  0  0
   11.1632   46.2056   51.1014 H   0  0  0  0  0  0  0  0  0  0  0  0
   10.4928   46.1854   53.8185 H   0  0  0  0  0  0  0  0  0  0  0  0
   10.8997   47.6440   52.7717 H   0  0  0  0  0  0  0  0  0  0  0  0
    7.8577   49.2099   52.4253 H   0  0  0  0  0  0  0  0  0  0  0  0
    9.2197   48.5844   51.4352 H   0  0  0  0  0  0  0  0  0  0  0  0
    7.6414   47.7268   51.4352 H   0  0  0  0  0  0  0  0  0  0  0  0
    8.5440   47.7650   55.1570 H   0  0  0  0  0  0  0  0  0  0  0  0
    7.7976   45.5926   52.7338 H   0  0  0  0  0  0  0  0  0  0  0  0
    8.0457   45.8809   54.5146 H   0  0  0  0  0  0  0  0  0  0  0  0
    5.4214   46.2857   51.7564 H   0  0  0  0  0  0  0  0  0  0  0  0
    2.3397   48.1077   53.3747 H   0  0  0  0  0  0  0  0  0  0  0  0
    3.1148   48.1310   51.7507 H   0  0  0  0  0  0  0  0  0  0  0  0
    1.4517   46.0016   54.3209 H   0  0  0  0  0  0  0  0  0  0  0  0
    2.1853   43.8801   49.8841 H   0  0  0  0  0  0  0  0  0  0  0  0
  1  2  1  0
  2  3  1  0
  3  4  1  0
  3  5  1  1
  3  6  1  0
  6  7  1  0
  7  8  2  0
  8  9  1  0
  9 10  1  0
 10 11  1  0
 11 12  2  0
 12 13  1  0
 13 14  1  0
 14 15  1  0
 14 16  1  0
 14 17  1  0
 13 18  2  0
 18 19  1  0
 19 20  2  0
 20 21  1  0
  9 22  1  0
 22 23  2  0
 23  7  1  0
 20 11  1  0
  1 24  1  0
  1 25  1  0
  1 26  1  0
  2 27  1  0
  2 28  1  0
  4 29  1  0
  4 30  1  0
  4 31  1  0
  5 32  1  0
  6 33  1  0
  6 34  1  0
  8 35  1  0
 10 36  1  0
 10 37  1  0
 12 38  1  0
 19 39  1  0
M  END
>  <meeko>  (3) 
{"is_sidechain": [false], "free_energy": -7.774, "intermolecular_energy": -10.984, "internal_energy": -0.7}

$$$$
ligand_76_conformer_3_docked
     RDKit          3D

 39 40  0  0  0  0  0  0  0  0999 V2000
    1.2530   44.4330   54.7880 C   0  0  0  0  0  0  0  0  0  0  0  0
    0.5380   44.1730   53.4570 C   0  0  0  0  0  0  0  0  0  0  0  0
    0.7580   42.7560   52.8490 C   0  0  2  0  0  0  0  0  0  0  0  0
   -0.5760   41.9800   52.7590 C   0  0  0  0  0  0  0  0  0  0  0  0
    1.6470   42.0500   53.6860 O   0  0  0  0  0  0  0  0  0  0  0  0
    1.4120   42.8660   51.4460 C   0  0  0  0  0  0  0  0  0  0  0  0
    2.7700   43.5050   51.4870 C   0  0  0  0  0  0  0  0  0  0  0  0
    3.0830   44.8040   51.1520 C   0  0  0  0  0  0  0  0  0  0  0  0
    4.4010   44.9340   51.3770 N   0  0  0  0  0  0  0  0  0  0  0  0
    5.2180   46.1140   51.1160 C   0  0  0  0  0  0  0  0  0  0  0  0
    5.9710   46.5030   52.3600 C   0  0  0  0  0  0  0  0  0  0  0  0
    7.3740   46.5020   52.3640 C   0  0  0  0  0  0  0  0  0  0  0  0
    8.0650   46.8320   53.5390 C   0  0  0  0  0  0  0  0  0  0  0  0
    9.5650   46.8420   53.5590 C   0  0  0  0  0  0  0  0  0  0  0  0
   10.0370   45.5440   53.6360 F   0  0  0  0  0  0  0  0  0  0  0  0
   10.0420   47.4320   52.4020 F   0  0  0  0  0  0  0  0  0  0  0  0
   10.0320   47.5540   54.6490 F   0  0  0  0  0  0  0  0  0  0  0  0
    7.3660   47.1360   54.6670 N   0  0  0  0  0  0  0  0  0  0  0  0
    6.0070   47.1300   54.6940 C   0  0  0  0  0  0  0  0  0  0  0  0
    5.2840   46.8100   53.5430 C   0  0  0  0  0  0  0  0  0  0  0  0
    3.9280   46.7940   53.5880 F   0  0  0  0  0  0  0  0  0  0  0  0
    4.8710   43.7790   51.8190 N   0  0  0  0  0  0  0  0  0  0  0  0
    3.8930   42.8870   51.9050 N   0  0  0  0  0  0  0  0  0  0  0  0
    0.5778   44.1875   55.6210 H   0  0  0  0  0  0  0  0  0  0  0  0
    2.1540   43.8050   54.8490 H   0  0  0  0  0  0  0  0  0  0  0  0
    1.5402   45.4931   54.8490 H   0  0  0  0  0  0  0  0  0  0  0  0
   -0.5414   44.3096   53.6187 H   0  0  0  0  0  0  0  0  0  0  0  0
    0.9690   44.8835   52.7363 H   0  0  0  0  0  0  0  0  0  0  0  0
   -0.9446   41.7656   53.7730 H   0  0  0  0  0  0  0  0  0  0  0  0
   -1.3179   42.5875   52.2200 H   0  0  0  0  0  0  0  0  0  0  0  0
   -0.4147   41.0348   52.2200 H   0  0  0  0  0  0  0  0  0  0  0  0
    1.3550   42.1770   54.6280 H   0  0  0  0  0  0  0  0  0  0  0  0
    1.5116   41.8550   51.0242 H   0  0  0  0  0  0  0  0  0  0  0  0
    0.7639   43.5037   50.8269 H   0  0  0  0  0  0  0  0  0  0  0  0
    2.3951   45.5762   50.7772 H   0  0  0  0  0  0  0  0  0  0  0  0
    5.9341   45.8908   50.3114 H   0  0  0  0  0  0  0  0  0  0  0  0
    4.5651   46.9460   50.8136 H   0  0  0  0  0  0  0  0  0  0  0  0
    7.9292   46.2437   51.4502 H   0  0  0  0  0  0  0  0  0  0  0  0
    5.4755   47.3778   55.6247 H   0  0  0  0  0  0  0  0  0  0  0  0
  1  2  1  0
  2  3  1  0
  3  4  1  0
  3  5  1  1
  3  6  1  0
  6  7  1  0
  7  8  2  0
  8  9  1  0
  9 10  1  0
 10 11  1  0
 11 12  2  0
 12 13  1  0
 13 14  1  0
 14 15  1  0
 14 16  1  0
 14 17  1  0
 13 18  2  0
 18 19  1  0
 19 20  2  0
 20 21  1  0
  9 22  1  0
 22 23  2  0
 23  7  1  0
 20 11  1  0
  1 24  1  0
  1 25  1  0
  1 26  1  0
  2 27  1  0
  2 28  1  0
  4 29  1  0
  4 30  1  0
  4 31  1  0
  5 32  1  0
  6 33  1  0
  6 34  1  0
  8 35  1  0
 10 36  1  0
 10 37  1  0
 12 38  1  0
 19 39  1  0
M  END
>  <meeko>  (4) 
{"is_sidechain": [false], "free_energy": -7.753, "intermolecular_energy": -10.766, "internal_energy": -0.888}

$$$$
ligand_76_conformer_3_docked
     RDKit          3D

 39 40  0  0  0  0  0  0  0  0999 V2000
   -1.5290   42.6660   51.9240 C   0  0  0  0  0  0  0  0  0  0  0  0
   -0.4080   42.1870   52.8530 C   0  0  0  0  0  0  0  0  0  0  0  0
    0.9190   42.9980   52.7680 C   0  0  2  0  0  0  0  0  0  0  0  0
    1.3400   43.2160   51.2960 C   0  0  0  0  0  0  0  0  0  0  0  0
    1.9260   42.2690   53.4320 O   0  0  0  0  0  0  0  0  0  0  0  0
    0.7640   44.3630   53.4900 C   0  0  0  0  0  0  0  0  0  0  0  0
    2.0740   45.0750   53.6690 C   0  0  0  0  0  0  0  0  0  0  0  0
    2.5440   46.1390   52.9310 C   0  0  0  0  0  0  0  0  0  0  0  0
    3.7320   46.4640   53.4690 N   0  0  0  0  0  0  0  0  0  0  0  0
    4.6510   47.4930   52.9980 C   0  0  0  0  0  0  0  0  0  0  0  0
    5.8700   46.8540   52.3880 C   0  0  0  0  0  0  0  0  0  0  0  0
    7.1360   47.0720   52.9510 C   0  0  0  0  0  0  0  0  0  0  0  0
    8.2690   46.5010   52.3540 C   0  0  0  0  0  0  0  0  0  0  0  0
    9.6300   46.7180   52.9460 C   0  0  0  0  0  0  0  0  0  0  0  0
    9.6700   47.9490   53.5770 F   0  0  0  0  0  0  0  0  0  0  0  0
    9.9000   45.7240   53.8700 F   0  0  0  0  0  0  0  0  0  0  0  0
   10.6000   46.6890   51.9610 F   0  0  0  0  0  0  0  0  0  0  0  0
    8.1280   45.7510   51.2260 N   0  0  0  0  0  0  0  0  0  0  0  0
    6.9150   45.5370   50.6520 C   0  0  0  0  0  0  0  0  0  0  0  0
    5.7630   46.0860   51.2190 C   0  0  0  0  0  0  0  0  0  0  0  0
    4.5600   45.8760   50.6280 F   0  0  0  0  0  0  0  0  0  0  0  0
    3.9790   45.6420   54.4770 N   0  0  0  0  0  0  0  0  0  0  0  0
    2.9770   44.7860   54.6280 N   0  0  0  0  0  0  0  0  0  0  0  0
   -2.3752   43.0276   52.5266 H   0  0  0  0  0  0  0  0  0  0  0  0
   -1.1552   43.4830   51.2893 H   0  0  0  0  0  0  0  0  0  0  0  0
   -1.8611   41.8312   51.2893 H   0  0  0  0  0  0  0  0  0  0  0  0
   -0.7762   42.2452   53.8879 H   0  0  0  0  0  0  0  0  0  0  0  0
   -0.1611   41.1649   52.5299 H   0  0  0  0  0  0  0  0  0  0  0  0
    2.3164   43.7216   51.2649 H   0  0  0  0  0  0  0  0  0  0  0  0
    1.4145   42.2432   50.7880 H   0  0  0  0  0  0  0  0  0  0  0  0
    0.5885   43.8383   50.7880 H   0  0  0  0  0  0  0  0  0  0  0  0
    1.7160   42.2620   54.4040 H   0  0  0  0  0  0  0  0  0  0  0  0
    0.0945   45.0018   52.8953 H   0  0  0  0  0  0  0  0  0  0  0  0
    0.3535   44.1650   54.4911 H   0  0  0  0  0  0  0  0  0  0  0  0
    2.0486   46.6233   52.0766 H   0  0  0  0  0  0  0  0  0  0  0  0
    4.1473   48.1127   52.2415 H   0  0  0  0  0  0  0  0  0  0  0  0
    4.9587   48.1192   53.8484 H   0  0  0  0  0  0  0  0  0  0  0  0
    7.2396   47.6879   53.8565 H   0  0  0  0  0  0  0  0  0  0  0  0
    6.8404   44.9295   49.7380 H   0  0  0  0  0  0  0  0  0  0  0  0
  1  2  1  0
  2  3  1  0
  3  4  1  0
  3  5  1  1
  3  6  1  0
  6  7  1  0
  7  8  2  0
  8  9  1  0
  9 10  1  0
 10 11  1  0
 11 12  2  0
 12 13  1  0
 13 14  1  0
 14 15  1  0
 14 16  1  0
 14 17  1  0
 13 18  2  0
 18 19  1  0
 19 20  2  0
 20 21  1  0
  9 22  1  0
 22 23  2  0
 23  7  1  0
 20 11  1  0
  1 24  1  0
  1 25  1  0
  1 26  1  0
  2 27  1  0
  2 28  1  0
  4 29  1  0
  4 30  1  0
  4 31  1  0
  5 32  1  0
  6 33  1  0
  6 34  1  0
  8 35  1  0
 10 36  1  0
 10 37  1  0
 12 38  1  0
 19 39  1  0
M  END
>  <meeko>  (5) 
{"is_sidechain": [false], "free_energy": -7.639, "intermolecular_energy": -10.726, "internal_energy": -0.771}

$$$$
