ligand_34_conformer_2_docked
     RDKit          3D

 48 51  0  0  0  0  0  0  0  0999 V2000
    0.8700   44.6060   56.5070 C   0  0  0  0  0  0  0  0  0  0  0  0
    1.1860   44.7600   55.0050 C   0  0  0  0  0  0  0  0  0  0  0  0
   -0.1240   44.7700   54.1940 C   0  0  0  0  0  0  0  0  0  0  0  0
    2.0000   43.6940   54.5760 O   0  0  0  0  0  0  0  0  0  0  0  0
    1.9450   46.0780   54.7610 C   0  0  0  0  0  0  0  0  0  0  0  0
    3.1850   46.0470   55.4260 O   0  0  0  0  0  0  0  0  0  0  0  0
    4.1340   46.3600   54.5050 N   0  0  0  0  0  0  0  0  0  0  0  0
    5.1500   45.4140   54.1530 C   0  0  0  0  0  0  0  0  0  0  0  0
    5.0200   44.2050   54.4830 O   0  0  0  0  0  0  0  0  0  0  0  0
    6.3250   45.8330   53.3680 C   0  0  0  0  0  0  0  0  0  0  0  0
    7.3610   46.5620   53.9910 C   0  0  0  0  0  0  0  0  0  0  0  0
    8.5620   46.8640   53.2820 C   0  0  0  0  0  0  0  0  0  0  0  0
    9.7260   47.6230   53.8840 C   0  0  0  0  0  0  0  0  0  0  0  0
   10.3270   47.0730   55.1710 C   0  0  0  0  0  0  0  0  0  0  0  0
    9.4870   48.3440   55.2040 C   0  0  0  0  0  0  0  0  0  0  0  0
    8.6990   46.4400   51.9890 N   0  0  0  0  0  0  0  0  0  0  0  0
    7.6900   45.7640   51.3920 C   0  0  0  0  0  0  0  0  0  0  0  0
    7.6730   45.3070   50.1670 O   0  0  0  0  0  0  0  0  0  0  0  0
    6.5250   44.7350   49.9240 N   0  0  0  0  0  0  0  0  0  0  0  0
    5.7710   44.8320   51.0470 C   0  0  0  0  0  0  0  0  0  0  0  0
    4.3610   44.4090   51.1000 C   0  0  0  0  0  0  0  0  0  0  0  0
    3.3410   45.3730   51.0920 C   0  0  0  0  0  0  0  0  0  0  0  0
    1.9990   44.9780   51.1350 C   0  0  0  0  0  0  0  0  0  0  0  0
    1.6700   43.6220   51.2040 C   0  0  0  0  0  0  0  0  0  0  0  0
    2.6810   42.6580   51.2400 C   0  0  0  0  0  0  0  0  0  0  0  0
    4.0230   43.0490   51.1970 C   0  0  0  0  0  0  0  0  0  0  0  0
    6.5180   45.4790   52.0250 C   0  0  0  0  0  0  0  0  0  0  0  0
    1.7026   45.0118   57.1003 H   0  0  0  0  0  0  0  0  0  0  0  0
   -0.0525   45.1556   56.7459 H   0  0  0  0  0  0  0  0  0  0  0  0
    0.7345   43.5408   56.7459 H   0  0  0  0  0  0  0  0  0  0  0  0
   -0.9816   44.7765   54.8828 H   0  0  0  0  0  0  0  0  0  0  0  0
   -0.1560   45.6684   53.5601 H   0  0  0  0  0  0  0  0  0  0  0  0
   -0.1697   43.8722   53.5601 H   0  0  0  0  0  0  0  0  0  0  0  0
    1.4580   42.8630   54.6050 H   0  0  0  0  0  0  0  0  0  0  0  0
    2.1131   46.2076   53.6817 H   0  0  0  0  0  0  0  0  0  0  0  0
    1.3476   46.9168   55.1477 H   0  0  0  0  0  0  0  0  0  0  0  0
    4.1790   47.3360   54.1330 H   0  0  0  0  0  0  0  0  0  0  0  0
    7.2415   46.8998   55.0310 H   0  0  0  0  0  0  0  0  0  0  0  0
   10.1234   47.9140   52.9004 H   0  0  0  0  0  0  0  0  0  0  0  0
    9.9346   46.1428   55.6078 H   0  0  0  0  0  0  0  0  0  0  0  0
   11.3400   46.8012   55.5025 H   0  0  0  0  0  0  0  0  0  0  0  0
    8.4882   48.3314   55.6646 H   0  0  0  0  0  0  0  0  0  0  0  0
    9.6424   49.3699   55.5693 H   0  0  0  0  0  0  0  0  0  0  0  0
    3.5970   46.4420   51.0518 H   0  0  0  0  0  0  0  0  0  0  0  0
    1.2023   45.7362   51.1144 H   0  0  0  0  0  0  0  0  0  0  0  0
    0.6146   43.3130   51.2300 H   0  0  0  0  0  0  0  0  0  0  0  0
    2.4211   41.5910   51.3022 H   0  0  0  0  0  0  0  0  0  0  0  0
    4.8169   42.2887   51.2393 H   0  0  0  0  0  0  0  0  0  0  0  0
  1  2  1  0
  2  3  1  0
  2  4  1  0
  2  5  1  0
  5  6  1  0
  6  7  1  0
  7  8  1  0
  8  9  2  0
  8 10  1  0
 10 11  2  0
 11 12  1  0
 12 13  1  0
 13 14  1  0
 14 15  1  0
 12 16  2  0
 16 17  1  0
 17 18  1  0
 18 19  1  0
 19 20  2  0
 20 21  1  0
 21 22  2  0
 22 23  1  0
 23 24  2  0
 24 25  1  0
 25 26  2  0
 20 27  1  0
 27 10  1  0
 15 13  1  0
 27 17  2  0
 26 21  1  0
  1 28  1  0
  1 29  1  0
  1 30  1  0
  3 31  1  0
  3 32  1  0
  3 33  1  0
  4 34  1  0
  5 35  1  0
  5 36  1  0
  7 37  1  0
 11 38  1  0
 13 39  1  0
 14 40  1  0
 14 41  1  0
 15 42  1  0
 15 43  1  0
 22 44  1  0
 23 45  1  0
 24 46  1  0
 25 47  1  0
 26 48  1  0
M  END
>  <meeko>  (1) 
{"is_sidechain": [false], "free_energy": -8.461, "intermolecular_energy": -11.676, "internal_energy": -1.947}

$$$$
ligand_34_conformer_2_docked
     RDKit          3D

 48 51  0  0  0  0  0  0  0  0999 V2000
    5.4190   41.1790   48.0970 C   0  0  0  0  0  0  0  0  0  0  0  0
    6.0410   41.6290   49.4340 C   0  0  0  0  0  0  0  0  0  0  0  0
    6.6210   43.0490   49.2890 C   0  0  0  0  0  0  0  0  0  0  0  0
    7.0640   40.7370   49.8110 O   0  0  0  0  0  0  0  0  0  0  0  0
    4.9680   41.6290   50.5390 C   0  0  0  0  0  0  0  0  0  0  0  0
    4.2250   42.8240   50.4860 O   0  0  0  0  0  0  0  0  0  0  0  0
    4.7340   43.6450   51.4420 N   0  0  0  0  0  0  0  0  0  0  0  0
    4.8040   45.0590   51.2270 C   0  0  0  0  0  0  0  0  0  0  0  0
    4.1560   45.5810   50.2810 O   0  0  0  0  0  0  0  0  0  0  0  0
    5.5900   45.9170   52.1310 C   0  0  0  0  0  0  0  0  0  0  0  0
    6.9630   46.1320   51.8780 C   0  0  0  0  0  0  0  0  0  0  0  0
    7.7080   47.0590   52.6650 C   0  0  0  0  0  0  0  0  0  0  0  0
    9.1770   47.3600   52.4440 C   0  0  0  0  0  0  0  0  0  0  0  0
   10.1040   46.1740   52.2140 C   0  0  0  0  0  0  0  0  0  0  0  0
   10.1520   46.9360   53.5330 C   0  0  0  0  0  0  0  0  0  0  0  0
    7.0800   47.7390   53.6710 N   0  0  0  0  0  0  0  0  0  0  0  0
    5.7710   47.5070   53.9230 C   0  0  0  0  0  0  0  0  0  0  0  0
    5.0430   48.0700   54.8520 O   0  0  0  0  0  0  0  0  0  0  0  0
    3.8330   47.5820   54.8230 N   0  0  0  0  0  0  0  0  0  0  0  0
    3.7840   46.6610   53.8280 C   0  0  0  0  0  0  0  0  0  0  0  0
    2.6070   45.8090   53.5860 C   0  0  0  0  0  0  0  0  0  0  0  0
    1.6770   46.1660   52.5970 C   0  0  0  0  0  0  0  0  0  0  0  0
    0.5610   45.3590   52.3560 C   0  0  0  0  0  0  0  0  0  0  0  0
    0.3560   44.2020   53.1140 C   0  0  0  0  0  0  0  0  0  0  0  0
    1.2620   43.8560   54.1200 C   0  0  0  0  0  0  0  0  0  0  0  0
    2.3800   44.6610   54.3620 C   0  0  0  0  0  0  0  0  0  0  0  0
    5.0300   46.6120   53.2130 C   0  0  0  0  0  0  0  0  0  0  0  0
    4.5424   40.5448   48.2955 H   0  0  0  0  0  0  0  0  0  0  0  0
    5.1090   42.0632   47.5208 H   0  0  0  0  0  0  0  0  0  0  0  0
    6.1619   40.6079   47.5208 H   0  0  0  0  0  0  0  0  0  0  0  0
    6.7959   43.4773   50.2870 H   0  0  0  0  0  0  0  0  0  0  0  0
    7.5720   43.0021   48.7383 H   0  0  0  0  0  0  0  0  0  0  0  0
    5.9091   43.6814   48.7383 H   0  0  0  0  0  0  0  0  0  0  0  0
    7.5650   40.4820   48.9920 H   0  0  0  0  0  0  0  0  0  0  0  0
    4.2930   40.7730   50.3918 H   0  0  0  0  0  0  0  0  0  0  0  0
    5.4589   41.5512   51.5203 H   0  0  0  0  0  0  0  0  0  0  0  0
    5.1720   43.2260   52.2930 H   0  0  0  0  0  0  0  0  0  0  0  0
    7.4615   45.5800   51.0675 H   0  0  0  0  0  0  0  0  0  0  0  0
    8.9673   48.2999   51.9125 H   0  0  0  0  0  0  0  0  0  0  0  0
    9.6945   45.1536   52.1827 H   0  0  0  0  0  0  0  0  0  0  0  0
   10.8424   45.9009   51.4457 H   0  0  0  0  0  0  0  0  0  0  0  0
    9.7773   46.4655   54.4540 H   0  0  0  0  0  0  0  0  0  0  0  0
   10.9397   47.4409   54.1115 H   0  0  0  0  0  0  0  0  0  0  0  0
    1.8268   47.0839   52.0096 H   0  0  0  0  0  0  0  0  0  0  0  0
   -0.1566   45.6346   51.5692 H   0  0  0  0  0  0  0  0  0  0  0  0
   -0.5186   43.5641   52.9183 H   0  0  0  0  0  0  0  0  0  0  0  0
    1.0959   42.9503   54.7218 H   0  0  0  0  0  0  0  0  0  0  0  0
    3.0843   44.3936   55.1635 H   0  0  0  0  0  0  0  0  0  0  0  0
  1  2  1  0
  2  3  1  0
  2  4  1  0
  2  5  1  0
  5  6  1  0
  6  7  1  0
  7  8  1  0
  8  9  2  0
  8 10  1  0
 10 11  2  0
 11 12  1  0
 12 13  1  0
 13 14  1  0
 14 15  1  0
 12 16  2  0
 16 17  1  0
 17 18  1  0
 18 19  1  0
 19 20  2  0
 20 21  1  0
 21 22  2  0
 22 23  1  0
 23 24  2  0
 24 25  1  0
 25 26  2  0
 20 27  1  0
 27 10  1  0
 15 13  1  0
 27 17  2  0
 26 21  1  0
  1 28  1  0
  1 29  1  0
  1 30  1  0
  3 31  1  0
  3 32  1  0
  3 33  1  0
  4 34  1  0
  5 35  1  0
  5 36  1  0
  7 37  1  0
 11 38  1  0
 13 39  1  0
 14 40  1  0
 14 41  1  0
 15 42  1  0
 15 43  1  0
 22 44  1  0
 23 45  1  0
 24 46  1  0
 25 47  1  0
 26 48  1  0
M  END
>  <meeko>  (2) 
{"is_sidechain": [false], "free_energy": -8.246, "intermolecular_energy": -12.6, "internal_energy": -0.727}

$$$$
ligand_34_conformer_2_docked
     RDKit          3D

 48 51  0  0  0  0  0  0  0  0999 V2000
    9.3730   46.4640   52.9790 C   0  0  0  0  0  0  0  0  0  0  0  0
    8.3600   47.6180   53.1270 C   0  0  0  0  0  0  0  0  0  0  0  0
    8.3770   48.4940   51.8610 C   0  0  0  0  0  0  0  0  0  0  0  0
    8.6880   48.4010   54.2500 O   0  0  0  0  0  0  0  0  0  0  0  0
    6.9430   47.0490   53.3320 C   0  0  0  0  0  0  0  0  0  0  0  0
    6.7920   46.6050   54.6600 O   0  0  0  0  0  0  0  0  0  0  0  0
    5.4600   46.4450   54.8710 N   0  0  0  0  0  0  0  0  0  0  0  0
    4.8120   45.2110   54.5400 C   0  0  0  0  0  0  0  0  0  0  0  0
    5.5030   44.1840   54.3070 O   0  0  0  0  0  0  0  0  0  0  0  0
    3.3410   45.1210   54.5120 C   0  0  0  0  0  0  0  0  0  0  0  0
    2.6090   45.2220   55.7160 C   0  0  0  0  0  0  0  0  0  0  0  0
    1.1830   45.2670   55.6950 C   0  0  0  0  0  0  0  0  0  0  0  0
    0.3280   45.3940   56.9390 C   0  0  0  0  0  0  0  0  0  0  0  0
   -1.0880   44.8370   56.8720 C   0  0  0  0  0  0  0  0  0  0  0  0
   -0.8610   46.3440   56.8790 C   0  0  0  0  0  0  0  0  0  0  0  0
    0.5300   45.2070   54.4950 N   0  0  0  0  0  0  0  0  0  0  0  0
    1.2390   45.0830   53.3490 C   0  0  0  0  0  0  0  0  0  0  0  0
    0.7560   45.0050   52.1370 O   0  0  0  0  0  0  0  0  0  0  0  0
    1.7310   44.8620   51.2810 N   0  0  0  0  0  0  0  0  0  0  0  0
    2.8930   44.8450   51.9790 C   0  0  0  0  0  0  0  0  0  0  0  0
    4.1970   44.5690   51.3510 C   0  0  0  0  0  0  0  0  0  0  0  0
    5.0250   45.6340   50.9610 C   0  0  0  0  0  0  0  0  0  0  0  0
    6.2670   45.3790   50.3710 C   0  0  0  0  0  0  0  0  0  0  0  0
    6.6810   44.0620   50.1500 C   0  0  0  0  0  0  0  0  0  0  0  0
    5.8500   42.9990   50.5100 C   0  0  0  0  0  0  0  0  0  0  0  0
    4.6080   43.2490   51.1010 C   0  0  0  0  0  0  0  0  0  0  0  0
    2.5990   45.0120   53.3270 C   0  0  0  0  0  0  0  0  0  0  0  0
    9.6794   46.1149   53.9761 H   0  0  0  0  0  0  0  0  0  0  0  0
    8.9060   45.6346   52.4277 H   0  0  0  0  0  0  0  0  0  0  0  0
   10.2559   46.8196   52.4277 H   0  0  0  0  0  0  0  0  0  0  0  0
    8.3976   49.5552   52.1497 H   0  0  0  0  0  0  0  0  0  0  0  0
    9.2708   48.2589   51.2644 H   0  0  0  0  0  0  0  0  0  0  0  0
    7.4748   48.2937   51.2644 H   0  0  0  0  0  0  0  0  0  0  0  0
    8.6800   49.3550   53.9720 H   0  0  0  0  0  0  0  0  0  0  0  0
    6.2011   47.8339   53.1233 H   0  0  0  0  0  0  0  0  0  0  0  0
    6.7906   46.2016   52.6474 H   0  0  0  0  0  0  0  0  0  0  0  0
    4.8910   47.2650   55.1800 H   0  0  0  0  0  0  0  0  0  0  0  0
    3.1424   45.2663   56.6770 H   0  0  0  0  0  0  0  0  0  0  0  0
    1.1853   45.2637   57.6158 H   0  0  0  0  0  0  0  0  0  0  0  0
   -1.4401   44.3380   55.9571 H   0  0  0  0  0  0  0  0  0  0  0  0
   -1.6780   44.1363   57.4811 H   0  0  0  0  0  0  0  0  0  0  0  0
   -1.0492   46.9328   55.9691 H   0  0  0  0  0  0  0  0  0  0  0  0
   -1.2192   47.1818   57.4952 H   0  0  0  0  0  0  0  0  0  0  0  0
    4.6958   46.6715   51.1200 H   0  0  0  0  0  0  0  0  0  0  0  0
    6.9191   46.2158   50.0804 H   0  0  0  0  0  0  0  0  0  0  0  0
    7.6614   43.8631   49.6925 H   0  0  0  0  0  0  0  0  0  0  0  0
    6.1732   41.9634   50.3283 H   0  0  0  0  0  0  0  0  0  0  0  0
    3.9505   42.4096   51.3711 H   0  0  0  0  0  0  0  0  0  0  0  0
  1  2  1  0
  2  3  1  0
  2  4  1  0
  2  5  1  0
  5  6  1  0
  6  7  1  0
  7  8  1  0
  8  9  2  0
  8 10  1  0
 10 11  2  0
 11 12  1  0
 12 13  1  0
 13 14  1  0
 14 15  1  0
 12 16  2  0
 16 17  1  0
 17 18  1  0
 18 19  1  0
 19 20  2  0
 20 21  1  0
 21 22  2  0
 22 23  1  0
 23 24  2  0
 24 25  1  0
 25 26  2  0
 20 27  1  0
 27 10  1  0
 15 13  1  0
 27 17  2  0
 26 21  1  0
  1 28  1  0
  1 29  1  0
  1 30  1  0
  3 31  1  0
  3 32  1  0
  3 33  1  0
  4 34  1  0
  5 35  1  0
  5 36  1  0
  7 37  1  0
 11 38  1  0
 13 39  1  0
 14 40  1  0
 14 41  1  0
 15 42  1  0
 15 43  1  0
 22 44  1  0
 23 45  1  0
 24 46  1  0
 25 47  1  0
 26 48  1  0
M  END
>  <meeko>  (3) 
{"is_sidechain": [false], "free_energy": -8.152, "intermolecular_energy": -12.14, "internal_energy": -1.058}

$$$$
ligand_34_conformer_2_docked
     RDKit          3D

 48 51  0  0  0  0  0  0  0  0999 V2000
   -0.5550   43.4660   55.3010 C   0  0  0  0  0  0  0  0  0  0  0  0
    0.1800   44.7810   55.6330 C   0  0  0  0  0  0  0  0  0  0  0  0
    0.1530   45.0250   57.1530 C   0  0  0  0  0  0  0  0  0  0  0  0
   -0.4420   45.8560   54.9690 O   0  0  0  0  0  0  0  0  0  0  0  0
    1.6420   44.6990   55.1560 C   0  0  0  0  0  0  0  0  0  0  0  0
    2.1590   45.9950   54.9700 O   0  0  0  0  0  0  0  0  0  0  0  0
    3.3990   45.8510   54.4340 N   0  0  0  0  0  0  0  0  0  0  0  0
    3.8060   46.6420   53.3130 C   0  0  0  0  0  0  0  0  0  0  0  0
    3.1330   47.6560   52.9860 O   0  0  0  0  0  0  0  0  0  0  0  0
    5.0310   46.3090   52.5650 C   0  0  0  0  0  0  0  0  0  0  0  0
    6.1740   47.1280   52.6890 C   0  0  0  0  0  0  0  0  0  0  0  0
    7.4060   46.7510   52.0760 C   0  0  0  0  0  0  0  0  0  0  0  0
    8.6810   47.5640   52.1790 C   0  0  0  0  0  0  0  0  0  0  0  0
    9.9910   46.7960   52.2940 C   0  0  0  0  0  0  0  0  0  0  0  0
    9.4290   47.5320   53.5040 C   0  0  0  0  0  0  0  0  0  0  0  0
    7.4690   45.5860   51.3630 N   0  0  0  0  0  0  0  0  0  0  0  0
    6.3620   44.8200   51.2280 C   0  0  0  0  0  0  0  0  0  0  0  0
    6.2670   43.6930   50.5720 O   0  0  0  0  0  0  0  0  0  0  0  0
    5.0400   43.2500   50.6290 N   0  0  0  0  0  0  0  0  0  0  0  0
    4.3150   44.1370   51.3540 C   0  0  0  0  0  0  0  0  0  0  0  0
    2.8550   44.0290   51.5180 C   0  0  0  0  0  0  0  0  0  0  0  0
    2.2910   42.8310   51.9850 C   0  0  0  0  0  0  0  0  0  0  0  0
    0.9060   42.7230   52.1500 C   0  0  0  0  0  0  0  0  0  0  0  0
    0.0760   43.8020   51.8330 C   0  0  0  0  0  0  0  0  0  0  0  0
    0.6290   44.9870   51.3400 C   0  0  0  0  0  0  0  0  0  0  0  0
    2.0130   45.0990   51.1740 C   0  0  0  0  0  0  0  0  0  0  0  0
    5.1610   45.1570   51.7740 C   0  0  0  0  0  0  0  0  0  0  0  0
   -0.8386   42.9586   56.2349 H   0  0  0  0  0  0  0  0  0  0  0  0
   -1.4592   43.6891   54.7157 H   0  0  0  0  0  0  0  0  0  0  0  0
    0.1087   42.8126   54.7157 H   0  0  0  0  0  0  0  0  0  0  0  0
    0.2592   44.0655   57.6803 H   0  0  0  0  0  0  0  0  0  0  0  0
    0.9830   45.6907   57.4323 H   0  0  0  0  0  0  0  0  0  0  0  0
   -0.8024   45.4931   57.4323 H   0  0  0  0  0  0  0  0  0  0  0  0
    0.2560   46.5320   54.7590 H   0  0  0  0  0  0  0  0  0  0  0  0
    2.2430   44.1716   55.9114 H   0  0  0  0  0  0  0  0  0  0  0  0
    1.6814   44.1531   54.2018 H   0  0  0  0  0  0  0  0  0  0  0  0
    4.0160   45.0820   54.7810 H   0  0  0  0  0  0  0  0  0  0  0  0
    6.1144   48.0645   53.2629 H   0  0  0  0  0  0  0  0  0  0  0  0
    8.2988   48.3588   51.5216 H   0  0  0  0  0  0  0  0  0  0  0  0
    9.9881   45.6963   52.2688 H   0  0  0  0  0  0  0  0  0  0  0  0
   10.9488   46.8056   51.7531 H   0  0  0  0  0  0  0  0  0  0  0  0
    9.0205   46.9636   54.3526 H   0  0  0  0  0  0  0  0  0  0  0  0
    9.8132   48.2933   54.1988 H   0  0  0  0  0  0  0  0  0  0  0  0
    2.9400   41.9750   52.2218 H   0  0  0  0  0  0  0  0  0  0  0  0
    0.4695   41.7875   52.5298 H   0  0  0  0  0  0  0  0  0  0  0  0
   -1.0120   43.7185   51.9715 H   0  0  0  0  0  0  0  0  0  0  0  0
   -0.0253   45.8328   51.0822 H   0  0  0  0  0  0  0  0  0  0  0  0
    2.4436   46.0283   50.7727 H   0  0  0  0  0  0  0  0  0  0  0  0
  1  2  1  0
  2  3  1  0
  2  4  1  0
  2  5  1  0
  5  6  1  0
  6  7  1  0
  7  8  1  0
  8  9  2  0
  8 10  1  0
 10 11  2  0
 11 12  1  0
 12 13  1  0
 13 14  1  0
 14 15  1  0
 12 16  2  0
 16 17  1  0
 17 18  1  0
 18 19  1  0
 19 20  2  0
 20 21  1  0
 21 22  2  0
 22 23  1  0
 23 24  2  0
 24 25  1  0
 25 26  2  0
 20 27  1  0
 27 10  1  0
 15 13  1  0
 27 17  2  0
 26 21  1  0
  1 28  1  0
  1 29  1  0
  1 30  1  0
  3 31  1  0
  3 32  1  0
  3 33  1  0
  4 34  1  0
  5 35  1  0
  5 36  1  0
  7 37  1  0
 11 38  1  0
 13 39  1  0
 14 40  1  0
 14 41  1  0
 15 42  1  0
 15 43  1  0
 22 44  1  0
 23 45  1  0
 24 46  1  0
 25 47  1  0
 26 48  1  0
M  END
>  <meeko>  (4) 
{"is_sidechain": [false], "free_energy": -7.571, "intermolecular_energy": -11.267, "internal_energy": -1.128}

$$$$
ligand_34_conformer_2_docked
     RDKit          3D

 48 51  0  0  0  0  0  0  0  0999 V2000
    4.8480   41.7590   50.4290 C   0  0  0  0  0  0  0  0  0  0  0  0
    5.8520   41.5630   49.2750 C   0  0  0  0  0  0  0  0  0  0  0  0
    5.1650   40.8390   48.1020 C   0  0  0  0  0  0  0  0  0  0  0  0
    6.9520   40.8040   49.7210 O   0  0  0  0  0  0  0  0  0  0  0  0
    6.3720   42.9310   48.7940 C   0  0  0  0  0  0  0  0  0  0  0  0
    6.9410   43.6340   49.8730 O   0  0  0  0  0  0  0  0  0  0  0  0
    6.0250   44.5570   50.2670 N   0  0  0  0  0  0  0  0  0  0  0  0
    5.6670   44.6870   51.6470 C   0  0  0  0  0  0  0  0  0  0  0  0
    6.3830   44.1470   52.5320 O   0  0  0  0  0  0  0  0  0  0  0  0
    4.4950   45.4860   52.0460 C   0  0  0  0  0  0  0  0  0  0  0  0
    3.2000   45.0720   51.6640 C   0  0  0  0  0  0  0  0  0  0  0  0
    2.0470   45.7590   52.1480 C   0  0  0  0  0  0  0  0  0  0  0  0
    0.6260   45.3650   51.8000 C   0  0  0  0  0  0  0  0  0  0  0  0
    0.0060   44.2210   52.5930 C   0  0  0  0  0  0  0  0  0  0  0  0
    0.4140   44.0100   51.1390 C   0  0  0  0  0  0  0  0  0  0  0  0
    2.2080   46.8260   52.9870 N   0  0  0  0  0  0  0  0  0  0  0  0
    3.4540   47.2320   53.3270 C   0  0  0  0  0  0  0  0  0  0  0  0
    3.7630   48.2350   54.1060 O   0  0  0  0  0  0  0  0  0  0  0  0
    5.0600   48.3520   54.1840 N   0  0  0  0  0  0  0  0  0  0  0  0
    5.6080   47.3770   53.4170 C   0  0  0  0  0  0  0  0  0  0  0  0
    7.0560   47.2820   53.1620 C   0  0  0  0  0  0  0  0  0  0  0  0
    7.9240   46.8980   54.1970 C   0  0  0  0  0  0  0  0  0  0  0  0
    9.2990   46.7990   53.9610 C   0  0  0  0  0  0  0  0  0  0  0  0
    9.8170   47.0980   52.6980 C   0  0  0  0  0  0  0  0  0  0  0  0
    8.9620   47.5070   51.6720 C   0  0  0  0  0  0  0  0  0  0  0  0
    7.5870   47.6080   51.9030 C   0  0  0  0  0  0  0  0  0  0  0  0
    4.5800   46.6210   52.8660 C   0  0  0  0  0  0  0  0  0  0  0  0
    5.3710   41.6569   51.3913 H   0  0  0  0  0  0  0  0  0  0  0  0
    4.4005   42.7615   50.3594 H   0  0  0  0  0  0  0  0  0  0  0  0
    4.0563   40.9984   50.3594 H   0  0  0  0  0  0  0  0  0  0  0  0
    4.4578   40.0937   48.4948 H   0  0  0  0  0  0  0  0  0  0  0  0
    4.6218   41.5713   47.4867 H   0  0  0  0  0  0  0  0  0  0  0  0
    5.9248   40.3349   47.4867 H   0  0  0  0  0  0  0  0  0  0  0  0
    7.2570   40.2340   48.9680 H   0  0  0  0  0  0  0  0  0  0  0  0
    7.1342   42.7783   48.0157 H   0  0  0  0  0  0  0  0  0  0  0  0
    5.5335   43.5134   48.3843 H   0  0  0  0  0  0  0  0  0  0  0  0
    5.5040   45.1000   49.5410 H   0  0  0  0  0  0  0  0  0  0  0  0
    3.0793   44.2128   50.9878 H   0  0  0  0  0  0  0  0  0  0  0  0
    0.3328   46.3985   51.5635 H   0  0  0  0  0  0  0  0  0  0  0  0
    0.5766   43.7384   53.4002 H   0  0  0  0  0  0  0  0  0  0  0  0
   -0.9217   44.0860   53.1685 H   0  0  0  0  0  0  0  0  0  0  0  0
    1.2788   43.3747   50.8971 H   0  0  0  0  0  0  0  0  0  0  0  0
   -0.0977   43.6593   50.2306 H   0  0  0  0  0  0  0  0  0  0  0  0
    7.5214   46.6745   55.1960 H   0  0  0  0  0  0  0  0  0  0  0  0
    9.9739   46.4852   54.7710 H   0  0  0  0  0  0  0  0  0  0  0  0
   10.8977   47.0113   52.5119 H   0  0  0  0  0  0  0  0  0  0  0  0
    9.3714   47.7501   50.6804 H   0  0  0  0  0  0  0  0  0  0  0  0
    6.9187   47.9438   51.0964 H   0  0  0  0  0  0  0  0  0  0  0  0
  1  2  1  0
  2  3  1  0
  2  4  1  0
  2  5  1  0
  5  6  1  0
  6  7  1  0
  7  8  1  0
  8  9  2  0
  8 10  1  0
 10 11  2  0
 11 12  1  0
 12 13  1  0
 13 14  1  0
 14 15  1  0
 12 16  2  0
 16 17  1  0
 17 18  1  0
 18 19  1  0
 19 20  2  0
 20 21  1  0
 21 22  2  0
 22 23  1  0
 23 24  2  0
 24 25  1  0
 25 26  2  0
 20 27  1  0
 27 10  1  0
 15 13  1  0
 27 17  2  0
 26 21  1  0
  1 28  1  0
  1 29  1  0
  1 30  1  0
  3 31  1  0
  3 32  1  0
  3 33  1  0
  4 34  1  0
  5 35  1  0
  5 36  1  0
  7 37  1  0
 11 38  1  0
 13 39  1  0
 14 40  1  0
 14 41  1  0
 15 42  1  0
 15 43  1  0
 22 44  1  0
 23 45  1  0
 24 46  1  0
 25 47  1  0
 26 48  1  0
M  END
>  <meeko>  (5) 
{"is_sidechain": [false], "free_energy": -7.266, "intermolecular_energy": -11.267, "internal_energy": -0.707}

$$$$
