ligand_4_conformer_2_docked
     RDKit          3D

 44 47  0  0  0  0  0  0  0  0999 V2000
   10.3560   46.7360   52.7300 C   0  0  0  0  0  0  0  0  0  0  0  0
    9.5130   46.8280   51.6190 C   0  0  0  0  0  0  0  0  0  0  0  0
    8.1670   47.1660   51.7870 C   0  0  0  0  0  0  0  0  0  0  0  0
    7.6580   47.4340   53.0730 C   0  0  0  0  0  0  0  0  0  0  0  0
    6.3160   47.7820   53.2830 O   0  0  0  0  0  0  0  0  0  0  0  0
    5.3130   46.8880   53.6810 C   0  0  0  0  0  0  0  0  0  0  0  0
    4.3290   47.3110   54.5750 C   0  0  0  0  0  0  0  0  0  0  0  0
    3.3310   46.4090   54.9430 C   0  0  0  0  0  0  0  0  0  0  0  0
    3.3260   45.1530   54.4290 N   0  0  0  0  0  0  0  0  0  0  0  0
    4.2840   44.7540   53.5500 C   0  0  0  0  0  0  0  0  0  0  0  0
    4.2560   43.4220   53.0190 N   0  0  0  0  0  0  0  0  0  0  0  0
    3.9800   43.1510   51.6010 C   0  0  2  0  0  0  0  0  0  0  0  0
    3.7400   41.6370   51.3700 C   0  0  0  0  0  0  0  0  0  0  0  0
    4.0860   41.2350   49.9330 C   0  0  0  0  0  0  0  0  0  0  0  0
    5.5910   41.4330   49.6640 C   0  0  1  0  0  0  0  0  0  0  0  0
    5.8220   41.5200   48.2740 O   0  0  0  0  0  0  0  0  0  0  0  0
    6.6040   42.6690   48.0350 C   0  0  0  0  0  0  0  0  0  0  0  0
    7.1650   43.1790   49.3460 C   0  0  0  0  0  0  0  0  0  0  0  0
    6.1820   42.6680   50.3630 C   0  0  1  0  0  0  0  0  0  0  0  0
    5.1100   43.7250   50.7070 C   0  0  0  0  0  0  0  0  0  0  0  0
    5.2620   45.6240   53.1800 N   0  0  0  0  0  0  0  0  0  0  0  0
    8.5050   47.3140   54.1820 C   0  0  0  0  0  0  0  0  0  0  0  0
    9.8500   46.9730   54.0110 C   0  0  0  0  0  0  0  0  0  0  0  0
   11.4167   46.4773   52.5963 H   0  0  0  0  0  0  0  0  0  0  0  0
    9.9091   46.6342   50.6113 H   0  0  0  0  0  0  0  0  0  0  0  0
    7.5029   47.2229   50.9119 H   0  0  0  0  0  0  0  0  0  0  0  0
    4.3401   48.3334   54.9807 H   0  0  0  0  0  0  0  0  0  0  0  0
    2.5469   46.7160   55.6508 H   0  0  0  0  0  0  0  0  0  0  0  0
    4.4080   42.6300   53.6830 H   0  0  0  0  0  0  0  0  0  0  0  0
    3.0524   43.6653   51.3095 H   0  0  0  0  0  0  0  0  0  0  0  0
    4.3709   41.0634   52.0650 H   0  0  0  0  0  0  0  0  0  0  0  0
    2.6756   41.4220   51.5455 H   0  0  0  0  0  0  0  0  0  0  0  0
    3.8273   40.1767   49.7810 H   0  0  0  0  0  0  0  0  0  0  0  0
    3.5144   41.8688   49.2390 H   0  0  0  0  0  0  0  0  0  0  0  0
    6.1012   40.5553   50.0875 H   0  0  0  0  0  0  0  0  0  0  0  0
    7.4314   42.4148   47.3562 H   0  0  0  0  0  0  0  0  0  0  0  0
    5.9792   43.4489   47.5752 H   0  0  0  0  0  0  0  0  0  0  0  0
    8.1702   42.7718   49.5298 H   0  0  0  0  0  0  0  0  0  0  0  0
    7.2802   44.2727   49.3693 H   0  0  0  0  0  0  0  0  0  0  0  0
    6.6373   42.4314   51.3360 H   0  0  0  0  0  0  0  0  0  0  0  0
    5.5929   44.5579   51.2391 H   0  0  0  0  0  0  0  0  0  0  0  0
    4.6541   44.0600   49.7636 H   0  0  0  0  0  0  0  0  0  0  0  0
    8.1096   47.4891   55.1935 H   0  0  0  0  0  0  0  0  0  0  0  0
   10.5112   46.8911   54.8863 H   0  0  0  0  0  0  0  0  0  0  0  0
  1  2  2  0
  2  3  1  0
  3  4  2  0
  4  5  1  0
  5  6  1  0
  6  7  2  0
  7  8  1  0
  8  9  2  0
  9 10  1  0
 10 11  1  0
 11 12  1  0
 12 13  1  0
 13 14  1  0
 14 15  1  0
 15 16  1  0
 16 17  1  0
 17 18  1  0
 18 19  1  0
 19 20  1  0
 10 21  2  0
  4 22  1  0
 22 23  2  0
 23  1  1  0
 21  6  1  0
 20 12  1  0
 19 15  1  0
  1 24  1  0
  2 25  1  0
  3 26  1  0
  7 27  1  0
  8 28  1  0
 11 29  1  0
 12 30  1  6
 13 31  1  0
 13 32  1  0
 14 33  1  0
 14 34  1  0
 15 35  1  1
 17 36  1  0
 17 37  1  0
 18 38  1  0
 18 39  1  0
 19 40  1  1
 20 41  1  0
 20 42  1  0
 22 43  1  0
 23 44  1  0
M  END
>  <meeko>  (1) 
{"is_sidechain": [false], "free_energy": -9.425, "intermolecular_energy": -11.629, "internal_energy": -0.496}

$$$$
ligand_4_conformer_2_docked
     RDKit          3D

 44 47  0  0  0  0  0  0  0  0999 V2000
   10.2480   46.2840   52.1410 C   0  0  0  0  0  0  0  0  0  0  0  0
   10.1710   47.0330   53.3180 C   0  0  0  0  0  0  0  0  0  0  0  0
    8.9600   47.6230   53.6950 C   0  0  0  0  0  0  0  0  0  0  0  0
    7.8090   47.4500   52.9020 C   0  0  0  0  0  0  0  0  0  0  0  0
    6.5750   48.0190   53.2480 O   0  0  0  0  0  0  0  0  0  0  0  0
    5.4470   47.2940   53.6530 C   0  0  0  0  0  0  0  0  0  0  0  0
    5.4010   46.7550   54.9390 C   0  0  0  0  0  0  0  0  0  0  0  0
    4.2610   46.0500   55.3260 C   0  0  0  0  0  0  0  0  0  0  0  0
    3.2240   45.9070   54.4610 N   0  0  0  0  0  0  0  0  0  0  0  0
    3.2750   46.4450   53.2120 C   0  0  0  0  0  0  0  0  0  0  0  0
    2.1670   46.2810   52.3180 N   0  0  0  0  0  0  0  0  0  0  0  0
    2.0710   45.1440   51.3920 C   0  0  2  0  0  0  0  0  0  0  0  0
    1.3690   43.9420   52.0720 C   0  0  0  0  0  0  0  0  0  0  0  0
    1.8040   42.6160   51.4400 C   0  0  0  0  0  0  0  0  0  0  0  0
    3.3070   42.3720   51.6790 C   0  0  1  0  0  0  0  0  0  0  0  0
    3.7970   41.4420   50.7360 O   0  0  0  0  0  0  0  0  0  0  0  0
    4.9560   41.9880   50.1490 C   0  0  0  0  0  0  0  0  0  0  0  0
    5.4170   43.1830   50.9580 C   0  0  0  0  0  0  0  0  0  0  0  0
    4.1530   43.6540   51.6250 C   0  0  1  0  0  0  0  0  0  0  0  0
    3.4690   44.7830   50.8260 C   0  0  0  0  0  0  0  0  0  0  0  0
    4.3800   47.1360   52.8240 N   0  0  0  0  0  0  0  0  0  0  0  0
    7.9030   46.7170   51.7110 C   0  0  0  0  0  0  0  0  0  0  0  0
    9.1160   46.1310   51.3350 C   0  0  0  0  0  0  0  0  0  0  0  0
   11.1990   45.8149   51.8487 H   0  0  0  0  0  0  0  0  0  0  0  0
   11.0634   47.1588   53.9487 H   0  0  0  0  0  0  0  0  0  0  0  0
    8.9065   48.2245   54.6145 H   0  0  0  0  0  0  0  0  0  0  0  0
    6.2451   46.8831   55.6326 H   0  0  0  0  0  0  0  0  0  0  0  0
    4.2021   45.6097   56.3323 H   0  0  0  0  0  0  0  0  0  0  0  0
    1.4280   47.0200   52.3180 H   0  0  0  0  0  0  0  0  0  0  0  0
    1.4451   45.4303   50.5340 H   0  0  0  0  0  0  0  0  0  0  0  0
    1.6291   43.9324   53.1408 H   0  0  0  0  0  0  0  0  0  0  0  0
    0.2827   44.0518   51.9379 H   0  0  0  0  0  0  0  0  0  0  0  0
    1.2277   41.7942   51.8900 H   0  0  0  0  0  0  0  0  0  0  0  0
    1.6184   42.6602   50.3567 H   0  0  0  0  0  0  0  0  0  0  0  0
    3.3995   41.9745   52.7005 H   0  0  0  0  0  0  0  0  0  0  0  0
    5.7511   41.2281   50.1319 H   0  0  0  0  0  0  0  0  0  0  0  0
    4.7308   42.3064   49.1205 H   0  0  0  0  0  0  0  0  0  0  0  0
    6.1702   42.8880   51.7034 H   0  0  0  0  0  0  0  0  0  0  0  0
    5.8970   43.9601   50.3450 H   0  0  0  0  0  0  0  0  0  0  0  0
    4.3178   44.0992   52.6173 H   0  0  0  0  0  0  0  0  0  0  0  0
    4.1070   45.6783   50.8626 H   0  0  0  0  0  0  0  0  0  0  0  0
    3.3318   44.4281   49.7939 H   0  0  0  0  0  0  0  0  0  0  0  0
    7.0177   46.6020   51.0684 H   0  0  0  0  0  0  0  0  0  0  0  0
    9.1794   45.5489   50.4038 H   0  0  0  0  0  0  0  0  0  0  0  0
  1  2  2  0
  2  3  1  0
  3  4  2  0
  4  5  1  0
  5  6  1  0
  6  7  2  0
  7  8  1  0
  8  9  2  0
  9 10  1  0
 10 11  1  0
 11 12  1  0
 12 13  1  0
 13 14  1  0
 14 15  1  0
 15 16  1  0
 16 17  1  0
 17 18  1  0
 18 19  1  0
 19 20  1  0
 10 21  2  0
  4 22  1  0
 22 23  2  0
 23  1  1  0
 21  6  1  0
 20 12  1  0
 19 15  1  0
  1 24  1  0
  2 25  1  0
  3 26  1  0
  7 27  1  0
  8 28  1  0
 11 29  1  0
 12 30  1  6
 13 31  1  0
 13 32  1  0
 14 33  1  0
 14 34  1  0
 15 35  1  1
 17 36  1  0
 17 37  1  0
 18 38  1  0
 18 39  1  0
 19 40  1  1
 20 41  1  0
 20 42  1  0
 22 43  1  0
 23 44  1  0
M  END
>  <meeko>  (2) 
{"is_sidechain": [false], "free_energy": -9.079, "intermolecular_energy": -11.071, "internal_energy": -0.627}

$$$$
ligand_4_conformer_2_docked
     RDKit          3D

 44 47  0  0  0  0  0  0  0  0999 V2000
    9.3780   47.6770   54.1450 C   0  0  0  0  0  0  0  0  0  0  0  0
    8.4350   48.3780   53.3890 C   0  0  0  0  0  0  0  0  0  0  0  0
    8.0850   47.9280   52.1120 C   0  0  0  0  0  0  0  0  0  0  0  0
    8.6670   46.7560   51.5890 C   0  0  0  0  0  0  0  0  0  0  0  0
    8.3390   46.2680   50.3160 O   0  0  0  0  0  0  0  0  0  0  0  0
    7.6800   45.0560   50.0720 C   0  0  0  0  0  0  0  0  0  0  0  0
    8.2110   44.1580   49.1450 C   0  0  0  0  0  0  0  0  0  0  0  0
    7.5460   42.9510   48.9300 C   0  0  0  0  0  0  0  0  0  0  0  0
    6.4110   42.6670   49.6210 N   0  0  0  0  0  0  0  0  0  0  0  0
    5.9080   43.5450   50.5300 C   0  0  0  0  0  0  0  0  0  0  0  0
    4.7100   43.2210   51.2490 N   0  0  0  0  0  0  0  0  0  0  0  0
    3.8550   44.2540   51.8500 C   0  0  2  0  0  0  0  0  0  0  0  0
    3.7390   45.4820   50.9110 C   0  0  0  0  0  0  0  0  0  0  0  0
    3.4390   46.7580   51.7040 C   0  0  0  0  0  0  0  0  0  0  0  0
    4.6130   47.0990   52.6430 C   0  0  1  0  0  0  0  0  0  0  0  0
    4.1680   47.9540   53.6750 O   0  0  0  0  0  0  0  0  0  0  0  0
    4.5940   47.4090   54.9040 C   0  0  0  0  0  0  0  0  0  0  0  0
    5.6200   46.3260   54.6470 C   0  0  0  0  0  0  0  0  0  0  0  0
    5.2880   45.8610   53.2550 C   0  0  1  0  0  0  0  0  0  0  0  0
    4.3630   44.6250   53.2670 C   0  0  0  0  0  0  0  0  0  0  0  0
    6.5480   44.7250   50.7510 N   0  0  0  0  0  0  0  0  0  0  0  0
    9.6300   46.0750   52.3450 C   0  0  0  0  0  0  0  0  0  0  0  0
    9.9800   46.5290   53.6210 C   0  0  0  0  0  0  0  0  0  0  0  0
    9.6467   48.0282   55.1522 H   0  0  0  0  0  0  0  0  0  0  0  0
    7.9672   49.2853   53.7989 H   0  0  0  0  0  0  0  0  0  0  0  0
    7.3531   48.4907   51.5139 H   0  0  0  0  0  0  0  0  0  0  0  0
    9.1338   44.3969   48.5960 H   0  0  0  0  0  0  0  0  0  0  0  0
    7.9406   42.2284   48.2005 H   0  0  0  0  0  0  0  0  0  0  0  0
    4.4710   42.2110   51.3650 H   0  0  0  0  0  0  0  0  0  0  0  0
    2.8378   43.8537   51.9728 H   0  0  0  0  0  0  0  0  0  0  0  0
    4.6877   45.6106   50.3693 H   0  0  0  0  0  0  0  0  0  0  0  0
    2.9120   45.3061   50.2073 H   0  0  0  0  0  0  0  0  0  0  0  0
    3.2823   47.5912   51.0032 H   0  0  0  0  0  0  0  0  0  0  0  0
    2.5349   46.5962   52.3093 H   0  0  0  0  0  0  0  0  0  0  0  0
    5.3719   47.6002   52.0243 H   0  0  0  0  0  0  0  0  0  0  0  0
    5.0438   48.2014   55.5203 H   0  0  0  0  0  0  0  0  0  0  0  0
    3.7310   46.9785   55.4330 H   0  0  0  0  0  0  0  0  0  0  0  0
    6.6415   46.7312   54.6943 H   0  0  0  0  0  0  0  0  0  0  0  0
    5.5884   45.5166   55.3912 H   0  0  0  0  0  0  0  0  0  0  0  0
    6.1645   45.5246   52.6818 H   0  0  0  0  0  0  0  0  0  0  0  0
    4.9206   43.7703   53.6775 H   0  0  0  0  0  0  0  0  0  0  0  0
    3.4861   44.8680   53.8850 H   0  0  0  0  0  0  0  0  0  0  0  0
   10.1140   45.1775   51.9325 H   0  0  0  0  0  0  0  0  0  0  0  0
   10.7293   45.9825   54.2125 H   0  0  0  0  0  0  0  0  0  0  0  0
  1  2  2  0
  2  3  1  0
  3  4  2  0
  4  5  1  0
  5  6  1  0
  6  7  2  0
  7  8  1  0
  8  9  2  0
  9 10  1  0
 10 11  1  0
 11 12  1  0
 12 13  1  0
 13 14  1  0
 14 15  1  0
 15 16  1  0
 16 17  1  0
 17 18  1  0
 18 19  1  0
 19 20  1  0
 10 21  2  0
  4 22  1  0
 22 23  2  0
 23  1  1  0
 21  6  1  0
 20 12  1  0
 19 15  1  0
  1 24  1  0
  2 25  1  0
  3 26  1  0
  7 27  1  0
  8 28  1  0
 11 29  1  0
 12 30  1  1
 13 31  1  0
 13 32  1  0
 14 33  1  0
 14 34  1  0
 15 35  1  6
 17 36  1  0
 17 37  1  0
 18 38  1  0
 18 39  1  0
 19 40  1  6
 20 41  1  0
 20 42  1  0
 22 43  1  0
 23 44  1  0
M  END
>  <meeko>  (3) 
{"is_sidechain": [false], "free_energy": -9.045, "intermolecular_energy": -11.207, "internal_energy": -0.449}

$$$$
ligand_4_conformer_2_docked
     RDKit          3D

 44 47  0  0  0  0  0  0  0  0999 V2000
    9.9090   47.1900   53.5830 C   0  0  0  0  0  0  0  0  0  0  0  0
    8.5820   47.5600   53.8120 C   0  0  0  0  0  0  0  0  0  0  0  0
    7.5860   47.1960   52.9010 C   0  0  0  0  0  0  0  0  0  0  0  0
    7.9120   46.4390   51.7580 C   0  0  0  0  0  0  0  0  0  0  0  0
    6.9420   46.0480   50.8240 O   0  0  0  0  0  0  0  0  0  0  0  0
    6.2810   44.8130   50.8290 C   0  0  0  0  0  0  0  0  0  0  0  0
    6.6450   43.8340   49.9030 C   0  0  0  0  0  0  0  0  0  0  0  0
    5.9840   42.6060   49.9380 C   0  0  0  0  0  0  0  0  0  0  0  0
    5.0150   42.3810   50.8630 N   0  0  0  0  0  0  0  0  0  0  0  0
    4.6750   43.3390   51.7670 C   0  0  0  0  0  0  0  0  0  0  0  0
    3.6500   43.0760   52.7340 N   0  0  0  0  0  0  0  0  0  0  0  0
    2.2340   42.9500   52.3590 C   0  0  2  0  0  0  0  0  0  0  0  0
    1.8530   44.0130   51.2980 C   0  0  0  0  0  0  0  0  0  0  0  0
    0.3590   44.3440   51.3580 C   0  0  0  0  0  0  0  0  0  0  0  0
    0.0050   45.0000   52.7070 C   0  0  1  0  0  0  0  0  0  0  0  0
   -1.3800   44.8730   52.9530 O   0  0  0  0  0  0  0  0  0  0  0  0
   -1.5450   44.3510   54.2520 C   0  0  0  0  0  0  0  0  0  0  0  0
   -0.2300   44.4300   54.9980 C   0  0  0  0  0  0  0  0  0  0  0  0
    0.7920   44.4240   53.8950 C   0  0  1  0  0  0  0  0  0  0  0  0
    1.3310   43.0040   53.6180 C   0  0  0  0  0  0  0  0  0  0  0  0
    5.3140   44.5400   51.7450 N   0  0  0  0  0  0  0  0  0  0  0  0
    9.2500   46.0940   51.5250 C   0  0  0  0  0  0  0  0  0  0  0  0
   10.2440   46.4630   52.4370 C   0  0  0  0  0  0  0  0  0  0  0  0
   10.6906   47.4706   54.3044 H   0  0  0  0  0  0  0  0  0  0  0  0
    8.3201   48.1385   54.7102 H   0  0  0  0  0  0  0  0  0  0  0  0
    6.5441   47.5016   53.0771 H   0  0  0  0  0  0  0  0  0  0  0  0
    7.4352   44.0264   49.1624 H   0  0  0  0  0  0  0  0  0  0  0  0
    6.2477   41.8192   49.2159 H   0  0  0  0  0  0  0  0  0  0  0  0
    3.9340   43.0060   53.7370 H   0  0  0  0  0  0  0  0  0  0  0  0
    2.0698   41.9672   51.8930 H   0  0  0  0  0  0  0  0  0  0  0  0
    2.4315   44.9298   51.4847 H   0  0  0  0  0  0  0  0  0  0  0  0
    2.0803   43.6074   50.3011 H   0  0  0  0  0  0  0  0  0  0  0  0
    0.1088   45.0375   50.5416 H   0  0  0  0  0  0  0  0  0  0  0  0
   -0.2162   43.4122   51.2538 H   0  0  0  0  0  0  0  0  0  0  0  0
    0.2892   46.0592   52.6216 H   0  0  0  0  0  0  0  0  0  0  0  0
   -2.3066   44.9360   54.7883 H   0  0  0  0  0  0  0  0  0  0  0  0
   -1.8676   43.3013   54.1873 H   0  0  0  0  0  0  0  0  0  0  0  0
   -0.1669   45.3555   55.5891 H   0  0  0  0  0  0  0  0  0  0  0  0
   -0.0925   43.6096   55.7178 H   0  0  0  0  0  0  0  0  0  0  0  0
    1.6963   45.0046   54.1298 H   0  0  0  0  0  0  0  0  0  0  0  0
    1.9173   42.6728   54.4878 H   0  0  0  0  0  0  0  0  0  0  0  0
    0.4675   42.3462   53.4400 H   0  0  0  0  0  0  0  0  0  0  0  0
    9.5199   45.5300   50.6200 H   0  0  0  0  0  0  0  0  0  0  0  0
   11.2910   46.1807   52.2522 H   0  0  0  0  0  0  0  0  0  0  0  0
  1  2  2  0
  2  3  1  0
  3  4  2  0
  4  5  1  0
  5  6  1  0
  6  7  2  0
  7  8  1  0
  8  9  2  0
  9 10  1  0
 10 11  1  0
 11 12  1  0
 12 13  1  0
 13 14  1  0
 14 15  1  0
 15 16  1  0
 16 17  1  0
 17 18  1  0
 18 19  1  0
 19 20  1  0
 10 21  2  0
  4 22  1  0
 22 23  2  0
 23  1  1  0
 21  6  1  0
 20 12  1  0
 19 15  1  0
  1 24  1  0
  2 25  1  0
  3 26  1  0
  7 27  1  0
  8 28  1  0
 11 29  1  0
 12 30  1  6
 13 31  1  0
 13 32  1  0
 14 33  1  0
 14 34  1  0
 15 35  1  6
 17 36  1  0
 17 37  1  0
 18 38  1  0
 18 39  1  0
 19 40  1  1
 20 41  1  0
 20 42  1  0
 22 43  1  0
 23 44  1  0
M  END
>  <meeko>  (4) 
{"is_sidechain": [false], "free_energy": -8.917, "intermolecular_energy": -10.904, "internal_energy": -0.594}

$$$$
ligand_4_conformer_2_docked
     RDKit          3D

 44 47  0  0  0  0  0  0  0  0999 V2000
    6.3960   42.6910   49.1750 C   0  0  0  0  0  0  0  0  0  0  0  0
    5.7660   43.4820   50.1380 C   0  0  0  0  0  0  0  0  0  0  0  0
    6.3970   44.6330   50.6230 C   0  0  0  0  0  0  0  0  0  0  0  0
    7.6610   45.0090   50.1290 C   0  0  0  0  0  0  0  0  0  0  0  0
    8.3250   46.1580   50.5830 O   0  0  0  0  0  0  0  0  0  0  0  0
    8.5500   46.4680   51.9300 C   0  0  0  0  0  0  0  0  0  0  0  0
    9.8580   46.5140   52.4170 C   0  0  0  0  0  0  0  0  0  0  0  0
   10.0580   46.8410   53.7580 C   0  0  0  0  0  0  0  0  0  0  0  0
    8.9950   47.1150   54.5580 N   0  0  0  0  0  0  0  0  0  0  0  0
    7.7260   47.0780   54.0700 C   0  0  0  0  0  0  0  0  0  0  0  0
    6.6210   47.3730   54.9350 N   0  0  0  0  0  0  0  0  0  0  0  0
    5.4510   46.4890   55.0390 C   0  0  2  0  0  0  0  0  0  0  0  0
    5.7780   45.0820   54.4780 C   0  0  0  0  0  0  0  0  0  0  0  0
    4.5130   44.3770   53.9790 C   0  0  0  0  0  0  0  0  0  0  0  0
    3.9060   45.1380   52.7840 C   0  0  1  0  0  0  0  0  0  0  0  0
    2.5470   44.7870   52.6330 O   0  0  0  0  0  0  0  0  0  0  0  0
    1.7990   45.9790   52.5420 C   0  0  0  0  0  0  0  0  0  0  0  0
    2.7360   47.1470   52.3140 C   0  0  0  0  0  0  0  0  0  0  0  0
    4.0350   46.6650   52.9000 C   0  0  1  0  0  0  0  0  0  0  0  0
    4.2170   47.1360   54.3580 C   0  0  0  0  0  0  0  0  0  0  0  0
    7.5170   46.7620   52.7640 N   0  0  0  0  0  0  0  0  0  0  0  0
    8.2960   44.1950   49.1810 C   0  0  0  0  0  0  0  0  0  0  0  0
    7.6630   43.0440   48.7010 C   0  0  0  0  0  0  0  0  0  0  0  0
    5.8956   41.7905   48.7895 H   0  0  0  0  0  0  0  0  0  0  0  0
    4.7722   43.1999   50.5159 H   0  0  0  0  0  0  0  0  0  0  0  0
    5.9043   45.2458   51.3923 H   0  0  0  0  0  0  0  0  0  0  0  0
   10.7114   46.2972   51.7577 H   0  0  0  0  0  0  0  0  0  0  0  0
   11.0780   46.8771   54.1683 H   0  0  0  0  0  0  0  0  0  0  0  0
    6.6520   48.2660   55.4770 H   0  0  0  0  0  0  0  0  0  0  0  0
    5.1940   46.3545   56.1001 H   0  0  0  0  0  0  0  0  0  0  0  0
    6.4852   45.1846   53.6417 H   0  0  0  0  0  0  0  0  0  0  0  0
    6.2176   44.4784   55.2858 H   0  0  0  0  0  0  0  0  0  0  0  0
    4.7687   43.3544   53.6646 H   0  0  0  0  0  0  0  0  0  0  0  0
    3.7757   44.3500   54.7949 H   0  0  0  0  0  0  0  0  0  0  0  0
    4.4840   44.8385   51.8973 H   0  0  0  0  0  0  0  0  0  0  0  0
    1.0932   45.9057   51.7015 H   0  0  0  0  0  0  0  0  0  0  0  0
    1.2408   46.1339   53.4771 H   0  0  0  0  0  0  0  0  0  0  0  0
    2.8434   47.3628   51.2407 H   0  0  0  0  0  0  0  0  0  0  0  0
    2.3782   48.0823   52.7691 H   0  0  0  0  0  0  0  0  0  0  0  0
    4.9238   47.0593   52.3857 H   0  0  0  0  0  0  0  0  0  0  0  0
    4.3433   48.2287   54.3630 H   0  0  0  0  0  0  0  0  0  0  0  0
    3.3239   46.8307   54.9229 H   0  0  0  0  0  0  0  0  0  0  0  0
    9.2973   44.4628   48.8127 H   0  0  0  0  0  0  0  0  0  0  0  0
    8.1628   42.4154   47.9493 H   0  0  0  0  0  0  0  0  0  0  0  0
  1  2  2  0
  2  3  1  0
  3  4  2  0
  4  5  1  0
  5  6  1  0
  6  7  2  0
  7  8  1  0
  8  9  2  0
  9 10  1  0
 10 11  1  0
 11 12  1  0
 12 13  1  0
 13 14  1  0
 14 15  1  0
 15 16  1  0
 16 17  1  0
 17 18  1  0
 18 19  1  0
 19 20  1  0
 10 21  2  0
  4 22  1  0
 22 23  2  0
 23  1  1  0
 21  6  1  0
 20 12  1  0
 19 15  1  0
  1 24  1  0
  2 25  1  0
  3 26  1  0
  7 27  1  0
  8 28  1  0
 11 29  1  0
 12 30  1  1
 13 31  1  0
 13 32  1  0
 14 33  1  0
 14 34  1  0
 15 35  1  6
 17 36  1  0
 17 37  1  0
 18 38  1  0
 18 39  1  0
 19 40  1  6
 20 41  1  0
 20 42  1  0
 22 43  1  0
 23 44  1  0
M  END
>  <meeko>  (5) 
{"is_sidechain": [false], "free_energy": -8.868, "intermolecular_energy": -11.013, "internal_energy": -0.424}

$$$$
