ligand_23_conformer_5_docked
     RDKit          3D

 45 47  0  0  0  0  0  0  0  0999 V2000
   -1.0310   43.0670   51.2690 C   0  0  0  0  0  0  0  0  0  0  0  0
    0.1500   42.8370   52.2170 C   0  0  1  0  0  0  0  0  0  0  0  0
    1.2900   43.6620   51.7950 N   0  0  0  0  0  0  0  0  0  0  0  0
    2.4760   43.1110   51.1990 C   0  0  0  0  0  0  0  0  0  0  0  0
    2.4550   41.9410   50.7260 O   0  0  0  0  0  0  0  0  0  0  0  0
    3.7280   43.9010   51.1240 C   0  0  0  0  0  0  0  0  0  0  0  0
    3.6880   45.3000   51.2580 C   0  0  0  0  0  0  0  0  0  0  0  0
    4.8620   46.0540   51.1780 C   0  0  0  0  0  0  0  0  0  0  0  0
    6.0950   45.4230   50.9420 C   0  0  0  0  0  0  0  0  0  0  0  0
    7.2970   46.1440   50.8710 O   0  0  0  0  0  0  0  0  0  0  0  0
    8.1070   46.4840   51.9640 C   0  0  0  0  0  0  0  0  0  0  0  0
    9.5130   46.4460   51.8900 C   0  0  0  0  0  0  0  0  0  0  0  0
   10.2850   46.7750   53.0090 C   0  0  0  0  0  0  0  0  0  0  0  0
    9.6640   47.1310   54.2100 C   0  0  0  0  0  0  0  0  0  0  0  0
   10.6340   47.5400   55.6130 Cl  0  0  0  0  0  0  0  0  0  0  0  0
    8.2680   47.1510   54.2930 C   0  0  0  0  0  0  0  0  0  0  0  0
    7.4940   46.8230   53.1760 C   0  0  0  0  0  0  0  0  0  0  0  0
    6.1390   44.0320   50.8170 C   0  0  0  0  0  0  0  0  0  0  0  0
    4.9660   43.2740   50.8970 C   0  0  0  0  0  0  0  0  0  0  0  0
   -0.2480   43.1100   53.6930 C   0  0  2  0  0  0  0  0  0  0  0  0
   -1.6020   43.7640   53.8960 C   0  0  0  0  0  0  0  0  0  0  0  0
   -1.4720   44.4450   55.2480 C   0  0  0  0  0  0  0  0  0  0  0  0
   -0.0490   44.6890   55.5060 N   0  0  0  0  0  0  0  0  0  0  0  0
    0.7080   44.0410   54.4300 C   0  0  0  0  0  0  0  0  0  0  0  0
   -1.9437   43.2447   51.8567 H   0  0  0  0  0  0  0  0  0  0  0  0
   -0.8270   43.9423   50.6348 H   0  0  0  0  0  0  0  0  0  0  0  0
   -1.1704   42.1791   50.6348 H   0  0  0  0  0  0  0  0  0  0  0  0
    0.4494   41.7798   52.1642 H   0  0  0  0  0  0  0  0  0  0  0  0
    1.2300   44.6960   51.9260 H   0  0  0  0  0  0  0  0  0  0  0  0
    2.7254   45.8049   51.4271 H   0  0  0  0  0  0  0  0  0  0  0  0
    4.8205   47.1464   51.3004 H   0  0  0  0  0  0  0  0  0  0  0  0
   10.0052   46.1568   50.9497 H   0  0  0  0  0  0  0  0  0  0  0  0
   11.3829   46.7536   52.9440 H   0  0  0  0  0  0  0  0  0  0  0  0
    7.7782   47.4253   55.2389 H   0  0  0  0  0  0  0  0  0  0  0  0
    6.3965   46.8314   53.2499 H   0  0  0  0  0  0  0  0  0  0  0  0
    7.1037   43.5290   50.6544 H   0  0  0  0  0  0  0  0  0  0  0  0
    5.0123   42.1810   50.7817 H   0  0  0  0  0  0  0  0  0  0  0  0
   -0.2374   42.0834   54.0880 H   0  0  0  0  0  0  0  0  0  0  0  0
   -1.8053   44.4996   53.1039 H   0  0  0  0  0  0  0  0  0  0  0  0
   -2.4335   43.0448   53.8584 H   0  0  0  0  0  0  0  0  0  0  0  0
   -2.0172   45.4003   55.2372 H   0  0  0  0  0  0  0  0  0  0  0  0
   -1.8959   43.8058   56.0365 H   0  0  0  0  0  0  0  0  0  0  0  0
    0.1280   45.7200   55.4690 H   0  0  0  0  0  0  0  0  0  0  0  0
    1.1012   44.8001   53.7377 H   0  0  0  0  0  0  0  0  0  0  0  0
    1.5586   43.4769   54.8403 H   0  0  0  0  0  0  0  0  0  0  0  0
  1  2  1  0
  2  3  1  0
  3  4  1  0
  4  5  2  0
  4  6  1  0
  6  7  2  0
  7  8  1  0
  8  9  2  0
  9 10  1  0
 10 11  1  0
 11 12  2  0
 12 13  1  0
 13 14  2  0
 14 15  1  0
 14 16  1  0
 16 17  2  0
  9 18  1  0
 18 19  2  0
  2 20  1  0
 20 21  1  0
 21 22  1  0
 22 23  1  0
 23 24  1  0
 19  6  1  0
 24 20  1  0
 17 11  1  0
  1 25  1  0
  1 26  1  0
  1 27  1  0
  2 28  1  1
  3 29  1  0
  7 30  1  0
  8 31  1  0
 12 32  1  0
 13 33  1  0
 16 34  1  0
 17 35  1  0
 18 36  1  0
 19 37  1  0
 20 38  1  1
 21 39  1  0
 21 40  1  0
 22 41  1  0
 22 42  1  0
 23 43  1  0
 24 44  1  0
 24 45  1  0
M  END
>  <meeko>  (1) 
{"is_sidechain": [false], "free_energy": -8.546, "intermolecular_energy": -11.044, "internal_energy": -0.7}

$$$$
ligand_23_conformer_5_docked
     RDKit          3D

 45 47  0  0  0  0  0  0  0  0999 V2000
   10.1580   45.5740   51.3710 C   0  0  0  0  0  0  0  0  0  0  0  0
    9.0810   46.6120   51.7050 C   0  0  1  0  0  0  0  0  0  0  0  0
    7.7950   45.9350   51.9210 N   0  0  0  0  0  0  0  0  0  0  0  0
    7.0090   45.3900   50.8480 C   0  0  0  0  0  0  0  0  0  0  0  0
    7.5400   45.1880   49.7210 O   0  0  0  0  0  0  0  0  0  0  0  0
    5.5800   45.0500   51.0470 C   0  0  0  0  0  0  0  0  0  0  0  0
    4.5970   46.0510   50.9530 C   0  0  0  0  0  0  0  0  0  0  0  0
    3.2490   45.7420   51.1500 C   0  0  0  0  0  0  0  0  0  0  0  0
    2.8610   44.4290   51.4660 C   0  0  0  0  0  0  0  0  0  0  0  0
    1.5160   44.0770   51.6550 O   0  0  0  0  0  0  0  0  0  0  0  0
    0.8110   44.1790   52.8640 C   0  0  0  0  0  0  0  0  0  0  0  0
   -0.4660   43.6120   53.0320 C   0  0  0  0  0  0  0  0  0  0  0  0
   -1.1440   43.7520   54.2470 C   0  0  0  0  0  0  0  0  0  0  0  0
   -0.5600   44.4670   55.2980 C   0  0  0  0  0  0  0  0  0  0  0  0
   -1.4130   44.6440   56.8200 Cl  0  0  0  0  0  0  0  0  0  0  0  0
    0.7010   45.0480   55.1280 C   0  0  0  0  0  0  0  0  0  0  0  0
    1.3800   44.9090   53.9140 C   0  0  0  0  0  0  0  0  0  0  0  0
    3.8360   43.4300   51.5530 C   0  0  0  0  0  0  0  0  0  0  0  0
    5.1850   43.7350   51.3560 C   0  0  0  0  0  0  0  0  0  0  0  0
    9.4910   47.4800   52.9250 C   0  0  2  0  0  0  0  0  0  0  0  0
   10.2470   46.7550   54.0220 C   0  0  0  0  0  0  0  0  0  0  0  0
    9.9800   47.5960   55.2580 C   0  0  0  0  0  0  0  0  0  0  0  0
    8.7350   48.3430   55.0460 N   0  0  0  0  0  0  0  0  0  0  0  0
    8.3140   48.1080   53.6620 C   0  0  0  0  0  0  0  0  0  0  0  0
   10.5784   45.1688   52.3033 H   0  0  0  0  0  0  0  0  0  0  0  0
    9.7110   44.7574   50.7850 H   0  0  0  0  0  0  0  0  0  0  0  0
   10.9576   46.0508   50.7850 H   0  0  0  0  0  0  0  0  0  0  0  0
    8.9721   47.3008   50.8543 H   0  0  0  0  0  0  0  0  0  0  0  0
    7.4410   45.8390   52.8980 H   0  0  0  0  0  0  0  0  0  0  0  0
    4.8918   47.0854   50.7225 H   0  0  0  0  0  0  0  0  0  0  0  0
    2.4875   46.5304   51.0573 H   0  0  0  0  0  0  0  0  0  0  0  0
   -0.9324   43.0568   52.2048 H   0  0  0  0  0  0  0  0  0  0  0  0
   -2.1381   43.2992   54.3765 H   0  0  0  0  0  0  0  0  0  0  0  0
    1.1593   45.6155   55.9513 H   0  0  0  0  0  0  0  0  0  0  0  0
    2.3673   45.3761   53.7831 H   0  0  0  0  0  0  0  0  0  0  0  0
    3.5381   42.3954   51.7785 H   0  0  0  0  0  0  0  0  0  0  0  0
    5.9430   42.9426   51.4429 H   0  0  0  0  0  0  0  0  0  0  0  0
   10.1301   48.2226   52.4249 H   0  0  0  0  0  0  0  0  0  0  0  0
    9.8637   45.7323   54.1529 H   0  0  0  0  0  0  0  0  0  0  0  0
   11.3195   46.6480   53.8022 H   0  0  0  0  0  0  0  0  0  0  0  0
    9.8770   46.9430   56.1372 H   0  0  0  0  0  0  0  0  0  0  0  0
   10.8146   48.2912   55.4313 H   0  0  0  0  0  0  0  0  0  0  0  0
    8.0010   47.9650   55.6910 H   0  0  0  0  0  0  0  0  0  0  0  0
    7.4515   47.4255   53.6426 H   0  0  0  0  0  0  0  0  0  0  0  0
    8.0159   49.0520   53.1823 H   0  0  0  0  0  0  0  0  0  0  0  0
  1  2  1  0
  2  3  1  0
  3  4  1  0
  4  5  2  0
  4  6  1  0
  6  7  2  0
  7  8  1  0
  8  9  2  0
  9 10  1  0
 10 11  1  0
 11 12  2  0
 12 13  1  0
 13 14  2  0
 14 15  1  0
 14 16  1  0
 16 17  2  0
  9 18  1  0
 18 19  2  0
  2 20  1  0
 20 21  1  0
 21 22  1  0
 22 23  1  0
 23 24  1  0
 19  6  1  0
 24 20  1  0
 17 11  1  0
  1 25  1  0
  1 26  1  0
  1 27  1  0
  2 28  1  6
  3 29  1  0
  7 30  1  0
  8 31  1  0
 12 32  1  0
 13 33  1  0
 16 34  1  0
 17 35  1  0
 18 36  1  0
 19 37  1  0
 20 38  1  6
 21 39  1  0
 21 40  1  0
 22 41  1  0
 22 42  1  0
 23 43  1  0
 24 44  1  0
 24 45  1  0
M  END
>  <meeko>  (2) 
{"is_sidechain": [false], "free_energy": -8.42, "intermolecular_energy": -11.115, "internal_energy": -0.467}

$$$$
ligand_23_conformer_5_docked
     RDKit          3D

 45 47  0  0  0  0  0  0  0  0999 V2000
    8.7210   47.1640   54.2970 C   0  0  0  0  0  0  0  0  0  0  0  0
    7.3080   47.0040   53.7280 C   0  0  1  0  0  0  0  0  0  0  0  0
    7.3160   45.9890   52.6670 N   0  0  0  0  0  0  0  0  0  0  0  0
    6.2400   45.8330   51.7260 C   0  0  0  0  0  0  0  0  0  0  0  0
    5.4000   46.7620   51.5730 O   0  0  0  0  0  0  0  0  0  0  0  0
    6.1070   44.5960   50.9200 C   0  0  0  0  0  0  0  0  0  0  0  0
    5.0640   43.6910   51.1840 C   0  0  0  0  0  0  0  0  0  0  0  0
    4.9360   42.5170   50.4370 C   0  0  0  0  0  0  0  0  0  0  0  0
    5.8640   42.2170   49.4250 C   0  0  0  0  0  0  0  0  0  0  0  0
    5.7600   41.0570   48.6430 O   0  0  0  0  0  0  0  0  0  0  0  0
    4.9710   40.9200   47.4920 C   0  0  0  0  0  0  0  0  0  0  0  0
    5.3310   41.5130   46.2660 C   0  0  0  0  0  0  0  0  0  0  0  0
    4.5080   41.3680   45.1450 C   0  0  0  0  0  0  0  0  0  0  0  0
    3.3160   40.6420   45.2400 C   0  0  0  0  0  0  0  0  0  0  0  0
    2.2830   40.4620   43.8340 Cl  0  0  0  0  0  0  0  0  0  0  0  0
    2.9450   40.0670   46.4600 C   0  0  0  0  0  0  0  0  0  0  0  0
    3.7670   40.2110   47.5820 C   0  0  0  0  0  0  0  0  0  0  0  0
    6.8970   43.1190   49.1550 C   0  0  0  0  0  0  0  0  0  0  0  0
    7.0270   44.2950   49.9000 C   0  0  0  0  0  0  0  0  0  0  0  0
    6.2830   46.6680   54.8450 C   0  0  2  0  0  0  0  0  0  0  0  0
    5.9240   45.2000   54.9850 C   0  0  0  0  0  0  0  0  0  0  0  0
    4.5560   45.2280   55.6440 C   0  0  0  0  0  0  0  0  0  0  0  0
    3.9300   46.5220   55.3530 N   0  0  0  0  0  0  0  0  0  0  0  0
    4.9310   47.3480   54.6700 C   0  0  0  0  0  0  0  0  0  0  0  0
    8.6764   47.1590   55.3961 H   0  0  0  0  0  0  0  0  0  0  0  0
    9.3517   46.3315   53.9518 H   0  0  0  0  0  0  0  0  0  0  0  0
    9.1496   48.1164   53.9518 H   0  0  0  0  0  0  0  0  0  0  0  0
    6.9888   47.9609   53.2893 H   0  0  0  0  0  0  0  0  0  0  0  0
    8.1440   45.3580   52.5890 H   0  0  0  0  0  0  0  0  0  0  0  0
    4.3426   43.9089   51.9853 H   0  0  0  0  0  0  0  0  0  0  0  0
    4.1058   41.8250   50.6418 H   0  0  0  0  0  0  0  0  0  0  0  0
    6.2630   42.0923   46.1903 H   0  0  0  0  0  0  0  0  0  0  0  0
    4.7981   41.8252   44.1875 H   0  0  0  0  0  0  0  0  0  0  0  0
    2.0051   39.5007   46.5369 H   0  0  0  0  0  0  0  0  0  0  0  0
    3.4659   39.7645   48.5412 H   0  0  0  0  0  0  0  0  0  0  0  0
    7.6139   42.9018   48.3494 H   0  0  0  0  0  0  0  0  0  0  0  0
    7.8537   44.9887   49.6870 H   0  0  0  0  0  0  0  0  0  0  0  0
    6.8338   47.0295   55.7259 H   0  0  0  0  0  0  0  0  0  0  0  0
    5.8757   44.7119   54.0004 H   0  0  0  0  0  0  0  0  0  0  0  0
    6.6662   44.6320   55.5650 H   0  0  0  0  0  0  0  0  0  0  0  0
    3.9332   44.4150   55.2425 H   0  0  0  0  0  0  0  0  0  0  0  0
    4.6565   45.0920   56.7309 H   0  0  0  0  0  0  0  0  0  0  0  0
    3.1220   46.3670   54.7050 H   0  0  0  0  0  0  0  0  0  0  0  0
    4.6861   47.4271   53.6005 H   0  0  0  0  0  0  0  0  0  0  0  0
    4.9502   48.3629   55.0939 H   0  0  0  0  0  0  0  0  0  0  0  0
  1  2  1  0
  2  3  1  0
  3  4  1  0
  4  5  2  0
  4  6  1  0
  6  7  2  0
  7  8  1  0
  8  9  2  0
  9 10  1  0
 10 11  1  0
 11 12  2  0
 12 13  1  0
 13 14  2  0
 14 15  1  0
 14 16  1  0
 16 17  2  0
  9 18  1  0
 18 19  2  0
  2 20  1  0
 20 21  1  0
 21 22  1  0
 22 23  1  0
 23 24  1  0
 19  6  1  0
 24 20  1  0
 17 11  1  0
  1 25  1  0
  1 26  1  0
  1 27  1  0
  2 28  1  6
  3 29  1  0
  7 30  1  0
  8 31  1  0
 12 32  1  0
 13 33  1  0
 16 34  1  0
 17 35  1  0
 18 36  1  0
 19 37  1  0
 20 38  1  1
 21 39  1  0
 21 40  1  0
 22 41  1  0
 22 42  1  0
 23 43  1  0
 24 44  1  0
 24 45  1  0
M  END
>  <meeko>  (3) 
{"is_sidechain": [false], "free_energy": -7.953, "intermolecular_energy": -10.431, "internal_energy": -0.547}

$$$$
ligand_23_conformer_5_docked
     RDKit          3D

 45 47  0  0  0  0  0  0  0  0999 V2000
    4.4470   47.9010   53.5960 C   0  0  0  0  0  0  0  0  0  0  0  0
    5.5760   46.8680   53.5160 C   0  0  1  0  0  0  0  0  0  0  0  0
    5.3400   45.9680   52.3790 N   0  0  0  0  0  0  0  0  0  0  0  0
    5.0090   44.5780   52.5390 C   0  0  0  0  0  0  0  0  0  0  0  0
    4.5970   44.1550   53.6530 O   0  0  0  0  0  0  0  0  0  0  0  0
    5.1380   43.6300   51.4060 C   0  0  0  0  0  0  0  0  0  0  0  0
    4.3100   42.4960   51.3380 C   0  0  0  0  0  0  0  0  0  0  0  0
    4.4310   41.5910   50.2790 C   0  0  0  0  0  0  0  0  0  0  0  0
    5.3970   41.7960   49.2790 C   0  0  0  0  0  0  0  0  0  0  0  0
    5.5380   40.9200   48.1930 O   0  0  0  0  0  0  0  0  0  0  0  0
    4.6510   40.8150   47.1120 C   0  0  0  0  0  0  0  0  0  0  0  0
    3.5050   39.9990   47.1630 C   0  0  0  0  0  0  0  0  0  0  0  0
    2.6550   39.9080   46.0570 C   0  0  0  0  0  0  0  0  0  0  0  0
    2.9460   40.6200   44.8880 C   0  0  0  0  0  0  0  0  0  0  0  0
    1.8790   40.5040   43.5010 Cl  0  0  0  0  0  0  0  0  0  0  0  0
    4.0930   41.4170   44.8260 C   0  0  0  0  0  0  0  0  0  0  0  0
    4.9440   41.5090   45.9320 C   0  0  0  0  0  0  0  0  0  0  0  0
    6.2150   42.9280   49.3400 C   0  0  0  0  0  0  0  0  0  0  0  0
    6.0970   43.8350   50.3970 C   0  0  0  0  0  0  0  0  0  0  0  0
    6.9660   47.5550   53.4330 C   0  0  2  0  0  0  0  0  0  0  0  0
    7.7430   47.3110   52.1530 C   0  0  0  0  0  0  0  0  0  0  0  0
    9.1880   47.5350   52.5630 C   0  0  0  0  0  0  0  0  0  0  0  0
    9.2960   47.3160   54.0090 N   0  0  0  0  0  0  0  0  0  0  0  0
    7.9370   47.1200   54.5240 C   0  0  0  0  0  0  0  0  0  0  0  0
    4.2168   48.1116   54.6508 H   0  0  0  0  0  0  0  0  0  0  0  0
    4.7632   48.8291   53.0973 H   0  0  0  0  0  0  0  0  0  0  0  0
    3.5506   47.5038   53.0973 H   0  0  0  0  0  0  0  0  0  0  0  0
    5.5786   46.2684   54.4382 H   0  0  0  0  0  0  0  0  0  0  0  0
    5.4090   46.3580   51.4130 H   0  0  0  0  0  0  0  0  0  0  0  0
    3.5611   42.3192   52.1240 H   0  0  0  0  0  0  0  0  0  0  0  0
    3.7675   40.7151   50.2284 H   0  0  0  0  0  0  0  0  0  0  0  0
    3.2775   39.4307   48.0769 H   0  0  0  0  0  0  0  0  0  0  0  0
    1.7561   39.2758   46.1057 H   0  0  0  0  0  0  0  0  0  0  0  0
    4.3265   41.9726   43.9058 H   0  0  0  0  0  0  0  0  0  0  0  0
    5.8496   42.1308   45.8744 H   0  0  0  0  0  0  0  0  0  0  0  0
    6.9583   43.1066   48.5490 H   0  0  0  0  0  0  0  0  0  0  0  0
    6.7574   44.7137   50.4402 H   0  0  0  0  0  0  0  0  0  0  0  0
    6.6646   48.6092   53.5212 H   0  0  0  0  0  0  0  0  0  0  0  0
    7.5922   46.2829   51.7921 H   0  0  0  0  0  0  0  0  0  0  0  0
    7.4261   47.9676   51.3293 H   0  0  0  0  0  0  0  0  0  0  0  0
    9.8398   46.8272   52.0300 H   0  0  0  0  0  0  0  0  0  0  0  0
    9.4989   48.5596   52.3108 H   0  0  0  0  0  0  0  0  0  0  0  0
    9.8500   46.4430   54.1780 H   0  0  0  0  0  0  0  0  0  0  0  0
    7.7772   46.0593   54.7678 H   0  0  0  0  0  0  0  0  0  0  0  0
    7.7808   47.7101   55.4391 H   0  0  0  0  0  0  0  0  0  0  0  0
  1  2  1  0
  2  3  1  0
  3  4  1  0
  4  5  2  0
  4  6  1  0
  6  7  2  0
  7  8  1  0
  8  9  2  0
  9 10  1  0
 10 11  1  0
 11 12  2  0
 12 13  1  0
 13 14  2  0
 14 15  1  0
 14 16  1  0
 16 17  2  0
  9 18  1  0
 18 19  2  0
  2 20  1  0
 20 21  1  0
 21 22  1  0
 22 23  1  0
 23 24  1  0
 19  6  1  0
 24 20  1  0
 17 11  1  0
  1 25  1  0
  1 26  1  0
  1 27  1  0
  2 28  1  1
  3 29  1  0
  7 30  1  0
  8 31  1  0
 12 32  1  0
 13 33  1  0
 16 34  1  0
 17 35  1  0
 18 36  1  0
 19 37  1  0
 20 38  1  1
 21 39  1  0
 21 40  1  0
 22 41  1  0
 22 42  1  0
 23 43  1  0
 24 44  1  0
 24 45  1  0
M  END
>  <meeko>  (4) 
{"is_sidechain": [false], "free_energy": -7.494, "intermolecular_energy": -9.542, "internal_energy": -0.843}

$$$$
ligand_23_conformer_5_docked
     RDKit          3D

 45 47  0  0  0  0  0  0  0  0999 V2000
    8.3580   48.2880   51.9830 C   0  0  0  0  0  0  0  0  0  0  0  0
    7.9070   46.8250   52.0350 C   0  0  1  0  0  0  0  0  0  0  0  0
    6.4650   46.7630   52.3080 N   0  0  0  0  0  0  0  0  0  0  0  0
    5.9180   46.8110   53.6360 C   0  0  0  0  0  0  0  0  0  0  0  0
    6.6280   47.2270   54.5930 O   0  0  0  0  0  0  0  0  0  0  0  0
    4.5230   46.3850   53.9010 C   0  0  0  0  0  0  0  0  0  0  0  0
    4.2020   45.7270   55.1010 C   0  0  0  0  0  0  0  0  0  0  0  0
    2.8910   45.3130   55.3540 C   0  0  0  0  0  0  0  0  0  0  0  0
    1.8820   45.5310   54.4010 C   0  0  0  0  0  0  0  0  0  0  0  0
    0.5520   45.1440   54.6260 O   0  0  0  0  0  0  0  0  0  0  0  0
   -0.1950   44.2880   53.8040 C   0  0  0  0  0  0  0  0  0  0  0  0
    0.2380   42.9850   53.4950 C   0  0  0  0  0  0  0  0  0  0  0  0
   -0.5280   42.1680   52.6570 C   0  0  0  0  0  0  0  0  0  0  0  0
   -1.7230   42.6480   52.1120 C   0  0  0  0  0  0  0  0  0  0  0  0
   -2.6810   41.6230   51.0590 Cl  0  0  0  0  0  0  0  0  0  0  0  0
   -2.1480   43.9490   52.4010 C   0  0  0  0  0  0  0  0  0  0  0  0
   -1.3830   44.7670   53.2380 C   0  0  0  0  0  0  0  0  0  0  0  0
    2.1970   46.1920   53.2100 C   0  0  0  0  0  0  0  0  0  0  0  0
    3.5070   46.6090   52.9540 C   0  0  0  0  0  0  0  0  0  0  0  0
    8.2830   46.0710   50.7310 C   0  0  2  0  0  0  0  0  0  0  0  0
    7.2910   45.0190   50.2710 C   0  0  0  0  0  0  0  0  0  0  0  0
    8.1320   44.0790   49.4250 C   0  0  0  0  0  0  0  0  0  0  0  0
    9.5300   44.2050   49.8480 N   0  0  0  0  0  0  0  0  0  0  0  0
    9.5970   45.3040   50.8170 C   0  0  0  0  0  0  0  0  0  0  0  0
    8.4763   48.6718   53.0070 H   0  0  0  0  0  0  0  0  0  0  0  0
    9.3191   48.3568   51.4523 H   0  0  0  0  0  0  0  0  0  0  0  0
    7.6025   48.8860   51.4523 H   0  0  0  0  0  0  0  0  0  0  0  0
    8.4368   46.3165   52.8540 H   0  0  0  0  0  0  0  0  0  0  0  0
    5.8080   46.6890   51.4990 H   0  0  0  0  0  0  0  0  0  0  0  0
    4.9882   45.5365   55.8464 H   0  0  0  0  0  0  0  0  0  0  0  0
    2.6482   44.8141   56.3038 H   0  0  0  0  0  0  0  0  0  0  0  0
    1.1824   42.6077   53.9141 H   0  0  0  0  0  0  0  0  0  0  0  0
   -0.1900   41.1469   52.4265 H   0  0  0  0  0  0  0  0  0  0  0  0
   -3.0855   44.3291   51.9691 H   0  0  0  0  0  0  0  0  0  0  0  0
   -1.7163   45.7930   53.4532 H   0  0  0  0  0  0  0  0  0  0  0  0
    1.4080   46.3856   52.4683 H   0  0  0  0  0  0  0  0  0  0  0  0
    3.7445   47.1151   52.0067 H   0  0  0  0  0  0  0  0  0  0  0  0
    8.3230   46.9151   50.0267 H   0  0  0  0  0  0  0  0  0  0  0  0
    6.8541   44.4890   51.1303 H   0  0  0  0  0  0  0  0  0  0  0  0
    6.4413   45.4461   49.7182 H   0  0  0  0  0  0  0  0  0  0  0  0
    7.7915   43.0431   49.5699 H   0  0  0  0  0  0  0  0  0  0  0  0
    8.0336   44.3370   48.3602 H   0  0  0  0  0  0  0  0  0  0  0  0
    9.8200   43.3180   50.3250 H   0  0  0  0  0  0  0  0  0  0  0  0
    9.7316   44.9021   51.8321 H   0  0  0  0  0  0  0  0  0  0  0  0
   10.4472   45.9656   50.5944 H   0  0  0  0  0  0  0  0  0  0  0  0
  1  2  1  0
  2  3  1  0
  3  4  1  0
  4  5  2  0
  4  6  1  0
  6  7  2  0
  7  8  1  0
  8  9  2  0
  9 10  1  0
 10 11  1  0
 11 12  2  0
 12 13  1  0
 13 14  2  0
 14 15  1  0
 14 16  1  0
 16 17  2  0
  9 18  1  0
 18 19  2  0
  2 20  1  0
 20 21  1  0
 21 22  1  0
 22 23  1  0
 23 24  1  0
 19  6  1  0
 24 20  1  0
 17 11  1  0
  1 25  1  0
  1 26  1  0
  1 27  1  0
  2 28  1  1
  3 29  1  0
  7 30  1  0
  8 31  1  0
 12 32  1  0
 13 33  1  0
 16 34  1  0
 17 35  1  0
 18 36  1  0
 19 37  1  0
 20 38  1  6
 21 39  1  0
 21 40  1  0
 22 41  1  0
 22 42  1  0
 23 43  1  0
 24 44  1  0
 24 45  1  0
M  END
>  <meeko>  (5) 
{"is_sidechain": [false], "free_energy": -7.46, "intermolecular_energy": -9.624, "internal_energy": -0.717}

$$$$
