ligand_52_conformer_5_docked
     RDKit          3D

 43 46  0  0  0  0  0  0  0  0999 V2000
   -3.0650   45.3440   54.8600 C   0  0  0  0  0  0  0  0  0  0  0  0
   -1.9570   44.5190   55.5360 C   0  0  0  0  0  0  0  0  0  0  0  0
   -1.1320   43.6390   54.5710 C   0  0  0  0  0  0  0  0  0  0  0  0
   -0.3060   44.4540   53.6840 N   0  0  0  0  0  0  0  0  0  0  0  0
    0.9570   44.8580   53.9010 C   0  0  0  0  0  0  0  0  0  0  0  0
    1.3000   45.6350   52.8140 C   0  0  0  0  0  0  0  0  0  0  0  0
    2.5770   46.3250   52.5660 C   0  0  0  0  0  0  0  0  0  0  0  0
    2.6140   47.5840   52.6270 O   0  0  0  0  0  0  0  0  0  0  0  0
    3.7710   45.5890   52.2620 N   0  0  0  0  0  0  0  0  0  0  0  0
    5.0360   46.2710   52.0090 C   0  0  2  0  0  0  0  0  0  0  0  0
    5.8190   45.6910   50.8350 C   0  0  0  0  0  0  0  0  0  0  0  0
    6.2520   45.3880   52.2670 C   0  0  1  0  0  0  0  0  0  0  0  0
    7.5130   46.0750   52.7620 C   0  0  0  0  0  0  0  0  0  0  0  0
    7.5720   46.8440   53.9460 C   0  0  0  0  0  0  0  0  0  0  0  0
    8.7720   47.4450   54.3400 C   0  0  0  0  0  0  0  0  0  0  0  0
    9.9220   47.2900   53.5670 C   0  0  0  0  0  0  0  0  0  0  0  0
    9.8780   46.5330   52.3940 C   0  0  0  0  0  0  0  0  0  0  0  0
   10.9970   46.3830   51.6420 F   0  0  0  0  0  0  0  0  0  0  0  0
    8.6820   45.9290   51.9940 C   0  0  0  0  0  0  0  0  0  0  0  0
    0.2430   45.6820   51.9770 N   0  0  0  0  0  0  0  0  0  0  0  0
   -0.7180   44.9580   52.5310 N   0  0  0  0  0  0  0  0  0  0  0  0
   -2.4310   43.7740   56.7730 C   0  0  0  0  0  0  0  0  0  0  0  0
   -1.6380   44.5570   57.6330 O   0  0  0  0  0  0  0  0  0  0  0  0
   -1.1340   45.3000   56.5470 C   0  0  0  0  0  0  0  0  0  0  0  0
   -3.6948   45.8129   55.6304 H   0  0  0  0  0  0  0  0  0  0  0  0
   -2.6100   46.1250   54.2331 H   0  0  0  0  0  0  0  0  0  0  0  0
   -3.6827   44.6842   54.2331 H   0  0  0  0  0  0  0  0  0  0  0  0
   -0.4801   42.9763   55.1591 H   0  0  0  0  0  0  0  0  0  0  0  0
   -1.8290   43.0524   53.9545 H   0  0  0  0  0  0  0  0  0  0  0  0
    1.5889   44.6180   54.7688 H   0  0  0  0  0  0  0  0  0  0  0  0
    3.7270   44.5570   52.1150 H   0  0  0  0  0  0  0  0  0  0  0  0
    4.7218   47.2809   52.3112 H   0  0  0  0  0  0  0  0  0  0  0  0
    5.3746   44.8983   50.2152 H   0  0  0  0  0  0  0  0  0  0  0  0
    6.3117   46.1101   49.9453 H   0  0  0  0  0  0  0  0  0  0  0  0
    6.4387   44.4730   52.8484 H   0  0  0  0  0  0  0  0  0  0  0  0
    6.6691   46.9707   54.5613 H   0  0  0  0  0  0  0  0  0  0  0  0
    8.8086   48.0421   55.2631 H   0  0  0  0  0  0  0  0  0  0  0  0
   10.8638   47.7638   53.8809 H   0  0  0  0  0  0  0  0  0  0  0  0
    8.6553   45.3337   51.0694 H   0  0  0  0  0  0  0  0  0  0  0  0
   -3.5104   43.8758   56.9588 H   0  0  0  0  0  0  0  0  0  0  0  0
   -2.3291   42.6792   56.8058 H   0  0  0  0  0  0  0  0  0  0  0  0
   -1.3917   46.3685   56.5900 H   0  0  0  0  0  0  0  0  0  0  0  0
   -0.0449   45.3671   56.4082 H   0  0  0  0  0  0  0  0  0  0  0  0
  1  2  1  0
  2  3  1  0
  3  4  1  0
  4  5  1  0
  5  6  2  0
  6  7  1  0
  7  8  2  0
  7  9  1  0
  9 10  1  0
 10 11  1  0
 11 12  1  0
 12 13  1  0
 13 14  2  0
 14 15  1  0
 15 16  2  0
 16 17  1  0
 17 18  1  0
 17 19  2  0
  6 20  1  0
 20 21  2  0
  2 22  1  0
 22 23  1  0
 23 24  1  0
 24  2  1  0
 21  4  1  0
 12 10  1  0
 19 13  1  0
  1 25  1  0
  1 26  1  0
  1 27  1  0
  3 28  1  0
  3 29  1  0
  5 30  1  0
  9 31  1  0
 10 32  1  6
 11 33  1  0
 11 34  1  0
 12 35  1  1
 14 36  1  0
 15 37  1  0
 16 38  1  0
 19 39  1  0
 22 40  1  0
 22 41  1  0
 24 42  1  0
 24 43  1  0
M  END
>  <meeko>  (1) 
{"is_sidechain": [false], "free_energy": -8.354, "intermolecular_energy": -10.796, "internal_energy": 0.047}

$$$$
ligand_52_conformer_5_docked
     RDKit          3D

 43 46  0  0  0  0  0  0  0  0999 V2000
   -0.4380   42.0560   52.7210 C   0  0  0  0  0  0  0  0  0  0  0  0
   -1.3890   43.0540   52.0380 C   0  0  0  0  0  0  0  0  0  0  0  0
   -1.5920   44.3770   52.8080 C   0  0  0  0  0  0  0  0  0  0  0  0
   -0.3290   44.8800   53.3410 N   0  0  0  0  0  0  0  0  0  0  0  0
    0.7200   45.3370   52.6370 C   0  0  0  0  0  0  0  0  0  0  0  0
    1.6900   45.6590   53.5640 C   0  0  0  0  0  0  0  0  0  0  0  0
    3.0370   46.1960   53.3100 C   0  0  0  0  0  0  0  0  0  0  0  0
    3.5630   46.9590   54.1660 O   0  0  0  0  0  0  0  0  0  0  0  0
    3.7550   45.8640   52.1130 N   0  0  0  0  0  0  0  0  0  0  0  0
    5.0870   46.4000   51.8550 C   0  0  2  0  0  0  0  0  0  0  0  0
    5.8870   45.5880   50.8400 C   0  0  0  0  0  0  0  0  0  0  0  0
    6.2040   45.4770   52.3300 C   0  0  1  0  0  0  0  0  0  0  0  0
    7.4880   46.1340   52.8090 C   0  0  0  0  0  0  0  0  0  0  0  0
    7.5870   46.8750   54.0080 C   0  0  0  0  0  0  0  0  0  0  0  0
    8.8050   47.4480   54.3860 C   0  0  0  0  0  0  0  0  0  0  0  0
    9.9340   47.2940   53.5810 C   0  0  0  0  0  0  0  0  0  0  0  0
    9.8490   46.5650   52.3930 C   0  0  0  0  0  0  0  0  0  0  0  0
   10.9470   46.4160   51.6110 F   0  0  0  0  0  0  0  0  0  0  0  0
    8.6350   45.9880   52.0100 C   0  0  0  0  0  0  0  0  0  0  0  0
    1.2070   45.3860   54.7930 N   0  0  0  0  0  0  0  0  0  0  0  0
   -0.0200   44.9140   54.6280 N   0  0  0  0  0  0  0  0  0  0  0  0
   -2.6900   42.4210   51.5730 C   0  0  0  0  0  0  0  0  0  0  0  0
   -2.3750   42.6070   50.2130 O   0  0  0  0  0  0  0  0  0  0  0  0
   -1.1480   43.2140   50.5470 C   0  0  0  0  0  0  0  0  0  0  0  0
   -0.5290   42.1515   53.8131 H   0  0  0  0  0  0  0  0  0  0  0  0
   -0.7027   41.0319   52.4191 H   0  0  0  0  0  0  0  0  0  0  0  0
    0.5977   42.2711   52.4191 H   0  0  0  0  0  0  0  0  0  0  0  0
   -2.0169   45.1274   52.1251 H   0  0  0  0  0  0  0  0  0  0  0  0
   -2.2733   44.1873   53.6505 H   0  0  0  0  0  0  0  0  0  0  0  0
    0.7912   45.4347   51.5437 H   0  0  0  0  0  0  0  0  0  0  0  0
    3.2890   45.3130   51.3580 H   0  0  0  0  0  0  0  0  0  0  0  0
    4.8437   47.4654   51.9801 H   0  0  0  0  0  0  0  0  0  0  0  0
    5.4142   44.7457   50.3138 H   0  0  0  0  0  0  0  0  0  0  0  0
    6.4673   45.8263   49.9364 H   0  0  0  0  0  0  0  0  0  0  0  0
    6.2748   44.6510   53.0530 H   0  0  0  0  0  0  0  0  0  0  0  0
    6.7010   47.0017   54.6475 H   0  0  0  0  0  0  0  0  0  0  0  0
    8.8734   48.0224   55.3216 H   0  0  0  0  0  0  0  0  0  0  0  0
   10.8904   47.7465   53.8819 H   0  0  0  0  0  0  0  0  0  0  0  0
    8.5767   45.4137   51.0736 H   0  0  0  0  0  0  0  0  0  0  0  0
   -2.7892   41.3634   51.8589 H   0  0  0  0  0  0  0  0  0  0  0  0
   -3.6412   42.8178   51.9573 H   0  0  0  0  0  0  0  0  0  0  0  0
   -0.2712   42.6584   50.1830 H   0  0  0  0  0  0  0  0  0  0  0  0
   -0.9247   44.2149   50.1492 H   0  0  0  0  0  0  0  0  0  0  0  0
  1  2  1  0
  2  3  1  0
  3  4  1  0
  4  5  1  0
  5  6  2  0
  6  7  1  0
  7  8  2  0
  7  9  1  0
  9 10  1  0
 10 11  1  0
 11 12  1  0
 12 13  1  0
 13 14  2  0
 14 15  1  0
 15 16  2  0
 16 17  1  0
 17 18  1  0
 17 19  2  0
  6 20  1  0
 20 21  2  0
  2 22  1  0
 22 23  1  0
 23 24  1  0
 24  2  1  0
 21  4  1  0
 12 10  1  0
 19 13  1  0
  1 25  1  0
  1 26  1  0
  1 27  1  0
  3 28  1  0
  3 29  1  0
  5 30  1  0
  9 31  1  0
 10 32  1  6
 11 33  1  0
 11 34  1  0
 12 35  1  1
 14 36  1  0
 15 37  1  0
 16 38  1  0
 19 39  1  0
 22 40  1  0
 22 41  1  0
 24 42  1  0
 24 43  1  0
M  END
>  <meeko>  (2) 
{"is_sidechain": [false], "free_energy": -8.047, "intermolecular_energy": -10.348, "internal_energy": -0.004}

$$$$
ligand_52_conformer_5_docked
     RDKit          3D

 43 46  0  0  0  0  0  0  0  0999 V2000
   -3.4830   45.8450   55.5700 C   0  0  0  0  0  0  0  0  0  0  0  0
   -2.3000   44.8620   55.5930 C   0  0  0  0  0  0  0  0  0  0  0  0
   -2.1070   44.0600   54.2870 C   0  0  0  0  0  0  0  0  0  0  0  0
   -0.8220   44.3630   53.6630 N   0  0  0  0  0  0  0  0  0  0  0  0
    0.3650   43.7990   53.9430 C   0  0  0  0  0  0  0  0  0  0  0  0
    1.2880   44.4330   53.1360 C   0  0  0  0  0  0  0  0  0  0  0  0
    2.7380   44.1900   53.0630 C   0  0  0  0  0  0  0  0  0  0  0  0
    3.1520   43.1060   52.5700 O   0  0  0  0  0  0  0  0  0  0  0  0
    3.6790   45.1650   53.5370 N   0  0  0  0  0  0  0  0  0  0  0  0
    5.1160   44.9230   53.4710 C   0  0  2  0  0  0  0  0  0  0  0  0
    5.7780   44.8010   54.8410 C   0  0  0  0  0  0  0  0  0  0  0  0
    5.9410   46.0800   54.0250 C   0  0  1  0  0  0  0  0  0  0  0  0
    7.3020   46.3220   53.3940 C   0  0  0  0  0  0  0  0  0  0  0  0
    7.5850   46.0880   52.0300 C   0  0  0  0  0  0  0  0  0  0  0  0
    8.8630   46.3380   51.5190 C   0  0  0  0  0  0  0  0  0  0  0  0
    9.8700   46.8220   52.3550 C   0  0  0  0  0  0  0  0  0  0  0  0
    9.6040   47.0580   53.7050 C   0  0  0  0  0  0  0  0  0  0  0  0
   10.5840   47.5270   54.5160 F   0  0  0  0  0  0  0  0  0  0  0  0
    8.3290   46.8100   54.2210 C   0  0  0  0  0  0  0  0  0  0  0  0
    0.6400   45.3580   52.3990 N   0  0  0  0  0  0  0  0  0  0  0  0
   -0.6390   45.2940   52.7400 N   0  0  0  0  0  0  0  0  0  0  0  0
   -2.2620   43.9970   56.8420 C   0  0  0  0  0  0  0  0  0  0  0  0
   -1.0790   44.6020   57.3080 O   0  0  0  0  0  0  0  0  0  0  0  0
   -1.0250   45.4430   56.1790 C   0  0  0  0  0  0  0  0  0  0  0  0
   -3.7769   46.0892   56.6015 H   0  0  0  0  0  0  0  0  0  0  0  0
   -3.1850   46.7651   55.0460 H   0  0  0  0  0  0  0  0  0  0  0  0
   -4.3330   45.3836   55.0460 H   0  0  0  0  0  0  0  0  0  0  0  0
   -2.1490   42.9852   54.5171 H   0  0  0  0  0  0  0  0  0  0  0  0
   -2.9076   44.3397   53.5864 H   0  0  0  0  0  0  0  0  0  0  0  0
    0.5613   42.9954   54.6680 H   0  0  0  0  0  0  0  0  0  0  0  0
    3.3420   46.0200   54.0320 H   0  0  0  0  0  0  0  0  0  0  0  0
    5.1234   44.3257   52.5473 H   0  0  0  0  0  0  0  0  0  0  0  0
    5.1616   44.8045   55.7521 H   0  0  0  0  0  0  0  0  0  0  0  0
    6.4679   44.0845   55.3107 H   0  0  0  0  0  0  0  0  0  0  0  0
    5.7566   47.1492   54.2063 H   0  0  0  0  0  0  0  0  0  0  0  0
    6.7956   45.7068   51.3655 H   0  0  0  0  0  0  0  0  0  0  0  0
    9.0746   46.1526   50.4556 H   0  0  0  0  0  0  0  0  0  0  0  0
   10.8739   47.0177   51.9501 H   0  0  0  0  0  0  0  0  0  0  0  0
    8.1268   46.9987   55.2857 H   0  0  0  0  0  0  0  0  0  0  0  0
   -3.1242   44.1506   57.5076 H   0  0  0  0  0  0  0  0  0  0  0  0
   -2.2921   42.9029   56.7322 H   0  0  0  0  0  0  0  0  0  0  0  0
   -1.1036   46.5122   56.4251 H   0  0  0  0  0  0  0  0  0  0  0  0
   -0.1126   45.4502   55.5646 H   0  0  0  0  0  0  0  0  0  0  0  0
  1  2  1  0
  2  3  1  0
  3  4  1  0
  4  5  1  0
  5  6  2  0
  6  7  1  0
  7  8  2  0
  7  9  1  0
  9 10  1  0
 10 11  1  0
 11 12  1  0
 12 13  1  0
 13 14  2  0
 14 15  1  0
 15 16  2  0
 16 17  1  0
 17 18  1  0
 17 19  2  0
  6 20  1  0
 20 21  2  0
  2 22  1  0
 22 23  1  0
 23 24  1  0
 24  2  1  0
 21  4  1  0
 12 10  1  0
 19 13  1  0
  1 25  1  0
  1 26  1  0
  1 27  1  0
  3 28  1  0
  3 29  1  0
  5 30  1  0
  9 31  1  0
 10 32  1  6
 11 33  1  0
 11 34  1  0
 12 35  1  1
 14 36  1  0
 15 37  1  0
 16 38  1  0
 19 39  1  0
 22 40  1  0
 22 41  1  0
 24 42  1  0
 24 43  1  0
M  END
>  <meeko>  (3) 
{"is_sidechain": [false], "free_energy": -8.025, "intermolecular_energy": -10.265, "internal_energy": -0.059}

$$$$
ligand_52_conformer_5_docked
     RDKit          3D

 43 46  0  0  0  0  0  0  0  0999 V2000
   -1.0840   45.0500   52.3380 C   0  0  0  0  0  0  0  0  0  0  0  0
   -1.4910   43.7740   53.0940 C   0  0  0  0  0  0  0  0  0  0  0  0
   -0.7800   42.4900   52.6130 C   0  0  0  0  0  0  0  0  0  0  0  0
    0.5940   42.7660   52.2020 N   0  0  0  0  0  0  0  0  0  0  0  0
    1.6090   43.1610   52.9890 C   0  0  0  0  0  0  0  0  0  0  0  0
    2.6930   43.3350   52.1540 C   0  0  0  0  0  0  0  0  0  0  0  0
    4.0520   43.7700   52.5190 C   0  0  0  0  0  0  0  0  0  0  0  0
    4.9950   43.5770   51.7050 O   0  0  0  0  0  0  0  0  0  0  0  0
    4.3140   44.4080   53.7770 N   0  0  0  0  0  0  0  0  0  0  0  0
    5.6600   44.8340   54.1440 C   0  0  2  0  0  0  0  0  0  0  0  0
    5.6880   46.0750   55.0330 C   0  0  0  0  0  0  0  0  0  0  0  0
    6.0410   46.1870   53.5520 C   0  0  1  0  0  0  0  0  0  0  0  0
    7.5050   46.4050   53.2100 C   0  0  0  0  0  0  0  0  0  0  0  0
    8.0450   46.2080   51.9190 C   0  0  0  0  0  0  0  0  0  0  0  0
    9.4030   46.4330   51.6790 C   0  0  0  0  0  0  0  0  0  0  0  0
   10.2390   46.8530   52.7140 C   0  0  0  0  0  0  0  0  0  0  0  0
    9.7190   47.0510   53.9950 C   0  0  0  0  0  0  0  0  0  0  0  0
   10.5320   47.4590   55.0000 F   0  0  0  0  0  0  0  0  0  0  0  0
    8.3610   46.8290   54.2410 C   0  0  0  0  0  0  0  0  0  0  0  0
    2.3070   43.0460   50.8940 N   0  0  0  0  0  0  0  0  0  0  0  0
    1.0280   42.7050   50.9530 N   0  0  0  0  0  0  0  0  0  0  0  0
   -2.9950   43.6130   53.2340 C   0  0  0  0  0  0  0  0  0  0  0  0
   -2.9540   43.7870   54.6300 O   0  0  0  0  0  0  0  0  0  0  0  0
   -1.5530   43.9420   54.6020 C   0  0  0  0  0  0  0  0  0  0  0  0
   -0.8321   45.8399   53.0609 H   0  0  0  0  0  0  0  0  0  0  0  0
   -0.2088   44.8384   51.7062 H   0  0  0  0  0  0  0  0  0  0  0  0
   -1.9201   45.3843   51.7062 H   0  0  0  0  0  0  0  0  0  0  0  0
   -0.7682   41.7581   53.4340 H   0  0  0  0  0  0  0  0  0  0  0  0
   -1.3286   42.0936   51.7459 H   0  0  0  0  0  0  0  0  0  0  0  0
    1.5811   43.3144   54.0779 H   0  0  0  0  0  0  0  0  0  0  0  0
    3.5580   44.4840   54.4940 H   0  0  0  0  0  0  0  0  0  0  0  0
    6.1234   43.8372   54.1847 H   0  0  0  0  0  0  0  0  0  0  0  0
    4.7473   46.5042   55.4084 H   0  0  0  0  0  0  0  0  0  0  0  0
    6.1874   46.3466   55.9747 H   0  0  0  0  0  0  0  0  0  0  0  0
    5.6818   46.7950   52.7086 H   0  0  0  0  0  0  0  0  0  0  0  0
    7.3924   45.8756   51.0982 H   0  0  0  0  0  0  0  0  0  0  0  0
    9.8144   46.2785   50.6706 H   0  0  0  0  0  0  0  0  0  0  0  0
   11.3077   47.0282   52.5211 H   0  0  0  0  0  0  0  0  0  0  0  0
    7.9580   46.9878   55.2521 H   0  0  0  0  0  0  0  0  0  0  0  0
   -3.5692   44.3928   52.7123 H   0  0  0  0  0  0  0  0  0  0  0  0
   -3.4730   42.7107   52.8250 H   0  0  0  0  0  0  0  0  0  0  0  0
   -1.2145   44.9301   54.9470 H   0  0  0  0  0  0  0  0  0  0  0  0
   -0.9330   43.2908   55.2357 H   0  0  0  0  0  0  0  0  0  0  0  0
  1  2  1  0
  2  3  1  0
  3  4  1  0
  4  5  1  0
  5  6  2  0
  6  7  1  0
  7  8  2  0
  7  9  1  0
  9 10  1  0
 10 11  1  0
 11 12  1  0
 12 13  1  0
 13 14  2  0
 14 15  1  0
 15 16  2  0
 16 17  1  0
 17 18  1  0
 17 19  2  0
  6 20  1  0
 20 21  2  0
  2 22  1  0
 22 23  1  0
 23 24  1  0
 24  2  1  0
 21  4  1  0
 12 10  1  0
 19 13  1  0
  1 25  1  0
  1 26  1  0
  1 27  1  0
  3 28  1  0
  3 29  1  0
  5 30  1  0
  9 31  1  0
 10 32  1  1
 11 33  1  0
 11 34  1  0
 12 35  1  6
 14 36  1  0
 15 37  1  0
 16 38  1  0
 19 39  1  0
 22 40  1  0
 22 41  1  0
 24 42  1  0
 24 43  1  0
M  END
>  <meeko>  (4) 
{"is_sidechain": [false], "free_energy": -7.947, "intermolecular_energy": -10.475, "internal_energy": 0.252}

$$$$
ligand_52_conformer_5_docked
     RDKit          3D

 43 46  0  0  0  0  0  0  0  0999 V2000
    4.5280   41.5860   44.8160 C   0  0  0  0  0  0  0  0  0  0  0  0
    3.3570   40.6550   45.1770 C   0  0  0  0  0  0  0  0  0  0  0  0
    3.6980   39.5740   46.2260 C   0  0  0  0  0  0  0  0  0  0  0  0
    3.8590   40.1560   47.5550 N   0  0  0  0  0  0  0  0  0  0  0  0
    4.7670   41.0730   47.9320 C   0  0  0  0  0  0  0  0  0  0  0  0
    4.5600   41.2820   49.2800 C   0  0  0  0  0  0  0  0  0  0  0  0
    5.2990   42.1880   50.1750 C   0  0  0  0  0  0  0  0  0  0  0  0
    6.5460   42.0440   50.2970 O   0  0  0  0  0  0  0  0  0  0  0  0
    4.6250   43.2270   50.9000 N   0  0  0  0  0  0  0  0  0  0  0  0
    5.3540   44.1220   51.7930 C   0  0  2  0  0  0  0  0  0  0  0  0
    4.5620   45.3640   52.1920 C   0  0  0  0  0  0  0  0  0  0  0  0
    5.6780   45.4680   51.1540 C   0  0  1  0  0  0  0  0  0  0  0  0
    6.9620   46.1500   51.5940 C   0  0  0  0  0  0  0  0  0  0  0  0
    6.9950   47.3340   52.3640 C   0  0  0  0  0  0  0  0  0  0  0  0
    8.2170   47.9030   52.7340 C   0  0  0  0  0  0  0  0  0  0  0  0
    9.4170   47.3060   52.3460 C   0  0  0  0  0  0  0  0  0  0  0  0
    9.3980   46.1350   51.5840 C   0  0  0  0  0  0  0  0  0  0  0  0
   10.5640   45.5550   51.2070 F   0  0  0  0  0  0  0  0  0  0  0  0
    8.1800   45.5610   51.2110 C   0  0  0  0  0  0  0  0  0  0  0  0
    3.5440   40.4890   49.6800 N   0  0  0  0  0  0  0  0  0  0  0  0
    3.1390   39.8170   48.6130 N   0  0  0  0  0  0  0  0  0  0  0  0
    2.6290   40.1080   43.9610 C   0  0  0  0  0  0  0  0  0  0  0  0
    1.4530   40.8250   44.2570 O   0  0  0  0  0  0  0  0  0  0  0  0
    2.0420   41.3790   45.4100 C   0  0  0  0  0  0  0  0  0  0  0  0
    4.9974   41.9592   45.7381 H   0  0  0  0  0  0  0  0  0  0  0  0
    5.2707   41.0291   44.2259 H   0  0  0  0  0  0  0  0  0  0  0  0
    4.1529   42.4351   44.2259 H   0  0  0  0  0  0  0  0  0  0  0  0
    2.8847   38.8339   46.2551 H   0  0  0  0  0  0  0  0  0  0  0  0
    4.6472   39.0984   45.9382 H   0  0  0  0  0  0  0  0  0  0  0  0
    5.5215   41.5580   47.2952 H   0  0  0  0  0  0  0  0  0  0  0  0
    3.5830   43.2900   50.8780 H   0  0  0  0  0  0  0  0  0  0  0  0
    5.9245   43.3552   52.3376 H   0  0  0  0  0  0  0  0  0  0  0  0
    3.5116   45.4695   51.8830 H   0  0  0  0  0  0  0  0  0  0  0  0
    4.3330   45.8692   53.1419 H   0  0  0  0  0  0  0  0  0  0  0  0
    5.7507   45.8411   50.1218 H   0  0  0  0  0  0  0  0  0  0  0  0
    6.0536   47.8109   52.6742 H   0  0  0  0  0  0  0  0  0  0  0  0
    8.2327   48.8252   53.3335 H   0  0  0  0  0  0  0  0  0  0  0  0
   10.3766   47.7566   52.6396 H   0  0  0  0  0  0  0  0  0  0  0  0
    8.1739   44.6387   50.6115 H   0  0  0  0  0  0  0  0  0  0  0  0
    3.0910   40.3993   43.0062 H   0  0  0  0  0  0  0  0  0  0  0  0
    2.5671   39.0183   43.8240 H   0  0  0  0  0  0  0  0  0  0  0  0
    2.1326   42.4746   45.3722 H   0  0  0  0  0  0  0  0  0  0  0  0
    1.5328   41.2579   46.3775 H   0  0  0  0  0  0  0  0  0  0  0  0
  1  2  1  0
  2  3  1  0
  3  4  1  0
  4  5  1  0
  5  6  2  0
  6  7  1  0
  7  8  2  0
  7  9  1  0
  9 10  1  0
 10 11  1  0
 11 12  1  0
 12 13  1  0
 13 14  2  0
 14 15  1  0
 15 16  2  0
 16 17  1  0
 17 18  1  0
 17 19  2  0
  6 20  1  0
 20 21  2  0
  2 22  1  0
 22 23  1  0
 23 24  1  0
 24  2  1  0
 21  4  1  0
 12 10  1  0
 19 13  1  0
  1 25  1  0
  1 26  1  0
  1 27  1  0
  3 28  1  0
  3 29  1  0
  5 30  1  0
  9 31  1  0
 10 32  1  1
 11 33  1  0
 11 34  1  0
 12 35  1  6
 14 36  1  0
 15 37  1  0
 16 38  1  0
 19 39  1  0
 22 40  1  0
 22 41  1  0
 24 42  1  0
 24 43  1  0
M  END
>  <meeko>  (5) 
{"is_sidechain": [false], "free_energy": -7.847, "intermolecular_energy": -10.088, "internal_energy": -0.006}

$$$$
