ligand_89_conformer_3_docked
     RDKit          3D

 51 54  0  0  0  0  0  0  0  0999 V2000
    1.2640   44.0630   51.7890 O   0  0  0  0  0  0  0  0  0  0  0  0
    1.6020   43.1400   52.5780 C   0  0  0  0  0  0  0  0  0  0  0  0
    0.5400   42.2790   53.2050 C   0  0  0  0  0  0  0  0  0  0  0  0
   -0.3810   43.0300   54.1940 C   0  0  2  0  0  0  0  0  0  0  0  0
   -1.7240   43.4780   53.5470 C   0  0  0  0  0  0  0  0  0  0  0  0
   -2.4800   44.4820   54.4500 C   0  0  1  0  0  0  0  0  0  0  0  0
   -2.7540   43.9030   55.8450 C   0  0  0  0  0  0  0  0  0  0  0  0
   -1.5360   44.3240   56.6640 C   0  0  0  0  0  0  0  0  0  0  0  0
   -0.6730   45.1090   55.6670 C   0  0  1  0  0  0  0  0  0  0  0  0
    0.3380   44.1970   54.9330 C   0  0  0  0  0  0  0  0  0  0  0  0
   -1.6000   45.6260   54.6650 N   0  0  0  0  0  0  0  0  0  0  0  0
    2.9850   42.9290   52.9050 N   0  0  0  0  0  0  0  0  0  0  0  0
    4.0730   43.6520   52.3060 C   0  0  0  0  0  0  0  0  0  0  0  0
    4.4420   44.9300   52.7590 C   0  0  0  0  0  0  0  0  0  0  0  0
    5.4890   45.6220   52.1450 C   0  0  0  0  0  0  0  0  0  0  0  0
    6.1770   45.0550   51.0560 C   0  0  0  0  0  0  0  0  0  0  0  0
    7.2370   45.7160   50.4150 O   0  0  0  0  0  0  0  0  0  0  0  0
    8.6030   45.6180   50.8030 C   0  0  0  0  0  0  0  0  0  0  0  0
    8.8370   46.4940   52.0000 C   0  0  0  0  0  0  0  0  0  0  0  0
    9.6920   46.0800   53.0320 C   0  0  0  0  0  0  0  0  0  0  0  0
    9.8680   46.8890   54.1560 C   0  0  0  0  0  0  0  0  0  0  0  0
    9.1790   48.1000   54.2440 C   0  0  0  0  0  0  0  0  0  0  0  0
    8.3400   48.4790   53.2430 N   0  0  0  0  0  0  0  0  0  0  0  0
    8.1500   47.7100   52.1380 C   0  0  0  0  0  0  0  0  0  0  0  0
    5.7930   43.7890   50.5900 C   0  0  0  0  0  0  0  0  0  0  0  0
    6.6200   43.0540   49.2260 Cl  0  0  0  0  0  0  0  0  0  0  0  0
    4.7430   43.0980   51.2070 C   0  0  0  0  0  0  0  0  0  0  0  0
   -0.0842   41.8609   52.4016 H   0  0  0  0  0  0  0  0  0  0  0  0
    1.0624   41.5040   53.7851 H   0  0  0  0  0  0  0  0  0  0  0  0
   -0.6408   42.2940   54.9691 H   0  0  0  0  0  0  0  0  0  0  0  0
   -1.5128   43.9562   52.5792 H   0  0  0  0  0  0  0  0  0  0  0  0
   -2.3571   42.5884   53.4136 H   0  0  0  0  0  0  0  0  0  0  0  0
   -3.4309   44.7340   53.9578 H   0  0  0  0  0  0  0  0  0  0  0  0
   -3.6763   44.3259   56.2699 H   0  0  0  0  0  0  0  0  0  0  0  0
   -2.8987   42.8127   55.8305 H   0  0  0  0  0  0  0  0  0  0  0  0
   -1.8344   44.9612   57.5096 H   0  0  0  0  0  0  0  0  0  0  0  0
   -1.0035   43.4673   57.1027 H   0  0  0  0  0  0  0  0  0  0  0  0
   -0.1065   45.8871   56.1996 H   0  0  0  0  0  0  0  0  0  0  0  0
    0.8935   44.7977   54.1978 H   0  0  0  0  0  0  0  0  0  0  0  0
    1.0202   43.7652   55.6801 H   0  0  0  0  0  0  0  0  0  0  0  0
   -2.1590   46.4040   55.0930 H   0  0  0  0  0  0  0  0  0  0  0  0
    3.2070   42.2890   53.7020 H   0  0  0  0  0  0  0  0  0  0  0  0
    3.9035   45.3881   53.6017 H   0  0  0  0  0  0  0  0  0  0  0  0
    5.7776   46.6168   52.5153 H   0  0  0  0  0  0  0  0  0  0  0  0
    8.8397   44.5745   51.0581 H   0  0  0  0  0  0  0  0  0  0  0  0
    9.2484   45.9430   49.9736 H   0  0  0  0  0  0  0  0  0  0  0  0
   10.2229   45.1196   52.9558 H   0  0  0  0  0  0  0  0  0  0  0  0
   10.5437   46.5750   54.9653 H   0  0  0  0  0  0  0  0  0  0  0  0
    9.3147   48.7475   55.1228 H   0  0  0  0  0  0  0  0  0  0  0  0
    7.4567   48.0414   51.3509 H   0  0  0  0  0  0  0  0  0  0  0  0
    4.4414   42.1113   50.8255 H   0  0  0  0  0  0  0  0  0  0  0  0
  1  2  2  0
  2  3  1  0
  3  4  1  0
  4  5  1  0
  5  6  1  0
  6  7  1  0
  7  8  1  0
  8  9  1  0
  9 10  1  0
  9 11  1  0
  2 12  1  0
 12 13  1  0
 13 14  2  0
 14 15  1  0
 15 16  2  0
 16 17  1  0
 17 18  1  0
 18 19  1  0
 19 20  2  0
 20 21  1  0
 21 22  2  0
 22 23  1  0
 23 24  2  0
 16 25  1  0
 25 26  1  0
 25 27  2  0
 10  4  1  0
 27 13  1  0
 11  6  1  0
 24 19  1  0
  3 28  1  0
  3 29  1  0
  4 30  1  1
  5 31  1  0
  5 32  1  0
  6 33  1  6
  7 34  1  0
  7 35  1  0
  8 36  1  0
  8 37  1  0
  9 38  1  1
 10 39  1  0
 10 40  1  0
 11 41  1  0
 12 42  1  0
 14 43  1  0
 15 44  1  0
 18 45  1  0
 18 46  1  0
 20 47  1  0
 21 48  1  0
 22 49  1  0
 24 50  1  0
 27 51  1  0
M  END
>  <meeko>  (1) 
{"is_sidechain": [false], "free_energy": -8.82, "intermolecular_energy": -11.914, "internal_energy": -0.498}

$$$$
ligand_89_conformer_3_docked
     RDKit          3D

 51 54  0  0  0  0  0  0  0  0999 V2000
    1.6390   43.5400   53.8190 O   0  0  0  0  0  0  0  0  0  0  0  0
    1.1700   42.7880   52.9220 C   0  0  0  0  0  0  0  0  0  0  0  0
   -0.2070   42.2090   53.0910 C   0  0  0  0  0  0  0  0  0  0  0  0
   -1.3510   43.1720   52.7010 C   0  0  2  0  0  0  0  0  0  0  0  0
   -1.0590   43.9570   51.3890 C   0  0  0  0  0  0  0  0  0  0  0  0
   -2.0580   45.1220   51.1920 C   0  0  1  0  0  0  0  0  0  0  0  0
   -3.5130   44.6330   51.1800 C   0  0  0  0  0  0  0  0  0  0  0  0
   -3.9430   44.7180   52.6430 C   0  0  0  0  0  0  0  0  0  0  0  0
   -2.6970   45.2530   53.3630 C   0  0  1  0  0  0  0  0  0  0  0  0
   -1.7850   44.1090   53.8670 C   0  0  0  0  0  0  0  0  0  0  0  0
   -1.9470   45.9960   52.3550 N   0  0  0  0  0  0  0  0  0  0  0  0
    1.9530   42.4580   51.7630 N   0  0  0  0  0  0  0  0  0  0  0  0
    3.2470   43.0150   51.4800 C   0  0  0  0  0  0  0  0  0  0  0  0
    3.5060   44.3860   51.6440 C   0  0  0  0  0  0  0  0  0  0  0  0
    4.7660   44.9080   51.3390 C   0  0  0  0  0  0  0  0  0  0  0  0
    5.7870   44.0700   50.8520 C   0  0  0  0  0  0  0  0  0  0  0  0
    7.0670   44.5540   50.5400 O   0  0  0  0  0  0  0  0  0  0  0  0
    7.3690   45.9170   50.2580 C   0  0  0  0  0  0  0  0  0  0  0  0
    8.0390   46.5290   51.4530 C   0  0  0  0  0  0  0  0  0  0  0  0
    9.3770   46.2350   51.7510 C   0  0  0  0  0  0  0  0  0  0  0  0
    9.9740   46.7810   52.8880 C   0  0  0  0  0  0  0  0  0  0  0  0
    9.2230   47.6090   53.7250 C   0  0  0  0  0  0  0  0  0  0  0  0
    7.9210   47.8690   53.4340 N   0  0  0  0  0  0  0  0  0  0  0  0
    7.3160   47.3500   52.3320 C   0  0  0  0  0  0  0  0  0  0  0  0
    5.5190   42.7050   50.6680 C   0  0  0  0  0  0  0  0  0  0  0  0
    6.7640   41.6300   50.0500 Cl  0  0  0  0  0  0  0  0  0  0  0  0
    4.2560   42.1860   50.9720 C   0  0  0  0  0  0  0  0  0  0  0  0
   -0.2830   41.3101   52.4615 H   0  0  0  0  0  0  0  0  0  0  0  0
   -0.3289   41.9905   54.1622 H   0  0  0  0  0  0  0  0  0  0  0  0
   -2.2173   42.5278   52.4900 H   0  0  0  0  0  0  0  0  0  0  0  0
   -0.0386   44.3651   51.4360 H   0  0  0  0  0  0  0  0  0  0  0  0
   -1.1646   43.2642   50.5411 H   0  0  0  0  0  0  0  0  0  0  0  0
   -1.8224   45.6143   50.2369 H   0  0  0  0  0  0  0  0  0  0  0  0
   -4.1387   45.2825   50.5501 H   0  0  0  0  0  0  0  0  0  0  0  0
   -3.6155   43.6188   50.7667 H   0  0  0  0  0  0  0  0  0  0  0  0
   -4.7908   45.4086   52.7623 H   0  0  0  0  0  0  0  0  0  0  0  0
   -4.2817   43.7508   53.0427 H   0  0  0  0  0  0  0  0  0  0  0  0
   -3.0008   45.8558   54.2315 H   0  0  0  0  0  0  0  0  0  0  0  0
   -0.8869   44.5446   54.3292 H   0  0  0  0  0  0  0  0  0  0  0  0
   -2.3503   43.5125   54.5982 H   0  0  0  0  0  0  0  0  0  0  0  0
   -2.4530   46.8920   52.1520 H   0  0  0  0  0  0  0  0  0  0  0  0
    1.6090   41.6870   51.1450 H   0  0  0  0  0  0  0  0  0  0  0  0
    2.7129   45.0521   52.0144 H   0  0  0  0  0  0  0  0  0  0  0  0
    4.9613   45.9812   51.4805 H   0  0  0  0  0  0  0  0  0  0  0  0
    8.0418   45.9731   49.3896 H   0  0  0  0  0  0  0  0  0  0  0  0
    6.4411   46.4633   50.0333 H   0  0  0  0  0  0  0  0  0  0  0  0
    9.9559   45.5743   51.0889 H   0  0  0  0  0  0  0  0  0  0  0  0
   11.0260   46.5613   53.1227 H   0  0  0  0  0  0  0  0  0  0  0  0
    9.6852   48.0509   54.6200 H   0  0  0  0  0  0  0  0  0  0  0  0
    6.2583   47.5741   52.1294 H   0  0  0  0  0  0  0  0  0  0  0  0
    4.0531   41.1170   50.8107 H   0  0  0  0  0  0  0  0  0  0  0  0
  1  2  2  0
  2  3  1  0
  3  4  1  0
  4  5  1  0
  5  6  1  0
  6  7  1  0
  7  8  1  0
  8  9  1  0
  9 10  1  0
  9 11  1  0
  2 12  1  0
 12 13  1  0
 13 14  2  0
 14 15  1  0
 15 16  2  0
 16 17  1  0
 17 18  1  0
 18 19  1  0
 19 20  2  0
 20 21  1  0
 21 22  2  0
 22 23  1  0
 23 24  2  0
 16 25  1  0
 25 26  1  0
 25 27  2  0
 10  4  1  0
 27 13  1  0
 11  6  1  0
 24 19  1  0
  3 28  1  0
  3 29  1  0
  4 30  1  6
  5 31  1  0
  5 32  1  0
  6 33  1  6
  7 34  1  0
  7 35  1  0
  8 36  1  0
  8 37  1  0
  9 38  1  1
 10 39  1  0
 10 40  1  0
 11 41  1  0
 12 42  1  0
 14 43  1  0
 15 44  1  0
 18 45  1  0
 18 46  1  0
 20 47  1  0
 21 48  1  0
 22 49  1  0
 24 50  1  0
 27 51  1  0
M  END
>  <meeko>  (2) 
{"is_sidechain": [false], "free_energy": -8.564, "intermolecular_energy": -11.624, "internal_energy": -0.442}

$$$$
ligand_89_conformer_3_docked
     RDKit          3D

 51 54  0  0  0  0  0  0  0  0999 V2000
    0.4200   43.3410   52.5860 O   0  0  0  0  0  0  0  0  0  0  0  0
    0.0030   44.4950   52.8730 C   0  0  0  0  0  0  0  0  0  0  0  0
   -1.4370   44.6850   53.2620 C   0  0  0  0  0  0  0  0  0  0  0  0
   -1.6420   45.1640   54.7170 C   0  0  2  0  0  0  0  0  0  0  0  0
   -0.4170   44.8650   55.6290 C   0  0  0  0  0  0  0  0  0  0  0  0
   -0.7620   45.0660   57.1240 C   0  0  1  0  0  0  0  0  0  0  0  0
   -1.2750   46.4850   57.4080 C   0  0  0  0  0  0  0  0  0  0  0  0
   -2.7880   46.3710   57.2350 C   0  0  0  0  0  0  0  0  0  0  0  0
   -3.0080   44.8970   56.8710 C   0  0  1  0  0  0  0  0  0  0  0  0
   -2.9800   44.6680   55.3410 C   0  0  0  0  0  0  0  0  0  0  0  0
   -1.8740   44.1760   57.4410 N   0  0  0  0  0  0  0  0  0  0  0  0
    0.8840   45.6280   52.7990 N   0  0  0  0  0  0  0  0  0  0  0  0
    2.2880   45.5390   52.5060 C   0  0  0  0  0  0  0  0  0  0  0  0
    2.7850   45.7870   51.2160 C   0  0  0  0  0  0  0  0  0  0  0  0
    4.1520   45.6700   50.9500 C   0  0  0  0  0  0  0  0  0  0  0  0
    5.0460   45.2890   51.9680 C   0  0  0  0  0  0  0  0  0  0  0  0
    6.4260   45.1660   51.7430 O   0  0  0  0  0  0  0  0  0  0  0  0
    7.2740   46.2290   51.3210 C   0  0  0  0  0  0  0  0  0  0  0  0
    8.0840   46.7050   52.4910 C   0  0  0  0  0  0  0  0  0  0  0  0
    9.4720   46.5030   52.5310 C   0  0  0  0  0  0  0  0  0  0  0  0
   10.2050   46.9160   53.6440 C   0  0  0  0  0  0  0  0  0  0  0  0
    9.5420   47.5190   54.7150 C   0  0  0  0  0  0  0  0  0  0  0  0
    8.1940   47.6920   54.6710 N   0  0  0  0  0  0  0  0  0  0  0  0
    7.4570   47.2980   53.5980 C   0  0  0  0  0  0  0  0  0  0  0  0
    4.5450   45.0200   53.2510 C   0  0  0  0  0  0  0  0  0  0  0  0
    5.6290   44.5310   54.5440 Cl  0  0  0  0  0  0  0  0  0  0  0  0
    3.1760   45.1360   53.5130 C   0  0  0  0  0  0  0  0  0  0  0  0
   -1.8811   45.4316   52.5872 H   0  0  0  0  0  0  0  0  0  0  0  0
   -1.9186   43.6992   53.1828 H   0  0  0  0  0  0  0  0  0  0  0  0
   -1.7231   46.2593   54.6566 H   0  0  0  0  0  0  0  0  0  0  0  0
   -0.1000   43.8234   55.4720 H   0  0  0  0  0  0  0  0  0  0  0  0
    0.3902   45.5636   55.3636 H   0  0  0  0  0  0  0  0  0  0  0  0
    0.1479   44.8739   57.7116 H   0  0  0  0  0  0  0  0  0  0  0  0
   -1.0206   46.7953   58.4322 H   0  0  0  0  0  0  0  0  0  0  0  0
   -0.8279   47.2384   56.7428 H   0  0  0  0  0  0  0  0  0  0  0  0
   -3.3090   46.6252   58.1698 H   0  0  0  0  0  0  0  0  0  0  0  0
   -3.1807   47.0594   56.4722 H   0  0  0  0  0  0  0  0  0  0  0  0
   -3.9866   44.5645   57.2475 H   0  0  0  0  0  0  0  0  0  0  0  0
   -3.0929   43.5928   55.1378 H   0  0  0  0  0  0  0  0  0  0  0  0
   -3.8051   45.2389   54.8902 H   0  0  0  0  0  0  0  0  0  0  0  0
   -1.9880   44.1370   58.4820 H   0  0  0  0  0  0  0  0  0  0  0  0
    0.4590   46.5830   52.8550 H   0  0  0  0  0  0  0  0  0  0  0  0
    2.0940   46.0751   50.4101 H   0  0  0  0  0  0  0  0  0  0  0  0
    4.5316   45.8770   49.9385 H   0  0  0  0  0  0  0  0  0  0  0  0
    7.9472   45.8706   50.5283 H   0  0  0  0  0  0  0  0  0  0  0  0
    6.6640   47.0572   50.9311 H   0  0  0  0  0  0  0  0  0  0  0  0
    9.9821   46.0191   51.6850 H   0  0  0  0  0  0  0  0  0  0  0  0
   11.2945   46.7681   53.6776 H   0  0  0  0  0  0  0  0  0  0  0  0
   10.1107   47.8543   55.5949 H   0  0  0  0  0  0  0  0  0  0  0  0
    6.3668   47.4444   53.5977 H   0  0  0  0  0  0  0  0  0  0  0  0
    2.7926   44.9089   54.5187 H   0  0  0  0  0  0  0  0  0  0  0  0
  1  2  2  0
  2  3  1  0
  3  4  1  0
  4  5  1  0
  5  6  1  0
  6  7  1  0
  7  8  1  0
  8  9  1  0
  9 10  1  0
  9 11  1  0
  2 12  1  0
 12 13  1  0
 13 14  2  0
 14 15  1  0
 15 16  2  0
 16 17  1  0
 17 18  1  0
 18 19  1  0
 19 20  2  0
 20 21  1  0
 21 22  2  0
 22 23  1  0
 23 24  2  0
 16 25  1  0
 25 26  1  0
 25 27  2  0
 10  4  1  0
 27 13  1  0
 11  6  1  0
 24 19  1  0
  3 28  1  0
  3 29  1  0
  4 30  1  6
  5 31  1  0
  5 32  1  0
  6 33  1  1
  7 34  1  0
  7 35  1  0
  8 36  1  0
  8 37  1  0
  9 38  1  1
 10 39  1  0
 10 40  1  0
 11 41  1  0
 12 42  1  0
 14 43  1  0
 15 44  1  0
 18 45  1  0
 18 46  1  0
 20 47  1  0
 21 48  1  0
 22 49  1  0
 24 50  1  0
 27 51  1  0
M  END
>  <meeko>  (3) 
{"is_sidechain": [false], "free_energy": -8.309, "intermolecular_energy": -11.064, "internal_energy": -0.658}

$$$$
ligand_89_conformer_3_docked
     RDKit          3D

 51 54  0  0  0  0  0  0  0  0999 V2000
    2.5410   41.1160   46.6340 O   0  0  0  0  0  0  0  0  0  0  0  0
    3.1540   40.0170   46.7130 C   0  0  0  0  0  0  0  0  0  0  0  0
    2.8400   38.9250   45.7280 C   0  0  0  0  0  0  0  0  0  0  0  0
    3.7620   38.9070   44.4880 C   0  0  2  0  0  0  0  0  0  0  0  0
    4.5700   37.5830   44.3550 C   0  0  0  0  0  0  0  0  0  0  0  0
    5.6970   37.7100   43.3030 C   0  0  1  0  0  0  0  0  0  0  0  0
    5.1530   38.1150   41.9270 C   0  0  0  0  0  0  0  0  0  0  0  0
    5.2080   39.6410   41.9420 C   0  0  0  0  0  0  0  0  0  0  0  0
    5.7830   39.9750   43.3250 C   0  0  1  0  0  0  0  0  0  0  0  0
    4.6700   40.1670   44.3830 C   0  0  0  0  0  0  0  0  0  0  0  0
    6.5640   38.8070   43.7210 N   0  0  0  0  0  0  0  0  0  0  0  0
    4.1200   39.7930   47.7530 N   0  0  0  0  0  0  0  0  0  0  0  0
    4.5370   40.7960   48.6940 C   0  0  0  0  0  0  0  0  0  0  0  0
    3.7800   41.0820   49.8420 C   0  0  0  0  0  0  0  0  0  0  0  0
    4.1940   42.0790   50.7310 C   0  0  0  0  0  0  0  0  0  0  0  0
    5.3660   42.8160   50.4790 C   0  0  0  0  0  0  0  0  0  0  0  0
    5.8180   43.8200   51.3500 O   0  0  0  0  0  0  0  0  0  0  0  0
    5.2210   45.1060   51.4800 C   0  0  0  0  0  0  0  0  0  0  0  0
    6.2840   46.1090   51.8200 C   0  0  0  0  0  0  0  0  0  0  0  0
    7.5380   46.0630   51.1940 C   0  0  0  0  0  0  0  0  0  0  0  0
    8.5290   46.9790   51.5500 C   0  0  0  0  0  0  0  0  0  0  0  0
    8.2610   47.9270   52.5390 C   0  0  0  0  0  0  0  0  0  0  0  0
    7.0470   47.9480   53.1520 N   0  0  0  0  0  0  0  0  0  0  0  0
    6.0650   47.0670   52.8230 C   0  0  0  0  0  0  0  0  0  0  0  0
    6.1080   42.5430   49.3210 C   0  0  0  0  0  0  0  0  0  0  0  0
    7.5710   43.4510   48.9670 Cl  0  0  0  0  0  0  0  0  0  0  0  0
    5.6910   41.5470   48.4320 C   0  0  0  0  0  0  0  0  0  0  0  0
    2.9354   37.9577   46.2431 H   0  0  0  0  0  0  0  0  0  0  0  0
    1.8202   39.1134   45.3613 H   0  0  0  0  0  0  0  0  0  0  0  0
    3.0867   38.9463   43.6206 H   0  0  0  0  0  0  0  0  0  0  0  0
    5.0169   37.3375   45.3297 H   0  0  0  0  0  0  0  0  0  0  0  0
    3.8813   36.7896   44.0290 H   0  0  0  0  0  0  0  0  0  0  0  0
    6.2063   36.7377   43.2306 H   0  0  0  0  0  0  0  0  0  0  0  0
    5.7836   37.7090   41.1224 H   0  0  0  0  0  0  0  0  0  0  0  0
    4.1392   37.7299   41.7426 H   0  0  0  0  0  0  0  0  0  0  0  0
    5.8648   40.0170   41.1437 H   0  0  0  0  0  0  0  0  0  0  0  0
    4.2250   40.1030   41.7680 H   0  0  0  0  0  0  0  0  0  0  0  0
    6.3655   40.9064   43.2691 H   0  0  0  0  0  0  0  0  0  0  0  0
    5.1354   40.3552   45.3618 H   0  0  0  0  0  0  0  0  0  0  0  0
    4.0452   41.0192   44.0772 H   0  0  0  0  0  0  0  0  0  0  0  0
    7.4420   38.7790   43.1480 H   0  0  0  0  0  0  0  0  0  0  0  0
    4.4600   38.8150   47.9010 H   0  0  0  0  0  0  0  0  0  0  0  0
    2.8567   40.5188   50.0429 H   0  0  0  0  0  0  0  0  0  0  0  0
    3.5999   42.2884   51.6328 H   0  0  0  0  0  0  0  0  0  0  0  0
    4.7400   45.3864   50.5313 H   0  0  0  0  0  0  0  0  0  0  0  0
    4.4637   45.0840   52.2775 H   0  0  0  0  0  0  0  0  0  0  0  0
    7.7405   45.3053   50.4227 H   0  0  0  0  0  0  0  0  0  0  0  0
    9.5116   46.9542   51.0561 H   0  0  0  0  0  0  0  0  0  0  0  0
    9.0325   48.6579   52.8229 H   0  0  0  0  0  0  0  0  0  0  0  0
    5.0968   47.1048   53.3437 H   0  0  0  0  0  0  0  0  0  0  0  0
    6.2736   41.3515   47.5196 H   0  0  0  0  0  0  0  0  0  0  0  0
  1  2  2  0
  2  3  1  0
  3  4  1  0
  4  5  1  0
  5  6  1  0
  6  7  1  0
  7  8  1  0
  8  9  1  0
  9 10  1  0
  9 11  1  0
  2 12  1  0
 12 13  1  0
 13 14  2  0
 14 15  1  0
 15 16  2  0
 16 17  1  0
 17 18  1  0
 18 19  1  0
 19 20  2  0
 20 21  1  0
 21 22  2  0
 22 23  1  0
 23 24  2  0
 16 25  1  0
 25 26  1  0
 25 27  2  0
 10  4  1  0
 27 13  1  0
 11  6  1  0
 24 19  1  0
  3 28  1  0
  3 29  1  0
  4 30  1  6
  5 31  1  0
  5 32  1  0
  6 33  1  6
  7 34  1  0
  7 35  1  0
  8 36  1  0
  8 37  1  0
  9 38  1  6
 10 39  1  0
 10 40  1  0
 11 41  1  0
 12 42  1  0
 14 43  1  0
 15 44  1  0
 18 45  1  0
 18 46  1  0
 20 47  1  0
 21 48  1  0
 22 49  1  0
 24 50  1  0
 27 51  1  0
M  END
>  <meeko>  (4) 
{"is_sidechain": [false], "free_energy": -8.201, "intermolecular_energy": -10.846, "internal_energy": -0.73}

$$$$
ligand_89_conformer_3_docked
     RDKit          3D

 51 54  0  0  0  0  0  0  0  0999 V2000
    4.0740   45.8980   50.9130 O   0  0  0  0  0  0  0  0  0  0  0  0
    4.9110   44.9920   51.1720 C   0  0  0  0  0  0  0  0  0  0  0  0
    6.3000   45.0860   50.6050 C   0  0  0  0  0  0  0  0  0  0  0  0
    7.3250   45.7550   51.5490 C   0  0  2  0  0  0  0  0  0  0  0  0
    6.7010   46.1910   52.9070 C   0  0  0  0  0  0  0  0  0  0  0  0
    7.6520   47.1230   53.6940 C   0  0  1  0  0  0  0  0  0  0  0  0
    9.0160   46.4660   53.9480 C   0  0  0  0  0  0  0  0  0  0  0  0
    9.8570   46.8840   52.7430 C   0  0  0  0  0  0  0  0  0  0  0  0
    8.9010   47.7470   51.9080 C   0  0  1  0  0  0  0  0  0  0  0  0
    8.1230   46.9060   50.8680 C   0  0  0  0  0  0  0  0  0  0  0  0
    7.9260   48.2830   52.8530 N   0  0  0  0  0  0  0  0  0  0  0  0
    4.5360   43.8600   51.9740 N   0  0  0  0  0  0  0  0  0  0  0  0
    3.2580   43.7150   52.6150 C   0  0  0  0  0  0  0  0  0  0  0  0
    2.2580   42.8870   52.0790 C   0  0  0  0  0  0  0  0  0  0  0  0
    1.0150   42.7820   52.7080 C   0  0  0  0  0  0  0  0  0  0  0  0
    0.7440   43.5140   53.8790 C   0  0  0  0  0  0  0  0  0  0  0  0
   -0.4890   43.4310   54.5440 O   0  0  0  0  0  0  0  0  0  0  0  0
   -1.6300   44.2240   54.2330 C   0  0  0  0  0  0  0  0  0  0  0  0
   -2.2130   44.7660   55.5050 C   0  0  0  0  0  0  0  0  0  0  0  0
   -2.9610   45.9530   55.5000 C   0  0  0  0  0  0  0  0  0  0  0  0
   -3.4630   46.4640   56.6980 C   0  0  0  0  0  0  0  0  0  0  0  0
   -3.2040   45.7890   57.8930 C   0  0  0  0  0  0  0  0  0  0  0  0
   -2.4620   44.6500   57.8840 N   0  0  0  0  0  0  0  0  0  0  0  0
   -1.9620   44.1310   56.7310 C   0  0  0  0  0  0  0  0  0  0  0  0
    1.7360   44.3570   54.4010 C   0  0  0  0  0  0  0  0  0  0  0  0
    1.4310   45.2960   55.8550 Cl  0  0  0  0  0  0  0  0  0  0  0  0
    2.9790   44.4620   53.7680 C   0  0  0  0  0  0  0  0  0  0  0  0
    6.6508   44.0679   50.3806 H   0  0  0  0  0  0  0  0  0  0  0  0
    6.2337   45.7207   49.7090 H   0  0  0  0  0  0  0  0  0  0  0  0
    8.0613   44.9722   51.7836 H   0  0  0  0  0  0  0  0  0  0  0  0
    5.7583   46.7236   52.7127 H   0  0  0  0  0  0  0  0  0  0  0  0
    6.5235   45.2889   53.5110 H   0  0  0  0  0  0  0  0  0  0  0  0
    7.1711   47.3682   54.6525 H   0  0  0  0  0  0  0  0  0  0  0  0
    9.4608   46.8372   54.8831 H   0  0  0  0  0  0  0  0  0  0  0  0
    8.9462   45.3737   54.0575 H   0  0  0  0  0  0  0  0  0  0  0  0
   10.7340   47.4669   53.0609 H   0  0  0  0  0  0  0  0  0  0  0  0
   10.2520   46.0241   52.1822 H   0  0  0  0  0  0  0  0  0  0  0  0
    9.4717   48.5163   51.3672 H   0  0  0  0  0  0  0  0  0  0  0  0
    7.4198   47.5607   50.3324 H   0  0  0  0  0  0  0  0  0  0  0  0
    8.8484   46.4593   50.1721 H   0  0  0  0  0  0  0  0  0  0  0  0
    8.3910   49.0190   53.4360 H   0  0  0  0  0  0  0  0  0  0  0  0
    5.1910   43.0440   52.0050 H   0  0  0  0  0  0  0  0  0  0  0  0
    2.4547   42.3178   51.1585 H   0  0  0  0  0  0  0  0  0  0  0  0
    0.2428   42.1226   52.2850 H   0  0  0  0  0  0  0  0  0  0  0  0
   -1.3323   45.0575   53.5798 H   0  0  0  0  0  0  0  0  0  0  0  0
   -2.3795   43.6076   53.7150 H   0  0  0  0  0  0  0  0  0  0  0  0
   -3.1515   46.4801   54.5535 H   0  0  0  0  0  0  0  0  0  0  0  0
   -4.0571   47.3898   56.7009 H   0  0  0  0  0  0  0  0  0  0  0  0
   -3.6006   46.1792   58.8419 H   0  0  0  0  0  0  0  0  0  0  0  0
   -1.3593   43.2112   56.7593 H   0  0  0  0  0  0  0  0  0  0  0  0
    3.7445   45.1368   54.1787 H   0  0  0  0  0  0  0  0  0  0  0  0
  1  2  2  0
  2  3  1  0
  3  4  1  0
  4  5  1  0
  5  6  1  0
  6  7  1  0
  7  8  1  0
  8  9  1  0
  9 10  1  0
  9 11  1  0
  2 12  1  0
 12 13  1  0
 13 14  2  0
 14 15  1  0
 15 16  2  0
 16 17  1  0
 17 18  1  0
 18 19  1  0
 19 20  2  0
 20 21  1  0
 21 22  2  0
 22 23  1  0
 23 24  2  0
 16 25  1  0
 25 26  1  0
 25 27  2  0
 10  4  1  0
 27 13  1  0
 11  6  1  0
 24 19  1  0
  3 28  1  0
  3 29  1  0
  4 30  1  1
  5 31  1  0
  5 32  1  0
  6 33  1  1
  7 34  1  0
  7 35  1  0
  8 36  1  0
  8 37  1  0
  9 38  1  6
 10 39  1  0
 10 40  1  0
 11 41  1  0
 12 42  1  0
 14 43  1  0
 15 44  1  0
 18 45  1  0
 18 46  1  0
 20 47  1  0
 21 48  1  0
 22 49  1  0
 24 50  1  0
 27 51  1  0
M  END
>  <meeko>  (5) 
{"is_sidechain": [false], "free_energy": -8.142, "intermolecular_energy": -10.761, "internal_energy": -0.736}

$$$$
