ligand_51_conformer_3_docked
     RDKit          3D

 40 43  0  0  0  0  0  0  0  0999 V2000
    4.2390   46.2710   50.8060 O   0  0  0  0  0  0  0  0  0  0  0  0
    4.7890   45.7260   51.8010 C   0  0  0  0  0  0  0  0  0  0  0  0
    5.3780   44.4240   51.6740 N   0  0  0  0  0  0  0  0  0  0  0  0
    5.0660   43.5250   50.5620 C   0  0  1  0  0  0  0  0  0  0  0  0
    6.3390   43.0810   49.8520 C   0  0  0  0  0  0  0  0  0  0  0  0
    6.0450   41.6870   49.3190 C   0  0  0  0  0  0  0  0  0  0  0  0
    5.0160   41.0840   50.2810 C   0  0  2  0  0  0  0  0  0  0  0  0
    3.6420   40.7670   49.6850 C   0  0  0  0  0  0  0  0  0  0  0  0
    3.0320   41.9080   50.4900 C   0  0  0  0  0  0  0  0  0  0  0  0
    4.4100   42.2310   51.0730 C   0  0  2  0  0  0  0  0  0  0  0  0
    4.8600   46.4580   53.0770 C   0  0  0  0  0  0  0  0  0  0  0  0
    3.7910   46.7690   53.8910 C   0  0  0  0  0  0  0  0  0  0  0  0
    4.2370   47.5280   54.9070 N   0  0  0  0  0  0  0  0  0  0  0  0
    5.5430   47.7100   54.7940 N   0  0  0  0  0  0  0  0  0  0  0  0
    5.9560   47.0610   53.6860 C   0  0  0  0  0  0  0  0  0  0  0  0
    7.3760   46.9800   53.2850 C   0  0  0  0  0  0  0  0  0  0  0  0
    7.7380   46.7030   51.9550 C   0  0  0  0  0  0  0  0  0  0  0  0
    9.0850   46.6270   51.5920 C   0  0  0  0  0  0  0  0  0  0  0  0
   10.0810   46.8080   52.5540 C   0  0  0  0  0  0  0  0  0  0  0  0
    9.7320   47.0590   53.8830 C   0  0  0  0  0  0  0  0  0  0  0  0
   10.6990   47.2270   54.8180 F   0  0  0  0  0  0  0  0  0  0  0  0
    8.3850   47.1380   54.2510 C   0  0  0  0  0  0  0  0  0  0  0  0
    6.1280   44.1500   52.3500 H   0  0  0  0  0  0  0  0  0  0  0  0
    4.3974   44.0821   49.8892 H   0  0  0  0  0  0  0  0  0  0  0  0
    6.5763   43.7662   49.0249 H   0  0  0  0  0  0  0  0  0  0  0  0
    7.2052   43.0833   50.5300 H   0  0  0  0  0  0  0  0  0  0  0  0
    5.6311   41.7448   48.3015 H   0  0  0  0  0  0  0  0  0  0  0  0
    6.9562   41.0734   49.2623 H   0  0  0  0  0  0  0  0  0  0  0  0
    5.5730   40.2449   50.7233 H   0  0  0  0  0  0  0  0  0  0  0  0
    3.5824   40.9039   48.5952 H   0  0  0  0  0  0  0  0  0  0  0  0
    3.2254   39.7513   49.7538 H   0  0  0  0  0  0  0  0  0  0  0  0
    2.6043   42.7134   49.8749 H   0  0  0  0  0  0  0  0  0  0  0  0
    2.1746   41.7252   51.1545 H   0  0  0  0  0  0  0  0  0  0  0  0
    4.4764   42.3411   52.1655 H   0  0  0  0  0  0  0  0  0  0  0  0
    2.7498   46.4500   53.7353 H   0  0  0  0  0  0  0  0  0  0  0  0
    3.6540   47.9250   55.6770 H   0  0  0  0  0  0  0  0  0  0  0  0
    6.9570   46.5454   51.1966 H   0  0  0  0  0  0  0  0  0  0  0  0
    9.3614   46.4243   50.5468 H   0  0  0  0  0  0  0  0  0  0  0  0
   11.1409   46.7529   52.2650 H   0  0  0  0  0  0  0  0  0  0  0  0
    8.1140   47.3245   55.3006 H   0  0  0  0  0  0  0  0  0  0  0  0
  1  2  2  0
  2  3  1  0
  3  4  1  0
  4  5  1  0
  5  6  1  0
  6  7  1  0
  7  8  1  0
  8  9  1  0
  9 10  1  0
  2 11  1  0
 11 12  2  0
 12 13  1  0
 13 14  1  0
 14 15  2  0
 15 16  1  0
 16 17  2  0
 17 18  1  0
 18 19  2  0
 19 20  1  0
 20 21  1  0
 20 22  2  0
 10  4  1  0
 15 11  1  0
 22 16  1  0
 10  7  1  0
  3 23  1  0
  4 24  1  6
  5 25  1  0
  5 26  1  0
  6 27  1  0
  6 28  1  0
  7 29  1  1
  8 30  1  0
  8 31  1  0
  9 32  1  0
  9 33  1  0
 10 34  1  1
 12 35  1  0
 13 36  1  0
 17 37  1  0
 18 38  1  0
 19 39  1  0
 22 40  1  0
M  END
>  <meeko>  (1) 
{"is_sidechain": [false], "free_energy": -10.049, "intermolecular_energy": -11.811, "internal_energy": -0.214}

$$$$
ligand_51_conformer_3_docked
     RDKit          3D

 40 43  0  0  0  0  0  0  0  0999 V2000
    4.5910   46.8090   51.9480 O   0  0  0  0  0  0  0  0  0  0  0  0
    4.7720   45.9140   52.8170 C   0  0  0  0  0  0  0  0  0  0  0  0
    5.9370   45.9500   53.6540 N   0  0  0  0  0  0  0  0  0  0  0  0
    7.1170   46.7510   53.3250 C   0  0  1  0  0  0  0  0  0  0  0  0
    7.8390   47.1970   54.5910 C   0  0  0  0  0  0  0  0  0  0  0  0
    9.3080   47.2950   54.2120 C   0  0  0  0  0  0  0  0  0  0  0  0
    9.5160   46.2720   53.0910 C   0  0  2  0  0  0  0  0  0  0  0  0
    9.9160   46.8390   51.7270 C   0  0  0  0  0  0  0  0  0  0  0  0
    8.5460   46.4700   51.1720 C   0  0  0  0  0  0  0  0  0  0  0  0
    8.1430   45.9160   52.5410 C   0  0  2  0  0  0  0  0  0  0  0  0
    3.7570   44.8620   52.9940 C   0  0  0  0  0  0  0  0  0  0  0  0
    2.6930   44.9040   53.8710 C   0  0  0  0  0  0  0  0  0  0  0  0
    2.0520   43.7230   53.8180 N   0  0  0  0  0  0  0  0  0  0  0  0
    2.6430   42.9280   52.9400 N   0  0  0  0  0  0  0  0  0  0  0  0
    3.6870   43.6000   52.4120 C   0  0  0  0  0  0  0  0  0  0  0  0
    4.5340   43.0480   51.3340 C   0  0  0  0  0  0  0  0  0  0  0  0
    4.3070   41.7570   50.8250 C   0  0  0  0  0  0  0  0  0  0  0  0
    5.1190   41.2470   49.8080 C   0  0  0  0  0  0  0  0  0  0  0  0
    6.1730   42.0120   49.3030 C   0  0  0  0  0  0  0  0  0  0  0  0
    6.4220   43.2860   49.8200 C   0  0  0  0  0  0  0  0  0  0  0  0
    7.4510   44.0240   49.3360 F   0  0  0  0  0  0  0  0  0  0  0  0
    5.6110   43.8010   50.8370 C   0  0  0  0  0  0  0  0  0  0  0  0
    5.9010   45.4610   54.5780 H   0  0  0  0  0  0  0  0  0  0  0  0
    6.7570   47.6089   52.7382 H   0  0  0  0  0  0  0  0  0  0  0  0
    7.4622   48.1756   54.9232 H   0  0  0  0  0  0  0  0  0  0  0  0
    7.6791   46.4920   55.4201 H   0  0  0  0  0  0  0  0  0  0  0  0
    9.5453   48.3082   53.8555 H   0  0  0  0  0  0  0  0  0  0  0  0
    9.9635   47.0937   55.0721 H   0  0  0  0  0  0  0  0  0  0  0  0
   10.2087   45.5548   53.5555 H   0  0  0  0  0  0  0  0  0  0  0  0
   10.1221   47.9195   51.7327 H   0  0  0  0  0  0  0  0  0  0  0  0
   10.8317   46.4913   51.2263 H   0  0  0  0  0  0  0  0  0  0  0  0
    7.9477   47.3321   50.8422 H   0  0  0  0  0  0  0  0  0  0  0  0
    8.4595   45.8456   50.2705 H   0  0  0  0  0  0  0  0  0  0  0  0
    7.7020   44.9085   52.5613 H   0  0  0  0  0  0  0  0  0  0  0  0
    2.4159   45.7585   54.5059 H   0  0  0  0  0  0  0  0  0  0  0  0
    1.2140   43.4550   54.3800 H   0  0  0  0  0  0  0  0  0  0  0  0
    3.4866   41.1456   51.2290 H   0  0  0  0  0  0  0  0  0  0  0  0
    4.9277   40.2416   49.4047 H   0  0  0  0  0  0  0  0  0  0  0  0
    6.8070   41.6115   48.4983 H   0  0  0  0  0  0  0  0  0  0  0  0
    5.8174   44.7997   51.2493 H   0  0  0  0  0  0  0  0  0  0  0  0
  1  2  2  0
  2  3  1  0
  3  4  1  0
  4  5  1  0
  5  6  1  0
  6  7  1  0
  7  8  1  0
  8  9  1  0
  9 10  1  0
  2 11  1  0
 11 12  2  0
 12 13  1  0
 13 14  1  0
 14 15  2  0
 15 16  1  0
 16 17  2  0
 17 18  1  0
 18 19  2  0
 19 20  1  0
 20 21  1  0
 20 22  2  0
 10  4  1  0
 15 11  1  0
 22 16  1  0
 10  7  1  0
  3 23  1  0
  4 24  1  6
  5 25  1  0
  5 26  1  0
  6 27  1  0
  6 28  1  0
  7 29  1  1
  8 30  1  0
  8 31  1  0
  9 32  1  0
  9 33  1  0
 10 34  1  6
 12 35  1  0
 13 36  1  0
 17 37  1  0
 18 38  1  0
 19 39  1  0
 22 40  1  0
M  END
>  <meeko>  (2) 
{"is_sidechain": [false], "free_energy": -9.703, "intermolecular_energy": -11.109, "internal_energy": -0.51}

$$$$
ligand_51_conformer_3_docked
     RDKit          3D

 40 43  0  0  0  0  0  0  0  0999 V2000
    7.6750   44.3160   49.5520 O   0  0  0  0  0  0  0  0  0  0  0  0
    6.7460   44.3440   50.4040 C   0  0  0  0  0  0  0  0  0  0  0  0
    6.6190   45.4620   51.2930 N   0  0  0  0  0  0  0  0  0  0  0  0
    7.7110   46.4080   51.5270 C   0  0  1  0  0  0  0  0  0  0  0  0
    7.2310   47.5940   52.3560 C   0  0  0  0  0  0  0  0  0  0  0  0
    8.4400   48.0480   53.1600 C   0  0  0  0  0  0  0  0  0  0  0  0
    9.2930   46.7930   53.3680 C   0  0  2  0  0  0  0  0  0  0  0  0
   10.6800   46.8070   52.7210 C   0  0  0  0  0  0  0  0  0  0  0  0
   10.2200   45.7580   51.7160 C   0  0  0  0  0  0  0  0  0  0  0  0
    8.8300   45.7560   52.3570 C   0  0  2  0  0  0  0  0  0  0  0  0
    5.7700   43.2420   50.4440 C   0  0  0  0  0  0  0  0  0  0  0  0
    5.9240   42.0030   49.8560 C   0  0  0  0  0  0  0  0  0  0  0  0
    4.7840   41.3090   50.0220 N   0  0  0  0  0  0  0  0  0  0  0  0
    3.9090   42.0360   50.6980 N   0  0  0  0  0  0  0  0  0  0  0  0
    4.4860   43.2230   50.9790 C   0  0  0  0  0  0  0  0  0  0  0  0
    3.8260   44.2630   51.7950 C   0  0  0  0  0  0  0  0  0  0  0  0
    3.1260   45.3220   51.1900 C   0  0  0  0  0  0  0  0  0  0  0  0
    2.5100   46.3000   51.9760 C   0  0  0  0  0  0  0  0  0  0  0  0
    2.6010   46.2400   53.3680 C   0  0  0  0  0  0  0  0  0  0  0  0
    3.3160   45.2060   53.9780 C   0  0  0  0  0  0  0  0  0  0  0  0
    3.4120   45.1540   55.3290 F   0  0  0  0  0  0  0  0  0  0  0  0
    3.9330   44.2240   53.1960 C   0  0  0  0  0  0  0  0  0  0  0  0
    5.6820   45.6600   51.7130 H   0  0  0  0  0  0  0  0  0  0  0  0
    8.0691   46.7218   50.5354 H   0  0  0  0  0  0  0  0  0  0  0  0
    6.8802   48.4041   51.6998 H   0  0  0  0  0  0  0  0  0  0  0  0
    6.3884   47.3201   53.0080 H   0  0  0  0  0  0  0  0  0  0  0  0
    9.0067   48.8093   52.6040 H   0  0  0  0  0  0  0  0  0  0  0  0
    8.1443   48.5018   54.1174 H   0  0  0  0  0  0  0  0  0  0  0  0
    9.2530   46.6623   54.4595 H   0  0  0  0  0  0  0  0  0  0  0  0
   10.9555   47.7715   52.2695 H   0  0  0  0  0  0  0  0  0  0  0  0
   11.5806   46.6384   53.3297 H   0  0  0  0  0  0  0  0  0  0  0  0
   10.2324   46.1011   50.6709 H   0  0  0  0  0  0  0  0  0  0  0  0
   10.7795   44.8186   51.5954 H   0  0  0  0  0  0  0  0  0  0  0  0
    8.4010   44.7769   52.6165 H   0  0  0  0  0  0  0  0  0  0  0  0
    6.8262   41.6439   49.3392 H   0  0  0  0  0  0  0  0  0  0  0  0
    4.5990   40.3430   49.6730 H   0  0  0  0  0  0  0  0  0  0  0  0
    3.0629   45.3810   50.0934 H   0  0  0  0  0  0  0  0  0  0  0  0
    1.9525   47.1184   51.4970 H   0  0  0  0  0  0  0  0  0  0  0  0
    2.1096   47.0070   53.9847 H   0  0  0  0  0  0  0  0  0  0  0  0
    4.5043   43.4179   53.6794 H   0  0  0  0  0  0  0  0  0  0  0  0
  1  2  2  0
  2  3  1  0
  3  4  1  0
  4  5  1  0
  5  6  1  0
  6  7  1  0
  7  8  1  0
  8  9  1  0
  9 10  1  0
  2 11  1  0
 11 12  2  0
 12 13  1  0
 13 14  1  0
 14 15  2  0
 15 16  1  0
 16 17  2  0
 17 18  1  0
 18 19  2  0
 19 20  1  0
 20 21  1  0
 20 22  2  0
 10  4  1  0
 15 11  1  0
 22 16  1  0
 10  7  1  0
  3 23  1  0
  4 24  1  6
  5 25  1  0
  5 26  1  0
  6 27  1  0
  6 28  1  0
  7 29  1  1
  8 30  1  0
  8 31  1  0
  9 32  1  0
  9 33  1  0
 10 34  1  1
 12 35  1  0
 13 36  1  0
 17 37  1  0
 18 38  1  0
 19 39  1  0
 22 40  1  0
M  END
>  <meeko>  (3) 
{"is_sidechain": [false], "free_energy": -8.978, "intermolecular_energy": -10.29, "internal_energy": -0.478}

$$$$
ligand_51_conformer_3_docked
     RDKit          3D

 40 43  0  0  0  0  0  0  0  0999 V2000
    7.6170   45.6690   49.8120 O   0  0  0  0  0  0  0  0  0  0  0  0
    7.2870   45.5410   51.0220 C   0  0  0  0  0  0  0  0  0  0  0  0
    6.4790   44.4300   51.4340 N   0  0  0  0  0  0  0  0  0  0  0  0
    5.7030   43.6280   50.4860 C   0  0  1  0  0  0  0  0  0  0  0  0
    6.6220   42.7690   49.6240 C   0  0  0  0  0  0  0  0  0  0  0  0
    5.8220   41.5190   49.2920 C   0  0  0  0  0  0  0  0  0  0  0  0
    4.8600   41.3190   50.4680 C   0  0  2  0  0  0  0  0  0  0  0  0
    3.3680   41.4300   50.1430 C   0  0  0  0  0  0  0  0  0  0  0  0
    3.2990   42.7410   50.9170 C   0  0  0  0  0  0  0  0  0  0  0  0
    4.7940   42.6340   51.2280 C   0  0  2  0  0  0  0  0  0  0  0  0
    7.7780   46.5160   52.0100 C   0  0  0  0  0  0  0  0  0  0  0  0
    8.9950   47.1630   51.9730 C   0  0  0  0  0  0  0  0  0  0  0  0
    9.1240   47.8920   53.0960 N   0  0  0  0  0  0  0  0  0  0  0  0
    8.0430   47.7560   53.8470 N   0  0  0  0  0  0  0  0  0  0  0  0
    7.1960   46.9250   53.2060 C   0  0  0  0  0  0  0  0  0  0  0  0
    5.8470   46.6040   53.7170 C   0  0  0  0  0  0  0  0  0  0  0  0
    5.6790   45.8390   54.8850 C   0  0  0  0  0  0  0  0  0  0  0  0
    4.3960   45.5400   55.3540 C   0  0  0  0  0  0  0  0  0  0  0  0
    3.2730   45.9860   54.6540 C   0  0  0  0  0  0  0  0  0  0  0  0
    3.4300   46.7260   53.4790 C   0  0  0  0  0  0  0  0  0  0  0  0
    2.3390   47.1500   52.7960 F   0  0  0  0  0  0  0  0  0  0  0  0
    4.7110   47.0280   53.0070 C   0  0  0  0  0  0  0  0  0  0  0  0
    6.5240   44.1250   52.4330 H   0  0  0  0  0  0  0  0  0  0  0  0
    5.1218   44.3385   49.8799 H   0  0  0  0  0  0  0  0  0  0  0  0
    6.8964   43.3049   48.7034 H   0  0  0  0  0  0  0  0  0  0  0  0
    7.5590   42.5255   50.1462 H   0  0  0  0  0  0  0  0  0  0  0  0
    5.2605   41.6600   48.3567 H   0  0  0  0  0  0  0  0  0  0  0  0
    6.4745   40.6453   49.1477 H   0  0  0  0  0  0  0  0  0  0  0  0
    5.2078   40.3671   50.8956 H   0  0  0  0  0  0  0  0  0  0  0  0
    3.1481   41.5296   49.0698 H   0  0  0  0  0  0  0  0  0  0  0  0
    2.6823   40.6041   50.3832 H   0  0  0  0  0  0  0  0  0  0  0  0
    3.0292   43.6122   50.3020 H   0  0  0  0  0  0  0  0  0  0  0  0
    2.5687   42.8709   51.7293 H   0  0  0  0  0  0  0  0  0  0  0  0
    5.0968   42.7656   52.2773 H   0  0  0  0  0  0  0  0  0  0  0  0
    9.7352   47.0946   51.1622 H   0  0  0  0  0  0  0  0  0  0  0  0
    9.9470   48.4800   53.3530 H   0  0  0  0  0  0  0  0  0  0  0  0
    6.5608   45.4742   55.4321 H   0  0  0  0  0  0  0  0  0  0  0  0
    4.2712   44.9526   56.2756 H   0  0  0  0  0  0  0  0  0  0  0  0
    2.2646   45.7548   55.0276 H   0  0  0  0  0  0  0  0  0  0  0  0
    4.8301   47.6004   52.0752 H   0  0  0  0  0  0  0  0  0  0  0  0
  1  2  2  0
  2  3  1  0
  3  4  1  0
  4  5  1  0
  5  6  1  0
  6  7  1  0
  7  8  1  0
  8  9  1  0
  9 10  1  0
  2 11  1  0
 11 12  2  0
 12 13  1  0
 13 14  1  0
 14 15  2  0
 15 16  1  0
 16 17  2  0
 17 18  1  0
 18 19  2  0
 19 20  1  0
 20 21  1  0
 20 22  2  0
 10  4  1  0
 15 11  1  0
 22 16  1  0
 10  7  1  0
  3 23  1  0
  4 24  1  6
  5 25  1  0
  5 26  1  0
  6 27  1  0
  6 28  1  0
  7 29  1  1
  8 30  1  0
  8 31  1  0
  9 32  1  0
  9 33  1  0
 10 34  1  1
 12 35  1  0
 13 36  1  0
 17 37  1  0
 18 38  1  0
 19 39  1  0
 22 40  1  0
M  END
>  <meeko>  (4) 
{"is_sidechain": [false], "free_energy": -8.775, "intermolecular_energy": -10.219, "internal_energy": -0.309}

$$$$
ligand_51_conformer_3_docked
     RDKit          3D

 40 43  0  0  0  0  0  0  0  0999 V2000
    4.6170   45.4840   50.5650 O   0  0  0  0  0  0  0  0  0  0  0  0
    5.3980   44.5690   50.9430 C   0  0  0  0  0  0  0  0  0  0  0  0
    5.1790   43.9080   52.1970 N   0  0  0  0  0  0  0  0  0  0  0  0
    4.3220   44.4690   53.2420 C   0  0  1  0  0  0  0  0  0  0  0  0
    4.7650   45.8810   53.6060 C   0  0  0  0  0  0  0  0  0  0  0  0
    3.5010   46.6110   54.0300 C   0  0  0  0  0  0  0  0  0  0  0  0
    2.3590   45.9490   53.2520 C   0  0  2  0  0  0  0  0  0  0  0  0
    1.3040   45.2240   54.0910 C   0  0  0  0  0  0  0  0  0  0  0  0
    1.8110   43.8850   53.5700 C   0  0  0  0  0  0  0  0  0  0  0  0
    2.8740   44.6120   52.7430 C   0  0  2  0  0  0  0  0  0  0  0  0
    6.5060   44.1570   50.0640 C   0  0  0  0  0  0  0  0  0  0  0  0
    6.4330   43.2190   49.0560 C   0  0  0  0  0  0  0  0  0  0  0  0
    7.6660   43.0420   48.5490 N   0  0  0  0  0  0  0  0  0  0  0  0
    8.5260   43.8300   49.1740 N   0  0  0  0  0  0  0  0  0  0  0  0
    7.8450   44.5320   50.1030 C   0  0  0  0  0  0  0  0  0  0  0  0
    8.4740   45.5730   50.9420 C   0  0  0  0  0  0  0  0  0  0  0  0
    9.7520   45.3810   51.4970 C   0  0  0  0  0  0  0  0  0  0  0  0
   10.3320   46.3740   52.2920 C   0  0  0  0  0  0  0  0  0  0  0  0
    9.6370   47.5560   52.5540 C   0  0  0  0  0  0  0  0  0  0  0  0
    8.3560   47.7460   52.0280 C   0  0  0  0  0  0  0  0  0  0  0  0
    7.6790   48.8900   52.2900 F   0  0  0  0  0  0  0  0  0  0  0  0
    7.7720   46.7560   51.2310 C   0  0  0  0  0  0  0  0  0  0  0  0
    5.5700   42.9470   52.3270 H   0  0  0  0  0  0  0  0  0  0  0  0
    4.3918   43.7856   54.1011 H   0  0  0  0  0  0  0  0  0  0  0  0
    5.4889   45.8546   54.4338 H   0  0  0  0  0  0  0  0  0  0  0  0
    5.2598   46.3822   52.7611 H   0  0  0  0  0  0  0  0  0  0  0  0
    3.3406   46.5028   55.1128 H   0  0  0  0  0  0  0  0  0  0  0  0
    3.5645   47.6887   53.8192 H   0  0  0  0  0  0  0  0  0  0  0  0
    2.0073   46.7696   52.6094 H   0  0  0  0  0  0  0  0  0  0  0  0
    1.4233   45.3580   55.1763 H   0  0  0  0  0  0  0  0  0  0  0  0
    0.2406   45.4905   54.0002 H   0  0  0  0  0  0  0  0  0  0  0  0
    2.2210   43.2257   54.3492 H   0  0  0  0  0  0  0  0  0  0  0  0
    1.1204   43.1757   53.0905 H   0  0  0  0  0  0  0  0  0  0  0  0
    2.9554   44.3364   51.6812 H   0  0  0  0  0  0  0  0  0  0  0  0
    5.5206   42.7028   48.7229 H   0  0  0  0  0  0  0  0  0  0  0  0
    7.9240   42.3840   47.7810 H   0  0  0  0  0  0  0  0  0  0  0  0
   10.2976   44.4454   51.3047 H   0  0  0  0  0  0  0  0  0  0  0  0
   11.3376   46.2237   52.7117 H   0  0  0  0  0  0  0  0  0  0  0  0
   10.0978   48.3384   53.1749 H   0  0  0  0  0  0  0  0  0  0  0  0
    6.7590   46.9038   50.8286 H   0  0  0  0  0  0  0  0  0  0  0  0
  1  2  2  0
  2  3  1  0
  3  4  1  0
  4  5  1  0
  5  6  1  0
  6  7  1  0
  7  8  1  0
  8  9  1  0
  9 10  1  0
  2 11  1  0
 11 12  2  0
 12 13  1  0
 13 14  1  0
 14 15  2  0
 15 16  1  0
 16 17  2  0
 17 18  1  0
 18 19  2  0
 19 20  1  0
 20 21  1  0
 20 22  2  0
 10  4  1  0
 15 11  1  0
 22 16  1  0
 10  7  1  0
  3 23  1  0
  4 24  1  1
  5 25  1  0
  5 26  1  0
  6 27  1  0
  6 28  1  0
  7 29  1  6
  8 30  1  0
  8 31  1  0
  9 32  1  0
  9 33  1  0
 10 34  1  6
 12 35  1  0
 13 36  1  0
 17 37  1  0
 18 38  1  0
 19 39  1  0
 22 40  1  0
M  END
>  <meeko>  (5) 
{"is_sidechain": [false], "free_energy": -8.699, "intermolecular_energy": -10.374, "internal_energy": -0.064}

$$$$
