ligand_74_conformer_5_docked
     RDKit          3D

 46 49  0  0  0  0  0  0  0  0999 V2000
   -3.0840   44.0380   55.8550 C   0  0  0  0  0  0  0  0  0  0  0  0
   -3.3020   44.3290   54.3730 C   0  0  1  0  0  0  0  0  0  0  0  0
   -1.9800   44.4820   53.5960 C   0  0  0  0  0  0  0  0  0  0  0  0
   -2.0870   43.3800   52.5970 C   0  0  0  0  0  0  0  0  0  0  0  0
   -1.0320   43.0830   51.5630 C   0  0  0  0  0  0  0  0  0  0  0  0
    0.1720   42.3610   52.0880 C   0  0  0  0  0  0  0  0  0  0  0  0
    1.1230   43.4660   51.8620 N   0  0  0  0  0  0  0  0  0  0  0  0
    2.5150   43.7080   52.0520 C   0  0  0  0  0  0  0  0  0  0  0  0
    3.2330   42.8040   52.5580 O   0  0  0  0  0  0  0  0  0  0  0  0
    3.0710   44.9810   51.6970 N   0  0  0  0  0  0  0  0  0  0  0  0
    4.4740   45.2880   51.6800 C   0  0  0  0  0  0  0  0  0  0  0  0
    5.2220   45.8210   52.7170 C   0  0  0  0  0  0  0  0  0  0  0  0
    6.5100   45.8600   52.2150 C   0  0  0  0  0  0  0  0  0  0  0  0
    7.6950   46.3480   52.9560 C   0  0  0  0  0  0  0  0  0  0  0  0
    7.5270   47.0610   54.1550 C   0  0  0  0  0  0  0  0  0  0  0  0
    8.6390   47.5140   54.8720 C   0  0  0  0  0  0  0  0  0  0  0  0
    9.9280   47.2490   54.4040 C   0  0  0  0  0  0  0  0  0  0  0  0
   11.0060   47.6870   55.1000 F   0  0  0  0  0  0  0  0  0  0  0  0
   10.1070   46.5250   53.2220 C   0  0  0  0  0  0  0  0  0  0  0  0
    8.9960   46.0700   52.5020 C   0  0  0  0  0  0  0  0  0  0  0  0
    6.4960   45.3870   50.9460 N   0  0  0  0  0  0  0  0  0  0  0  0
    7.6190   45.2790   50.0200 C   0  0  0  0  0  0  0  0  0  0  0  0
    5.2650   45.0240   50.6230 N   0  0  0  0  0  0  0  0  0  0  0  0
   -0.0490   44.1920   51.3390 C   0  0  0  0  0  0  0  0  0  0  0  0
   -3.1790   42.7070   52.7160 N   0  0  0  0  0  0  0  0  0  0  0  0
   -3.9250   43.2200   53.7430 O   0  0  0  0  0  0  0  0  0  0  0  0
   -3.6355   44.7742   56.4582 H   0  0  0  0  0  0  0  0  0  0  0  0
   -3.4485   43.0265   56.0875 H   0  0  0  0  0  0  0  0  0  0  0  0
   -2.0109   44.1035   56.0875 H   0  0  0  0  0  0  0  0  0  0  0  0
   -3.8973   45.2537   54.3485 H   0  0  0  0  0  0  0  0  0  0  0  0
   -1.9152   45.4639   53.1044 H   0  0  0  0  0  0  0  0  0  0  0  0
   -1.0815   44.4259   54.2281 H   0  0  0  0  0  0  0  0  0  0  0  0
   -1.6983   42.6833   50.7843 H   0  0  0  0  0  0  0  0  0  0  0  0
    0.0770   42.0923   53.1504 H   0  0  0  0  0  0  0  0  0  0  0  0
    0.4134   41.3893   51.6325 H   0  0  0  0  0  0  0  0  0  0  0  0
    2.4090   45.7540   51.4650 H   0  0  0  0  0  0  0  0  0  0  0  0
    4.8723   46.1396   53.7101 H   0  0  0  0  0  0  0  0  0  0  0  0
    6.5139   47.2643   54.5323 H   0  0  0  0  0  0  0  0  0  0  0  0
    8.4984   48.0793   55.8051 H   0  0  0  0  0  0  0  0  0  0  0  0
   11.1226   46.3123   52.8568 H   0  0  0  0  0  0  0  0  0  0  0  0
    9.1417   45.4925   51.5772 H   0  0  0  0  0  0  0  0  0  0  0  0
    8.5561   45.1889   50.5890 H   0  0  0  0  0  0  0  0  0  0  0  0
    7.4877   44.3893   49.3866 H   0  0  0  0  0  0  0  0  0  0  0  0
    7.6596   46.1774   49.3866 H   0  0  0  0  0  0  0  0  0  0  0  0
   -0.2855   45.0940   51.9225 H   0  0  0  0  0  0  0  0  0  0  0  0
    0.0259   44.5983   50.3195 H   0  0  0  0  0  0  0  0  0  0  0  0
  1  2  1  0
  2  3  1  0
  3  4  1  0
  4  5  1  0
  5  6  1  0
  6  7  1  0
  7  8  1  0
  8  9  2  0
  8 10  1  0
 10 11  1  0
 11 12  1  0
 12 13  2  0
 13 14  1  0
 14 15  2  0
 15 16  1  0
 16 17  2  0
 17 18  1  0
 17 19  1  0
 19 20  2  0
 13 21  1  0
 21 22  1  0
 21 23  1  0
  7 24  1  0
  4 25  2  0
 25 26  1  0
 26  2  1  0
 24  5  1  0
 23 11  2  0
 20 14  1  0
  1 27  1  0
  1 28  1  0
  1 29  1  0
  2 30  1  1
  3 31  1  0
  3 32  1  0
  5 33  1  0
  6 34  1  0
  6 35  1  0
 10 36  1  0
 12 37  1  0
 15 38  1  0
 16 39  1  0
 19 40  1  0
 20 41  1  0
 22 42  1  0
 22 43  1  0
 22 44  1  0
 24 45  1  0
 24 46  1  0
M  END
>  <meeko>  (1) 
{"is_sidechain": [false], "free_energy": -8.485, "intermolecular_energy": -9.973, "internal_energy": 0.031}

$$$$
ligand_74_conformer_5_docked
     RDKit          3D

 46 49  0  0  0  0  0  0  0  0999 V2000
   -3.2520   49.4950   55.9150 C   0  0  0  0  0  0  0  0  0  0  0  0
   -3.2180   48.4930   57.0670 C   0  0  1  0  0  0  0  0  0  0  0  0
   -2.9670   47.0500   56.5910 C   0  0  0  0  0  0  0  0  0  0  0  0
   -1.6940   46.7170   57.2910 C   0  0  0  0  0  0  0  0  0  0  0  0
   -0.9960   45.3870   57.1710 C   0  0  0  0  0  0  0  0  0  0  0  0
    0.5020   45.4650   57.1800 C   0  0  0  0  0  0  0  0  0  0  0  0
    0.6860   45.0040   55.7910 N   0  0  0  0  0  0  0  0  0  0  0  0
    1.7740   44.7530   54.9040 C   0  0  0  0  0  0  0  0  0  0  0  0
    2.9510   44.9590   55.3020 O   0  0  0  0  0  0  0  0  0  0  0  0
    1.5130   44.3030   53.5670 N   0  0  0  0  0  0  0  0  0  0  0  0
    2.5160   43.8570   52.6410 C   0  0  0  0  0  0  0  0  0  0  0  0
    3.6820   44.5180   52.2940 C   0  0  0  0  0  0  0  0  0  0  0  0
    4.3180   43.6450   51.4310 C   0  0  0  0  0  0  0  0  0  0  0  0
    5.6250   43.8930   50.7830 C   0  0  0  0  0  0  0  0  0  0  0  0
    6.1740   42.9280   49.9200 C   0  0  0  0  0  0  0  0  0  0  0  0
    7.4010   43.1580   49.2900 C   0  0  0  0  0  0  0  0  0  0  0  0
    8.0850   44.3570   49.5070 C   0  0  0  0  0  0  0  0  0  0  0  0
    9.2740   44.5790   48.8950 F   0  0  0  0  0  0  0  0  0  0  0  0
    7.5400   45.3290   50.3490 C   0  0  0  0  0  0  0  0  0  0  0  0
    6.3130   45.1030   50.9810 C   0  0  0  0  0  0  0  0  0  0  0  0
    3.5440   42.5440   51.2800 N   0  0  0  0  0  0  0  0  0  0  0  0
    3.8000   41.3800   50.4360 C   0  0  0  0  0  0  0  0  0  0  0  0
    2.4570   42.6610   52.0250 N   0  0  0  0  0  0  0  0  0  0  0  0
   -0.7870   44.9180   55.7640 C   0  0  0  0  0  0  0  0  0  0  0  0
   -1.2530   47.6910   58.0100 N   0  0  0  0  0  0  0  0  0  0  0  0
   -2.1080   48.7570   57.9110 O   0  0  0  0  0  0  0  0  0  0  0  0
   -3.2867   50.5174   56.3193 H   0  0  0  0  0  0  0  0  0  0  0  0
   -2.3493   49.3751   55.2980 H   0  0  0  0  0  0  0  0  0  0  0  0
   -4.1445   49.3142   55.2980 H   0  0  0  0  0  0  0  0  0  0  0  0
   -4.1947   48.5934   57.5630 H   0  0  0  0  0  0  0  0  0  0  0  0
   -3.7818   46.3786   56.8999 H   0  0  0  0  0  0  0  0  0  0  0  0
   -2.9158   46.9435   55.4974 H   0  0  0  0  0  0  0  0  0  0  0  0
   -1.5884   44.8415   57.9203 H   0  0  0  0  0  0  0  0  0  0  0  0
    0.8738   46.4876   57.3416 H   0  0  0  0  0  0  0  0  0  0  0  0
    1.0297   44.9085   57.9686 H   0  0  0  0  0  0  0  0  0  0  0  0
    0.5260   44.3330   53.2270 H   0  0  0  0  0  0  0  0  0  0  0  0
    4.0235   45.5089   52.6278 H   0  0  0  0  0  0  0  0  0  0  0  0
    5.6349   41.9863   49.7394 H   0  0  0  0  0  0  0  0  0  0  0  0
    7.8281   42.3945   48.6231 H   0  0  0  0  0  0  0  0  0  0  0  0
    8.0771   46.2744   50.5154 H   0  0  0  0  0  0  0  0  0  0  0  0
    5.8842   45.8756   51.6361 H   0  0  0  0  0  0  0  0  0  0  0  0
    3.9930   40.5024   51.0705 H   0  0  0  0  0  0  0  0  0  0  0  0
    2.9227   41.1875   49.8009 H   0  0  0  0  0  0  0  0  0  0  0  0
    4.6771   41.5734   49.8009 H   0  0  0  0  0  0  0  0  0  0  0  0
   -1.2386   45.5908   55.0201 H   0  0  0  0  0  0  0  0  0  0  0  0
   -1.2285   43.9494   55.4867 H   0  0  0  0  0  0  0  0  0  0  0  0
  1  2  1  0
  2  3  1  0
  3  4  1  0
  4  5  1  0
  5  6  1  0
  6  7  1  0
  7  8  1  0
  8  9  2  0
  8 10  1  0
 10 11  1  0
 11 12  1  0
 12 13  2  0
 13 14  1  0
 14 15  2  0
 15 16  1  0
 16 17  2  0
 17 18  1  0
 17 19  1  0
 19 20  2  0
 13 21  1  0
 21 22  1  0
 21 23  1  0
  7 24  1  0
  4 25  2  0
 25 26  1  0
 26  2  1  0
 24  5  1  0
 23 11  2  0
 20 14  1  0
  1 27  1  0
  1 28  1  0
  1 29  1  0
  2 30  1  1
  3 31  1  0
  3 32  1  0
  5 33  1  0
  6 34  1  0
  6 35  1  0
 10 36  1  0
 12 37  1  0
 15 38  1  0
 16 39  1  0
 19 40  1  0
 20 41  1  0
 22 42  1  0
 22 43  1  0
 22 44  1  0
 24 45  1  0
 24 46  1  0
M  END
>  <meeko>  (2) 
{"is_sidechain": [false], "free_energy": -8.406, "intermolecular_energy": -10.211, "internal_energy": 0.361}

$$$$
ligand_74_conformer_5_docked
     RDKit          3D

 46 49  0  0  0  0  0  0  0  0999 V2000
   -3.1470   44.3850   47.3640 C   0  0  0  0  0  0  0  0  0  0  0  0
   -3.5780   44.0460   48.7890 C   0  0  1  0  0  0  0  0  0  0  0  0
   -2.4720   43.3330   49.5910 C   0  0  0  0  0  0  0  0  0  0  0  0
   -2.2490   44.2860   50.7150 C   0  0  0  0  0  0  0  0  0  0  0  0
   -1.2480   44.0600   51.8180 C   0  0  0  0  0  0  0  0  0  0  0  0
   -0.5400   45.2970   52.2830 C   0  0  0  0  0  0  0  0  0  0  0  0
    0.7970   44.8930   51.8090 N   0  0  0  0  0  0  0  0  0  0  0  0
    2.1170   45.4330   51.8100 C   0  0  0  0  0  0  0  0  0  0  0  0
    2.3170   46.5690   52.3160 O   0  0  0  0  0  0  0  0  0  0  0  0
    3.1880   44.6920   51.2090 N   0  0  0  0  0  0  0  0  0  0  0  0
    4.5780   45.0440   51.2940 C   0  0  0  0  0  0  0  0  0  0  0  0
    5.2170   45.6620   52.3560 C   0  0  0  0  0  0  0  0  0  0  0  0
    6.5430   45.7130   51.9650 C   0  0  0  0  0  0  0  0  0  0  0  0
    7.6440   46.2840   52.7730 C   0  0  0  0  0  0  0  0  0  0  0  0
    7.3720   46.8360   54.0370 C   0  0  0  0  0  0  0  0  0  0  0  0
    8.4070   47.3640   54.8160 C   0  0  0  0  0  0  0  0  0  0  0  0
    9.7220   47.3350   54.3450 C   0  0  0  0  0  0  0  0  0  0  0  0
   10.7240   47.8460   55.1020 F   0  0  0  0  0  0  0  0  0  0  0  0
   10.0050   46.7720   53.0980 C   0  0  0  0  0  0  0  0  0  0  0  0
    8.9730   46.2430   52.3160 C   0  0  0  0  0  0  0  0  0  0  0  0
    6.6530   45.1650   50.7320 N   0  0  0  0  0  0  0  0  0  0  0  0
    7.8560   45.0380   49.9150 C   0  0  0  0  0  0  0  0  0  0  0  0
    5.4660   44.7430   50.3270 N   0  0  0  0  0  0  0  0  0  0  0  0
    0.1190   43.6670   51.3480 C   0  0  0  0  0  0  0  0  0  0  0  0
   -3.0050   45.3270   50.6410 N   0  0  0  0  0  0  0  0  0  0  0  0
   -3.8010   45.2370   49.5290 O   0  0  0  0  0  0  0  0  0  0  0  0
   -2.2827   45.0648   47.3942 H   0  0  0  0  0  0  0  0  0  0  0  0
   -2.8686   43.4613   46.8356 H   0  0  0  0  0  0  0  0  0  0  0  0
   -3.9791   44.8732   46.8356 H   0  0  0  0  0  0  0  0  0  0  0  0
   -4.4702   43.4128   48.6743 H   0  0  0  0  0  0  0  0  0  0  0  0
   -2.8115   42.3531   49.9579 H   0  0  0  0  0  0  0  0  0  0  0  0
   -1.5668   43.1148   49.0053 H   0  0  0  0  0  0  0  0  0  0  0  0
   -1.8808   43.4339   52.4643 H   0  0  0  0  0  0  0  0  0  0  0  0
   -0.9085   46.2088   51.7903 H   0  0  0  0  0  0  0  0  0  0  0  0
   -0.6377   45.5629   53.3459 H   0  0  0  0  0  0  0  0  0  0  0  0
    2.9410   43.8540   50.6380 H   0  0  0  0  0  0  0  0  0  0  0  0
    4.7729   46.0277   53.2936 H   0  0  0  0  0  0  0  0  0  0  0  0
    6.3394   46.8528   54.4156 H   0  0  0  0  0  0  0  0  0  0  0  0
    8.1853   47.8024   55.8002 H   0  0  0  0  0  0  0  0  0  0  0  0
   11.0414   46.7447   52.7305 H   0  0  0  0  0  0  0  0  0  0  0  0
    9.2022   45.7928   51.3389 H   0  0  0  0  0  0  0  0  0  0  0  0
    8.7354   44.9452   50.5692 H   0  0  0  0  0  0  0  0  0  0  0  0
    7.7753   44.1434   49.2801 H   0  0  0  0  0  0  0  0  0  0  0  0
    7.9639   45.9297   49.2801 H   0  0  0  0  0  0  0  0  0  0  0  0
    0.1723   43.5362   50.2571 H   0  0  0  0  0  0  0  0  0  0  0  0
    0.5173   42.7069   51.7079 H   0  0  0  0  0  0  0  0  0  0  0  0
  1  2  1  0
  2  3  1  0
  3  4  1  0
  4  5  1  0
  5  6  1  0
  6  7  1  0
  7  8  1  0
  8  9  2  0
  8 10  1  0
 10 11  1  0
 11 12  1  0
 12 13  2  0
 13 14  1  0
 14 15  2  0
 15 16  1  0
 16 17  2  0
 17 18  1  0
 17 19  1  0
 19 20  2  0
 13 21  1  0
 21 22  1  0
 21 23  1  0
  7 24  1  0
  4 25  2  0
 25 26  1  0
 26  2  1  0
 24  5  1  0
 23 11  2  0
 20 14  1  0
  1 27  1  0
  1 28  1  0
  1 29  1  0
  2 30  1  6
  3 31  1  0
  3 32  1  0
  5 33  1  0
  6 34  1  0
  6 35  1  0
 10 36  1  0
 12 37  1  0
 15 38  1  0
 16 39  1  0
 19 40  1  0
 20 41  1  0
 22 42  1  0
 22 43  1  0
 22 44  1  0
 24 45  1  0
 24 46  1  0
M  END
>  <meeko>  (3) 
{"is_sidechain": [false], "free_energy": -8.055, "intermolecular_energy": -9.84, "internal_energy": 0.404}

$$$$
ligand_74_conformer_5_docked
     RDKit          3D

 46 49  0  0  0  0  0  0  0  0999 V2000
   -3.5980   39.3700   48.5840 C   0  0  0  0  0  0  0  0  0  0  0  0
   -3.8700   40.8060   49.0240 C   0  0  1  0  0  0  0  0  0  0  0  0
   -3.7980   40.9830   50.5530 C   0  0  0  0  0  0  0  0  0  0  0  0
   -2.6930   41.9740   50.6920 C   0  0  0  0  0  0  0  0  0  0  0  0
   -2.2090   42.5070   52.0150 C   0  0  0  0  0  0  0  0  0  0  0  0
   -1.9130   43.9770   52.0250 C   0  0  0  0  0  0  0  0  0  0  0  0
   -0.4600   43.8370   52.2360 N   0  0  0  0  0  0  0  0  0  0  0  0
    0.6670   44.7000   52.3830 C   0  0  0  0  0  0  0  0  0  0  0  0
    0.4990   45.9460   52.3200 O   0  0  0  0  0  0  0  0  0  0  0  0
    1.9730   44.1370   52.5670 N   0  0  0  0  0  0  0  0  0  0  0  0
    3.1520   44.8900   52.8950 C   0  0  0  0  0  0  0  0  0  0  0  0
    4.4290   44.6980   52.3920 C   0  0  0  0  0  0  0  0  0  0  0  0
    5.1710   45.7120   52.9690 C   0  0  0  0  0  0  0  0  0  0  0  0
    6.6140   45.9450   52.7360 C   0  0  0  0  0  0  0  0  0  0  0  0
    7.1100   46.0130   51.4230 C   0  0  0  0  0  0  0  0  0  0  0  0
    8.4690   46.2470   51.1900 C   0  0  0  0  0  0  0  0  0  0  0  0
    9.3420   46.4270   52.2660 C   0  0  0  0  0  0  0  0  0  0  0  0
   10.6590   46.6550   52.0390 F   0  0  0  0  0  0  0  0  0  0  0  0
    8.8560   46.3780   53.5750 C   0  0  0  0  0  0  0  0  0  0  0  0
    7.4970   46.1440   53.8120 C   0  0  0  0  0  0  0  0  0  0  0  0
    4.3610   46.4380   53.7750 N   0  0  0  0  0  0  0  0  0  0  0  0
    4.7230   47.5800   54.6100 C   0  0  0  0  0  0  0  0  0  0  0  0
    3.1310   45.9530   53.7200 N   0  0  0  0  0  0  0  0  0  0  0  0
   -0.7310   42.3880   52.2320 C   0  0  0  0  0  0  0  0  0  0  0  0
   -2.1940   42.3240   49.5570 N   0  0  0  0  0  0  0  0  0  0  0  0
   -2.8470   41.6660   48.5470 O   0  0  0  0  0  0  0  0  0  0  0  0
   -3.4770   38.7313   49.4714 H   0  0  0  0  0  0  0  0  0  0  0  0
   -4.4429   39.0048   47.9818 H   0  0  0  0  0  0  0  0  0  0  0  0
   -2.6780   39.3391   47.9818 H   0  0  0  0  0  0  0  0  0  0  0  0
   -4.8719   41.0389   48.6343 H   0  0  0  0  0  0  0  0  0  0  0  0
   -4.7427   41.3770   50.9558 H   0  0  0  0  0  0  0  0  0  0  0  0
   -3.6283   40.0456   51.1031 H   0  0  0  0  0  0  0  0  0  0  0  0
   -2.9657   42.0270   52.6529 H   0  0  0  0  0  0  0  0  0  0  0  0
   -2.1592   44.4671   51.0715 H   0  0  0  0  0  0  0  0  0  0  0  0
   -2.4683   44.5970   52.7442 H   0  0  0  0  0  0  0  0  0  0  0  0
    2.0870   43.1100   52.4200 H   0  0  0  0  0  0  0  0  0  0  0  0
    4.7726   43.9193   51.6952 H   0  0  0  0  0  0  0  0  0  0  0  0
    6.4247   45.8813   50.5727 H   0  0  0  0  0  0  0  0  0  0  0  0
    8.8508   46.2894   50.1592 H   0  0  0  0  0  0  0  0  0  0  0  0
    9.5434   46.5237   54.4213 H   0  0  0  0  0  0  0  0  0  0  0  0
    7.1179   46.1156   54.8442 H   0  0  0  0  0  0  0  0  0  0  0  0
    4.6347   47.3015   55.6705 H   0  0  0  0  0  0  0  0  0  0  0  0
    5.7597   47.8780   54.3943 H   0  0  0  0  0  0  0  0  0  0  0  0
    4.0473   48.4208   54.3943 H   0  0  0  0  0  0  0  0  0  0  0  0
   -0.2217   41.8625   51.4108 H   0  0  0  0  0  0  0  0  0  0  0  0
   -0.3966   41.8120   53.1075 H   0  0  0  0  0  0  0  0  0  0  0  0
  1  2  1  0
  2  3  1  0
  3  4  1  0
  4  5  1  0
  5  6  1  0
  6  7  1  0
  7  8  1  0
  8  9  2  0
  8 10  1  0
 10 11  1  0
 11 12  1  0
 12 13  2  0
 13 14  1  0
 14 15  2  0
 15 16  1  0
 16 17  2  0
 17 18  1  0
 17 19  1  0
 19 20  2  0
 13 21  1  0
 21 22  1  0
 21 23  1  0
  7 24  1  0
  4 25  2  0
 25 26  1  0
 26  2  1  0
 24  5  1  0
 23 11  2  0
 20 14  1  0
  1 27  1  0
  1 28  1  0
  1 29  1  0
  2 30  1  6
  3 31  1  0
  3 32  1  0
  5 33  1  0
  6 34  1  0
  6 35  1  0
 10 36  1  0
 12 37  1  0
 15 38  1  0
 16 39  1  0
 19 40  1  0
 20 41  1  0
 22 42  1  0
 22 43  1  0
 22 44  1  0
 24 45  1  0
 24 46  1  0
M  END
>  <meeko>  (4) 
{"is_sidechain": [false], "free_energy": -7.93, "intermolecular_energy": -9.275, "internal_energy": -0.015}

$$$$
ligand_74_conformer_5_docked
     RDKit          3D

 46 49  0  0  0  0  0  0  0  0999 V2000
   -3.7420   49.3360   55.8180 C   0  0  0  0  0  0  0  0  0  0  0  0
   -3.9680   48.0460   56.6020 C   0  0  1  0  0  0  0  0  0  0  0  0
   -3.3420   46.8170   55.9160 C   0  0  0  0  0  0  0  0  0  0  0  0
   -2.3700   46.3570   56.9480 C   0  0  0  0  0  0  0  0  0  0  0  0
   -1.4760   45.1550   56.7810 C   0  0  0  0  0  0  0  0  0  0  0  0
   -0.0530   45.3710   57.1990 C   0  0  0  0  0  0  0  0  0  0  0  0
    0.5250   45.2340   55.8490 N   0  0  0  0  0  0  0  0  0  0  0  0
    1.8190   45.2800   55.2510 C   0  0  0  0  0  0  0  0  0  0  0  0
    2.8230   45.5080   55.9770 O   0  0  0  0  0  0  0  0  0  0  0  0
    1.9550   45.1000   53.8350 N   0  0  0  0  0  0  0  0  0  0  0  0
    3.2050   44.9560   53.1430 C   0  0  0  0  0  0  0  0  0  0  0  0
    4.3420   45.7300   53.3070 C   0  0  0  0  0  0  0  0  0  0  0  0
    5.2700   45.1450   52.4660 C   0  0  0  0  0  0  0  0  0  0  0  0
    6.6650   45.6070   52.2880 C   0  0  0  0  0  0  0  0  0  0  0  0
    7.4290   45.9740   53.4100 C   0  0  0  0  0  0  0  0  0  0  0  0
    8.7530   46.3980   53.2560 C   0  0  0  0  0  0  0  0  0  0  0  0
    9.3290   46.4480   51.9840 C   0  0  0  0  0  0  0  0  0  0  0  0
   10.6120   46.8580   51.8360 F   0  0  0  0  0  0  0  0  0  0  0  0
    8.5830   46.0690   50.8650 C   0  0  0  0  0  0  0  0  0  0  0  0
    7.2580   45.6450   51.0140 C   0  0  0  0  0  0  0  0  0  0  0  0
    4.6870   44.0960   51.8390 N   0  0  0  0  0  0  0  0  0  0  0  0
    5.2780   43.2120   50.8390 C   0  0  0  0  0  0  0  0  0  0  0  0
    3.4380   43.9680   52.2590 N   0  0  0  0  0  0  0  0  0  0  0  0
   -0.8690   45.0150   55.4180 C   0  0  0  0  0  0  0  0  0  0  0  0
   -2.3740   47.1000   58.0010 N   0  0  0  0  0  0  0  0  0  0  0  0
   -3.2910   48.1060   57.8480 O   0  0  0  0  0  0  0  0  0  0  0  0
   -3.5958   50.1706   56.5195 H   0  0  0  0  0  0  0  0  0  0  0  0
   -2.8490   49.2285   55.1848 H   0  0  0  0  0  0  0  0  0  0  0  0
   -4.6183   49.5385   55.1848 H   0  0  0  0  0  0  0  0  0  0  0  0
   -5.0605   47.9511   56.6879 H   0  0  0  0  0  0  0  0  0  0  0  0
   -4.0984   46.0465   55.7059 H   0  0  0  0  0  0  0  0  0  0  0  0
   -2.8860   47.0350   54.9390 H   0  0  0  0  0  0  0  0  0  0  0  0
   -2.1446   44.4102   57.2375 H   0  0  0  0  0  0  0  0  0  0  0  0
    0.1157   46.3668   57.6347 H   0  0  0  0  0  0  0  0  0  0  0  0
    0.3452   44.7127   57.9852 H   0  0  0  0  0  0  0  0  0  0  0  0
    1.0860   45.1070   53.2570 H   0  0  0  0  0  0  0  0  0  0  0  0
    4.4756   46.6076   53.9566 H   0  0  0  0  0  0  0  0  0  0  0  0
    6.9829   45.9274   54.4144 H   0  0  0  0  0  0  0  0  0  0  0  0
    9.3415   46.6925   54.1374 H   0  0  0  0  0  0  0  0  0  0  0  0
    9.0386   46.1041   49.8644 H   0  0  0  0  0  0  0  0  0  0  0  0
    6.6779   45.3401   50.1305 H   0  0  0  0  0  0  0  0  0  0  0  0
    5.8213   42.3993   51.3433 H   0  0  0  0  0  0  0  0  0  0  0  0
    4.4824   42.7861   50.2101 H   0  0  0  0  0  0  0  0  0  0  0  0
    5.9757   43.7844   50.2101 H   0  0  0  0  0  0  0  0  0  0  0  0
   -1.2222   45.7831   54.7142 H   0  0  0  0  0  0  0  0  0  0  0  0
   -1.0844   44.0890   54.8646 H   0  0  0  0  0  0  0  0  0  0  0  0
  1  2  1  0
  2  3  1  0
  3  4  1  0
  4  5  1  0
  5  6  1  0
  6  7  1  0
  7  8  1  0
  8  9  2  0
  8 10  1  0
 10 11  1  0
 11 12  1  0
 12 13  2  0
 13 14  1  0
 14 15  2  0
 15 16  1  0
 16 17  2  0
 17 18  1  0
 17 19  1  0
 19 20  2  0
 13 21  1  0
 21 22  1  0
 21 23  1  0
  7 24  1  0
  4 25  2  0
 25 26  1  0
 26  2  1  0
 24  5  1  0
 23 11  2  0
 20 14  1  0
  1 27  1  0
  1 28  1  0
  1 29  1  0
  2 30  1  1
  3 31  1  0
  3 32  1  0
  5 33  1  0
  6 34  1  0
  6 35  1  0
 10 36  1  0
 12 37  1  0
 15 38  1  0
 16 39  1  0
 19 40  1  0
 20 41  1  0
 22 42  1  0
 22 43  1  0
 22 44  1  0
 24 45  1  0
 24 46  1  0
M  END
>  <meeko>  (5) 
{"is_sidechain": [false], "free_energy": -7.715, "intermolecular_energy": -9.103, "internal_energy": 0.065}

$$$$
