ligand_48_conformer_2_docked
     RDKit          3D

 52 55  0  0  0  0  0  0  0  0999 V2000
   -3.1800   43.2630   51.7750 C   0  0  0  0  0  0  0  0  0  0  0  0
   -1.8170   43.2970   52.4740 C   0  0  0  0  0  0  0  0  0  0  0  0
   -1.0900   41.9510   52.3820 C   0  0  0  0  0  0  0  0  0  0  0  0
   -1.9280   43.7810   53.9000 C   0  0  0  0  0  0  0  0  0  0  0  0
   -3.1060   43.8320   54.5650 N   0  0  0  0  0  0  0  0  0  0  0  0
   -2.8610   44.2850   55.7910 N   0  0  0  0  0  0  0  0  0  0  0  0
   -1.5370   44.5040   55.8510 C   0  0  0  0  0  0  0  0  0  0  0  0
   -0.8240   44.9650   56.9520 C   0  0  0  0  0  0  0  0  0  0  0  0
    0.5650   45.1070   56.8140 C   0  0  0  0  0  0  0  0  0  0  0  0
    1.2000   44.8070   55.5900 C   0  0  0  0  0  0  0  0  0  0  0  0
    2.6280   44.9210   55.4780 N   0  0  0  0  0  0  0  0  0  0  0  0
    3.2770   45.5350   54.3570 C   0  0  0  0  0  0  0  0  0  0  0  0
    2.7800   46.5770   53.8490 O   0  0  0  0  0  0  0  0  0  0  0  0
    4.4880   44.9720   53.8070 N   0  0  0  0  0  0  0  0  0  0  0  0
    4.4910   44.3640   52.4690 C   0  0  0  0  0  0  0  0  0  0  0  0
    5.8630   44.5040   51.7830 C   0  0  0  0  0  0  0  0  0  0  0  0
    6.2700   45.9660   51.4270 C   0  0  0  0  0  0  0  0  0  0  0  0
    7.5080   46.4200   52.1670 C   0  0  0  0  0  0  0  0  0  0  0  0
    8.7110   46.5110   51.4450 C   0  0  0  0  0  0  0  0  0  0  0  0
    9.9030   46.8580   52.0820 C   0  0  0  0  0  0  0  0  0  0  0  0
    9.9150   47.1040   53.4530 C   0  0  0  0  0  0  0  0  0  0  0  0
    8.7360   47.0080   54.1920 C   0  0  0  0  0  0  0  0  0  0  0  0
    7.5180   46.6760   53.5680 C   0  0  0  0  0  0  0  0  0  0  0  0
    6.2780   46.5680   54.4360 C   0  0  0  0  0  0  0  0  0  0  0  0
    5.7600   45.1270   54.5280 C   0  0  0  0  0  0  0  0  0  0  0  0
    0.4190   44.3330   54.5140 C   0  0  0  0  0  0  0  0  0  0  0  0
   -0.9220   44.2060   54.6970 N   0  0  0  0  0  0  0  0  0  0  0  0
   -3.9792   43.2431   52.5306 H   0  0  0  0  0  0  0  0  0  0  0  0
   -3.2921   44.1586   51.1463 H   0  0  0  0  0  0  0  0  0  0  0  0
   -3.2473   42.3629   51.1463 H   0  0  0  0  0  0  0  0  0  0  0  0
   -1.1997   44.0295   51.9332 H   0  0  0  0  0  0  0  0  0  0  0  0
   -0.8865   41.5742   53.3952 H   0  0  0  0  0  0  0  0  0  0  0  0
   -1.7211   41.2295   51.8424 H   0  0  0  0  0  0  0  0  0  0  0  0
   -0.1406   42.0832   51.8424 H   0  0  0  0  0  0  0  0  0  0  0  0
   -1.3307   45.2096   57.8972 H   0  0  0  0  0  0  0  0  0  0  0  0
    1.1646   45.4554   57.6679 H   0  0  0  0  0  0  0  0  0  0  0  0
    3.2220   44.5420   56.2510 H   0  0  0  0  0  0  0  0  0  0  0  0
    4.2464   43.2956   52.5623 H   0  0  0  0  0  0  0  0  0  0  0  0
    3.7445   44.8868   51.8530 H   0  0  0  0  0  0  0  0  0  0  0  0
    6.6269   44.0910   52.4582 H   0  0  0  0  0  0  0  0  0  0  0  0
    5.7886   43.9623   50.8285 H   0  0  0  0  0  0  0  0  0  0  0  0
    6.4641   46.0246   50.3459 H   0  0  0  0  0  0  0  0  0  0  0  0
    5.4418   46.6253   51.7261 H   0  0  0  0  0  0  0  0  0  0  0  0
    8.7125   46.3061   50.3643 H   0  0  0  0  0  0  0  0  0  0  0  0
   10.8338   46.9373   51.5011 H   0  0  0  0  0  0  0  0  0  0  0  0
   10.8562   47.3745   53.9539 H   0  0  0  0  0  0  0  0  0  0  0  0
    8.7578   47.1940   55.2759 H   0  0  0  0  0  0  0  0  0  0  0  0
    6.5221   46.9222   55.4484 H   0  0  0  0  0  0  0  0  0  0  0  0
    5.4893   47.1821   53.9769 H   0  0  0  0  0  0  0  0  0  0  0  0
    6.5063   44.4487   54.0887 H   0  0  0  0  0  0  0  0  0  0  0  0
    5.5915   44.8845   55.5876 H   0  0  0  0  0  0  0  0  0  0  0  0
    0.8838   44.0729   53.5516 H   0  0  0  0  0  0  0  0  0  0  0  0
  1  2  1  0
  2  3  1  0
  2  4  1  0
  4  5  2  0
  5  6  1  0
  6  7  2  0
  7  8  1  0
  8  9  2  0
  9 10  1  0
 10 11  1  0
 11 12  1  0
 12 13  2  0
 12 14  1  0
 14 15  1  0
 15 16  1  0
 16 17  1  0
 17 18  1  0
 18 19  2  0
 19 20  1  0
 20 21  2  0
 21 22  1  0
 22 23  2  0
 23 24  1  0
 24 25  1  0
 10 26  2  0
 26 27  1  0
 27  4  1  0
 27  7  1  0
 25 14  1  0
 23 18  1  0
  1 28  1  0
  1 29  1  0
  1 30  1  0
  2 31  1  0
  3 32  1  0
  3 33  1  0
  3 34  1  0
  8 35  1  0
  9 36  1  0
 11 37  1  0
 15 38  1  0
 15 39  1  0
 16 40  1  0
 16 41  1  0
 17 42  1  0
 17 43  1  0
 19 44  1  0
 20 45  1  0
 21 46  1  0
 22 47  1  0
 24 48  1  0
 24 49  1  0
 25 50  1  0
 25 51  1  0
 26 52  1  0
M  END
>  <meeko>  (1) 
{"is_sidechain": [false], "free_energy": -7.391, "intermolecular_energy": -11.28, "internal_energy": 0.291}

$$$$
ligand_48_conformer_2_docked
     RDKit          3D

 52 55  0  0  0  0  0  0  0  0999 V2000
   -2.1070   44.1220   57.1990 C   0  0  0  0  0  0  0  0  0  0  0  0
   -1.9210   45.1020   56.0360 C   0  0  0  0  0  0  0  0  0  0  0  0
   -2.7660   46.3690   56.2110 C   0  0  0  0  0  0  0  0  0  0  0  0
   -2.1630   44.4430   54.6990 C   0  0  0  0  0  0  0  0  0  0  0  0
   -3.3440   43.8690   54.3710 N   0  0  0  0  0  0  0  0  0  0  0  0
   -3.2370   43.3980   53.1320 N   0  0  0  0  0  0  0  0  0  0  0  0
   -1.9900   43.6920   52.7270 C   0  0  0  0  0  0  0  0  0  0  0  0
   -1.4350   43.4060   51.4850 C   0  0  0  0  0  0  0  0  0  0  0  0
   -0.1140   43.8190   51.2530 C   0  0  0  0  0  0  0  0  0  0  0  0
    0.6190   44.4840   52.2600 C   0  0  0  0  0  0  0  0  0  0  0  0
    1.9560   44.9350   51.9910 N   0  0  0  0  0  0  0  0  0  0  0  0
    3.1220   44.2130   52.4100 C   0  0  0  0  0  0  0  0  0  0  0  0
    3.1310   42.9540   52.3340 O   0  0  0  0  0  0  0  0  0  0  0  0
    4.2790   44.9130   52.9170 N   0  0  0  0  0  0  0  0  0  0  0  0
    4.1860   45.7290   54.1370 C   0  0  0  0  0  0  0  0  0  0  0  0
    5.5330   45.7970   54.8800 C   0  0  0  0  0  0  0  0  0  0  0  0
    6.3170   47.1020   54.6110 C   0  0  0  0  0  0  0  0  0  0  0  0
    7.5430   46.8790   53.7540 C   0  0  0  0  0  0  0  0  0  0  0  0
    8.7930   47.2400   54.2850 C   0  0  0  0  0  0  0  0  0  0  0  0
    9.9550   47.1240   53.5220 C   0  0  0  0  0  0  0  0  0  0  0  0
    9.8850   46.6600   52.2110 C   0  0  0  0  0  0  0  0  0  0  0  0
    8.6540   46.3060   51.6590 C   0  0  0  0  0  0  0  0  0  0  0  0
    7.4700   46.3990   52.4150 C   0  0  0  0  0  0  0  0  0  0  0  0
    6.1630   46.0180   51.7440 C   0  0  0  0  0  0  0  0  0  0  0  0
    5.5940   44.7040   52.2930 C   0  0  0  0  0  0  0  0  0  0  0  0
   -0.0090   44.7520   53.4950 C   0  0  0  0  0  0  0  0  0  0  0  0
   -1.2910   44.3390   53.6720 N   0  0  0  0  0  0  0  0  0  0  0  0
   -2.0047   44.6609   58.1525 H   0  0  0  0  0  0  0  0  0  0  0  0
   -3.1073   43.6683   57.1397 H   0  0  0  0  0  0  0  0  0  0  0  0
   -1.3425   43.3333   57.1397 H   0  0  0  0  0  0  0  0  0  0  0  0
   -0.8674   45.4176   56.0514 H   0  0  0  0  0  0  0  0  0  0  0  0
   -2.9024   46.5736   57.2832 H   0  0  0  0  0  0  0  0  0  0  0  0
   -2.2538   47.2196   55.7377 H   0  0  0  0  0  0  0  0  0  0  0  0
   -3.7482   46.2230   55.7377 H   0  0  0  0  0  0  0  0  0  0  0  0
   -2.0103   42.8753   50.7122 H   0  0  0  0  0  0  0  0  0  0  0  0
    0.3548   43.6228   50.2774 H   0  0  0  0  0  0  0  0  0  0  0  0
    2.0870   45.8270   51.4630 H   0  0  0  0  0  0  0  0  0  0  0  0
    3.8789   46.7487   53.8614 H   0  0  0  0  0  0  0  0  0  0  0  0
    3.4481   45.2627   54.8063 H   0  0  0  0  0  0  0  0  0  0  0  0
    5.3395   45.7228   55.9603 H   0  0  0  0  0  0  0  0  0  0  0  0
    6.1503   44.9650   54.5102 H   0  0  0  0  0  0  0  0  0  0  0  0
    5.6526   47.8123   54.0971 H   0  0  0  0  0  0  0  0  0  0  0  0
    6.6562   47.4925   55.5818 H   0  0  0  0  0  0  0  0  0  0  0  0
    8.8560   47.6190   55.3157 H   0  0  0  0  0  0  0  0  0  0  0  0
   10.9274   47.3993   53.9563 H   0  0  0  0  0  0  0  0  0  0  0  0
   10.8020   46.5725   51.6097 H   0  0  0  0  0  0  0  0  0  0  0  0
    8.6077   45.9495   50.6194 H   0  0  0  0  0  0  0  0  0  0  0  0
    5.4300   46.8204   51.9140 H   0  0  0  0  0  0  0  0  0  0  0  0
    6.3612   45.8791   50.6710 H   0  0  0  0  0  0  0  0  0  0  0  0
    5.4888   43.9856   51.4666 H   0  0  0  0  0  0  0  0  0  0  0  0
    6.2846   44.3180   53.0573 H   0  0  0  0  0  0  0  0  0  0  0  0
    0.5270   45.2829   54.2956 H   0  0  0  0  0  0  0  0  0  0  0  0
  1  2  1  0
  2  3  1  0
  2  4  1  0
  4  5  2  0
  5  6  1  0
  6  7  2  0
  7  8  1  0
  8  9  2  0
  9 10  1  0
 10 11  1  0
 11 12  1  0
 12 13  2  0
 12 14  1  0
 14 15  1  0
 15 16  1  0
 16 17  1  0
 17 18  1  0
 18 19  2  0
 19 20  1  0
 20 21  2  0
 21 22  1  0
 22 23  2  0
 23 24  1  0
 24 25  1  0
 10 26  2  0
 26 27  1  0
 27  4  1  0
 27  7  1  0
 25 14  1  0
 23 18  1  0
  1 28  1  0
  1 29  1  0
  1 30  1  0
  2 31  1  0
  3 32  1  0
  3 33  1  0
  3 34  1  0
  8 35  1  0
  9 36  1  0
 11 37  1  0
 15 38  1  0
 15 39  1  0
 16 40  1  0
 16 41  1  0
 17 42  1  0
 17 43  1  0
 19 44  1  0
 20 45  1  0
 21 46  1  0
 22 47  1  0
 24 48  1  0
 24 49  1  0
 25 50  1  0
 25 51  1  0
 26 52  1  0
M  END
>  <meeko>  (2) 
{"is_sidechain": [false], "free_energy": -7.157, "intermolecular_energy": -10.679, "internal_energy": 0.047}

$$$$
ligand_48_conformer_2_docked
     RDKit          3D

 52 55  0  0  0  0  0  0  0  0999 V2000
    7.9560   48.5140   52.2390 C   0  0  0  0  0  0  0  0  0  0  0  0
    7.1790   47.2880   52.7280 C   0  0  0  0  0  0  0  0  0  0  0  0
    7.6740   46.7990   54.0930 C   0  0  0  0  0  0  0  0  0  0  0  0
    7.1700   46.1790   51.7020 C   0  0  0  0  0  0  0  0  0  0  0  0
    8.1300   46.0530   50.7560 N   0  0  0  0  0  0  0  0  0  0  0  0
    7.8420   44.9790   50.0270 N   0  0  0  0  0  0  0  0  0  0  0  0
    6.7100   44.4700   50.5410 C   0  0  0  0  0  0  0  0  0  0  0  0
    6.0450   43.3280   50.1070 C   0  0  0  0  0  0  0  0  0  0  0  0
    4.8830   42.9520   50.7980 C   0  0  0  0  0  0  0  0  0  0  0  0
    4.4080   43.7240   51.8810 C   0  0  0  0  0  0  0  0  0  0  0  0
    3.2390   43.3020   52.6010 N   0  0  0  0  0  0  0  0  0  0  0  0
    1.9290   43.8210   52.3360 C   0  0  0  0  0  0  0  0  0  0  0  0
    1.5760   44.0310   51.1430 O   0  0  0  0  0  0  0  0  0  0  0  0
    1.0160   44.1060   53.4180 N   0  0  0  0  0  0  0  0  0  0  0  0
   -0.1550   43.2500   53.6560 C   0  0  0  0  0  0  0  0  0  0  0  0
   -1.3910   44.0750   54.0580 C   0  0  0  0  0  0  0  0  0  0  0  0
   -1.7900   43.8930   55.5380 C   0  0  0  0  0  0  0  0  0  0  0  0
   -1.3320   45.0300   56.4250 C   0  0  0  0  0  0  0  0  0  0  0  0
   -2.3150   45.7780   57.0970 C   0  0  0  0  0  0  0  0  0  0  0  0
   -1.9660   46.8810   57.8760 C   0  0  0  0  0  0  0  0  0  0  0  0
   -0.6310   47.2640   57.9840 C   0  0  0  0  0  0  0  0  0  0  0  0
    0.3600   46.5440   57.3170 C   0  0  0  0  0  0  0  0  0  0  0  0
    0.0330   45.4170   56.5380 C   0  0  0  0  0  0  0  0  0  0  0  0
    1.1590   44.6940   55.8220 C   0  0  0  0  0  0  0  0  0  0  0  0
    1.3290   45.1770   54.3760 C   0  0  0  0  0  0  0  0  0  0  0  0
    5.1380   44.8660   52.2760 C   0  0  0  0  0  0  0  0  0  0  0  0
    6.2610   45.1870   51.5810 N   0  0  0  0  0  0  0  0  0  0  0  0
    8.3193   49.0872   53.1048 H   0  0  0  0  0  0  0  0  0  0  0  0
    8.8120   48.1869   51.6305 H   0  0  0  0  0  0  0  0  0  0  0  0
    7.2948   49.1485   51.6305 H   0  0  0  0  0  0  0  0  0  0  0  0
    6.1354   47.6079   52.8640 H   0  0  0  0  0  0  0  0  0  0  0  0
    7.1351   47.3313   54.8907 H   0  0  0  0  0  0  0  0  0  0  0  0
    7.4899   45.7184   54.1842 H   0  0  0  0  0  0  0  0  0  0  0  0
    8.7523   46.9962   54.1842 H   0  0  0  0  0  0  0  0  0  0  0  0
    6.4162   42.7414   49.2537 H   0  0  0  0  0  0  0  0  0  0  0  0
    4.3368   42.0472   50.4932 H   0  0  0  0  0  0  0  0  0  0  0  0
    3.3460   42.5810   53.3500 H   0  0  0  0  0  0  0  0  0  0  0  0
   -0.3824   42.6928   52.7352 H   0  0  0  0  0  0  0  0  0  0  0  0
    0.0835   42.5646   54.4827 H   0  0  0  0  0  0  0  0  0  0  0  0
   -1.1729   45.1389   53.8832 H   0  0  0  0  0  0  0  0  0  0  0  0
   -2.2336   43.7195   53.4467 H   0  0  0  0  0  0  0  0  0  0  0  0
   -2.8861   43.8229   55.5981 H   0  0  0  0  0  0  0  0  0  0  0  0
   -1.2960   42.9788   55.8988 H   0  0  0  0  0  0  0  0  0  0  0  0
   -3.3727   45.4895   57.0071 H   0  0  0  0  0  0  0  0  0  0  0  0
   -2.7453   47.4488   58.4054 H   0  0  0  0  0  0  0  0  0  0  0  0
   -0.3579   48.1359   58.5965 H   0  0  0  0  0  0  0  0  0  0  0  0
    1.4102   46.8603   57.4004 H   0  0  0  0  0  0  0  0  0  0  0  0
    2.0976   44.8713   56.3676 H   0  0  0  0  0  0  0  0  0  0  0  0
    0.9093   43.6231   55.7937 H   0  0  0  0  0  0  0  0  0  0  0  0
    0.6521   46.0258   54.1992 H   0  0  0  0  0  0  0  0  0  0  0  0
    2.3764   45.4798   54.2304 H   0  0  0  0  0  0  0  0  0  0  0  0
    4.8060   45.4810   53.1255 H   0  0  0  0  0  0  0  0  0  0  0  0
  1  2  1  0
  2  3  1  0
  2  4  1  0
  4  5  2  0
  5  6  1  0
  6  7  2  0
  7  8  1  0
  8  9  2  0
  9 10  1  0
 10 11  1  0
 11 12  1  0
 12 13  2  0
 12 14  1  0
 14 15  1  0
 15 16  1  0
 16 17  1  0
 17 18  1  0
 18 19  2  0
 19 20  1  0
 20 21  2  0
 21 22  1  0
 22 23  2  0
 23 24  1  0
 24 25  1  0
 10 26  2  0
 26 27  1  0
 27  4  1  0
 27  7  1  0
 25 14  1  0
 23 18  1  0
  1 28  1  0
  1 29  1  0
  1 30  1  0
  2 31  1  0
  3 32  1  0
  3 33  1  0
  3 34  1  0
  8 35  1  0
  9 36  1  0
 11 37  1  0
 15 38  1  0
 15 39  1  0
 16 40  1  0
 16 41  1  0
 17 42  1  0
 17 43  1  0
 19 44  1  0
 20 45  1  0
 21 46  1  0
 22 47  1  0
 24 48  1  0
 24 49  1  0
 25 50  1  0
 25 51  1  0
 26 52  1  0
M  END
>  <meeko>  (3) 
{"is_sidechain": [false], "free_energy": -7.026, "intermolecular_energy": -10.447, "internal_energy": 0.016}

$$$$
ligand_48_conformer_2_docked
     RDKit          3D

 52 55  0  0  0  0  0  0  0  0999 V2000
   -2.4260   43.4640   49.0000 C   0  0  0  0  0  0  0  0  0  0  0  0
   -2.6750   42.3200   49.9890 C   0  0  0  0  0  0  0  0  0  0  0  0
   -3.9740   41.5680   49.6830 C   0  0  0  0  0  0  0  0  0  0  0  0
   -2.6210   42.7930   51.4220 C   0  0  0  0  0  0  0  0  0  0  0  0
   -3.6480   42.6200   52.2880 N   0  0  0  0  0  0  0  0  0  0  0  0
   -3.2810   43.1300   53.4590 N   0  0  0  0  0  0  0  0  0  0  0  0
   -2.0370   43.6070   53.2870 C   0  0  0  0  0  0  0  0  0  0  0  0
   -1.2430   44.2150   54.2540 C   0  0  0  0  0  0  0  0  0  0  0  0
    0.0430   44.6260   53.8730 C   0  0  0  0  0  0  0  0  0  0  0  0
    0.4950   44.4400   52.5480 C   0  0  0  0  0  0  0  0  0  0  0  0
    1.8300   44.8310   52.1870 N   0  0  0  0  0  0  0  0  0  0  0  0
    2.9780   44.0100   52.4370 C   0  0  0  0  0  0  0  0  0  0  0  0
    2.8970   42.7630   52.2670 O   0  0  0  0  0  0  0  0  0  0  0  0
    4.2200   44.5970   52.8820 N   0  0  0  0  0  0  0  0  0  0  0  0
    4.3080   45.2640   54.1900 C   0  0  0  0  0  0  0  0  0  0  0  0
    5.7540   45.2960   54.7170 C   0  0  0  0  0  0  0  0  0  0  0  0
    6.4870   46.6260   54.4390 C   0  0  0  0  0  0  0  0  0  0  0  0
    7.5920   46.4650   53.4180 C   0  0  0  0  0  0  0  0  0  0  0  0
    8.9030   46.7880   53.8110 C   0  0  0  0  0  0  0  0  0  0  0  0
    9.9580   46.7280   52.9000 C   0  0  0  0  0  0  0  0  0  0  0  0
    9.7180   46.3580   51.5780 C   0  0  0  0  0  0  0  0  0  0  0  0
    8.4230   46.0440   51.1640 C   0  0  0  0  0  0  0  0  0  0  0  0
    7.3460   46.0820   52.0690 C   0  0  0  0  0  0  0  0  0  0  0  0
    5.9610   45.7500   51.5450 C   0  0  0  0  0  0  0  0  0  0  0  0
    5.4440   44.4110   52.0890 C   0  0  0  0  0  0  0  0  0  0  0  0
   -0.3580   43.8060   51.6200 C   0  0  0  0  0  0  0  0  0  0  0  0
   -1.5930   43.4190   52.0360 N   0  0  0  0  0  0  0  0  0  0  0  0
   -2.2241   44.3916   49.5556 H   0  0  0  0  0  0  0  0  0  0  0  0
   -1.5600   43.2197   48.3673 H   0  0  0  0  0  0  0  0  0  0  0  0
   -3.3152   43.6017   48.3673 H   0  0  0  0  0  0  0  0  0  0  0  0
   -1.8532   41.6007   49.8576 H   0  0  0  0  0  0  0  0  0  0  0  0
   -4.4642   41.2842   50.6259 H   0  0  0  0  0  0  0  0  0  0  0  0
   -4.6453   42.2172   49.1017 H   0  0  0  0  0  0  0  0  0  0  0  0
   -3.7453   40.6626   49.1017 H   0  0  0  0  0  0  0  0  0  0  0  0
   -1.6100   44.3679   55.2796 H   0  0  0  0  0  0  0  0  0  0  0  0
    0.7058   45.0977   54.6134 H   0  0  0  0  0  0  0  0  0  0  0  0
    1.9700   45.7530   51.7170 H   0  0  0  0  0  0  0  0  0  0  0  0
    3.9426   46.2966   54.0888 H   0  0  0  0  0  0  0  0  0  0  0  0
    3.6948   44.6970   54.9058 H   0  0  0  0  0  0  0  0  0  0  0  0
    5.7308   45.1331   55.8046 H   0  0  0  0  0  0  0  0  0  0  0  0
    6.3070   44.5073   54.1859 H   0  0  0  0  0  0  0  0  0  0  0  0
    5.7595   47.3596   54.0614 H   0  0  0  0  0  0  0  0  0  0  0  0
    6.9432   46.9643   55.3810 H   0  0  0  0  0  0  0  0  0  0  0  0
    9.0992   47.0918   54.8498 H   0  0  0  0  0  0  0  0  0  0  0  0
   10.9798   46.9729   53.2254 H   0  0  0  0  0  0  0  0  0  0  0  0
   10.5503   46.3135   50.8602 H   0  0  0  0  0  0  0  0  0  0  0  0
    8.2415   45.7630   50.1161 H   0  0  0  0  0  0  0  0  0  0  0  0
    5.2666   46.5477   51.8475 H   0  0  0  0  0  0  0  0  0  0  0  0
    6.0233   45.6695   50.4497 H   0  0  0  0  0  0  0  0  0  0  0  0
    5.2262   43.7406   51.2446 H   0  0  0  0  0  0  0  0  0  0  0  0
    6.2179   43.9767   52.7390 H   0  0  0  0  0  0  0  0  0  0  0  0
   -0.0315   43.6291   50.5846 H   0  0  0  0  0  0  0  0  0  0  0  0
  1  2  1  0
  2  3  1  0
  2  4  1  0
  4  5  2  0
  5  6  1  0
  6  7  2  0
  7  8  1  0
  8  9  2  0
  9 10  1  0
 10 11  1  0
 11 12  1  0
 12 13  2  0
 12 14  1  0
 14 15  1  0
 15 16  1  0
 16 17  1  0
 17 18  1  0
 18 19  2  0
 19 20  1  0
 20 21  2  0
 21 22  1  0
 22 23  2  0
 23 24  1  0
 24 25  1  0
 10 26  2  0
 26 27  1  0
 27  4  1  0
 27  7  1  0
 25 14  1  0
 23 18  1  0
  1 28  1  0
  1 29  1  0
  1 30  1  0
  2 31  1  0
  3 32  1  0
  3 33  1  0
  3 34  1  0
  8 35  1  0
  9 36  1  0
 11 37  1  0
 15 38  1  0
 15 39  1  0
 16 40  1  0
 16 41  1  0
 17 42  1  0
 17 43  1  0
 19 44  1  0
 20 45  1  0
 21 46  1  0
 22 47  1  0
 24 48  1  0
 24 49  1  0
 25 50  1  0
 25 51  1  0
 26 52  1  0
M  END
>  <meeko>  (4) 
{"is_sidechain": [false], "free_energy": -6.802, "intermolecular_energy": -10.381, "internal_energy": 0.291}

$$$$
ligand_48_conformer_2_docked
     RDKit          3D

 52 55  0  0  0  0  0  0  0  0999 V2000
    8.1150   47.9660   52.1380 C   0  0  0  0  0  0  0  0  0  0  0  0
    6.9840   46.9400   52.2680 C   0  0  0  0  0  0  0  0  0  0  0  0
    6.8200   46.4430   53.7080 C   0  0  0  0  0  0  0  0  0  0  0  0
    7.1470   45.7970   51.2930 C   0  0  0  0  0  0  0  0  0  0  0  0
    8.1800   45.7210   50.4220 N   0  0  0  0  0  0  0  0  0  0  0  0
    8.0400   44.6000   49.7230 N   0  0  0  0  0  0  0  0  0  0  0  0
    6.9210   44.0110   50.1790 C   0  0  0  0  0  0  0  0  0  0  0  0
    6.3900   42.8000   49.7500 C   0  0  0  0  0  0  0  0  0  0  0  0
    5.2170   42.3480   50.3740 C   0  0  0  0  0  0  0  0  0  0  0  0
    4.6000   43.1150   51.3860 C   0  0  0  0  0  0  0  0  0  0  0  0
    3.4220   42.6180   52.0420 N   0  0  0  0  0  0  0  0  0  0  0  0
    2.1400   42.5550   51.4010 C   0  0  0  0  0  0  0  0  0  0  0  0
    2.0700   42.2060   50.1910 O   0  0  0  0  0  0  0  0  0  0  0  0
    0.9380   42.8890   52.1260 N   0  0  0  0  0  0  0  0  0  0  0  0
    0.6660   42.2940   53.4430 C   0  0  0  0  0  0  0  0  0  0  0  0
   -0.6710   42.7880   54.0270 C   0  0  0  0  0  0  0  0  0  0  0  0
   -0.6210   44.2360   54.5560 C   0  0  0  0  0  0  0  0  0  0  0  0
    0.7670   44.8300   54.4780 C   0  0  0  0  0  0  0  0  0  0  0  0
    1.5100   44.9280   55.6670 C   0  0  0  0  0  0  0  0  0  0  0  0
    2.7700   45.5270   55.6770 C   0  0  0  0  0  0  0  0  0  0  0  0
    3.3010   46.0530   54.5010 C   0  0  0  0  0  0  0  0  0  0  0  0
    2.5770   45.9770   53.3110 C   0  0  0  0  0  0  0  0  0  0  0  0
    1.3110   45.3620   53.2740 C   0  0  0  0  0  0  0  0  0  0  0  0
    0.5690   45.3350   51.9500 C   0  0  0  0  0  0  0  0  0  0  0  0
    0.0400   43.9350   51.6140 C   0  0  0  0  0  0  0  0  0  0  0  0
    5.1980   44.3310   51.7810 C   0  0  0  0  0  0  0  0  0  0  0  0
    6.3370   44.7250   51.1530 N   0  0  0  0  0  0  0  0  0  0  0  0
    8.4507   48.2706   53.1403 H   0  0  0  0  0  0  0  0  0  0  0  0
    8.9565   47.5167   51.5902 H   0  0  0  0  0  0  0  0  0  0  0  0
    7.7496   48.8471   51.5902 H   0  0  0  0  0  0  0  0  0  0  0  0
    6.0512   47.4593   52.0031 H   0  0  0  0  0  0  0  0  0  0  0  0
    7.0862   47.2497   54.4069 H   0  0  0  0  0  0  0  0  0  0  0  0
    5.7751   46.1427   53.8755 H   0  0  0  0  0  0  0  0  0  0  0  0
    7.4809   45.5798   53.8755 H   0  0  0  0  0  0  0  0  0  0  0  0
    6.8715   42.2174   48.9508 H   0  0  0  0  0  0  0  0  0  0  0  0
    4.7743   41.3874   50.0718 H   0  0  0  0  0  0  0  0  0  0  0  0
    3.5020   42.2820   53.0280 H   0  0  0  0  0  0  0  0  0  0  0  0
    0.6265   41.1997   53.3383 H   0  0  0  0  0  0  0  0  0  0  0  0
    1.4716   42.5960   54.1284 H   0  0  0  0  0  0  0  0  0  0  0  0
   -1.4357   42.7330   53.2382 H   0  0  0  0  0  0  0  0  0  0  0  0
   -0.9048   42.1408   54.8852 H   0  0  0  0  0  0  0  0  0  0  0  0
   -1.3045   44.8551   53.9563 H   0  0  0  0  0  0  0  0  0  0  0  0
   -0.9188   44.2169   55.6147 H   0  0  0  0  0  0  0  0  0  0  0  0
    1.0924   44.5270   56.6023 H   0  0  0  0  0  0  0  0  0  0  0  0
    3.3443   45.5840   56.6134 H   0  0  0  0  0  0  0  0  0  0  0  0
    4.2927   46.5289   54.5110 H   0  0  0  0  0  0  0  0  0  0  0  0
    3.0007   46.4031   52.3896 H   0  0  0  0  0  0  0  0  0  0  0  0
   -0.2806   46.0315   52.0052 H   0  0  0  0  0  0  0  0  0  0  0  0
    1.2752   45.6292   51.1596 H   0  0  0  0  0  0  0  0  0  0  0  0
   -0.9537   43.8085   52.0685 H   0  0  0  0  0  0  0  0  0  0  0  0
   -0.0182   43.8385   50.5198 H   0  0  0  0  0  0  0  0  0  0  0  0
    4.7529   44.9449   52.5779 H   0  0  0  0  0  0  0  0  0  0  0  0
  1  2  1  0
  2  3  1  0
  2  4  1  0
  4  5  2  0
  5  6  1  0
  6  7  2  0
  7  8  1  0
  8  9  2  0
  9 10  1  0
 10 11  1  0
 11 12  1  0
 12 13  2  0
 12 14  1  0
 14 15  1  0
 15 16  1  0
 16 17  1  0
 17 18  1  0
 18 19  2  0
 19 20  1  0
 20 21  2  0
 21 22  1  0
 22 23  2  0
 23 24  1  0
 24 25  1  0
 10 26  2  0
 26 27  1  0
 27  4  1  0
 27  7  1  0
 25 14  1  0
 23 18  1  0
  1 28  1  0
  1 29  1  0
  1 30  1  0
  2 31  1  0
  3 32  1  0
  3 33  1  0
  3 34  1  0
  8 35  1  0
  9 36  1  0
 11 37  1  0
 15 38  1  0
 15 39  1  0
 16 40  1  0
 16 41  1  0
 17 42  1  0
 17 43  1  0
 19 44  1  0
 20 45  1  0
 21 46  1  0
 22 47  1  0
 24 48  1  0
 24 49  1  0
 25 50  1  0
 25 51  1  0
 26 52  1  0
M  END
>  <meeko>  (5) 
{"is_sidechain": [false], "free_energy": -6.65, "intermolecular_energy": -10.792, "internal_energy": 0.934}

$$$$
