MODEL 1
REMARK VINA RESULT:    -8.859      0.000      0.000
REMARK INTER + INTRA:         -10.197
REMARK INTER:                 -10.931
REMARK INTRA:                   0.734
REMARK UNBOUND:                 0.734
REMARK SMILES CN(C)c1cccc2sc(C(=O)N[C@]3(c4ccccc4)CCNC3)cc12
REMARK SMILES IDX 4 1 5 2 6 3 7 4 8 5 9 6 10 7 25 8 26 9 2 10 1 11 3 12 11 13
REMARK SMILES IDX 12 14 13 15 14 17 21 18 24 19 22 20 23 21 15 23 16 24 20 25
REMARK SMILES IDX 17 26 19 27 18 28
REMARK H PARENT 13 16 23 22
ROOT
ATOM      1  C   UNL     1       8.689  46.011  52.089  1.00  0.00     0.045 A 
ATOM      2  C   UNL     1       9.879  46.496  52.667  1.00  0.00     0.026 A 
ATOM      3  C   UNL     1       9.851  47.200  53.885  1.00  0.00     0.004 A 
ATOM      4  C   UNL     1       8.636  47.426  54.545  1.00  0.00     0.020 A 
ATOM      5  C   UNL     1       7.470  46.934  53.965  1.00  0.00     0.037 A 
ATOM      6  S   UNL     1       5.903  47.041  54.552  1.00  0.00    -0.130 S 
ATOM      7  C   UNL     1       5.202  46.182  53.273  1.00  0.00     0.093 A 
ATOM      8  C   UNL     1       6.201  45.803  52.374  1.00  0.00     0.036 A 
ATOM      9  C   UNL     1       7.477  46.237  52.766  1.00  0.00     0.017 A 
ENDROOT
BRANCH   1  10
ATOM     10  N   UNL     1       8.728  45.308  50.836  1.00  0.00    -0.377 N 
ATOM     11  C   UNL     1       7.584  45.352  49.924  1.00  0.00     0.143 C 
ATOM     12  C   UNL     1       9.938  44.583  50.452  1.00  0.00     0.143 C 
ENDBRANCH   1  10
BRANCH   7  13
ATOM     13  C   UNL     1       3.767  45.870  53.128  1.00  0.00     0.262 C 
ATOM     14  O   UNL     1       2.963  46.803  52.859  1.00  0.00    -0.268 OA
ATOM     15  N   UNL     1       3.285  44.524  53.291  1.00  0.00    -0.340 N 
ATOM     16  H   UNL     1       3.984  43.781  53.518  1.00  0.00     0.164 HD
BRANCH  15  17
ATOM     17  C   UNL     1       1.867  44.136  53.151  1.00  0.00     0.079 C 
ATOM     18  C   UNL     1       1.765  42.683  52.686  1.00  0.00     0.050 C 
ATOM     19  C   UNL     1       1.242  44.860  51.947  1.00  0.00     0.114 C 
ATOM     20  C   UNL     1       1.969  42.758  51.182  1.00  0.00     0.084 C 
ATOM     21  N   UNL     1       1.574  44.098  50.741  1.00  0.00    -0.314 NA
ATOM     22  H   UNL     1       2.399  44.553  50.282  1.00  0.00     0.122 HD
BRANCH  17  23
ATOM     23  C   UNL     1       1.111  44.461  54.444  1.00  0.00    -0.021 A 
ATOM     24  C   UNL     1       1.771  44.865  55.625  1.00  0.00     0.006 A 
ATOM     25  C   UNL     1      -0.300  44.457  54.437  1.00  0.00     0.006 A 
ATOM     26  C   UNL     1       1.043  45.197  56.771  1.00  0.00     0.000 A 
ATOM     27  C   UNL     1      -1.023  44.790  55.587  1.00  0.00     0.000 A 
ATOM     28  C   UNL     1      -0.351  45.154  56.754  1.00  0.00     0.000 A 
ENDBRANCH  17  23
ENDBRANCH  15  17
ENDBRANCH   7  13
TORSDOF 4
ENDMDL
MODEL 2
REMARK VINA RESULT:    -8.812      1.908      7.650
REMARK INTER + INTRA:         -10.139
REMARK INTER:                 -10.194
REMARK INTRA:                   0.055
REMARK UNBOUND:                 0.734
REMARK SMILES CN(C)c1cccc2sc(C(=O)N[C@]3(c4ccccc4)CCNC3)cc12
REMARK SMILES IDX 4 1 5 2 6 3 7 4 8 5 9 6 10 7 25 8 26 9 2 10 1 11 3 12 11 13
REMARK SMILES IDX 12 14 13 15 14 17 21 18 24 19 22 20 23 21 15 23 16 24 20 25
REMARK SMILES IDX 17 26 19 27 18 28
REMARK H PARENT 13 16 23 22
ROOT
ATOM      1  C   UNL     1       0.285  44.364  54.021  1.00  0.00     0.045 A 
ATOM      2  C   UNL     1      -0.795  44.594  54.898  1.00  0.00     0.026 A 
ATOM      3  C   UNL     1      -0.586  45.191  56.154  1.00  0.00     0.004 A 
ATOM      4  C   UNL     1       0.702  45.572  56.552  1.00  0.00     0.020 A 
ATOM      5  C   UNL     1       1.757  45.346  55.673  1.00  0.00     0.037 A 
ATOM      6  S   UNL     1       3.376  45.727  55.886  1.00  0.00    -0.130 S 
ATOM      7  C   UNL     1       3.870  45.147  54.373  1.00  0.00     0.093 A 
ATOM      8  C   UNL     1       2.759  44.652  53.688  1.00  0.00     0.036 A 
ATOM      9  C   UNL     1       1.572  44.759  54.429  1.00  0.00     0.017 A 
ENDROOT
BRANCH   1  10
ATOM     10  N   UNL     1       0.061  43.738  52.748  1.00  0.00    -0.377 N 
ATOM     11  C   UNL     1      -0.148  44.549  51.547  1.00  0.00     0.143 C 
ATOM     12  C   UNL     1       0.090  42.280  52.645  1.00  0.00     0.143 C 
ENDBRANCH   1  10
BRANCH   7  13
ATOM     13  C   UNL     1       5.249  45.169  53.850  1.00  0.00     0.262 C 
ATOM     14  O   UNL     1       6.099  44.377  54.338  1.00  0.00    -0.268 OA
ATOM     15  N   UNL     1       5.626  46.079  52.800  1.00  0.00    -0.340 N 
ATOM     16  H   UNL     1       4.891  46.722  52.427  1.00  0.00     0.164 HD
BRANCH  15  17
ATOM     17  C   UNL     1       6.982  46.149  52.221  1.00  0.00     0.079 C 
ATOM     18  C   UNL     1       8.031  45.977  53.321  1.00  0.00     0.050 C 
ATOM     19  C   UNL     1       7.285  47.587  51.768  1.00  0.00     0.114 C 
ATOM     20  C   UNL     1       8.146  47.358  53.945  1.00  0.00     0.084 C 
ATOM     21  N   UNL     1       7.741  48.342  52.937  1.00  0.00    -0.314 NA
ATOM     22  H   UNL     1       6.929  48.886  53.314  1.00  0.00     0.122 HD
BRANCH  17  23
ATOM     23  C   UNL     1       7.098  45.166  51.051  1.00  0.00    -0.021 A 
ATOM     24  C   UNL     1       8.273  45.047  50.277  1.00  0.00     0.006 A 
ATOM     25  C   UNL     1       6.035  44.276  50.791  1.00  0.00     0.006 A 
ATOM     26  C   UNL     1       8.355  44.107  49.246  1.00  0.00     0.000 A 
ATOM     27  C   UNL     1       6.123  43.338  49.758  1.00  0.00     0.000 A 
ATOM     28  C   UNL     1       7.281  43.257  48.983  1.00  0.00     0.000 A 
ENDBRANCH  17  23
ENDBRANCH  15  17
ENDBRANCH   7  13
TORSDOF 4
ENDMDL
MODEL 3
REMARK VINA RESULT:    -8.708      2.480      8.203
REMARK INTER + INTRA:         -10.010
REMARK INTER:                 -10.164
REMARK INTRA:                   0.154
REMARK UNBOUND:                 0.734
REMARK SMILES CN(C)c1cccc2sc(C(=O)N[C@]3(c4ccccc4)CCNC3)cc12
REMARK SMILES IDX 4 1 5 2 6 3 7 4 8 5 9 6 10 7 25 8 26 9 2 10 1 11 3 12 11 13
REMARK SMILES IDX 12 14 13 15 14 17 21 18 24 19 22 20 23 21 15 23 16 24 20 25
REMARK SMILES IDX 17 26 19 27 18 28
REMARK H PARENT 13 16 23 22
ROOT
ATOM      1  C   UNL     1      -0.941  44.952  55.207  1.00  0.00     0.045 A 
ATOM      2  C   UNL     1      -2.242  44.416  55.124  1.00  0.00     0.026 A 
ATOM      3  C   UNL     1      -2.726  43.890  53.913  1.00  0.00     0.004 A 
ATOM      4  C   UNL     1      -1.918  43.887  52.768  1.00  0.00     0.020 A 
ATOM      5  C   UNL     1      -0.633  44.412  52.868  1.00  0.00     0.037 A 
ATOM      6  S   UNL     1       0.538  44.506  51.671  1.00  0.00    -0.130 S 
ATOM      7  C   UNL     1       1.713  45.217  52.662  1.00  0.00     0.093 A 
ATOM      8  C   UNL     1       1.189  45.383  53.945  1.00  0.00     0.036 A 
ATOM      9  C   UNL     1      -0.136  44.935  54.054  1.00  0.00     0.017 A 
ENDROOT
BRANCH   1  10
ATOM     10  N   UNL     1      -0.463  45.502  56.446  1.00  0.00    -0.377 N 
ATOM     11  C   UNL     1       0.708  44.929  57.111  1.00  0.00     0.143 C 
ATOM     12  C   UNL     1      -1.126  46.673  57.019  1.00  0.00     0.143 C 
ENDBRANCH   1  10
BRANCH   7  13
ATOM     13  C   UNL     1       3.077  45.594  52.246  1.00  0.00     0.262 C 
ATOM     14  O   UNL     1       3.224  46.362  51.258  1.00  0.00    -0.268 OA
ATOM     15  N   UNL     1       4.227  45.094  52.952  1.00  0.00    -0.340 N 
ATOM     16  H   UNL     1       4.061  44.456  53.763  1.00  0.00     0.164 HD
BRANCH  15  17
ATOM     17  C   UNL     1       5.620  45.436  52.601  1.00  0.00     0.079 C 
ATOM     18  C   UNL     1       6.522  45.286  53.826  1.00  0.00     0.050 C 
ATOM     19  C   UNL     1       5.740  46.948  52.348  1.00  0.00     0.114 C 
ATOM     20  C   UNL     1       6.322  46.580  54.597  1.00  0.00     0.084 C 
ATOM     21  N   UNL     1       5.902  47.610  53.644  1.00  0.00    -0.314 NA
ATOM     22  H   UNL     1       4.967  47.977  53.943  1.00  0.00     0.122 HD
BRANCH  17  23
ATOM     23  C   UNL     1       6.055  44.635  51.369  1.00  0.00    -0.021 A 
ATOM     24  C   UNL     1       7.148  45.022  50.562  1.00  0.00     0.006 A 
ATOM     25  C   UNL     1       5.411  43.414  51.078  1.00  0.00     0.006 A 
ATOM     26  C   UNL     1       7.542  44.240  49.473  1.00  0.00     0.000 A 
ATOM     27  C   UNL     1       5.810  42.637  49.986  1.00  0.00     0.000 A 
ATOM     28  C   UNL     1       6.871  43.052  49.182  1.00  0.00     0.000 A 
ENDBRANCH  17  23
ENDBRANCH  15  17
ENDBRANCH   7  13
TORSDOF 4
ENDMDL
MODEL 4
REMARK VINA RESULT:    -8.679      2.412      8.062
REMARK INTER + INTRA:          -9.975
REMARK INTER:                 -10.025
REMARK INTRA:                   0.050
REMARK UNBOUND:                 0.734
REMARK SMILES CN(C)c1cccc2sc(C(=O)N[C@]3(c4ccccc4)CCNC3)cc12
REMARK SMILES IDX 4 1 5 2 6 3 7 4 8 5 9 6 10 7 25 8 26 9 2 10 1 11 3 12 11 13
REMARK SMILES IDX 12 14 13 15 14 17 21 18 24 19 22 20 23 21 15 23 16 24 20 25
REMARK SMILES IDX 17 26 19 27 18 28
REMARK H PARENT 13 16 23 22
ROOT
ATOM      1  C   UNL     1      -1.864  44.197  53.940  1.00  0.00     0.045 A 
ATOM      2  C   UNL     1      -2.758  43.968  55.006  1.00  0.00     0.026 A 
ATOM      3  C   UNL     1      -2.344  44.143  56.340  1.00  0.00     0.004 A 
ATOM      4  C   UNL     1      -1.036  44.554  56.628  1.00  0.00     0.020 A 
ATOM      5  C   UNL     1      -0.168  44.784  55.564  1.00  0.00     0.037 A 
ATOM      6  S   UNL     1       1.425  45.302  55.627  1.00  0.00    -0.130 S 
ATOM      7  C   UNL     1       1.644  45.329  53.948  1.00  0.00     0.093 A 
ATOM      8  C   UNL     1       0.459  44.931  53.326  1.00  0.00     0.036 A 
ATOM      9  C   UNL     1      -0.557  44.618  54.242  1.00  0.00     0.017 A 
ENDROOT
BRANCH   1  10
ATOM     10  N   UNL     1      -2.293  43.998  52.583  1.00  0.00    -0.377 N 
ATOM     11  C   UNL     1      -2.077  42.713  51.916  1.00  0.00     0.143 C 
ATOM     12  C   UNL     1      -2.991  45.074  51.881  1.00  0.00     0.143 C 
ENDBRANCH   1  10
BRANCH   7  13
ATOM     13  C   UNL     1       2.881  45.720  53.246  1.00  0.00     0.262 C 
ATOM     14  O   UNL     1       2.847  46.692  52.444  1.00  0.00    -0.268 OA
ATOM     15  N   UNL     1       4.112  45.008  53.468  1.00  0.00    -0.340 N 
ATOM     16  H   UNL     1       4.095  44.206  54.138  1.00  0.00     0.164 HD
BRANCH  15  17
ATOM     17  C   UNL     1       5.389  45.348  52.810  1.00  0.00     0.079 C 
ATOM     18  C   UNL     1       6.516  45.386  53.843  1.00  0.00     0.050 C 
ATOM     19  C   UNL     1       5.371  46.819  52.361  1.00  0.00     0.114 C 
ATOM     20  C   UNL     1       6.393  46.760  54.479  1.00  0.00     0.084 C 
ATOM     21  N   UNL     1       5.739  47.646  53.512  1.00  0.00    -0.314 NA
ATOM     22  H   UNL     1       4.859  48.017  53.945  1.00  0.00     0.122 HD
BRANCH  17  23
ATOM     23  C   UNL     1       5.625  44.411  51.621  1.00  0.00    -0.021 A 
ATOM     24  C   UNL     1       6.643  44.641  50.669  1.00  0.00     0.006 A 
ATOM     25  C   UNL     1       4.871  43.223  51.518  1.00  0.00     0.006 A 
ATOM     26  C   UNL     1       6.857  43.738  49.623  1.00  0.00     0.000 A 
ATOM     27  C   UNL     1       5.089  42.325  50.469  1.00  0.00     0.000 A 
ATOM     28  C   UNL     1       6.078  42.586  49.520  1.00  0.00     0.000 A 
ENDBRANCH  17  23
ENDBRANCH  15  17
ENDBRANCH   7  13
TORSDOF 4
ENDMDL
MODEL 5
REMARK VINA RESULT:    -8.376      2.288      3.373
REMARK INTER + INTRA:          -9.601
REMARK INTER:                 -10.395
REMARK INTRA:                   0.793
REMARK UNBOUND:                 0.734
REMARK SMILES CN(C)c1cccc2sc(C(=O)N[C@]3(c4ccccc4)CCNC3)cc12
REMARK SMILES IDX 4 1 5 2 6 3 7 4 8 5 9 6 10 7 25 8 26 9 2 10 1 11 3 12 11 13
REMARK SMILES IDX 12 14 13 15 14 17 21 18 24 19 22 20 23 21 15 23 16 24 20 25
REMARK SMILES IDX 17 26 19 27 18 28
REMARK H PARENT 13 16 23 22
ROOT
ATOM      1  C   UNL     1       6.967  45.305  50.941  1.00  0.00     0.045 A 
ATOM      2  C   UNL     1       8.051  45.011  50.088  1.00  0.00     0.026 A 
ATOM      3  C   UNL     1       8.065  43.828  49.326  1.00  0.00     0.004 A 
ATOM      4  C   UNL     1       6.997  42.925  49.400  1.00  0.00     0.020 A 
ATOM      5  C   UNL     1       5.931  43.233  50.240  1.00  0.00     0.037 A 
ATOM      6  S   UNL     1       4.529  42.347  50.493  1.00  0.00    -0.130 S 
ATOM      7  C   UNL     1       3.846  43.450  51.582  1.00  0.00     0.093 A 
ATOM      8  C   UNL     1       4.720  44.526  51.752  1.00  0.00     0.036 A 
ATOM      9  C   UNL     1       5.897  44.394  50.999  1.00  0.00     0.017 A 
ENDROOT
BRANCH   1  10
ATOM     10  N   UNL     1       6.971  46.508  51.727  1.00  0.00    -0.377 N 
ATOM     11  C   UNL     1       5.755  46.952  52.411  1.00  0.00     0.143 C 
ATOM     12  C   UNL     1       8.211  47.266  51.881  1.00  0.00     0.143 C 
ENDBRANCH   1  10
BRANCH   7  13
ATOM     13  C   UNL     1       2.534  43.309  52.242  1.00  0.00     0.262 C 
ATOM     14  O   UNL     1       2.297  42.269  52.914  1.00  0.00    -0.268 OA
ATOM     15  N   UNL     1       1.535  44.338  52.124  1.00  0.00    -0.340 N 
ATOM     16  H   UNL     1       1.771  45.182  51.555  1.00  0.00     0.164 HD
BRANCH  15  17
ATOM     17  C   UNL     1       0.207  44.271  52.765  1.00  0.00     0.079 C 
ATOM     18  C   UNL     1      -0.456  42.928  52.457  1.00  0.00     0.050 C 
ATOM     19  C   UNL     1      -0.765  45.231  52.059  1.00  0.00     0.114 C 
ATOM     20  C   UNL     1      -1.052  43.116  51.072  1.00  0.00     0.084 C 
ATOM     21  N   UNL     1      -1.296  44.548  50.878  1.00  0.00    -0.314 NA
ATOM     22  H   UNL     1      -0.750  44.866  50.042  1.00  0.00     0.122 HD
BRANCH  17  23
ATOM     23  C   UNL     1       0.332  44.610  54.255  1.00  0.00    -0.021 A 
ATOM     24  C   UNL     1       1.502  45.177  54.805  1.00  0.00     0.006 A 
ATOM     25  C   UNL     1      -0.789  44.444  55.096  1.00  0.00     0.006 A 
ATOM     26  C   UNL     1       1.562  45.514  56.160  1.00  0.00     0.000 A 
ATOM     27  C   UNL     1      -0.722  44.783  56.451  1.00  0.00     0.000 A 
ATOM     28  C   UNL     1       0.454  45.312  56.983  1.00  0.00     0.000 A 
ENDBRANCH  17  23
ENDBRANCH  15  17
ENDBRANCH   7  13
TORSDOF 4
ENDMDL
