MODEL 1
REMARK VINA RESULT:    -9.374      0.000      0.000
REMARK INTER + INTRA:         -10.887
REMARK INTER:                 -10.470
REMARK INTRA:                  -0.417
REMARK UNBOUND:                -0.417
REMARK SMILES O=C1N[C@]2(CCc3ccccc32)C(=O)N1Cc1ncc(Cl)cc1Cl
REMARK SMILES IDX 16 1 15 2 1 3 2 4 3 5 4 6 13 7 5 8 12 9 14 10 6 11 11 12
REMARK SMILES IDX 7 13 10 14 8 15 9 16 17 18 18 19 23 20 19 21 22 22 20 23
REMARK SMILES IDX 24 24 21 25
REMARK H PARENT 3 17
ROOT
ATOM      1  C   UNL     1       3.497  45.478  55.042  1.00  0.00     0.188 C 
ENDROOT
BRANCH   1   2
ATOM      2  N   UNL     1       4.133  45.813  53.770  1.00  0.00    -0.256 N 
ATOM      3  O   UNL     1       3.158  47.923  53.345  1.00  0.00    -0.248 OA
ATOM      4  C   UNL     1       4.080  47.089  53.145  1.00  0.00     0.325 C 
ATOM      5  N   UNL     1       5.193  47.351  52.302  1.00  0.00    -0.319 N 
ATOM      6  C   UNL     1       6.099  46.208  52.393  1.00  0.00     0.147 C 
ATOM      7  C   UNL     1       5.362  45.263  53.300  1.00  0.00     0.261 C 
ATOM      8  C   UNL     1       6.431  45.615  51.002  1.00  0.00     0.048 C 
ATOM      9  C   UNL     1       7.412  46.608  52.958  1.00  0.00    -0.010 A 
ATOM     10  O   UNL     1       5.784  44.125  53.638  1.00  0.00    -0.271 OA
ATOM     11  C   UNL     1       7.966  45.666  50.849  1.00  0.00     0.039 C 
ATOM     12  C   UNL     1       7.658  47.210  54.198  1.00  0.00     0.007 A 
ATOM     13  C   UNL     1       8.442  46.304  52.102  1.00  0.00    -0.042 A 
ATOM     14  C   UNL     1       8.982  47.501  54.557  1.00  0.00     0.000 A 
ATOM     15  C   UNL     1       9.767  46.586  52.440  1.00  0.00     0.004 A 
ATOM     16  C   UNL     1      10.035  47.190  53.679  1.00  0.00     0.000 A 
ATOM     17  H   UNL     1       5.375  48.245  51.792  1.00  0.00     0.166 HD
ENDBRANCH   1   2
BRANCH   1  18
ATOM     18  C   UNL     1       2.084  45.012  54.802  1.00  0.00     0.079 A 
ATOM     19  N   UNL     1       1.804  44.391  53.622  1.00  0.00    -0.256 NA
ATOM     20  C   UNL     1       1.035  45.269  55.711  1.00  0.00     0.065 A 
ATOM     21  C   UNL     1       0.548  43.998  53.287  1.00  0.00     0.132 A 
ATOM     22  C   UNL     1      -0.264  44.874  55.378  1.00  0.00     0.044 A 
ATOM     23  C   UNL     1      -0.513  44.238  54.161  1.00  0.00     0.060 A 
ATOM     24  Cl  UNL     1       1.294  46.063  57.260  1.00  0.00    -0.082 Cl
ATOM     25  Cl  UNL     1      -2.142  43.747  53.733  1.00  0.00    -0.083 Cl
ENDBRANCH   1  18
TORSDOF 2
ENDMDL
MODEL 2
REMARK VINA RESULT:    -9.254      2.327      3.729
REMARK INTER + INTRA:         -10.753
REMARK INTER:                 -10.156
REMARK INTRA:                  -0.597
REMARK UNBOUND:                -0.417
REMARK SMILES O=C1N[C@]2(CCc3ccccc32)C(=O)N1Cc1ncc(Cl)cc1Cl
REMARK SMILES IDX 16 1 15 2 1 3 2 4 3 5 4 6 13 7 5 8 12 9 14 10 6 11 11 12
REMARK SMILES IDX 7 13 10 14 8 15 9 16 17 18 18 19 23 20 19 21 22 22 20 23
REMARK SMILES IDX 24 24 21 25
REMARK H PARENT 3 17
ROOT
ATOM      1  C   UNL     1       2.372  46.423  53.172  1.00  0.00     0.188 C 
ENDROOT
BRANCH   1   2
ATOM      2  N   UNL     1       3.797  46.185  52.950  1.00  0.00    -0.256 N 
ATOM      3  O   UNL     1       4.453  45.468  55.103  1.00  0.00    -0.248 OA
ATOM      4  C   UNL     1       4.663  45.525  53.862  1.00  0.00     0.325 C 
ATOM      5  N   UNL     1       5.772  44.896  53.235  1.00  0.00    -0.319 N 
ATOM      6  C   UNL     1       5.633  45.088  51.793  1.00  0.00     0.147 C 
ATOM      7  C   UNL     1       4.395  45.933  51.681  1.00  0.00     0.261 C 
ATOM      8  C   UNL     1       6.894  45.732  51.166  1.00  0.00     0.048 C 
ATOM      9  C   UNL     1       5.482  43.788  51.091  1.00  0.00    -0.010 A 
ATOM     10  O   UNL     1       3.915  46.352  50.594  1.00  0.00    -0.271 OA
ATOM     11  C   UNL     1       7.396  44.762  50.075  1.00  0.00     0.039 C 
ATOM     12  C   UNL     1       4.497  42.816  51.302  1.00  0.00     0.007 A 
ATOM     13  C   UNL     1       6.458  43.613  50.141  1.00  0.00    -0.042 A 
ATOM     14  C   UNL     1       4.519  41.651  50.521  1.00  0.00     0.000 A 
ATOM     15  C   UNL     1       6.498  42.460  49.353  1.00  0.00     0.004 A 
ATOM     16  C   UNL     1       5.519  41.473  49.548  1.00  0.00     0.000 A 
ATOM     17  H   UNL     1       6.497  44.316  53.715  1.00  0.00     0.166 HD
ENDBRANCH   1   2
BRANCH   1  18
ATOM     18  C   UNL     1       1.610  45.129  53.047  1.00  0.00     0.079 A 
ATOM     19  N   UNL     1       1.361  44.649  51.796  1.00  0.00    -0.256 NA
ATOM     20  C   UNL     1       1.080  44.449  54.165  1.00  0.00     0.065 A 
ATOM     21  C   UNL     1       0.623  43.528  51.582  1.00  0.00     0.132 A 
ATOM     22  C   UNL     1       0.316  43.296  53.958  1.00  0.00     0.044 A 
ATOM     23  C   UNL     1       0.083  42.832  52.663  1.00  0.00     0.060 A 
ATOM     24  Cl  UNL     1       1.348  44.987  55.819  1.00  0.00    -0.082 Cl
ATOM     25  Cl  UNL     1      -0.883  41.392  52.396  1.00  0.00    -0.083 Cl
ENDBRANCH   1  18
TORSDOF 2
ENDMDL
MODEL 3
REMARK VINA RESULT:    -8.776      3.188      5.937
REMARK INTER + INTRA:         -10.220
REMARK INTER:                  -9.748
REMARK INTRA:                  -0.472
REMARK UNBOUND:                -0.417
REMARK SMILES O=C1N[C@]2(CCc3ccccc32)C(=O)N1Cc1ncc(Cl)cc1Cl
REMARK SMILES IDX 16 1 15 2 1 3 2 4 3 5 4 6 13 7 5 8 12 9 14 10 6 11 11 12
REMARK SMILES IDX 7 13 10 14 8 15 9 16 17 18 18 19 23 20 19 21 22 22 20 23
REMARK SMILES IDX 24 24 21 25
REMARK H PARENT 3 17
ROOT
ATOM      1  C   UNL     1       4.246  47.148  54.586  1.00  0.00     0.188 C 
ENDROOT
BRANCH   1   2
ATOM      2  N   UNL     1       3.329  46.464  53.676  1.00  0.00    -0.256 N 
ATOM      3  O   UNL     1       2.946  48.171  52.089  1.00  0.00    -0.248 OA
ATOM      4  C   UNL     1       2.934  46.951  52.401  1.00  0.00     0.325 C 
ATOM      5  N   UNL     1       2.564  45.923  51.494  1.00  0.00    -0.319 N 
ATOM      6  C   UNL     1       2.767  44.642  52.167  1.00  0.00     0.147 C 
ATOM      7  C   UNL     1       3.214  45.049  53.543  1.00  0.00     0.261 C 
ATOM      8  C   UNL     1       1.490  43.766  52.153  1.00  0.00     0.048 C 
ATOM      9  C   UNL     1       3.794  43.826  51.469  1.00  0.00    -0.010 A 
ATOM     10  O   UNL     1       3.486  44.242  54.471  1.00  0.00    -0.271 OA
ATOM     11  C   UNL     1       1.867  42.437  51.466  1.00  0.00     0.039 C 
ATOM     12  C   UNL     1       5.124  44.176  51.207  1.00  0.00     0.007 A 
ATOM     13  C   UNL     1       3.292  42.607  51.086  1.00  0.00    -0.042 A 
ATOM     14  C   UNL     1       5.945  43.254  50.541  1.00  0.00     0.000 A 
ATOM     15  C   UNL     1       4.093  41.675  50.421  1.00  0.00     0.004 A 
ATOM     16  C   UNL     1       5.430  42.005  50.149  1.00  0.00     0.000 A 
ATOM     17  H   UNL     1       2.293  46.059  50.494  1.00  0.00     0.166 HD
ENDBRANCH   1   2
BRANCH   1  18
ATOM     18  C   UNL     1       5.660  47.025  54.077  1.00  0.00     0.079 A 
ATOM     19  N   UNL     1       6.077  47.903  53.122  1.00  0.00    -0.256 NA
ATOM     20  C   UNL     1       6.529  45.993  54.493  1.00  0.00     0.065 A 
ATOM     21  C   UNL     1       7.309  47.828  52.555  1.00  0.00     0.132 A 
ATOM     22  C   UNL     1       7.799  45.902  53.914  1.00  0.00     0.044 A 
ATOM     23  C   UNL     1       8.193  46.820  52.939  1.00  0.00     0.060 A 
ATOM     24  Cl  UNL     1       6.085  44.814  55.721  1.00  0.00    -0.082 Cl
ATOM     25  Cl  UNL     1       9.780  46.705  52.203  1.00  0.00    -0.083 Cl
ENDBRANCH   1  18
TORSDOF 2
ENDMDL
MODEL 4
REMARK VINA RESULT:    -8.499      2.922      7.501
REMARK INTER + INTRA:          -9.910
REMARK INTER:                 -10.186
REMARK INTRA:                   0.276
REMARK UNBOUND:                -0.417
REMARK SMILES O=C1N[C@]2(CCc3ccccc32)C(=O)N1Cc1ncc(Cl)cc1Cl
REMARK SMILES IDX 16 1 15 2 1 3 2 4 3 5 4 6 13 7 5 8 12 9 14 10 6 11 11 12
REMARK SMILES IDX 7 13 10 14 8 15 9 16 17 18 18 19 23 20 19 21 22 22 20 23
REMARK SMILES IDX 24 24 21 25
REMARK H PARENT 3 17
ROOT
ATOM      1  C   UNL     1       4.595  47.121  53.391  1.00  0.00     0.188 C 
ENDROOT
BRANCH   1   2
ATOM      2  N   UNL     1       3.801  45.902  53.249  1.00  0.00    -0.256 N 
ATOM      3  O   UNL     1       5.267  44.320  54.214  1.00  0.00    -0.248 OA
ATOM      4  C   UNL     1       4.105  44.657  53.863  1.00  0.00     0.325 C 
ATOM      5  N   UNL     1       2.963  43.843  54.085  1.00  0.00    -0.319 N 
ATOM      6  C   UNL     1       1.790  44.595  53.645  1.00  0.00     0.147 C 
ATOM      7  C   UNL     1       2.384  45.862  53.100  1.00  0.00     0.261 C 
ATOM      8  C   UNL     1       0.941  43.805  52.619  1.00  0.00     0.048 C 
ATOM      9  C   UNL     1       0.866  44.858  54.778  1.00  0.00    -0.010 A 
ATOM     10  O   UNL     1       1.716  46.802  52.592  1.00  0.00    -0.271 OA
ATOM     11  C   UNL     1      -0.479  43.686  53.210  1.00  0.00     0.039 C 
ATOM     12  C   UNL     1       1.153  45.533  55.971  1.00  0.00     0.007 A 
ATOM     13  C   UNL     1      -0.387  44.356  54.532  1.00  0.00    -0.042 A 
ATOM     14  C   UNL     1       0.133  45.690  56.919  1.00  0.00     0.000 A 
ATOM     15  C   UNL     1      -1.418  44.502  55.464  1.00  0.00     0.004 A 
ATOM     16  C   UNL     1      -1.151  45.176  56.667  1.00  0.00     0.000 A 
ATOM     17  H   UNL     1       2.958  42.916  54.568  1.00  0.00     0.166 HD
ENDBRANCH   1   2
BRANCH   1  18
ATOM     18  C   UNL     1       6.020  46.857  52.976  1.00  0.00     0.079 A 
ATOM     19  N   UNL     1       7.017  47.244  53.820  1.00  0.00    -0.256 NA
ATOM     20  C   UNL     1       6.355  46.303  51.721  1.00  0.00     0.065 A 
ATOM     21  C   UNL     1       8.331  47.111  53.502  1.00  0.00     0.132 A 
ATOM     22  C   UNL     1       7.703  46.164  51.379  1.00  0.00     0.044 A 
ATOM     23  C   UNL     1       8.698  46.569  52.270  1.00  0.00     0.060 A 
ATOM     24  Cl  UNL     1       5.141  45.770  50.564  1.00  0.00    -0.082 Cl
ATOM     25  Cl  UNL     1      10.392  46.406  51.843  1.00  0.00    -0.083 Cl
ENDBRANCH   1  18
TORSDOF 2
ENDMDL
MODEL 5
REMARK VINA RESULT:    -8.234      3.000      7.137
REMARK INTER + INTRA:          -9.613
REMARK INTER:                  -9.097
REMARK INTRA:                  -0.516
REMARK UNBOUND:                -0.417
REMARK SMILES O=C1N[C@]2(CCc3ccccc32)C(=O)N1Cc1ncc(Cl)cc1Cl
REMARK SMILES IDX 16 1 15 2 1 3 2 4 3 5 4 6 13 7 5 8 12 9 14 10 6 11 11 12
REMARK SMILES IDX 7 13 10 14 8 15 9 16 17 18 18 19 23 20 19 21 22 22 20 23
REMARK SMILES IDX 24 24 21 25
REMARK H PARENT 3 17
ROOT
ATOM      1  C   UNL     1       3.261  45.140  50.903  1.00  0.00     0.188 C 
ENDROOT
BRANCH   1   2
ATOM      2  N   UNL     1       2.350  44.240  51.609  1.00  0.00    -0.256 N 
ATOM      3  O   UNL     1       3.781  42.402  52.001  1.00  0.00    -0.248 OA
ATOM      4  C   UNL     1       2.741  43.053  52.285  1.00  0.00     0.325 C 
ATOM      5  N   UNL     1       1.867  42.692  53.345  1.00  0.00    -0.319 N 
ATOM      6  C   UNL     1       0.837  43.724  53.441  1.00  0.00     0.147 C 
ATOM      7  C   UNL     1       1.175  44.647  52.305  1.00  0.00     0.261 C 
ATOM      8  C   UNL     1      -0.592  43.132  53.369  1.00  0.00     0.048 C 
ATOM      9  C   UNL     1       0.894  44.417  54.754  1.00  0.00    -0.010 A 
ATOM     10  O   UNL     1       0.519  45.682  52.008  1.00  0.00    -0.271 OA
ATOM     11  C   UNL     1      -1.319  43.561  54.660  1.00  0.00     0.039 C 
ATOM     12  C   UNL     1       1.981  45.106  55.306  1.00  0.00     0.007 A 
ATOM     13  C   UNL     1      -0.301  44.326  55.423  1.00  0.00    -0.042 A 
ATOM     14  C   UNL     1       1.829  45.709  56.563  1.00  0.00     0.000 A 
ATOM     15  C   UNL     1      -0.472  44.918  56.676  1.00  0.00     0.004 A 
ATOM     16  C   UNL     1       0.605  45.615  57.248  1.00  0.00     0.000 A 
ATOM     17  H   UNL     1       1.999  41.888  53.998  1.00  0.00     0.166 HD
ENDBRANCH   1   2
BRANCH   1  18
ATOM     18  C   UNL     1       4.390  45.547  51.816  1.00  0.00     0.079 A 
ATOM     19  N   UNL     1       4.106  46.380  52.855  1.00  0.00    -0.256 NA
ATOM     20  C   UNL     1       5.729  45.164  51.583  1.00  0.00     0.065 A 
ATOM     21  C   UNL     1       5.068  46.856  53.689  1.00  0.00     0.132 A 
ATOM     22  C   UNL     1       6.729  45.649  52.431  1.00  0.00     0.044 A 
ATOM     23  C   UNL     1       6.402  46.500  53.488  1.00  0.00     0.060 A 
ATOM     24  Cl  UNL     1       6.196  44.089  50.270  1.00  0.00    -0.082 Cl
ATOM     25  Cl  UNL     1       7.653  47.119  54.549  1.00  0.00    -0.083 Cl
ENDBRANCH   1  18
TORSDOF 2
ENDMDL
