ligand_18_conformer_2_docked
     RDKit          3D

 40 43  0  0  0  0  0  0  0  0999 V2000
    2.0740   44.2510   50.8940 O   0  0  0  0  0  0  0  0  0  0  0  0
    2.8970   43.4920   51.4750 C   0  0  0  0  0  0  0  0  0  0  0  0
    2.4610   42.6900   52.5820 N   0  0  0  0  0  0  0  0  0  0  0  0
    1.2590   42.9630   53.3130 C   0  0  0  0  0  0  0  0  0  0  0  0
    0.1090   42.2780   53.1320 N   0  0  0  0  0  0  0  0  0  0  0  0
   -0.7800   42.7700   53.9910 N   0  0  0  0  0  0  0  0  0  0  0  0
   -0.1440   43.7350   54.6830 C   0  0  0  0  0  0  0  0  0  0  0  0
   -0.6710   44.5010   55.7180 C   0  0  0  0  0  0  0  0  0  0  0  0
    0.1880   45.4170   56.3470 C   0  0  0  0  0  0  0  0  0  0  0  0
    1.5330   45.5290   55.9400 C   0  0  0  0  0  0  0  0  0  0  0  0
    2.0080   44.7240   54.8910 C   0  0  0  0  0  0  0  0  0  0  0  0
    1.1310   43.8760   54.2920 N   0  0  0  0  0  0  0  0  0  0  0  0
    4.2910   43.4080   50.9780 C   0  0  0  0  0  0  0  0  0  0  0  0
    4.8200   42.1740   50.5580 C   0  0  0  0  0  0  0  0  0  0  0  0
    6.1280   42.0930   50.0760 C   0  0  0  0  0  0  0  0  0  0  0  0
    6.9240   43.2370   50.0090 C   0  0  0  0  0  0  0  0  0  0  0  0
    6.4230   44.4750   50.4320 C   0  0  0  0  0  0  0  0  0  0  0  0
    7.2500   45.6470   50.3230 N   0  0  0  0  0  0  0  0  0  0  0  0
    8.1160   46.1300   51.3650 C   0  0  0  0  0  0  0  0  0  0  0  0
    9.4990   45.8690   51.3470 C   0  0  0  0  0  0  0  0  0  0  0  0
   10.3250   46.3690   52.3600 C   0  0  0  0  0  0  0  0  0  0  0  0
    9.7800   47.1440   53.3870 C   0  0  0  0  0  0  0  0  0  0  0  0
    8.4130   47.4270   53.4000 C   0  0  0  0  0  0  0  0  0  0  0  0
    7.5850   46.9290   52.3890 C   0  0  0  0  0  0  0  0  0  0  0  0
    5.0960   44.5590   50.8920 C   0  0  0  0  0  0  0  0  0  0  0  0
    2.9210   41.7650   52.7390 H   0  0  0  0  0  0  0  0  0  0  0  0
   -1.7199   44.3934   56.0315 H   0  0  0  0  0  0  0  0  0  0  0  0
   -0.1911   46.0509   57.1622 H   0  0  0  0  0  0  0  0  0  0  0  0
    2.2057   46.2414   56.4400 H   0  0  0  0  0  0  0  0  0  0  0  0
    3.0571   44.7784   54.5647 H   0  0  0  0  0  0  0  0  0  0  0  0
    4.1994   41.2673   50.6096 H   0  0  0  0  0  0  0  0  0  0  0  0
    6.5323   41.1240   49.7480 H   0  0  0  0  0  0  0  0  0  0  0  0
    7.9511   43.1664   49.6217 H   0  0  0  0  0  0  0  0  0  0  0  0
    7.2190   46.1840   49.4270 H   0  0  0  0  0  0  0  0  0  0  0  0
    9.9325   45.2693   50.5331 H   0  0  0  0  0  0  0  0  0  0  0  0
   11.4033   46.1519   52.3477 H   0  0  0  0  0  0  0  0  0  0  0  0
   10.4288   47.5316   54.1862 H   0  0  0  0  0  0  0  0  0  0  0  0
    7.9868   48.0422   54.2062 H   0  0  0  0  0  0  0  0  0  0  0  0
    6.5107   47.1651   52.3966 H   0  0  0  0  0  0  0  0  0  0  0  0
    4.6834   45.5349   51.1876 H   0  0  0  0  0  0  0  0  0  0  0  0
  1  2  2  0
  2  3  1  0
  3  4  1  0
  4  5  2  0
  5  6  1  0
  6  7  2  0
  7  8  1  0
  8  9  2  0
  9 10  1  0
 10 11  2  0
 11 12  1  0
  2 13  1  0
 13 14  2  0
 14 15  1  0
 15 16  2  0
 16 17  1  0
 17 18  1  0
 18 19  1  0
 19 20  2  0
 20 21  1  0
 21 22  2  0
 22 23  1  0
 23 24  2  0
 17 25  2  0
 12  4  1  0
 25 13  1  0
 12  7  1  0
 24 19  1  0
  3 26  1  0
  8 27  1  0
  9 28  1  0
 10 29  1  0
 11 30  1  0
 14 31  1  0
 15 32  1  0
 16 33  1  0
 18 34  1  0
 20 35  1  0
 21 36  1  0
 22 37  1  0
 23 38  1  0
 24 39  1  0
 25 40  1  0
M  END
>  <meeko>  (1) 
{"is_sidechain": [false], "free_energy": -9.954, "intermolecular_energy": -12.282, "internal_energy": -0.813}

$$$$
ligand_18_conformer_2_docked
     RDKit          3D

 40 43  0  0  0  0  0  0  0  0999 V2000
    2.2330   45.8720   52.4260 O   0  0  0  0  0  0  0  0  0  0  0  0
    2.8750   44.8280   52.7250 C   0  0  0  0  0  0  0  0  0  0  0  0
    2.4750   44.0510   53.8630 N   0  0  0  0  0  0  0  0  0  0  0  0
    1.6340   44.5690   54.9010 C   0  0  0  0  0  0  0  0  0  0  0  0
    2.0900   45.3480   55.9070 N   0  0  0  0  0  0  0  0  0  0  0  0
    1.0420   45.6700   56.6590 N   0  0  0  0  0  0  0  0  0  0  0  0
   -0.0290   45.0900   56.0860 C   0  0  0  0  0  0  0  0  0  0  0  0
   -1.3520   45.1850   56.5070 C   0  0  0  0  0  0  0  0  0  0  0  0
   -2.3280   44.5460   55.7240 C   0  0  0  0  0  0  0  0  0  0  0  0
   -1.9610   43.8530   54.5520 C   0  0  0  0  0  0  0  0  0  0  0  0
   -0.6090   43.7970   54.1770 C   0  0  0  0  0  0  0  0  0  0  0  0
    0.3020   44.4030   54.9830 N   0  0  0  0  0  0  0  0  0  0  0  0
    4.0080   44.3970   51.8720 C   0  0  0  0  0  0  0  0  0  0  0  0
    4.0290   43.1020   51.3230 C   0  0  0  0  0  0  0  0  0  0  0  0
    5.0870   42.6970   50.5070 C   0  0  0  0  0  0  0  0  0  0  0  0
    6.1370   43.5750   50.2300 C   0  0  0  0  0  0  0  0  0  0  0  0
    6.1430   44.8650   50.7740 C   0  0  0  0  0  0  0  0  0  0  0  0
    7.2190   45.7640   50.4490 N   0  0  0  0  0  0  0  0  0  0  0  0
    8.1400   46.3100   51.4100 C   0  0  0  0  0  0  0  0  0  0  0  0
    7.7400   47.2970   52.3300 C   0  0  0  0  0  0  0  0  0  0  0  0
    8.6490   47.7940   53.2690 C   0  0  0  0  0  0  0  0  0  0  0  0
    9.9560   47.3010   53.3090 C   0  0  0  0  0  0  0  0  0  0  0  0
   10.3540   46.3050   52.4140 C   0  0  0  0  0  0  0  0  0  0  0  0
    9.4490   45.8060   51.4730 C   0  0  0  0  0  0  0  0  0  0  0  0
    5.0630   45.2800   51.5750 C   0  0  0  0  0  0  0  0  0  0  0  0
    2.6300   43.0170   53.8410 H   0  0  0  0  0  0  0  0  0  0  0  0
   -1.6232   45.7391   57.4178 H   0  0  0  0  0  0  0  0  0  0  0  0
   -3.3847   44.5865   56.0270 H   0  0  0  0  0  0  0  0  0  0  0  0
   -2.7279   43.3601   53.9364 H   0  0  0  0  0  0  0  0  0  0  0  0
   -0.2967   43.2783   53.2586 H   0  0  0  0  0  0  0  0  0  0  0  0
    3.2065   42.4039   51.5380 H   0  0  0  0  0  0  0  0  0  0  0  0
    5.0935   41.6829   50.0809 H   0  0  0  0  0  0  0  0  0  0  0  0
    6.9639   43.2513   49.5808 H   0  0  0  0  0  0  0  0  0  0  0  0
    7.3380   46.0390   49.4480 H   0  0  0  0  0  0  0  0  0  0  0  0
    6.7086   47.6788   52.3103 H   0  0  0  0  0  0  0  0  0  0  0  0
    8.3347   48.5745   53.9776 H   0  0  0  0  0  0  0  0  0  0  0  0
   10.6712   47.6971   54.0450 H   0  0  0  0  0  0  0  0  0  0  0  0
   11.3811   45.9129   52.4499 H   0  0  0  0  0  0  0  0  0  0  0  0
    9.7641   45.0139   50.7778 H   0  0  0  0  0  0  0  0  0  0  0  0
    5.0431   46.3052   51.9732 H   0  0  0  0  0  0  0  0  0  0  0  0
  1  2  2  0
  2  3  1  0
  3  4  1  0
  4  5  2  0
  5  6  1  0
  6  7  2  0
  7  8  1  0
  8  9  2  0
  9 10  1  0
 10 11  2  0
 11 12  1  0
  2 13  1  0
 13 14  2  0
 14 15  1  0
 15 16  2  0
 16 17  1  0
 17 18  1  0
 18 19  1  0
 19 20  2  0
 20 21  1  0
 21 22  2  0
 22 23  1  0
 23 24  2  0
 17 25  2  0
 12  4  1  0
 25 13  1  0
 12  7  1  0
 24 19  1  0
  3 26  1  0
  8 27  1  0
  9 28  1  0
 10 29  1  0
 11 30  1  0
 14 31  1  0
 15 32  1  0
 16 33  1  0
 18 34  1  0
 20 35  1  0
 21 36  1  0
 22 37  1  0
 23 38  1  0
 24 39  1  0
 25 40  1  0
M  END
>  <meeko>  (2) 
{"is_sidechain": [false], "free_energy": -9.427, "intermolecular_energy": -11.752, "internal_energy": -0.692}

$$$$
ligand_18_conformer_2_docked
     RDKit          3D

 40 43  0  0  0  0  0  0  0  0999 V2000
    6.0130   40.8970   49.2460 O   0  0  0  0  0  0  0  0  0  0  0  0
    4.9570   41.4990   49.5820 C   0  0  0  0  0  0  0  0  0  0  0  0
    3.6900   41.0330   49.0950 N   0  0  0  0  0  0  0  0  0  0  0  0
    3.5650   40.1670   47.9620 C   0  0  0  0  0  0  0  0  0  0  0  0
    2.9250   38.9770   48.0030 N   0  0  0  0  0  0  0  0  0  0  0  0
    2.9730   38.4630   46.7770 N   0  0  0  0  0  0  0  0  0  0  0  0
    3.6310   39.3580   46.0170 C   0  0  0  0  0  0  0  0  0  0  0  0
    3.8880   39.2620   44.6520 C   0  0  0  0  0  0  0  0  0  0  0  0
    4.5420   40.3430   44.0380 C   0  0  0  0  0  0  0  0  0  0  0  0
    4.9020   41.4790   44.7920 C   0  0  0  0  0  0  0  0  0  0  0  0
    4.6120   41.5190   46.1650 C   0  0  0  0  0  0  0  0  0  0  0  0
    4.0070   40.4360   46.7200 N   0  0  0  0  0  0  0  0  0  0  0  0
    5.0360   42.6530   50.5100 C   0  0  0  0  0  0  0  0  0  0  0  0
    4.2510   42.6800   51.6760 C   0  0  0  0  0  0  0  0  0  0  0  0
    4.3340   43.7580   52.5600 C   0  0  0  0  0  0  0  0  0  0  0  0
    5.1960   44.8220   52.2910 C   0  0  0  0  0  0  0  0  0  0  0  0
    5.9790   44.8230   51.1290 C   0  0  0  0  0  0  0  0  0  0  0  0
    6.8850   45.9150   50.8880 N   0  0  0  0  0  0  0  0  0  0  0  0
    7.9230   46.3250   51.7950 C   0  0  0  0  0  0  0  0  0  0  0  0
    9.2770   46.0370   51.5370 C   0  0  0  0  0  0  0  0  0  0  0  0
   10.2700   46.4670   52.4220 C   0  0  0  0  0  0  0  0  0  0  0  0
    9.9240   47.1980   53.5620 C   0  0  0  0  0  0  0  0  0  0  0  0
    8.5850   47.5080   53.8130 C   0  0  0  0  0  0  0  0  0  0  0  0
    7.5890   47.0790   52.9300 C   0  0  0  0  0  0  0  0  0  0  0  0
    5.9140   43.7230   50.2540 C   0  0  0  0  0  0  0  0  0  0  0  0
    2.8460   41.1620   49.6990 H   0  0  0  0  0  0  0  0  0  0  0  0
    3.5902   38.3733   44.0762 H   0  0  0  0  0  0  0  0  0  0  0  0
    4.7745   40.3032   42.9636 H   0  0  0  0  0  0  0  0  0  0  0  0
    5.4066   42.3280   44.3076 H   0  0  0  0  0  0  0  0  0  0  0  0
    4.8666   42.3997   46.7728 H   0  0  0  0  0  0  0  0  0  0  0  0
    3.5669   41.8465   51.8935 H   0  0  0  0  0  0  0  0  0  0  0  0
    3.7179   43.7684   53.4712 H   0  0  0  0  0  0  0  0  0  0  0  0
    5.2611   45.6646   52.9951 H   0  0  0  0  0  0  0  0  0  0  0  0
    6.7810   46.4460   49.9930 H   0  0  0  0  0  0  0  0  0  0  0  0
    9.5545   45.4713   50.6353 H   0  0  0  0  0  0  0  0  0  0  0  0
   11.3251   46.2297   52.2210 H   0  0  0  0  0  0  0  0  0  0  0  0
   10.7058   47.5292   54.2614 H   0  0  0  0  0  0  0  0  0  0  0  0
    8.3139   48.0901   54.7061 H   0  0  0  0  0  0  0  0  0  0  0  0
    6.5372   47.3343   53.1266 H   0  0  0  0  0  0  0  0  0  0  0  0
    6.5558   43.6990   49.3609 H   0  0  0  0  0  0  0  0  0  0  0  0
  1  2  2  0
  2  3  1  0
  3  4  1  0
  4  5  2  0
  5  6  1  0
  6  7  2  0
  7  8  1  0
  8  9  2  0
  9 10  1  0
 10 11  2  0
 11 12  1  0
  2 13  1  0
 13 14  2  0
 14 15  1  0
 15 16  2  0
 16 17  1  0
 17 18  1  0
 18 19  1  0
 19 20  2  0
 20 21  1  0
 21 22  2  0
 22 23  1  0
 23 24  2  0
 17 25  2  0
 12  4  1  0
 25 13  1  0
 12  7  1  0
 24 19  1  0
  3 26  1  0
  8 27  1  0
  9 28  1  0
 10 29  1  0
 11 30  1  0
 14 31  1  0
 15 32  1  0
 16 33  1  0
 18 34  1  0
 20 35  1  0
 21 36  1  0
 22 37  1  0
 23 38  1  0
 24 39  1  0
 25 40  1  0
M  END
>  <meeko>  (3) 
{"is_sidechain": [false], "free_energy": -9.001, "intermolecular_energy": -11.51, "internal_energy": -0.409}

$$$$
ligand_18_conformer_2_docked
     RDKit          3D

 40 43  0  0  0  0  0  0  0  0999 V2000
    2.8840   44.5280   53.4560 O   0  0  0  0  0  0  0  0  0  0  0  0
    2.8750   43.9640   52.3280 C   0  0  0  0  0  0  0  0  0  0  0  0
    1.6330   43.5040   51.7750 N   0  0  0  0  0  0  0  0  0  0  0  0
    0.4580   43.3020   52.5680 C   0  0  0  0  0  0  0  0  0  0  0  0
    0.3560   42.3430   53.5150 N   0  0  0  0  0  0  0  0  0  0  0  0
   -0.8470   42.4660   54.0700 N   0  0  0  0  0  0  0  0  0  0  0  0
   -1.4430   43.5050   53.4550 C   0  0  0  0  0  0  0  0  0  0  0  0
   -2.7040   44.0260   53.7350 C   0  0  0  0  0  0  0  0  0  0  0  0
   -3.1120   45.1580   53.0110 C   0  0  0  0  0  0  0  0  0  0  0  0
   -2.2550   45.7380   52.0520 C   0  0  0  0  0  0  0  0  0  0  0  0
   -0.9930   45.1690   51.8180 C   0  0  0  0  0  0  0  0  0  0  0  0
   -0.6560   44.0560   52.5200 N   0  0  0  0  0  0  0  0  0  0  0  0
    4.1420   43.8230   51.5700 C   0  0  0  0  0  0  0  0  0  0  0  0
    4.4630   42.6040   50.9480 C   0  0  0  0  0  0  0  0  0  0  0  0
    5.6490   42.4710   50.2220 C   0  0  0  0  0  0  0  0  0  0  0  0
    6.5280   43.5500   50.1090 C   0  0  0  0  0  0  0  0  0  0  0  0
    6.2350   44.7700   50.7300 C   0  0  0  0  0  0  0  0  0  0  0  0
    7.1390   45.8790   50.5740 N   0  0  0  0  0  0  0  0  0  0  0  0
    8.0730   46.3130   51.5780 C   0  0  0  0  0  0  0  0  0  0  0  0
    9.4390   45.9820   51.4990 C   0  0  0  0  0  0  0  0  0  0  0  0
   10.3310   46.4360   52.4760 C   0  0  0  0  0  0  0  0  0  0  0  0
    9.8720   47.2350   53.5270 C   0  0  0  0  0  0  0  0  0  0  0  0
    8.5220   47.5860   53.6000 C   0  0  0  0  0  0  0  0  0  0  0  0
    7.6270   47.1340   52.6250 C   0  0  0  0  0  0  0  0  0  0  0  0
    5.0270   44.9090   51.4390 C   0  0  0  0  0  0  0  0  0  0  0  0
    1.5180   43.5060   50.7360 H   0  0  0  0  0  0  0  0  0  0  0  0
   -3.3553   43.5683   54.4941 H   0  0  0  0  0  0  0  0  0  0  0  0
   -4.1051   45.5948   53.1926 H   0  0  0  0  0  0  0  0  0  0  0  0
   -2.5733   46.6295   51.4917 H   0  0  0  0  0  0  0  0  0  0  0  0
   -0.2984   45.6110   51.0885 H   0  0  0  0  0  0  0  0  0  0  0  0
    3.7759   41.7493   51.0335 H   0  0  0  0  0  0  0  0  0  0  0  0
    5.8912   41.5134   49.7379 H   0  0  0  0  0  0  0  0  0  0  0  0
    7.4561   43.4408   49.5287 H   0  0  0  0  0  0  0  0  0  0  0  0
    7.1150   46.4030   49.6700 H   0  0  0  0  0  0  0  0  0  0  0  0
    9.8061   45.3643   50.6661 H   0  0  0  0  0  0  0  0  0  0  0  0
   11.3952   46.1639   52.4172 H   0  0  0  0  0  0  0  0  0  0  0  0
   10.5742   47.5875   54.2969 H   0  0  0  0  0  0  0  0  0  0  0  0
    8.1625   48.2185   54.4251 H   0  0  0  0  0  0  0  0  0  0  0  0
    6.5672   47.4238   52.6792 H   0  0  0  0  0  0  0  0  0  0  0  0
    4.7722   45.8768   51.8955 H   0  0  0  0  0  0  0  0  0  0  0  0
  1  2  2  0
  2  3  1  0
  3  4  1  0
  4  5  2  0
  5  6  1  0
  6  7  2  0
  7  8  1  0
  8  9  2  0
  9 10  1  0
 10 11  2  0
 11 12  1  0
  2 13  1  0
 13 14  2  0
 14 15  1  0
 15 16  2  0
 16 17  1  0
 17 18  1  0
 18 19  1  0
 19 20  2  0
 20 21  1  0
 21 22  2  0
 22 23  1  0
 23 24  2  0
 17 25  2  0
 12  4  1  0
 25 13  1  0
 12  7  1  0
 24 19  1  0
  3 26  1  0
  8 27  1  0
  9 28  1  0
 10 29  1  0
 11 30  1  0
 14 31  1  0
 15 32  1  0
 16 33  1  0
 18 34  1  0
 20 35  1  0
 21 36  1  0
 22 37  1  0
 23 38  1  0
 24 39  1  0
 25 40  1  0
M  END
>  <meeko>  (4) 
{"is_sidechain": [false], "free_energy": -8.972, "intermolecular_energy": -11.195, "internal_energy": -0.689}

$$$$
ligand_18_conformer_2_docked
     RDKit          3D

 40 43  0  0  0  0  0  0  0  0999 V2000
    4.7680   46.4790   52.0730 O   0  0  0  0  0  0  0  0  0  0  0  0
    4.8740   45.2250   51.9860 C   0  0  0  0  0  0  0  0  0  0  0  0
    4.0370   44.3840   52.7930 N   0  0  0  0  0  0  0  0  0  0  0  0
    3.3530   44.8600   53.9590 C   0  0  0  0  0  0  0  0  0  0  0  0
    3.9280   45.6630   54.8810 N   0  0  0  0  0  0  0  0  0  0  0  0
    3.0030   45.9310   55.7990 N   0  0  0  0  0  0  0  0  0  0  0  0
    1.8840   45.2940   55.4050 C   0  0  0  0  0  0  0  0  0  0  0  0
    0.6440   45.3200   56.0400 C   0  0  0  0  0  0  0  0  0  0  0  0
   -0.4120   44.6290   55.4240 C   0  0  0  0  0  0  0  0  0  0  0  0
   -0.2070   43.9540   54.2030 C   0  0  0  0  0  0  0  0  0  0  0  0
    1.0650   43.9680   53.6090 C   0  0  0  0  0  0  0  0  0  0  0  0
    2.0630   44.6230   54.2580 N   0  0  0  0  0  0  0  0  0  0  0  0
    5.8320   44.6380   51.0180 C   0  0  0  0  0  0  0  0  0  0  0  0
    7.0200   45.3180   50.6970 C   0  0  0  0  0  0  0  0  0  0  0  0
    7.9320   44.7620   49.7970 C   0  0  0  0  0  0  0  0  0  0  0  0
    7.6700   43.5250   49.2060 C   0  0  0  0  0  0  0  0  0  0  0  0
    6.4880   42.8350   49.5020 C   0  0  0  0  0  0  0  0  0  0  0  0
    6.2530   41.5460   48.9060 N   0  0  0  0  0  0  0  0  0  0  0  0
    5.3880   41.3170   47.7800 C   0  0  0  0  0  0  0  0  0  0  0  0
    4.2000   40.5730   47.9080 C   0  0  0  0  0  0  0  0  0  0  0  0
    3.3640   40.3840   46.8030 C   0  0  0  0  0  0  0  0  0  0  0  0
    3.6970   40.9470   45.5680 C   0  0  0  0  0  0  0  0  0  0  0  0
    4.8620   41.7070   45.4380 C   0  0  0  0  0  0  0  0  0  0  0  0
    5.7010   41.8970   46.5410 C   0  0  0  0  0  0  0  0  0  0  0  0
    5.5830   43.3840   50.4290 C   0  0  0  0  0  0  0  0  0  0  0  0
    3.7530   43.4520   52.4150 H   0  0  0  0  0  0  0  0  0  0  0  0
    0.4980   45.8606   56.9868 H   0  0  0  0  0  0  0  0  0  0  0  0
   -1.4051   44.6142   55.8968 H   0  0  0  0  0  0  0  0  0  0  0  0
   -1.0382   43.4201   53.7192 H   0  0  0  0  0  0  0  0  0  0  0  0
    1.2480   43.4645   52.6483 H   0  0  0  0  0  0  0  0  0  0  0  0
    7.2326   46.2941   51.1576 H   0  0  0  0  0  0  0  0  0  0  0  0
    8.8596   45.3007   49.5532 H   0  0  0  0  0  0  0  0  0  0  0  0
    8.3961   43.0897   48.5037 H   0  0  0  0  0  0  0  0  0  0  0  0
    6.7440   40.7210   49.3190 H   0  0  0  0  0  0  0  0  0  0  0  0
    3.9281   40.1384   48.8812 H   0  0  0  0  0  0  0  0  0  0  0  0
    2.4430   39.7914   46.9060 H   0  0  0  0  0  0  0  0  0  0  0  0
    3.0418   40.7917   44.6982 H   0  0  0  0  0  0  0  0  0  0  0  0
    5.1197   42.1563   44.4676 H   0  0  0  0  0  0  0  0  0  0  0  0
    6.6118   42.5048   46.4366 H   0  0  0  0  0  0  0  0  0  0  0  0
    4.6722   42.8280   50.6960 H   0  0  0  0  0  0  0  0  0  0  0  0
  1  2  2  0
  2  3  1  0
  3  4  1  0
  4  5  2  0
  5  6  1  0
  6  7  2  0
  7  8  1  0
  8  9  2  0
  9 10  1  0
 10 11  2  0
 11 12  1  0
  2 13  1  0
 13 14  2  0
 14 15  1  0
 15 16  2  0
 16 17  1  0
 17 18  1  0
 18 19  1  0
 19 20  2  0
 20 21  1  0
 21 22  2  0
 22 23  1  0
 23 24  2  0
 17 25  2  0
 12  4  1  0
 25 13  1  0
 12  7  1  0
 24 19  1  0
  3 26  1  0
  8 27  1  0
  9 28  1  0
 10 29  1  0
 11 30  1  0
 14 31  1  0
 15 32  1  0
 16 33  1  0
 18 34  1  0
 20 35  1  0
 21 36  1  0
 22 37  1  0
 23 38  1  0
 24 39  1  0
 25 40  1  0
M  END
>  <meeko>  (5) 
{"is_sidechain": [false], "free_energy": -8.831, "intermolecular_energy": -11.136, "internal_energy": -0.575}

$$$$
