ligand_56_conformer_4_docked
     RDKit          3D

 50 53  0  0  0  0  0  0  0  0999 V2000
    8.0140   42.8580   49.3620 O   0  0  0  0  0  0  0  0  0  0  0  0
    6.7820   43.1280   49.3620 C   0  0  0  0  0  0  0  0  0  0  0  0
    6.3110   44.3150   50.0210 N   0  0  0  0  0  0  0  0  0  0  0  0
    7.2100   45.2470   50.6980 C   0  0  0  0  0  0  0  0  0  0  0  0
    6.5050   45.9010   51.9070 C   0  0  1  0  0  0  0  0  0  0  0  0
    5.8930   44.9110   52.7980 N   0  0  0  0  0  0  0  0  0  0  0  0
    5.8090   45.5500   54.1150 C   0  0  0  0  0  0  0  0  0  0  0  0
    6.6200   46.8450   54.0790 C   0  0  0  0  0  0  0  0  0  0  0  0
    7.3980   46.7920   52.7750 C   0  0  1  0  0  0  0  0  0  0  0  0
    8.7980   46.1830   53.0240 C   0  0  0  0  0  0  0  0  0  0  0  0
    9.7410   47.0600   53.8360 C   0  0  0  0  0  0  0  0  0  0  0  0
    9.9600   46.8930   52.3420 C   0  0  0  0  0  0  0  0  0  0  0  0
    5.8290   42.2080   48.6990 C   0  0  0  0  0  0  0  0  0  0  0  0
    5.8790   42.0540   47.3040 C   0  0  0  0  0  0  0  0  0  0  0  0
    4.9840   41.2070   46.6480 C   0  0  0  0  0  0  0  0  0  0  0  0
    4.0140   40.4880   47.3670 C   0  0  0  0  0  0  0  0  0  0  0  0
    3.0860   39.6150   46.6830 N   0  0  0  0  0  0  0  0  0  0  0  0
    2.7420   38.2660   47.1300 C   0  0  0  0  0  0  0  0  0  0  0  0
    1.8540   37.5940   46.0600 C   0  0  0  0  0  0  0  0  0  0  0  0
    1.0880   38.6610   45.2710 C   0  0  0  0  0  0  0  0  0  0  0  0
    2.1120   40.0880   45.3510 S   0  0  0  0  0  0  0  0  0  0  0  0
    2.9310   40.2530   44.1020 O   0  0  0  0  0  0  0  0  0  0  0  0
    1.3150   41.3260   45.6580 O   0  0  0  0  0  0  0  0  0  0  0  0
    3.9640   40.6440   48.7640 C   0  0  0  0  0  0  0  0  0  0  0  0
    4.8570   41.4910   49.4290 C   0  0  0  0  0  0  0  0  0  0  0  0
    4.7570   41.5750   51.1870 Cl  0  0  0  0  0  0  0  0  0  0  0  0
    5.2900   44.5370   50.0170 H   0  0  0  0  0  0  0  0  0  0  0  0
    8.0985   44.7018   51.0491 H   0  0  0  0  0  0  0  0  0  0  0  0
    7.5030   46.0354   49.9891 H   0  0  0  0  0  0  0  0  0  0  0  0
    5.7437   46.5336   51.4271 H   0  0  0  0  0  0  0  0  0  0  0  0
    6.5360   44.0870   52.8850 H   0  0  0  0  0  0  0  0  0  0  0  0
    4.7588   45.7765   54.3511 H   0  0  0  0  0  0  0  0  0  0  0  0
    6.2094   44.8762   54.8868 H   0  0  0  0  0  0  0  0  0  0  0  0
    5.9521   47.7189   54.0944 H   0  0  0  0  0  0  0  0  0  0  0  0
    7.2845   46.9382   54.9506 H   0  0  0  0  0  0  0  0  0  0  0  0
    7.5952   47.7673   52.3060 H   0  0  0  0  0  0  0  0  0  0  0  0
    8.4514   45.1405   53.0787 H   0  0  0  0  0  0  0  0  0  0  0  0
    9.3891   48.0225   54.2358 H   0  0  0  0  0  0  0  0  0  0  0  0
   10.3598   46.9129   54.7335 H   0  0  0  0  0  0  0  0  0  0  0  0
    9.7665   47.7345   51.6605 H   0  0  0  0  0  0  0  0  0  0  0  0
   10.8027   46.5750   51.7105 H   0  0  0  0  0  0  0  0  0  0  0  0
    6.6313   42.6066   46.7221 H   0  0  0  0  0  0  0  0  0  0  0  0
    5.0387   41.1011   45.5545 H   0  0  0  0  0  0  0  0  0  0  0  0
    3.6611   37.6778   47.2692 H   0  0  0  0  0  0  0  0  0  0  0  0
    2.1989   38.3177   48.0852 H   0  0  0  0  0  0  0  0  0  0  0  0
    2.4875   37.0160   45.3711 H   0  0  0  0  0  0  0  0  0  0  0  0
    1.1350   36.9247   46.5551 H   0  0  0  0  0  0  0  0  0  0  0  0
    0.9437   38.3441   44.2276 H   0  0  0  0  0  0  0  0  0  0  0  0
    0.0837   38.8435   45.6809 H   0  0  0  0  0  0  0  0  0  0  0  0
    3.2101   40.0908   49.3433 H   0  0  0  0  0  0  0  0  0  0  0  0
  1  2  2  0
  2  3  1  0
  3  4  1  0
  4  5  1  0
  5  6  1  0
  6  7  1  0
  7  8  1  0
  8  9  1  0
  9 10  1  0
 10 11  1  0
 11 12  1  0
  2 13  1  0
 13 14  2  0
 14 15  1  0
 15 16  2  0
 16 17  1  0
 17 18  1  0
 18 19  1  0
 19 20  1  0
 20 21  1  0
 21 22  2  0
 21 23  2  0
 16 24  1  0
 24 25  2  0
 25 26  1  0
  9  5  1  0
 12 10  1  0
 25 13  1  0
 21 17  1  0
  3 27  1  0
  4 28  1  0
  4 29  1  0
  5 30  1  6
  6 31  1  0
  7 32  1  0
  7 33  1  0
  8 34  1  0
  8 35  1  0
  9 36  1  6
 10 37  1  0
 11 38  1  0
 11 39  1  0
 12 40  1  0
 12 41  1  0
 14 42  1  0
 15 43  1  0
 18 44  1  0
 18 45  1  0
 19 46  1  0
 19 47  1  0
 20 48  1  0
 20 49  1  0
 24 50  1  0
M  END
>  <meeko>  (1) 
{"is_sidechain": [false], "free_energy": -8.473, "intermolecular_energy": -10.95, "internal_energy": -0.691}

$$$$
ligand_56_conformer_4_docked
     RDKit          3D

 50 53  0  0  0  0  0  0  0  0999 V2000
    3.7310   46.2200   55.7710 O   0  0  0  0  0  0  0  0  0  0  0  0
    3.6730   45.5890   54.6800 C   0  0  0  0  0  0  0  0  0  0  0  0
    4.8840   45.1560   54.0390 N   0  0  0  0  0  0  0  0  0  0  0  0
    6.2070   45.4110   54.6080 C   0  0  0  0  0  0  0  0  0  0  0  0
    6.7710   46.7530   54.0900 C   0  0  1  0  0  0  0  0  0  0  0  0
    8.1430   46.9920   54.5430 N   0  0  0  0  0  0  0  0  0  0  0  0
    8.7390   47.9050   53.5630 C   0  0  0  0  0  0  0  0  0  0  0  0
    7.7990   48.0110   52.3630 C   0  0  0  0  0  0  0  0  0  0  0  0
    6.7690   46.9130   52.5670 C   0  0  1  0  0  0  0  0  0  0  0  0
    7.2140   45.6300   51.8250 C   0  0  0  0  0  0  0  0  0  0  0  0
    7.6000   45.8380   50.3670 C   0  0  0  0  0  0  0  0  0  0  0  0
    6.2890   45.1530   50.7130 C   0  0  0  0  0  0  0  0  0  0  0  0
    2.3560   45.3180   54.0580 C   0  0  0  0  0  0  0  0  0  0  0  0
    1.4690   44.4280   54.6860 C   0  0  0  0  0  0  0  0  0  0  0  0
    0.2280   44.1390   54.1170 C   0  0  0  0  0  0  0  0  0  0  0  0
   -0.1650   44.7320   52.9040 C   0  0  0  0  0  0  0  0  0  0  0  0
   -1.4500   44.4270   52.3160 N   0  0  0  0  0  0  0  0  0  0  0  0
   -2.6070   45.3190   52.3560 C   0  0  0  0  0  0  0  0  0  0  0  0
   -3.8300   44.5800   51.7700 C   0  0  0  0  0  0  0  0  0  0  0  0
   -3.3690   43.5120   50.7730 C   0  0  0  0  0  0  0  0  0  0  0  0
   -1.7620   43.0580   51.3280 S   0  0  0  0  0  0  0  0  0  0  0  0
   -1.7920   41.7910   52.1360 O   0  0  0  0  0  0  0  0  0  0  0  0
   -0.7880   42.9630   50.1860 O   0  0  0  0  0  0  0  0  0  0  0  0
    0.7250   45.6220   52.2750 C   0  0  0  0  0  0  0  0  0  0  0  0
    1.9710   45.9170   52.8390 C   0  0  0  0  0  0  0  0  0  0  0  0
    2.9930   47.0900   52.0090 Cl  0  0  0  0  0  0  0  0  0  0  0  0
    4.8320   44.6330   53.1370 H   0  0  0  0  0  0  0  0  0  0  0  0
    6.1276   45.4511   55.7044 H   0  0  0  0  0  0  0  0  0  0  0  0
    6.8859   44.6001   54.3056 H   0  0  0  0  0  0  0  0  0  0  0  0
    6.0733   47.4878   54.5180 H   0  0  0  0  0  0  0  0  0  0  0  0
    8.6790   46.0900   54.5030 H   0  0  0  0  0  0  0  0  0  0  0  0
    8.8752   48.8980   54.0162 H   0  0  0  0  0  0  0  0  0  0  0  0
    9.7192   47.5237   53.2408 H   0  0  0  0  0  0  0  0  0  0  0  0
    7.3123   48.9972   52.3399 H   0  0  0  0  0  0  0  0  0  0  0  0
    8.3353   47.9001   51.4090 H   0  0  0  0  0  0  0  0  0  0  0  0
    5.7659   47.1317   52.1720 H   0  0  0  0  0  0  0  0  0  0  0  0
    7.6795   45.1564   52.7019 H   0  0  0  0  0  0  0  0  0  0  0  0
    7.5944   46.8500   49.9358 H   0  0  0  0  0  0  0  0  0  0  0  0
    8.4728   45.5793   49.7495 H   0  0  0  0  0  0  0  0  0  0  0  0
    5.3345   45.6692   50.5325 H   0  0  0  0  0  0  0  0  0  0  0  0
    5.8201   44.1934   50.4498 H   0  0  0  0  0  0  0  0  0  0  0  0
    1.7557   43.9539   55.6363 H   0  0  0  0  0  0  0  0  0  0  0  0
   -0.4516   43.4382   54.6239 H   0  0  0  0  0  0  0  0  0  0  0  0
   -2.8143   45.6081   53.3969 H   0  0  0  0  0  0  0  0  0  0  0  0
   -2.4003   46.2236   51.7652 H   0  0  0  0  0  0  0  0  0  0  0  0
   -4.3903   44.0993   52.5855 H   0  0  0  0  0  0  0  0  0  0  0  0
   -4.4747   45.3044   51.2506 H   0  0  0  0  0  0  0  0  0  0  0  0
   -4.0460   42.6452   50.7906 H   0  0  0  0  0  0  0  0  0  0  0  0
   -3.3657   43.8802   49.7365 H   0  0  0  0  0  0  0  0  0  0  0  0
    0.4364   46.0937   51.3241 H   0  0  0  0  0  0  0  0  0  0  0  0
  1  2  2  0
  2  3  1  0
  3  4  1  0
  4  5  1  0
  5  6  1  0
  6  7  1  0
  7  8  1  0
  8  9  1  0
  9 10  1  0
 10 11  1  0
 11 12  1  0
  2 13  1  0
 13 14  2  0
 14 15  1  0
 15 16  2  0
 16 17  1  0
 17 18  1  0
 18 19  1  0
 19 20  1  0
 20 21  1  0
 21 22  2  0
 21 23  2  0
 16 24  1  0
 24 25  2  0
 25 26  1  0
  9  5  1  0
 12 10  1  0
 25 13  1  0
 21 17  1  0
  3 27  1  0
  4 28  1  0
  4 29  1  0
  5 30  1  1
  6 31  1  0
  7 32  1  0
  7 33  1  0
  8 34  1  0
  8 35  1  0
  9 36  1  6
 10 37  1  0
 11 38  1  0
 11 39  1  0
 12 40  1  0
 12 41  1  0
 14 42  1  0
 15 43  1  0
 18 44  1  0
 18 45  1  0
 19 46  1  0
 19 47  1  0
 20 48  1  0
 20 49  1  0
 24 50  1  0
M  END
>  <meeko>  (2) 
{"is_sidechain": [false], "free_energy": -8.033, "intermolecular_energy": -10.187, "internal_energy": -0.886}

$$$$
ligand_56_conformer_4_docked
     RDKit          3D

 50 53  0  0  0  0  0  0  0  0999 V2000
    6.5430   41.4930   50.1630 O   0  0  0  0  0  0  0  0  0  0  0  0
    6.2270   42.2590   49.2130 C   0  0  0  0  0  0  0  0  0  0  0  0
    6.5990   43.6470   49.2590 N   0  0  0  0  0  0  0  0  0  0  0  0
    7.3480   44.2220   50.3750 C   0  0  0  0  0  0  0  0  0  0  0  0
    6.5290   45.3390   51.0590 C   0  0  1  0  0  0  0  0  0  0  0  0
    5.7090   44.8330   52.1630 N   0  0  0  0  0  0  0  0  0  0  0  0
    5.4850   45.9740   53.0560 C   0  0  0  0  0  0  0  0  0  0  0  0
    6.4000   47.1190   52.6210 C   0  0  0  0  0  0  0  0  0  0  0  0
    7.3560   46.5030   51.6130 C   0  0  1  0  0  0  0  0  0  0  0  0
    8.6460   46.0390   52.3290 C   0  0  0  0  0  0  0  0  0  0  0  0
    9.4170   47.1440   53.0380 C   0  0  0  0  0  0  0  0  0  0  0  0
    9.9530   46.5560   51.7430 C   0  0  0  0  0  0  0  0  0  0  0  0
    5.4580   41.7260   48.0650 C   0  0  0  0  0  0  0  0  0  0  0  0
    5.9230   41.9520   46.7600 C   0  0  0  0  0  0  0  0  0  0  0  0
    5.2130   41.4760   45.6560 C   0  0  0  0  0  0  0  0  0  0  0  0
    4.0170   40.7580   45.8250 C   0  0  0  0  0  0  0  0  0  0  0  0
    3.2810   40.2700   44.6800 N   0  0  0  0  0  0  0  0  0  0  0  0
    1.9420   40.7220   44.3070 C   0  0  0  0  0  0  0  0  0  0  0  0
    1.4290   39.8570   43.1340 C   0  0  0  0  0  0  0  0  0  0  0  0
    2.6130   39.3180   42.3250 C   0  0  0  0  0  0  0  0  0  0  0  0
    3.9320   39.2230   43.4850 S   0  0  0  0  0  0  0  0  0  0  0  0
    4.1070   37.8270   44.0120 O   0  0  0  0  0  0  0  0  0  0  0  0
    5.2130   39.7640   42.9120 O   0  0  0  0  0  0  0  0  0  0  0  0
    3.5500   40.5330   47.1340 C   0  0  0  0  0  0  0  0  0  0  0  0
    4.2570   41.0070   48.2440 C   0  0  0  0  0  0  0  0  0  0  0  0
    3.6260   40.6240   49.8450 Cl  0  0  0  0  0  0  0  0  0  0  0  0
    6.3380   44.2780   48.4690 H   0  0  0  0  0  0  0  0  0  0  0  0
    7.5667   43.4324   51.1090 H   0  0  0  0  0  0  0  0  0  0  0  0
    8.2843   44.6526   49.9903 H   0  0  0  0  0  0  0  0  0  0  0  0
    5.9041   45.7164   50.2361 H   0  0  0  0  0  0  0  0  0  0  0  0
    6.2590   44.1160   52.6960 H   0  0  0  0  0  0  0  0  0  0  0  0
    4.4345   46.2941   52.9923 H   0  0  0  0  0  0  0  0  0  0  0  0
    5.7074   45.6883   54.0947 H   0  0  0  0  0  0  0  0  0  0  0  0
    5.8144   47.9251   52.1548 H   0  0  0  0  0  0  0  0  0  0  0  0
    6.9327   47.5664   53.4731 H   0  0  0  0  0  0  0  0  0  0  0  0
    7.7033   47.1819   50.8202 H   0  0  0  0  0  0  0  0  0  0  0  0
    8.2604   45.0469   52.6067 H   0  0  0  0  0  0  0  0  0  0  0  0
    9.0192   48.1695   53.0530 H   0  0  0  0  0  0  0  0  0  0  0  0
    9.8180   47.2844   54.0526 H   0  0  0  0  0  0  0  0  0  0  0  0
    9.9430   47.1560   50.8211 H   0  0  0  0  0  0  0  0  0  0  0  0
   10.9022   46.0948   51.4328 H   0  0  0  0  0  0  0  0  0  0  0  0
    6.8578   42.5107   46.6053 H   0  0  0  0  0  0  0  0  0  0  0  0
    5.5945   41.6653   44.6418 H   0  0  0  0  0  0  0  0  0  0  0  0
    1.2642   40.6170   45.1670 H   0  0  0  0  0  0  0  0  0  0  0  0
    1.9772   41.7785   44.0027 H   0  0  0  0  0  0  0  0  0  0  0  0
    0.8449   39.0137   43.5312 H   0  0  0  0  0  0  0  0  0  0  0  0
    0.7952   40.4739   42.4800 H   0  0  0  0  0  0  0  0  0  0  0  0
    2.3833   38.3234   41.9151 H   0  0  0  0  0  0  0  0  0  0  0  0
    2.8578   39.9582   41.4646 H   0  0  0  0  0  0  0  0  0  0  0  0
    2.6141   39.9755   47.2863 H   0  0  0  0  0  0  0  0  0  0  0  0
  1  2  2  0
  2  3  1  0
  3  4  1  0
  4  5  1  0
  5  6  1  0
  6  7  1  0
  7  8  1  0
  8  9  1  0
  9 10  1  0
 10 11  1  0
 11 12  1  0
  2 13  1  0
 13 14  2  0
 14 15  1  0
 15 16  2  0
 16 17  1  0
 17 18  1  0
 18 19  1  0
 19 20  1  0
 20 21  1  0
 21 22  2  0
 21 23  2  0
 16 24  1  0
 24 25  2  0
 25 26  1  0
  9  5  1  0
 12 10  1  0
 25 13  1  0
 21 17  1  0
  3 27  1  0
  4 28  1  0
  4 29  1  0
  5 30  1  6
  6 31  1  0
  7 32  1  0
  7 33  1  0
  8 34  1  0
  8 35  1  0
  9 36  1  6
 10 37  1  0
 11 38  1  0
 11 39  1  0
 12 40  1  0
 12 41  1  0
 14 42  1  0
 15 43  1  0
 18 44  1  0
 18 45  1  0
 19 46  1  0
 19 47  1  0
 20 48  1  0
 20 49  1  0
 24 50  1  0
M  END
>  <meeko>  (3) 
{"is_sidechain": [false], "free_energy": -7.568, "intermolecular_energy": -9.98, "internal_energy": -0.492}

$$$$
ligand_56_conformer_4_docked
     RDKit          3D

 50 53  0  0  0  0  0  0  0  0999 V2000
    1.3010   43.0360   50.4530 O   0  0  0  0  0  0  0  0  0  0  0  0
    1.8040   43.2690   51.5850 C   0  0  0  0  0  0  0  0  0  0  0  0
    1.0900   42.8980   52.7750 N   0  0  0  0  0  0  0  0  0  0  0  0
   -0.2170   42.2450   52.7340 C   0  0  0  0  0  0  0  0  0  0  0  0
   -1.3410   43.2910   52.5590 C   0  0  1  0  0  0  0  0  0  0  0  0
   -2.6760   42.6940   52.6500 N   0  0  0  0  0  0  0  0  0  0  0  0
   -3.5750   43.7760   53.0630 C   0  0  0  0  0  0  0  0  0  0  0  0
   -2.7290   44.9780   53.4810 C   0  0  0  0  0  0  0  0  0  0  0  0
   -1.3040   44.4560   53.5520 C   0  0  1  0  0  0  0  0  0  0  0  0
   -0.9810   44.0070   54.9970 C   0  0  0  0  0  0  0  0  0  0  0  0
   -1.3730   45.0050   56.0780 C   0  0  0  0  0  0  0  0  0  0  0  0
    0.0900   44.8150   55.7170 C   0  0  0  0  0  0  0  0  0  0  0  0
    3.1220   43.9400   51.6790 C   0  0  0  0  0  0  0  0  0  0  0  0
    4.2740   43.2550   51.2610 C   0  0  0  0  0  0  0  0  0  0  0  0
    5.5320   43.8540   51.3520 C   0  0  0  0  0  0  0  0  0  0  0  0
    5.6750   45.1560   51.8610 C   0  0  0  0  0  0  0  0  0  0  0  0
    6.9790   45.7720   51.9570 N   0  0  0  0  0  0  0  0  0  0  0  0
    8.0510   45.5890   50.9810 C   0  0  0  0  0  0  0  0  0  0  0  0
    9.3340   46.2680   51.5100 C   0  0  0  0  0  0  0  0  0  0  0  0
    8.9660   47.4160   52.4540 C   0  0  0  0  0  0  0  0  0  0  0  0
    7.4100   46.9510   53.1290 S   0  0  0  0  0  0  0  0  0  0  0  0
    7.5580   46.3410   54.4950 O   0  0  0  0  0  0  0  0  0  0  0  0
    6.4430   48.1030   53.1390 O   0  0  0  0  0  0  0  0  0  0  0  0
    4.5200   45.8420   52.2810 C   0  0  0  0  0  0  0  0  0  0  0  0
    3.2550   45.2480   52.1930 C   0  0  0  0  0  0  0  0  0  0  0  0
    1.8610   46.2060   52.6870 Cl  0  0  0  0  0  0  0  0  0  0  0  0
    1.5110   43.0910   53.7120 H   0  0  0  0  0  0  0  0  0  0  0  0
   -0.2433   41.5410   51.8892 H   0  0  0  0  0  0  0  0  0  0  0  0
   -0.3757   41.7082   53.6809 H   0  0  0  0  0  0  0  0  0  0  0  0
   -1.1458   43.6866   51.5514 H   0  0  0  0  0  0  0  0  0  0  0  0
   -2.6770   41.9720   53.4120 H   0  0  0  0  0  0  0  0  0  0  0  0
   -4.2282   44.0562   52.2235 H   0  0  0  0  0  0  0  0  0  0  0  0
   -4.2005   43.4449   53.9051 H   0  0  0  0  0  0  0  0  0  0  0  0
   -2.8082   45.7834   52.7360 H   0  0  0  0  0  0  0  0  0  0  0  0
   -3.0606   45.4006   54.4409 H   0  0  0  0  0  0  0  0  0  0  0  0
   -0.5227   45.1897   53.3045 H   0  0  0  0  0  0  0  0  0  0  0  0
   -1.1531   42.9357   54.8164 H   0  0  0  0  0  0  0  0  0  0  0  0
   -1.8902   45.9366   55.8047 H   0  0  0  0  0  0  0  0  0  0  0  0
   -1.9570   44.9534   57.0087 H   0  0  0  0  0  0  0  0  0  0  0  0
    0.6320   45.6090   55.1824 H   0  0  0  0  0  0  0  0  0  0  0  0
    1.0035   44.5689   56.2782 H   0  0  0  0  0  0  0  0  0  0  0  0
    4.1846   42.2356   50.8575 H   0  0  0  0  0  0  0  0  0  0  0  0
    6.4225   43.2996   51.0210 H   0  0  0  0  0  0  0  0  0  0  0  0
    8.2362   44.5148   50.8336 H   0  0  0  0  0  0  0  0  0  0  0  0
    7.7605   46.0403   50.0208 H   0  0  0  0  0  0  0  0  0  0  0  0
    9.9400   45.5286   52.0541 H   0  0  0  0  0  0  0  0  0  0  0  0
    9.9081   46.6677   50.6611 H   0  0  0  0  0  0  0  0  0  0  0  0
    9.7186   47.5217   53.2492 H   0  0  0  0  0  0  0  0  0  0  0  0
    8.9240   48.3856   51.9363 H   0  0  0  0  0  0  0  0  0  0  0  0
    4.6125   46.8610   52.6848 H   0  0  0  0  0  0  0  0  0  0  0  0
  1  2  2  0
  2  3  1  0
  3  4  1  0
  4  5  1  0
  5  6  1  0
  6  7  1  0
  7  8  1  0
  8  9  1  0
  9 10  1  0
 10 11  1  0
 11 12  1  0
  2 13  1  0
 13 14  2  0
 14 15  1  0
 15 16  2  0
 16 17  1  0
 17 18  1  0
 18 19  1  0
 19 20  1  0
 20 21  1  0
 21 22  2  0
 21 23  2  0
 16 24  1  0
 24 25  2  0
 25 26  1  0
  9  5  1  0
 12 10  1  0
 25 13  1  0
 21 17  1  0
  3 27  1  0
  4 28  1  0
  4 29  1  0
  5 30  1  6
  6 31  1  0
  7 32  1  0
  7 33  1  0
  8 34  1  0
  8 35  1  0
  9 36  1  6
 10 37  1  0
 11 38  1  0
 11 39  1  0
 12 40  1  0
 12 41  1  0
 14 42  1  0
 15 43  1  0
 18 44  1  0
 18 45  1  0
 19 46  1  0
 19 47  1  0
 20 48  1  0
 20 49  1  0
 24 50  1  0
M  END
>  <meeko>  (4) 
{"is_sidechain": [false], "free_energy": -7.518, "intermolecular_energy": -9.751, "internal_energy": -0.657}

$$$$
ligand_56_conformer_4_docked
     RDKit          3D

 50 53  0  0  0  0  0  0  0  0999 V2000
    3.5510   40.4040   50.4110 O   0  0  0  0  0  0  0  0  0  0  0  0
    4.1920   41.1360   49.6080 C   0  0  0  0  0  0  0  0  0  0  0  0
    4.2180   40.8110   48.2090 N   0  0  0  0  0  0  0  0  0  0  0  0
    3.5150   39.6520   47.6590 C   0  0  0  0  0  0  0  0  0  0  0  0
    3.1540   39.8890   46.1760 C   0  0  1  0  0  0  0  0  0  0  0  0
    4.3380   39.9300   45.3140 N   0  0  0  0  0  0  0  0  0  0  0  0
    3.8750   39.5610   43.9730 C   0  0  0  0  0  0  0  0  0  0  0  0
    2.4440   39.0360   44.0810 C   0  0  0  0  0  0  0  0  0  0  0  0
    2.1960   38.8600   45.5700 C   0  0  1  0  0  0  0  0  0  0  0  0
    2.5240   37.4080   45.9890 C   0  0  0  0  0  0  0  0  0  0  0  0
    1.6890   36.3390   45.2990 C   0  0  0  0  0  0  0  0  0  0  0  0
    1.4330   36.6770   46.7580 C   0  0  0  0  0  0  0  0  0  0  0  0
    4.9300   42.3140   50.1190 C   0  0  0  0  0  0  0  0  0  0  0  0
    6.1310   42.6960   49.5000 C   0  0  0  0  0  0  0  0  0  0  0  0
    6.8590   43.7910   49.9680 C   0  0  0  0  0  0  0  0  0  0  0  0
    6.4050   44.5400   51.0680 C   0  0  0  0  0  0  0  0  0  0  0  0
    7.1620   45.6720   51.5520 N   0  0  0  0  0  0  0  0  0  0  0  0
    8.3630   46.1990   50.9060 C   0  0  0  0  0  0  0  0  0  0  0  0
    8.9760   47.2970   51.8030 C   0  0  0  0  0  0  0  0  0  0  0  0
    7.8830   47.9420   52.6600 C   0  0  0  0  0  0  0  0  0  0  0  0
    6.6710   46.6810   52.8520 S   0  0  0  0  0  0  0  0  0  0  0  0
    6.8060   45.9800   54.1740 O   0  0  0  0  0  0  0  0  0  0  0  0
    5.2800   47.2130   52.6470 O   0  0  0  0  0  0  0  0  0  0  0  0
    5.2020   44.1570   51.6880 C   0  0  0  0  0  0  0  0  0  0  0  0
    4.4680   43.0590   51.2250 C   0  0  0  0  0  0  0  0  0  0  0  0
    2.9420   42.6920   52.0290 Cl  0  0  0  0  0  0  0  0  0  0  0  0
    4.7480   41.4200   47.5460 H   0  0  0  0  0  0  0  0  0  0  0  0
    4.1625   38.7661   47.7364 H   0  0  0  0  0  0  0  0  0  0  0  0
    2.5874   39.4961   48.2294 H   0  0  0  0  0  0  0  0  0  0  0  0
    2.6454   40.8639   46.2054 H   0  0  0  0  0  0  0  0  0  0  0  0
    5.0170   39.1950   45.6300 H   0  0  0  0  0  0  0  0  0  0  0  0
    3.8978   40.4435   43.3168 H   0  0  0  0  0  0  0  0  0  0  0  0
    4.5297   38.7856   43.5485 H   0  0  0  0  0  0  0  0  0  0  0  0
    1.7342   39.7601   43.6546 H   0  0  0  0  0  0  0  0  0  0  0  0
    2.3081   38.0952   43.5274 H   0  0  0  0  0  0  0  0  0  0  0  0
    1.1568   39.0168   45.8949 H   0  0  0  0  0  0  0  0  0  0  0  0
    3.5979   37.5852   46.1482 H   0  0  0  0  0  0  0  0  0  0  0  0
    0.9549   36.6251   44.5313 H   0  0  0  0  0  0  0  0  0  0  0  0
    1.9124   35.4171   44.7421 H   0  0  0  0  0  0  0  0  0  0  0  0
    0.5137   37.2077   47.0463 H   0  0  0  0  0  0  0  0  0  0  0  0
    1.3944   36.1010   47.6943 H   0  0  0  0  0  0  0  0  0  0  0  0
    6.5025   42.1255   48.6360 H   0  0  0  0  0  0  0  0  0  0  0  0
    7.7991   44.0714   49.4704 H   0  0  0  0  0  0  0  0  0  0  0  0
    9.0924   45.3877   50.7656 H   0  0  0  0  0  0  0  0  0  0  0  0
    8.1017   46.6233   49.9253 H   0  0  0  0  0  0  0  0  0  0  0  0
    9.7368   46.8490   52.4591 H   0  0  0  0  0  0  0  0  0  0  0  0
    9.4386   48.0666   51.1676 H   0  0  0  0  0  0  0  0  0  0  0  0
    8.2848   48.2470   53.6375 H   0  0  0  0  0  0  0  0  0  0  0  0
    7.4709   48.8509   52.1973 H   0  0  0  0  0  0  0  0  0  0  0  0
    4.8320   44.7299   52.5510 H   0  0  0  0  0  0  0  0  0  0  0  0
  1  2  2  0
  2  3  1  0
  3  4  1  0
  4  5  1  0
  5  6  1  0
  6  7  1  0
  7  8  1  0
  8  9  1  0
  9 10  1  0
 10 11  1  0
 11 12  1  0
  2 13  1  0
 13 14  2  0
 14 15  1  0
 15 16  2  0
 16 17  1  0
 17 18  1  0
 18 19  1  0
 19 20  1  0
 20 21  1  0
 21 22  2  0
 21 23  2  0
 16 24  1  0
 24 25  2  0
 25 26  1  0
  9  5  1  0
 12 10  1  0
 25 13  1  0
 21 17  1  0
  3 27  1  0
  4 28  1  0
  4 29  1  0
  5 30  1  1
  6 31  1  0
  7 32  1  0
  7 33  1  0
  8 34  1  0
  8 35  1  0
  9 36  1  6
 10 37  1  0
 11 38  1  0
 11 39  1  0
 12 40  1  0
 12 41  1  0
 14 42  1  0
 15 43  1  0
 18 44  1  0
 18 45  1  0
 19 46  1  0
 19 47  1  0
 20 48  1  0
 20 49  1  0
 24 50  1  0
M  END
>  <meeko>  (5) 
{"is_sidechain": [false], "free_energy": -7.465, "intermolecular_energy": -10.103, "internal_energy": -0.235}

$$$$
