ligand_48_conformer_1_docked
     RDKit          3D

 52 55  0  0  0  0  0  0  0  0999 V2000
   -3.0320   43.6350   57.0770 C   0  0  0  0  0  0  0  0  0  0  0  0
   -1.8200   44.1800   56.3150 C   0  0  0  0  0  0  0  0  0  0  0  0
   -1.6550   45.6840   56.5590 C   0  0  0  0  0  0  0  0  0  0  0  0
   -1.9550   43.8720   54.8440 C   0  0  0  0  0  0  0  0  0  0  0  0
   -3.1310   43.6320   54.2140 N   0  0  0  0  0  0  0  0  0  0  0  0
   -2.8540   43.3130   52.9530 N   0  0  0  0  0  0  0  0  0  0  0  0
   -1.5140   43.3500   52.8430 C   0  0  0  0  0  0  0  0  0  0  0  0
   -0.7610   43.0640   51.7090 C   0  0  0  0  0  0  0  0  0  0  0  0
    0.6380   43.1280   51.8260 C   0  0  0  0  0  0  0  0  0  0  0  0
    1.2410   43.4590   53.0640 C   0  0  0  0  0  0  0  0  0  0  0  0
    2.6680   43.5230   53.2140 N   0  0  0  0  0  0  0  0  0  0  0  0
    3.4250   44.7370   53.0480 C   0  0  0  0  0  0  0  0  0  0  0  0
    2.8180   45.8280   52.8650 O   0  0  0  0  0  0  0  0  0  0  0  0
    4.8730   44.7190   53.0280 N   0  0  0  0  0  0  0  0  0  0  0  0
    5.5940   44.5930   54.3090 C   0  0  0  0  0  0  0  0  0  0  0  0
    5.7000   45.9150   55.0880 C   0  0  0  0  0  0  0  0  0  0  0  0
    6.1970   47.1490   54.2790 C   0  0  0  0  0  0  0  0  0  0  0  0
    7.4620   47.0040   53.4410 C   0  0  0  0  0  0  0  0  0  0  0  0
    8.6880   47.3830   54.0240 C   0  0  0  0  0  0  0  0  0  0  0  0
    9.8950   47.1830   53.3540 C   0  0  0  0  0  0  0  0  0  0  0  0
    9.9060   46.5810   52.0990 C   0  0  0  0  0  0  0  0  0  0  0  0
    8.7080   46.1910   51.5020 C   0  0  0  0  0  0  0  0  0  0  0  0
    7.4780   46.4030   52.1510 C   0  0  0  0  0  0  0  0  0  0  0  0
    6.2040   46.1010   51.3960 C   0  0  0  0  0  0  0  0  0  0  0  0
    5.6120   44.7140   51.7490 C   0  0  0  0  0  0  0  0  0  0  0  0
    0.4170   43.7620   54.1640 C   0  0  0  0  0  0  0  0  0  0  0  0
   -0.9270   43.6870   53.9970 N   0  0  0  0  0  0  0  0  0  0  0  0
   -2.8516   43.7161   58.1591 H   0  0  0  0  0  0  0  0  0  0  0  0
   -3.9257   44.2179   56.8096 H   0  0  0  0  0  0  0  0  0  0  0  0
   -3.1890   42.5796   56.8096 H   0  0  0  0  0  0  0  0  0  0  0  0
   -0.9117   43.6848   56.6889 H   0  0  0  0  0  0  0  0  0  0  0  0
   -1.6335   45.8797   57.6412 H   0  0  0  0  0  0  0  0  0  0  0  0
   -0.7137   46.0280   56.1054 H   0  0  0  0  0  0  0  0  0  0  0  0
   -2.4993   46.2238   56.1054 H   0  0  0  0  0  0  0  0  0  0  0  0
   -1.2424   42.7977   50.7565 H   0  0  0  0  0  0  0  0  0  0  0  0
    1.2693   42.9195   50.9496 H   0  0  0  0  0  0  0  0  0  0  0  0
    3.1700   42.6110   53.2310 H   0  0  0  0  0  0  0  0  0  0  0  0
    5.0637   43.8613   54.9361 H   0  0  0  0  0  0  0  0  0  0  0  0
    6.6200   44.2748   54.0720 H   0  0  0  0  0  0  0  0  0  0  0  0
    4.7017   46.1527   55.4840 H   0  0  0  0  0  0  0  0  0  0  0  0
    6.4630   45.7419   55.8612 H   0  0  0  0  0  0  0  0  0  0  0  0
    5.3852   47.4382   53.5953 H   0  0  0  0  0  0  0  0  0  0  0  0
    6.4656   47.8872   55.0490 H   0  0  0  0  0  0  0  0  0  0  0  0
    8.6931   47.8437   55.0229 H   0  0  0  0  0  0  0  0  0  0  0  0
   10.8399   47.5016   53.8183 H   0  0  0  0  0  0  0  0  0  0  0  0
   10.8602   46.4129   51.5781 H   0  0  0  0  0  0  0  0  0  0  0  0
    8.7247   45.7119   50.5119 H   0  0  0  0  0  0  0  0  0  0  0  0
    5.4595   46.8733   51.6396 H   0  0  0  0  0  0  0  0  0  0  0  0
    6.4482   46.0938   50.3235 H   0  0  0  0  0  0  0  0  0  0  0  0
    4.9241   44.4102   50.9462 H   0  0  0  0  0  0  0  0  0  0  0  0
    6.4515   44.0108   51.8528 H   0  0  0  0  0  0  0  0  0  0  0  0
    0.8509   44.0516   55.1324 H   0  0  0  0  0  0  0  0  0  0  0  0
  1  2  1  0
  2  3  1  0
  2  4  1  0
  4  5  2  0
  5  6  1  0
  6  7  2  0
  7  8  1  0
  8  9  2  0
  9 10  1  0
 10 11  1  0
 11 12  1  0
 12 13  2  0
 12 14  1  0
 14 15  1  0
 15 16  1  0
 16 17  1  0
 17 18  1  0
 18 19  2  0
 19 20  1  0
 20 21  2  0
 21 22  1  0
 22 23  2  0
 23 24  1  0
 24 25  1  0
 10 26  2  0
 26 27  1  0
 27  4  1  0
 27  7  1  0
 25 14  1  0
 23 18  1  0
  1 28  1  0
  1 29  1  0
  1 30  1  0
  2 31  1  0
  3 32  1  0
  3 33  1  0
  3 34  1  0
  8 35  1  0
  9 36  1  0
 11 37  1  0
 15 38  1  0
 15 39  1  0
 16 40  1  0
 16 41  1  0
 17 42  1  0
 17 43  1  0
 19 44  1  0
 20 45  1  0
 21 46  1  0
 22 47  1  0
 24 48  1  0
 24 49  1  0
 25 50  1  0
 25 51  1  0
 26 52  1  0
M  END
>  <meeko>  (1) 
{"is_sidechain": [false], "free_energy": -7.478, "intermolecular_energy": -11.412, "internal_energy": -0.091}

$$$$
ligand_48_conformer_1_docked
     RDKit          3D

 52 55  0  0  0  0  0  0  0  0999 V2000
    8.0960   48.4840   52.0780 C   0  0  0  0  0  0  0  0  0  0  0  0
    7.3520   47.3460   52.7820 C   0  0  0  0  0  0  0  0  0  0  0  0
    8.0990   46.9060   54.0460 C   0  0  0  0  0  0  0  0  0  0  0  0
    7.1560   46.1910   51.8290 C   0  0  0  0  0  0  0  0  0  0  0  0
    7.9060   45.9750   50.7210 N   0  0  0  0  0  0  0  0  0  0  0  0
    7.3900   44.9260   50.0850 N   0  0  0  0  0  0  0  0  0  0  0  0
    6.3280   44.5340   50.8110 C   0  0  0  0  0  0  0  0  0  0  0  0
    5.4600   43.4860   50.5210 C   0  0  0  0  0  0  0  0  0  0  0  0
    4.3850   43.2730   51.4010 C   0  0  0  0  0  0  0  0  0  0  0  0
    4.1990   44.1120   52.5270 C   0  0  0  0  0  0  0  0  0  0  0  0
    3.1050   43.9220   53.4370 N   0  0  0  0  0  0  0  0  0  0  0  0
    1.9370   44.7650   53.4530 C   0  0  0  0  0  0  0  0  0  0  0  0
    1.7990   45.6530   52.5670 O   0  0  0  0  0  0  0  0  0  0  0  0
    0.9450   44.6520   54.5030 N   0  0  0  0  0  0  0  0  0  0  0  0
   -0.2160   43.7690   54.2830 C   0  0  0  0  0  0  0  0  0  0  0  0
   -1.5040   44.5260   53.9220 C   0  0  0  0  0  0  0  0  0  0  0  0
   -2.4670   44.7600   55.1110 C   0  0  0  0  0  0  0  0  0  0  0  0
   -2.1600   45.9350   56.0330 C   0  0  0  0  0  0  0  0  0  0  0  0
   -3.0840   46.9980   56.0780 C   0  0  0  0  0  0  0  0  0  0  0  0
   -2.9190   48.0550   56.9730 C   0  0  0  0  0  0  0  0  0  0  0  0
   -1.8430   48.0630   57.8550 C   0  0  0  0  0  0  0  0  0  0  0  0
   -0.9170   47.0210   57.8350 C   0  0  0  0  0  0  0  0  0  0  0  0
   -1.0520   45.9560   56.9260 C   0  0  0  0  0  0  0  0  0  0  0  0
    0.0580   44.9340   56.8430 C   0  0  0  0  0  0  0  0  0  0  0  0
    1.1460   45.3140   55.8080 C   0  0  0  0  0  0  0  0  0  0  0  0
    5.1310   45.1370   52.7730 C   0  0  0  0  0  0  0  0  0  0  0  0
    6.1510   45.3000   51.8940 N   0  0  0  0  0  0  0  0  0  0  0  0
    8.5351   49.1557   52.8304 H   0  0  0  0  0  0  0  0  0  0  0  0
    8.8954   48.0655   51.4489 H   0  0  0  0  0  0  0  0  0  0  0  0
    7.3920   49.0484   51.4489 H   0  0  0  0  0  0  0  0  0  0  0  0
    6.3616   47.7084   53.0946 H   0  0  0  0  0  0  0  0  0  0  0  0
    7.5408   47.2348   54.9350 H   0  0  0  0  0  0  0  0  0  0  0  0
    8.1903   45.8098   54.0551 H   0  0  0  0  0  0  0  0  0  0  0  0
    9.1020   47.3576   54.0551 H   0  0  0  0  0  0  0  0  0  0  0  0
    5.6094   42.8487   49.6370 H   0  0  0  0  0  0  0  0  0  0  0  0
    3.6822   42.4478   51.2137 H   0  0  0  0  0  0  0  0  0  0  0  0
    3.2800   43.2850   54.2420 H   0  0  0  0  0  0  0  0  0  0  0  0
    0.0233   43.0779   53.4614 H   0  0  0  0  0  0  0  0  0  0  0  0
   -0.4054   43.2426   55.2301 H   0  0  0  0  0  0  0  0  0  0  0  0
   -1.2222   45.5064   53.5103 H   0  0  0  0  0  0  0  0  0  0  0  0
   -2.0452   43.8956   53.2011 H   0  0  0  0  0  0  0  0  0  0  0  0
   -3.4733   44.9186   54.6960 H   0  0  0  0  0  0  0  0  0  0  0  0
   -2.3601   43.8665   55.7437 H   0  0  0  0  0  0  0  0  0  0  0  0
   -3.9481   46.9941   55.3973 H   0  0  0  0  0  0  0  0  0  0  0  0
   -3.6415   48.8844   56.9815 H   0  0  0  0  0  0  0  0  0  0  0  0
   -1.7229   48.8917   58.5683 H   0  0  0  0  0  0  0  0  0  0  0  0
   -0.0711   47.0318   58.5381 H   0  0  0  0  0  0  0  0  0  0  0  0
    0.5297   44.8459   57.8328 H   0  0  0  0  0  0  0  0  0  0  0  0
   -0.3902   43.9831   56.5192 H   0  0  0  0  0  0  0  0  0  0  0  0
    1.1238   46.4034   55.6574 H   0  0  0  0  0  0  0  0  0  0  0  0
    2.1153   44.9789   56.2056 H   0  0  0  0  0  0  0  0  0  0  0  0
    5.0350   45.7884   53.6542 H   0  0  0  0  0  0  0  0  0  0  0  0
  1  2  1  0
  2  3  1  0
  2  4  1  0
  4  5  2  0
  5  6  1  0
  6  7  2  0
  7  8  1  0
  8  9  2  0
  9 10  1  0
 10 11  1  0
 11 12  1  0
 12 13  2  0
 12 14  1  0
 14 15  1  0
 15 16  1  0
 16 17  1  0
 17 18  1  0
 18 19  2  0
 19 20  1  0
 20 21  2  0
 21 22  1  0
 22 23  2  0
 23 24  1  0
 24 25  1  0
 10 26  2  0
 26 27  1  0
 27  4  1  0
 27  7  1  0
 25 14  1  0
 23 18  1  0
  1 28  1  0
  1 29  1  0
  1 30  1  0
  2 31  1  0
  3 32  1  0
  3 33  1  0
  3 34  1  0
  8 35  1  0
  9 36  1  0
 11 37  1  0
 15 38  1  0
 15 39  1  0
 16 40  1  0
 16 41  1  0
 17 42  1  0
 17 43  1  0
 19 44  1  0
 20 45  1  0
 21 46  1  0
 22 47  1  0
 24 48  1  0
 24 49  1  0
 25 50  1  0
 25 51  1  0
 26 52  1  0
M  END
>  <meeko>  (2) 
{"is_sidechain": [false], "free_energy": -6.9, "intermolecular_energy": -10.365, "internal_energy": -0.256}

$$$$
ligand_48_conformer_1_docked
     RDKit          3D

 52 55  0  0  0  0  0  0  0  0999 V2000
    9.7280   46.5100   53.4100 C   0  0  0  0  0  0  0  0  0  0  0  0
    9.4880   46.9460   51.9630 C   0  0  0  0  0  0  0  0  0  0  0  0
    8.4280   48.0520   51.8960 C   0  0  0  0  0  0  0  0  0  0  0  0
    9.0930   45.7550   51.1240 C   0  0  0  0  0  0  0  0  0  0  0  0
    9.9440   45.0590   50.3310 N   0  0  0  0  0  0  0  0  0  0  0  0
    9.2300   44.1430   49.6820 N   0  0  0  0  0  0  0  0  0  0  0  0
    7.9570   44.3090   50.0820 C   0  0  0  0  0  0  0  0  0  0  0  0
    6.8460   43.5890   49.6520 C   0  0  0  0  0  0  0  0  0  0  0  0
    5.5940   43.9550   50.1750 C   0  0  0  0  0  0  0  0  0  0  0  0
    5.4840   45.0280   51.0930 C   0  0  0  0  0  0  0  0  0  0  0  0
    4.2170   45.4290   51.6360 N   0  0  0  0  0  0  0  0  0  0  0  0
    3.8070   45.1330   52.9850 C   0  0  0  0  0  0  0  0  0  0  0  0
    4.6250   44.5880   53.7770 O   0  0  0  0  0  0  0  0  0  0  0  0
    2.4540   45.3940   53.4310 N   0  0  0  0  0  0  0  0  0  0  0  0
    1.3340   44.9880   52.5620 C   0  0  0  0  0  0  0  0  0  0  0  0
    1.0450   43.4790   52.5960 C   0  0  0  0  0  0  0  0  0  0  0  0
    0.2210   42.9620   53.8100 C   0  0  0  0  0  0  0  0  0  0  0  0
   -0.5360   43.9890   54.6450 C   0  0  0  0  0  0  0  0  0  0  0  0
   -1.9370   44.0490   54.5050 C   0  0  0  0  0  0  0  0  0  0  0  0
   -2.7030   44.8930   55.3100 C   0  0  0  0  0  0  0  0  0  0  0  0
   -2.0910   45.6760   56.2840 C   0  0  0  0  0  0  0  0  0  0  0  0
   -0.7070   45.6310   56.4460 C   0  0  0  0  0  0  0  0  0  0  0  0
    0.0870   44.8040   55.6310 C   0  0  0  0  0  0  0  0  0  0  0  0
    1.5900   44.9080   55.7460 C   0  0  0  0  0  0  0  0  0  0  0  0
    2.1960   45.9510   54.7750 C   0  0  0  0  0  0  0  0  0  0  0  0
    6.6530   45.6950   51.5040 C   0  0  0  0  0  0  0  0  0  0  0  0
    7.8360   45.3020   50.9700 N   0  0  0  0  0  0  0  0  0  0  0  0
    9.3126   47.2647   54.0940 H   0  0  0  0  0  0  0  0  0  0  0  0
    9.2352   45.5428   53.5881 H   0  0  0  0  0  0  0  0  0  0  0  0
   10.8088   46.4091   53.5881 H   0  0  0  0  0  0  0  0  0  0  0  0
   10.4226   47.3600   51.5567 H   0  0  0  0  0  0  0  0  0  0  0  0
    8.1432   48.3492   52.9161 H   0  0  0  0  0  0  0  0  0  0  0  0
    8.8386   48.9216   51.3619 H   0  0  0  0  0  0  0  0  0  0  0  0
    7.5418   47.6787   51.3619 H   0  0  0  0  0  0  0  0  0  0  0  0
    6.9443   42.7648   48.9302 H   0  0  0  0  0  0  0  0  0  0  0  0
    4.6925   43.4039   49.8691 H   0  0  0  0  0  0  0  0  0  0  0  0
    3.5030   45.7530   50.9500 H   0  0  0  0  0  0  0  0  0  0  0  0
    0.4296   45.5228   52.8876 H   0  0  0  0  0  0  0  0  0  0  0  0
    1.6192   45.2388   51.5296 H   0  0  0  0  0  0  0  0  0  0  0  0
    0.4902   43.2234   51.6812 H   0  0  0  0  0  0  0  0  0  0  0  0
    2.0286   42.9940   52.6813 H   0  0  0  0  0  0  0  0  0  0  0  0
   -0.5179   42.2447   53.4233 H   0  0  0  0  0  0  0  0  0  0  0  0
    0.9722   42.5458   54.4974 H   0  0  0  0  0  0  0  0  0  0  0  0
   -2.4338   43.4215   53.7504 H   0  0  0  0  0  0  0  0  0  0  0  0
   -3.7936   44.9395   55.1743 H   0  0  0  0  0  0  0  0  0  0  0  0
   -2.6990   46.3303   56.9260 H   0  0  0  0  0  0  0  0  0  0  0  0
   -0.2302   46.2497   57.2205 H   0  0  0  0  0  0  0  0  0  0  0  0
    1.8443   45.1977   56.7762 H   0  0  0  0  0  0  0  0  0  0  0  0
    2.0108   43.9265   55.4821 H   0  0  0  0  0  0  0  0  0  0  0  0
    1.4939   46.7923   54.6788 H   0  0  0  0  0  0  0  0  0  0  0  0
    3.1612   46.2735   55.1927 H   0  0  0  0  0  0  0  0  0  0  0  0
    6.6084   46.5128   52.2383 H   0  0  0  0  0  0  0  0  0  0  0  0
  1  2  1  0
  2  3  1  0
  2  4  1  0
  4  5  2  0
  5  6  1  0
  6  7  2  0
  7  8  1  0
  8  9  2  0
  9 10  1  0
 10 11  1  0
 11 12  1  0
 12 13  2  0
 12 14  1  0
 14 15  1  0
 15 16  1  0
 16 17  1  0
 17 18  1  0
 18 19  2  0
 19 20  1  0
 20 21  2  0
 21 22  1  0
 22 23  2  0
 23 24  1  0
 24 25  1  0
 10 26  2  0
 26 27  1  0
 27  4  1  0
 27  7  1  0
 25 14  1  0
 23 18  1  0
  1 28  1  0
  1 29  1  0
  1 30  1  0
  2 31  1  0
  3 32  1  0
  3 33  1  0
  3 34  1  0
  8 35  1  0
  9 36  1  0
 11 37  1  0
 15 38  1  0
 15 39  1  0
 16 40  1  0
 16 41  1  0
 17 42  1  0
 17 43  1  0
 19 44  1  0
 20 45  1  0
 21 46  1  0
 22 47  1  0
 24 48  1  0
 24 49  1  0
 25 50  1  0
 25 51  1  0
 26 52  1  0
M  END
>  <meeko>  (3) 
{"is_sidechain": [false], "free_energy": -6.654, "intermolecular_energy": -10.589, "internal_energy": 0.343}

$$$$
ligand_48_conformer_1_docked
     RDKit          3D

 52 55  0  0  0  0  0  0  0  0999 V2000
   -1.7250   44.2930   50.7220 C   0  0  0  0  0  0  0  0  0  0  0  0
   -1.6040   43.0500   51.6070 C   0  0  0  0  0  0  0  0  0  0  0  0
   -2.5170   41.9290   51.1010 C   0  0  0  0  0  0  0  0  0  0  0  0
   -1.9130   43.4070   53.0410 C   0  0  0  0  0  0  0  0  0  0  0  0
   -3.1520   43.3730   53.5910 N   0  0  0  0  0  0  0  0  0  0  0  0
   -3.0530   43.8340   54.8340 N   0  0  0  0  0  0  0  0  0  0  0  0
   -1.7590   44.1540   55.0130 C   0  0  0  0  0  0  0  0  0  0  0  0
   -1.1840   44.7000   56.1560 C   0  0  0  0  0  0  0  0  0  0  0  0
    0.1900   44.9940   56.1140 C   0  0  0  0  0  0  0  0  0  0  0  0
    0.9410   44.7520   54.9380 C   0  0  0  0  0  0  0  0  0  0  0  0
    2.3430   45.0520   54.8640 N   0  0  0  0  0  0  0  0  0  0  0  0
    2.9070   45.9560   53.8940 C   0  0  0  0  0  0  0  0  0  0  0  0
    2.1390   46.6070   53.1320 O   0  0  0  0  0  0  0  0  0  0  0  0
    4.3400   46.0890   53.7380 N   0  0  0  0  0  0  0  0  0  0  0  0
    5.0960   46.8290   54.7650 C   0  0  0  0  0  0  0  0  0  0  0  0
    6.5490   46.3520   54.9240 C   0  0  0  0  0  0  0  0  0  0  0  0
    7.6130   47.1760   54.1320 C   0  0  0  0  0  0  0  0  0  0  0  0
    8.1680   46.5930   52.8370 C   0  0  0  0  0  0  0  0  0  0  0  0
    9.5630   46.4240   52.7340 C   0  0  0  0  0  0  0  0  0  0  0  0
   10.1310   45.8040   51.6210 C   0  0  0  0  0  0  0  0  0  0  0  0
    9.3180   45.3190   50.6000 C   0  0  0  0  0  0  0  0  0  0  0  0
    7.9350   45.4690   50.6800 C   0  0  0  0  0  0  0  0  0  0  0  0
    7.3420   46.1110   51.7830 C   0  0  0  0  0  0  0  0  0  0  0  0
    5.8560   46.3800   51.7470 C   0  0  0  0  0  0  0  0  0  0  0  0
    5.0480   45.4030   52.6360 C   0  0  0  0  0  0  0  0  0  0  0  0
    0.3000   44.1740   53.8270 C   0  0  0  0  0  0  0  0  0  0  0  0
   -1.0270   43.9070   53.9200 N   0  0  0  0  0  0  0  0  0  0  0  0
   -1.8121   45.1876   51.3562 H   0  0  0  0  0  0  0  0  0  0  0  0
   -0.8310   44.3794   50.0869 H   0  0  0  0  0  0  0  0  0  0  0  0
   -2.6189   44.2053   50.0869 H   0  0  0  0  0  0  0  0  0  0  0  0
   -0.5700   42.6778   51.5584 H   0  0  0  0  0  0  0  0  0  0  0  0
   -2.9519   41.3950   51.9587 H   0  0  0  0  0  0  0  0  0  0  0  0
   -3.3238   42.3607   50.4904 H   0  0  0  0  0  0  0  0  0  0  0  0
   -1.9310   41.2263   50.4904 H   0  0  0  0  0  0  0  0  0  0  0  0
   -1.7819   44.8944   57.0586 H   0  0  0  0  0  0  0  0  0  0  0  0
    0.6855   45.4152   57.0012 H   0  0  0  0  0  0  0  0  0  0  0  0
    2.9780   44.4210   55.3960 H   0  0  0  0  0  0  0  0  0  0  0  0
    5.1079   47.8935   54.4882 H   0  0  0  0  0  0  0  0  0  0  0  0
    4.5917   46.6519   55.7264 H   0  0  0  0  0  0  0  0  0  0  0  0
    6.8076   46.4008   55.9920 H   0  0  0  0  0  0  0  0  0  0  0  0
    6.5819   45.3341   54.5083 H   0  0  0  0  0  0  0  0  0  0  0  0
    7.1539   48.1438   53.8819 H   0  0  0  0  0  0  0  0  0  0  0  0
    8.4820   47.2117   54.8055 H   0  0  0  0  0  0  0  0  0  0  0  0
   10.2139   46.7864   53.5433 H   0  0  0  0  0  0  0  0  0  0  0  0
   11.2236   45.6980   51.5498 H   0  0  0  0  0  0  0  0  0  0  0  0
    9.7675   44.8174   49.7303 H   0  0  0  0  0  0  0  0  0  0  0  0
    7.2988   45.0808   49.8709 H   0  0  0  0  0  0  0  0  0  0  0  0
    5.6759   47.4064   52.0991 H   0  0  0  0  0  0  0  0  0  0  0  0
    5.5189   46.2397   50.7094 H   0  0  0  0  0  0  0  0  0  0  0  0
    4.3065   44.8869   52.0084 H   0  0  0  0  0  0  0  0  0  0  0  0
    5.7605   44.6965   53.0869 H   0  0  0  0  0  0  0  0  0  0  0  0
    0.8594   43.9448   52.9080 H   0  0  0  0  0  0  0  0  0  0  0  0
  1  2  1  0
  2  3  1  0
  2  4  1  0
  4  5  2  0
  5  6  1  0
  6  7  2  0
  7  8  1  0
  8  9  2  0
  9 10  1  0
 10 11  1  0
 11 12  1  0
 12 13  2  0
 12 14  1  0
 14 15  1  0
 15 16  1  0
 16 17  1  0
 17 18  1  0
 18 19  2  0
 19 20  1  0
 20 21  2  0
 21 22  1  0
 22 23  2  0
 23 24  1  0
 24 25  1  0
 10 26  2  0
 26 27  1  0
 27  4  1  0
 27  7  1  0
 25 14  1  0
 23 18  1  0
  1 28  1  0
  1 29  1  0
  1 30  1  0
  2 31  1  0
  3 32  1  0
  3 33  1  0
  3 34  1  0
  8 35  1  0
  9 36  1  0
 11 37  1  0
 15 38  1  0
 15 39  1  0
 16 40  1  0
 16 41  1  0
 17 42  1  0
 17 43  1  0
 19 44  1  0
 20 45  1  0
 21 46  1  0
 22 47  1  0
 24 48  1  0
 24 49  1  0
 25 50  1  0
 25 51  1  0
 26 52  1  0
M  END
>  <meeko>  (4) 
{"is_sidechain": [false], "free_energy": -6.613, "intermolecular_energy": -10.302, "internal_energy": 0.118}

$$$$
ligand_48_conformer_1_docked
     RDKit          3D

 52 55  0  0  0  0  0  0  0  0999 V2000
   -3.0810   44.3380   57.7620 C   0  0  0  0  0  0  0  0  0  0  0  0
   -2.5770   45.2940   56.6770 C   0  0  0  0  0  0  0  0  0  0  0  0
   -3.4150   46.5770   56.6480 C   0  0  0  0  0  0  0  0  0  0  0  0
   -2.5830   44.6020   55.3360 C   0  0  0  0  0  0  0  0  0  0  0  0
   -3.6610   43.9790   54.7990 N   0  0  0  0  0  0  0  0  0  0  0  0
   -3.2710   43.4120   53.6610 N   0  0  0  0  0  0  0  0  0  0  0  0
   -1.9610   43.6880   53.5340 C   0  0  0  0  0  0  0  0  0  0  0  0
   -1.1170   43.2790   52.5070 C   0  0  0  0  0  0  0  0  0  0  0  0
    0.2360   43.6500   52.5920 C   0  0  0  0  0  0  0  0  0  0  0  0
    0.7080   44.3990   53.6980 C   0  0  0  0  0  0  0  0  0  0  0  0
    2.0860   44.7840   53.8150 N   0  0  0  0  0  0  0  0  0  0  0  0
    2.6160   46.0000   53.2550 C   0  0  0  0  0  0  0  0  0  0  0  0
    1.8310   46.8330   52.7230 O   0  0  0  0  0  0  0  0  0  0  0  0
    4.0410   46.2590   53.2390 N   0  0  0  0  0  0  0  0  0  0  0  0
    4.6400   46.8280   52.0170 C   0  0  0  0  0  0  0  0  0  0  0  0
    5.0220   45.7700   50.9690 C   0  0  0  0  0  0  0  0  0  0  0  0
    6.4580   45.1800   51.1360 C   0  0  0  0  0  0  0  0  0  0  0  0
    7.4290   45.8890   52.0720 C   0  0  0  0  0  0  0  0  0  0  0  0
    8.5370   46.5450   51.5000 C   0  0  0  0  0  0  0  0  0  0  0  0
    9.4100   47.2990   52.2850 C   0  0  0  0  0  0  0  0  0  0  0  0
    9.1830   47.4320   53.6510 C   0  0  0  0  0  0  0  0  0  0  0  0
    8.0910   46.7970   54.2420 C   0  0  0  0  0  0  0  0  0  0  0  0
    7.2110   46.0150   53.4720 C   0  0  0  0  0  0  0  0  0  0  0  0
    6.1350   45.2280   54.1860 C   0  0  0  0  0  0  0  0  0  0  0  0
    4.8590   46.0640   54.4530 C   0  0  0  0  0  0  0  0  0  0  0  0
   -0.2080   44.8010   54.6880 C   0  0  0  0  0  0  0  0  0  0  0  0
   -1.5020   44.4180   54.5570 N   0  0  0  0  0  0  0  0  0  0  0  0
   -2.8590   44.7591   58.7537 H   0  0  0  0  0  0  0  0  0  0  0  0
   -4.1675   44.2030   57.6558 H   0  0  0  0  0  0  0  0  0  0  0  0
   -2.5785   43.3653   57.6558 H   0  0  0  0  0  0  0  0  0  0  0  0
   -1.5418   45.5831   56.9112 H   0  0  0  0  0  0  0  0  0  0  0  0
   -3.6262   46.9004   57.6780 H   0  0  0  0  0  0  0  0  0  0  0  0
   -2.8582   47.3669   56.1226 H   0  0  0  0  0  0  0  0  0  0  0  0
   -4.3621   46.3846   56.1226 H   0  0  0  0  0  0  0  0  0  0  0  0
   -1.4943   42.6873   51.6599 H   0  0  0  0  0  0  0  0  0  0  0  0
    0.9337   43.3566   51.7938 H   0  0  0  0  0  0  0  0  0  0  0  0
    2.7460   44.0420   54.1310 H   0  0  0  0  0  0  0  0  0  0  0  0
    3.9150   47.5202   51.5641 H   0  0  0  0  0  0  0  0  0  0  0  0
    5.5691   47.3338   52.3184 H   0  0  0  0  0  0  0  0  0  0  0  0
    4.3007   44.9424   51.0380 H   0  0  0  0  0  0  0  0  0  0  0  0
    5.0043   46.2768   49.9929 H   0  0  0  0  0  0  0  0  0  0  0  0
    6.3453   44.1496   51.5042 H   0  0  0  0  0  0  0  0  0  0  0  0
    6.9129   45.2906   50.1406 H   0  0  0  0  0  0  0  0  0  0  0  0
    8.7165   46.4614   50.4180 H   0  0  0  0  0  0  0  0  0  0  0  0
   10.2795   47.7892   51.8228 H   0  0  0  0  0  0  0  0  0  0  0  0
    9.8651   48.0382   54.2652 H   0  0  0  0  0  0  0  0  0  0  0  0
    7.9159   46.9089   55.3222 H   0  0  0  0  0  0  0  0  0  0  0  0
    5.8639   44.3606   53.5662 H   0  0  0  0  0  0  0  0  0  0  0  0
    6.5405   44.9210   55.1613 H   0  0  0  0  0  0  0  0  0  0  0  0
    4.2501   45.5453   55.2081 H   0  0  0  0  0  0  0  0  0  0  0  0
    5.1793   47.0572   54.8009 H   0  0  0  0  0  0  0  0  0  0  0  0
    0.1171   45.4094   55.5448 H   0  0  0  0  0  0  0  0  0  0  0  0
  1  2  1  0
  2  3  1  0
  2  4  1  0
  4  5  2  0
  5  6  1  0
  6  7  2  0
  7  8  1  0
  8  9  2  0
  9 10  1  0
 10 11  1  0
 11 12  1  0
 12 13  2  0
 12 14  1  0
 14 15  1  0
 15 16  1  0
 16 17  1  0
 17 18  1  0
 18 19  2  0
 19 20  1  0
 20 21  2  0
 21 22  1  0
 22 23  2  0
 23 24  1  0
 24 25  1  0
 10 26  2  0
 26 27  1  0
 27  4  1  0
 27  7  1  0
 25 14  1  0
 23 18  1  0
  1 28  1  0
  1 29  1  0
  1 30  1  0
  2 31  1  0
  3 32  1  0
  3 33  1  0
  3 34  1  0
  8 35  1  0
  9 36  1  0
 11 37  1  0
 15 38  1  0
 15 39  1  0
 16 40  1  0
 16 41  1  0
 17 42  1  0
 17 43  1  0
 19 44  1  0
 20 45  1  0
 21 46  1  0
 22 47  1  0
 24 48  1  0
 24 49  1  0
 25 50  1  0
 25 51  1  0
 26 52  1  0
M  END
>  <meeko>  (5) 
{"is_sidechain": [false], "free_energy": -6.505, "intermolecular_energy": -10.016, "internal_energy": -0.002}

$$$$
