MODEL 1
REMARK VINA RESULT:    -9.548      0.000      0.000
REMARK INTER + INTRA:         -13.954
REMARK INTER:                 -12.898
REMARK INTRA:                  -1.057
REMARK UNBOUND:                -1.057
REMARK SMILES C[C@@H](C(=O)NC1(Cc2ccccc2)CCC1)n1ccc(C(F)(F)F)n1
REMARK SMILES IDX 3 1 4 2 5 3 2 5 1 6 17 7 18 8 25 9 19 10 20 11 21 12 22 13
REMARK SMILES IDX 23 14 24 15 6 16 14 17 16 18 15 19 7 20 8 21 9 22 13 23
REMARK SMILES IDX 10 24 12 25 11 26
REMARK H PARENT 5 4
ROOT
ATOM      1  C   UNL     1       5.874  46.756  53.900  1.00  0.00     0.245 C 
ATOM      2  O   UNL     1       5.700  47.921  53.449  1.00  0.00    -0.273 OA
ATOM      3  N   UNL     1       7.092  46.043  53.626  1.00  0.00    -0.348 N 
ATOM      4  H   UNL     1       7.236  45.126  54.105  1.00  0.00     0.164 HD
ENDROOT
BRANCH   1   5
ATOM      5  C   UNL     1       4.814  46.133  54.767  1.00  0.00     0.193 C 
ATOM      6  C   UNL     1       5.416  45.078  55.703  1.00  0.00     0.044 C 
BRANCH   5   7
ATOM      7  N   UNL     1       3.771  45.546  53.922  1.00  0.00    -0.260 N 
ATOM      8  C   UNL     1       2.686  46.192  53.449  1.00  0.00     0.110 A 
ATOM      9  N   UNL     1       3.810  44.315  53.434  1.00  0.00    -0.168 NA
ATOM     10  C   UNL     1       1.982  45.328  52.637  1.00  0.00     0.055 A 
ATOM     11  C   UNL     1       2.729  44.163  52.645  1.00  0.00     0.166 A 
BRANCH  11  12
ATOM     12  C   UNL     1       2.389  42.893  51.933  1.00  0.00     0.435 C 
ATOM     13  F   UNL     1       2.049  43.167  50.620  1.00  0.00    -0.164 F 
ATOM     14  F   UNL     1       1.320  42.272  52.552  1.00  0.00    -0.164 F 
ATOM     15  F   UNL     1       3.485  42.048  51.953  1.00  0.00    -0.164 F 
ENDBRANCH  11  12
ENDBRANCH   5   7
ENDBRANCH   1   5
BRANCH   3  16
ATOM     16  C   UNL     1       8.203  46.570  52.812  1.00  0.00     0.044 C 
ATOM     17  C   UNL     1       8.765  47.867  53.416  1.00  0.00     0.029 C 
ATOM     18  C   UNL     1       9.554  45.886  53.084  1.00  0.00     0.029 C 
ATOM     19  C   UNL     1      10.100  47.181  53.667  1.00  0.00     0.005 C 
BRANCH  16  20
ATOM     20  C   UNL     1       7.830  46.748  51.318  1.00  0.00     0.063 C 
BRANCH  20  21
ATOM     21  C   UNL     1       7.439  45.461  50.637  1.00  0.00    -0.046 A 
ATOM     22  C   UNL     1       8.365  44.759  49.846  1.00  0.00     0.004 A 
ATOM     23  C   UNL     1       6.139  44.946  50.790  1.00  0.00     0.004 A 
ATOM     24  C   UNL     1       8.000  43.558  49.228  1.00  0.00     0.000 A 
ATOM     25  C   UNL     1       5.774  43.752  50.158  1.00  0.00     0.000 A 
ATOM     26  C   UNL     1       6.705  43.055  49.385  1.00  0.00     0.000 A 
ENDBRANCH  20  21
ENDBRANCH  16  20
ENDBRANCH   3  16
TORSDOF 6
ENDMDL
MODEL 2
REMARK VINA RESULT:    -8.781      3.063      5.752
REMARK INTER + INTRA:         -12.918
REMARK INTER:                 -12.159
REMARK INTRA:                  -0.758
REMARK UNBOUND:                -1.057
REMARK SMILES C[C@@H](C(=O)NC1(Cc2ccccc2)CCC1)n1ccc(C(F)(F)F)n1
REMARK SMILES IDX 3 1 4 2 5 3 2 5 1 6 17 7 18 8 25 9 19 10 20 11 21 12 22 13
REMARK SMILES IDX 23 14 24 15 6 16 14 17 16 18 15 19 7 20 8 21 9 22 13 23
REMARK SMILES IDX 10 24 12 25 11 26
REMARK H PARENT 5 4
ROOT
ATOM      1  C   UNL     1       3.407  45.326  53.468  1.00  0.00     0.245 C 
ATOM      2  O   UNL     1       3.416  44.642  54.528  1.00  0.00    -0.273 OA
ATOM      3  N   UNL     1       2.981  44.739  52.226  1.00  0.00    -0.348 N 
ATOM      4  H   UNL     1       2.890  45.369  51.398  1.00  0.00     0.164 HD
ENDROOT
BRANCH   1   5
ATOM      5  C   UNL     1       3.801  46.777  53.521  1.00  0.00     0.193 C 
ATOM      6  C   UNL     1       3.194  47.557  52.348  1.00  0.00     0.044 C 
BRANCH   5   7
ATOM      7  N   UNL     1       5.261  46.890  53.522  1.00  0.00    -0.260 N 
ATOM      8  C   UNL     1       6.059  46.764  54.601  1.00  0.00     0.110 A 
ATOM      9  N   UNL     1       5.999  47.040  52.432  1.00  0.00    -0.168 NA
ATOM     10  C   UNL     1       7.372  46.861  54.189  1.00  0.00     0.055 A 
ATOM     11  C   UNL     1       7.290  47.023  52.818  1.00  0.00     0.166 A 
BRANCH  11  12
ATOM     12  C   UNL     1       8.442  47.201  51.881  1.00  0.00     0.435 C 
ATOM     13  F   UNL     1       8.358  46.277  50.854  1.00  0.00    -0.164 F 
ATOM     14  F   UNL     1       9.636  47.015  52.554  1.00  0.00    -0.164 F 
ATOM     15  F   UNL     1       8.408  48.478  51.350  1.00  0.00    -0.164 F 
ENDBRANCH  11  12
ENDBRANCH   5   7
ENDBRANCH   1   5
BRANCH   3  16
ATOM     16  C   UNL     1       2.551  43.338  52.070  1.00  0.00     0.044 C 
ATOM     17  C   UNL     1       1.425  42.991  53.057  1.00  0.00     0.029 C 
ATOM     18  C   UNL     1       1.569  43.113  50.908  1.00  0.00     0.029 C 
ATOM     19  C   UNL     1       0.468  42.759  51.896  1.00  0.00     0.005 C 
BRANCH  16  20
ATOM     20  C   UNL     1       3.724  42.328  52.161  1.00  0.00     0.063 C 
BRANCH  20  21
ATOM     21  C   UNL     1       4.720  42.458  51.036  1.00  0.00    -0.046 A 
ATOM     22  C   UNL     1       5.542  43.594  50.935  1.00  0.00     0.004 A 
ATOM     23  C   UNL     1       4.838  41.438  50.075  1.00  0.00     0.004 A 
ATOM     24  C   UNL     1       6.473  43.701  49.896  1.00  0.00     0.000 A 
ATOM     25  C   UNL     1       5.762  41.557  49.030  1.00  0.00     0.000 A 
ATOM     26  C   UNL     1       6.583  42.682  48.945  1.00  0.00     0.000 A 
ENDBRANCH  20  21
ENDBRANCH  16  20
ENDBRANCH   3  16
TORSDOF 6
ENDMDL
MODEL 3
REMARK VINA RESULT:    -8.565      2.332      4.376
REMARK INTER + INTRA:         -12.626
REMARK INTER:                 -11.537
REMARK INTRA:                  -1.089
REMARK UNBOUND:                -1.057
REMARK SMILES C[C@@H](C(=O)NC1(Cc2ccccc2)CCC1)n1ccc(C(F)(F)F)n1
REMARK SMILES IDX 3 1 4 2 5 3 2 5 1 6 17 7 18 8 25 9 19 10 20 11 21 12 22 13
REMARK SMILES IDX 23 14 24 15 6 16 14 17 16 18 15 19 7 20 8 21 9 22 13 23
REMARK SMILES IDX 10 24 12 25 11 26
REMARK H PARENT 5 4
ROOT
ATOM      1  C   UNL     1       3.389  45.622  52.222  1.00  0.00     0.245 C 
ATOM      2  O   UNL     1       2.882  46.720  52.579  1.00  0.00    -0.273 OA
ATOM      3  N   UNL     1       4.615  45.158  52.814  1.00  0.00    -0.348 N 
ATOM      4  H   UNL     1       4.941  44.198  52.564  1.00  0.00     0.164 HD
ENDROOT
BRANCH   1   5
ATOM      5  C   UNL     1       2.677  44.776  51.202  1.00  0.00     0.193 C 
ATOM      6  C   UNL     1       1.260  44.421  51.671  1.00  0.00     0.044 C 
BRANCH   5   7
ATOM      7  N   UNL     1       3.456  43.565  50.936  1.00  0.00    -0.260 N 
ATOM      8  C   UNL     1       3.041  42.300  51.148  1.00  0.00     0.110 A 
ATOM      9  N   UNL     1       4.649  43.556  50.360  1.00  0.00    -0.168 NA
ATOM     10  C   UNL     1       4.023  41.437  50.709  1.00  0.00     0.055 A 
ATOM     11  C   UNL     1       5.012  42.267  50.210  1.00  0.00     0.166 A 
BRANCH  11  12
ATOM     12  C   UNL     1       6.319  41.831  49.629  1.00  0.00     0.435 C 
ATOM     13  F   UNL     1       7.108  42.938  49.369  1.00  0.00    -0.164 F 
ATOM     14  F   UNL     1       6.108  41.144  48.447  1.00  0.00    -0.164 F 
ATOM     15  F   UNL     1       6.970  41.007  50.529  1.00  0.00    -0.164 F 
ENDBRANCH  11  12
ENDBRANCH   5   7
ENDBRANCH   1   5
BRANCH   3  16
ATOM     16  C   UNL     1       5.378  45.895  53.837  1.00  0.00     0.044 C 
ATOM     17  C   UNL     1       4.503  46.207  55.062  1.00  0.00     0.029 C 
ATOM     18  C   UNL     1       6.258  44.998  54.725  1.00  0.00     0.029 C 
ATOM     19  C   UNL     1       5.390  45.327  55.930  1.00  0.00     0.005 C 
BRANCH  16  20
ATOM     20  C   UNL     1       6.064  47.170  53.284  1.00  0.00     0.063 C 
BRANCH  20  21
ATOM     21  C   UNL     1       7.521  46.974  52.949  1.00  0.00    -0.046 A 
ATOM     22  C   UNL     1       8.524  47.439  53.819  1.00  0.00     0.004 A 
ATOM     23  C   UNL     1       7.893  46.318  51.762  1.00  0.00     0.004 A 
ATOM     24  C   UNL     1       9.874  47.241  53.509  1.00  0.00     0.000 A 
ATOM     25  C   UNL     1       9.245  46.135  51.450  1.00  0.00     0.000 A 
ATOM     26  C   UNL     1      10.234  46.588  52.326  1.00  0.00     0.000 A 
ENDBRANCH  20  21
ENDBRANCH  16  20
ENDBRANCH   3  16
TORSDOF 6
ENDMDL
MODEL 4
REMARK VINA RESULT:    -8.037      1.703      3.670
REMARK INTER + INTRA:         -11.913
REMARK INTER:                 -11.020
REMARK INTRA:                  -0.893
REMARK UNBOUND:                -1.057
REMARK SMILES C[C@@H](C(=O)NC1(Cc2ccccc2)CCC1)n1ccc(C(F)(F)F)n1
REMARK SMILES IDX 3 1 4 2 5 3 2 5 1 6 17 7 18 8 25 9 19 10 20 11 21 12 22 13
REMARK SMILES IDX 23 14 24 15 6 16 14 17 16 18 15 19 7 20 8 21 9 22 13 23
REMARK SMILES IDX 10 24 12 25 11 26
REMARK H PARENT 5 4
ROOT
ATOM      1  C   UNL     1       4.518  46.284  53.539  1.00  0.00     0.245 C 
ATOM      2  O   UNL     1       4.058  47.270  52.899  1.00  0.00    -0.273 OA
ATOM      3  N   UNL     1       5.465  45.393  52.924  1.00  0.00    -0.348 N 
ATOM      4  H   UNL     1       5.896  44.655  53.524  1.00  0.00     0.164 HD
ENDROOT
BRANCH   1   5
ATOM      5  C   UNL     1       4.103  46.073  54.970  1.00  0.00     0.193 C 
ATOM      6  C   UNL     1       5.178  45.307  55.749  1.00  0.00     0.044 C 
BRANCH   5   7
ATOM      7  N   UNL     1       2.823  45.362  55.010  1.00  0.00    -0.260 N 
ATOM      8  C   UNL     1       1.840  45.563  55.909  1.00  0.00     0.110 A 
ATOM      9  N   UNL     1       2.428  44.484  54.100  1.00  0.00    -0.168 NA
ATOM     10  C   UNL     1       0.770  44.759  55.576  1.00  0.00     0.055 A 
ATOM     11  C   UNL     1       1.176  44.106  54.426  1.00  0.00     0.166 A 
BRANCH  11  12
ATOM     12  C   UNL     1       0.387  43.091  53.662  1.00  0.00     0.435 C 
ATOM     13  F   UNL     1       0.409  43.399  52.313  1.00  0.00    -0.164 F 
ATOM     14  F   UNL     1      -0.926  43.084  54.097  1.00  0.00    -0.164 F 
ATOM     15  F   UNL     1       0.942  41.838  53.853  1.00  0.00    -0.164 F 
ENDBRANCH  11  12
ENDBRANCH   5   7
ENDBRANCH   1   5
BRANCH   3  16
ATOM     16  C   UNL     1       5.956  45.524  51.540  1.00  0.00     0.044 C 
ATOM     17  C   UNL     1       6.728  44.267  51.106  1.00  0.00     0.029 C 
ATOM     18  C   UNL     1       4.896  45.213  50.470  1.00  0.00     0.029 C 
ATOM     19  C   UNL     1       5.677  43.980  50.043  1.00  0.00     0.005 C 
BRANCH  16  20
ATOM     20  C   UNL     1       6.785  46.814  51.309  1.00  0.00     0.063 C 
BRANCH  20  21
ATOM     21  C   UNL     1       7.997  46.920  52.200  1.00  0.00    -0.046 A 
ATOM     22  C   UNL     1       7.912  47.558  53.450  1.00  0.00     0.004 A 
ATOM     23  C   UNL     1       9.227  46.377  51.789  1.00  0.00     0.004 A 
ATOM     24  C   UNL     1       9.037  47.640  54.277  1.00  0.00     0.000 A 
ATOM     25  C   UNL     1      10.353  46.474  52.614  1.00  0.00     0.000 A 
ATOM     26  C   UNL     1      10.256  47.098  53.860  1.00  0.00     0.000 A 
ENDBRANCH  20  21
ENDBRANCH  16  20
ENDBRANCH   3  16
TORSDOF 6
ENDMDL
MODEL 5
REMARK VINA RESULT:    -8.035      2.959      4.171
REMARK INTER + INTRA:         -11.910
REMARK INTER:                 -11.205
REMARK INTRA:                  -0.705
REMARK UNBOUND:                -1.057
REMARK SMILES C[C@@H](C(=O)NC1(Cc2ccccc2)CCC1)n1ccc(C(F)(F)F)n1
REMARK SMILES IDX 3 1 4 2 5 3 2 5 1 6 17 7 18 8 25 9 19 10 20 11 21 12 22 13
REMARK SMILES IDX 23 14 24 15 6 16 14 17 16 18 15 19 7 20 8 21 9 22 13 23
REMARK SMILES IDX 10 24 12 25 11 26
REMARK H PARENT 5 4
ROOT
ATOM      1  C   UNL     1       2.952  44.442  52.462  1.00  0.00     0.245 C 
ATOM      2  O   UNL     1       2.560  45.358  51.688  1.00  0.00    -0.273 OA
ATOM      3  N   UNL     1       4.230  44.536  53.114  1.00  0.00    -0.348 N 
ATOM      4  H   UNL     1       4.467  43.809  53.825  1.00  0.00     0.164 HD
ENDROOT
BRANCH   1   5
ATOM      5  C   UNL     1       2.050  43.269  52.735  1.00  0.00     0.193 C 
ATOM      6  C   UNL     1       1.482  42.695  51.432  1.00  0.00     0.044 C 
BRANCH   5   7
ATOM      7  N   UNL     1       0.972  43.678  53.638  1.00  0.00    -0.260 N 
ATOM      8  C   UNL     1      -0.339  43.415  53.467  1.00  0.00     0.110 A 
ATOM      9  N   UNL     1       1.161  44.285  54.800  1.00  0.00    -0.168 NA
ATOM     10  C   UNL     1      -1.029  43.897  54.559  1.00  0.00     0.055 A 
ATOM     11  C   UNL     1      -0.048  44.425  55.379  1.00  0.00     0.166 A 
BRANCH  11  12
ATOM     12  C   UNL     1      -0.268  45.101  56.695  1.00  0.00     0.435 C 
ATOM     13  F   UNL     1       0.832  44.906  57.511  1.00  0.00    -0.164 F 
ATOM     14  F   UNL     1      -1.386  44.576  57.318  1.00  0.00    -0.164 F 
ATOM     15  F   UNL     1      -0.450  46.457  56.490  1.00  0.00    -0.164 F 
ENDBRANCH  11  12
ENDBRANCH   5   7
ENDBRANCH   1   5
BRANCH   3  16
ATOM     16  C   UNL     1       5.177  45.652  52.937  1.00  0.00     0.044 C 
ATOM     17  C   UNL     1       4.784  46.855  53.809  1.00  0.00     0.029 C 
ATOM     18  C   UNL     1       6.469  45.509  53.759  1.00  0.00     0.029 C 
ATOM     19  C   UNL     1       6.073  46.710  54.605  1.00  0.00     0.005 C 
BRANCH  16  20
ATOM     20  C   UNL     1       5.368  46.057  51.453  1.00  0.00     0.063 C 
BRANCH  20  21
ATOM     21  C   UNL     1       6.273  45.127  50.685  1.00  0.00    -0.046 A 
ATOM     22  C   UNL     1       5.806  43.878  50.243  1.00  0.00     0.004 A 
ATOM     23  C   UNL     1       7.598  45.504  50.401  1.00  0.00     0.004 A 
ATOM     24  C   UNL     1       6.647  43.025  49.519  1.00  0.00     0.000 A 
ATOM     25  C   UNL     1       8.440  44.642  49.689  1.00  0.00     0.000 A 
ATOM     26  C   UNL     1       7.963  43.408  49.241  1.00  0.00     0.000 A 
ENDBRANCH  20  21
ENDBRANCH  16  20
ENDBRANCH   3  16
TORSDOF 6
ENDMDL
