ligand_7_conformer_5_docked
     RDKit          3D

 46 48  0  0  0  0  0  0  0  0999 V2000
    5.0030   46.5360   51.8160 O   0  0  0  0  0  0  0  0  0  0  0  0
    5.8780   45.6400   51.9580 C   0  0  0  0  0  0  0  0  0  0  0  0
    6.8720   45.7550   52.9850 N   0  0  0  0  0  0  0  0  0  0  0  0
    7.0080   46.9470   53.8210 C   0  0  0  0  0  0  0  0  0  0  0  0
    8.0880   47.9060   53.2660 C   0  0  0  0  0  0  0  0  0  0  0  0
    9.2200   48.1540   54.2830 C   0  0  0  0  0  0  0  0  0  0  0  0
   10.1240   46.9100   54.4540 C   0  0  0  0  0  0  0  0  0  0  0  0
    9.9680   45.9470   53.4230 O   0  0  0  0  0  0  0  0  0  0  0  0
    9.9760   46.5740   52.1570 C   0  0  0  0  0  0  0  0  0  0  0  0
    8.6810   47.3770   51.9380 C   0  0  0  0  0  0  0  0  0  0  0  0
    5.8400   44.4520   51.0820 C   0  0  0  0  0  0  0  0  0  0  0  0
    6.7980   44.3340   50.0680 C   0  0  0  0  0  0  0  0  0  0  0  0
    6.7770   43.2720   49.2260 N   0  0  0  0  0  0  0  0  0  0  0  0
    5.8320   42.3020   49.3430 C   0  0  0  0  0  0  0  0  0  0  0  0
    5.8290   41.1690   48.4640 N   0  0  0  0  0  0  0  0  0  0  0  0
    5.0500   41.0840   47.2570 C   0  0  0  0  0  0  0  0  0  0  0  0
    5.4720   41.7050   46.0670 C   0  0  0  0  0  0  0  0  0  0  0  0
    4.6840   41.6290   44.9140 C   0  0  0  0  0  0  0  0  0  0  0  0
    3.4650   40.9480   44.9430 C   0  0  0  0  0  0  0  0  0  0  0  0
    3.0270   40.3480   46.1270 C   0  0  0  0  0  0  0  0  0  0  0  0
    3.8120   40.4230   47.2810 C   0  0  0  0  0  0  0  0  0  0  0  0
    4.9170   42.3740   50.3440 N   0  0  0  0  0  0  0  0  0  0  0  0
    4.8940   43.4100   51.2270 C   0  0  0  0  0  0  0  0  0  0  0  0
    3.8530   43.3880   52.3200 C   0  0  0  0  0  0  0  0  0  0  0  0
    3.3220   42.1150   52.4410 F   0  0  0  0  0  0  0  0  0  0  0  0
    2.8290   44.2600   52.0080 F   0  0  0  0  0  0  0  0  0  0  0  0
    4.4070   43.7390   53.5390 F   0  0  0  0  0  0  0  0  0  0  0  0
    7.5240   44.9570   53.1550 H   0  0  0  0  0  0  0  0  0  0  0  0
    6.0431   47.4743   53.8521 H   0  0  0  0  0  0  0  0  0  0  0  0
    7.3122   46.6296   54.8293 H   0  0  0  0  0  0  0  0  0  0  0  0
    7.5855   48.8655   53.0740 H   0  0  0  0  0  0  0  0  0  0  0  0
    9.8355   48.9954   53.9320 H   0  0  0  0  0  0  0  0  0  0  0  0
    8.7605   48.3783   55.2569 H   0  0  0  0  0  0  0  0  0  0  0  0
   11.1729   47.2413   54.4643 H   0  0  0  0  0  0  0  0  0  0  0  0
    9.8288   46.4243   55.3958 H   0  0  0  0  0  0  0  0  0  0  0  0
   10.8376   47.2553   52.0971 H   0  0  0  0  0  0  0  0  0  0  0  0
   10.0468   45.7991   51.3795 H   0  0  0  0  0  0  0  0  0  0  0  0
    8.9016   48.2328   51.2831 H   0  0  0  0  0  0  0  0  0  0  0  0
    7.9399   46.7039   51.4823 H   0  0  0  0  0  0  0  0  0  0  0  0
    7.5719   45.1073   49.9540 H   0  0  0  0  0  0  0  0  0  0  0  0
    6.4940   40.3910   48.6750 H   0  0  0  0  0  0  0  0  0  0  0  0
    6.4257   42.2526   46.0434 H   0  0  0  0  0  0  0  0  0  0  0  0
    5.0247   42.1061   43.9833 H   0  0  0  0  0  0  0  0  0  0  0  0
    2.8493   40.8838   44.0337 H   0  0  0  0  0  0  0  0  0  0  0  0
    2.0642   39.8166   46.1506 H   0  0  0  0  0  0  0  0  0  0  0  0
    3.4573   39.9610   48.2141 H   0  0  0  0  0  0  0  0  0  0  0  0
  1  2  2  0
  2  3  1  0
  3  4  1  0
  4  5  1  0
  5  6  1  0
  6  7  1  0
  7  8  1  0
  8  9  1  0
  9 10  1  0
  2 11  1  0
 11 12  2  0
 12 13  1  0
 13 14  2  0
 14 15  1  0
 15 16  1  0
 16 17  2  0
 17 18  1  0
 18 19  2  0
 19 20  1  0
 20 21  2  0
 14 22  1  0
 22 23  2  0
 23 24  1  0
 24 25  1  0
 24 26  1  0
 24 27  1  0
 10  5  1  0
 23 11  1  0
 21 16  1  0
  3 28  1  0
  4 29  1  0
  4 30  1  0
  5 31  1  0
  6 32  1  0
  6 33  1  0
  7 34  1  0
  7 35  1  0
  9 36  1  0
  9 37  1  0
 10 38  1  0
 10 39  1  0
 12 40  1  0
 15 41  1  0
 17 42  1  0
 18 43  1  0
 19 44  1  0
 20 45  1  0
 21 46  1  0
M  END
>  <meeko>  (1) 
{"is_sidechain": [false], "free_energy": -9.082, "intermolecular_energy": -12.268, "internal_energy": -0.769}

$$$$
ligand_7_conformer_5_docked
     RDKit          3D

 46 48  0  0  0  0  0  0  0  0999 V2000
    1.8410   42.7040   50.4530 O   0  0  0  0  0  0  0  0  0  0  0  0
    2.5220   43.1260   51.4260 C   0  0  0  0  0  0  0  0  0  0  0  0
    2.0760   42.9030   52.7710 N   0  0  0  0  0  0  0  0  0  0  0  0
    0.7790   42.3060   53.0840 C   0  0  0  0  0  0  0  0  0  0  0  0
   -0.0150   43.1750   54.0890 C   0  0  0  0  0  0  0  0  0  0  0  0
    0.7730   44.4290   54.5170 C   0  0  0  0  0  0  0  0  0  0  0  0
    0.8620   45.4710   53.3770 C   0  0  0  0  0  0  0  0  0  0  0  0
   -0.0640   45.2450   52.3250 O   0  0  0  0  0  0  0  0  0  0  0  0
   -1.3480   44.9770   52.8480 C   0  0  0  0  0  0  0  0  0  0  0  0
   -1.3900   43.5890   53.5120 C   0  0  0  0  0  0  0  0  0  0  0  0
    3.8010   43.8130   51.1650 C   0  0  0  0  0  0  0  0  0  0  0  0
    3.8820   45.1920   51.3930 C   0  0  0  0  0  0  0  0  0  0  0  0
    5.0330   45.8620   51.1360 N   0  0  0  0  0  0  0  0  0  0  0  0
    6.1280   45.2180   50.6560 C   0  0  0  0  0  0  0  0  0  0  0  0
    7.3500   45.9290   50.4080 N   0  0  0  0  0  0  0  0  0  0  0  0
    8.2480   46.3770   51.4390 C   0  0  0  0  0  0  0  0  0  0  0  0
    9.5910   45.9610   51.4730 C   0  0  0  0  0  0  0  0  0  0  0  0
   10.4370   46.3910   52.5000 C   0  0  0  0  0  0  0  0  0  0  0  0
    9.9470   47.2250   53.5080 C   0  0  0  0  0  0  0  0  0  0  0  0
    8.6080   47.6250   53.4950 C   0  0  0  0  0  0  0  0  0  0  0  0
    7.7600   47.1960   52.4690 C   0  0  0  0  0  0  0  0  0  0  0  0
    6.0860   43.8740   50.4650 N   0  0  0  0  0  0  0  0  0  0  0  0
    4.9640   43.1450   50.7140 C   0  0  0  0  0  0  0  0  0  0  0  0
    5.0250   41.6520   50.4940 C   0  0  0  0  0  0  0  0  0  0  0  0
    6.3430   41.2460   50.3770 F   0  0  0  0  0  0  0  0  0  0  0  0
    4.3610   41.3240   49.3280 F   0  0  0  0  0  0  0  0  0  0  0  0
    4.4590   40.9720   51.5580 F   0  0  0  0  0  0  0  0  0  0  0  0
    2.7010   43.1670   53.5650 H   0  0  0  0  0  0  0  0  0  0  0  0
    0.1963   42.2093   52.1561 H   0  0  0  0  0  0  0  0  0  0  0  0
    0.9527   41.3203   53.5404 H   0  0  0  0  0  0  0  0  0  0  0  0
   -0.1775   42.5525   54.9812 H   0  0  0  0  0  0  0  0  0  0  0  0
    0.2691   44.8883   55.3802 H   0  0  0  0  0  0  0  0  0  0  0  0
    1.7960   44.1174   54.7749 H   0  0  0  0  0  0  0  0  0  0  0  0
    0.6695   46.4675   53.8013 H   0  0  0  0  0  0  0  0  0  0  0  0
    1.8692   45.3878   52.9427 H   0  0  0  0  0  0  0  0  0  0  0  0
   -1.5992   45.7426   53.5969 H   0  0  0  0  0  0  0  0  0  0  0  0
   -2.0751   44.9948   52.0228 H   0  0  0  0  0  0  0  0  0  0  0  0
   -2.1256   43.6096   54.3296 H   0  0  0  0  0  0  0  0  0  0  0  0
   -1.6679   42.8545   52.7417 H   0  0  0  0  0  0  0  0  0  0  0  0
    3.0080   45.7347   51.7824 H   0  0  0  0  0  0  0  0  0  0  0  0
    7.6400   46.0580   49.4130 H   0  0  0  0  0  0  0  0  0  0  0  0
    9.9777   45.2943   50.6881 H   0  0  0  0  0  0  0  0  0  0  0  0
   11.4897   46.0722   52.5142 H   0  0  0  0  0  0  0  0  0  0  0  0
   10.6153   47.5669   54.3121 H   0  0  0  0  0  0  0  0  0  0  0  0
    8.2211   48.2773   54.2918 H   0  0  0  0  0  0  0  0  0  0  0  0
    6.7036   47.5025   52.4693 H   0  0  0  0  0  0  0  0  0  0  0  0
  1  2  2  0
  2  3  1  0
  3  4  1  0
  4  5  1  0
  5  6  1  0
  6  7  1  0
  7  8  1  0
  8  9  1  0
  9 10  1  0
  2 11  1  0
 11 12  2  0
 12 13  1  0
 13 14  2  0
 14 15  1  0
 15 16  1  0
 16 17  2  0
 17 18  1  0
 18 19  2  0
 19 20  1  0
 20 21  2  0
 14 22  1  0
 22 23  2  0
 23 24  1  0
 24 25  1  0
 24 26  1  0
 24 27  1  0
 10  5  1  0
 23 11  1  0
 21 16  1  0
  3 28  1  0
  4 29  1  0
  4 30  1  0
  5 31  1  0
  6 32  1  0
  6 33  1  0
  7 34  1  0
  7 35  1  0
  9 36  1  0
  9 37  1  0
 10 38  1  0
 10 39  1  0
 12 40  1  0
 15 41  1  0
 17 42  1  0
 18 43  1  0
 19 44  1  0
 20 45  1  0
 21 46  1  0
M  END
>  <meeko>  (2) 
{"is_sidechain": [false], "free_energy": -8.61, "intermolecular_energy": -12.072, "internal_energy": -0.326}

$$$$
ligand_7_conformer_5_docked
     RDKit          3D

 46 48  0  0  0  0  0  0  0  0999 V2000
    0.8390   44.2900   51.3060 O   0  0  0  0  0  0  0  0  0  0  0  0
    1.7190   44.3370   52.2070 C   0  0  0  0  0  0  0  0  0  0  0  0
    1.3960   43.9650   53.5540 N   0  0  0  0  0  0  0  0  0  0  0  0
    0.0340   43.6430   53.9790 C   0  0  0  0  0  0  0  0  0  0  0  0
   -0.6620   44.8680   54.6170 C   0  0  0  0  0  0  0  0  0  0  0  0
   -2.1510   44.9570   54.2280 C   0  0  0  0  0  0  0  0  0  0  0  0
   -2.9940   43.8610   54.9230 C   0  0  0  0  0  0  0  0  0  0  0  0
   -2.3340   43.2430   56.0170 O   0  0  0  0  0  0  0  0  0  0  0  0
   -1.7410   44.2180   56.8490 C   0  0  0  0  0  0  0  0  0  0  0  0
   -0.5210   44.8560   56.1590 C   0  0  0  0  0  0  0  0  0  0  0  0
    3.0930   44.7380   51.8500 C   0  0  0  0  0  0  0  0  0  0  0  0
    3.4370   46.0930   51.9210 C   0  0  0  0  0  0  0  0  0  0  0  0
    4.6820   46.5030   51.5730 N   0  0  0  0  0  0  0  0  0  0  0  0
    5.6200   45.6160   51.1480 C   0  0  0  0  0  0  0  0  0  0  0  0
    6.9420   46.0530   50.8020 N   0  0  0  0  0  0  0  0  0  0  0  0
    7.9440   46.4360   51.7610 C   0  0  0  0  0  0  0  0  0  0  0  0
    7.6240   47.2240   52.8810 C   0  0  0  0  0  0  0  0  0  0  0  0
    8.6220   47.6040   53.7850 C   0  0  0  0  0  0  0  0  0  0  0  0
    9.9460   47.2140   53.5700 C   0  0  0  0  0  0  0  0  0  0  0  0
   10.2770   46.4510   52.4470 C   0  0  0  0  0  0  0  0  0  0  0  0
    9.2820   46.0700   51.5420 C   0  0  0  0  0  0  0  0  0  0  0  0
    5.3210   44.2920   51.1080 N   0  0  0  0  0  0  0  0  0  0  0  0
    4.0940   43.8180   51.4560 C   0  0  0  0  0  0  0  0  0  0  0  0
    3.8670   42.3270   51.4020 C   0  0  0  0  0  0  0  0  0  0  0  0
    2.8100   42.0400   50.5550 F   0  0  0  0  0  0  0  0  0  0  0  0
    3.5560   41.8550   52.6630 F   0  0  0  0  0  0  0  0  0  0  0  0
    4.9890   41.6730   50.9250 F   0  0  0  0  0  0  0  0  0  0  0  0
    2.1590   43.9100   54.2640 H   0  0  0  0  0  0  0  0  0  0  0  0
   -0.5466   43.3172   53.1034 H   0  0  0  0  0  0  0  0  0  0  0  0
    0.0861   42.8430   54.7322 H   0  0  0  0  0  0  0  0  0  0  0  0
   -0.1523   45.7583   54.2199 H   0  0  0  0  0  0  0  0  0  0  0  0
   -2.5375   45.9438   54.5228 H   0  0  0  0  0  0  0  0  0  0  0  0
   -2.2293   44.8100   53.1407 H   0  0  0  0  0  0  0  0  0  0  0  0
   -3.9235   44.3192   55.2918 H   0  0  0  0  0  0  0  0  0  0  0  0
   -3.1815   43.0764   54.1752 H   0  0  0  0  0  0  0  0  0  0  0  0
   -2.4807   45.0014   57.0705 H   0  0  0  0  0  0  0  0  0  0  0  0
   -1.4073   43.7331   57.7783 H   0  0  0  0  0  0  0  0  0  0  0  0
   -0.4151   45.8920   56.5133 H   0  0  0  0  0  0  0  0  0  0  0  0
    0.3640   44.2541   56.4128 H   0  0  0  0  0  0  0  0  0  0  0  0
    2.6936   46.8291   52.2608 H   0  0  0  0  0  0  0  0  0  0  0  0
    7.2150   46.0140   49.7940 H   0  0  0  0  0  0  0  0  0  0  0  0
    6.5845   47.5430   53.0471 H   0  0  0  0  0  0  0  0  0  0  0  0
    8.3638   48.2103   54.6657 H   0  0  0  0  0  0  0  0  0  0  0  0
   10.7285   47.5077   54.2851 H   0  0  0  0  0  0  0  0  0  0  0  0
   11.3210   46.1501   52.2751 H   0  0  0  0  0  0  0  0  0  0  0  0
    9.5487   45.4799   50.6528 H   0  0  0  0  0  0  0  0  0  0  0  0
  1  2  2  0
  2  3  1  0
  3  4  1  0
  4  5  1  0
  5  6  1  0
  6  7  1  0
  7  8  1  0
  8  9  1  0
  9 10  1  0
  2 11  1  0
 11 12  2  0
 12 13  1  0
 13 14  2  0
 14 15  1  0
 15 16  1  0
 16 17  2  0
 17 18  1  0
 18 19  2  0
 19 20  1  0
 20 21  2  0
 14 22  1  0
 22 23  2  0
 23 24  1  0
 24 25  1  0
 24 26  1  0
 24 27  1  0
 10  5  1  0
 23 11  1  0
 21 16  1  0
  3 28  1  0
  4 29  1  0
  4 30  1  0
  5 31  1  0
  6 32  1  0
  6 33  1  0
  7 34  1  0
  7 35  1  0
  9 36  1  0
  9 37  1  0
 10 38  1  0
 10 39  1  0
 12 40  1  0
 15 41  1  0
 17 42  1  0
 18 43  1  0
 19 44  1  0
 20 45  1  0
 21 46  1  0
M  END
>  <meeko>  (3) 
{"is_sidechain": [false], "free_energy": -8.333, "intermolecular_energy": -11.464, "internal_energy": -0.561}

$$$$
ligand_7_conformer_5_docked
     RDKit          3D

 46 48  0  0  0  0  0  0  0  0999 V2000
    1.7130   43.5860   52.9870 O   0  0  0  0  0  0  0  0  0  0  0  0
    1.9990   43.9330   51.8100 C   0  0  0  0  0  0  0  0  0  0  0  0
    1.0040   43.8820   50.7790 N   0  0  0  0  0  0  0  0  0  0  0  0
   -0.3280   43.3170   50.9950 C   0  0  0  0  0  0  0  0  0  0  0  0
   -1.4050   44.4250   51.0720 C   0  0  0  0  0  0  0  0  0  0  0  0
   -2.7930   43.9150   50.6350 C   0  0  0  0  0  0  0  0  0  0  0  0
   -3.4120   42.9590   51.6830 C   0  0  0  0  0  0  0  0  0  0  0  0
   -2.7780   43.0180   52.9520 O   0  0  0  0  0  0  0  0  0  0  0  0
   -2.5870   44.3610   53.3450 C   0  0  0  0  0  0  0  0  0  0  0  0
   -1.4910   45.0290   52.4950 C   0  0  0  0  0  0  0  0  0  0  0  0
    3.3560   44.4310   51.5160 C   0  0  0  0  0  0  0  0  0  0  0  0
    3.6020   45.8060   51.6110 C   0  0  0  0  0  0  0  0  0  0  0  0
    4.8290   46.3050   51.3200 N   0  0  0  0  0  0  0  0  0  0  0  0
    5.8440   45.4890   50.9310 C   0  0  0  0  0  0  0  0  0  0  0  0
    7.1460   46.0200   50.6470 N   0  0  0  0  0  0  0  0  0  0  0  0
    8.0890   46.4320   51.6520 C   0  0  0  0  0  0  0  0  0  0  0  0
    9.4460   46.0690   51.5770 C   0  0  0  0  0  0  0  0  0  0  0  0
   10.3380   46.4610   52.5820 C   0  0  0  0  0  0  0  0  0  0  0  0
    9.8810   47.2040   53.6730 C   0  0  0  0  0  0  0  0  0  0  0  0
    8.5300   47.5490   53.7660 C   0  0  0  0  0  0  0  0  0  0  0  0
    7.6360   47.1580   52.7640 C   0  0  0  0  0  0  0  0  0  0  0  0
    5.6410   44.1480   50.8710 N   0  0  0  0  0  0  0  0  0  0  0  0
    4.4350   43.5870   51.1620 C   0  0  0  0  0  0  0  0  0  0  0  0
    4.3160   42.0840   51.0890 C   0  0  0  0  0  0  0  0  0  0  0  0
    5.5230   41.5330   50.6930 F   0  0  0  0  0  0  0  0  0  0  0  0
    3.3520   41.7350   50.1630 F   0  0  0  0  0  0  0  0  0  0  0  0
    3.9860   41.5530   52.3240 F   0  0  0  0  0  0  0  0  0  0  0  0
    1.2270   44.2690   49.8350 H   0  0  0  0  0  0  0  0  0  0  0  0
   -0.5693   42.6405   50.1618 H   0  0  0  0  0  0  0  0  0  0  0  0
   -0.3224   42.7724   51.9507 H   0  0  0  0  0  0  0  0  0  0  0  0
   -1.0939   45.2123   50.3697 H   0  0  0  0  0  0  0  0  0  0  0  0
   -3.4627   44.7772   50.5006 H   0  0  0  0  0  0  0  0  0  0  0  0
   -2.6712   43.3576   49.6946 H   0  0  0  0  0  0  0  0  0  0  0  0
   -4.4720   43.2234   51.8114 H   0  0  0  0  0  0  0  0  0  0  0  0
   -3.2787   41.9352   51.3036 H   0  0  0  0  0  0  0  0  0  0  0  0
   -3.5300   44.9123   53.2153 H   0  0  0  0  0  0  0  0  0  0  0  0
   -2.2749   44.3787   54.3997 H   0  0  0  0  0  0  0  0  0  0  0  0
   -1.7131   46.1031   52.4111 H   0  0  0  0  0  0  0  0  0  0  0  0
   -0.5256   44.8576   52.9935 H   0  0  0  0  0  0  0  0  0  0  0  0
    2.7954   46.4855   51.9235 H   0  0  0  0  0  0  0  0  0  0  0  0
    7.4550   46.0330   49.6480 H   0  0  0  0  0  0  0  0  0  0  0  0
    9.8077   45.4746   50.7250 H   0  0  0  0  0  0  0  0  0  0  0  0
   11.4002   46.1836   52.5125 H   0  0  0  0  0  0  0  0  0  0  0  0
   10.5843   47.5174   54.4586 H   0  0  0  0  0  0  0  0  0  0  0  0
    8.1692   48.1288   54.6284 H   0  0  0  0  0  0  0  0  0  0  0  0
    6.5713   47.4212   52.8482 H   0  0  0  0  0  0  0  0  0  0  0  0
  1  2  2  0
  2  3  1  0
  3  4  1  0
  4  5  1  0
  5  6  1  0
  6  7  1  0
  7  8  1  0
  8  9  1  0
  9 10  1  0
  2 11  1  0
 11 12  2  0
 12 13  1  0
 13 14  2  0
 14 15  1  0
 15 16  1  0
 16 17  2  0
 17 18  1  0
 18 19  2  0
 19 20  1  0
 20 21  2  0
 14 22  1  0
 22 23  2  0
 23 24  1  0
 24 25  1  0
 24 26  1  0
 24 27  1  0
 10  5  1  0
 23 11  1  0
 21 16  1  0
  3 28  1  0
  4 29  1  0
  4 30  1  0
  5 31  1  0
  6 32  1  0
  6 33  1  0
  7 34  1  0
  7 35  1  0
  9 36  1  0
  9 37  1  0
 10 38  1  0
 10 39  1  0
 12 40  1  0
 15 41  1  0
 17 42  1  0
 18 43  1  0
 19 44  1  0
 20 45  1  0
 21 46  1  0
M  END
>  <meeko>  (4) 
{"is_sidechain": [false], "free_energy": -8.306, "intermolecular_energy": -11.324, "internal_energy": -0.664}

$$$$
ligand_7_conformer_5_docked
     RDKit          3D

 46 48  0  0  0  0  0  0  0  0999 V2000
    0.2870   45.2090   51.9490 O   0  0  0  0  0  0  0  0  0  0  0  0
    1.1940   45.2000   52.8240 C   0  0  0  0  0  0  0  0  0  0  0  0
    0.8640   45.0070   54.2060 N   0  0  0  0  0  0  0  0  0  0  0  0
   -0.5150   44.9410   54.6870 C   0  0  0  0  0  0  0  0  0  0  0  0
   -0.5760   44.5070   56.1700 C   0  0  0  0  0  0  0  0  0  0  0  0
   -0.0350   45.5990   57.1150 C   0  0  0  0  0  0  0  0  0  0  0  0
   -1.0020   46.8030   57.2180 C   0  0  0  0  0  0  0  0  0  0  0  0
   -2.3080   46.5270   56.7340 O   0  0  0  0  0  0  0  0  0  0  0  0
   -2.7690   45.2910   57.2390 C   0  0  0  0  0  0  0  0  0  0  0  0
   -2.0160   44.1190   56.5850 C   0  0  0  0  0  0  0  0  0  0  0  0
    2.6010   45.3480   52.4030 C   0  0  0  0  0  0  0  0  0  0  0  0
    3.1890   46.6170   52.4600 C   0  0  0  0  0  0  0  0  0  0  0  0
    4.4700   46.7970   52.0540 N   0  0  0  0  0  0  0  0  0  0  0  0
    5.2110   45.7590   51.5850 C   0  0  0  0  0  0  0  0  0  0  0  0
    6.5730   45.9520   51.1780 N   0  0  0  0  0  0  0  0  0  0  0  0
    7.6290   46.3710   52.0610 C   0  0  0  0  0  0  0  0  0  0  0  0
    8.9720   46.3890   51.6410 C   0  0  0  0  0  0  0  0  0  0  0  0
    9.9830   46.7760   52.5270 C   0  0  0  0  0  0  0  0  0  0  0  0
    9.6650   47.1320   53.8390 C   0  0  0  0  0  0  0  0  0  0  0  0
    8.3360   47.0950   54.2720 C   0  0  0  0  0  0  0  0  0  0  0  0
    7.3240   46.7080   53.3890 C   0  0  0  0  0  0  0  0  0  0  0  0
    4.6750   44.5110   51.5590 N   0  0  0  0  0  0  0  0  0  0  0  0
    3.3980   44.2650   51.9630 C   0  0  0  0  0  0  0  0  0  0  0  0
    2.9020   42.8400   51.9180 C   0  0  0  0  0  0  0  0  0  0  0  0
    2.3520   42.4940   53.1410 F   0  0  0  0  0  0  0  0  0  0  0  0
    3.9560   41.9860   51.6560 F   0  0  0  0  0  0  0  0  0  0  0  0
    1.9270   42.6860   50.9490 F   0  0  0  0  0  0  0  0  0  0  0  0
    1.6340   44.9000   54.9030 H   0  0  0  0  0  0  0  0  0  0  0  0
   -0.9772   45.9340   54.5856 H   0  0  0  0  0  0  0  0  0  0  0  0
   -1.0556   44.1951   54.0859 H   0  0  0  0  0  0  0  0  0  0  0  0
    0.0711   43.6224   56.2636 H   0  0  0  0  0  0  0  0  0  0  0  0
    0.1023   45.1663   58.1169 H   0  0  0  0  0  0  0  0  0  0  0  0
    0.9194   45.9620   56.7060 H   0  0  0  0  0  0  0  0  0  0  0  0
   -1.0781   47.0983   58.2749 H   0  0  0  0  0  0  0  0  0  0  0  0
   -0.5875   47.6040   56.5882 H   0  0  0  0  0  0  0  0  0  0  0  0
   -2.6062   45.2624   58.3265 H   0  0  0  0  0  0  0  0  0  0  0  0
   -3.8404   45.1938   57.0098 H   0  0  0  0  0  0  0  0  0  0  0  0
   -1.9657   43.2863   57.3020 H   0  0  0  0  0  0  0  0  0  0  0  0
   -2.5635   43.8319   55.6752 H   0  0  0  0  0  0  0  0  0  0  0  0
    2.6088   47.4725   52.8361 H   0  0  0  0  0  0  0  0  0  0  0  0
    6.8250   45.6950   50.1970 H   0  0  0  0  0  0  0  0  0  0  0  0
    9.2279   46.0975   50.6116 H   0  0  0  0  0  0  0  0  0  0  0  0
   11.0297   46.7999   52.1896 H   0  0  0  0  0  0  0  0  0  0  0  0
   10.4606   47.4418   54.5326 H   0  0  0  0  0  0  0  0  0  0  0  0
    8.0870   47.3704   55.3074 H   0  0  0  0  0  0  0  0  0  0  0  0
    6.2814   46.6673   53.7372 H   0  0  0  0  0  0  0  0  0  0  0  0
  1  2  2  0
  2  3  1  0
  3  4  1  0
  4  5  1  0
  5  6  1  0
  6  7  1  0
  7  8  1  0
  8  9  1  0
  9 10  1  0
  2 11  1  0
 11 12  2  0
 12 13  1  0
 13 14  2  0
 14 15  1  0
 15 16  1  0
 16 17  2  0
 17 18  1  0
 18 19  2  0
 19 20  1  0
 20 21  2  0
 14 22  1  0
 22 23  2  0
 23 24  1  0
 24 25  1  0
 24 26  1  0
 24 27  1  0
 10  5  1  0
 23 11  1  0
 21 16  1  0
  3 28  1  0
  4 29  1  0
  4 30  1  0
  5 31  1  0
  6 32  1  0
  6 33  1  0
  7 34  1  0
  7 35  1  0
  9 36  1  0
  9 37  1  0
 10 38  1  0
 10 39  1  0
 12 40  1  0
 15 41  1  0
 17 42  1  0
 18 43  1  0
 19 44  1  0
 20 45  1  0
 21 46  1  0
M  END
>  <meeko>  (5) 
{"is_sidechain": [false], "free_energy": -8.089, "intermolecular_energy": -11.263, "internal_energy": -0.431}

$$$$
