MODEL 1
REMARK VINA RESULT:    -8.289      0.000      0.000
REMARK INTER + INTRA:         -11.874
REMARK INTER:                 -11.196
REMARK INTRA:                  -0.677
REMARK UNBOUND:                -0.677
REMARK SMILES O=C(Nc1cccc(OC(F)F)c1)c1ccc(Nc2ncccn2)cc1
REMARK SMILES IDX 4 1 5 2 6 3 7 4 8 5 13 6 3 7 1 8 2 9 14 11 15 12 26 13 16 14
REMARK SMILES IDX 25 15 17 16 18 17 19 19 20 20 24 21 21 22 23 23 22 24 9 25
REMARK SMILES IDX 10 26 11 27 12 28
REMARK H PARENT 3 10 18 18
ROOT
ATOM      1  C   UNL     1       7.233  46.221  52.808  1.00  0.00     0.045 A 
ATOM      2  C   UNL     1       7.761  46.713  51.602  1.00  0.00     0.026 A 
ATOM      3  C   UNL     1       9.085  47.154  51.543  1.00  0.00     0.006 A 
ATOM      4  C   UNL     1       9.886  47.124  52.684  1.00  0.00     0.047 A 
ATOM      5  C   UNL     1       9.373  46.661  53.901  1.00  0.00     0.128 A 
ATOM      6  C   UNL     1       8.037  46.216  53.957  1.00  0.00     0.072 A 
ENDROOT
BRANCH   1   7
ATOM      7  N   UNL     1       5.866  45.784  52.903  1.00  0.00    -0.322 N 
ATOM      8  O   UNL     1       5.041  47.760  53.847  1.00  0.00    -0.269 OA
ATOM      9  C   UNL     1       4.809  46.577  53.477  1.00  0.00     0.255 C 
ATOM     10  H   UNL     1       5.637  44.857  52.482  1.00  0.00     0.170 HD
BRANCH   9  11
ATOM     11  C   UNL     1       3.438  46.033  53.634  1.00  0.00     0.040 A 
ATOM     12  C   UNL     1       3.081  45.252  54.749  1.00  0.00     0.016 A 
ATOM     13  C   UNL     1       2.477  46.267  52.636  1.00  0.00     0.016 A 
ATOM     14  C   UNL     1       1.784  44.746  54.875  1.00  0.00     0.027 A 
ATOM     15  C   UNL     1       1.181  45.760  52.763  1.00  0.00     0.027 A 
ATOM     16  C   UNL     1       0.816  45.016  53.893  1.00  0.00     0.041 A 
BRANCH  16  17
ATOM     17  N   UNL     1      -0.517  44.486  53.988  1.00  0.00    -0.324 N 
ATOM     18  H   UNL     1      -0.979  44.154  53.112  1.00  0.00     0.170 HD
BRANCH  17  19
ATOM     19  C   UNL     1      -1.300  44.484  55.191  1.00  0.00     0.227 A 
ATOM     20  N   UNL     1      -1.330  45.596  55.974  1.00  0.00    -0.221 NA
ATOM     21  N   UNL     1      -1.970  43.365  55.586  1.00  0.00    -0.221 NA
ATOM     22  C   UNL     1      -2.037  45.619  57.134  1.00  0.00     0.117 A 
ATOM     23  C   UNL     1      -2.689  43.349  56.738  1.00  0.00     0.117 A 
ATOM     24  C   UNL     1      -2.739  44.486  57.543  1.00  0.00     0.040 A 
ENDBRANCH  17  19
ENDBRANCH  16  17
ENDBRANCH   9  11
ENDBRANCH   1   7
BRANCH   5  25
ATOM     25  O   UNL     1      10.217  46.660  55.022  1.00  0.00    -0.435 OA
BRANCH  25  26
ATOM     26  C   UNL     1      10.614  47.824  55.742  1.00  0.00     0.542 C 
ATOM     27  F   UNL     1      11.058  47.471  57.003  1.00  0.00    -0.167 F 
ATOM     28  F   UNL     1       9.528  48.668  55.868  1.00  0.00    -0.167 F 
ENDBRANCH  25  26
ENDBRANCH   5  25
TORSDOF 6
ENDMDL
MODEL 2
REMARK VINA RESULT:    -8.092      2.217      3.142
REMARK INTER + INTRA:         -11.608
REMARK INTER:                 -10.926
REMARK INTRA:                  -0.682
REMARK UNBOUND:                -0.677
REMARK SMILES O=C(Nc1cccc(OC(F)F)c1)c1ccc(Nc2ncccn2)cc1
REMARK SMILES IDX 4 1 5 2 6 3 7 4 8 5 13 6 3 7 1 8 2 9 14 11 15 12 26 13 16 14
REMARK SMILES IDX 25 15 17 16 18 17 19 19 20 20 24 21 21 22 23 23 22 24 9 25
REMARK SMILES IDX 10 26 11 27 12 28
REMARK H PARENT 3 10 18 18
ROOT
ATOM      1  C   UNL     1       5.504  44.885  52.132  1.00  0.00     0.045 A 
ATOM      2  C   UNL     1       5.602  44.238  50.889  1.00  0.00     0.026 A 
ATOM      3  C   UNL     1       6.701  44.471  50.060  1.00  0.00     0.006 A 
ATOM      4  C   UNL     1       7.702  45.360  50.454  1.00  0.00     0.047 A 
ATOM      5  C   UNL     1       7.612  46.035  51.677  1.00  0.00     0.128 A 
ATOM      6  C   UNL     1       6.501  45.796  52.512  1.00  0.00     0.072 A 
ENDROOT
BRANCH   1   7
ATOM      7  N   UNL     1       4.371  44.683  52.994  1.00  0.00    -0.322 N 
ATOM      8  O   UNL     1       3.072  46.415  52.105  1.00  0.00    -0.269 OA
ATOM      9  C   UNL     1       3.190  45.509  52.974  1.00  0.00     0.255 C 
ATOM     10  H   UNL     1       4.404  43.855  53.629  1.00  0.00     0.170 HD
BRANCH   9  11
ATOM     11  C   UNL     1       2.096  45.309  53.954  1.00  0.00     0.040 A 
ATOM     12  C   UNL     1       0.773  45.066  53.540  1.00  0.00     0.016 A 
ATOM     13  C   UNL     1       2.369  45.397  55.330  1.00  0.00     0.016 A 
ATOM     14  C   UNL     1      -0.243  44.884  54.482  1.00  0.00     0.027 A 
ATOM     15  C   UNL     1       1.352  45.215  56.271  1.00  0.00     0.027 A 
ATOM     16  C   UNL     1       0.043  44.934  55.857  1.00  0.00     0.041 A 
BRANCH  16  17
ATOM     17  N   UNL     1      -0.990  44.774  56.844  1.00  0.00    -0.324 N 
ATOM     18  H   UNL     1      -1.282  43.804  57.099  1.00  0.00     0.170 HD
BRANCH  17  19
ATOM     19  C   UNL     1      -1.727  45.861  57.423  1.00  0.00     0.227 A 
ATOM     20  N   UNL     1      -2.843  45.600  58.156  1.00  0.00    -0.221 NA
ATOM     21  N   UNL     1      -1.354  47.153  57.204  1.00  0.00    -0.221 NA
ATOM     22  C   UNL     1      -3.581  46.606  58.694  1.00  0.00     0.117 A 
ATOM     23  C   UNL     1      -2.065  48.186  57.726  1.00  0.00     0.117 A 
ATOM     24  C   UNL     1      -3.203  47.931  58.490  1.00  0.00     0.040 A 
ENDBRANCH  17  19
ENDBRANCH  16  17
ENDBRANCH   9  11
ENDBRANCH   1   7
BRANCH   5  25
ATOM     25  O   UNL     1       8.639  46.926  52.022  1.00  0.00    -0.435 OA
BRANCH  25  26
ATOM     26  C   UNL     1       9.871  46.549  52.629  1.00  0.00     0.542 C 
ATOM     27  F   UNL     1      10.277  47.526  53.519  1.00  0.00    -0.167 F 
ATOM     28  F   UNL     1      10.833  46.410  51.647  1.00  0.00    -0.167 F 
ENDBRANCH  25  26
ENDBRANCH   5  25
TORSDOF 6
ENDMDL
MODEL 3
REMARK VINA RESULT:    -8.032      3.445      4.159
REMARK INTER + INTRA:         -11.526
REMARK INTER:                 -10.830
REMARK INTRA:                  -0.696
REMARK UNBOUND:                -0.677
REMARK SMILES O=C(Nc1cccc(OC(F)F)c1)c1ccc(Nc2ncccn2)cc1
REMARK SMILES IDX 4 1 5 2 6 3 7 4 8 5 13 6 3 7 1 8 2 9 14 11 15 12 26 13 16 14
REMARK SMILES IDX 25 15 17 16 18 17 19 19 20 20 24 21 21 22 23 23 22 24 9 25
REMARK SMILES IDX 10 26 11 27 12 28
REMARK H PARENT 3 10 18 18
ROOT
ATOM      1  C   UNL     1       5.565  45.856  51.659  1.00  0.00     0.045 A 
ATOM      2  C   UNL     1       6.367  45.315  50.640  1.00  0.00     0.026 A 
ATOM      3  C   UNL     1       7.718  45.658  50.553  1.00  0.00     0.006 A 
ATOM      4  C   UNL     1       8.277  46.551  51.468  1.00  0.00     0.047 A 
ATOM      5  C   UNL     1       7.490  47.121  52.475  1.00  0.00     0.128 A 
ATOM      6  C   UNL     1       6.127  46.773  52.560  1.00  0.00     0.072 A 
ENDROOT
BRANCH   1   7
ATOM      7  N   UNL     1       4.165  45.541  51.756  1.00  0.00    -0.322 N 
ATOM      8  O   UNL     1       4.442  43.550  52.953  1.00  0.00    -0.269 OA
ATOM      9  C   UNL     1       3.653  44.345  52.376  1.00  0.00     0.255 C 
ATOM     10  H   UNL     1       3.496  46.256  51.396  1.00  0.00     0.170 HD
BRANCH   9  11
ATOM     11  C   UNL     1       2.204  44.031  52.358  1.00  0.00     0.040 A 
ATOM     12  C   UNL     1       1.678  42.947  53.084  1.00  0.00     0.016 A 
ATOM     13  C   UNL     1       1.333  44.807  51.574  1.00  0.00     0.016 A 
ATOM     14  C   UNL     1       0.309  42.667  53.050  1.00  0.00     0.027 A 
ATOM     15  C   UNL     1      -0.036  44.526  51.541  1.00  0.00     0.027 A 
ATOM     16  C   UNL     1      -0.564  43.470  52.296  1.00  0.00     0.041 A 
BRANCH  16  17
ATOM     17  N   UNL     1      -1.971  43.187  52.226  1.00  0.00    -0.324 N 
ATOM     18  H   UNL     1      -2.594  43.600  52.956  1.00  0.00     0.170 HD
BRANCH  17  19
ATOM     19  C   UNL     1      -2.566  42.285  51.282  1.00  0.00     0.227 A 
ATOM     20  N   UNL     1      -3.013  41.071  51.705  1.00  0.00    -0.221 NA
ATOM     21  N   UNL     1      -2.641  42.605  49.960  1.00  0.00    -0.221 NA
ATOM     22  C   UNL     1      -3.555  40.180  50.833  1.00  0.00     0.117 A 
ATOM     23  C   UNL     1      -3.178  41.742  49.059  1.00  0.00     0.117 A 
ATOM     24  C   UNL     1      -3.651  40.501  49.481  1.00  0.00     0.040 A 
ENDBRANCH  17  19
ENDBRANCH  16  17
ENDBRANCH   9  11
ENDBRANCH   1   7
BRANCH   5  25
ATOM     25  O   UNL     1       8.097  48.022  53.364  1.00  0.00    -0.435 OA
BRANCH  25  26
ATOM     26  C   UNL     1       9.031  47.659  54.376  1.00  0.00     0.542 C 
ATOM     27  F   UNL     1       9.128  48.671  55.313  1.00  0.00    -0.167 F 
ATOM     28  F   UNL     1      10.270  47.463  53.797  1.00  0.00    -0.167 F 
ENDBRANCH  25  26
ENDBRANCH   5  25
TORSDOF 6
ENDMDL
MODEL 4
REMARK VINA RESULT:    -8.026      1.609      2.356
REMARK INTER + INTRA:         -11.518
REMARK INTER:                 -10.782
REMARK INTRA:                  -0.736
REMARK UNBOUND:                -0.677
REMARK SMILES O=C(Nc1cccc(OC(F)F)c1)c1ccc(Nc2ncccn2)cc1
REMARK SMILES IDX 4 1 5 2 6 3 7 4 8 5 13 6 3 7 1 8 2 9 14 11 15 12 26 13 16 14
REMARK SMILES IDX 25 15 17 16 18 17 19 19 20 20 24 21 21 22 23 23 22 24 9 25
REMARK SMILES IDX 10 26 11 27 12 28
REMARK H PARENT 3 10 18 18
ROOT
ATOM      1  C   UNL     1       7.250  46.305  52.823  1.00  0.00     0.045 A 
ATOM      2  C   UNL     1       7.792  46.738  51.602  1.00  0.00     0.026 A 
ATOM      3  C   UNL     1       9.130  47.130  51.526  1.00  0.00     0.006 A 
ATOM      4  C   UNL     1       9.933  47.109  52.667  1.00  0.00     0.047 A 
ATOM      5  C   UNL     1       9.407  46.705  53.899  1.00  0.00     0.128 A 
ATOM      6  C   UNL     1       8.056  46.309  53.972  1.00  0.00     0.072 A 
ENDROOT
BRANCH   1   7
ATOM      7  N   UNL     1       5.868  45.921  52.935  1.00  0.00    -0.322 N 
ATOM      8  O   UNL     1       5.118  47.950  53.827  1.00  0.00    -0.269 OA
ATOM      9  C   UNL     1       4.843  46.767  53.490  1.00  0.00     0.255 C 
ATOM     10  H   UNL     1       5.605  44.991  52.540  1.00  0.00     0.170 HD
BRANCH   9  11
ATOM     11  C   UNL     1       3.454  46.276  53.666  1.00  0.00     0.040 A 
ATOM     12  C   UNL     1       2.514  46.340  52.622  1.00  0.00     0.016 A 
ATOM     13  C   UNL     1       3.050  45.766  54.912  1.00  0.00     0.016 A 
ATOM     14  C   UNL     1       1.209  45.875  52.812  1.00  0.00     0.027 A 
ATOM     15  C   UNL     1       1.745  45.301  55.100  1.00  0.00     0.027 A 
ATOM     16  C   UNL     1       0.821  45.329  54.048  1.00  0.00     0.041 A 
BRANCH  16  17
ATOM     17  N   UNL     1      -0.521  44.868  54.274  1.00  0.00    -0.324 N 
ATOM     18  H   UNL     1      -0.897  44.903  55.249  1.00  0.00     0.170 HD
BRANCH  17  19
ATOM     19  C   UNL     1      -1.345  44.258  53.270  1.00  0.00     0.227 A 
ATOM     20  N   UNL     1      -2.484  44.883  52.866  1.00  0.00    -0.221 NA
ATOM     21  N   UNL     1      -1.030  43.037  52.754  1.00  0.00    -0.221 NA
ATOM     22  C   UNL     1      -3.302  44.321  51.939  1.00  0.00     0.117 A 
ATOM     23  C   UNL     1      -1.821  42.443  51.824  1.00  0.00     0.117 A 
ATOM     24  C   UNL     1      -2.984  43.079  51.393  1.00  0.00     0.040 A 
ENDBRANCH  17  19
ENDBRANCH  16  17
ENDBRANCH   9  11
ENDBRANCH   1   7
BRANCH   5  25
ATOM     25  O   UNL     1      10.253  46.710  55.018  1.00  0.00    -0.435 OA
BRANCH  25  26
ATOM     26  C   UNL     1      10.640  47.876  55.739  1.00  0.00     0.542 C 
ATOM     27  F   UNL     1      11.156  47.520  56.972  1.00  0.00    -0.167 F 
ATOM     28  F   UNL     1       9.530  48.676  55.932  1.00  0.00    -0.167 F 
ENDBRANCH  25  26
ENDBRANCH   5  25
TORSDOF 6
ENDMDL
MODEL 5
REMARK VINA RESULT:    -7.890      1.535      2.236
REMARK INTER + INTRA:         -11.335
REMARK INTER:                 -10.661
REMARK INTRA:                  -0.674
REMARK UNBOUND:                -0.677
REMARK SMILES O=C(Nc1cccc(OC(F)F)c1)c1ccc(Nc2ncccn2)cc1
REMARK SMILES IDX 4 1 5 2 6 3 7 4 8 5 13 6 3 7 1 8 2 9 14 11 15 12 26 13 16 14
REMARK SMILES IDX 25 15 17 16 18 17 19 19 20 20 24 21 21 22 23 23 22 24 9 25
REMARK SMILES IDX 10 26 11 27 12 28
REMARK H PARENT 3 10 18 18
ROOT
ATOM      1  C   UNL     1       5.760  46.114  51.933  1.00  0.00     0.045 A 
ATOM      2  C   UNL     1       6.316  45.454  50.823  1.00  0.00     0.026 A 
ATOM      3  C   UNL     1       7.669  45.614  50.516  1.00  0.00     0.006 A 
ATOM      4  C   UNL     1       8.474  46.440  51.300  1.00  0.00     0.047 A 
ATOM      5  C   UNL     1       7.936  47.127  52.395  1.00  0.00     0.128 A 
ATOM      6  C   UNL     1       6.570  46.964  52.702  1.00  0.00     0.072 A 
ENDROOT
BRANCH   1   7
ATOM      7  N   UNL     1       4.365  45.989  52.256  1.00  0.00    -0.322 N 
ATOM      8  O   UNL     1       4.662  44.567  54.091  1.00  0.00    -0.269 OA
ATOM      9  C   UNL     1       3.859  45.161  53.322  1.00  0.00     0.255 C 
ATOM     10  H   UNL     1       3.700  46.578  51.708  1.00  0.00     0.170 HD
BRANCH   9  11
ATOM     11  C   UNL     1       2.401  44.999  53.543  1.00  0.00     0.040 A 
ATOM     12  C   UNL     1       1.477  45.157  52.494  1.00  0.00     0.016 A 
ATOM     13  C   UNL     1       1.921  44.715  54.833  1.00  0.00     0.016 A 
ATOM     14  C   UNL     1       0.107  45.003  52.727  1.00  0.00     0.027 A 
ATOM     15  C   UNL     1       0.551  44.561  55.064  1.00  0.00     0.027 A 
ATOM     16  C   UNL     1      -0.366  44.680  54.011  1.00  0.00     0.041 A 
BRANCH  16  17
ATOM     17  N   UNL     1      -1.771  44.541  54.279  1.00  0.00    -0.324 N 
ATOM     18  H   UNL     1      -2.438  44.646  53.481  1.00  0.00     0.170 HD
BRANCH  17  19
ATOM     19  C   UNL     1      -2.329  44.377  55.591  1.00  0.00     0.227 A 
ATOM     20  N   UNL     1      -2.575  43.126  56.064  1.00  0.00    -0.221 NA
ATOM     21  N   UNL     1      -2.666  45.460  56.346  1.00  0.00    -0.221 NA
ATOM     22  C   UNL     1      -3.131  42.935  57.289  1.00  0.00     0.117 A 
ATOM     23  C   UNL     1      -3.221  45.310  57.577  1.00  0.00     0.117 A 
ATOM     24  C   UNL     1      -3.466  44.033  58.079  1.00  0.00     0.040 A 
ENDBRANCH  17  19
ENDBRANCH  16  17
ENDBRANCH   9  11
ENDBRANCH   1   7
BRANCH   5  25
ATOM     25  O   UNL     1       8.785  47.954  53.145  1.00  0.00    -0.435 OA
BRANCH  25  26
ATOM     26  C   UNL     1       9.306  47.631  54.430  1.00  0.00     0.542 C 
ATOM     27  F   UNL     1       9.201  48.723  55.271  1.00  0.00    -0.167 F 
ATOM     28  F   UNL     1      10.639  47.289  54.304  1.00  0.00    -0.167 F 
ENDBRANCH  25  26
ENDBRANCH   5  25
TORSDOF 6
ENDMDL
