ligand_29_conformer_2_docked
     RDKit          3D

 46 48  0  0  0  0  0  0  0  0999 V2000
   10.7770   45.9980   51.6900 C   0  0  0  0  0  0  0  0  0  0  0  0
    9.6630   46.5360   52.5370 C   0  0  0  0  0  0  0  0  0  0  0  0
    9.9160   46.9870   53.8410 C   0  0  0  0  0  0  0  0  0  0  0  0
    8.8650   47.4370   54.6450 C   0  0  0  0  0  0  0  0  0  0  0  0
    7.5550   47.4310   54.1570 C   0  0  0  0  0  0  0  0  0  0  0  0
    7.2860   46.9750   52.8580 C   0  0  0  0  0  0  0  0  0  0  0  0
    5.8630   46.8710   52.3670 C   0  0  0  0  0  0  0  0  0  0  0  0
    4.8530   46.9960   53.5260 C   0  0  1  0  0  0  0  0  0  0  0  0
    4.2750   48.4160   53.5840 C   0  0  0  0  0  0  0  0  0  0  0  0
    4.2630   48.8670   54.9110 O   0  0  0  0  0  0  0  0  0  0  0  0
    3.7670   46.0210   53.3590 N   0  0  0  0  0  0  0  0  0  0  0  0
    4.0030   44.6060   53.4490 C   0  0  0  0  0  0  0  0  0  0  0  0
    5.0200   44.1840   54.0620 O   0  0  0  0  0  0  0  0  0  0  0  0
    3.1060   43.6420   52.7710 C   0  0  0  0  0  0  0  0  0  0  0  0
    1.7560   43.4550   53.0030 C   0  0  0  0  0  0  0  0  0  0  0  0
    1.2750   42.6040   52.0800 N   0  0  0  0  0  0  0  0  0  0  0  0
    2.2430   42.2390   51.2560 N   0  0  0  0  0  0  0  0  0  0  0  0
    3.3750   42.8470   51.6600 C   0  0  0  0  0  0  0  0  0  0  0  0
    4.6480   42.7280   50.9290 C   0  0  0  0  0  0  0  0  0  0  0  0
    5.1320   41.4710   50.5340 C   0  0  0  0  0  0  0  0  0  0  0  0
    6.3470   41.3700   49.8490 C   0  0  0  0  0  0  0  0  0  0  0  0
    7.0820   42.5210   49.5500 C   0  0  0  0  0  0  0  0  0  0  0  0
    6.5940   43.7780   49.9230 C   0  0  0  0  0  0  0  0  0  0  0  0
    7.5150   45.2230   49.5520 Cl  0  0  0  0  0  0  0  0  0  0  0  0
    5.3740   43.8830   50.6000 C   0  0  0  0  0  0  0  0  0  0  0  0
    8.3460   46.5210   52.0540 C   0  0  0  0  0  0  0  0  0  0  0  0
   11.5770   45.6116   52.3386 H   0  0  0  0  0  0  0  0  0  0  0  0
   10.3951   45.1851   51.0550 H   0  0  0  0  0  0  0  0  0  0  0  0
   11.1762   46.8026   51.0550 H   0  0  0  0  0  0  0  0  0  0  0  0
   10.9442   46.9865   54.2318 H   0  0  0  0  0  0  0  0  0  0  0  0
    9.0691   47.7968   55.6643 H   0  0  0  0  0  0  0  0  0  0  0  0
    6.7316   47.7854   54.7944 H   0  0  0  0  0  0  0  0  0  0  0  0
    5.6757   47.6764   51.6416 H   0  0  0  0  0  0  0  0  0  0  0  0
    5.7310   45.8839   51.9000 H   0  0  0  0  0  0  0  0  0  0  0  0
    5.3791   46.7898   54.4698 H   0  0  0  0  0  0  0  0  0  0  0  0
    4.8962   49.0889   52.9747 H   0  0  0  0  0  0  0  0  0  0  0  0
    3.2470   48.4073   53.1928 H   0  0  0  0  0  0  0  0  0  0  0  0
    3.3410   49.1910   55.0820 H   0  0  0  0  0  0  0  0  0  0  0  0
    2.8790   46.3620   52.9320 H   0  0  0  0  0  0  0  0  0  0  0  0
    1.1725   43.9244   53.8087 H   0  0  0  0  0  0  0  0  0  0  0  0
    0.2850   42.2840   51.9980 H   0  0  0  0  0  0  0  0  0  0  0  0
    4.5544   40.5635   50.7638 H   0  0  0  0  0  0  0  0  0  0  0  0
    6.7252   40.3829   49.5448 H   0  0  0  0  0  0  0  0  0  0  0  0
    8.0434   42.4384   49.0218 H   0  0  0  0  0  0  0  0  0  0  0  0
    4.9829   44.8736   50.8751 H   0  0  0  0  0  0  0  0  0  0  0  0
    8.1412   46.1512   51.0385 H   0  0  0  0  0  0  0  0  0  0  0  0
  1  2  1  0
  2  3  2  0
  3  4  1  0
  4  5  2  0
  5  6  1  0
  6  7  1  0
  7  8  1  0
  8  9  1  0
  9 10  1  0
  8 11  1  0
 11 12  1  0
 12 13  2  0
 12 14  1  0
 14 15  2  0
 15 16  1  0
 16 17  1  0
 17 18  2  0
 18 19  1  0
 19 20  2  0
 20 21  1  0
 21 22  2  0
 22 23  1  0
 23 24  1  0
 23 25  2  0
  6 26  2  0
 26  2  1  0
 18 14  1  0
 25 19  1  0
  1 27  1  0
  1 28  1  0
  1 29  1  0
  3 30  1  0
  4 31  1  0
  5 32  1  0
  7 33  1  0
  7 34  1  0
  8 35  1  1
  9 36  1  0
  9 37  1  0
 10 38  1  0
 11 39  1  0
 15 40  1  0
 16 41  1  0
 20 42  1  0
 21 43  1  0
 22 44  1  0
 25 45  1  0
 26 46  1  0
M  END
>  <meeko>  (1) 
{"is_sidechain": [false], "free_energy": -9.512, "intermolecular_energy": -13.126, "internal_energy": -0.679}

$$$$
ligand_29_conformer_2_docked
     RDKit          3D

 46 48  0  0  0  0  0  0  0  0999 V2000
   10.3510   47.4040   55.3200 C   0  0  0  0  0  0  0  0  0  0  0  0
    9.5970   47.0880   54.0630 C   0  0  0  0  0  0  0  0  0  0  0  0
   10.2840   46.7440   52.8890 C   0  0  0  0  0  0  0  0  0  0  0  0
    9.5770   46.5040   51.7080 C   0  0  0  0  0  0  0  0  0  0  0  0
    8.1840   46.6160   51.6860 C   0  0  0  0  0  0  0  0  0  0  0  0
    7.4860   46.9690   52.8500 C   0  0  0  0  0  0  0  0  0  0  0  0
    5.9930   47.1910   52.8030 C   0  0  0  0  0  0  0  0  0  0  0  0
    5.2250   46.0220   53.4520 C   0  0  1  0  0  0  0  0  0  0  0  0
    3.7160   46.2970   53.4420 C   0  0  0  0  0  0  0  0  0  0  0  0
    3.4490   47.4400   52.6770 O   0  0  0  0  0  0  0  0  0  0  0  0
    5.5090   44.7700   52.7360 N   0  0  0  0  0  0  0  0  0  0  0  0
    5.0830   44.5650   51.3780 C   0  0  0  0  0  0  0  0  0  0  0  0
    4.8340   45.5620   50.6480 O   0  0  0  0  0  0  0  0  0  0  0  0
    4.8660   43.1990   50.8490 C   0  0  0  0  0  0  0  0  0  0  0  0
    5.8050   42.3780   50.2510 C   0  0  0  0  0  0  0  0  0  0  0  0
    5.2530   41.1680   50.0530 N   0  0  0  0  0  0  0  0  0  0  0  0
    4.0100   41.1610   50.5010 N   0  0  0  0  0  0  0  0  0  0  0  0
    3.7410   42.3900   50.9820 C   0  0  0  0  0  0  0  0  0  0  0  0
    2.4640   42.7300   51.6320 C   0  0  0  0  0  0  0  0  0  0  0  0
    2.3670   42.7990   53.0300 C   0  0  0  0  0  0  0  0  0  0  0  0
    1.1470   43.1150   53.6350 C   0  0  0  0  0  0  0  0  0  0  0  0
    0.0190   43.3690   52.8500 C   0  0  0  0  0  0  0  0  0  0  0  0
    0.1140   43.3220   51.4540 C   0  0  0  0  0  0  0  0  0  0  0  0
   -1.3000   43.6380   50.4670 Cl  0  0  0  0  0  0  0  0  0  0  0  0
    1.3370   43.0170   50.8460 C   0  0  0  0  0  0  0  0  0  0  0  0
    8.2000   47.2110   54.0360 C   0  0  0  0  0  0  0  0  0  0  0  0
    9.7336   47.1452   56.1928 H   0  0  0  0  0  0  0  0  0  0  0  0
   11.2834   46.8209   55.3447 H   0  0  0  0  0  0  0  0  0  0  0  0
   10.5891   48.4776   55.3447 H   0  0  0  0  0  0  0  0  0  0  0  0
   11.3810   46.6631   52.8984 H   0  0  0  0  0  0  0  0  0  0  0  0
   10.1188   46.2258   50.7920 H   0  0  0  0  0  0  0  0  0  0  0  0
    7.6334   46.4267   50.7527 H   0  0  0  0  0  0  0  0  0  0  0  0
    5.7529   48.1191   53.3424 H   0  0  0  0  0  0  0  0  0  0  0  0
    5.6882   47.2597   51.7483 H   0  0  0  0  0  0  0  0  0  0  0  0
    5.5588   45.9242   54.4956 H   0  0  0  0  0  0  0  0  0  0  0  0
    3.1901   45.4346   53.0065 H   0  0  0  0  0  0  0  0  0  0  0  0
    3.3687   46.4596   54.4730 H   0  0  0  0  0  0  0  0  0  0  0  0
    4.0870   48.1340   52.9880 H   0  0  0  0  0  0  0  0  0  0  0  0
    5.8010   43.9480   53.3070 H   0  0  0  0  0  0  0  0  0  0  0  0
    6.8318   42.6668   49.9823 H   0  0  0  0  0  0  0  0  0  0  0  0
    5.7280   40.3400   49.6290 H   0  0  0  0  0  0  0  0  0  0  0  0
    3.2533   42.6039   53.6516 H   0  0  0  0  0  0  0  0  0  0  0  0
    1.0747   43.1638   54.7315 H   0  0  0  0  0  0  0  0  0  0  0  0
   -0.9427   43.6057   53.3286 H   0  0  0  0  0  0  0  0  0  0  0  0
    1.4154   43.0021   49.7489 H   0  0  0  0  0  0  0  0  0  0  0  0
    7.6594   47.4989   54.9497 H   0  0  0  0  0  0  0  0  0  0  0  0
  1  2  1  0
  2  3  2  0
  3  4  1  0
  4  5  2  0
  5  6  1  0
  6  7  1  0
  7  8  1  0
  8  9  1  0
  9 10  1  0
  8 11  1  0
 11 12  1  0
 12 13  2  0
 12 14  1  0
 14 15  2  0
 15 16  1  0
 16 17  1  0
 17 18  2  0
 18 19  1  0
 19 20  2  0
 20 21  1  0
 21 22  2  0
 22 23  1  0
 23 24  1  0
 23 25  2  0
  6 26  2  0
 26  2  1  0
 18 14  1  0
 25 19  1  0
  1 27  1  0
  1 28  1  0
  1 29  1  0
  3 30  1  0
  4 31  1  0
  5 32  1  0
  7 33  1  0
  7 34  1  0
  8 35  1  1
  9 36  1  0
  9 37  1  0
 10 38  1  0
 11 39  1  0
 15 40  1  0
 16 41  1  0
 20 42  1  0
 21 43  1  0
 22 44  1  0
 25 45  1  0
 26 46  1  0
M  END
>  <meeko>  (2) 
{"is_sidechain": [false], "free_energy": -9.35, "intermolecular_energy": -12.861, "internal_energy": -0.72}

$$$$
ligand_29_conformer_2_docked
     RDKit          3D

 46 48  0  0  0  0  0  0  0  0999 V2000
   10.5860   47.4210   55.5560 C   0  0  0  0  0  0  0  0  0  0  0  0
    9.8360   47.1480   54.2870 C   0  0  0  0  0  0  0  0  0  0  0  0
   10.5210   46.7840   53.1190 C   0  0  0  0  0  0  0  0  0  0  0  0
    9.8210   46.5840   51.9260 C   0  0  0  0  0  0  0  0  0  0  0  0
    8.4340   46.7560   51.8890 C   0  0  0  0  0  0  0  0  0  0  0  0
    7.7360   47.1290   53.0470 C   0  0  0  0  0  0  0  0  0  0  0  0
    6.2560   47.4150   52.9840 C   0  0  0  0  0  0  0  0  0  0  0  0
    5.5000   46.7530   54.1530 C   0  0  1  0  0  0  0  0  0  0  0  0
    4.3430   47.6460   54.6200 C   0  0  0  0  0  0  0  0  0  0  0  0
    4.2060   48.7360   53.7510 O   0  0  0  0  0  0  0  0  0  0  0  0
    4.9830   45.4400   53.7440 N   0  0  0  0  0  0  0  0  0  0  0  0
    3.9440   45.3110   52.7590 C   0  0  0  0  0  0  0  0  0  0  0  0
    3.7430   46.2510   51.9430 O   0  0  0  0  0  0  0  0  0  0  0  0
    3.0620   44.1220   52.7370 C   0  0  0  0  0  0  0  0  0  0  0  0
    1.8390   43.9790   53.3680 C   0  0  0  0  0  0  0  0  0  0  0  0
    1.2880   42.8180   52.9750 N   0  0  0  0  0  0  0  0  0  0  0  0
    2.0850   42.2060   52.1170 N   0  0  0  0  0  0  0  0  0  0  0  0
    3.1820   42.9730   51.9600 C   0  0  0  0  0  0  0  0  0  0  0  0
    4.2610   42.6380   51.0160 C   0  0  0  0  0  0  0  0  0  0  0  0
    4.2310   41.4370   50.2900 C   0  0  0  0  0  0  0  0  0  0  0  0
    5.2650   41.1250   49.4030 C   0  0  0  0  0  0  0  0  0  0  0  0
    6.3320   42.0120   49.2300 C   0  0  0  0  0  0  0  0  0  0  0  0
    6.3570   43.2210   49.9350 C   0  0  0  0  0  0  0  0  0  0  0  0
    7.6950   44.3330   49.7220 Cl  0  0  0  0  0  0  0  0  0  0  0  0
    5.3180   43.5390   50.8160 C   0  0  0  0  0  0  0  0  0  0  0  0
    8.4450   47.3310   54.2430 C   0  0  0  0  0  0  0  0  0  0  0  0
    9.9445   47.1875   56.4185 H   0  0  0  0  0  0  0  0  0  0  0  0
   11.4891   46.7939   55.5903 H   0  0  0  0  0  0  0  0  0  0  0  0
   10.8747   48.4819   55.5903 H   0  0  0  0  0  0  0  0  0  0  0  0
   11.6132   46.6554   53.1417 H   0  0  0  0  0  0  0  0  0  0  0  0
   10.3623   46.2907   51.0144 H   0  0  0  0  0  0  0  0  0  0  0  0
    7.8877   46.5981   50.9474 H   0  0  0  0  0  0  0  0  0  0  0  0
    6.1004   48.5030   53.0288 H   0  0  0  0  0  0  0  0  0  0  0  0
    5.8652   47.0007   52.0429 H   0  0  0  0  0  0  0  0  0  0  0  0
    6.2025   46.6186   54.9888 H   0  0  0  0  0  0  0  0  0  0  0  0
    3.4103   47.0629   54.6247 H   0  0  0  0  0  0  0  0  0  0  0  0
    4.5543   48.0141   55.6348 H   0  0  0  0  0  0  0  0  0  0  0  0
    3.3170   49.1320   53.9460 H   0  0  0  0  0  0  0  0  0  0  0  0
    5.2060   44.6260   54.3570 H   0  0  0  0  0  0  0  0  0  0  0  0
    1.3925   44.6955   54.0732 H   0  0  0  0  0  0  0  0  0  0  0  0
    0.3590   42.4470   53.2790 H   0  0  0  0  0  0  0  0  0  0  0  0
    3.3908   40.7390   50.4197 H   0  0  0  0  0  0  0  0  0  0  0  0
    5.2394   40.1803   48.8401 H   0  0  0  0  0  0  0  0  0  0  0  0
    7.1511   41.7599   48.5404 H   0  0  0  0  0  0  0  0  0  0  0  0
    5.3296   44.4985   51.3538 H   0  0  0  0  0  0  0  0  0  0  0  0
    7.9057   47.6350   55.1522 H   0  0  0  0  0  0  0  0  0  0  0  0
  1  2  1  0
  2  3  2  0
  3  4  1  0
  4  5  2  0
  5  6  1  0
  6  7  1  0
  7  8  1  0
  8  9  1  0
  9 10  1  0
  8 11  1  0
 11 12  1  0
 12 13  2  0
 12 14  1  0
 14 15  2  0
 15 16  1  0
 16 17  1  0
 17 18  2  0
 18 19  1  0
 19 20  2  0
 20 21  1  0
 21 22  2  0
 22 23  1  0
 23 24  1  0
 23 25  2  0
  6 26  2  0
 26  2  1  0
 18 14  1  0
 25 19  1  0
  1 27  1  0
  1 28  1  0
  1 29  1  0
  3 30  1  0
  4 31  1  0
  5 32  1  0
  7 33  1  0
  7 34  1  0
  8 35  1  1
  9 36  1  0
  9 37  1  0
 10 38  1  0
 11 39  1  0
 15 40  1  0
 16 41  1  0
 20 42  1  0
 21 43  1  0
 22 44  1  0
 25 45  1  0
 26 46  1  0
M  END
>  <meeko>  (3) 
{"is_sidechain": [false], "free_energy": -9.29, "intermolecular_energy": -13.353, "internal_energy": -0.146}

$$$$
ligand_29_conformer_2_docked
     RDKit          3D

 46 48  0  0  0  0  0  0  0  0999 V2000
    5.3420   44.9640   55.3460 C   0  0  0  0  0  0  0  0  0  0  0  0
    4.5580   45.6500   54.2680 C   0  0  0  0  0  0  0  0  0  0  0  0
    4.6470   47.0400   54.0970 C   0  0  0  0  0  0  0  0  0  0  0  0
    3.8720   47.6790   53.1250 C   0  0  0  0  0  0  0  0  0  0  0  0
    2.9970   46.9390   52.3260 C   0  0  0  0  0  0  0  0  0  0  0  0
    2.8900   45.5500   52.4920 C   0  0  0  0  0  0  0  0  0  0  0  0
    1.8710   44.7650   51.7020 C   0  0  0  0  0  0  0  0  0  0  0  0
    1.8970   43.2690   52.0710 C   0  0  1  0  0  0  0  0  0  0  0  0
    0.4910   42.7810   52.4440 C   0  0  0  0  0  0  0  0  0  0  0  0
    0.5790   41.8160   53.4560 O   0  0  0  0  0  0  0  0  0  0  0  0
    2.4170   42.4780   50.9460 N   0  0  0  0  0  0  0  0  0  0  0  0
    3.7230   41.8790   50.9850 C   0  0  0  0  0  0  0  0  0  0  0  0
    4.2760   41.6670   52.0980 O   0  0  0  0  0  0  0  0  0  0  0  0
    4.4560   41.5750   49.7350 C   0  0  0  0  0  0  0  0  0  0  0  0
    4.1110   40.6440   48.7720 C   0  0  0  0  0  0  0  0  0  0  0  0
    4.9420   40.7820   47.7240 N   0  0  0  0  0  0  0  0  0  0  0  0
    5.8000   41.7610   47.9550 N   0  0  0  0  0  0  0  0  0  0  0  0
    5.5360   42.2560   49.1800 C   0  0  0  0  0  0  0  0  0  0  0  0
    6.2530   43.4120   49.7440 C   0  0  0  0  0  0  0  0  0  0  0  0
    5.5500   44.4650   50.3490 C   0  0  0  0  0  0  0  0  0  0  0  0
    6.2410   45.5620   50.8730 C   0  0  0  0  0  0  0  0  0  0  0  0
    7.6360   45.6110   50.8020 C   0  0  0  0  0  0  0  0  0  0  0  0
    8.3440   44.5530   50.2190 C   0  0  0  0  0  0  0  0  0  0  0  0
   10.0940   44.6140   50.1270 Cl  0  0  0  0  0  0  0  0  0  0  0  0
    7.6550   43.4510   49.7030 C   0  0  0  0  0  0  0  0  0  0  0  0
    3.6690   44.9120   53.4710 C   0  0  0  0  0  0  0  0  0  0  0  0
    4.9725   45.2873   56.3304 H   0  0  0  0  0  0  0  0  0  0  0  0
    5.2229   43.8747   55.2493 H   0  0  0  0  0  0  0  0  0  0  0  0
    6.4058   45.2266   55.2493 H   0  0  0  0  0  0  0  0  0  0  0  0
    5.3283   47.6281   54.7294 H   0  0  0  0  0  0  0  0  0  0  0  0
    3.9513   48.7677   52.9888 H   0  0  0  0  0  0  0  0  0  0  0  0
    2.3892   47.4477   51.5633 H   0  0  0  0  0  0  0  0  0  0  0  0
    0.8691   45.1672   51.9126 H   0  0  0  0  0  0  0  0  0  0  0  0
    2.1161   44.8602   50.6339 H   0  0  0  0  0  0  0  0  0  0  0  0
    2.5585   43.1381   52.9401 H   0  0  0  0  0  0  0  0  0  0  0  0
   -0.1085   43.6314   52.8009 H   0  0  0  0  0  0  0  0  0  0  0  0
    0.0125   42.3375   51.5584 H   0  0  0  0  0  0  0  0  0  0  0  0
    0.1530   40.9970   53.0910 H   0  0  0  0  0  0  0  0  0  0  0  0
    1.9260   42.5680   50.0310 H   0  0  0  0  0  0  0  0  0  0  0  0
    3.2931   39.9126   48.8504 H   0  0  0  0  0  0  0  0  0  0  0  0
    4.9150   40.2220   46.8430 H   0  0  0  0  0  0  0  0  0  0  0  0
    4.4524   44.4274   50.4112 H   0  0  0  0  0  0  0  0  0  0  0  0
    5.6857   46.3877   51.3419 H   0  0  0  0  0  0  0  0  0  0  0  0
    8.1773   46.4802   51.2039 H   0  0  0  0  0  0  0  0  0  0  0  0
    8.2140   42.6118   49.2634 H   0  0  0  0  0  0  0  0  0  0  0  0
    3.5817   43.8249   53.6144 H   0  0  0  0  0  0  0  0  0  0  0  0
  1  2  1  0
  2  3  2  0
  3  4  1  0
  4  5  2  0
  5  6  1  0
  6  7  1  0
  7  8  1  0
  8  9  1  0
  9 10  1  0
  8 11  1  0
 11 12  1  0
 12 13  2  0
 12 14  1  0
 14 15  2  0
 15 16  1  0
 16 17  1  0
 17 18  2  0
 18 19  1  0
 19 20  2  0
 20 21  1  0
 21 22  2  0
 22 23  1  0
 23 24  1  0
 23 25  2  0
  6 26  2  0
 26  2  1  0
 18 14  1  0
 25 19  1  0
  1 27  1  0
  1 28  1  0
  1 29  1  0
  3 30  1  0
  4 31  1  0
  5 32  1  0
  7 33  1  0
  7 34  1  0
  8 35  1  1
  9 36  1  0
  9 37  1  0
 10 38  1  0
 11 39  1  0
 15 40  1  0
 16 41  1  0
 20 42  1  0
 21 43  1  0
 22 44  1  0
 25 45  1  0
 26 46  1  0
M  END
>  <meeko>  (4) 
{"is_sidechain": [false], "free_energy": -8.786, "intermolecular_energy": -10.944, "internal_energy": -1.86}

$$$$
ligand_29_conformer_2_docked
     RDKit          3D

 46 48  0  0  0  0  0  0  0  0999 V2000
    5.9630   41.6170   49.2390 C   0  0  0  0  0  0  0  0  0  0  0  0
    6.4640   42.9570   49.6860 C   0  0  0  0  0  0  0  0  0  0  0  0
    7.6610   43.4780   49.1700 C   0  0  0  0  0  0  0  0  0  0  0  0
    8.1500   44.7030   49.6310 C   0  0  0  0  0  0  0  0  0  0  0  0
    7.4570   45.4110   50.6160 C   0  0  0  0  0  0  0  0  0  0  0  0
    6.2650   44.8980   51.1490 C   0  0  0  0  0  0  0  0  0  0  0  0
    5.5710   45.6090   52.2850 C   0  0  0  0  0  0  0  0  0  0  0  0
    4.9190   44.6130   53.2650 C   0  0  1  0  0  0  0  0  0  0  0  0
    5.3660   44.9030   54.7030 C   0  0  0  0  0  0  0  0  0  0  0  0
    4.2660   44.8170   55.5670 O   0  0  0  0  0  0  0  0  0  0  0  0
    3.4550   44.6940   53.1710 N   0  0  0  0  0  0  0  0  0  0  0  0
    2.6680   43.5920   52.6890 C   0  0  0  0  0  0  0  0  0  0  0  0
    3.1450   42.4260   52.7250 O   0  0  0  0  0  0  0  0  0  0  0  0
    1.3350   43.8180   52.0860 C   0  0  0  0  0  0  0  0  0  0  0  0
    0.9630   43.5850   50.7740 C   0  0  0  0  0  0  0  0  0  0  0  0
   -0.3650   43.7680   50.6660 N   0  0  0  0  0  0  0  0  0  0  0  0
   -0.8720   44.0980   51.8410 N   0  0  0  0  0  0  0  0  0  0  0  0
    0.1430   44.1480   52.7250 C   0  0  0  0  0  0  0  0  0  0  0  0
   -0.0620   44.4160   54.1590 C   0  0  0  0  0  0  0  0  0  0  0  0
    0.8170   45.2530   54.8630 C   0  0  0  0  0  0  0  0  0  0  0  0
    0.6180   45.4930   56.2260 C   0  0  0  0  0  0  0  0  0  0  0  0
   -0.4610   44.9050   56.8920 C   0  0  0  0  0  0  0  0  0  0  0  0
   -1.3530   44.0860   56.1900 C   0  0  0  0  0  0  0  0  0  0  0  0
   -2.7060   43.3450   57.0230 Cl  0  0  0  0  0  0  0  0  0  0  0  0
   -1.1610   43.8530   54.8240 C   0  0  0  0  0  0  0  0  0  0  0  0
    5.7770   43.6650   50.6840 C   0  0  0  0  0  0  0  0  0  0  0  0
    5.7321   40.9995   50.1195 H   0  0  0  0  0  0  0  0  0  0  0  0
    5.0533   41.7486   48.6347 H   0  0  0  0  0  0  0  0  0  0  0  0
    6.7359   41.1195   48.6347 H   0  0  0  0  0  0  0  0  0  0  0  0
    8.2154   42.9204   48.4008 H   0  0  0  0  0  0  0  0  0  0  0  0
    9.0837   45.1113   49.2170 H   0  0  0  0  0  0  0  0  0  0  0  0
    7.8476   46.3746   50.9751 H   0  0  0  0  0  0  0  0  0  0  0  0
    6.3091   46.2151   52.8307 H   0  0  0  0  0  0  0  0  0  0  0  0
    4.7783   46.2427   51.8608 H   0  0  0  0  0  0  0  0  0  0  0  0
    5.2410   43.5969   52.9932 H   0  0  0  0  0  0  0  0  0  0  0  0
    6.1261   44.1674   55.0048 H   0  0  0  0  0  0  0  0  0  0  0  0
    5.7908   45.9163   54.7546 H   0  0  0  0  0  0  0  0  0  0  0  0
    4.4270   44.0210   56.1370 H   0  0  0  0  0  0  0  0  0  0  0  0
    3.0240   45.6420   53.2250 H   0  0  0  0  0  0  0  0  0  0  0  0
    1.6401   43.2981   49.9560 H   0  0  0  0  0  0  0  0  0  0  0  0
   -0.9300   43.6520   49.7950 H   0  0  0  0  0  0  0  0  0  0  0  0
    1.6646   45.7214   54.3414 H   0  0  0  0  0  0  0  0  0  0  0  0
    1.3121   46.1460   56.7753 H   0  0  0  0  0  0  0  0  0  0  0  0
   -0.6091   45.0857   57.9669 H   0  0  0  0  0  0  0  0  0  0  0  0
   -1.8746   43.2259   54.2695 H   0  0  0  0  0  0  0  0  0  0  0  0
    4.8490   43.2515   51.1057 H   0  0  0  0  0  0  0  0  0  0  0  0
  1  2  1  0
  2  3  2  0
  3  4  1  0
  4  5  2  0
  5  6  1  0
  6  7  1  0
  7  8  1  0
  8  9  1  0
  9 10  1  0
  8 11  1  0
 11 12  1  0
 12 13  2  0
 12 14  1  0
 14 15  2  0
 15 16  1  0
 16 17  1  0
 17 18  2  0
 18 19  1  0
 19 20  2  0
 20 21  1  0
 21 22  2  0
 22 23  1  0
 23 24  1  0
 23 25  2  0
  6 26  2  0
 26  2  1  0
 18 14  1  0
 25 19  1  0
  1 27  1  0
  1 28  1  0
  1 29  1  0
  3 30  1  0
  4 31  1  0
  5 32  1  0
  7 33  1  0
  7 34  1  0
  8 35  1  6
  9 36  1  0
  9 37  1  0
 10 38  1  0
 11 39  1  0
 15 40  1  0
 16 41  1  0
 20 42  1  0
 21 43  1  0
 22 44  1  0
 25 45  1  0
 26 46  1  0
M  END
>  <meeko>  (5) 
{"is_sidechain": [false], "free_energy": -8.41, "intermolecular_energy": -11.624, "internal_energy": -0.661}

$$$$
