ligand_37_conformer_1_docked
     RDKit          3D

 44 46  0  0  0  0  0  0  0  0999 V2000
   11.0710   47.6370   56.2730 C   0  0  0  0  0  0  0  0  0  0  0  0
    9.8250   48.0620   55.7350 O   0  0  0  0  0  0  0  0  0  0  0  0
    9.2430   47.4640   54.6140 C   0  0  0  0  0  0  0  0  0  0  0  0
   10.0010   47.2860   53.4570 C   0  0  0  0  0  0  0  0  0  0  0  0
    9.3990   46.6910   52.3510 C   0  0  0  0  0  0  0  0  0  0  0  0
    8.1010   46.2980   52.4160 N   0  0  0  0  0  0  0  0  0  0  0  0
    7.3670   46.4690   53.5510 C   0  0  0  0  0  0  0  0  0  0  0  0
    5.9870   46.0490   53.5990 N   0  0  0  0  0  0  0  0  0  0  0  0
    5.2910   45.9950   54.8880 C   0  0  0  0  0  0  0  0  0  0  0  0
    5.2220   45.9000   52.3890 C   0  0  0  0  0  0  0  0  0  0  0  0
    4.4110   46.8070   52.0570 O   0  0  0  0  0  0  0  0  0  0  0  0
    5.3500   44.6900   51.5400 C   0  0  0  0  0  0  0  0  0  0  0  0
    4.5050   43.5870   51.7430 C   0  0  0  0  0  0  0  0  0  0  0  0
    4.6250   42.4440   50.9480 C   0  0  0  0  0  0  0  0  0  0  0  0
    5.5940   42.3860   49.9300 C   0  0  0  0  0  0  0  0  0  0  0  0
    5.7570   41.2550   49.1170 O   0  0  0  0  0  0  0  0  0  0  0  0
    5.0400   40.9930   47.9420 C   0  0  0  0  0  0  0  0  0  0  0  0
    5.4720   41.5570   46.7400 C   0  0  0  0  0  0  0  0  0  0  0  0
    4.7530   41.3150   45.5690 C   0  0  0  0  0  0  0  0  0  0  0  0
    3.6110   40.5010   45.5970 C   0  0  0  0  0  0  0  0  0  0  0  0
    2.7960   40.2750   44.3490 C   0  0  0  0  0  0  0  0  0  0  0  0
    1.9520   39.1900   44.5090 F   0  0  0  0  0  0  0  0  0  0  0  0
    3.6490   40.0290   43.2890 F   0  0  0  0  0  0  0  0  0  0  0  0
    2.0250   41.3870   44.0580 F   0  0  0  0  0  0  0  0  0  0  0  0
    3.1910   39.9840   46.8340 C   0  0  0  0  0  0  0  0  0  0  0  0
    3.9090   40.2350   47.9610 N   0  0  0  0  0  0  0  0  0  0  0  0
    6.4570   43.4720   49.7470 C   0  0  0  0  0  0  0  0  0  0  0  0
    6.3380   44.6160   50.5410 C   0  0  0  0  0  0  0  0  0  0  0  0
    7.9450   47.0550   54.6360 N   0  0  0  0  0  0  0  0  0  0  0  0
   11.0209   47.6541   57.3717 H   0  0  0  0  0  0  0  0  0  0  0  0
   11.2880   46.6140   55.9317 H   0  0  0  0  0  0  0  0  0  0  0  0
   11.8679   48.3142   55.9317 H   0  0  0  0  0  0  0  0  0  0  0  0
   11.0519   47.6087   53.4188 H   0  0  0  0  0  0  0  0  0  0  0  0
    9.9745   46.5396   51.4258 H   0  0  0  0  0  0  0  0  0  0  0  0
    6.0261   46.0520   55.7043 H   0  0  0  0  0  0  0  0  0  0  0  0
    4.5928   46.8417   54.9635 H   0  0  0  0  0  0  0  0  0  0  0  0
    4.7318   45.0508   54.9635 H   0  0  0  0  0  0  0  0  0  0  0  0
    3.7421   43.6230   52.5346 H   0  0  0  0  0  0  0  0  0  0  0  0
    3.9586   41.5857   51.1191 H   0  0  0  0  0  0  0  0  0  0  0  0
    6.3729   42.1877   46.7164 H   0  0  0  0  0  0  0  0  0  0  0  0
    5.0829   41.7641   44.6206 H   0  0  0  0  0  0  0  0  0  0  0  0
    2.2776   39.3737   46.8910 H   0  0  0  0  0  0  0  0  0  0  0  0
    7.2358   43.4250   48.9716 H   0  0  0  0  0  0  0  0  0  0  0  0
    7.0210   45.4638   50.3839 H   0  0  0  0  0  0  0  0  0  0  0  0
  1  2  1  0
  2  3  1  0
  3  4  2  0
  4  5  1  0
  5  6  2  0
  6  7  1  0
  7  8  1  0
  8  9  1  0
  8 10  1  0
 10 11  2  0
 10 12  1  0
 12 13  2  0
 13 14  1  0
 14 15  2  0
 15 16  1  0
 16 17  1  0
 17 18  2  0
 18 19  1  0
 19 20  2  0
 20 21  1  0
 21 22  1  0
 21 23  1  0
 21 24  1  0
 20 25  1  0
 25 26  2  0
 15 27  1  0
 27 28  2  0
  7 29  2  0
 29  3  1  0
 28 12  1  0
 26 17  1  0
  1 30  1  0
  1 31  1  0
  1 32  1  0
  4 33  1  0
  5 34  1  0
  9 35  1  0
  9 36  1  0
  9 37  1  0
 13 38  1  0
 14 39  1  0
 18 40  1  0
 19 41  1  0
 25 42  1  0
 27 43  1  0
 28 44  1  0
M  END
>  <meeko>  (1) 
{"is_sidechain": [false], "free_energy": -9.068, "intermolecular_energy": -12.778, "internal_energy": -0.435}

$$$$
ligand_37_conformer_1_docked
     RDKit          3D

 44 46  0  0  0  0  0  0  0  0999 V2000
   10.2790   45.1760   50.9940 C   0  0  0  0  0  0  0  0  0  0  0  0
   10.5820   46.0400   52.0830 O   0  0  0  0  0  0  0  0  0  0  0  0
    9.6110   46.4900   52.9830 C   0  0  0  0  0  0  0  0  0  0  0  0
    9.9520   47.4400   53.9440 C   0  0  0  0  0  0  0  0  0  0  0  0
    8.9690   47.8720   54.8320 C   0  0  0  0  0  0  0  0  0  0  0  0
    7.7110   47.3670   54.7470 N   0  0  0  0  0  0  0  0  0  0  0  0
    7.3830   46.4430   53.8020 C   0  0  0  0  0  0  0  0  0  0  0  0
    6.0420   45.9150   53.7300 N   0  0  0  0  0  0  0  0  0  0  0  0
    5.3020   45.6460   54.9670 C   0  0  0  0  0  0  0  0  0  0  0  0
    5.3410   45.8590   52.4740 C   0  0  0  0  0  0  0  0  0  0  0  0
    4.5730   46.8080   52.1550 O   0  0  0  0  0  0  0  0  0  0  0  0
    5.4830   44.6980   51.5620 C   0  0  0  0  0  0  0  0  0  0  0  0
    4.6580   43.5710   51.7130 C   0  0  0  0  0  0  0  0  0  0  0  0
    4.7920   42.4740   50.8580 C   0  0  0  0  0  0  0  0  0  0  0  0
    5.7530   42.4870   49.8320 C   0  0  0  0  0  0  0  0  0  0  0  0
    5.9300   41.4030   48.9590 O   0  0  0  0  0  0  0  0  0  0  0  0
    5.1310   41.1250   47.8410 C   0  0  0  0  0  0  0  0  0  0  0  0
    5.5020   41.6360   46.5960 C   0  0  0  0  0  0  0  0  0  0  0  0
    4.7030   41.3790   45.4810 C   0  0  0  0  0  0  0  0  0  0  0  0
    3.5410   40.6040   45.6100 C   0  0  0  0  0  0  0  0  0  0  0  0
    2.6420   40.3630   44.4240 C   0  0  0  0  0  0  0  0  0  0  0  0
    3.3900   40.0660   43.2980 F   0  0  0  0  0  0  0  0  0  0  0  0
    1.8960   41.5020   44.1810 F   0  0  0  0  0  0  0  0  0  0  0  0
    1.7830   39.3050   44.6660 F   0  0  0  0  0  0  0  0  0  0  0  0
    3.1860   40.1420   46.8870 C   0  0  0  0  0  0  0  0  0  0  0  0
    3.9810   40.4060   47.9580 N   0  0  0  0  0  0  0  0  0  0  0  0
    6.5960   43.5950   49.7010 C   0  0  0  0  0  0  0  0  0  0  0  0
    6.4640   44.6930   50.5540 C   0  0  0  0  0  0  0  0  0  0  0  0
    8.3390   46.0110   52.9320 N   0  0  0  0  0  0  0  0  0  0  0  0
    9.9382   44.2043   51.3808 H   0  0  0  0  0  0  0  0  0  0  0  0
    9.4847   45.6251   50.3796 H   0  0  0  0  0  0  0  0  0  0  0  0
   11.1798   45.0306   50.3796 H   0  0  0  0  0  0  0  0  0  0  0  0
   10.9751   47.8401   54.0003 H   0  0  0  0  0  0  0  0  0  0  0  0
    9.2114   48.6207   55.6005 H   0  0  0  0  0  0  0  0  0  0  0  0
    5.9392   45.8776   55.8332 H   0  0  0  0  0  0  0  0  0  0  0  0
    4.3990   46.2734   54.9979 H   0  0  0  0  0  0  0  0  0  0  0  0
    5.0127   44.5852   54.9979 H   0  0  0  0  0  0  0  0  0  0  0  0
    3.9006   43.5520   52.5105 H   0  0  0  0  0  0  0  0  0  0  0  0
    4.1424   41.5959   50.9883 H   0  0  0  0  0  0  0  0  0  0  0  0
    6.4177   42.2370   46.4945 H   0  0  0  0  0  0  0  0  0  0  0  0
    4.9852   41.7852   44.4985 H   0  0  0  0  0  0  0  0  0  0  0  0
    2.2602   39.5636   47.0220 H   0  0  0  0  0  0  0  0  0  0  0  0
    7.3699   43.6019   48.9193 H   0  0  0  0  0  0  0  0  0  0  0  0
    7.1315   45.5594   50.4368 H   0  0  0  0  0  0  0  0  0  0  0  0
  1  2  1  0
  2  3  1  0
  3  4  2  0
  4  5  1  0
  5  6  2  0
  6  7  1  0
  7  8  1  0
  8  9  1  0
  8 10  1  0
 10 11  2  0
 10 12  1  0
 12 13  2  0
 13 14  1  0
 14 15  2  0
 15 16  1  0
 16 17  1  0
 17 18  2  0
 18 19  1  0
 19 20  2  0
 20 21  1  0
 21 22  1  0
 21 23  1  0
 21 24  1  0
 20 25  1  0
 25 26  2  0
 15 27  1  0
 27 28  2  0
  7 29  2  0
 29  3  1  0
 28 12  1  0
 26 17  1  0
  1 30  1  0
  1 31  1  0
  1 32  1  0
  4 33  1  0
  5 34  1  0
  9 35  1  0
  9 36  1  0
  9 37  1  0
 13 38  1  0
 14 39  1  0
 18 40  1  0
 19 41  1  0
 25 42  1  0
 27 43  1  0
 28 44  1  0
M  END
>  <meeko>  (2) 
{"is_sidechain": [false], "free_energy": -8.956, "intermolecular_energy": -12.259, "internal_energy": -0.796}

$$$$
ligand_37_conformer_1_docked
     RDKit          3D

 44 46  0  0  0  0  0  0  0  0999 V2000
    0.9260   46.8050   58.3360 C   0  0  0  0  0  0  0  0  0  0  0  0
    0.7020   45.5780   57.6520 O   0  0  0  0  0  0  0  0  0  0  0  0
   -0.3400   45.4030   56.7360 C   0  0  0  0  0  0  0  0  0  0  0  0
   -1.5460   46.0740   56.9300 C   0  0  0  0  0  0  0  0  0  0  0  0
   -2.5710   45.8820   56.0070 C   0  0  0  0  0  0  0  0  0  0  0  0
   -2.3810   45.0560   54.9460 N   0  0  0  0  0  0  0  0  0  0  0  0
   -1.1980   44.4070   54.7590 C   0  0  0  0  0  0  0  0  0  0  0  0
   -1.0170   43.5290   53.6290 N   0  0  0  0  0  0  0  0  0  0  0  0
   -2.0500   43.4610   52.5910 C   0  0  0  0  0  0  0  0  0  0  0  0
    0.2520   42.8920   53.3890 C   0  0  0  0  0  0  0  0  0  0  0  0
    0.4450   41.7230   53.8210 O   0  0  0  0  0  0  0  0  0  0  0  0
    1.3430   43.5930   52.6680 C   0  0  0  0  0  0  0  0  0  0  0  0
    2.6050   42.9910   52.5300 C   0  0  0  0  0  0  0  0  0  0  0  0
    3.6360   43.6500   51.8550 C   0  0  0  0  0  0  0  0  0  0  0  0
    3.4210   44.9240   51.3020 C   0  0  0  0  0  0  0  0  0  0  0  0
    4.4320   45.6260   50.6280 O   0  0  0  0  0  0  0  0  0  0  0  0
    5.6990   45.9200   51.1490 C   0  0  0  0  0  0  0  0  0  0  0  0
    6.8340   45.4480   50.4870 C   0  0  0  0  0  0  0  0  0  0  0  0
    8.0990   45.7210   51.0090 C   0  0  0  0  0  0  0  0  0  0  0  0
    8.2280   46.4740   52.1860 C   0  0  0  0  0  0  0  0  0  0  0  0
    9.5870   46.7310   52.7880 C   0  0  0  0  0  0  0  0  0  0  0  0
    9.8840   45.7740   53.7430 F   0  0  0  0  0  0  0  0  0  0  0  0
    9.5910   47.9780   53.3840 F   0  0  0  0  0  0  0  0  0  0  0  0
   10.5700   46.6930   51.8150 F   0  0  0  0  0  0  0  0  0  0  0  0
    7.0600   46.8970   52.8390 C   0  0  0  0  0  0  0  0  0  0  0  0
    5.8390   46.6170   52.3100 N   0  0  0  0  0  0  0  0  0  0  0  0
    2.1760   45.5380   51.4670 C   0  0  0  0  0  0  0  0  0  0  0  0
    1.1430   44.8810   52.1410 C   0  0  0  0  0  0  0  0  0  0  0  0
   -0.1920   44.5850   55.6590 N   0  0  0  0  0  0  0  0  0  0  0  0
    0.8942   46.6307   59.4216 H   0  0  0  0  0  0  0  0  0  0  0  0
    1.9121   47.2053   58.0576 H   0  0  0  0  0  0  0  0  0  0  0  0
    0.1450   47.5279   58.0576 H   0  0  0  0  0  0  0  0  0  0  0  0
   -1.6853   46.7409   57.7936 H   0  0  0  0  0  0  0  0  0  0  0  0
   -3.5333   46.3988   56.1372 H   0  0  0  0  0  0  0  0  0  0  0  0
   -3.0411   43.3958   53.0637 H   0  0  0  0  0  0  0  0  0  0  0  0
   -2.0010   44.3643   51.9652 H   0  0  0  0  0  0  0  0  0  0  0  0
   -1.8830   42.5719   51.9652 H   0  0  0  0  0  0  0  0  0  0  0  0
    2.7829   41.9929   52.9567 H   0  0  0  0  0  0  0  0  0  0  0  0
    4.6205   43.1693   51.7560 H   0  0  0  0  0  0  0  0  0  0  0  0
    6.7317   44.8647   49.5600 H   0  0  0  0  0  0  0  0  0  0  0  0
    8.9969   45.3451   50.4967 H   0  0  0  0  0  0  0  0  0  0  0  0
    7.1325   47.4574   53.7827 H   0  0  0  0  0  0  0  0  0  0  0  0
    2.0080   46.5471   51.0628 H   0  0  0  0  0  0  0  0  0  0  0  0
    0.1672   45.3747   52.2599 H   0  0  0  0  0  0  0  0  0  0  0  0
  1  2  1  0
  2  3  1  0
  3  4  2  0
  4  5  1  0
  5  6  2  0
  6  7  1  0
  7  8  1  0
  8  9  1  0
  8 10  1  0
 10 11  2  0
 10 12  1  0
 12 13  2  0
 13 14  1  0
 14 15  2  0
 15 16  1  0
 16 17  1  0
 17 18  2  0
 18 19  1  0
 19 20  2  0
 20 21  1  0
 21 22  1  0
 21 23  1  0
 21 24  1  0
 20 25  1  0
 25 26  2  0
 15 27  1  0
 27 28  2  0
  7 29  2  0
 29  3  1  0
 28 12  1  0
 26 17  1  0
  1 30  1  0
  1 31  1  0
  1 32  1  0
  4 33  1  0
  5 34  1  0
  9 35  1  0
  9 36  1  0
  9 37  1  0
 13 38  1  0
 14 39  1  0
 18 40  1  0
 19 41  1  0
 25 42  1  0
 27 43  1  0
 28 44  1  0
M  END
>  <meeko>  (3) 
{"is_sidechain": [false], "free_energy": -8.884, "intermolecular_energy": -12.101, "internal_energy": -0.854}

$$$$
ligand_37_conformer_1_docked
     RDKit          3D

 44 46  0  0  0  0  0  0  0  0999 V2000
   -3.4790   42.3940   59.3140 C   0  0  0  0  0  0  0  0  0  0  0  0
   -3.3980   42.3340   57.8950 O   0  0  0  0  0  0  0  0  0  0  0  0
   -2.8100   43.3450   57.1290 C   0  0  0  0  0  0  0  0  0  0  0  0
   -2.7670   44.6470   57.6230 C   0  0  0  0  0  0  0  0  0  0  0  0
   -2.1780   45.6380   56.8400 C   0  0  0  0  0  0  0  0  0  0  0  0
   -1.6620   45.3230   55.6240 N   0  0  0  0  0  0  0  0  0  0  0  0
   -1.7020   44.0470   55.1490 C   0  0  0  0  0  0  0  0  0  0  0  0
   -1.1530   43.7320   53.8530 N   0  0  0  0  0  0  0  0  0  0  0  0
   -1.9560   43.9640   52.6490 C   0  0  0  0  0  0  0  0  0  0  0  0
    0.2430   43.4090   53.7060 C   0  0  0  0  0  0  0  0  0  0  0  0
    0.5850   42.2010   53.5900 O   0  0  0  0  0  0  0  0  0  0  0  0
    1.2850   44.4650   53.7130 C   0  0  0  0  0  0  0  0  0  0  0  0
    2.1820   44.5690   54.7890 C   0  0  0  0  0  0  0  0  0  0  0  0
    3.1620   45.5660   54.8020 C   0  0  0  0  0  0  0  0  0  0  0  0
    3.2640   46.4740   53.7340 C   0  0  0  0  0  0  0  0  0  0  0  0
    4.2250   47.4960   53.7120 O   0  0  0  0  0  0  0  0  0  0  0  0
    5.5980   47.3120   53.5010 C   0  0  0  0  0  0  0  0  0  0  0  0
    6.0450   46.9000   52.2440 C   0  0  0  0  0  0  0  0  0  0  0  0
    7.4090   46.6970   52.0310 C   0  0  0  0  0  0  0  0  0  0  0  0
    8.3250   46.9160   53.0700 C   0  0  0  0  0  0  0  0  0  0  0  0
    9.7950   46.6500   52.8680 C   0  0  0  0  0  0  0  0  0  0  0  0
   10.5470   47.3270   53.8130 F   0  0  0  0  0  0  0  0  0  0  0  0
   10.1650   47.0800   51.6070 F   0  0  0  0  0  0  0  0  0  0  0  0
   10.0690   45.2980   52.9810 F   0  0  0  0  0  0  0  0  0  0  0  0
    7.8290   47.2950   54.3280 C   0  0  0  0  0  0  0  0  0  0  0  0
    6.4950   47.4850   54.5100 N   0  0  0  0  0  0  0  0  0  0  0  0
    2.3520   46.3910   52.6780 C   0  0  0  0  0  0  0  0  0  0  0  0
    1.3710   45.3950   52.6630 C   0  0  0  0  0  0  0  0  0  0  0  0
   -2.2800   43.0720   55.9050 N   0  0  0  0  0  0  0  0  0  0  0  0
   -2.6686   41.7937   59.7532 H   0  0  0  0  0  0  0  0  0  0  0  0
   -3.3809   43.4391   59.6430 H   0  0  0  0  0  0  0  0  0  0  0  0
   -4.4501   41.9956   59.6430 H   0  0  0  0  0  0  0  0  0  0  0  0
   -3.1889   44.8876   58.6100 H   0  0  0  0  0  0  0  0  0  0  0  0
   -2.1311   46.6741   57.2065 H   0  0  0  0  0  0  0  0  0  0  0  0
   -2.9753   44.2585   52.9392 H   0  0  0  0  0  0  0  0  0  0  0  0
   -1.4984   44.7667   52.0521 H   0  0  0  0  0  0  0  0  0  0  0  0
   -1.9970   43.0410   52.0521 H   0  0  0  0  0  0  0  0  0  0  0  0
    2.1128   43.8606   55.6277 H   0  0  0  0  0  0  0  0  0  0  0  0
    3.8564   45.6402   55.6519 H   0  0  0  0  0  0  0  0  0  0  0  0
    5.3267   46.7366   51.4271 H   0  0  0  0  0  0  0  0  0  0  0  0
    7.7667   46.3643   51.0454 H   0  0  0  0  0  0  0  0  0  0  0  0
    8.5226   47.4387   55.1696 H   0  0  0  0  0  0  0  0  0  0  0  0
    2.4066   47.1153   51.8519 H   0  0  0  0  0  0  0  0  0  0  0  0
    0.6619   45.3390   51.8239 H   0  0  0  0  0  0  0  0  0  0  0  0
  1  2  1  0
  2  3  1  0
  3  4  2  0
  4  5  1  0
  5  6  2  0
  6  7  1  0
  7  8  1  0
  8  9  1  0
  8 10  1  0
 10 11  2  0
 10 12  1  0
 12 13  2  0
 13 14  1  0
 14 15  2  0
 15 16  1  0
 16 17  1  0
 17 18  2  0
 18 19  1  0
 19 20  2  0
 20 21  1  0
 21 22  1  0
 21 23  1  0
 21 24  1  0
 20 25  1  0
 25 26  2  0
 15 27  1  0
 27 28  2  0
  7 29  2  0
 29  3  1  0
 28 12  1  0
 26 17  1  0
  1 30  1  0
  1 31  1  0
  1 32  1  0
  4 33  1  0
  5 34  1  0
  9 35  1  0
  9 36  1  0
  9 37  1  0
 13 38  1  0
 14 39  1  0
 18 40  1  0
 19 41  1  0
 25 42  1  0
 27 43  1  0
 28 44  1  0
M  END
>  <meeko>  (4) 
{"is_sidechain": [false], "free_energy": -8.753, "intermolecular_energy": -11.845, "internal_energy": -0.925}

$$$$
ligand_37_conformer_1_docked
     RDKit          3D

 44 46  0  0  0  0  0  0  0  0999 V2000
   -2.3760   47.8380   59.6600 C   0  0  0  0  0  0  0  0  0  0  0  0
   -1.4970   48.1510   58.5860 O   0  0  0  0  0  0  0  0  0  0  0  0
   -0.7700   47.1760   57.8960 C   0  0  0  0  0  0  0  0  0  0  0  0
    0.5450   46.9050   58.2700 C   0  0  0  0  0  0  0  0  0  0  0  0
    1.2500   45.9310   57.5660 C   0  0  0  0  0  0  0  0  0  0  0  0
    0.6530   45.2710   56.5410 N   0  0  0  0  0  0  0  0  0  0  0  0
   -0.6340   45.5370   56.1830 C   0  0  0  0  0  0  0  0  0  0  0  0
   -1.2490   44.8280   55.0880 N   0  0  0  0  0  0  0  0  0  0  0  0
   -2.5360   45.2900   54.5580 C   0  0  0  0  0  0  0  0  0  0  0  0
   -0.5210   43.8190   54.3640 C   0  0  0  0  0  0  0  0  0  0  0  0
   -0.8350   42.6070   54.5140 O   0  0  0  0  0  0  0  0  0  0  0  0
    0.6060   44.1750   53.4680 C   0  0  0  0  0  0  0  0  0  0  0  0
    0.5560   45.3470   52.6940 C   0  0  0  0  0  0  0  0  0  0  0  0
    1.6140   45.6830   51.8450 C   0  0  0  0  0  0  0  0  0  0  0  0
    2.7450   44.8520   51.7580 C   0  0  0  0  0  0  0  0  0  0  0  0
    3.8230   45.1450   50.9100 O   0  0  0  0  0  0  0  0  0  0  0  0
    5.0710   45.6300   51.3250 C   0  0  0  0  0  0  0  0  0  0  0  0
    6.2220   45.2140   50.6530 C   0  0  0  0  0  0  0  0  0  0  0  0
    7.4690   45.6780   51.0720 C   0  0  0  0  0  0  0  0  0  0  0  0
    7.5650   46.5650   52.1550 C   0  0  0  0  0  0  0  0  0  0  0  0
    8.9100   47.0320   52.6490 C   0  0  0  0  0  0  0  0  0  0  0  0
    9.4240   46.1410   53.5760 F   0  0  0  0  0  0  0  0  0  0  0  0
    8.7700   48.2710   53.2460 F   0  0  0  0  0  0  0  0  0  0  0  0
    9.8090   47.1350   51.6020 F   0  0  0  0  0  0  0  0  0  0  0  0
    6.3860   46.9280   52.8250 C   0  0  0  0  0  0  0  0  0  0  0  0
    5.1820   46.4610   52.3970 N   0  0  0  0  0  0  0  0  0  0  0  0
    2.7820   43.6690   52.5030 C   0  0  0  0  0  0  0  0  0  0  0  0
    1.7250   43.3310   53.3520 C   0  0  0  0  0  0  0  0  0  0  0  0
   -1.3300   46.4910   56.8630 N   0  0  0  0  0  0  0  0  0  0  0  0
   -1.8650   48.0200   60.6170 H   0  0  0  0  0  0  0  0  0  0  0  0
   -3.2726   48.4721   59.5967 H   0  0  0  0  0  0  0  0  0  0  0  0
   -2.6700   46.7799   59.5967 H   0  0  0  0  0  0  0  0  0  0  0  0
    1.0159   47.4481   59.1026 H   0  0  0  0  0  0  0  0  0  0  0  0
    2.2892   45.6971   57.8405 H   0  0  0  0  0  0  0  0  0  0  0  0
   -3.2105   45.5321   55.3925 H   0  0  0  0  0  0  0  0  0  0  0  0
   -2.3779   46.1875   53.9420 H   0  0  0  0  0  0  0  0  0  0  0  0
   -2.9849   44.4969   53.9420 H   0  0  0  0  0  0  0  0  0  0  0  0
   -0.3231   46.0052   52.7570 H   0  0  0  0  0  0  0  0  0  0  0  0
    1.5618   46.6016   51.2421 H   0  0  0  0  0  0  0  0  0  0  0  0
    6.1460   44.5250   49.7989 H   0  0  0  0  0  0  0  0  0  0  0  0
    8.3801   45.3475   50.5517 H   0  0  0  0  0  0  0  0  0  0  0  0
    6.4359   47.5929   53.6999 H   0  0  0  0  0  0  0  0  0  0  0  0
    3.6505   42.9990   52.4199 H   0  0  0  0  0  0  0  0  0  0  0  0
    1.7684   42.3984   53.9337 H   0  0  0  0  0  0  0  0  0  0  0  0
  1  2  1  0
  2  3  1  0
  3  4  2  0
  4  5  1  0
  5  6  2  0
  6  7  1  0
  7  8  1  0
  8  9  1  0
  8 10  1  0
 10 11  2  0
 10 12  1  0
 12 13  2  0
 13 14  1  0
 14 15  2  0
 15 16  1  0
 16 17  1  0
 17 18  2  0
 18 19  1  0
 19 20  2  0
 20 21  1  0
 21 22  1  0
 21 23  1  0
 21 24  1  0
 20 25  1  0
 25 26  2  0
 15 27  1  0
 27 28  2  0
  7 29  2  0
 29  3  1  0
 28 12  1  0
 26 17  1  0
  1 30  1  0
  1 31  1  0
  1 32  1  0
  4 33  1  0
  5 34  1  0
  9 35  1  0
  9 36  1  0
  9 37  1  0
 13 38  1  0
 14 39  1  0
 18 40  1  0
 19 41  1  0
 25 42  1  0
 27 43  1  0
 28 44  1  0
M  END
>  <meeko>  (5) 
{"is_sidechain": [false], "free_energy": -8.272, "intermolecular_energy": -11.297, "internal_energy": -0.796}

$$$$
