ligand_77_conformer_4_docked
     RDKit          3D

 42 45  0  0  0  0  0  0  0  0999 V2000
    1.9720   46.8020   52.5650 O   0  0  0  0  0  0  0  0  0  0  0  0
    2.5630   46.0800   53.4130 C   0  0  0  0  0  0  0  0  0  0  0  0
    1.8640   45.0000   54.0550 N   0  0  0  0  0  0  0  0  0  0  0  0
    0.5080   44.5820   53.6710 C   0  0  2  0  0  0  0  0  0  0  0  0
   -0.3590   44.5100   54.9080 C   0  0  0  0  0  0  0  0  0  0  0  0
   -1.6120   43.8730   54.8750 C   0  0  0  0  0  0  0  0  0  0  0  0
   -2.3900   43.7970   56.0320 C   0  0  0  0  0  0  0  0  0  0  0  0
   -1.9090   44.3520   57.2180 C   0  0  0  0  0  0  0  0  0  0  0  0
   -0.6920   44.9560   57.2410 N   0  0  0  0  0  0  0  0  0  0  0  0
    0.0850   45.0440   56.1290 C   0  0  0  0  0  0  0  0  0  0  0  0
    0.4750   43.2260   52.9230 C   0  0  0  0  0  0  0  0  0  0  0  0
   -0.3070   43.2460   51.6150 C   0  0  0  0  0  0  0  0  0  0  0  0
    1.2030   43.0690   51.5900 C   0  0  0  0  0  0  0  0  0  0  0  0
    3.9740   46.3690   53.7280 C   0  0  0  0  0  0  0  0  0  0  0  0
    5.0670   46.2030   52.8930 C   0  0  0  0  0  0  0  0  0  0  0  0
    6.1450   46.6210   53.6540 C   0  0  0  0  0  0  0  0  0  0  0  0
    7.5680   46.6510   53.2280 C   0  0  0  0  0  0  0  0  0  0  0  0
    8.5680   47.1180   54.1040 C   0  0  0  0  0  0  0  0  0  0  0  0
    9.9060   47.1470   53.7020 C   0  0  0  0  0  0  0  0  0  0  0  0
   10.2640   46.7120   52.4240 C   0  0  0  0  0  0  0  0  0  0  0  0
    9.2820   46.2490   51.5450 C   0  0  0  0  0  0  0  0  0  0  0  0
    7.9420   46.2180   51.9430 C   0  0  0  0  0  0  0  0  0  0  0  0
    5.6930   47.0110   54.8630 N   0  0  0  0  0  0  0  0  0  0  0  0
    4.3800   46.8640   54.9130 N   0  0  0  0  0  0  0  0  0  0  0  0
    2.3440   44.4650   54.8110 H   0  0  0  0  0  0  0  0  0  0  0  0
    0.1216   45.3348   52.9682 H   0  0  0  0  0  0  0  0  0  0  0  0
   -1.9800   43.4337   53.9361 H   0  0  0  0  0  0  0  0  0  0  0  0
   -3.3731   43.3041   56.0085 H   0  0  0  0  0  0  0  0  0  0  0  0
   -2.5149   44.3007   58.1346 H   0  0  0  0  0  0  0  0  0  0  0  0
    1.0671   45.5362   56.1857 H   0  0  0  0  0  0  0  0  0  0  0  0
    0.4862   42.6401   53.8539 H   0  0  0  0  0  0  0  0  0  0  0  0
   -0.9634   42.4027   51.3544 H   0  0  0  0  0  0  0  0  0  0  0  0
   -1.0151   43.9438   51.1441 H   0  0  0  0  0  0  0  0  0  0  0  0
    1.6384   42.0978   51.3122 H   0  0  0  0  0  0  0  0  0  0  0  0
    2.0385   43.5853   51.0946 H   0  0  0  0  0  0  0  0  0  0  0  0
    5.0761   45.8249   51.8600 H   0  0  0  0  0  0  0  0  0  0  0  0
    8.2933   47.4624   55.1120 H   0  0  0  0  0  0  0  0  0  0  0  0
   10.6790   47.5132   54.3936 H   0  0  0  0  0  0  0  0  0  0  0  0
   11.3180   46.7340   52.1100 H   0  0  0  0  0  0  0  0  0  0  0  0
    9.5635   45.9081   50.5377 H   0  0  0  0  0  0  0  0  0  0  0  0
    7.1741   45.8520   51.2456 H   0  0  0  0  0  0  0  0  0  0  0  0
    6.2580   47.3970   55.6500 H   0  0  0  0  0  0  0  0  0  0  0  0
  1  2  2  0
  2  3  1  0
  3  4  1  0
  4  5  1  0
  5  6  2  0
  6  7  1  0
  7  8  2  0
  8  9  1  0
  9 10  2  0
  4 11  1  0
 11 12  1  0
 12 13  1  0
  2 14  1  0
 14 15  1  0
 15 16  2  0
 16 17  1  0
 17 18  2  0
 18 19  1  0
 19 20  2  0
 20 21  1  0
 21 22  2  0
 16 23  1  0
 23 24  1  0
 10  5  1  0
 13 11  1  0
 24 14  2  0
 22 17  1  0
  3 25  1  0
  4 26  1  6
  6 27  1  0
  7 28  1  0
  8 29  1  0
 10 30  1  0
 11 31  1  0
 12 32  1  0
 12 33  1  0
 13 34  1  0
 13 35  1  0
 15 36  1  0
 18 37  1  0
 19 38  1  0
 20 39  1  0
 21 40  1  0
 22 41  1  0
 23 42  1  0
M  END
>  <meeko>  (1) 
{"is_sidechain": [false], "free_energy": -8.396, "intermolecular_energy": -10.85, "internal_energy": -0.644}

$$$$
ligand_77_conformer_4_docked
     RDKit          3D

 42 45  0  0  0  0  0  0  0  0999 V2000
    4.0210   46.7920   51.7470 O   0  0  0  0  0  0  0  0  0  0  0  0
    4.4780   46.0590   52.6640 C   0  0  0  0  0  0  0  0  0  0  0  0
    5.8500   45.6300   52.6290 N   0  0  0  0  0  0  0  0  0  0  0  0
    6.8190   46.1210   51.6390 C   0  0  2  0  0  0  0  0  0  0  0  0
    7.1030   45.0270   50.6340 C   0  0  0  0  0  0  0  0  0  0  0  0
    6.1370   44.0490   50.3390 C   0  0  0  0  0  0  0  0  0  0  0  0
    6.4100   43.0590   49.3930 C   0  0  0  0  0  0  0  0  0  0  0  0
    7.6440   43.0560   48.7410 C   0  0  0  0  0  0  0  0  0  0  0  0
    8.5650   44.0140   49.0260 N   0  0  0  0  0  0  0  0  0  0  0  0
    8.3260   44.9880   49.9440 C   0  0  0  0  0  0  0  0  0  0  0  0
    8.1440   46.6140   52.2730 C   0  0  0  0  0  0  0  0  0  0  0  0
    8.7340   47.8570   51.6180 C   0  0  0  0  0  0  0  0  0  0  0  0
    8.1840   47.9360   53.0340 C   0  0  0  0  0  0  0  0  0  0  0  0
    3.5810   45.6540   53.7620 C   0  0  0  0  0  0  0  0  0  0  0  0
    2.1960   45.6400   53.7460 C   0  0  0  0  0  0  0  0  0  0  0  0
    1.8450   45.1780   55.0020 C   0  0  0  0  0  0  0  0  0  0  0  0
    0.4660   44.9680   55.5130 C   0  0  0  0  0  0  0  0  0  0  0  0
    0.0360   45.6000   56.6960 C   0  0  0  0  0  0  0  0  0  0  0  0
   -1.2620   45.4010   57.1760 C   0  0  0  0  0  0  0  0  0  0  0  0
   -2.1460   44.5720   56.4830 C   0  0  0  0  0  0  0  0  0  0  0  0
   -1.7330   43.9380   55.3090 C   0  0  0  0  0  0  0  0  0  0  0  0
   -0.4350   44.1340   54.8260 C   0  0  0  0  0  0  0  0  0  0  0  0
    2.9710   44.9340   55.7020 N   0  0  0  0  0  0  0  0  0  0  0  0
    4.0260   45.2180   54.9560 N   0  0  0  0  0  0  0  0  0  0  0  0
    6.1890   44.9580   53.3520 H   0  0  0  0  0  0  0  0  0  0  0  0
    6.3662   46.9935   51.1453 H   0  0  0  0  0  0  0  0  0  0  0  0
    5.1651   44.0638   50.8540 H   0  0  0  0  0  0  0  0  0  0  0  0
    5.6593   42.2884   49.1637 H   0  0  0  0  0  0  0  0  0  0  0  0
    7.8711   42.2785   47.9967 H   0  0  0  0  0  0  0  0  0  0  0  0
    9.0938   45.7490   50.1473 H   0  0  0  0  0  0  0  0  0  0  0  0
    8.4738   45.5958   52.5270 H   0  0  0  0  0  0  0  0  0  0  0  0
    9.8182   47.9250   51.4449 H   0  0  0  0  0  0  0  0  0  0  0  0
    8.5496   48.4034   50.6813 H   0  0  0  0  0  0  0  0  0  0  0  0
    8.8704   48.0605   53.8845 H   0  0  0  0  0  0  0  0  0  0  0  0
    7.4377   48.5623   53.5446 H   0  0  0  0  0  0  0  0  0  0  0  0
    1.5274   45.9302   52.9222 H   0  0  0  0  0  0  0  0  0  0  0  0
    0.7269   46.2554   57.2466 H   0  0  0  0  0  0  0  0  0  0  0  0
   -1.5873   45.8986   58.1015 H   0  0  0  0  0  0  0  0  0  0  0  0
   -3.1674   44.4182   56.8614 H   0  0  0  0  0  0  0  0  0  0  0  0
   -2.4292   43.2839   54.7637 H   0  0  0  0  0  0  0  0  0  0  0  0
   -0.1159   43.6316   53.9009 H   0  0  0  0  0  0  0  0  0  0  0  0
    3.0390   44.5570   56.6720 H   0  0  0  0  0  0  0  0  0  0  0  0
  1  2  2  0
  2  3  1  0
  3  4  1  0
  4  5  1  0
  5  6  2  0
  6  7  1  0
  7  8  2  0
  8  9  1  0
  9 10  2  0
  4 11  1  0
 11 12  1  0
 12 13  1  0
  2 14  1  0
 14 15  1  0
 15 16  2  0
 16 17  1  0
 17 18  2  0
 18 19  1  0
 19 20  2  0
 20 21  1  0
 21 22  2  0
 16 23  1  0
 23 24  1  0
 10  5  1  0
 13 11  1  0
 24 14  2  0
 22 17  1  0
  3 25  1  0
  4 26  1  6
  6 27  1  0
  7 28  1  0
  8 29  1  0
 10 30  1  0
 11 31  1  0
 12 32  1  0
 12 33  1  0
 13 34  1  0
 13 35  1  0
 15 36  1  0
 18 37  1  0
 19 38  1  0
 20 39  1  0
 21 40  1  0
 22 41  1  0
 23 42  1  0
M  END
>  <meeko>  (2) 
{"is_sidechain": [false], "free_energy": -8.288, "intermolecular_energy": -10.96, "internal_energy": -0.394}

$$$$
ligand_77_conformer_4_docked
     RDKit          3D

 42 45  0  0  0  0  0  0  0  0999 V2000
    4.4070   43.4290   52.1530 O   0  0  0  0  0  0  0  0  0  0  0  0
    4.1760   44.5560   52.6680 C   0  0  0  0  0  0  0  0  0  0  0  0
    5.2450   45.5040   52.8390 N   0  0  0  0  0  0  0  0  0  0  0  0
    6.5980   45.2910   52.3090 C   0  0  2  0  0  0  0  0  0  0  0  0
    7.5750   46.1550   53.0740 C   0  0  0  0  0  0  0  0  0  0  0  0
    8.8890   46.3450   52.6100 C   0  0  0  0  0  0  0  0  0  0  0  0
    9.7710   47.1640   53.3190 C   0  0  0  0  0  0  0  0  0  0  0  0
    9.3320   47.7940   54.4840 C   0  0  0  0  0  0  0  0  0  0  0  0
    8.0580   47.6120   54.9170 N   0  0  0  0  0  0  0  0  0  0  0  0
    7.1790   46.8190   54.2470 C   0  0  0  0  0  0  0  0  0  0  0  0
    6.7130   45.5810   50.7910 C   0  0  0  0  0  0  0  0  0  0  0  0
    7.8930   44.9030   50.1060 C   0  0  0  0  0  0  0  0  0  0  0  0
    6.4740   44.4650   49.7780 C   0  0  0  0  0  0  0  0  0  0  0  0
    2.7990   44.8760   53.0860 C   0  0  0  0  0  0  0  0  0  0  0  0
    2.1620   44.4640   54.2440 C   0  0  0  0  0  0  0  0  0  0  0  0
    0.9040   45.0360   54.1640 C   0  0  0  0  0  0  0  0  0  0  0  0
   -0.1880   44.9120   55.1630 C   0  0  0  0  0  0  0  0  0  0  0  0
   -1.2260   43.9770   54.9770 C   0  0  0  0  0  0  0  0  0  0  0  0
   -2.2540   43.8620   55.9180 C   0  0  0  0  0  0  0  0  0  0  0  0
   -2.2600   44.6740   57.0530 C   0  0  0  0  0  0  0  0  0  0  0  0
   -1.2380   45.6060   57.2490 C   0  0  0  0  0  0  0  0  0  0  0  0
   -0.2080   45.7260   56.3100 C   0  0  0  0  0  0  0  0  0  0  0  0
    0.8250   45.7440   53.0190 N   0  0  0  0  0  0  0  0  0  0  0  0
    1.9700   45.6540   52.3630 N   0  0  0  0  0  0  0  0  0  0  0  0
    5.0520   46.3990   53.3390 H   0  0  0  0  0  0  0  0  0  0  0  0
    6.8350   44.2251   52.4419 H   0  0  0  0  0  0  0  0  0  0  0  0
    9.2227   45.8479   51.6873 H   0  0  0  0  0  0  0  0  0  0  0  0
   10.8012   47.3108   52.9625 H   0  0  0  0  0  0  0  0  0  0  0  0
   10.0186   48.4387   55.0522 H   0  0  0  0  0  0  0  0  0  0  0  0
    6.1534   46.6971   54.6254 H   0  0  0  0  0  0  0  0  0  0  0  0
    6.3073   46.5985   50.8909 H   0  0  0  0  0  0  0  0  0  0  0  0
    8.4849   45.4526   49.3593 H   0  0  0  0  0  0  0  0  0  0  0  0
    8.8033   44.3918   50.4523 H   0  0  0  0  0  0  0  0  0  0  0  0
    6.0398   44.6985   48.7947 H   0  0  0  0  0  0  0  0  0  0  0  0
    5.9335   43.5070   49.7892 H   0  0  0  0  0  0  0  0  0  0  0  0
    2.5641   43.8269   55.0455 H   0  0  0  0  0  0  0  0  0  0  0  0
   -1.2275   43.3331   54.0852 H   0  0  0  0  0  0  0  0  0  0  0  0
   -3.0600   43.1296   55.7632 H   0  0  0  0  0  0  0  0  0  0  0  0
   -3.0688   44.5802   57.7927 H   0  0  0  0  0  0  0  0  0  0  0  0
   -1.2432   46.2466   58.1432 H   0  0  0  0  0  0  0  0  0  0  0  0
    0.5928   46.4630   56.4699 H   0  0  0  0  0  0  0  0  0  0  0  0
    0.0140   46.3070   52.6830 H   0  0  0  0  0  0  0  0  0  0  0  0
  1  2  2  0
  2  3  1  0
  3  4  1  0
  4  5  1  0
  5  6  2  0
  6  7  1  0
  7  8  2  0
  8  9  1  0
  9 10  2  0
  4 11  1  0
 11 12  1  0
 12 13  1  0
  2 14  1  0
 14 15  1  0
 15 16  2  0
 16 17  1  0
 17 18  2  0
 18 19  1  0
 19 20  2  0
 20 21  1  0
 21 22  2  0
 16 23  1  0
 23 24  1  0
 10  5  1  0
 13 11  1  0
 24 14  2  0
 22 17  1  0
  3 25  1  0
  4 26  1  6
  6 27  1  0
  7 28  1  0
  8 29  1  0
 10 30  1  0
 11 31  1  0
 12 32  1  0
 12 33  1  0
 13 34  1  0
 13 35  1  0
 15 36  1  0
 18 37  1  0
 19 38  1  0
 20 39  1  0
 21 40  1  0
 22 41  1  0
 23 42  1  0
M  END
>  <meeko>  (3) 
{"is_sidechain": [false], "free_energy": -8.006, "intermolecular_energy": -10.712, "internal_energy": -0.278}

$$$$
ligand_77_conformer_4_docked
     RDKit          3D

 42 45  0  0  0  0  0  0  0  0999 V2000
    2.0830   45.2740   51.1570 O   0  0  0  0  0  0  0  0  0  0  0  0
    2.8710   45.2000   52.1370 C   0  0  0  0  0  0  0  0  0  0  0  0
    2.3650   44.9010   53.4500 N   0  0  0  0  0  0  0  0  0  0  0  0
    0.9670   44.5260   53.7040 C   0  0  2  0  0  0  0  0  0  0  0  0
    0.5420   45.0670   55.0510 C   0  0  0  0  0  0  0  0  0  0  0  0
   -0.8170   45.1460   55.4020 C   0  0  0  0  0  0  0  0  0  0  0  0
   -1.1890   45.6290   56.6580 C   0  0  0  0  0  0  0  0  0  0  0  0
   -0.2000   46.0220   57.5610 C   0  0  0  0  0  0  0  0  0  0  0  0
    1.1110   45.9310   57.2150 N   0  0  0  0  0  0  0  0  0  0  0  0
    1.5010   45.4660   55.9980 C   0  0  0  0  0  0  0  0  0  0  0  0
    0.7250   42.9970   53.6490 C   0  0  0  0  0  0  0  0  0  0  0  0
   -0.6660   42.5940   53.1730 C   0  0  0  0  0  0  0  0  0  0  0  0
    0.5450   42.2980   52.3040 C   0  0  0  0  0  0  0  0  0  0  0  0
    4.3100   45.4270   51.9090 C   0  0  0  0  0  0  0  0  0  0  0  0
    5.2340   45.9070   52.8200 C   0  0  0  0  0  0  0  0  0  0  0  0
    6.4280   45.9240   52.1200 C   0  0  0  0  0  0  0  0  0  0  0  0
    7.7510   46.3550   52.6400 C   0  0  0  0  0  0  0  0  0  0  0  0
    8.9070   46.2360   51.8440 C   0  0  0  0  0  0  0  0  0  0  0  0
   10.1520   46.6410   52.3340 C   0  0  0  0  0  0  0  0  0  0  0  0
   10.2600   47.1690   53.6220 C   0  0  0  0  0  0  0  0  0  0  0  0
    9.1220   47.2910   54.4230 C   0  0  0  0  0  0  0  0  0  0  0  0
    7.8750   46.8860   53.9360 C   0  0  0  0  0  0  0  0  0  0  0  0
    6.2010   45.4710   50.8700 N   0  0  0  0  0  0  0  0  0  0  0  0
    4.9210   45.1660   50.7370 N   0  0  0  0  0  0  0  0  0  0  0  0
    3.0190   44.9240   54.2620 H   0  0  0  0  0  0  0  0  0  0  0  0
    0.3606   44.9674   52.8993 H   0  0  0  0  0  0  0  0  0  0  0  0
   -1.5885   44.8267   54.6859 H   0  0  0  0  0  0  0  0  0  0  0  0
   -2.2517   45.6992   56.9333 H   0  0  0  0  0  0  0  0  0  0  0  0
   -0.4817   46.4054   58.5528 H   0  0  0  0  0  0  0  0  0  0  0  0
    2.5716   45.4019   55.7537 H   0  0  0  0  0  0  0  0  0  0  0  0
    1.3770   42.7995   54.5126 H   0  0  0  0  0  0  0  0  0  0  0  0
   -1.1999   41.7708   53.6703 H   0  0  0  0  0  0  0  0  0  0  0  0
   -1.6190   43.1225   53.0231 H   0  0  0  0  0  0  0  0  0  0  0  0
    0.8876   41.2609   52.1731 H   0  0  0  0  0  0  0  0  0  0  0  0
    0.8310   42.5237   51.2661 H   0  0  0  0  0  0  0  0  0  0  0  0
    5.0594   46.2071   53.8638 H   0  0  0  0  0  0  0  0  0  0  0  0
    8.8294   45.8209   50.8283 H   0  0  0  0  0  0  0  0  0  0  0  0
   11.0482   46.5435   51.7037 H   0  0  0  0  0  0  0  0  0  0  0  0
   11.2401   47.4886   54.0056 H   0  0  0  0  0  0  0  0  0  0  0  0
    9.2068   47.7062   55.4381 H   0  0  0  0  0  0  0  0  0  0  0  0
    6.9833   46.9838   54.5726 H   0  0  0  0  0  0  0  0  0  0  0  0
    6.9030   45.3450   50.1110 H   0  0  0  0  0  0  0  0  0  0  0  0
  1  2  2  0
  2  3  1  0
  3  4  1  0
  4  5  1  0
  5  6  2  0
  6  7  1  0
  7  8  2  0
  8  9  1  0
  9 10  2  0
  4 11  1  0
 11 12  1  0
 12 13  1  0
  2 14  1  0
 14 15  1  0
 15 16  2  0
 16 17  1  0
 17 18  2  0
 18 19  1  0
 19 20  2  0
 20 21  1  0
 21 22  2  0
 16 23  1  0
 23 24  1  0
 10  5  1  0
 13 11  1  0
 24 14  2  0
 22 17  1  0
  3 25  1  0
  4 26  1  6
  6 27  1  0
  7 28  1  0
  8 29  1  0
 10 30  1  0
 11 31  1  0
 12 32  1  0
 12 33  1  0
 13 34  1  0
 13 35  1  0
 15 36  1  0
 18 37  1  0
 19 38  1  0
 20 39  1  0
 21 40  1  0
 22 41  1  0
 23 42  1  0
M  END
>  <meeko>  (4) 
{"is_sidechain": [false], "free_energy": -7.969, "intermolecular_energy": -10.268, "internal_energy": -0.675}

$$$$
ligand_77_conformer_4_docked
     RDKit          3D

 42 45  0  0  0  0  0  0  0  0999 V2000
    2.7670   42.9740   52.7040 O   0  0  0  0  0  0  0  0  0  0  0  0
    2.9490   44.1980   52.9430 C   0  0  0  0  0  0  0  0  0  0  0  0
    1.9360   44.9600   53.6210 N   0  0  0  0  0  0  0  0  0  0  0  0
    0.7270   44.3540   54.1960 C   0  0  2  0  0  0  0  0  0  0  0  0
   -0.2660   44.0780   53.0890 C   0  0  0  0  0  0  0  0  0  0  0  0
   -0.7670   42.7820   52.8740 C   0  0  0  0  0  0  0  0  0  0  0  0
   -1.7000   42.5500   51.8610 C   0  0  0  0  0  0  0  0  0  0  0  0
   -2.1320   43.6170   51.0730 C   0  0  0  0  0  0  0  0  0  0  0  0
   -1.6500   44.8670   51.2960 N   0  0  0  0  0  0  0  0  0  0  0  0
   -0.7410   45.1200   52.2750 C   0  0  0  0  0  0  0  0  0  0  0  0
    0.0670   45.2280   55.2920 C   0  0  0  0  0  0  0  0  0  0  0  0
   -1.0230   44.5230   56.0900 C   0  0  0  0  0  0  0  0  0  0  0  0
    0.2850   44.9010   56.7670 C   0  0  0  0  0  0  0  0  0  0  0  0
    4.2140   44.8230   52.5130 C   0  0  0  0  0  0  0  0  0  0  0  0
    5.2890   45.1670   53.3140 C   0  0  0  0  0  0  0  0  0  0  0  0
    6.2130   45.7040   52.4350 C   0  0  0  0  0  0  0  0  0  0  0  0
    7.5580   46.2320   52.7790 C   0  0  0  0  0  0  0  0  0  0  0  0
    7.8020   46.7990   54.0450 C   0  0  0  0  0  0  0  0  0  0  0  0
    9.0680   47.2960   54.3680 C   0  0  0  0  0  0  0  0  0  0  0  0
   10.1040   47.2350   53.4350 C   0  0  0  0  0  0  0  0  0  0  0  0
    9.8760   46.6770   52.1750 C   0  0  0  0  0  0  0  0  0  0  0  0
    8.6110   46.1780   51.8470 C   0  0  0  0  0  0  0  0  0  0  0  0
    5.6950   45.6660   51.1900 N   0  0  0  0  0  0  0  0  0  0  0  0
    4.4860   45.1310   51.2300 N   0  0  0  0  0  0  0  0  0  0  0  0
    2.0700   45.9890   53.7380 H   0  0  0  0  0  0  0  0  0  0  0  0
    1.0332   43.4181   54.6862 H   0  0  0  0  0  0  0  0  0  0  0  0
   -0.4234   41.9491   53.5050 H   0  0  0  0  0  0  0  0  0  0  0  0
   -2.0902   41.5365   51.6863 H   0  0  0  0  0  0  0  0  0  0  0  0
   -2.8640   43.4457   50.2700 H   0  0  0  0  0  0  0  0  0  0  0  0
   -0.3756   46.1458   52.4305 H   0  0  0  0  0  0  0  0  0  0  0  0
    0.1763   46.1538   54.7081 H   0  0  0  0  0  0  0  0  0  0  0  0
   -1.9492   45.0580   56.3467 H   0  0  0  0  0  0  0  0  0  0  0  0
   -1.5941   43.5906   55.9694 H   0  0  0  0  0  0  0  0  0  0  0  0
    0.3048   45.7096   57.5125 H   0  0  0  0  0  0  0  0  0  0  0  0
    1.0512   44.3559   57.3378 H   0  0  0  0  0  0  0  0  0  0  0  0
    5.3867   45.0419   54.4025 H   0  0  0  0  0  0  0  0  0  0  0  0
    6.9901   46.8511   54.7853 H   0  0  0  0  0  0  0  0  0  0  0  0
    9.2480   47.7362   55.3599 H   0  0  0  0  0  0  0  0  0  0  0  0
   11.0996   47.6261   53.6917 H   0  0  0  0  0  0  0  0  0  0  0  0
   10.6925   46.6299   51.4394 H   0  0  0  0  0  0  0  0  0  0  0  0
    8.4380   45.7400   50.8529 H   0  0  0  0  0  0  0  0  0  0  0  0
    6.1560   45.9770   50.3080 H   0  0  0  0  0  0  0  0  0  0  0  0
  1  2  2  0
  2  3  1  0
  3  4  1  0
  4  5  1  0
  5  6  2  0
  6  7  1  0
  7  8  2  0
  8  9  1  0
  9 10  2  0
  4 11  1  0
 11 12  1  0
 12 13  1  0
  2 14  1  0
 14 15  1  0
 15 16  2  0
 16 17  1  0
 17 18  2  0
 18 19  1  0
 19 20  2  0
 20 21  1  0
 21 22  2  0
 16 23  1  0
 23 24  1  0
 10  5  1  0
 13 11  1  0
 24 14  2  0
 22 17  1  0
  3 25  1  0
  4 26  1  1
  6 27  1  0
  7 28  1  0
  8 29  1  0
 10 30  1  0
 11 31  1  0
 12 32  1  0
 12 33  1  0
 13 34  1  0
 13 35  1  0
 15 36  1  0
 18 37  1  0
 19 38  1  0
 20 39  1  0
 21 40  1  0
 22 41  1  0
 23 42  1  0
M  END
>  <meeko>  (5) 
{"is_sidechain": [false], "free_energy": -7.969, "intermolecular_energy": -10.178, "internal_energy": -0.765}

$$$$
