ligand_6_conformer_4_docked
     RDKit          3D

 44 47  0  0  0  0  0  0  0  0999 V2000
   -0.0550   42.6440   52.1340 O   0  0  0  0  0  0  0  0  0  0  0  0
    1.1810   42.8870   52.1250 C   0  0  0  0  0  0  0  0  0  0  0  0
    2.0240   42.7630   50.9200 C   0  0  0  0  0  0  0  0  0  0  0  0
    3.3320   43.4530   51.3480 C   0  0  2  0  0  0  0  0  0  0  0  0
    4.5210   42.6950   50.9340 N   0  0  0  0  0  0  0  0  0  0  0  0
    5.7420   43.2700   50.4410 C   0  0  0  0  0  0  0  0  0  0  0  0
    6.4830   42.5830   49.5300 N   0  0  0  0  0  0  0  0  0  0  0  0
    7.6230   43.1090   49.0120 C   0  0  0  0  0  0  0  0  0  0  0  0
    8.0460   44.3770   49.4080 C   0  0  0  0  0  0  0  0  0  0  0  0
    7.2870   45.0700   50.3500 C   0  0  0  0  0  0  0  0  0  0  0  0
    7.6770   46.3580   50.7330 O   0  0  0  0  0  0  0  0  0  0  0  0
    8.2670   46.6770   51.9620 C   0  0  0  0  0  0  0  0  0  0  0  0
    9.6580   46.5790   52.0910 C   0  0  0  0  0  0  0  0  0  0  0  0
   10.2780   46.8740   53.3090 C   0  0  0  0  0  0  0  0  0  0  0  0
    9.5070   47.2490   54.4130 C   0  0  0  0  0  0  0  0  0  0  0  0
    8.1160   47.3260   54.3000 C   0  0  0  0  0  0  0  0  0  0  0  0
    7.4960   47.0450   53.0790 C   0  0  0  0  0  0  0  0  0  0  0  0
    6.1530   44.5040   50.8460 N   0  0  0  0  0  0  0  0  0  0  0  0
    3.2610   43.6610   52.8910 C   0  0  1  0  0  0  0  0  0  0  0  0
    3.6340   45.0990   53.3260 C   0  0  0  0  0  0  0  0  0  0  0  0
    2.4150   46.0320   53.2620 C   0  0  0  0  0  0  0  0  0  0  0  0
    1.2630   45.5570   54.1770 C   0  0  0  0  0  0  0  0  0  0  0  0
    1.2350   44.0310   54.3870 C   0  0  0  0  0  0  0  0  0  0  0  0
    1.8830   43.3540   53.2650 N   0  0  0  0  0  0  0  0  0  0  0  0
    2.1978   41.7073   50.6647 H   0  0  0  0  0  0  0  0  0  0  0  0
    1.5698   43.2080   50.0224 H   0  0  0  0  0  0  0  0  0  0  0  0
    3.4328   44.4256   50.8441 H   0  0  0  0  0  0  0  0  0  0  0  0
    4.4640   41.6520   50.9820 H   0  0  0  0  0  0  0  0  0  0  0  0
    8.2117   42.5353   48.2810 H   0  0  0  0  0  0  0  0  0  0  0  0
    8.9595   44.8214   48.9861 H   0  0  0  0  0  0  0  0  0  0  0  0
   10.2665   46.2681   51.2290 H   0  0  0  0  0  0  0  0  0  0  0  0
   11.3725   46.8110   53.3985 H   0  0  0  0  0  0  0  0  0  0  0  0
    9.9949   47.4835   55.3706 H   0  0  0  0  0  0  0  0  0  0  0  0
    7.5086   47.6080   55.1727 H   0  0  0  0  0  0  0  0  0  0  0  0
    6.4015   47.1120   52.9917 H   0  0  0  0  0  0  0  0  0  0  0  0
    3.9913   43.0104   53.3944 H   0  0  0  0  0  0  0  0  0  0  0  0
    4.0136   45.0747   54.3582 H   0  0  0  0  0  0  0  0  0  0  0  0
    4.4029   45.4825   52.6392 H   0  0  0  0  0  0  0  0  0  0  0  0
    2.7241   47.0397   53.5768 H   0  0  0  0  0  0  0  0  0  0  0  0
    2.0443   46.0303   52.2263 H   0  0  0  0  0  0  0  0  0  0  0  0
    1.3751   46.0416   55.1581 H   0  0  0  0  0  0  0  0  0  0  0  0
    0.3208   45.8329   53.6810 H   0  0  0  0  0  0  0  0  0  0  0  0
    1.7669   43.7826   55.3173 H   0  0  0  0  0  0  0  0  0  0  0  0
    0.1889   43.6971   54.4514 H   0  0  0  0  0  0  0  0  0  0  0  0
  1  2  2  0
  2  3  1  0
  3  4  1  0
  4  5  1  0
  5  6  1  0
  6  7  2  0
  7  8  1  0
  8  9  2  0
  9 10  1  0
 10 11  1  0
 11 12  1  0
 12 13  2  0
 13 14  1  0
 14 15  2  0
 15 16  1  0
 16 17  2  0
 10 18  2  0
  4 19  1  0
 19 20  1  0
 20 21  1  0
 21 22  1  0
 22 23  1  0
 23 24  1  0
 24  2  1  0
 18  6  1  0
 24 19  1  0
 17 12  1  0
  3 25  1  0
  3 26  1  0
  4 27  1  6
  5 28  1  0
  8 29  1  0
  9 30  1  0
 13 31  1  0
 14 32  1  0
 15 33  1  0
 16 34  1  0
 17 35  1  0
 19 36  1  1
 20 37  1  0
 20 38  1  0
 21 39  1  0
 21 40  1  0
 22 41  1  0
 22 42  1  0
 23 43  1  0
 23 44  1  0
M  END
>  <meeko>  (1) 
{"is_sidechain": [false], "free_energy": -9.101, "intermolecular_energy": -11.229, "internal_energy": -0.813}

$$$$
ligand_6_conformer_4_docked
     RDKit          3D

 44 47  0  0  0  0  0  0  0  0999 V2000
    1.1730   44.6280   55.4680 O   0  0  0  0  0  0  0  0  0  0  0  0
    2.0840   45.2740   54.8860 C   0  0  0  0  0  0  0  0  0  0  0  0
    3.4830   45.3070   55.3550 C   0  0  0  0  0  0  0  0  0  0  0  0
    4.2250   45.9470   54.1660 C   0  0  2  0  0  0  0  0  0  0  0  0
    5.1960   46.9610   54.5980 N   0  0  0  0  0  0  0  0  0  0  0  0
    6.5320   47.1010   54.0890 C   0  0  0  0  0  0  0  0  0  0  0  0
    7.5130   47.5690   54.9070 N   0  0  0  0  0  0  0  0  0  0  0  0
    8.7950   47.6810   54.4730 C   0  0  0  0  0  0  0  0  0  0  0  0
    9.1250   47.3040   53.1730 C   0  0  0  0  0  0  0  0  0  0  0  0
    8.1110   46.8350   52.3370 C   0  0  0  0  0  0  0  0  0  0  0  0
    8.4300   46.4190   51.0390 O   0  0  0  0  0  0  0  0  0  0  0  0
    7.9080   45.2760   50.4210 C   0  0  0  0  0  0  0  0  0  0  0  0
    8.7260   44.5440   49.5510 C   0  0  0  0  0  0  0  0  0  0  0  0
    8.2310   43.4080   48.9030 C   0  0  0  0  0  0  0  0  0  0  0  0
    6.9080   43.0070   49.1080 C   0  0  0  0  0  0  0  0  0  0  0  0
    6.0770   43.7460   49.9560 C   0  0  0  0  0  0  0  0  0  0  0  0
    6.5740   44.8750   50.6150 C   0  0  0  0  0  0  0  0  0  0  0  0
    6.8390   46.7430   52.8110 N   0  0  0  0  0  0  0  0  0  0  0  0
    3.1430   46.5240   53.2040 C   0  0  1  0  0  0  0  0  0  0  0  0
    3.3700   46.1210   51.7270 C   0  0  0  0  0  0  0  0  0  0  0  0
    2.7420   44.7520   51.4220 C   0  0  0  0  0  0  0  0  0  0  0  0
    1.2180   44.7350   51.6760 C   0  0  0  0  0  0  0  0  0  0  0  0
    0.7660   45.7250   52.7680 C   0  0  0  0  0  0  0  0  0  0  0  0
    1.8680   46.0010   53.6870 N   0  0  0  0  0  0  0  0  0  0  0  0
    3.5828   45.9216   56.2618 H   0  0  0  0  0  0  0  0  0  0  0  0
    3.8739   44.3165   55.6309 H   0  0  0  0  0  0  0  0  0  0  0  0
    4.8278   45.1915   53.6407 H   0  0  0  0  0  0  0  0  0  0  0  0
    4.8960   47.6190   55.3540 H   0  0  0  0  0  0  0  0  0  0  0  0
    9.5724   48.0692   55.1475 H   0  0  0  0  0  0  0  0  0  0  0  0
   10.1622   47.3745   52.8135 H   0  0  0  0  0  0  0  0  0  0  0  0
    9.7637   44.8646   49.3765 H   0  0  0  0  0  0  0  0  0  0  0  0
    8.8831   42.8299   48.2318 H   0  0  0  0  0  0  0  0  0  0  0  0
    6.5204   42.1103   48.6024 H   0  0  0  0  0  0  0  0  0  0  0  0
    5.0313   43.4389   50.1049 H   0  0  0  0  0  0  0  0  0  0  0  0
    5.9201   45.4507   51.2866 H   0  0  0  0  0  0  0  0  0  0  0  0
    3.1788   47.6234   53.2110 H   0  0  0  0  0  0  0  0  0  0  0  0
    2.9130   46.8790   51.0739 H   0  0  0  0  0  0  0  0  0  0  0  0
    4.4531   46.0556   51.5462 H   0  0  0  0  0  0  0  0  0  0  0  0
    2.9272   44.5054   50.3661 H   0  0  0  0  0  0  0  0  0  0  0  0
    3.2030   44.0135   52.0944 H   0  0  0  0  0  0  0  0  0  0  0  0
    0.7056   44.9938   50.7376 H   0  0  0  0  0  0  0  0  0  0  0  0
    0.9596   43.7252   52.0274 H   0  0  0  0  0  0  0  0  0  0  0  0
    0.4431   46.6644   52.2955 H   0  0  0  0  0  0  0  0  0  0  0  0
   -0.0683   45.2814   53.3312 H   0  0  0  0  0  0  0  0  0  0  0  0
  1  2  2  0
  2  3  1  0
  3  4  1  0
  4  5  1  0
  5  6  1  0
  6  7  2  0
  7  8  1  0
  8  9  2  0
  9 10  1  0
 10 11  1  0
 11 12  1  0
 12 13  2  0
 13 14  1  0
 14 15  2  0
 15 16  1  0
 16 17  2  0
 10 18  2  0
  4 19  1  0
 19 20  1  0
 20 21  1  0
 21 22  1  0
 22 23  1  0
 23 24  1  0
 24  2  1  0
 18  6  1  0
 24 19  1  0
 17 12  1  0
  3 25  1  0
  3 26  1  0
  4 27  1  6
  5 28  1  0
  8 29  1  0
  9 30  1  0
 13 31  1  0
 14 32  1  0
 15 33  1  0
 16 34  1  0
 17 35  1  0
 19 36  1  6
 20 37  1  0
 20 38  1  0
 21 39  1  0
 21 40  1  0
 22 41  1  0
 22 42  1  0
 23 43  1  0
 23 44  1  0
M  END
>  <meeko>  (2) 
{"is_sidechain": [false], "free_energy": -8.737, "intermolecular_energy": -11.095, "internal_energy": -0.498}

$$$$
ligand_6_conformer_4_docked
     RDKit          3D

 44 47  0  0  0  0  0  0  0  0999 V2000
    4.3700   45.6050   54.8410 O   0  0  0  0  0  0  0  0  0  0  0  0
    4.0120   44.9410   53.8330 C   0  0  0  0  0  0  0  0  0  0  0  0
    4.8400   43.8840   53.2210 C   0  0  0  0  0  0  0  0  0  0  0  0
    3.8560   43.1940   52.2590 C   0  0  2  0  0  0  0  0  0  0  0  0
    4.4590   42.9180   50.9490 N   0  0  0  0  0  0  0  0  0  0  0  0
    5.7190   43.4340   50.4890 C   0  0  0  0  0  0  0  0  0  0  0  0
    6.4610   42.7040   49.6140 N   0  0  0  0  0  0  0  0  0  0  0  0
    7.6380   43.1750   49.1280 C   0  0  0  0  0  0  0  0  0  0  0  0
    8.1010   44.4300   49.5200 C   0  0  0  0  0  0  0  0  0  0  0  0
    7.3400   45.1680   50.4260 C   0  0  0  0  0  0  0  0  0  0  0  0
    7.7700   46.4450   50.8050 O   0  0  0  0  0  0  0  0  0  0  0  0
    8.3060   46.7630   52.0590 C   0  0  0  0  0  0  0  0  0  0  0  0
    9.6950   46.7160   52.2330 C   0  0  0  0  0  0  0  0  0  0  0  0
   10.2630   47.0110   53.4760 C   0  0  0  0  0  0  0  0  0  0  0  0
    9.4420   47.3370   54.5590 C   0  0  0  0  0  0  0  0  0  0  0  0
    8.0530   47.3630   54.4000 C   0  0  0  0  0  0  0  0  0  0  0  0
    7.4850   47.0820   53.1540 C   0  0  0  0  0  0  0  0  0  0  0  0
    6.1670   44.6560   50.8910 N   0  0  0  0  0  0  0  0  0  0  0  0
    2.5940   44.1050   52.1580 C   0  0  1  0  0  0  0  0  0  0  0  0
    1.2700   43.3260   52.3430 C   0  0  0  0  0  0  0  0  0  0  0  0
    0.9070   43.1890   53.8300 C   0  0  0  0  0  0  0  0  0  0  0  0
    0.7360   44.5620   54.5210 C   0  0  0  0  0  0  0  0  0  0  0  0
    1.5870   45.6790   53.8860 C   0  0  0  0  0  0  0  0  0  0  0  0
    2.7490   45.1070   53.2090 N   0  0  0  0  0  0  0  0  0  0  0  0
    5.6920   44.3147   52.6746 H   0  0  0  0  0  0  0  0  0  0  0  0
    5.2833   43.1972   53.9570 H   0  0  0  0  0  0  0  0  0  0  0  0
    3.5738   42.2046   52.6481 H   0  0  0  0  0  0  0  0  0  0  0  0
    3.9170   42.3140   50.2900 H   0  0  0  0  0  0  0  0  0  0  0  0
    8.2260   42.5665   48.4252 H   0  0  0  0  0  0  0  0  0  0  0  0
    9.0460   44.8295   49.1233 H   0  0  0  0  0  0  0  0  0  0  0  0
   10.3430   46.4453   51.3864 H   0  0  0  0  0  0  0  0  0  0  0  0
   11.3555   46.9865   53.6015 H   0  0  0  0  0  0  0  0  0  0  0  0
    9.8884   47.5731   55.5362 H   0  0  0  0  0  0  0  0  0  0  0  0
    7.4065   47.6049   55.2565 H   0  0  0  0  0  0  0  0  0  0  0  0
    6.3924   47.1107   53.0303 H   0  0  0  0  0  0  0  0  0  0  0  0
    2.5279   44.5506   51.1545 H   0  0  0  0  0  0  0  0  0  0  0  0
    0.4623   43.8637   51.8249 H   0  0  0  0  0  0  0  0  0  0  0  0
    1.3981   42.3178   51.9221 H   0  0  0  0  0  0  0  0  0  0  0  0
   -0.0371   42.6307   53.9137 H   0  0  0  0  0  0  0  0  0  0  0  0
    1.7317   42.6606   54.3306 H   0  0  0  0  0  0  0  0  0  0  0  0
   -0.3229   44.8533   54.4597 H   0  0  0  0  0  0  0  0  0  0  0  0
    1.0769   44.4462   55.5604 H   0  0  0  0  0  0  0  0  0  0  0  0
    0.9762   46.2302   53.1558 H   0  0  0  0  0  0  0  0  0  0  0  0
    1.9328   46.3600   54.6776 H   0  0  0  0  0  0  0  0  0  0  0  0
  1  2  2  0
  2  3  1  0
  3  4  1  0
  4  5  1  0
  5  6  1  0
  6  7  2  0
  7  8  1  0
  8  9  2  0
  9 10  1  0
 10 11  1  0
 11 12  1  0
 12 13  2  0
 13 14  1  0
 14 15  2  0
 15 16  1  0
 16 17  2  0
 10 18  2  0
  4 19  1  0
 19 20  1  0
 20 21  1  0
 21 22  1  0
 22 23  1  0
 23 24  1  0
 24  2  1  0
 18  6  1  0
 24 19  1  0
 17 12  1  0
  3 25  1  0
  3 26  1  0
  4 27  1  1
  5 28  1  0
  8 29  1  0
  9 30  1  0
 13 31  1  0
 14 32  1  0
 15 33  1  0
 16 34  1  0
 17 35  1  0
 19 36  1  6
 20 37  1  0
 20 38  1  0
 21 39  1  0
 21 40  1  0
 22 41  1  0
 22 42  1  0
 23 43  1  0
 23 44  1  0
M  END
>  <meeko>  (3) 
{"is_sidechain": [false], "free_energy": -8.654, "intermolecular_energy": -11.225, "internal_energy": -0.266}

$$$$
ligand_6_conformer_4_docked
     RDKit          3D

 44 47  0  0  0  0  0  0  0  0999 V2000
    3.1200   46.8310   51.2020 O   0  0  0  0  0  0  0  0  0  0  0  0
    3.6770   46.5960   52.3060 C   0  0  0  0  0  0  0  0  0  0  0  0
    4.4290   47.6120   53.0690 C   0  0  0  0  0  0  0  0  0  0  0  0
    4.6260   46.9330   54.4370 C   0  0  2  0  0  0  0  0  0  0  0  0
    5.9910   47.1060   54.9520 N   0  0  0  0  0  0  0  0  0  0  0  0
    7.1880   47.0900   54.1560 C   0  0  0  0  0  0  0  0  0  0  0  0
    8.3800   47.3880   54.7370 N   0  0  0  0  0  0  0  0  0  0  0  0
    9.5370   47.3460   54.0270 C   0  0  0  0  0  0  0  0  0  0  0  0
    9.5150   46.9850   52.6810 C   0  0  0  0  0  0  0  0  0  0  0  0
    8.2860   46.6900   52.0900 C   0  0  0  0  0  0  0  0  0  0  0  0
    8.2480   46.2910   50.7490 O   0  0  0  0  0  0  0  0  0  0  0  0
    7.6320   45.1220   50.2850 C   0  0  0  0  0  0  0  0  0  0  0  0
    6.3440   44.8100   50.7410 C   0  0  0  0  0  0  0  0  0  0  0  0
    5.7060   43.6430   50.3110 C   0  0  0  0  0  0  0  0  0  0  0  0
    6.3600   42.7700   49.4380 C   0  0  0  0  0  0  0  0  0  0  0  0
    7.6550   43.0610   48.9980 C   0  0  0  0  0  0  0  0  0  0  0  0
    8.2890   44.2350   49.4150 C   0  0  0  0  0  0  0  0  0  0  0  0
    7.1510   46.7480   52.8380 N   0  0  0  0  0  0  0  0  0  0  0  0
    4.2350   45.4330   54.2680 C   0  0  1  0  0  0  0  0  0  0  0  0
    3.2770   44.9300   55.3740 C   0  0  0  0  0  0  0  0  0  0  0  0
    1.8120   45.2300   55.0200 C   0  0  0  0  0  0  0  0  0  0  0  0
    1.3800   44.5610   53.6950 C   0  0  0  0  0  0  0  0  0  0  0  0
    2.5400   44.3640   52.6990 C   0  0  0  0  0  0  0  0  0  0  0  0
    3.5990   45.3390   52.9580 N   0  0  0  0  0  0  0  0  0  0  0  0
    5.3958   47.8306   52.5921 H   0  0  0  0  0  0  0  0  0  0  0  0
    3.9111   48.5803   53.1335 H   0  0  0  0  0  0  0  0  0  0  0  0
    3.9817   47.4050   55.1934 H   0  0  0  0  0  0  0  0  0  0  0  0
    6.1010   47.2300   55.9840 H   0  0  0  0  0  0  0  0  0  0  0  0
   10.4909   47.5968   54.5140 H   0  0  0  0  0  0  0  0  0  0  0  0
   10.4461   46.9338   52.0975 H   0  0  0  0  0  0  0  0  0  0  0  0
    5.8325   45.4871   51.4410 H   0  0  0  0  0  0  0  0  0  0  0  0
    4.6888   43.4119   50.6600 H   0  0  0  0  0  0  0  0  0  0  0  0
    5.8561   41.8537   49.0968 H   0  0  0  0  0  0  0  0  0  0  0  0
    8.1753   42.3655   48.3231 H   0  0  0  0  0  0  0  0  0  0  0  0
    9.3048   44.4652   49.0613 H   0  0  0  0  0  0  0  0  0  0  0  0
    5.1286   44.7969   54.3508 H   0  0  0  0  0  0  0  0  0  0  0  0
    3.4026   43.8434   55.4904 H   0  0  0  0  0  0  0  0  0  0  0  0
    3.5225   45.4517   56.3108 H   0  0  0  0  0  0  0  0  0  0  0  0
    1.1687   44.8573   55.8307 H   0  0  0  0  0  0  0  0  0  0  0  0
    1.7118   46.3184   54.8959 H   0  0  0  0  0  0  0  0  0  0  0  0
    0.9489   43.5759   53.9267 H   0  0  0  0  0  0  0  0  0  0  0  0
    0.6524   45.2324   53.2157 H   0  0  0  0  0  0  0  0  0  0  0  0
    2.9463   43.3479   52.8108 H   0  0  0  0  0  0  0  0  0  0  0  0
    2.1627   44.5071   51.6757 H   0  0  0  0  0  0  0  0  0  0  0  0
  1  2  2  0
  2  3  1  0
  3  4  1  0
  4  5  1  0
  5  6  1  0
  6  7  2  0
  7  8  1  0
  8  9  2  0
  9 10  1  0
 10 11  1  0
 11 12  1  0
 12 13  2  0
 13 14  1  0
 14 15  2  0
 15 16  1  0
 16 17  2  0
 10 18  2  0
  4 19  1  0
 19 20  1  0
 20 21  1  0
 21 22  1  0
 22 23  1  0
 23 24  1  0
 24  2  1  0
 18  6  1  0
 24 19  1  0
 17 12  1  0
  3 25  1  0
  3 26  1  0
  4 27  1  1
  5 28  1  0
  8 29  1  0
  9 30  1  0
 13 31  1  0
 14 32  1  0
 15 33  1  0
 16 34  1  0
 17 35  1  0
 19 36  1  6
 20 37  1  0
 20 38  1  0
 21 39  1  0
 21 40  1  0
 22 41  1  0
 22 42  1  0
 23 43  1  0
 23 44  1  0
M  END
>  <meeko>  (4) 
{"is_sidechain": [false], "free_energy": -8.615, "intermolecular_energy": -11.441, "internal_energy": -0.001}

$$$$
ligand_6_conformer_4_docked
     RDKit          3D

 44 47  0  0  0  0  0  0  0  0999 V2000
    1.9340   42.3710   50.6740 O   0  0  0  0  0  0  0  0  0  0  0  0
    1.5470   43.2940   51.4380 C   0  0  0  0  0  0  0  0  0  0  0  0
    1.9800   44.6980   51.3010 C   0  0  0  0  0  0  0  0  0  0  0  0
    1.0130   45.4450   52.2380 C   0  0  2  0  0  0  0  0  0  0  0  0
    1.7020   46.4490   53.0600 N   0  0  0  0  0  0  0  0  0  0  0  0
    3.0370   46.3270   53.5760 C   0  0  0  0  0  0  0  0  0  0  0  0
    3.3160   45.3500   54.4810 N   0  0  0  0  0  0  0  0  0  0  0  0
    4.5740   45.1790   54.9630 C   0  0  0  0  0  0  0  0  0  0  0  0
    5.6060   46.0070   54.5240 C   0  0  0  0  0  0  0  0  0  0  0  0
    5.3100   47.0120   53.6050 C   0  0  0  0  0  0  0  0  0  0  0  0
    6.3390   47.8300   53.1270 O   0  0  0  0  0  0  0  0  0  0  0  0
    7.6570   47.4060   52.9140 C   0  0  0  0  0  0  0  0  0  0  0  0
    7.9610   46.7040   51.7410 C   0  0  0  0  0  0  0  0  0  0  0  0
    9.2630   46.2510   51.5050 C   0  0  0  0  0  0  0  0  0  0  0  0
   10.2650   46.4810   52.4510 C   0  0  0  0  0  0  0  0  0  0  0  0
    9.9650   47.1600   53.6360 C   0  0  0  0  0  0  0  0  0  0  0  0
    8.6670   47.6260   53.8670 C   0  0  0  0  0  0  0  0  0  0  0  0
    4.0340   47.1510   53.1500 N   0  0  0  0  0  0  0  0  0  0  0  0
    0.2770   44.3710   53.0940 C   0  0  1  0  0  0  0  0  0  0  0  0
   -1.2570   44.5720   53.1280 C   0  0  0  0  0  0  0  0  0  0  0  0
   -1.9320   43.9020   51.9210 C   0  0  0  0  0  0  0  0  0  0  0  0
   -1.6670   42.3800   51.8690 C   0  0  0  0  0  0  0  0  0  0  0  0
   -0.3280   41.9680   52.5130 C   0  0  0  0  0  0  0  0  0  0  0  0
    0.6120   43.0870   52.4850 N   0  0  0  0  0  0  0  0  0  0  0  0
    3.0234   44.8245   51.6255 H   0  0  0  0  0  0  0  0  0  0  0  0
    1.9518   45.0637   50.2639 H   0  0  0  0  0  0  0  0  0  0  0  0
    0.2812   46.0202   51.6518 H   0  0  0  0  0  0  0  0  0  0  0  0
    1.1670   47.3130   53.3080 H   0  0  0  0  0  0  0  0  0  0  0  0
    4.7785   44.3877   55.6993 H   0  0  0  0  0  0  0  0  0  0  0  0
    6.6324   45.8700   54.8952 H   0  0  0  0  0  0  0  0  0  0  0  0
    7.1712   46.5077   51.0009 H   0  0  0  0  0  0  0  0  0  0  0  0
    9.4981   45.7136   50.5745 H   0  0  0  0  0  0  0  0  0  0  0  0
   11.2898   46.1280   52.2637 H   0  0  0  0  0  0  0  0  0  0  0  0
   10.7508   47.3277   54.3872 H   0  0  0  0  0  0  0  0  0  0  0  0
    8.4355   48.1662   54.7969 H   0  0  0  0  0  0  0  0  0  0  0  0
    0.5988   44.4380   54.1438 H   0  0  0  0  0  0  0  0  0  0  0  0
   -1.6563   44.1307   54.0531 H   0  0  0  0  0  0  0  0  0  0  0  0
   -1.4679   45.6509   53.0905 H   0  0  0  0  0  0  0  0  0  0  0  0
   -3.0172   44.0699   51.9847 H   0  0  0  0  0  0  0  0  0  0  0  0
   -1.5086   44.3480   51.0090 H   0  0  0  0  0  0  0  0  0  0  0  0
   -2.4818   41.8661   52.4001 H   0  0  0  0  0  0  0  0  0  0  0  0
   -1.6173   42.0957   50.8075 H   0  0  0  0  0  0  0  0  0  0  0  0
   -0.5041   41.6676   53.5564 H   0  0  0  0  0  0  0  0  0  0  0  0
    0.0986   41.1271   51.9465 H   0  0  0  0  0  0  0  0  0  0  0  0
  1  2  2  0
  2  3  1  0
  3  4  1  0
  4  5  1  0
  5  6  1  0
  6  7  2  0
  7  8  1  0
  8  9  2  0
  9 10  1  0
 10 11  1  0
 11 12  1  0
 12 13  2  0
 13 14  1  0
 14 15  2  0
 15 16  1  0
 16 17  2  0
 10 18  2  0
  4 19  1  0
 19 20  1  0
 20 21  1  0
 21 22  1  0
 22 23  1  0
 23 24  1  0
 24  2  1  0
 18  6  1  0
 24 19  1  0
 17 12  1  0
  3 25  1  0
  3 26  1  0
  4 27  1  6
  5 28  1  0
  8 29  1  0
  9 30  1  0
 13 31  1  0
 14 32  1  0
 15 33  1  0
 16 34  1  0
 17 35  1  0
 19 36  1  1
 20 37  1  0
 20 38  1  0
 21 39  1  0
 21 40  1  0
 22 41  1  0
 22 42  1  0
 23 43  1  0
 23 44  1  0
M  END
>  <meeko>  (5) 
{"is_sidechain": [false], "free_energy": -8.597, "intermolecular_energy": -10.783, "internal_energy": -0.637}

$$$$
