MODEL 1
REMARK VINA RESULT:    -8.924      0.000      0.000
REMARK INTER + INTRA:         -11.055
REMARK INTER:                 -10.489
REMARK INTRA:                  -0.565
REMARK UNBOUND:                -0.565
REMARK SMILES CN1CCc2ccc(NC(=O)CN3CCCNC3=O)cc2C1=O
REMARK SMILES IDX 9 1 10 2 11 3 8 5 2 6 3 7 22 8 4 9 21 10 23 11 5 12 20 13
REMARK SMILES IDX 6 14 7 15 1 16 12 17 13 18 14 19 18 20 15 21 17 22 19 23
REMARK SMILES IDX 16 24
REMARK H PARENT 9 4 17 25
ROOT
ATOM      1  N   UNL     1       4.106  45.219  51.007  1.00  0.00    -0.325 N 
ATOM      2  C   UNL     1       3.469  44.001  51.425  1.00  0.00     0.244 C 
ATOM      3  O   UNL     1       4.151  43.045  51.884  1.00  0.00    -0.273 OA
ATOM      4  H   UNL     1       3.558  45.870  50.400  1.00  0.00     0.169 HD
ENDROOT
BRANCH   1   5
ATOM      5  C   UNL     1       5.483  45.539  51.266  1.00  0.00     0.042 A 
ATOM      6  N   UNL     1       9.075  47.262  54.210  1.00  0.00    -0.341 N 
ATOM      7  C   UNL     1      10.031  46.519  53.379  1.00  0.00     0.124 C 
ATOM      8  C   UNL     1       7.667  47.116  53.950  1.00  0.00     0.253 C 
ATOM      9  C   UNL     1       9.631  46.593  51.900  1.00  0.00     0.058 C 
ATOM     10  C   UNL     1       7.228  46.474  52.691  1.00  0.00     0.045 A 
ATOM     11  O   UNL     1       6.819  47.542  54.780  1.00  0.00    -0.269 OA
ATOM     12  C   UNL     1       8.190  46.184  51.703  1.00  0.00    -0.033 A 
ATOM     13  C   UNL     1       5.879  46.154  52.467  1.00  0.00     0.040 A 
ATOM     14  C   UNL     1       7.784  45.608  50.492  1.00  0.00     0.007 A 
ATOM     15  C   UNL     1       6.443  45.289  50.276  1.00  0.00     0.026 A 
ATOM     16  C   UNL     1       9.535  48.098  55.321  1.00  0.00     0.147 C 
ENDBRANCH   1   5
BRANCH   2  17
ATOM     17  C   UNL     1       1.994  43.824  51.232  1.00  0.00     0.221 C 
BRANCH  17  18
ATOM     18  N   UNL     1       1.283  44.086  52.489  1.00  0.00    -0.315 N 
ATOM     19  C   UNL     1       0.886  42.957  53.341  1.00  0.00     0.124 C 
ATOM     20  C   UNL     1       1.170  45.430  52.999  1.00  0.00     0.317 C 
ATOM     21  C   UNL     1      -0.286  43.337  54.250  1.00  0.00     0.043 C 
ATOM     22  N   UNL     1       0.501  45.668  54.241  1.00  0.00    -0.338 N 
ATOM     23  O   UNL     1       1.637  46.404  52.350  1.00  0.00    -0.249 OA
ATOM     24  C   UNL     1       0.071  44.562  55.094  1.00  0.00     0.119 C 
ATOM     25  H   UNL     1       0.433  46.643  54.608  1.00  0.00     0.165 HD
ENDBRANCH  17  18
ENDBRANCH   2  17
TORSDOF 3
ENDMDL
MODEL 2
REMARK VINA RESULT:    -8.165      1.738      2.622
REMARK INTER + INTRA:         -10.162
REMARK INTER:                  -9.792
REMARK INTRA:                  -0.370
REMARK UNBOUND:                -0.565
REMARK SMILES CN1CCc2ccc(NC(=O)CN3CCCNC3=O)cc2C1=O
REMARK SMILES IDX 9 1 10 2 11 3 8 5 2 6 3 7 22 8 4 9 21 10 23 11 5 12 20 13
REMARK SMILES IDX 6 14 7 15 1 16 12 17 13 18 14 19 18 20 15 21 17 22 19 23
REMARK SMILES IDX 16 24
REMARK H PARENT 9 4 17 25
ROOT
ATOM      1  N   UNL     1       3.023  43.847  53.392  1.00  0.00    -0.325 N 
ATOM      2  C   UNL     1       1.716  44.417  53.224  1.00  0.00     0.244 C 
ATOM      3  O   UNL     1       1.572  45.539  52.666  1.00  0.00    -0.273 OA
ATOM      4  H   UNL     1       3.128  43.065  54.078  1.00  0.00     0.169 HD
ENDROOT
BRANCH   1   5
ATOM      5  C   UNL     1       4.213  44.361  52.772  1.00  0.00     0.042 A 
ATOM      6  N   UNL     1       8.608  46.635  52.995  1.00  0.00    -0.341 N 
ATOM      7  C   UNL     1       8.929  46.013  51.705  1.00  0.00     0.124 C 
ATOM      8  C   UNL     1       7.373  46.288  53.646  1.00  0.00     0.253 C 
ATOM      9  C   UNL     1       7.696  45.996  50.793  1.00  0.00     0.058 C 
ATOM     10  C   UNL     1       6.334  45.562  52.883  1.00  0.00     0.045 A 
ATOM     11  O   UNL     1       7.175  46.612  54.848  1.00  0.00    -0.269 OA
ATOM     12  C   UNL     1       6.507  45.387  51.495  1.00  0.00    -0.033 A 
ATOM     13  C   UNL     1       5.187  45.053  53.514  1.00  0.00     0.040 A 
ATOM     14  C   UNL     1       5.514  44.732  50.753  1.00  0.00     0.007 A 
ATOM     15  C   UNL     1       4.379  44.223  51.387  1.00  0.00     0.026 A 
ATOM     16  C   UNL     1       9.549  47.553  53.642  1.00  0.00     0.147 C 
ENDBRANCH   1   5
BRANCH   2  17
ATOM     17  C   UNL     1       0.519  43.724  53.797  1.00  0.00     0.221 C 
BRANCH  17  18
ATOM     18  N   UNL     1      -0.068  44.530  54.874  1.00  0.00    -0.315 N 
ATOM     19  C   UNL     1       0.803  45.069  55.928  1.00  0.00     0.124 C 
ATOM     20  C   UNL     1      -1.435  44.983  54.788  1.00  0.00     0.317 C 
ATOM     21  C   UNL     1       0.009  45.362  57.204  1.00  0.00     0.043 C 
ATOM     22  N   UNL     1      -1.985  45.794  55.830  1.00  0.00    -0.338 N 
ATOM     23  O   UNL     1      -2.160  44.651  53.812  1.00  0.00    -0.249 OA
ATOM     24  C   UNL     1      -1.146  46.319  56.904  1.00  0.00     0.119 C 
ATOM     25  H   UNL     1      -2.973  46.125  55.754  1.00  0.00     0.165 HD
ENDBRANCH  17  18
ENDBRANCH   2  17
TORSDOF 3
ENDMDL
MODEL 3
REMARK VINA RESULT:    -8.135      2.134      7.213
REMARK INTER + INTRA:         -10.127
REMARK INTER:                  -9.807
REMARK INTRA:                  -0.320
REMARK UNBOUND:                -0.565
REMARK SMILES CN1CCc2ccc(NC(=O)CN3CCCNC3=O)cc2C1=O
REMARK SMILES IDX 9 1 10 2 11 3 8 5 2 6 3 7 22 8 4 9 21 10 23 11 5 12 20 13
REMARK SMILES IDX 6 14 7 15 1 16 12 17 13 18 14 19 18 20 15 21 17 22 19 23
REMARK SMILES IDX 16 24
REMARK H PARENT 9 4 17 25
ROOT
ATOM      1  N   UNL     1       5.715  44.153  51.736  1.00  0.00    -0.325 N 
ATOM      2  C   UNL     1       6.067  45.208  50.827  1.00  0.00     0.244 C 
ATOM      3  O   UNL     1       5.174  45.914  50.285  1.00  0.00    -0.273 OA
ATOM      4  H   UNL     1       6.443  43.435  51.953  1.00  0.00     0.169 HD
ENDROOT
BRANCH   1   5
ATOM      5  C   UNL     1       4.394  43.952  52.265  1.00  0.00     0.042 A 
ATOM      6  N   UNL     1       0.753  45.078  55.429  1.00  0.00    -0.341 N 
ATOM      7  C   UNL     1      -0.179  44.437  54.493  1.00  0.00     0.124 C 
ATOM      8  C   UNL     1       2.135  45.214  55.052  1.00  0.00     0.253 C 
ATOM      9  C   UNL     1       0.454  43.183  53.878  1.00  0.00     0.058 C 
ATOM     10  C   UNL     1       2.643  44.455  53.888  1.00  0.00     0.045 A 
ATOM     11  O   UNL     1       2.905  45.960  55.715  1.00  0.00    -0.269 OA
ATOM     12  C   UNL     1       1.811  43.488  53.290  1.00  0.00    -0.033 A 
ATOM     13  C   UNL     1       3.932  44.680  53.377  1.00  0.00     0.040 A 
ATOM     14  C   UNL     1       2.291  42.737  52.208  1.00  0.00     0.007 A 
ATOM     15  C   UNL     1       3.571  42.968  51.701  1.00  0.00     0.026 A 
ATOM     16  C   UNL     1       0.282  45.622  56.706  1.00  0.00     0.147 C 
ENDBRANCH   1   5
BRANCH   2  17
ATOM     17  C   UNL     1       7.500  45.418  50.445  1.00  0.00     0.221 C 
BRANCH  17  18
ATOM     18  N   UNL     1       8.189  46.210  51.471  1.00  0.00    -0.315 N 
ATOM     19  C   UNL     1       7.400  47.042  52.390  1.00  0.00     0.124 C 
ATOM     20  C   UNL     1       9.593  46.008  51.731  1.00  0.00     0.317 C 
ATOM     21  C   UNL     1       8.245  48.180  52.967  1.00  0.00     0.043 C 
ATOM     22  N   UNL     1      10.245  46.765  52.756  1.00  0.00    -0.338 N 
ATOM     23  O   UNL     1      10.260  45.186  51.047  1.00  0.00    -0.249 OA
ATOM     24  C   UNL     1       9.486  47.621  53.664  1.00  0.00     0.119 C 
ATOM     25  H   UNL     1      11.260  46.604  52.944  1.00  0.00     0.165 HD
ENDBRANCH  17  18
ENDBRANCH   2  17
TORSDOF 3
ENDMDL
MODEL 4
REMARK VINA RESULT:    -8.119      2.034      2.916
REMARK INTER + INTRA:         -10.108
REMARK INTER:                  -9.808
REMARK INTRA:                  -0.299
REMARK UNBOUND:                -0.565
REMARK SMILES CN1CCc2ccc(NC(=O)CN3CCCNC3=O)cc2C1=O
REMARK SMILES IDX 9 1 10 2 11 3 8 5 2 6 3 7 22 8 4 9 21 10 23 11 5 12 20 13
REMARK SMILES IDX 6 14 7 15 1 16 12 17 13 18 14 19 18 20 15 21 17 22 19 23
REMARK SMILES IDX 16 24
REMARK H PARENT 9 4 17 25
ROOT
ATOM      1  N   UNL     1       2.967  43.954  53.383  1.00  0.00    -0.325 N 
ATOM      2  C   UNL     1       1.898  44.801  53.835  1.00  0.00     0.244 C 
ATOM      3  O   UNL     1       2.050  46.052  53.893  1.00  0.00    -0.273 OA
ATOM      4  H   UNL     1       2.900  42.933  53.596  1.00  0.00     0.169 HD
ENDROOT
BRANCH   1   5
ATOM      5  C   UNL     1       4.174  44.437  52.771  1.00  0.00     0.042 A 
ATOM      6  N   UNL     1       8.632  46.580  53.024  1.00  0.00    -0.341 N 
ATOM      7  C   UNL     1       8.941  45.956  51.732  1.00  0.00     0.124 C 
ATOM      8  C   UNL     1       7.384  46.267  53.668  1.00  0.00     0.253 C 
ATOM      9  C   UNL     1       7.712  45.980  50.815  1.00  0.00     0.058 C 
ATOM     10  C   UNL     1       6.328  45.575  52.897  1.00  0.00     0.045 A 
ATOM     11  O   UNL     1       7.190  46.590  54.872  1.00  0.00    -0.269 OA
ATOM     12  C   UNL     1       6.502  45.402  51.509  1.00  0.00    -0.033 A 
ATOM     13  C   UNL     1       5.164  45.096  53.521  1.00  0.00     0.040 A 
ATOM     14  C   UNL     1       5.494  44.780  50.760  1.00  0.00     0.007 A 
ATOM     15  C   UNL     1       4.341  44.302  51.386  1.00  0.00     0.026 A 
ATOM     16  C   UNL     1       9.596  47.467  53.680  1.00  0.00     0.147 C 
ENDBRANCH   1   5
BRANCH   2  17
ATOM     17  C   UNL     1       0.621  44.194  54.329  1.00  0.00     0.221 C 
BRANCH  17  18
ATOM     18  N   UNL     1      -0.286  43.934  53.205  1.00  0.00    -0.315 N 
ATOM     19  C   UNL     1      -0.630  45.030  52.288  1.00  0.00     0.124 C 
ATOM     20  C   UNL     1      -0.659  42.584  52.863  1.00  0.00     0.317 C 
ATOM     21  C   UNL     1      -1.958  44.757  51.576  1.00  0.00     0.043 C 
ATOM     22  N   UNL     1      -1.519  42.342  51.745  1.00  0.00    -0.338 N 
ATOM     23  O   UNL     1      -0.252  41.612  53.554  1.00  0.00    -0.249 OA
ATOM     24  C   UNL     1      -1.898  43.420  50.835  1.00  0.00     0.119 C 
ATOM     25  H   UNL     1      -1.775  41.360  51.499  1.00  0.00     0.165 HD
ENDBRANCH  17  18
ENDBRANCH   2  17
TORSDOF 3
ENDMDL
MODEL 5
REMARK VINA RESULT:    -7.421      2.285      7.968
REMARK INTER + INTRA:          -9.288
REMARK INTER:                  -9.094
REMARK INTRA:                  -0.194
REMARK UNBOUND:                -0.565
REMARK SMILES CN1CCc2ccc(NC(=O)CN3CCCNC3=O)cc2C1=O
REMARK SMILES IDX 9 1 10 2 11 3 8 5 2 6 3 7 22 8 4 9 21 10 23 11 5 12 20 13
REMARK SMILES IDX 6 14 7 15 1 16 12 17 13 18 14 19 18 20 15 21 17 22 19 23
REMARK SMILES IDX 16 24
REMARK H PARENT 9 4 17 25
ROOT
ATOM      1  N   UNL     1       5.194  45.585  54.589  1.00  0.00    -0.325 N 
ATOM      2  C   UNL     1       5.580  46.955  54.402  1.00  0.00     0.244 C 
ATOM      3  O   UNL     1       4.789  47.780  53.869  1.00  0.00    -0.273 OA
ATOM      4  H   UNL     1       5.949  44.889  54.782  1.00  0.00     0.169 HD
ENDROOT
BRANCH   1   5
ATOM      5  C   UNL     1       3.856  45.093  54.405  1.00  0.00     0.042 A 
ATOM      6  N   UNL     1      -0.842  44.589  55.892  1.00  0.00    -0.341 N 
ATOM      7  C   UNL     1      -1.193  44.308  54.495  1.00  0.00     0.124 C 
ATOM      8  C   UNL     1       0.510  44.965  56.208  1.00  0.00     0.253 C 
ATOM      9  C   UNL     1      -0.107  43.454  53.828  1.00  0.00     0.058 C 
ATOM     10  C   UNL     1       1.568  44.775  55.192  1.00  0.00     0.045 A 
ATOM     11  O   UNL     1       0.790  45.440  57.343  1.00  0.00    -0.269 OA
ATOM     12  C   UNL     1       1.260  44.069  54.013  1.00  0.00    -0.033 A 
ATOM     13  C   UNL     1       2.865  45.280  55.386  1.00  0.00     0.040 A 
ATOM     14  C   UNL     1       2.262  43.850  53.057  1.00  0.00     0.007 A 
ATOM     15  C   UNL     1       3.547  44.358  53.252  1.00  0.00     0.026 A 
ATOM     16  C   UNL     1      -1.858  44.541  56.947  1.00  0.00     0.147 C 
ENDBRANCH   1   5
BRANCH   2  17
ATOM     17  C   UNL     1       6.968  47.396  54.756  1.00  0.00     0.221 C 
BRANCH  17  18
ATOM     18  N   UNL     1       7.894  47.086  53.661  1.00  0.00    -0.315 N 
ATOM     19  C   UNL     1       7.390  47.041  52.281  1.00  0.00     0.124 C 
ATOM     20  C   UNL     1       9.316  47.048  53.894  1.00  0.00     0.317 C 
ATOM     21  C   UNL     1       8.292  46.181  51.391  1.00  0.00     0.043 C 
ATOM     22  N   UNL     1      10.211  46.776  52.811  1.00  0.00    -0.338 N 
ATOM     23  O   UNL     1       9.782  47.231  55.051  1.00  0.00    -0.249 OA
ATOM     24  C   UNL     1       9.730  46.699  51.433  1.00  0.00     0.119 C 
ATOM     25  H   UNL     1      11.240  46.760  52.988  1.00  0.00     0.165 HD
ENDBRANCH  17  18
ENDBRANCH   2  17
TORSDOF 3
ENDMDL
