ligand_71_conformer_5_docked
     RDKit          3D

 39 41  0  0  0  0  0  0  0  0999 V2000
    7.2760   45.7740   50.5960 C   0  0  0  0  0  0  0  0  0  0  0  0
    8.1530   46.2200   51.7360 C   0  0  0  0  0  0  0  0  0  0  0  0
    9.5480   46.1070   51.5940 C   0  0  0  0  0  0  0  0  0  0  0  0
   10.4030   46.5490   52.6050 C   0  0  0  0  0  0  0  0  0  0  0  0
    9.8800   47.1070   53.7700 C   0  0  0  0  0  0  0  0  0  0  0  0
    8.4980   47.2090   53.9370 C   0  0  0  0  0  0  0  0  0  0  0  0
    7.6200   46.7490   52.9400 C   0  0  0  0  0  0  0  0  0  0  0  0
    6.1640   46.8500   53.1840 C   0  0  0  0  0  0  0  0  0  0  0  0
    5.6670   47.9710   53.4770 O   0  0  0  0  0  0  0  0  0  0  0  0
    5.3350   45.6780   53.1470 N   0  0  0  0  0  0  0  0  0  0  0  0
    3.9040   45.7230   53.1070 C   0  0  0  0  0  0  0  0  0  0  0  0
    3.1070   45.3180   54.1170 N   0  0  0  0  0  0  0  0  0  0  0  0
    1.7870   45.4980   53.8330 C   0  0  0  0  0  0  0  0  0  0  0  0
    0.7190   45.1220   54.7970 C   0  0  0  0  0  0  0  0  0  0  0  0
    0.7420   45.6420   56.1070 C   0  0  0  0  0  0  0  0  0  0  0  0
   -0.2600   45.3130   57.0210 C   0  0  0  0  0  0  0  0  0  0  0  0
   -1.2980   44.4640   56.6460 C   0  0  0  0  0  0  0  0  0  0  0  0
   -1.3410   43.9390   55.3550 C   0  0  0  0  0  0  0  0  0  0  0  0
   -0.3360   44.2580   54.4170 C   0  0  0  0  0  0  0  0  0  0  0  0
   -0.3510   43.7220   53.1170 O   0  0  0  0  0  0  0  0  0  0  0  0
    0.2560   42.4930   52.7280 C   0  0  0  0  0  0  0  0  0  0  0  0
    1.1710   42.7180   51.7160 F   0  0  0  0  0  0  0  0  0  0  0  0
    0.9130   41.9510   53.8150 F   0  0  0  0  0  0  0  0  0  0  0  0
    1.5390   46.0570   52.5750 C   0  0  0  0  0  0  0  0  0  0  0  0
    3.0180   46.3300   51.8190 S   0  0  0  0  0  0  0  0  0  0  0  0
    6.3626   45.3095   50.9960 H   0  0  0  0  0  0  0  0  0  0  0  0
    7.0052   46.6439   49.9796 H   0  0  0  0  0  0  0  0  0  0  0  0
    7.8195   45.0428   49.9796 H   0  0  0  0  0  0  0  0  0  0  0  0
    9.9688   45.6664   50.6781 H   0  0  0  0  0  0  0  0  0  0  0  0
   11.4922   46.4566   52.4818 H   0  0  0  0  0  0  0  0  0  0  0  0
   10.5569   47.4674   54.5586 H   0  0  0  0  0  0  0  0  0  0  0  0
    8.0919   47.6536   54.8576 H   0  0  0  0  0  0  0  0  0  0  0  0
    5.7940   44.7390   53.1580 H   0  0  0  0  0  0  0  0  0  0  0  0
    1.5579   46.3138   56.4119 H   0  0  0  0  0  0  0  0  0  0  0  0
   -0.2297   45.7254   58.0403 H   0  0  0  0  0  0  0  0  0  0  0  0
   -2.0856   44.2070   57.3696 H   0  0  0  0  0  0  0  0  0  0  0  0
   -2.1652   43.2706   55.0652 H   0  0  0  0  0  0  0  0  0  0  0  0
   -0.5211   41.8019   52.3695 H   0  0  0  0  0  0  0  0  0  0  0  0
    0.5481   46.2798   52.1525 H   0  0  0  0  0  0  0  0  0  0  0  0
  1  2  1  0
  2  3  2  0
  3  4  1  0
  4  5  2  0
  5  6  1  0
  6  7  2  0
  7  8  1  0
  8  9  2  0
  8 10  1  0
 10 11  1  0
 11 12  2  0
 12 13  1  0
 13 14  1  0
 14 15  2  0
 15 16  1  0
 16 17  2  0
 17 18  1  0
 18 19  2  0
 19 20  1  0
 20 21  1  0
 21 22  1  0
 21 23  1  0
 13 24  2  0
 24 25  1  0
  7  2  1  0
 25 11  1  0
 19 14  1  0
  1 26  1  0
  1 27  1  0
  1 28  1  0
  3 29  1  0
  4 30  1  0
  5 31  1  0
  6 32  1  0
 10 33  1  0
 15 34  1  0
 16 35  1  0
 17 36  1  0
 18 37  1  0
 21 38  1  0
 24 39  1  0
M  END
>  <meeko>  (1) 
{"is_sidechain": [false], "free_energy": -9.042, "intermolecular_energy": -11.685, "internal_energy": -0.466}

$$$$
ligand_71_conformer_5_docked
     RDKit          3D

 39 41  0  0  0  0  0  0  0  0999 V2000
    7.1390   45.8350   50.9370 C   0  0  0  0  0  0  0  0  0  0  0  0
    8.0620   46.3040   52.0310 C   0  0  0  0  0  0  0  0  0  0  0  0
    9.4480   46.2800   51.7960 C   0  0  0  0  0  0  0  0  0  0  0  0
   10.3400   46.7470   52.7640 C   0  0  0  0  0  0  0  0  0  0  0  0
    9.8630   47.2400   53.9760 C   0  0  0  0  0  0  0  0  0  0  0  0
    8.4910   47.2530   54.2350 C   0  0  0  0  0  0  0  0  0  0  0  0
    7.5780   46.7670   53.2830 C   0  0  0  0  0  0  0  0  0  0  0  0
    6.1380   46.7720   53.6230 C   0  0  0  0  0  0  0  0  0  0  0  0
    5.4820   47.8410   53.4990 O   0  0  0  0  0  0  0  0  0  0  0  0
    5.5080   45.5920   54.1450 N   0  0  0  0  0  0  0  0  0  0  0  0
    4.0880   45.4330   54.2460 C   0  0  0  0  0  0  0  0  0  0  0  0
    3.2960   45.0500   53.2230 N   0  0  0  0  0  0  0  0  0  0  0  0
    1.9900   44.9470   53.5970 C   0  0  0  0  0  0  0  0  0  0  0  0
    0.9300   44.5400   52.6360 C   0  0  0  0  0  0  0  0  0  0  0  0
   -0.2350   45.3220   52.5040 C   0  0  0  0  0  0  0  0  0  0  0  0
   -1.2330   44.9650   51.5960 C   0  0  0  0  0  0  0  0  0  0  0  0
   -1.0870   43.8260   50.8080 C   0  0  0  0  0  0  0  0  0  0  0  0
    0.0580   43.0390   50.9220 C   0  0  0  0  0  0  0  0  0  0  0  0
    1.0780   43.3820   51.8350 C   0  0  0  0  0  0  0  0  0  0  0  0
    2.2300   42.5890   51.9790 O   0  0  0  0  0  0  0  0  0  0  0  0
    3.2170   42.3830   50.9720 C   0  0  0  0  0  0  0  0  0  0  0  0
    4.4780   42.6060   51.4950 F   0  0  0  0  0  0  0  0  0  0  0  0
    3.1400   41.0770   50.5280 F   0  0  0  0  0  0  0  0  0  0  0  0
    1.7490   45.2510   54.9400 C   0  0  0  0  0  0  0  0  0  0  0  0
    3.2150   45.6520   55.6620 S   0  0  0  0  0  0  0  0  0  0  0  0
    6.2428   45.3796   51.3835 H   0  0  0  0  0  0  0  0  0  0  0  0
    6.8432   46.6921   50.3143 H   0  0  0  0  0  0  0  0  0  0  0  0
    7.6569   45.0907   50.3143 H   0  0  0  0  0  0  0  0  0  0  0  0
    9.8330   45.8903   50.8421 H   0  0  0  0  0  0  0  0  0  0  0  0
   11.4223   46.7253   52.5685 H   0  0  0  0  0  0  0  0  0  0  0  0
   10.5680   47.6196   54.7302 H   0  0  0  0  0  0  0  0  0  0  0  0
    8.1211   47.6472   55.1930 H   0  0  0  0  0  0  0  0  0  0  0  0
    6.1120   44.8070   54.4780 H   0  0  0  0  0  0  0  0  0  0  0  0
   -0.3590   46.2229   53.1229 H   0  0  0  0  0  0  0  0  0  0  0  0
   -2.1370   45.5847   51.5025 H   0  0  0  0  0  0  0  0  0  0  0  0
   -1.8764   43.5469   50.0946 H   0  0  0  0  0  0  0  0  0  0  0  0
    0.1675   42.1422   50.2944 H   0  0  0  0  0  0  0  0  0  0  0  0
    3.0390   43.0801   50.1399 H   0  0  0  0  0  0  0  0  0  0  0  0
    0.7690   45.2314   55.4392 H   0  0  0  0  0  0  0  0  0  0  0  0
  1  2  1  0
  2  3  2  0
  3  4  1  0
  4  5  2  0
  5  6  1  0
  6  7  2  0
  7  8  1  0
  8  9  2  0
  8 10  1  0
 10 11  1  0
 11 12  2  0
 12 13  1  0
 13 14  1  0
 14 15  2  0
 15 16  1  0
 16 17  2  0
 17 18  1  0
 18 19  2  0
 19 20  1  0
 20 21  1  0
 21 22  1  0
 21 23  1  0
 13 24  2  0
 24 25  1  0
  7  2  1  0
 25 11  1  0
 19 14  1  0
  1 26  1  0
  1 27  1  0
  1 28  1  0
  3 29  1  0
  4 30  1  0
  5 31  1  0
  6 32  1  0
 10 33  1  0
 15 34  1  0
 16 35  1  0
 17 36  1  0
 18 37  1  0
 21 38  1  0
 24 39  1  0
M  END
>  <meeko>  (2) 
{"is_sidechain": [false], "free_energy": -8.648, "intermolecular_energy": -10.945, "internal_energy": -0.697}

$$$$
ligand_71_conformer_5_docked
     RDKit          3D

 39 41  0  0  0  0  0  0  0  0999 V2000
    0.7560   43.0600   53.3800 C   0  0  0  0  0  0  0  0  0  0  0  0
    0.1240   43.8770   54.4750 C   0  0  0  0  0  0  0  0  0  0  0  0
   -1.2130   43.6140   54.8240 C   0  0  0  0  0  0  0  0  0  0  0  0
   -1.8280   44.3140   55.8630 C   0  0  0  0  0  0  0  0  0  0  0  0
   -1.1200   45.2860   56.5670 C   0  0  0  0  0  0  0  0  0  0  0  0
    0.2020   45.5760   56.2220 C   0  0  0  0  0  0  0  0  0  0  0  0
    0.8310   44.8970   55.1650 C   0  0  0  0  0  0  0  0  0  0  0  0
    2.2220   45.2670   54.8200 C   0  0  0  0  0  0  0  0  0  0  0  0
    3.1560   44.9380   55.6000 O   0  0  0  0  0  0  0  0  0  0  0  0
    2.4990   46.0440   53.6440 N   0  0  0  0  0  0  0  0  0  0  0  0
    3.8140   46.2140   53.1020 C   0  0  0  0  0  0  0  0  0  0  0  0
    4.3900   45.3590   52.2320 N   0  0  0  0  0  0  0  0  0  0  0  0
    5.6310   45.7730   51.8510 C   0  0  0  0  0  0  0  0  0  0  0  0
    6.4590   44.9890   50.8970 C   0  0  0  0  0  0  0  0  0  0  0  0
    5.9170   43.8510   50.2670 C   0  0  0  0  0  0  0  0  0  0  0  0
    6.6750   43.1120   49.3570 C   0  0  0  0  0  0  0  0  0  0  0  0
    7.9810   43.4940   49.0620 C   0  0  0  0  0  0  0  0  0  0  0  0
    8.5370   44.6170   49.6720 C   0  0  0  0  0  0  0  0  0  0  0  0
    7.7880   45.3760   50.5960 C   0  0  0  0  0  0  0  0  0  0  0  0
    8.3390   46.5000   51.2380 O   0  0  0  0  0  0  0  0  0  0  0  0
    9.4830   46.4830   52.0860 C   0  0  0  0  0  0  0  0  0  0  0  0
   10.6340   46.4050   51.3230 F   0  0  0  0  0  0  0  0  0  0  0  0
    9.5130   47.6500   52.8250 F   0  0  0  0  0  0  0  0  0  0  0  0
    6.0390   46.9790   52.4280 C   0  0  0  0  0  0  0  0  0  0  0  0
    4.8050   47.5270   53.4330 S   0  0  0  0  0  0  0  0  0  0  0  0
    1.3715   42.2643   53.8249 H   0  0  0  0  0  0  0  0  0  0  0  0
   -0.0313   42.6098   52.7575 H   0  0  0  0  0  0  0  0  0  0  0  0
    1.3895   43.7089   52.7575 H   0  0  0  0  0  0  0  0  0  0  0  0
   -1.7794   42.8491   54.2726 H   0  0  0  0  0  0  0  0  0  0  0  0
   -2.8738   44.0980   56.1267 H   0  0  0  0  0  0  0  0  0  0  0  0
   -1.6027   45.8254   57.3953 H   0  0  0  0  0  0  0  0  0  0  0  0
    0.7558   46.3431   56.7831 H   0  0  0  0  0  0  0  0  0  0  0  0
    1.7060   46.5180   53.1580 H   0  0  0  0  0  0  0  0  0  0  0  0
    4.8862   43.5418   50.4946 H   0  0  0  0  0  0  0  0  0  0  0  0
    6.2395   42.2259   48.8719 H   0  0  0  0  0  0  0  0  0  0  0  0
    8.5755   42.9079   48.3457 H   0  0  0  0  0  0  0  0  0  0  0  0
    9.5684   44.9141   49.4311 H   0  0  0  0  0  0  0  0  0  0  0  0
    9.4278   45.6105   52.7536 H   0  0  0  0  0  0  0  0  0  0  0  0
    7.0012   47.4833   52.2550 H   0  0  0  0  0  0  0  0  0  0  0  0
  1  2  1  0
  2  3  2  0
  3  4  1  0
  4  5  2  0
  5  6  1  0
  6  7  2  0
  7  8  1  0
  8  9  2  0
  8 10  1  0
 10 11  1  0
 11 12  2  0
 12 13  1  0
 13 14  1  0
 14 15  2  0
 15 16  1  0
 16 17  2  0
 17 18  1  0
 18 19  2  0
 19 20  1  0
 20 21  1  0
 21 22  1  0
 21 23  1  0
 13 24  2  0
 24 25  1  0
  7  2  1  0
 25 11  1  0
 19 14  1  0
  1 26  1  0
  1 27  1  0
  1 28  1  0
  3 29  1  0
  4 30  1  0
  5 31  1  0
  6 32  1  0
 10 33  1  0
 15 34  1  0
 16 35  1  0
 17 36  1  0
 18 37  1  0
 21 38  1  0
 24 39  1  0
M  END
>  <meeko>  (3) 
{"is_sidechain": [false], "free_energy": -8.523, "intermolecular_energy": -11.582, "internal_energy": 0.102}

$$$$
ligand_71_conformer_5_docked
     RDKit          3D

 39 41  0  0  0  0  0  0  0  0999 V2000
    7.8940   45.5910   50.4230 C   0  0  0  0  0  0  0  0  0  0  0  0
    8.2220   46.1950   51.7640 C   0  0  0  0  0  0  0  0  0  0  0  0
    9.5510   46.5730   52.0230 C   0  0  0  0  0  0  0  0  0  0  0  0
    9.8940   47.1780   53.2340 C   0  0  0  0  0  0  0  0  0  0  0  0
    8.9190   47.4110   54.2010 C   0  0  0  0  0  0  0  0  0  0  0  0
    7.5970   47.0250   53.9690 C   0  0  0  0  0  0  0  0  0  0  0  0
    7.2360   46.3950   52.7660 C   0  0  0  0  0  0  0  0  0  0  0  0
    5.8280   45.9750   52.5870 C   0  0  0  0  0  0  0  0  0  0  0  0
    5.0080   46.7810   52.0700 O   0  0  0  0  0  0  0  0  0  0  0  0
    5.3860   44.6900   53.0510 N   0  0  0  0  0  0  0  0  0  0  0  0
    4.1300   44.1070   52.6850 C   0  0  0  0  0  0  0  0  0  0  0  0
    2.9310   44.6550   52.9700 N   0  0  0  0  0  0  0  0  0  0  0  0
    1.8980   43.9140   52.4810 C   0  0  0  0  0  0  0  0  0  0  0  0
    0.4810   44.3210   52.6740 C   0  0  0  0  0  0  0  0  0  0  0  0
   -0.3480   44.5320   51.5540 C   0  0  0  0  0  0  0  0  0  0  0  0
   -1.6840   44.9000   51.7160 C   0  0  0  0  0  0  0  0  0  0  0  0
   -2.2150   45.0620   52.9930 C   0  0  0  0  0  0  0  0  0  0  0  0
   -1.4140   44.8560   54.1150 C   0  0  0  0  0  0  0  0  0  0  0  0
   -0.0600   44.4860   53.9730 C   0  0  0  0  0  0  0  0  0  0  0  0
    0.7700   44.2950   55.0920 O   0  0  0  0  0  0  0  0  0  0  0  0
    1.0540   45.2790   56.0820 C   0  0  0  0  0  0  0  0  0  0  0  0
    0.7880   44.7720   57.3410 F   0  0  0  0  0  0  0  0  0  0  0  0
    2.3910   45.6190   56.0080 F   0  0  0  0  0  0  0  0  0  0  0  0
    2.2910   42.7600   51.7950 C   0  0  0  0  0  0  0  0  0  0  0  0
    3.9720   42.6860   51.8070 S   0  0  0  0  0  0  0  0  0  0  0  0
    7.3737   44.6330   50.5697 H   0  0  0  0  0  0  0  0  0  0  0  0
    7.2451   46.2782   49.8602 H   0  0  0  0  0  0  0  0  0  0  0  0
    8.8237   45.4209   49.8602 H   0  0  0  0  0  0  0  0  0  0  0  0
   10.3273   46.3907   51.2653 H   0  0  0  0  0  0  0  0  0  0  0  0
   10.9369   47.4713   53.4247 H   0  0  0  0  0  0  0  0  0  0  0  0
    9.1905   47.8995   55.1484 H   0  0  0  0  0  0  0  0  0  0  0  0
    6.8312   47.2160   54.7352 H   0  0  0  0  0  0  0  0  0  0  0  0
    6.0050   44.1490   53.6960 H   0  0  0  0  0  0  0  0  0  0  0  0
    0.0626   44.4052   50.5414 H   0  0  0  0  0  0  0  0  0  0  0  0
   -2.3193   45.0625   50.8329 H   0  0  0  0  0  0  0  0  0  0  0  0
   -3.2686   45.3531   53.1166 H   0  0  0  0  0  0  0  0  0  0  0  0
   -1.8416   44.9831   55.1205 H   0  0  0  0  0  0  0  0  0  0  0  0
    0.4254   46.1643   55.9055 H   0  0  0  0  0  0  0  0  0  0  0  0
    1.6169   42.0269   51.3279 H   0  0  0  0  0  0  0  0  0  0  0  0
  1  2  1  0
  2  3  2  0
  3  4  1  0
  4  5  2  0
  5  6  1  0
  6  7  2  0
  7  8  1  0
  8  9  2  0
  8 10  1  0
 10 11  1  0
 11 12  2  0
 12 13  1  0
 13 14  1  0
 14 15  2  0
 15 16  1  0
 16 17  2  0
 17 18  1  0
 18 19  2  0
 19 20  1  0
 20 21  1  0
 21 22  1  0
 21 23  1  0
 13 24  2  0
 24 25  1  0
  7  2  1  0
 25 11  1  0
 19 14  1  0
  1 26  1  0
  1 27  1  0
  1 28  1  0
  3 29  1  0
  4 30  1  0
  5 31  1  0
  6 32  1  0
 10 33  1  0
 15 34  1  0
 16 35  1  0
 17 36  1  0
 18 37  1  0
 21 38  1  0
 24 39  1  0
M  END
>  <meeko>  (4) 
{"is_sidechain": [false], "free_energy": -8.422, "intermolecular_energy": -10.775, "internal_energy": -0.575}

$$$$
ligand_71_conformer_5_docked
     RDKit          3D

 39 41  0  0  0  0  0  0  0  0999 V2000
    0.0790   43.4910   53.5700 C   0  0  0  0  0  0  0  0  0  0  0  0
   -0.0890   44.2970   54.8310 C   0  0  0  0  0  0  0  0  0  0  0  0
   -1.3200   44.2380   55.5080 C   0  0  0  0  0  0  0  0  0  0  0  0
   -1.5070   44.9330   56.7040 C   0  0  0  0  0  0  0  0  0  0  0  0
   -0.4720   45.6960   57.2400 C   0  0  0  0  0  0  0  0  0  0  0  0
    0.7510   45.7820   56.5720 C   0  0  0  0  0  0  0  0  0  0  0  0
    0.9520   45.1080   55.3550 C   0  0  0  0  0  0  0  0  0  0  0  0
    2.2560   45.2630   54.6730 C   0  0  0  0  0  0  0  0  0  0  0  0
    3.2560   44.6340   55.1110 O   0  0  0  0  0  0  0  0  0  0  0  0
    2.3950   46.1630   53.5630 N   0  0  0  0  0  0  0  0  0  0  0  0
    3.5320   46.1730   52.6910 C   0  0  0  0  0  0  0  0  0  0  0  0
    4.8010   46.3690   53.1060 N   0  0  0  0  0  0  0  0  0  0  0  0
    5.6940   46.2970   52.0800 C   0  0  0  0  0  0  0  0  0  0  0  0
    7.1530   46.4840   52.2960 C   0  0  0  0  0  0  0  0  0  0  0  0
    7.6160   47.0800   53.4850 C   0  0  0  0  0  0  0  0  0  0  0  0
    8.9830   47.2490   53.7130 C   0  0  0  0  0  0  0  0  0  0  0  0
    9.9070   46.8270   52.7600 C   0  0  0  0  0  0  0  0  0  0  0  0
    9.4710   46.2330   51.5770 C   0  0  0  0  0  0  0  0  0  0  0  0
    8.0940   46.0550   51.3270 C   0  0  0  0  0  0  0  0  0  0  0  0
    7.6340   45.4770   50.1310 O   0  0  0  0  0  0  0  0  0  0  0  0
    7.9400   44.1600   49.6840 C   0  0  0  0  0  0  0  0  0  0  0  0
    6.7740   43.4840   49.3740 F   0  0  0  0  0  0  0  0  0  0  0  0
    8.7270   44.2400   48.5510 F   0  0  0  0  0  0  0  0  0  0  0  0
    5.1180   46.0370   50.8320 C   0  0  0  0  0  0  0  0  0  0  0  0
    3.4540   45.8910   51.0390 S   0  0  0  0  0  0  0  0  0  0  0  0
    0.2971   42.4446   53.8300 H   0  0  0  0  0  0  0  0  0  0  0  0
   -0.8479   43.5366   52.9795 H   0  0  0  0  0  0  0  0  0  0  0  0
    0.9106   43.9031   52.9795 H   0  0  0  0  0  0  0  0  0  0  0  0
   -2.1430   43.6388   55.0914 H   0  0  0  0  0  0  0  0  0  0  0  0
   -2.4744   44.8781   57.2248 H   0  0  0  0  0  0  0  0  0  0  0  0
   -0.6184   46.2310   58.1899 H   0  0  0  0  0  0  0  0  0  0  0  0
    1.5654   46.3832   57.0024 H   0  0  0  0  0  0  0  0  0  0  0  0
    1.6350   46.8550   53.3800 H   0  0  0  0  0  0  0  0  0  0  0  0
    6.8926   47.4161   54.2425 H   0  0  0  0  0  0  0  0  0  0  0  0
    9.3307   47.7159   54.6463 H   0  0  0  0  0  0  0  0  0  0  0  0
   10.9834   46.9629   52.9415 H   0  0  0  0  0  0  0  0  0  0  0  0
   10.2076   45.8998   50.8311 H   0  0  0  0  0  0  0  0  0  0  0  0
    8.4731   43.6209   50.4810 H   0  0  0  0  0  0  0  0  0  0  0  0
    5.6595   45.9439   49.8791 H   0  0  0  0  0  0  0  0  0  0  0  0
  1  2  1  0
  2  3  2  0
  3  4  1  0
  4  5  2  0
  5  6  1  0
  6  7  2  0
  7  8  1  0
  8  9  2  0
  8 10  1  0
 10 11  1  0
 11 12  2  0
 12 13  1  0
 13 14  1  0
 14 15  2  0
 15 16  1  0
 16 17  2  0
 17 18  1  0
 18 19  2  0
 19 20  1  0
 20 21  1  0
 21 22  1  0
 21 23  1  0
 13 24  2  0
 24 25  1  0
  7  2  1  0
 25 11  1  0
 19 14  1  0
  1 26  1  0
  1 27  1  0
  1 28  1  0
  3 29  1  0
  4 30  1  0
  5 31  1  0
  6 32  1  0
 10 33  1  0
 15 34  1  0
 16 35  1  0
 17 36  1  0
 18 37  1  0
 21 38  1  0
 24 39  1  0
M  END
>  <meeko>  (5) 
{"is_sidechain": [false], "free_energy": -8.359, "intermolecular_energy": -11.405, "internal_energy": 0.136}

$$$$
