MODEL 1
REMARK VINA RESULT:    -9.147      0.000      0.000
REMARK INTER + INTRA:         -13.089
REMARK INTER:                 -12.355
REMARK INTRA:                  -0.734
REMARK UNBOUND:                -0.734
REMARK SMILES O=C(Nc1cccc(OC(F)F)c1)c1cccc(Nc2ncccn2)c1
REMARK SMILES IDX 4 1 5 2 6 3 7 4 8 5 13 6 3 7 1 8 2 9 14 11 15 12 26 13 16 14
REMARK SMILES IDX 18 15 17 16 19 17 20 19 21 20 25 21 22 22 24 23 23 24 9 25
REMARK SMILES IDX 10 26 11 27 12 28
REMARK H PARENT 3 10 19 18
ROOT
ATOM      1  C   UNL     1       7.135  46.507  52.774  1.00  0.00     0.045 A 
ATOM      2  C   UNL     1       7.758  46.899  51.581  1.00  0.00     0.026 A 
ATOM      3  C   UNL     1       9.126  47.180  51.557  1.00  0.00     0.006 A 
ATOM      4  C   UNL     1       9.886  47.060  52.721  1.00  0.00     0.047 A 
ATOM      5  C   UNL     1       9.292  46.649  53.919  1.00  0.00     0.128 A 
ATOM      6  C   UNL     1       7.911  46.364  53.940  1.00  0.00     0.072 A 
ENDROOT
BRANCH   1   7
ATOM      7  N   UNL     1       5.730  46.202  52.770  1.00  0.00    -0.322 N 
ATOM      8  O   UNL     1       5.031  47.981  54.111  1.00  0.00    -0.269 OA
ATOM      9  C   UNL     1       4.769  46.849  53.621  1.00  0.00     0.255 C 
ATOM     10  H   UNL     1       5.372  45.556  52.029  1.00  0.00     0.170 HD
BRANCH   9  11
ATOM     11  C   UNL     1       3.450  46.224  53.888  1.00  0.00     0.042 A 
ATOM     12  C   UNL     1       2.606  45.868  52.822  1.00  0.00     0.014 A 
ATOM     13  C   UNL     1       3.012  46.005  55.207  1.00  0.00     0.040 A 
ATOM     14  C   UNL     1       1.356  45.296  53.068  1.00  0.00     0.003 A 
ATOM     15  C   UNL     1       1.766  45.402  55.459  1.00  0.00     0.042 A 
ATOM     16  C   UNL     1       0.936  45.069  54.380  1.00  0.00     0.026 A 
BRANCH  15  17
ATOM     17  N   UNL     1       1.299  45.184  56.801  1.00  0.00    -0.324 N 
ATOM     18  H   UNL     1       1.539  44.278  57.266  1.00  0.00     0.170 HD
BRANCH  17  19
ATOM     19  C   UNL     1       0.618  46.171  57.589  1.00  0.00     0.227 A 
ATOM     20  N   UNL     1      -0.643  46.548  57.247  1.00  0.00    -0.221 NA
ATOM     21  N   UNL     1       1.201  46.701  58.700  1.00  0.00    -0.221 NA
ATOM     22  C   UNL     1      -1.326  47.462  57.985  1.00  0.00     0.117 A 
ATOM     23  C   UNL     1       0.551  47.617  59.464  1.00  0.00     0.117 A 
ATOM     24  C   UNL     1      -0.738  48.022  59.117  1.00  0.00     0.040 A 
ENDBRANCH  17  19
ENDBRANCH  15  17
ENDBRANCH   9  11
ENDBRANCH   1   7
BRANCH   5  25
ATOM     25  O   UNL     1      10.104  46.531  55.057  1.00  0.00    -0.435 OA
BRANCH  25  26
ATOM     26  C   UNL     1      10.771  47.615  55.697  1.00  0.00     0.542 C 
ATOM     27  F   UNL     1      11.410  47.169  56.840  1.00  0.00    -0.167 F 
ATOM     28  F   UNL     1       9.839  48.573  56.050  1.00  0.00    -0.167 F 
ENDBRANCH  25  26
ENDBRANCH   5  25
TORSDOF 6
ENDMDL
MODEL 2
REMARK VINA RESULT:    -8.764      3.801      8.639
REMARK INTER + INTRA:         -12.573
REMARK INTER:                 -11.897
REMARK INTRA:                  -0.676
REMARK UNBOUND:                -0.734
REMARK SMILES O=C(Nc1cccc(OC(F)F)c1)c1cccc(Nc2ncccn2)c1
REMARK SMILES IDX 4 1 5 2 6 3 7 4 8 5 13 6 3 7 1 8 2 9 14 11 15 12 26 13 16 14
REMARK SMILES IDX 18 15 17 16 19 17 20 19 21 20 25 21 22 22 24 23 23 24 9 25
REMARK SMILES IDX 10 26 11 27 12 28
REMARK H PARENT 3 10 19 18
ROOT
ATOM      1  C   UNL     1       1.259  44.414  54.914  1.00  0.00     0.045 A 
ATOM      2  C   UNL     1       0.084  43.873  54.372  1.00  0.00     0.026 A 
ATOM      3  C   UNL     1      -1.137  44.032  55.031  1.00  0.00     0.006 A 
ATOM      4  C   UNL     1      -1.198  44.741  56.231  1.00  0.00     0.047 A 
ATOM      5  C   UNL     1      -0.044  45.309  56.781  1.00  0.00     0.128 A 
ATOM      6  C   UNL     1       1.187  45.148  56.113  1.00  0.00     0.072 A 
ENDROOT
BRANCH   1   7
ATOM      7  N   UNL     1       2.501  44.255  54.207  1.00  0.00    -0.322 N 
ATOM      8  O   UNL     1       2.258  46.075  52.763  1.00  0.00    -0.269 OA
ATOM      9  C   UNL     1       2.839  44.984  53.015  1.00  0.00     0.255 C 
ATOM     10  H   UNL     1       3.241  43.662  54.646  1.00  0.00     0.170 HD
BRANCH   9  11
ATOM     11  C   UNL     1       3.901  44.494  52.102  1.00  0.00     0.042 A 
ATOM     12  C   UNL     1       3.873  43.170  51.629  1.00  0.00     0.014 A 
ATOM     13  C   UNL     1       4.964  45.332  51.719  1.00  0.00     0.040 A 
ATOM     14  C   UNL     1       4.880  42.699  50.784  1.00  0.00     0.003 A 
ATOM     15  C   UNL     1       5.964  44.870  50.845  1.00  0.00     0.042 A 
ATOM     16  C   UNL     1       5.923  43.542  50.398  1.00  0.00     0.026 A 
BRANCH  15  17
ATOM     17  N   UNL     1       7.064  45.711  50.456  1.00  0.00    -0.324 N 
ATOM     18  H   UNL     1       7.116  46.025  49.460  1.00  0.00     0.170 HD
BRANCH  17  19
ATOM     19  C   UNL     1       8.036  46.241  51.368  1.00  0.00     0.227 A 
ATOM     20  N   UNL     1       7.678  47.232  52.228  1.00  0.00    -0.221 NA
ATOM     21  N   UNL     1       9.298  45.731  51.417  1.00  0.00    -0.221 NA
ATOM     22  C   UNL     1       8.566  47.739  53.123  1.00  0.00     0.117 A 
ATOM     23  C   UNL     1      10.215  46.211  52.297  1.00  0.00     0.117 A 
ATOM     24  C   UNL     1       9.865  47.236  53.175  1.00  0.00     0.040 A 
ENDBRANCH  17  19
ENDBRANCH  15  17
ENDBRANCH   9  11
ENDBRANCH   1   7
BRANCH   5  25
ATOM     25  O   UNL     1      -0.163  46.024  57.983  1.00  0.00    -0.435 OA
BRANCH  25  26
ATOM     26  C   UNL     1       0.741  47.034  58.421  1.00  0.00     0.542 C 
ATOM     27  F   UNL     1       1.686  46.486  59.270  1.00  0.00    -0.167 F 
ATOM     28  F   UNL     1       0.036  48.006  59.105  1.00  0.00    -0.167 F 
ENDBRANCH  25  26
ENDBRANCH   5  25
TORSDOF 6
ENDMDL
MODEL 3
REMARK VINA RESULT:    -8.588      1.962      2.647
REMARK INTER + INTRA:         -12.335
REMARK INTER:                 -11.908
REMARK INTRA:                  -0.427
REMARK UNBOUND:                -0.734
REMARK SMILES O=C(Nc1cccc(OC(F)F)c1)c1cccc(Nc2ncccn2)c1
REMARK SMILES IDX 4 1 5 2 6 3 7 4 8 5 13 6 3 7 1 8 2 9 14 11 15 12 26 13 16 14
REMARK SMILES IDX 18 15 17 16 19 17 20 19 21 20 25 21 22 22 24 23 23 24 9 25
REMARK SMILES IDX 10 26 11 27 12 28
REMARK H PARENT 3 10 19 18
ROOT
ATOM      1  C   UNL     1       5.357  44.819  51.941  1.00  0.00     0.045 A 
ATOM      2  C   UNL     1       5.688  44.247  50.705  1.00  0.00     0.026 A 
ATOM      3  C   UNL     1       6.864  44.615  50.047  1.00  0.00     0.006 A 
ATOM      4  C   UNL     1       7.726  45.548  50.625  1.00  0.00     0.047 A 
ATOM      5  C   UNL     1       7.429  46.117  51.868  1.00  0.00     0.128 A 
ATOM      6  C   UNL     1       6.242  45.742  52.529  1.00  0.00     0.072 A 
ENDROOT
BRANCH   1   7
ATOM      7  N   UNL     1       4.151  44.408  52.609  1.00  0.00    -0.322 N 
ATOM      8  O   UNL     1       2.706  45.928  51.583  1.00  0.00    -0.269 OA
ATOM      9  C   UNL     1       2.914  45.135  52.542  1.00  0.00     0.255 C 
ATOM     10  H   UNL     1       4.146  43.472  53.075  1.00  0.00     0.170 HD
BRANCH   9  11
ATOM     11  C   UNL     1       1.854  44.926  53.559  1.00  0.00     0.042 A 
ATOM     12  C   UNL     1       0.615  44.375  53.187  1.00  0.00     0.014 A 
ATOM     13  C   UNL     1       2.059  45.298  54.900  1.00  0.00     0.040 A 
ATOM     14  C   UNL     1      -0.392  44.192  54.138  1.00  0.00     0.003 A 
ATOM     15  C   UNL     1       1.058  45.088  55.865  1.00  0.00     0.042 A 
ATOM     16  C   UNL     1      -0.174  44.551  55.469  1.00  0.00     0.026 A 
BRANCH  15  17
ATOM     17  N   UNL     1       1.249  45.476  57.237  1.00  0.00    -0.324 N 
ATOM     18  H   UNL     1       2.072  45.085  57.750  1.00  0.00     0.170 HD
BRANCH  17  19
ATOM     19  C   UNL     1       0.447  46.451  57.918  1.00  0.00     0.227 A 
ATOM     20  N   UNL     1       0.910  47.017  59.065  1.00  0.00    -0.221 NA
ATOM     21  N   UNL     1      -0.749  46.853  57.405  1.00  0.00    -0.221 NA
ATOM     22  C   UNL     1       0.188  47.963  59.721  1.00  0.00     0.117 A 
ATOM     23  C   UNL     1      -1.501  47.795  58.032  1.00  0.00     0.117 A 
ATOM     24  C   UNL     1      -1.043  48.373  59.216  1.00  0.00     0.040 A 
ENDBRANCH  17  19
ENDBRANCH  15  17
ENDBRANCH   9  11
ENDBRANCH   1   7
BRANCH   5  25
ATOM     25  O   UNL     1       8.336  47.040  52.410  1.00  0.00    -0.435 OA
BRANCH  25  26
ATOM     26  C   UNL     1       9.570  46.697  53.034  1.00  0.00     0.542 C 
ATOM     27  F   UNL     1       9.906  47.656  53.974  1.00  0.00    -0.167 F 
ATOM     28  F   UNL     1      10.563  46.643  52.075  1.00  0.00    -0.167 F 
ENDBRANCH  25  26
ENDBRANCH   5  25
TORSDOF 6
ENDMDL
MODEL 4
REMARK VINA RESULT:    -8.387      5.792      9.558
REMARK INTER + INTRA:         -12.064
REMARK INTER:                 -11.179
REMARK INTRA:                  -0.885
REMARK UNBOUND:                -0.734
REMARK SMILES O=C(Nc1cccc(OC(F)F)c1)c1cccc(Nc2ncccn2)c1
REMARK SMILES IDX 4 1 5 2 6 3 7 4 8 5 13 6 3 7 1 8 2 9 14 11 15 12 26 13 16 14
REMARK SMILES IDX 18 15 17 16 19 17 20 19 21 20 25 21 22 22 24 23 23 24 9 25
REMARK SMILES IDX 10 26 11 27 12 28
REMARK H PARENT 3 10 19 18
ROOT
ATOM      1  C   UNL     1       1.904  43.715  52.254  1.00  0.00     0.045 A 
ATOM      2  C   UNL     1       1.923  44.206  53.567  1.00  0.00     0.026 A 
ATOM      3  C   UNL     1       0.857  43.953  54.433  1.00  0.00     0.006 A 
ATOM      4  C   UNL     1      -0.233  43.197  53.999  1.00  0.00     0.047 A 
ATOM      5  C   UNL     1      -0.266  42.678  52.700  1.00  0.00     0.128 A 
ATOM      6  C   UNL     1       0.813  42.934  51.830  1.00  0.00     0.072 A 
ENDROOT
BRANCH   1   7
ATOM      7  N   UNL     1       3.023  43.971  51.388  1.00  0.00    -0.322 N 
ATOM      8  O   UNL     1       4.003  41.856  51.530  1.00  0.00    -0.269 OA
ATOM      9  C   UNL     1       4.137  43.076  51.238  1.00  0.00     0.255 C 
ATOM     10  H   UNL     1       2.969  44.798  50.751  1.00  0.00     0.170 HD
BRANCH   9  11
ATOM     11  C   UNL     1       5.430  43.558  50.693  1.00  0.00     0.042 A 
ATOM     12  C   UNL     1       6.179  42.745  49.823  1.00  0.00     0.014 A 
ATOM     13  C   UNL     1       5.939  44.818  51.056  1.00  0.00     0.040 A 
ATOM     14  C   UNL     1       7.405  43.187  49.321  1.00  0.00     0.003 A 
ATOM     15  C   UNL     1       7.159  45.279  50.529  1.00  0.00     0.042 A 
ATOM     16  C   UNL     1       7.895  44.445  49.675  1.00  0.00     0.026 A 
BRANCH  15  17
ATOM     17  N   UNL     1       7.699  46.559  50.901  1.00  0.00    -0.324 N 
ATOM     18  H   UNL     1       7.552  47.364  50.251  1.00  0.00     0.170 HD
BRANCH  17  19
ATOM     19  C   UNL     1       8.331  46.831  52.160  1.00  0.00     0.227 A 
ATOM     20  N   UNL     1       9.654  46.558  52.319  1.00  0.00    -0.221 NA
ATOM     21  N   UNL     1       7.635  47.403  53.182  1.00  0.00    -0.221 NA
ATOM     22  C   UNL     1      10.290  46.828  53.489  1.00  0.00     0.117 A 
ATOM     23  C   UNL     1       8.235  47.687  54.367  1.00  0.00     0.117 A 
ATOM     24  C   UNL     1       9.588  47.400  54.547  1.00  0.00     0.040 A 
ENDBRANCH  17  19
ENDBRANCH  15  17
ENDBRANCH   9  11
ENDBRANCH   1   7
BRANCH   5  25
ATOM     25  O   UNL     1      -1.380  41.913  52.319  1.00  0.00    -0.435 OA
BRANCH  25  26
ATOM     26  C   UNL     1      -2.503  42.414  51.601  1.00  0.00     0.542 C 
ATOM     27  F   UNL     1      -2.417  42.044  50.271  1.00  0.00    -0.167 F 
ATOM     28  F   UNL     1      -2.514  43.793  51.683  1.00  0.00    -0.167 F 
ENDBRANCH  25  26
ENDBRANCH   5  25
TORSDOF 6
ENDMDL
MODEL 5
REMARK VINA RESULT:    -8.361      4.717      8.808
REMARK INTER + INTRA:         -12.028
REMARK INTER:                 -11.316
REMARK INTRA:                  -0.712
REMARK UNBOUND:                -0.734
REMARK SMILES O=C(Nc1cccc(OC(F)F)c1)c1cccc(Nc2ncccn2)c1
REMARK SMILES IDX 4 1 5 2 6 3 7 4 8 5 13 6 3 7 1 8 2 9 14 11 15 12 26 13 16 14
REMARK SMILES IDX 18 15 17 16 19 17 20 19 21 20 25 21 22 22 24 23 23 24 9 25
REMARK SMILES IDX 10 26 11 27 12 28
REMARK H PARENT 3 10 19 18
ROOT
ATOM      1  C   UNL     1       1.939  43.852  52.491  1.00  0.00     0.045 A 
ATOM      2  C   UNL     1       0.882  43.023  52.089  1.00  0.00     0.026 A 
ATOM      3  C   UNL     1      -0.199  42.792  52.943  1.00  0.00     0.006 A 
ATOM      4  C   UNL     1      -0.240  43.396  54.201  1.00  0.00     0.047 A 
ATOM      5  C   UNL     1       0.792  44.244  54.616  1.00  0.00     0.128 A 
ATOM      6  C   UNL     1       1.881  44.476  53.751  1.00  0.00     0.072 A 
ENDROOT
BRANCH   1   7
ATOM      7  N   UNL     1       3.031  44.092  51.586  1.00  0.00    -0.322 N 
ATOM      8  O   UNL     1       3.923  41.934  51.611  1.00  0.00    -0.269 OA
ATOM      9  C   UNL     1       4.098  43.157  51.356  1.00  0.00     0.255 C 
ATOM     10  H   UNL     1       2.985  44.943  50.981  1.00  0.00     0.170 HD
BRANCH   9  11
ATOM     11  C   UNL     1       5.385  43.604  50.771  1.00  0.00     0.042 A 
ATOM     12  C   UNL     1       6.101  42.759  49.904  1.00  0.00     0.014 A 
ATOM     13  C   UNL     1       5.925  44.862  51.094  1.00  0.00     0.040 A 
ATOM     14  C   UNL     1       7.322  43.168  49.365  1.00  0.00     0.003 A 
ATOM     15  C   UNL     1       7.140  45.290  50.530  1.00  0.00     0.042 A 
ATOM     16  C   UNL     1       7.842  44.424  49.680  1.00  0.00     0.026 A 
BRANCH  15  17
ATOM     17  N   UNL     1       7.710  46.568  50.861  1.00  0.00    -0.324 N 
ATOM     18  H   UNL     1       7.582  47.355  50.185  1.00  0.00     0.170 HD
BRANCH  17  19
ATOM     19  C   UNL     1       8.348  46.866  52.111  1.00  0.00     0.227 A 
ATOM     20  N   UNL     1       9.641  46.492  52.309  1.00  0.00    -0.221 NA
ATOM     21  N   UNL     1       7.691  47.560  53.082  1.00  0.00    -0.221 NA
ATOM     22  C   UNL     1      10.284  46.782  53.471  1.00  0.00     0.117 A 
ATOM     23  C   UNL     1       8.300  47.867  54.257  1.00  0.00     0.117 A 
ATOM     24  C   UNL     1       9.620  47.479  54.479  1.00  0.00     0.040 A 
ENDBRANCH  17  19
ENDBRANCH  15  17
ENDBRANCH   9  11
ENDBRANCH   1   7
BRANCH   5  25
ATOM     25  O   UNL     1       0.696  44.836  55.885  1.00  0.00    -0.435 OA
BRANCH  25  26
ATOM     26  C   UNL     1      -0.506  45.345  56.455  1.00  0.00     0.542 C 
ATOM     27  F   UNL     1      -0.223  46.438  57.254  1.00  0.00    -0.167 F 
ATOM     28  F   UNL     1      -1.089  44.362  57.232  1.00  0.00    -0.167 F 
ENDBRANCH  25  26
ENDBRANCH   5  25
TORSDOF 6
ENDMDL
