MODEL 1
REMARK VINA RESULT:    -8.607      0.000      0.000
REMARK INTER + INTRA:         -11.676
REMARK INTER:                 -11.626
REMARK INTRA:                  -0.050
REMARK UNBOUND:                -0.050
REMARK SMILES O=C(Nc1ccc(OC(F)F)cc1)c1ccc(Nc2ncccn2)cc1
REMARK SMILES IDX 4 1 5 2 6 3 7 4 12 5 13 6 3 7 1 8 2 9 14 11 15 12 26 13
REMARK SMILES IDX 16 14 25 15 17 16 18 17 19 19 20 20 24 21 21 22 23 23 22 24
REMARK SMILES IDX 8 25 9 26 10 27 11 28
REMARK H PARENT 3 10 18 18
ROOT
ATOM      1  C   UNL     1       7.073  45.855  52.332  1.00  0.00     0.041 A 
ATOM      2  C   UNL     1       6.612  45.997  53.653  1.00  0.00     0.030 A 
ATOM      3  C   UNL     1       7.315  46.791  54.564  1.00  0.00     0.049 A 
ATOM      4  C   UNL     1       8.490  47.446  54.180  1.00  0.00     0.126 A 
ATOM      5  C   UNL     1       8.964  47.289  52.865  1.00  0.00     0.049 A 
ATOM      6  C   UNL     1       8.264  46.493  51.954  1.00  0.00     0.030 A 
ENDROOT
BRANCH   1   7
ATOM      7  N   UNL     1       6.384  45.023  51.381  1.00  0.00    -0.322 N 
ATOM      8  O   UNL     1       4.781  44.161  52.845  1.00  0.00    -0.269 OA
ATOM      9  C   UNL     1       5.389  44.052  51.746  1.00  0.00     0.255 C 
ATOM     10  H   UNL     1       6.532  45.217  50.366  1.00  0.00     0.170 HD
BRANCH   9  11
ATOM     11  C   UNL     1       5.030  42.949  50.820  1.00  0.00     0.040 A 
ATOM     12  C   UNL     1       5.913  42.572  49.792  1.00  0.00     0.016 A 
ATOM     13  C   UNL     1       3.795  42.285  50.931  1.00  0.00     0.016 A 
ATOM     14  C   UNL     1       5.578  41.537  48.913  1.00  0.00     0.027 A 
ATOM     15  C   UNL     1       3.462  41.252  50.051  1.00  0.00     0.027 A 
ATOM     16  C   UNL     1       4.362  40.853  49.048  1.00  0.00     0.041 A 
BRANCH  16  17
ATOM     17  N   UNL     1       4.033  39.810  48.116  1.00  0.00    -0.324 N 
ATOM     18  H   UNL     1       4.240  38.822  48.388  1.00  0.00     0.170 HD
BRANCH  17  19
ATOM     19  C   UNL     1       3.335  40.023  46.881  1.00  0.00     0.227 A 
ATOM     20  N   UNL     1       3.781  40.970  46.013  1.00  0.00    -0.221 NA
ATOM     21  N   UNL     1       2.263  39.254  46.543  1.00  0.00    -0.221 NA
ATOM     22  C   UNL     1       3.161  41.179  44.822  1.00  0.00     0.117 A 
ATOM     23  C   UNL     1       1.615  39.432  45.361  1.00  0.00     0.117 A 
ATOM     24  C   UNL     1       2.054  40.409  44.469  1.00  0.00     0.040 A 
ENDBRANCH  17  19
ENDBRANCH  16  17
ENDBRANCH   9  11
ENDBRANCH   1   7
BRANCH   4  25
ATOM     25  O   UNL     1       9.154  48.233  55.134  1.00  0.00    -0.435 OA
BRANCH  25  26
ATOM     26  C   UNL     1      10.446  47.947  55.665  1.00  0.00     0.542 C 
ATOM     27  F   UNL     1      10.487  48.276  57.009  1.00  0.00    -0.167 F 
ATOM     28  F   UNL     1      10.703  46.598  55.526  1.00  0.00    -0.167 F 
ENDBRANCH  25  26
ENDBRANCH   4  25
TORSDOF 6
ENDMDL
MODEL 2
REMARK VINA RESULT:    -8.195      4.639      5.409
REMARK INTER + INTRA:         -11.120
REMARK INTER:                 -10.413
REMARK INTRA:                  -0.707
REMARK UNBOUND:                -0.050
REMARK SMILES O=C(Nc1ccc(OC(F)F)cc1)c1ccc(Nc2ncccn2)cc1
REMARK SMILES IDX 4 1 5 2 6 3 7 4 12 5 13 6 3 7 1 8 2 9 14 11 15 12 26 13
REMARK SMILES IDX 16 14 25 15 17 16 18 17 19 19 20 20 24 21 21 22 23 23 22 24
REMARK SMILES IDX 8 25 9 26 10 27 11 28
REMARK H PARENT 3 10 18 18
ROOT
ATOM      1  C   UNL     1       4.861  46.248  52.032  1.00  0.00     0.041 A 
ATOM      2  C   UNL     1       5.532  47.184  52.838  1.00  0.00     0.030 A 
ATOM      3  C   UNL     1       6.904  47.402  52.675  1.00  0.00     0.049 A 
ATOM      4  C   UNL     1       7.630  46.686  51.717  1.00  0.00     0.126 A 
ATOM      5  C   UNL     1       6.964  45.733  50.923  1.00  0.00     0.049 A 
ATOM      6  C   UNL     1       5.594  45.514  51.087  1.00  0.00     0.030 A 
ENDROOT
BRANCH   1   7
ATOM      7  N   UNL     1       3.456  45.986  52.196  1.00  0.00    -0.322 N 
ATOM      8  O   UNL     1       3.628  44.587  54.058  1.00  0.00    -0.269 OA
ATOM      9  C   UNL     1       2.930  44.989  53.088  1.00  0.00     0.255 C 
ATOM     10  H   UNL     1       2.781  46.630  51.727  1.00  0.00     0.170 HD
BRANCH   9  11
ATOM     11  C   UNL     1       1.553  44.465  52.914  1.00  0.00     0.040 A 
ATOM     12  C   UNL     1       0.558  45.268  52.330  1.00  0.00     0.016 A 
ATOM     13  C   UNL     1       1.209  43.174  53.356  1.00  0.00     0.016 A 
ATOM     14  C   UNL     1      -0.743  44.783  52.168  1.00  0.00     0.027 A 
ATOM     15  C   UNL     1      -0.092  42.691  53.194  1.00  0.00     0.027 A 
ATOM     16  C   UNL     1      -1.074  43.484  52.576  1.00  0.00     0.041 A 
BRANCH  16  17
ATOM     17  N   UNL     1      -2.425  43.018  52.421  1.00  0.00    -0.324 N 
ATOM     18  H   UNL     1      -3.156  43.402  53.063  1.00  0.00     0.170 HD
BRANCH  17  19
ATOM     19  C   UNL     1      -2.861  42.144  51.370  1.00  0.00     0.227 A 
ATOM     20  N   UNL     1      -2.842  42.580  50.082  1.00  0.00    -0.221 NA
ATOM     21  N   UNL     1      -3.245  40.865  51.640  1.00  0.00    -0.221 NA
ATOM     22  C   UNL     1      -3.221  41.770  49.060  1.00  0.00     0.117 A 
ATOM     23  C   UNL     1      -3.632  40.023  50.646  1.00  0.00     0.117 A 
ATOM     24  C   UNL     1      -3.629  40.464  49.323  1.00  0.00     0.040 A 
ENDBRANCH  17  19
ENDBRANCH  16  17
ENDBRANCH   9  11
ENDBRANCH   1   7
BRANCH   4  25
ATOM     25  O   UNL     1       9.004  46.945  51.594  1.00  0.00    -0.435 OA
BRANCH  25  26
ATOM     26  C   UNL     1      10.009  46.430  52.464  1.00  0.00     0.542 C 
ATOM     27  F   UNL     1      11.163  46.166  51.747  1.00  0.00    -0.167 F 
ATOM     28  F   UNL     1      10.290  47.370  53.436  1.00  0.00    -0.167 F 
ENDBRANCH  25  26
ENDBRANCH   4  25
TORSDOF 6
ENDMDL
MODEL 3
REMARK VINA RESULT:    -8.155      1.834      2.924
REMARK INTER + INTRA:         -11.066
REMARK INTER:                 -10.424
REMARK INTRA:                  -0.642
REMARK UNBOUND:                -0.050
REMARK SMILES O=C(Nc1ccc(OC(F)F)cc1)c1ccc(Nc2ncccn2)cc1
REMARK SMILES IDX 4 1 5 2 6 3 7 4 12 5 13 6 3 7 1 8 2 9 14 11 15 12 26 13
REMARK SMILES IDX 16 14 25 15 17 16 18 17 19 19 20 20 24 21 21 22 23 23 22 24
REMARK SMILES IDX 8 25 9 26 10 27 11 28
REMARK H PARENT 3 10 18 18
ROOT
ATOM      1  C   UNL     1       6.095  44.526  51.129  1.00  0.00     0.041 A 
ATOM      2  C   UNL     1       7.076  45.328  50.520  1.00  0.00     0.030 A 
ATOM      3  C   UNL     1       7.747  46.307  51.260  1.00  0.00     0.049 A 
ATOM      4  C   UNL     1       7.446  46.510  52.611  1.00  0.00     0.126 A 
ATOM      5  C   UNL     1       6.450  45.722  53.217  1.00  0.00     0.049 A 
ATOM      6  C   UNL     1       5.777  44.745  52.478  1.00  0.00     0.030 A 
ENDROOT
BRANCH   1   7
ATOM      7  N   UNL     1       5.372  43.529  50.385  1.00  0.00    -0.322 N 
ATOM      8  O   UNL     1       7.155  42.057  50.049  1.00  0.00    -0.269 OA
ATOM      9  C   UNL     1       6.002  42.433  49.700  1.00  0.00     0.255 C 
ATOM     10  H   UNL     1       4.330  43.538  50.442  1.00  0.00     0.170 HD
BRANCH   9  11
ATOM     11  C   UNL     1       5.292  41.703  48.621  1.00  0.00     0.040 A 
ATOM     12  C   UNL     1       5.648  41.905  47.276  1.00  0.00     0.016 A 
ATOM     13  C   UNL     1       4.234  40.825  48.918  1.00  0.00     0.016 A 
ATOM     14  C   UNL     1       4.978  41.225  46.254  1.00  0.00     0.027 A 
ATOM     15  C   UNL     1       3.566  40.146  47.895  1.00  0.00     0.027 A 
ATOM     16  C   UNL     1       3.949  40.324  46.555  1.00  0.00     0.041 A 
BRANCH  16  17
ATOM     17  N   UNL     1       3.260  39.656  45.484  1.00  0.00    -0.324 N 
ATOM     18  H   UNL     1       3.599  39.813  44.507  1.00  0.00     0.170 HD
BRANCH  17  19
ATOM     19  C   UNL     1       2.209  38.699  45.673  1.00  0.00     0.227 A 
ATOM     20  N   UNL     1       0.912  39.104  45.603  1.00  0.00    -0.221 NA
ATOM     21  N   UNL     1       2.491  37.381  45.871  1.00  0.00    -0.221 NA
ATOM     22  C   UNL     1      -0.108  38.220  45.749  1.00  0.00     0.117 A 
ATOM     23  C   UNL     1       1.499  36.466  46.022  1.00  0.00     0.117 A 
ATOM     24  C   UNL     1       0.166  36.870  45.966  1.00  0.00     0.040 A 
ENDBRANCH  17  19
ENDBRANCH  16  17
ENDBRANCH   9  11
ENDBRANCH   1   7
BRANCH   4  25
ATOM     25  O   UNL     1       8.151  47.504  53.307  1.00  0.00    -0.435 OA
BRANCH  25  26
ATOM     26  C   UNL     1       9.298  47.268  54.119  1.00  0.00     0.542 C 
ATOM     27  F   UNL     1      10.427  47.172  53.324  1.00  0.00    -0.167 F 
ATOM     28  F   UNL     1       9.456  48.323  54.996  1.00  0.00    -0.167 F 
ENDBRANCH  25  26
ENDBRANCH   4  25
TORSDOF 6
ENDMDL
MODEL 4
REMARK VINA RESULT:    -8.146      1.877      2.797
REMARK INTER + INTRA:         -11.054
REMARK INTER:                 -10.347
REMARK INTRA:                  -0.707
REMARK UNBOUND:                -0.050
REMARK SMILES O=C(Nc1ccc(OC(F)F)cc1)c1ccc(Nc2ncccn2)cc1
REMARK SMILES IDX 4 1 5 2 6 3 7 4 12 5 13 6 3 7 1 8 2 9 14 11 15 12 26 13
REMARK SMILES IDX 16 14 25 15 17 16 18 17 19 19 20 20 24 21 21 22 23 23 22 24
REMARK SMILES IDX 8 25 9 26 10 27 11 28
REMARK H PARENT 3 10 18 18
ROOT
ATOM      1  C   UNL     1       6.168  44.500  51.007  1.00  0.00     0.041 A 
ATOM      2  C   UNL     1       7.183  45.282  50.428  1.00  0.00     0.030 A 
ATOM      3  C   UNL     1       7.879  46.218  51.198  1.00  0.00     0.049 A 
ATOM      4  C   UNL     1       7.571  46.398  52.551  1.00  0.00     0.126 A 
ATOM      5  C   UNL     1       6.542  45.630  53.128  1.00  0.00     0.049 A 
ATOM      6  C   UNL     1       5.844  44.696  52.358  1.00  0.00     0.030 A 
ENDROOT
BRANCH   1   7
ATOM      7  N   UNL     1       5.419  43.547  50.231  1.00  0.00    -0.322 N 
ATOM      8  O   UNL     1       7.122  41.970  49.970  1.00  0.00    -0.269 OA
ATOM      9  C   UNL     1       6.010  42.414  49.573  1.00  0.00     0.255 C 
ATOM     10  H   UNL     1       4.378  43.620  50.243  1.00  0.00     0.170 HD
BRANCH   9  11
ATOM     11  C   UNL     1       5.304  41.727  48.463  1.00  0.00     0.040 A 
ATOM     12  C   UNL     1       5.682  41.963  47.130  1.00  0.00     0.016 A 
ATOM     13  C   UNL     1       4.228  40.858  48.720  1.00  0.00     0.016 A 
ATOM     14  C   UNL     1       5.017  41.323  46.079  1.00  0.00     0.027 A 
ATOM     15  C   UNL     1       3.564  40.220  47.669  1.00  0.00     0.027 A 
ATOM     16  C   UNL     1       3.969  40.430  46.340  1.00  0.00     0.041 A 
BRANCH  16  17
ATOM     17  N   UNL     1       3.286  39.804  45.240  1.00  0.00    -0.324 N 
ATOM     18  H   UNL     1       3.500  38.802  45.033  1.00  0.00     0.170 HD
BRANCH  17  19
ATOM     19  C   UNL     1       2.246  40.430  44.475  1.00  0.00     0.227 A 
ATOM     20  N   UNL     1       1.645  41.553  44.953  1.00  0.00    -0.221 NA
ATOM     21  N   UNL     1       1.889  39.945  43.254  1.00  0.00    -0.221 NA
ATOM     22  C   UNL     1       0.677  42.187  44.242  1.00  0.00     0.117 A 
ATOM     23  C   UNL     1       0.925  40.551  42.512  1.00  0.00     0.117 A 
ATOM     24  C   UNL     1       0.292  41.694  42.997  1.00  0.00     0.040 A 
ENDBRANCH  17  19
ENDBRANCH  16  17
ENDBRANCH   9  11
ENDBRANCH   1   7
BRANCH   4  25
ATOM     25  O   UNL     1       8.303  47.349  53.279  1.00  0.00    -0.435 OA
BRANCH  25  26
ATOM     26  C   UNL     1       9.697  47.258  53.561  1.00  0.00     0.542 C 
ATOM     27  F   UNL     1       9.974  47.866  54.774  1.00  0.00    -0.167 F 
ATOM     28  F   UNL     1      10.057  45.927  53.635  1.00  0.00    -0.167 F 
ENDBRANCH  25  26
ENDBRANCH   4  25
TORSDOF 6
ENDMDL
MODEL 5
REMARK VINA RESULT:    -8.143      6.272      8.075
REMARK INTER + INTRA:         -11.049
REMARK INTER:                 -10.371
REMARK INTRA:                  -0.678
REMARK UNBOUND:                -0.050
REMARK SMILES O=C(Nc1ccc(OC(F)F)cc1)c1ccc(Nc2ncccn2)cc1
REMARK SMILES IDX 4 1 5 2 6 3 7 4 12 5 13 6 3 7 1 8 2 9 14 11 15 12 26 13
REMARK SMILES IDX 16 14 25 15 17 16 18 17 19 19 20 20 24 21 21 22 23 23 22 24
REMARK SMILES IDX 8 25 9 26 10 27 11 28
REMARK H PARENT 3 10 18 18
ROOT
ATOM      1  C   UNL     1       4.837  45.597  52.195  1.00  0.00     0.041 A 
ATOM      2  C   UNL     1       5.530  46.192  53.263  1.00  0.00     0.030 A 
ATOM      3  C   UNL     1       6.853  46.614  53.100  1.00  0.00     0.049 A 
ATOM      4  C   UNL     1       7.511  46.440  51.877  1.00  0.00     0.126 A 
ATOM      5  C   UNL     1       6.826  45.826  50.812  1.00  0.00     0.049 A 
ATOM      6  C   UNL     1       5.504  45.402  50.975  1.00  0.00     0.030 A 
ENDROOT
BRANCH   1   7
ATOM      7  N   UNL     1       3.484  45.131  52.343  1.00  0.00    -0.322 N 
ATOM      8  O   UNL     1       2.446  47.224  52.337  1.00  0.00    -0.269 OA
ATOM      9  C   UNL     1       2.369  45.996  52.616  1.00  0.00     0.255 C 
ATOM     10  H   UNL     1       3.286  44.129  52.127  1.00  0.00     0.170 HD
BRANCH   9  11
ATOM     11  C   UNL     1       1.106  45.454  53.176  1.00  0.00     0.040 A 
ATOM     12  C   UNL     1      -0.024  45.300  52.354  1.00  0.00     0.016 A 
ATOM     13  C   UNL     1       1.006  45.116  54.538  1.00  0.00     0.016 A 
ATOM     14  C   UNL     1      -1.218  44.795  52.876  1.00  0.00     0.027 A 
ATOM     15  C   UNL     1      -0.189  44.612  55.058  1.00  0.00     0.027 A 
ATOM     16  C   UNL     1      -1.305  44.425  54.225  1.00  0.00     0.041 A 
BRANCH  16  17
ATOM     17  N   UNL     1      -2.553  43.931  54.742  1.00  0.00    -0.324 N 
ATOM     18  H   UNL     1      -3.201  43.444  54.083  1.00  0.00     0.170 HD
BRANCH  17  19
ATOM     19  C   UNL     1      -2.921  43.963  56.128  1.00  0.00     0.227 A 
ATOM     20  N   UNL     1      -3.356  45.128  56.680  1.00  0.00    -0.221 NA
ATOM     21  N   UNL     1      -2.888  42.832  56.886  1.00  0.00    -0.221 NA
ATOM     22  C   UNL     1      -3.740  45.188  57.982  1.00  0.00     0.117 A 
ATOM     23  C   UNL     1      -3.264  42.851  58.192  1.00  0.00     0.117 A 
ATOM     24  C   UNL     1      -3.699  44.041  58.772  1.00  0.00     0.040 A 
ENDBRANCH  17  19
ENDBRANCH  16  17
ENDBRANCH   9  11
ENDBRANCH   1   7
BRANCH   4  25
ATOM     25  O   UNL     1       8.837  46.884  51.767  1.00  0.00    -0.435 OA
BRANCH  25  26
ATOM     26  C   UNL     1       9.901  46.485  52.628  1.00  0.00     0.542 C 
ATOM     27  F   UNL     1      11.046  46.252  51.887  1.00  0.00    -0.167 F 
ATOM     28  F   UNL     1      10.151  47.496  53.535  1.00  0.00    -0.167 F 
ENDBRANCH  25  26
ENDBRANCH   4  25
TORSDOF 6
ENDMDL
