ligand_24_conformer_3_docked
     RDKit          3D

 49 52  0  0  0  0  0  0  0  0999 V2000
    8.0120   44.6340   49.2140 C   0  0  0  0  0  0  0  0  0  0  0  0
    7.3770   45.1280   50.4700 C   0  0  0  0  0  0  0  0  0  0  0  0
    6.0610   44.9030   50.6990 N   0  0  0  0  0  0  0  0  0  0  0  0
    5.4550   45.2950   51.8500 C   0  0  0  0  0  0  0  0  0  0  0  0
    4.0610   44.9780   52.0390 N   0  0  0  0  0  0  0  0  0  0  0  0
    3.6880   43.7000   52.6780 C   0  0  0  0  0  0  0  0  0  0  0  0
    2.5840   42.9340   51.9230 C   0  0  0  0  0  0  0  0  0  0  0  0
    1.2060   43.6420   51.9500 C   0  0  0  0  0  0  0  0  0  0  0  0
    1.2110   44.8740   52.7560 N   0  0  0  0  0  0  0  0  0  0  0  0
    0.6670   44.8540   54.0920 C   0  0  0  0  0  0  0  0  0  0  0  0
    1.4960   45.0810   55.2010 C   0  0  0  0  0  0  0  0  0  0  0  0
    0.9570   45.0300   56.4880 C   0  0  0  0  0  0  0  0  0  0  0  0
   -0.3640   44.7660   56.6640 N   0  0  0  0  0  0  0  0  0  0  0  0
   -1.1940   44.5490   55.6100 C   0  0  0  0  0  0  0  0  0  0  0  0
   -0.6950   44.5900   54.3050 C   0  0  0  0  0  0  0  0  0  0  0  0
    1.8390   46.1000   52.2340 C   0  0  0  0  0  0  0  0  0  0  0  0
    3.0570   45.7930   51.3380 C   0  0  0  0  0  0  0  0  0  0  0  0
    6.2050   45.9950   52.8230 C   0  0  0  0  0  0  0  0  0  0  0  0
    5.5290   46.6210   54.0170 C   0  0  0  0  0  0  0  0  0  0  0  0
    7.5950   46.1480   52.5980 C   0  0  0  0  0  0  0  0  0  0  0  0
    8.4660   46.7520   53.5670 N   0  0  0  0  0  0  0  0  0  0  0  0
    9.7150   46.3560   53.8870 C   0  0  0  0  0  0  0  0  0  0  0  0
   10.2430   47.2650   54.7760 C   0  0  0  0  0  0  0  0  0  0  0  0
    9.2530   48.2140   54.9390 C   0  0  0  0  0  0  0  0  0  0  0  0
    8.1880   47.8880   54.1840 N   0  0  0  0  0  0  0  0  0  0  0  0
    8.1330   45.7240   51.4250 N   0  0  0  0  0  0  0  0  0  0  0  0
    8.8574   43.9763   49.4646 H   0  0  0  0  0  0  0  0  0  0  0  0
    7.2720   44.0718   48.6255 H   0  0  0  0  0  0  0  0  0  0  0  0
    8.3749   45.4896   48.6255 H   0  0  0  0  0  0  0  0  0  0  0  0
    4.5825   43.0618   52.7282 H   0  0  0  0  0  0  0  0  0  0  0  0
    3.2906   43.9408   53.6751 H   0  0  0  0  0  0  0  0  0  0  0  0
    2.8954   42.8198   50.8742 H   0  0  0  0  0  0  0  0  0  0  0  0
    2.4587   41.9663   52.4309 H   0  0  0  0  0  0  0  0  0  0  0  0
    0.9228   43.8985   50.9185 H   0  0  0  0  0  0  0  0  0  0  0  0
    0.4874   42.9485   52.4112 H   0  0  0  0  0  0  0  0  0  0  0  0
    2.5648   45.2980   55.0573 H   0  0  0  0  0  0  0  0  0  0  0  0
    1.6032   45.2039   57.3611 H   0  0  0  0  0  0  0  0  0  0  0  0
   -2.2600   44.3408   55.7841 H   0  0  0  0  0  0  0  0  0  0  0  0
   -1.3654   44.4165   53.4504 H   0  0  0  0  0  0  0  0  0  0  0  0
    1.0955   46.6554   51.6435 H   0  0  0  0  0  0  0  0  0  0  0  0
    2.1907   46.6917   53.0920 H   0  0  0  0  0  0  0  0  0  0  0  0
    2.7144   45.2466   50.4469 H   0  0  0  0  0  0  0  0  0  0  0  0
    3.5262   46.7485   51.0607 H   0  0  0  0  0  0  0  0  0  0  0  0
    5.9671   46.2153   54.9409 H   0  0  0  0  0  0  0  0  0  0  0  0
    5.6737   47.7111   53.9905 H   0  0  0  0  0  0  0  0  0  0  0  0
    4.4532   46.3931   53.9905 H   0  0  0  0  0  0  0  0  0  0  0  0
   10.2247   45.4599   53.5033 H   0  0  0  0  0  0  0  0  0  0  0  0
   11.2346   47.2408   55.2515 H   0  0  0  0  0  0  0  0  0  0  0  0
    9.3242   49.1003   55.5866 H   0  0  0  0  0  0  0  0  0  0  0  0
  1  2  1  0
  2  3  2  0
  3  4  1  0
  4  5  1  0
  5  6  1  0
  6  7  1  0
  7  8  1  0
  8  9  1  0
  9 10  1  0
 10 11  2  0
 11 12  1  0
 12 13  2  0
 13 14  1  0
 14 15  2  0
  9 16  1  0
 16 17  1  0
  4 18  2  0
 18 19  1  0
 18 20  1  0
 20 21  1  0
 21 22  1  0
 22 23  2  0
 23 24  1  0
 24 25  2  0
 20 26  2  0
 26  2  1  0
 17  5  1  0
 25 21  1  0
 15 10  1  0
  1 27  1  0
  1 28  1  0
  1 29  1  0
  6 30  1  0
  6 31  1  0
  7 32  1  0
  7 33  1  0
  8 34  1  0
  8 35  1  0
 11 36  1  0
 12 37  1  0
 14 38  1  0
 15 39  1  0
 16 40  1  0
 16 41  1  0
 17 42  1  0
 17 43  1  0
 19 44  1  0
 19 45  1  0
 19 46  1  0
 22 47  1  0
 23 48  1  0
 24 49  1  0
M  END
>  <meeko>  (1) 
{"is_sidechain": [false], "free_energy": -6.85, "intermolecular_energy": -10.455, "internal_energy": 0.153}

$$$$
ligand_24_conformer_3_docked
     RDKit          3D

 49 52  0  0  0  0  0  0  0  0999 V2000
    6.3050   42.6040   49.4200 C   0  0  0  0  0  0  0  0  0  0  0  0
    5.7710   43.5800   50.4140 C   0  0  0  0  0  0  0  0  0  0  0  0
    4.4850   43.4910   50.8270 N   0  0  0  0  0  0  0  0  0  0  0  0
    3.9720   44.3310   51.7650 C   0  0  0  0  0  0  0  0  0  0  0  0
    2.6060   44.1430   52.1860 N   0  0  0  0  0  0  0  0  0  0  0  0
    2.2630   42.9950   53.0510 C   0  0  0  0  0  0  0  0  0  0  0  0
    0.9370   42.3110   52.6670 C   0  0  0  0  0  0  0  0  0  0  0  0
   -0.3030   43.1700   52.9880 C   0  0  0  0  0  0  0  0  0  0  0  0
    0.0350   44.5210   53.4650 N   0  0  0  0  0  0  0  0  0  0  0  0
   -0.0750   44.8290   54.8690 C   0  0  0  0  0  0  0  0  0  0  0  0
   -1.2940   44.6520   55.5430 C   0  0  0  0  0  0  0  0  0  0  0  0
   -1.3880   44.9810   56.8970 C   0  0  0  0  0  0  0  0  0  0  0  0
   -0.3050   45.4680   57.5580 N   0  0  0  0  0  0  0  0  0  0  0  0
    0.8900   45.6440   56.9340 C   0  0  0  0  0  0  0  0  0  0  0  0
    1.0280   45.3280   55.5800 C   0  0  0  0  0  0  0  0  0  0  0  0
    0.5560   45.5300   52.5260 C   0  0  0  0  0  0  0  0  0  0  0  0
    1.5530   44.9230   51.5160 C   0  0  0  0  0  0  0  0  0  0  0  0
    4.7890   45.3540   52.2980 C   0  0  0  0  0  0  0  0  0  0  0  0
    4.2060   46.4250   53.1850 C   0  0  0  0  0  0  0  0  0  0  0  0
    6.1510   45.3770   51.9130 C   0  0  0  0  0  0  0  0  0  0  0  0
    7.0910   46.3090   52.4710 N   0  0  0  0  0  0  0  0  0  0  0  0
    7.9470   46.0800   53.4870 C   0  0  0  0  0  0  0  0  0  0  0  0
    8.7450   47.1920   53.6390 C   0  0  0  0  0  0  0  0  0  0  0  0
    8.3260   48.0630   52.6530 C   0  0  0  0  0  0  0  0  0  0  0  0
    7.3290   47.5000   51.9470 N   0  0  0  0  0  0  0  0  0  0  0  0
    6.5940   44.5010   50.9730 N   0  0  0  0  0  0  0  0  0  0  0  0
    6.7679   41.7580   49.9491 H   0  0  0  0  0  0  0  0  0  0  0  0
    5.4825   42.2361   48.7890 H   0  0  0  0  0  0  0  0  0  0  0  0
    7.0583   43.0983   48.7890 H   0  0  0  0  0  0  0  0  0  0  0  0
    3.0712   42.2521   52.9804 H   0  0  0  0  0  0  0  0  0  0  0  0
    2.1423   43.3843   54.0727 H   0  0  0  0  0  0  0  0  0  0  0  0
    0.9497   42.1048   51.5866 H   0  0  0  0  0  0  0  0  0  0  0  0
    0.8597   41.3890   53.2619 H   0  0  0  0  0  0  0  0  0  0  0  0
   -0.9096   43.2632   52.0751 H   0  0  0  0  0  0  0  0  0  0  0  0
   -0.8499   42.6648   53.7978 H   0  0  0  0  0  0  0  0  0  0  0  0
   -2.1698   44.2565   55.0077 H   0  0  0  0  0  0  0  0  0  0  0  0
   -2.3408   44.8456   57.4297 H   0  0  0  0  0  0  0  0  0  0  0  0
    1.7502   46.0361   57.4964 H   0  0  0  0  0  0  0  0  0  0  0  0
    1.9946   45.4693   55.0743 H   0  0  0  0  0  0  0  0  0  0  0  0
   -0.2874   45.9682   51.9722 H   0  0  0  0  0  0  0  0  0  0  0  0
    1.0892   46.2939   53.1110 H   0  0  0  0  0  0  0  0  0  0  0  0
    1.0047   44.2628   50.8279 H   0  0  0  0  0  0  0  0  0  0  0  0
    2.0342   45.7497   50.9730 H   0  0  0  0  0  0  0  0  0  0  0  0
    4.3559   46.1496   54.2394 H   0  0  0  0  0  0  0  0  0  0  0  0
    4.7072   47.3828   52.9814 H   0  0  0  0  0  0  0  0  0  0  0  0
    3.1296   46.5239   52.9814 H   0  0  0  0  0  0  0  0  0  0  0  0
    7.9991   45.1622   54.0911 H   0  0  0  0  0  0  0  0  0  0  0  0
    9.5405   47.3512   54.3819 H   0  0  0  0  0  0  0  0  0  0  0  0
    8.7437   49.0644   52.4724 H   0  0  0  0  0  0  0  0  0  0  0  0
  1  2  1  0
  2  3  2  0
  3  4  1  0
  4  5  1  0
  5  6  1  0
  6  7  1  0
  7  8  1  0
  8  9  1  0
  9 10  1  0
 10 11  2  0
 11 12  1  0
 12 13  2  0
 13 14  1  0
 14 15  2  0
  9 16  1  0
 16 17  1  0
  4 18  2  0
 18 19  1  0
 18 20  1  0
 20 21  1  0
 21 22  1  0
 22 23  2  0
 23 24  1  0
 24 25  2  0
 20 26  2  0
 26  2  1  0
 17  5  1  0
 25 21  1  0
 15 10  1  0
  1 27  1  0
  1 28  1  0
  1 29  1  0
  6 30  1  0
  6 31  1  0
  7 32  1  0
  7 33  1  0
  8 34  1  0
  8 35  1  0
 11 36  1  0
 12 37  1  0
 14 38  1  0
 15 39  1  0
 16 40  1  0
 16 41  1  0
 17 42  1  0
 17 43  1  0
 19 44  1  0
 19 45  1  0
 19 46  1  0
 22 47  1  0
 23 48  1  0
 24 49  1  0
M  END
>  <meeko>  (2) 
{"is_sidechain": [false], "free_energy": -6.504, "intermolecular_energy": -9.454, "internal_energy": -0.319}

$$$$
ligand_24_conformer_3_docked
     RDKit          3D

 49 52  0  0  0  0  0  0  0  0999 V2000
    4.2080   41.5780   50.8370 C   0  0  0  0  0  0  0  0  0  0  0  0
    3.2340   42.4800   51.5190 C   0  0  0  0  0  0  0  0  0  0  0  0
    3.6790   43.5180   52.2650 N   0  0  0  0  0  0  0  0  0  0  0  0
    2.8260   44.3890   52.8650 C   0  0  0  0  0  0  0  0  0  0  0  0
    3.3770   45.4960   53.6050 N   0  0  0  0  0  0  0  0  0  0  0  0
    3.6650   45.3360   55.0450 C   0  0  0  0  0  0  0  0  0  0  0  0
    5.1570   45.1060   55.3510 C   0  0  0  0  0  0  0  0  0  0  0  0
    6.0610   46.3160   54.9920 C   0  0  0  0  0  0  0  0  0  0  0  0
    5.7770   46.8680   53.6570 N   0  0  0  0  0  0  0  0  0  0  0  0
    6.6440   46.5410   52.5520 C   0  0  0  0  0  0  0  0  0  0  0  0
    6.2280   45.6330   51.5660 C   0  0  0  0  0  0  0  0  0  0  0  0
    7.0920   45.3080   50.5180 C   0  0  0  0  0  0  0  0  0  0  0  0
    8.3270   45.8710   50.4530 N   0  0  0  0  0  0  0  0  0  0  0  0
    8.7550   46.7590   51.3890 C   0  0  0  0  0  0  0  0  0  0  0  0
    7.9220   47.1110   52.4550 C   0  0  0  0  0  0  0  0  0  0  0  0
    4.5710   47.6840   53.4320 C   0  0  0  0  0  0  0  0  0  0  0  0
    3.3670   46.8290   52.9820 C   0  0  0  0  0  0  0  0  0  0  0  0
    1.4310   44.1860   52.7420 C   0  0  0  0  0  0  0  0  0  0  0  0
    0.4580   45.0050   53.5510 C   0  0  0  0  0  0  0  0  0  0  0  0
    0.9900   43.1440   51.8920 C   0  0  0  0  0  0  0  0  0  0  0  0
   -0.4010   42.9160   51.6170 N   0  0  0  0  0  0  0  0  0  0  0  0
   -1.1200   43.4400   50.6030 C   0  0  0  0  0  0  0  0  0  0  0  0
   -2.3790   42.8840   50.6330 C   0  0  0  0  0  0  0  0  0  0  0  0
   -2.3500   42.0020   51.6950 C   0  0  0  0  0  0  0  0  0  0  0  0
   -1.1330   42.0280   52.2700 N   0  0  0  0  0  0  0  0  0  0  0  0
    1.9030   42.3160   51.3210 N   0  0  0  0  0  0  0  0  0  0  0  0
    4.7950   41.0344   51.5919 H   0  0  0  0  0  0  0  0  0  0  0  0
    3.6632   40.8584   50.2082 H   0  0  0  0  0  0  0  0  0  0  0  0
    4.8837   42.1764   50.2082 H   0  0  0  0  0  0  0  0  0  0  0  0
    3.3384   46.2465   55.5687 H   0  0  0  0  0  0  0  0  0  0  0  0
    3.1230   44.4416   55.3861 H   0  0  0  0  0  0  0  0  0  0  0  0
    5.2633   44.8999   56.4263 H   0  0  0  0  0  0  0  0  0  0  0  0
    5.4868   44.2619   54.7275 H   0  0  0  0  0  0  0  0  0  0  0  0
    5.9019   47.1069   55.7398 H   0  0  0  0  0  0  0  0  0  0  0  0
    7.1018   45.9601   54.9871 H   0  0  0  0  0  0  0  0  0  0  0  0
    5.2270   45.1799   51.6184 H   0  0  0  0  0  0  0  0  0  0  0  0
    6.7722   44.5950   49.7438 H   0  0  0  0  0  0  0  0  0  0  0  0
    9.7588   47.2015   51.3074 H   0  0  0  0  0  0  0  0  0  0  0  0
    8.2664   47.8302   53.2127 H   0  0  0  0  0  0  0  0  0  0  0  0
    4.3106   48.1980   54.3690 H   0  0  0  0  0  0  0  0  0  0  0  0
    4.7937   48.4038   52.6306 H   0  0  0  0  0  0  0  0  0  0  0  0
    2.4382   47.3464   53.2641 H   0  0  0  0  0  0  0  0  0  0  0  0
    3.4317   46.6962   51.8920 H   0  0  0  0  0  0  0  0  0  0  0  0
    0.6472   44.8458   54.6229 H   0  0  0  0  0  0  0  0  0  0  0  0
    0.5868   46.0706   53.3103 H   0  0  0  0  0  0  0  0  0  0  0  0
   -0.5700   44.6963   53.3103 H   0  0  0  0  0  0  0  0  0  0  0  0
   -0.7616   44.1842   49.8765 H   0  0  0  0  0  0  0  0  0  0  0  0
   -3.2224   43.0957   49.9593 H   0  0  0  0  0  0  0  0  0  0  0  0
   -3.1923   41.3742   52.0212 H   0  0  0  0  0  0  0  0  0  0  0  0
  1  2  1  0
  2  3  2  0
  3  4  1  0
  4  5  1  0
  5  6  1  0
  6  7  1  0
  7  8  1  0
  8  9  1  0
  9 10  1  0
 10 11  2  0
 11 12  1  0
 12 13  2  0
 13 14  1  0
 14 15  2  0
  9 16  1  0
 16 17  1  0
  4 18  2  0
 18 19  1  0
 18 20  1  0
 20 21  1  0
 21 22  1  0
 22 23  2  0
 23 24  1  0
 24 25  2  0
 20 26  2  0
 26  2  1  0
 17  5  1  0
 25 21  1  0
 15 10  1  0
  1 27  1  0
  1 28  1  0
  1 29  1  0
  6 30  1  0
  6 31  1  0
  7 32  1  0
  7 33  1  0
  8 34  1  0
  8 35  1  0
 11 36  1  0
 12 37  1  0
 14 38  1  0
 15 39  1  0
 16 40  1  0
 16 41  1  0
 17 42  1  0
 17 43  1  0
 19 44  1  0
 19 45  1  0
 19 46  1  0
 22 47  1  0
 23 48  1  0
 24 49  1  0
M  END
>  <meeko>  (3) 
{"is_sidechain": [false], "free_energy": -6.484, "intermolecular_energy": -9.559, "internal_energy": -0.184}

$$$$
ligand_24_conformer_3_docked
     RDKit          3D

 49 52  0  0  0  0  0  0  0  0999 V2000
    0.6540   45.5410   57.2360 C   0  0  0  0  0  0  0  0  0  0  0  0
    0.7570   45.3030   55.7670 C   0  0  0  0  0  0  0  0  0  0  0  0
    1.9280   45.5260   55.1250 N   0  0  0  0  0  0  0  0  0  0  0  0
    2.0760   45.2780   53.7970 C   0  0  0  0  0  0  0  0  0  0  0  0
    3.3680   45.4970   53.1940 N   0  0  0  0  0  0  0  0  0  0  0  0
    4.4030   44.4470   53.2930 C   0  0  0  0  0  0  0  0  0  0  0  0
    5.2050   44.2510   51.9920 C   0  0  0  0  0  0  0  0  0  0  0  0
    5.8460   45.5610   51.4770 C   0  0  0  0  0  0  0  0  0  0  0  0
    6.1830   46.5000   52.5600 N   0  0  0  0  0  0  0  0  0  0  0  0
    7.5650   46.7150   52.9120 C   0  0  0  0  0  0  0  0  0  0  0  0
    7.9150   47.0990   54.2160 C   0  0  0  0  0  0  0  0  0  0  0  0
    9.2560   47.3300   54.5310 C   0  0  0  0  0  0  0  0  0  0  0  0
   10.2150   47.1780   53.5820 N   0  0  0  0  0  0  0  0  0  0  0  0
    9.9090   46.8000   52.3120 C   0  0  0  0  0  0  0  0  0  0  0  0
    8.5790   46.5600   51.9540 C   0  0  0  0  0  0  0  0  0  0  0  0
    5.1230   47.2750   53.2280 C   0  0  0  0  0  0  0  0  0  0  0  0
    3.7130   46.8580   52.7550 C   0  0  0  0  0  0  0  0  0  0  0  0
    0.9690   44.8120   53.0510 C   0  0  0  0  0  0  0  0  0  0  0  0
    1.0340   44.7180   51.5480 C   0  0  0  0  0  0  0  0  0  0  0  0
   -0.2200   44.5100   53.7590 C   0  0  0  0  0  0  0  0  0  0  0  0
   -1.3700   43.9370   53.1160 N   0  0  0  0  0  0  0  0  0  0  0  0
   -2.5510   44.5440   52.8850 C   0  0  0  0  0  0  0  0  0  0  0  0
   -3.3420   43.6880   52.1510 C   0  0  0  0  0  0  0  0  0  0  0  0
   -2.5580   42.5690   51.9510 C   0  0  0  0  0  0  0  0  0  0  0  0
   -1.3580   42.7490   52.5340 N   0  0  0  0  0  0  0  0  0  0  0  0
   -0.2930   44.7790   55.0880 N   0  0  0  0  0  0  0  0  0  0  0  0
    1.0343   44.6622   57.7774 H   0  0  0  0  0  0  0  0  0  0  0  0
    1.2501   46.4249   57.5069 H   0  0  0  0  0  0  0  0  0  0  0  0
   -0.3984   45.7114   57.5069 H   0  0  0  0  0  0  0  0  0  0  0  0
    5.1030   44.7225   54.0956 H   0  0  0  0  0  0  0  0  0  0  0  0
    3.8842   43.4993   53.4996 H   0  0  0  0  0  0  0  0  0  0  0  0
    6.0045   43.5191   52.1794 H   0  0  0  0  0  0  0  0  0  0  0  0
    4.5028   43.9017   51.2208 H   0  0  0  0  0  0  0  0  0  0  0  0
    6.7675   45.3097   50.9313 H   0  0  0  0  0  0  0  0  0  0  0  0
    5.1079   46.0565   50.8291 H   0  0  0  0  0  0  0  0  0  0  0  0
    7.1377   47.2173   54.9853 H   0  0  0  0  0  0  0  0  0  0  0  0
    9.5357   47.6357   55.5500 H   0  0  0  0  0  0  0  0  0  0  0  0
   10.7086   46.6830   51.5657 H   0  0  0  0  0  0  0  0  0  0  0  0
    8.3289   46.2517   50.9281 H   0  0  0  0  0  0  0  0  0  0  0  0
    5.1954   47.1128   54.3136 H   0  0  0  0  0  0  0  0  0  0  0  0
    5.2663   48.3353   52.9727 H   0  0  0  0  0  0  0  0  0  0  0  0
    2.9763   47.5626   53.1683 H   0  0  0  0  0  0  0  0  0  0  0  0
    3.7033   46.8745   51.6552 H   0  0  0  0  0  0  0  0  0  0  0  0
    1.6380   43.8446   51.2610 H   0  0  0  0  0  0  0  0  0  0  0  0
    0.0170   44.6096   51.1431 H   0  0  0  0  0  0  0  0  0  0  0  0
    1.4945   45.6312   51.1431 H   0  0  0  0  0  0  0  0  0  0  0  0
   -2.8347   45.5510   53.2247 H   0  0  0  0  0  0  0  0  0  0  0  0
   -4.3710   43.8582   51.8014 H   0  0  0  0  0  0  0  0  0  0  0  0
   -2.8667   41.6685   51.3998 H   0  0  0  0  0  0  0  0  0  0  0  0
  1  2  1  0
  2  3  2  0
  3  4  1  0
  4  5  1  0
  5  6  1  0
  6  7  1  0
  7  8  1  0
  8  9  1  0
  9 10  1  0
 10 11  2  0
 11 12  1  0
 12 13  2  0
 13 14  1  0
 14 15  2  0
  9 16  1  0
 16 17  1  0
  4 18  2  0
 18 19  1  0
 18 20  1  0
 20 21  1  0
 21 22  1  0
 22 23  2  0
 23 24  1  0
 24 25  2  0
 20 26  2  0
 26  2  1  0
 17  5  1  0
 25 21  1  0
 15 10  1  0
  1 27  1  0
  1 28  1  0
  1 29  1  0
  6 30  1  0
  6 31  1  0
  7 32  1  0
  7 33  1  0
  8 34  1  0
  8 35  1  0
 11 36  1  0
 12 37  1  0
 14 38  1  0
 15 39  1  0
 16 40  1  0
 16 41  1  0
 17 42  1  0
 17 43  1  0
 19 44  1  0
 19 45  1  0
 19 46  1  0
 22 47  1  0
 23 48  1  0
 24 49  1  0
M  END
>  <meeko>  (4) 
{"is_sidechain": [false], "free_energy": -6.455, "intermolecular_energy": -9.687, "internal_energy": -0.011}

$$$$
ligand_24_conformer_3_docked
     RDKit          3D

 49 52  0  0  0  0  0  0  0  0999 V2000
    8.0170   44.3900   48.9740 C   0  0  0  0  0  0  0  0  0  0  0  0
    7.3520   44.9000   50.2090 C   0  0  0  0  0  0  0  0  0  0  0  0
    6.0430   44.6380   50.4310 N   0  0  0  0  0  0  0  0  0  0  0  0
    5.4120   45.0440   51.5640 C   0  0  0  0  0  0  0  0  0  0  0  0
    4.0280   44.6860   51.7490 N   0  0  0  0  0  0  0  0  0  0  0  0
    2.9710   45.5920   51.2530 C   0  0  0  0  0  0  0  0  0  0  0  0
    2.2470   46.3640   52.3730 C   0  0  0  0  0  0  0  0  0  0  0  0
    1.8100   45.4570   53.5570 C   0  0  0  0  0  0  0  0  0  0  0  0
    1.3090   44.1410   53.1260 N   0  0  0  0  0  0  0  0  0  0  0  0
   -0.1040   43.8590   53.1970 C   0  0  0  0  0  0  0  0  0  0  0  0
   -0.7360   43.1320   52.1760 C   0  0  0  0  0  0  0  0  0  0  0  0
   -2.1100   42.8920   52.2480 C   0  0  0  0  0  0  0  0  0  0  0  0
   -2.8290   43.3560   53.3040 N   0  0  0  0  0  0  0  0  0  0  0  0
   -2.2440   44.0560   54.3120 C   0  0  0  0  0  0  0  0  0  0  0  0
   -0.8720   44.3200   54.2780 C   0  0  0  0  0  0  0  0  0  0  0  0
    2.2310   43.1470   52.5520 C   0  0  0  0  0  0  0  0  0  0  0  0
    3.7060   43.5860   52.6720 C   0  0  0  0  0  0  0  0  0  0  0  0
    6.1280   45.7970   52.5230 C   0  0  0  0  0  0  0  0  0  0  0  0
    5.4190   46.4360   53.6900 C   0  0  0  0  0  0  0  0  0  0  0  0
    7.5140   45.9890   52.3070 C   0  0  0  0  0  0  0  0  0  0  0  0
    8.3550   46.6510   53.2650 N   0  0  0  0  0  0  0  0  0  0  0  0
    9.5470   46.2200   53.7260 C   0  0  0  0  0  0  0  0  0  0  0  0
   10.0730   47.1960   54.5430 C   0  0  0  0  0  0  0  0  0  0  0  0
    9.1430   48.2170   54.5170 C   0  0  0  0  0  0  0  0  0  0  0  0
    8.1140   47.8690   53.7230 N   0  0  0  0  0  0  0  0  0  0  0  0
    8.0780   45.5490   51.1520 N   0  0  0  0  0  0  0  0  0  0  0  0
    8.8613   43.7425   49.2529 H   0  0  0  0  0  0  0  0  0  0  0  0
    7.2933   43.8131   48.3794 H   0  0  0  0  0  0  0  0  0  0  0  0
    8.3865   45.2385   48.3794 H   0  0  0  0  0  0  0  0  0  0  0  0
    3.4300   46.3206   50.5686 H   0  0  0  0  0  0  0  0  0  0  0  0
    2.2175   44.9662   50.7524 H   0  0  0  0  0  0  0  0  0  0  0  0
    2.9255   47.1394   52.7583 H   0  0  0  0  0  0  0  0  0  0  0  0
    1.3338   46.7945   51.9362 H   0  0  0  0  0  0  0  0  0  0  0  0
    2.6763   45.3022   54.2170 H   0  0  0  0  0  0  0  0  0  0  0  0
    0.9837   45.9683   54.0725 H   0  0  0  0  0  0  0  0  0  0  0  0
   -0.1523   42.7534   51.3239 H   0  0  0  0  0  0  0  0  0  0  0  0
   -2.6112   42.3264   51.4486 H   0  0  0  0  0  0  0  0  0  0  0  0
   -2.8515   44.4152   55.1557 H   0  0  0  0  0  0  0  0  0  0  0  0
   -0.3969   44.8855   55.0932 H   0  0  0  0  0  0  0  0  0  0  0  0
    2.1004   42.1932   53.0841 H   0  0  0  0  0  0  0  0  0  0  0  0
    1.9944   43.0431   51.4828 H   0  0  0  0  0  0  0  0  0  0  0  0
    3.8949   43.9200   53.7029 H   0  0  0  0  0  0  0  0  0  0  0  0
    4.3400   42.7257   52.4114 H   0  0  0  0  0  0  0  0  0  0  0  0
    5.8429   46.0540   54.6304 H   0  0  0  0  0  0  0  0  0  0  0  0
    5.5497   47.5273   53.6455 H   0  0  0  0  0  0  0  0  0  0  0  0
    4.3471   46.1930   53.6455 H   0  0  0  0  0  0  0  0  0  0  0  0
   10.0182   45.2545   53.4899 H   0  0  0  0  0  0  0  0  0  0  0  0
   11.0242   47.1685   55.0947 H   0  0  0  0  0  0  0  0  0  0  0  0
    9.2303   49.1686   55.0618 H   0  0  0  0  0  0  0  0  0  0  0  0
  1  2  1  0
  2  3  2  0
  3  4  1  0
  4  5  1  0
  5  6  1  0
  6  7  1  0
  7  8  1  0
  8  9  1  0
  9 10  1  0
 10 11  2  0
 11 12  1  0
 12 13  2  0
 13 14  1  0
 14 15  2  0
  9 16  1  0
 16 17  1  0
  4 18  2  0
 18 19  1  0
 18 20  1  0
 20 21  1  0
 21 22  1  0
 22 23  2  0
 23 24  1  0
 24 25  2  0
 20 26  2  0
 26  2  1  0
 17  5  1  0
 25 21  1  0
 15 10  1  0
  1 27  1  0
  1 28  1  0
  1 29  1  0
  6 30  1  0
  6 31  1  0
  7 32  1  0
  7 33  1  0
  8 34  1  0
  8 35  1  0
 11 36  1  0
 12 37  1  0
 14 38  1  0
 15 39  1  0
 16 40  1  0
 16 41  1  0
 17 42  1  0
 17 43  1  0
 19 44  1  0
 19 45  1  0
 19 46  1  0
 22 47  1  0
 23 48  1  0
 24 49  1  0
M  END
>  <meeko>  (5) 
{"is_sidechain": [false], "free_energy": -6.415, "intermolecular_energy": -10.131, "internal_energy": 0.494}

$$$$
