ligand_51_conformer_1_docked
     RDKit          3D

 40 43  0  0  0  0  0  0  0  0999 V2000
    8.2130   44.5550   49.1000 O   0  0  0  0  0  0  0  0  0  0  0  0
    7.4580   44.5360   50.1100 C   0  0  0  0  0  0  0  0  0  0  0  0
    7.5530   45.5740   51.0960 N   0  0  0  0  0  0  0  0  0  0  0  0
    8.6440   46.5530   51.0980 C   0  0  2  0  0  0  0  0  0  0  0  0
    9.9450   45.9040   51.5690 C   0  0  0  0  0  0  0  0  0  0  0  0
   10.0630   46.2190   53.0500 C   0  0  0  0  0  0  0  0  0  0  0  0
    9.3290   47.5480   53.2480 C   0  0  2  0  0  0  0  0  0  0  0  0
    8.1290   47.5090   54.1970 C   0  0  0  0  0  0  0  0  0  0  0  0
    7.1880   47.6890   53.0130 C   0  0  0  0  0  0  0  0  0  0  0  0
    8.3940   47.7330   52.0610 C   0  0  2  0  0  0  0  0  0  0  0  0
    6.4460   43.4710   50.2320 C   0  0  0  0  0  0  0  0  0  0  0  0
    6.5300   42.2140   49.6700 C   0  0  0  0  0  0  0  0  0  0  0  0
    5.3780   41.5630   49.9080 N   0  0  0  0  0  0  0  0  0  0  0  0
    4.5620   42.3350   50.6070 N   0  0  0  0  0  0  0  0  0  0  0  0
    5.1890   43.5080   50.8280 C   0  0  0  0  0  0  0  0  0  0  0  0
    4.6020   44.5870   51.6500 C   0  0  0  0  0  0  0  0  0  0  0  0
    3.9620   45.6860   51.0510 C   0  0  0  0  0  0  0  0  0  0  0  0
    3.4180   46.7030   51.8410 C   0  0  0  0  0  0  0  0  0  0  0  0
    3.5230   46.6390   53.2330 C   0  0  0  0  0  0  0  0  0  0  0  0
    4.1780   45.5620   53.8370 C   0  0  0  0  0  0  0  0  0  0  0  0
    4.2840   45.5040   55.1880 F   0  0  0  0  0  0  0  0  0  0  0  0
    4.7230   44.5430   53.0490 C   0  0  0  0  0  0  0  0  0  0  0  0
    6.7570   45.7090   51.7590 H   0  0  0  0  0  0  0  0  0  0  0  0
    8.7052   46.9181   50.0621 H   0  0  0  0  0  0  0  0  0  0  0  0
    9.9070   44.8159   51.4123 H   0  0  0  0  0  0  0  0  0  0  0  0
   10.8102   46.2863   51.0075 H   0  0  0  0  0  0  0  0  0  0  0  0
    9.5913   45.4267   53.6499 H   0  0  0  0  0  0  0  0  0  0  0  0
   11.1134   46.2825   53.3702 H   0  0  0  0  0  0  0  0  0  0  0  0
   10.1478   48.2359   53.5055 H   0  0  0  0  0  0  0  0  0  0  0  0
    8.0063   46.5529   54.7270 H   0  0  0  0  0  0  0  0  0  0  0  0
    8.0775   48.1914   55.0582 H   0  0  0  0  0  0  0  0  0  0  0  0
    6.5124   46.8377   52.8429 H   0  0  0  0  0  0  0  0  0  0  0  0
    6.4464   48.5014   53.0098 H   0  0  0  0  0  0  0  0  0  0  0  0
    8.4017   48.5722   51.3498 H   0  0  0  0  0  0  0  0  0  0  0  0
    7.3937   41.8121   49.1200 H   0  0  0  0  0  0  0  0  0  0  0  0
    5.1440   40.5960   49.5920 H   0  0  0  0  0  0  0  0  0  0  0  0
    3.8889   45.7460   49.9551 H   0  0  0  0  0  0  0  0  0  0  0  0
    2.9071   47.5539   51.3667 H   0  0  0  0  0  0  0  0  0  0  0  0
    3.0898   47.4369   53.8540 H   0  0  0  0  0  0  0  0  0  0  0  0
    5.2488   43.7033   53.5269 H   0  0  0  0  0  0  0  0  0  0  0  0
  1  2  2  0
  2  3  1  0
  3  4  1  0
  4  5  1  0
  5  6  1  0
  6  7  1  0
  7  8  1  0
  8  9  1  0
  9 10  1  0
  2 11  1  0
 11 12  2  0
 12 13  1  0
 13 14  1  0
 14 15  2  0
 15 16  1  0
 16 17  2  0
 17 18  1  0
 18 19  2  0
 19 20  1  0
 20 21  1  0
 20 22  2  0
 10  4  1  0
 15 11  1  0
 22 16  1  0
 10  7  1  0
  3 23  1  0
  4 24  1  6
  5 25  1  0
  5 26  1  0
  6 27  1  0
  6 28  1  0
  7 29  1  1
  8 30  1  0
  8 31  1  0
  9 32  1  0
  9 33  1  0
 10 34  1  6
 12 35  1  0
 13 36  1  0
 17 37  1  0
 18 38  1  0
 19 39  1  0
 22 40  1  0
M  END
>  <meeko>  (1) 
{"is_sidechain": [false], "free_energy": -9.445, "intermolecular_energy": -11.101, "internal_energy": -0.902}

$$$$
ligand_51_conformer_1_docked
     RDKit          3D

 40 43  0  0  0  0  0  0  0  0999 V2000
    4.8870   46.7280   51.1180 O   0  0  0  0  0  0  0  0  0  0  0  0
    5.2900   46.0540   52.1050 C   0  0  0  0  0  0  0  0  0  0  0  0
    6.5970   46.2890   52.6480 N   0  0  0  0  0  0  0  0  0  0  0  0
    7.5840   47.1350   51.9710 C   0  0  2  0  0  0  0  0  0  0  0  0
    8.4890   46.2910   51.0740 C   0  0  0  0  0  0  0  0  0  0  0  0
    9.7400   46.0030   51.8870 C   0  0  0  0  0  0  0  0  0  0  0  0
    9.8890   47.1860   52.8460 C   0  0  2  0  0  0  0  0  0  0  0  0
    9.8430   46.8430   54.3360 C   0  0  0  0  0  0  0  0  0  0  0  0
    8.4800   47.5140   54.4470 C   0  0  0  0  0  0  0  0  0  0  0  0
    8.5290   47.8620   52.9520 C   0  0  2  0  0  0  0  0  0  0  0  0
    4.3830   45.0700   52.7220 C   0  0  0  0  0  0  0  0  0  0  0  0
    3.5980   45.2860   53.8350 C   0  0  0  0  0  0  0  0  0  0  0  0
    2.9920   44.1310   54.1610 N   0  0  0  0  0  0  0  0  0  0  0  0
    3.3400   43.1840   53.3040 N   0  0  0  0  0  0  0  0  0  0  0  0
    4.1850   43.7280   52.4060 C   0  0  0  0  0  0  0  0  0  0  0  0
    4.7160   42.9770   51.2490 C   0  0  0  0  0  0  0  0  0  0  0  0
    4.1120   41.7810   50.8250 C   0  0  0  0  0  0  0  0  0  0  0  0
    4.6310   41.0770   49.7330 C   0  0  0  0  0  0  0  0  0  0  0  0
    5.7630   41.5540   49.0670 C   0  0  0  0  0  0  0  0  0  0  0  0
    6.3840   42.7300   49.4970 C   0  0  0  0  0  0  0  0  0  0  0  0
    7.4860   43.1880   48.8540 F   0  0  0  0  0  0  0  0  0  0  0  0
    5.8680   43.4360   50.5890 C   0  0  0  0  0  0  0  0  0  0  0  0
    6.8090   45.9450   53.6120 H   0  0  0  0  0  0  0  0  0  0  0  0
    6.9930   47.8683   51.4027 H   0  0  0  0  0  0  0  0  0  0  0  0
    7.9865   45.3513   50.8012 H   0  0  0  0  0  0  0  0  0  0  0  0
    8.7305   46.8172   50.1387 H   0  0  0  0  0  0  0  0  0  0  0  0
    9.6248   45.0648   52.4496 H   0  0  0  0  0  0  0  0  0  0  0  0
   10.6251   45.8861   51.2444 H   0  0  0  0  0  0  0  0  0  0  0  0
   10.7991   47.6794   52.4742 H   0  0  0  0  0  0  0  0  0  0  0  0
    9.8311   45.7638   54.5484 H   0  0  0  0  0  0  0  0  0  0  0  0
   10.6664   47.1405   55.0019 H   0  0  0  0  0  0  0  0  0  0  0  0
    7.6638   46.8298   54.7222 H   0  0  0  0  0  0  0  0  0  0  0  0
    8.3062   48.3005   55.1961 H   0  0  0  0  0  0  0  0  0  0  0  0
    8.3002   48.9094   52.7057 H   0  0  0  0  0  0  0  0  0  0  0  0
    3.4864   46.2425   54.3667 H   0  0  0  0  0  0  0  0  0  0  0  0
    2.3470   43.9830   54.9680 H   0  0  0  0  0  0  0  0  0  0  0  0
    3.2274   41.3967   51.3540 H   0  0  0  0  0  0  0  0  0  0  0  0
    4.1476   40.1473   49.3985 H   0  0  0  0  0  0  0  0  0  0  0  0
    6.1656   41.0037   48.2038 H   0  0  0  0  0  0  0  0  0  0  0  0
    6.3665   44.3545   50.9323 H   0  0  0  0  0  0  0  0  0  0  0  0
  1  2  2  0
  2  3  1  0
  3  4  1  0
  4  5  1  0
  5  6  1  0
  6  7  1  0
  7  8  1  0
  8  9  1  0
  9 10  1  0
  2 11  1  0
 11 12  2  0
 12 13  1  0
 13 14  1  0
 14 15  2  0
 15 16  1  0
 16 17  2  0
 17 18  1  0
 18 19  2  0
 19 20  1  0
 20 21  1  0
 20 22  2  0
 10  4  1  0
 15 11  1  0
 22 16  1  0
 10  7  1  0
  3 23  1  0
  4 24  1  6
  5 25  1  0
  5 26  1  0
  6 27  1  0
  6 28  1  0
  7 29  1  1
  8 30  1  0
  8 31  1  0
  9 32  1  0
  9 33  1  0
 10 34  1  1
 12 35  1  0
 13 36  1  0
 17 37  1  0
 18 38  1  0
 19 39  1  0
 22 40  1  0
M  END
>  <meeko>  (2) 
{"is_sidechain": [false], "free_energy": -9.072, "intermolecular_energy": -11.105, "internal_energy": -0.46}

$$$$
ligand_51_conformer_1_docked
     RDKit          3D

 40 43  0  0  0  0  0  0  0  0999 V2000
    4.6520   46.7650   51.6220 O   0  0  0  0  0  0  0  0  0  0  0  0
    5.1220   46.6220   52.7840 C   0  0  0  0  0  0  0  0  0  0  0  0
    6.4810   46.9880   53.0580 N   0  0  0  0  0  0  0  0  0  0  0  0
    7.4310   47.3230   51.9930 C   0  0  2  0  0  0  0  0  0  0  0  0
    7.8290   46.0700   51.2150 C   0  0  0  0  0  0  0  0  0  0  0  0
    9.1390   45.5950   51.8190 C   0  0  0  0  0  0  0  0  0  0  0  0
    9.8230   46.8530   52.3570 C   0  0  2  0  0  0  0  0  0  0  0  0
   10.0910   46.8710   53.8640 C   0  0  0  0  0  0  0  0  0  0  0  0
    9.0150   47.9340   54.0400 C   0  0  0  0  0  0  0  0  0  0  0  0
    8.7510   47.9190   52.5270 C   0  0  2  0  0  0  0  0  0  0  0  0
    4.2410   46.1300   53.8590 C   0  0  0  0  0  0  0  0  0  0  0  0
    4.1200   46.6840   55.1160 C   0  0  0  0  0  0  0  0  0  0  0  0
    3.3080   45.9040   55.8500 N   0  0  0  0  0  0  0  0  0  0  0  0
    2.8900   44.8810   55.1220 N   0  0  0  0  0  0  0  0  0  0  0  0
    3.4370   44.9940   53.8960 C   0  0  0  0  0  0  0  0  0  0  0  0
    3.1260   44.0630   52.7910 C   0  0  0  0  0  0  0  0  0  0  0  0
    1.8950   44.1300   52.1150 C   0  0  0  0  0  0  0  0  0  0  0  0
    1.6110   43.2380   51.0760 C   0  0  0  0  0  0  0  0  0  0  0  0
    2.5450   42.2640   50.7150 C   0  0  0  0  0  0  0  0  0  0  0  0
    3.7620   42.1750   51.3980 C   0  0  0  0  0  0  0  0  0  0  0  0
    4.6660   41.2250   51.0500 F   0  0  0  0  0  0  0  0  0  0  0  0
    4.0490   43.0660   52.4370 C   0  0  0  0  0  0  0  0  0  0  0  0
    6.7700   47.1350   54.0510 H   0  0  0  0  0  0  0  0  0  0  0  0
    6.9101   48.0612   51.3656 H   0  0  0  0  0  0  0  0  0  0  0  0
    7.0566   45.2940   51.3209 H   0  0  0  0  0  0  0  0  0  0  0  0
    7.9362   46.2820   50.1410 H   0  0  0  0  0  0  0  0  0  0  0  0
    8.9496   44.8820   52.6349 H   0  0  0  0  0  0  0  0  0  0  0  0
    9.7649   45.0763   51.0779 H   0  0  0  0  0  0  0  0  0  0  0  0
   10.6943   46.9511   51.6928 H   0  0  0  0  0  0  0  0  0  0  0  0
    9.8706   45.9201   54.3711 H   0  0  0  0  0  0  0  0  0  0  0  0
   11.1083   47.0385   54.2475 H   0  0  0  0  0  0  0  0  0  0  0  0
    8.1582   47.6090   54.6484 H   0  0  0  0  0  0  0  0  0  0  0  0
    9.2448   48.8783   54.5553 H   0  0  0  0  0  0  0  0  0  0  0  0
    8.7314   48.9068   52.0433 H   0  0  0  0  0  0  0  0  0  0  0  0
    4.6063   47.6087   55.4601 H   0  0  0  0  0  0  0  0  0  0  0  0
    3.0410   46.0620   56.8470 H   0  0  0  0  0  0  0  0  0  0  0  0
    1.1519   44.8875   52.4047 H   0  0  0  0  0  0  0  0  0  0  0  0
    0.6512   43.3034   50.5425 H   0  0  0  0  0  0  0  0  0  0  0  0
    2.3232   41.5670   49.8934 H   0  0  0  0  0  0  0  0  0  0  0  0
    5.0025   42.9853   52.9795 H   0  0  0  0  0  0  0  0  0  0  0  0
  1  2  2  0
  2  3  1  0
  3  4  1  0
  4  5  1  0
  5  6  1  0
  6  7  1  0
  7  8  1  0
  8  9  1  0
  9 10  1  0
  2 11  1  0
 11 12  2  0
 12 13  1  0
 13 14  1  0
 14 15  2  0
 15 16  1  0
 16 17  2  0
 17 18  1  0
 18 19  2  0
 19 20  1  0
 20 21  1  0
 20 22  2  0
 10  4  1  0
 15 11  1  0
 22 16  1  0
 10  7  1  0
  3 23  1  0
  4 24  1  6
  5 25  1  0
  5 26  1  0
  6 27  1  0
  6 28  1  0
  7 29  1  6
  8 30  1  0
  8 31  1  0
  9 32  1  0
  9 33  1  0
 10 34  1  6
 12 35  1  0
 13 36  1  0
 17 37  1  0
 18 38  1  0
 19 39  1  0
 22 40  1  0
M  END
>  <meeko>  (3) 
{"is_sidechain": [false], "free_energy": -9.072, "intermolecular_energy": -10.974, "internal_energy": -0.591}

$$$$
ligand_51_conformer_1_docked
     RDKit          3D

 40 43  0  0  0  0  0  0  0  0999 V2000
    4.9450   43.0430   51.6340 O   0  0  0  0  0  0  0  0  0  0  0  0
    5.5020   44.0630   51.1440 C   0  0  0  0  0  0  0  0  0  0  0  0
    5.1830   45.3670   51.6500 N   0  0  0  0  0  0  0  0  0  0  0  0
    4.0670   45.5960   52.5730 C   0  0  2  0  0  0  0  0  0  0  0  0
    3.4710   46.9870   52.3610 C   0  0  0  0  0  0  0  0  0  0  0  0
    4.1200   47.8880   53.3970 C   0  0  0  0  0  0  0  0  0  0  0  0
    4.4620   46.9760   54.5780 C   0  0  2  0  0  0  0  0  0  0  0  0
    5.9470   46.8850   54.9370 C   0  0  0  0  0  0  0  0  0  0  0  0
    5.9850   45.4560   54.4120 C   0  0  0  0  0  0  0  0  0  0  0  0
    4.4930   45.5470   54.0560 C   0  0  2  0  0  0  0  0  0  0  0  0
    6.5200   43.8910   50.0920 C   0  0  0  0  0  0  0  0  0  0  0  0
    6.4150   43.0550   49.0000 C   0  0  0  0  0  0  0  0  0  0  0  0
    7.5760   43.0860   48.3250 N   0  0  0  0  0  0  0  0  0  0  0  0
    8.4210   43.9110   48.9220 N   0  0  0  0  0  0  0  0  0  0  0  0
    7.8020   44.4260   50.0030 C   0  0  0  0  0  0  0  0  0  0  0  0
    8.4220   45.4520   50.8680 C   0  0  0  0  0  0  0  0  0  0  0  0
    9.7260   45.2880   51.3650 C   0  0  0  0  0  0  0  0  0  0  0  0
   10.2970   46.2630   52.1880 C   0  0  0  0  0  0  0  0  0  0  0  0
    9.5650   47.4020   52.5340 C   0  0  0  0  0  0  0  0  0  0  0  0
    8.2580   47.5630   52.0640 C   0  0  0  0  0  0  0  0  0  0  0  0
    7.5460   48.6660   52.4060 F   0  0  0  0  0  0  0  0  0  0  0  0
    7.6850   46.5890   51.2400 C   0  0  0  0  0  0  0  0  0  0  0  0
    5.8370   46.1570   51.4480 H   0  0  0  0  0  0  0  0  0  0  0  0
    3.3471   44.7923   52.3589 H   0  0  0  0  0  0  0  0  0  0  0  0
    3.6965   47.3480   51.3467 H   0  0  0  0  0  0  0  0  0  0  0  0
    2.3764   46.9750   52.4693 H   0  0  0  0  0  0  0  0  0  0  0  0
    5.0327   48.3469   52.9892 H   0  0  0  0  0  0  0  0  0  0  0  0
    3.4534   48.7101   53.6968 H   0  0  0  0  0  0  0  0  0  0  0  0
    3.7786   47.3348   55.3618 H   0  0  0  0  0  0  0  0  0  0  0  0
    6.5874   47.5852   54.3806 H   0  0  0  0  0  0  0  0  0  0  0  0
    6.2885   47.1129   55.9575 H   0  0  0  0  0  0  0  0  0  0  0  0
    6.6459   45.3138   53.5442 H   0  0  0  0  0  0  0  0  0  0  0  0
    6.3568   44.6390   55.0479 H   0  0  0  0  0  0  0  0  0  0  0  0
    3.8735   44.7099   54.4104 H   0  0  0  0  0  0  0  0  0  0  0  0
    5.5292   42.4624   48.7276 H   0  0  0  0  0  0  0  0  0  0  0  0
    7.7990   42.5440   47.4610 H   0  0  0  0  0  0  0  0  0  0  0  0
   10.3009   44.3870   51.1049 H   0  0  0  0  0  0  0  0  0  0  0  0
   11.3228   46.1336   52.5634 H   0  0  0  0  0  0  0  0  0  0  0  0
   10.0171   48.1721   53.1763 H   0  0  0  0  0  0  0  0  0  0  0  0
    6.6526   46.7136   50.8815 H   0  0  0  0  0  0  0  0  0  0  0  0
  1  2  2  0
  2  3  1  0
  3  4  1  0
  4  5  1  0
  5  6  1  0
  6  7  1  0
  7  8  1  0
  8  9  1  0
  9 10  1  0
  2 11  1  0
 11 12  2  0
 12 13  1  0
 13 14  1  0
 14 15  2  0
 15 16  1  0
 16 17  2  0
 17 18  1  0
 18 19  2  0
 19 20  1  0
 20 21  1  0
 20 22  2  0
 10  4  1  0
 15 11  1  0
 22 16  1  0
 10  7  1  0
  3 23  1  0
  4 24  1  1
  5 25  1  0
  5 26  1  0
  6 27  1  0
  6 28  1  0
  7 29  1  1
  8 30  1  0
  8 31  1  0
  9 32  1  0
  9 33  1  0
 10 34  1  1
 12 35  1  0
 13 36  1  0
 17 37  1  0
 18 38  1  0
 19 39  1  0
 22 40  1  0
M  END
>  <meeko>  (4) 
{"is_sidechain": [false], "free_energy": -8.939, "intermolecular_energy": -10.896, "internal_energy": -0.512}

$$$$
ligand_51_conformer_1_docked
     RDKit          3D

 40 43  0  0  0  0  0  0  0  0999 V2000
    4.2510   46.2090   50.7160 O   0  0  0  0  0  0  0  0  0  0  0  0
    4.7460   45.5890   51.6950 C   0  0  0  0  0  0  0  0  0  0  0  0
    5.3510   44.3030   51.4990 N   0  0  0  0  0  0  0  0  0  0  0  0
    5.2280   43.5660   50.2370 C   0  0  2  0  0  0  0  0  0  0  0  0
    5.2180   42.0610   50.4930 C   0  0  0  0  0  0  0  0  0  0  0  0
    6.6450   41.5860   50.2830 C   0  0  0  0  0  0  0  0  0  0  0  0
    7.2540   42.5520   49.2640 C   0  0  2  0  0  0  0  0  0  0  0  0
    8.4680   43.3490   49.7480 C   0  0  0  0  0  0  0  0  0  0  0  0
    7.6260   44.6180   49.7660 C   0  0  0  0  0  0  0  0  0  0  0  0
    6.4090   43.8180   49.2750 C   0  0  2  0  0  0  0  0  0  0  0  0
    4.7460   46.2270   53.0240 C   0  0  0  0  0  0  0  0  0  0  0  0
    3.6490   46.3710   53.8470 C   0  0  0  0  0  0  0  0  0  0  0  0
    4.0130   47.0920   54.9210 N   0  0  0  0  0  0  0  0  0  0  0  0
    5.2940   47.4090   54.8360 N   0  0  0  0  0  0  0  0  0  0  0  0
    5.7750   46.8880   53.6900 C   0  0  0  0  0  0  0  0  0  0  0  0
    7.1980   46.9780   53.3040 C   0  0  0  0  0  0  0  0  0  0  0  0
    7.5730   47.2110   51.9690 C   0  0  0  0  0  0  0  0  0  0  0  0
    8.9240   47.2860   51.6170 C   0  0  0  0  0  0  0  0  0  0  0  0
    9.9110   47.1150   52.5910 C   0  0  0  0  0  0  0  0  0  0  0  0
    9.5480   46.8590   53.9170 C   0  0  0  0  0  0  0  0  0  0  0  0
   10.5080   46.6870   54.8600 F   0  0  0  0  0  0  0  0  0  0  0  0
    8.1970   46.7830   54.2720 C   0  0  0  0  0  0  0  0  0  0  0  0
    5.9950   43.9340   52.2340 H   0  0  0  0  0  0  0  0  0  0  0  0
    4.2902   43.9224   49.7859 H   0  0  0  0  0  0  0  0  0  0  0  0
    4.8941   41.8516   51.5232 H   0  0  0  0  0  0  0  0  0  0  0  0
    4.5201   41.5442   49.8178 H   0  0  0  0  0  0  0  0  0  0  0  0
    7.2050   41.6224   51.2291 H   0  0  0  0  0  0  0  0  0  0  0  0
    6.6798   40.5452   49.9288 H   0  0  0  0  0  0  0  0  0  0  0  0
    7.3965   41.9094   48.3826 H   0  0  0  0  0  0  0  0  0  0  0  0
    8.8411   43.0433   50.7366 H   0  0  0  0  0  0  0  0  0  0  0  0
    9.4148   43.3164   49.1890 H   0  0  0  0  0  0  0  0  0  0  0  0
    7.4998   45.0590   50.7658 H   0  0  0  0  0  0  0  0  0  0  0  0
    7.9588   45.5146   49.2225 H   0  0  0  0  0  0  0  0  0  0  0  0
    5.8752   44.2531   48.4172 H   0  0  0  0  0  0  0  0  0  0  0  0
    2.6449   45.9641   53.6564 H   0  0  0  0  0  0  0  0  0  0  0  0
    3.3900   47.3730   55.7110 H   0  0  0  0  0  0  0  0  0  0  0  0
    6.7991   47.3350   51.1972 H   0  0  0  0  0  0  0  0  0  0  0  0
    9.2100   47.4797   50.5727 H   0  0  0  0  0  0  0  0  0  0  0  0
   10.9737   47.1817   52.3148 H   0  0  0  0  0  0  0  0  0  0  0  0
    7.9158   46.5696   55.3138 H   0  0  0  0  0  0  0  0  0  0  0  0
  1  2  2  0
  2  3  1  0
  3  4  1  0
  4  5  1  0
  5  6  1  0
  6  7  1  0
  7  8  1  0
  8  9  1  0
  9 10  1  0
  2 11  1  0
 11 12  2  0
 12 13  1  0
 13 14  1  0
 14 15  2  0
 15 16  1  0
 16 17  2  0
 17 18  1  0
 18 19  2  0
 19 20  1  0
 20 21  1  0
 20 22  2  0
 10  4  1  0
 15 11  1  0
 22 16  1  0
 10  7  1  0
  3 23  1  0
  4 24  1  6
  5 25  1  0
  5 26  1  0
  6 27  1  0
  6 28  1  0
  7 29  1  6
  8 30  1  0
  8 31  1  0
  9 32  1  0
  9 33  1  0
 10 34  1  6
 12 35  1  0
 13 36  1  0
 17 37  1  0
 18 38  1  0
 19 39  1  0
 22 40  1  0
M  END
>  <meeko>  (5) 
{"is_sidechain": [false], "free_energy": -8.887, "intermolecular_energy": -10.648, "internal_energy": -0.699}

$$$$
