ligand_68_conformer_3_docked
     RDKit          3D

 49 51  0  0  0  0  0  0  0  0999 V2000
   11.0740   47.9130   56.2280 C   0  0  0  0  0  0  0  0  0  0  0  0
    9.8890   47.7170   55.3400 C   0  0  0  0  0  0  0  0  0  0  0  0
    8.9240   48.5250   55.4120 O   0  0  0  0  0  0  0  0  0  0  0  0
    9.8180   46.5640   54.4870 N   0  0  0  0  0  0  0  0  0  0  0  0
    8.8230   46.3740   53.4660 C   0  0  0  0  0  0  0  0  0  0  0  0
    9.1490   46.4490   52.1000 C   0  0  0  0  0  0  0  0  0  0  0  0
    8.1680   46.2340   51.1270 C   0  0  0  0  0  0  0  0  0  0  0  0
    6.8510   45.9340   51.5030 C   0  0  0  0  0  0  0  0  0  0  0  0
    5.8080   45.6750   50.4480 C   0  0  0  0  0  0  0  0  0  0  0  0
    4.5040   45.4610   51.0700 N   0  0  0  0  0  0  0  0  0  0  0  0
    3.9210   44.1570   51.2050 C   0  0  0  0  0  0  0  0  0  0  0  0
    4.5670   43.1350   50.8420 O   0  0  0  0  0  0  0  0  0  0  0  0
    2.5130   44.0090   51.7240 C   0  0  0  0  0  0  0  0  0  0  0  0
    1.9820   45.3440   52.2760 C   0  0  0  0  0  0  0  0  0  0  0  0
    0.5580   45.1770   52.8110 C   0  0  0  0  0  0  0  0  0  0  0  0
    0.4970   44.0680   53.7730 N   0  0  0  0  0  0  0  0  0  0  0  0
   -0.3280   44.1930   54.9480 C   0  0  0  0  0  0  0  0  0  0  0  0
    0.1120   44.8880   56.0880 C   0  0  0  0  0  0  0  0  0  0  0  0
   -0.7000   44.9780   57.1750 N   0  0  0  0  0  0  0  0  0  0  0  0
   -1.9320   44.4080   57.1840 C   0  0  0  0  0  0  0  0  0  0  0  0
   -2.3720   43.7100   56.0600 C   0  0  0  0  0  0  0  0  0  0  0  0
   -1.5640   43.6180   54.9720 N   0  0  0  0  0  0  0  0  0  0  0  0
    1.0450   42.7650   53.3660 C   0  0  0  0  0  0  0  0  0  0  0  0
    2.4660   42.9260   52.8140 C   0  0  0  0  0  0  0  0  0  0  0  0
    6.5300   45.8330   52.8660 C   0  0  0  0  0  0  0  0  0  0  0  0
    7.5120   46.0460   53.8370 C   0  0  0  0  0  0  0  0  0  0  0  0
   10.7566   47.8605   57.2799 H   0  0  0  0  0  0  0  0  0  0  0  0
   11.8156   47.1253   56.0290 H   0  0  0  0  0  0  0  0  0  0  0  0
   11.5225   48.8975   56.0290 H   0  0  0  0  0  0  0  0  0  0  0  0
   10.4840   45.7800   54.6770 H   0  0  0  0  0  0  0  0  0  0  0  0
   10.1809   46.6780   51.7954 H   0  0  0  0  0  0  0  0  0  0  0  0
    8.4309   46.3006   50.0610 H   0  0  0  0  0  0  0  0  0  0  0  0
    5.7508   46.5417   49.7730 H   0  0  0  0  0  0  0  0  0  0  0  0
    6.0871   44.7750   49.8805 H   0  0  0  0  0  0  0  0  0  0  0  0
    3.9730   46.2970   51.4060 H   0  0  0  0  0  0  0  0  0  0  0  0
    1.8669   43.7069   50.8866 H   0  0  0  0  0  0  0  0  0  0  0  0
    2.6371   45.6842   53.0916 H   0  0  0  0  0  0  0  0  0  0  0  0
    1.9709   46.0848   51.4629 H   0  0  0  0  0  0  0  0  0  0  0  0
    0.2473   46.1067   53.3101 H   0  0  0  0  0  0  0  0  0  0  0  0
   -0.1148   44.9556   51.9694 H   0  0  0  0  0  0  0  0  0  0  0  0
    1.1073   45.3563   56.1006 H   0  0  0  0  0  0  0  0  0  0  0  0
   -2.5776   44.4960   58.0703 H   0  0  0  0  0  0  0  0  0  0  0  0
   -3.3654   43.2377   56.0544 H   0  0  0  0  0  0  0  0  0  0  0  0
    1.0697   42.0949   54.2380 H   0  0  0  0  0  0  0  0  0  0  0  0
    0.4045   42.3413   52.5785 H   0  0  0  0  0  0  0  0  0  0  0  0
    3.1406   43.2117   53.6345 H   0  0  0  0  0  0  0  0  0  0  0  0
    2.7812   41.9693   52.3720 H   0  0  0  0  0  0  0  0  0  0  0  0
    5.5024   45.5854   53.1705 H   0  0  0  0  0  0  0  0  0  0  0  0
    7.2536   45.9554   54.9024 H   0  0  0  0  0  0  0  0  0  0  0  0
  1  2  1  0
  2  3  2  0
  2  4  1  0
  4  5  1  0
  5  6  2  0
  6  7  1  0
  7  8  2  0
  8  9  1  0
  9 10  1  0
 10 11  1  0
 11 12  2  0
 11 13  1  0
 13 14  1  0
 14 15  1  0
 15 16  1  0
 16 17  1  0
 17 18  2  0
 18 19  1  0
 19 20  2  0
 20 21  1  0
 21 22  2  0
 16 23  1  0
 23 24  1  0
  8 25  1  0
 25 26  2  0
 26  5  1  0
 24 13  1  0
 22 17  1  0
  1 27  1  0
  1 28  1  0
  1 29  1  0
  4 30  1  0
  6 31  1  0
  7 32  1  0
  9 33  1  0
  9 34  1  0
 10 35  1  0
 13 36  1  0
 14 37  1  0
 14 38  1  0
 15 39  1  0
 15 40  1  0
 18 41  1  0
 20 42  1  0
 21 43  1  0
 23 44  1  0
 23 45  1  0
 24 46  1  0
 24 47  1  0
 25 48  1  0
 26 49  1  0
M  END
>  <meeko>  (1) 
{"is_sidechain": [false], "free_energy": -8.473, "intermolecular_energy": -10.949, "internal_energy": -0.573}

$$$$
ligand_68_conformer_3_docked
     RDKit          3D

 49 51  0  0  0  0  0  0  0  0999 V2000
    9.1790   47.5520   51.5900 C   0  0  0  0  0  0  0  0  0  0  0  0
    8.1910   46.4820   51.9190 C   0  0  0  0  0  0  0  0  0  0  0  0
    8.1720   45.9960   53.0820 O   0  0  0  0  0  0  0  0  0  0  0  0
    7.3400   45.9530   50.8890 N   0  0  0  0  0  0  0  0  0  0  0  0
    6.2360   45.0650   51.1310 C   0  0  0  0  0  0  0  0  0  0  0  0
    5.1660   45.4330   51.9660 C   0  0  0  0  0  0  0  0  0  0  0  0
    4.0920   44.5600   52.1640 C   0  0  0  0  0  0  0  0  0  0  0  0
    4.0650   43.3120   51.5240 C   0  0  0  0  0  0  0  0  0  0  0  0
    2.8900   42.3920   51.7200 C   0  0  0  0  0  0  0  0  0  0  0  0
    2.2630   42.6430   53.0150 N   0  0  0  0  0  0  0  0  0  0  0  0
    1.0590   43.4120   53.1500 C   0  0  0  0  0  0  0  0  0  0  0  0
    0.4640   43.8410   52.1230 O   0  0  0  0  0  0  0  0  0  0  0  0
    0.5350   43.7600   54.5200 C   0  0  0  0  0  0  0  0  0  0  0  0
   -0.8090   44.5040   54.4280 C   0  0  0  0  0  0  0  0  0  0  0  0
   -1.3240   44.8630   55.8240 C   0  0  0  0  0  0  0  0  0  0  0  0
   -0.2920   45.5850   56.5820 N   0  0  0  0  0  0  0  0  0  0  0  0
   -0.6770   46.6800   57.4370 C   0  0  0  0  0  0  0  0  0  0  0  0
   -1.8180   47.4570   57.1710 C   0  0  0  0  0  0  0  0  0  0  0  0
   -2.1410   48.4820   58.0040 N   0  0  0  0  0  0  0  0  0  0  0  0
   -1.3820   48.7730   59.0910 C   0  0  0  0  0  0  0  0  0  0  0  0
   -0.2450   48.0110   59.3570 C   0  0  0  0  0  0  0  0  0  0  0  0
    0.0820   46.9870   58.5270 N   0  0  0  0  0  0  0  0  0  0  0  0
    1.0500   44.9880   56.6700 C   0  0  0  0  0  0  0  0  0  0  0  0
    1.5650   44.6130   55.2770 C   0  0  0  0  0  0  0  0  0  0  0  0
    5.1190   42.9540   50.6700 C   0  0  0  0  0  0  0  0  0  0  0  0
    6.1920   43.8280   50.4720 C   0  0  0  0  0  0  0  0  0  0  0  0
    9.5767   47.9827   52.5208 H   0  0  0  0  0  0  0  0  0  0  0  0
   10.0040   47.1215   51.0034 H   0  0  0  0  0  0  0  0  0  0  0  0
    8.6843   48.3401   51.0034 H   0  0  0  0  0  0  0  0  0  0  0  0
    7.5930   46.1660   49.8970 H   0  0  0  0  0  0  0  0  0  0  0  0
    5.1740   46.4128   52.4660 H   0  0  0  0  0  0  0  0  0  0  0  0
    3.2635   44.8534   52.8254 H   0  0  0  0  0  0  0  0  0  0  0  0
    2.1548   42.5663   50.9205 H   0  0  0  0  0  0  0  0  0  0  0  0
    3.2408   41.3500   51.6872 H   0  0  0  0  0  0  0  0  0  0  0  0
    2.7270   42.2630   53.8710 H   0  0  0  0  0  0  0  0  0  0  0  0
    0.3674   42.8234   55.0720 H   0  0  0  0  0  0  0  0  0  0  0  0
   -0.6720   45.4267   53.8451 H   0  0  0  0  0  0  0  0  0  0  0  0
   -1.5437   43.8487   53.9372 H   0  0  0  0  0  0  0  0  0  0  0  0
   -2.2156   45.5002   55.7284 H   0  0  0  0  0  0  0  0  0  0  0  0
   -1.5768   43.9362   56.3598 H   0  0  0  0  0  0  0  0  0  0  0  0
   -2.4454   47.2372   56.2946 H   0  0  0  0  0  0  0  0  0  0  0  0
   -1.6615   49.6030   59.7565 H   0  0  0  0  0  0  0  0  0  0  0  0
    0.3820   48.2374   60.2320 H   0  0  0  0  0  0  0  0  0  0  0  0
    1.7392   45.7133   57.1272 H   0  0  0  0  0  0  0  0  0  0  0  0
    0.9937   44.0774   57.2846 H   0  0  0  0  0  0  0  0  0  0  0  0
    1.7597   45.5327   54.7059 H   0  0  0  0  0  0  0  0  0  0  0  0
    2.4890   44.0272   55.3911 H   0  0  0  0  0  0  0  0  0  0  0  0
    5.1010   41.9824   50.1545 H   0  0  0  0  0  0  0  0  0  0  0  0
    7.0092   43.5428   49.7931 H   0  0  0  0  0  0  0  0  0  0  0  0
  1  2  1  0
  2  3  2  0
  2  4  1  0
  4  5  1  0
  5  6  2  0
  6  7  1  0
  7  8  2  0
  8  9  1  0
  9 10  1  0
 10 11  1  0
 11 12  2  0
 11 13  1  0
 13 14  1  0
 14 15  1  0
 15 16  1  0
 16 17  1  0
 17 18  2  0
 18 19  1  0
 19 20  2  0
 20 21  1  0
 21 22  2  0
 16 23  1  0
 23 24  1  0
  8 25  1  0
 25 26  2  0
 26  5  1  0
 24 13  1  0
 22 17  1  0
  1 27  1  0
  1 28  1  0
  1 29  1  0
  4 30  1  0
  6 31  1  0
  7 32  1  0
  9 33  1  0
  9 34  1  0
 10 35  1  0
 13 36  1  0
 14 37  1  0
 14 38  1  0
 15 39  1  0
 15 40  1  0
 18 41  1  0
 20 42  1  0
 21 43  1  0
 23 44  1  0
 23 45  1  0
 24 46  1  0
 24 47  1  0
 25 48  1  0
 26 49  1  0
M  END
>  <meeko>  (2) 
{"is_sidechain": [false], "free_energy": -8.15, "intermolecular_energy": -10.509, "internal_energy": -0.596}

$$$$
ligand_68_conformer_3_docked
     RDKit          3D

 49 51  0  0  0  0  0  0  0  0999 V2000
    5.4090   39.9650   41.7330 C   0  0  0  0  0  0  0  0  0  0  0  0
    5.1190   39.7570   43.1840 C   0  0  0  0  0  0  0  0  0  0  0  0
    5.2300   38.6020   43.6760 O   0  0  0  0  0  0  0  0  0  0  0  0
    4.6260   40.8480   43.9770 N   0  0  0  0  0  0  0  0  0  0  0  0
    4.4930   40.8100   45.4090 C   0  0  0  0  0  0  0  0  0  0  0  0
    5.3790   41.5100   46.2470 C   0  0  0  0  0  0  0  0  0  0  0  0
    5.2120   41.4780   47.6350 C   0  0  0  0  0  0  0  0  0  0  0  0
    4.1540   40.7540   48.2050 C   0  0  0  0  0  0  0  0  0  0  0  0
    3.9640   40.7490   49.6990 C   0  0  0  0  0  0  0  0  0  0  0  0
    4.5360   41.9600   50.2830 N   0  0  0  0  0  0  0  0  0  0  0  0
    3.7590   42.8750   51.0700 C   0  0  0  0  0  0  0  0  0  0  0  0
    2.5530   42.6120   51.3370 O   0  0  0  0  0  0  0  0  0  0  0  0
    4.3620   44.1780   51.5280 C   0  0  0  0  0  0  0  0  0  0  0  0
    5.6580   44.4900   50.7600 C   0  0  0  0  0  0  0  0  0  0  0  0
    6.2670   45.8080   51.2430 C   0  0  0  0  0  0  0  0  0  0  0  0
    6.4270   45.7950   52.7040 N   0  0  0  0  0  0  0  0  0  0  0  0
    7.6000   46.3910   53.2940 C   0  0  0  0  0  0  0  0  0  0  0  0
    7.5290   47.1350   54.4850 C   0  0  0  0  0  0  0  0  0  0  0  0
    8.6610   47.6810   55.0040 N   0  0  0  0  0  0  0  0  0  0  0  0
    9.8640   47.5230   54.3940 C   0  0  0  0  0  0  0  0  0  0  0  0
    9.9400   46.7920   53.2090 C   0  0  0  0  0  0  0  0  0  0  0  0
    8.8110   46.2460   52.6870 N   0  0  0  0  0  0  0  0  0  0  0  0
    5.2610   45.4390   53.5280 C   0  0  0  0  0  0  0  0  0  0  0  0
    4.6370   44.1280   53.0400 C   0  0  0  0  0  0  0  0  0  0  0  0
    3.2540   40.0760   47.3680 C   0  0  0  0  0  0  0  0  0  0  0  0
    3.4210   40.1110   45.9810 C   0  0  0  0  0  0  0  0  0  0  0  0
    6.2985   40.6030   41.6246 H   0  0  0  0  0  0  0  0  0  0  0  0
    5.5945   38.9927   41.2531 H   0  0  0  0  0  0  0  0  0  0  0  0
    4.5475   40.4524   41.2531 H   0  0  0  0  0  0  0  0  0  0  0  0
    4.2690   41.6910   43.4720 H   0  0  0  0  0  0  0  0  0  0  0  0
    6.2075   42.0856   45.8086 H   0  0  0  0  0  0  0  0  0  0  0  0
    5.9137   42.0233   48.2833 H   0  0  0  0  0  0  0  0  0  0  0  0
    2.8891   40.7072   49.9287 H   0  0  0  0  0  0  0  0  0  0  0  0
    4.4723   39.8705   50.1232 H   0  0  0  0  0  0  0  0  0  0  0  0
    5.5420   42.1710   50.0980 H   0  0  0  0  0  0  0  0  0  0  0  0
    3.6419   44.9829   51.3191 H   0  0  0  0  0  0  0  0  0  0  0  0
    6.3801   43.6766   50.9242 H   0  0  0  0  0  0  0  0  0  0  0  0
    5.4225   44.5798   49.6893 H   0  0  0  0  0  0  0  0  0  0  0  0
    7.2514   45.9462   50.7720 H   0  0  0  0  0  0  0  0  0  0  0  0
    5.5952   46.6337   50.9655 H   0  0  0  0  0  0  0  0  0  0  0  0
    6.5637   47.2745   54.9937 H   0  0  0  0  0  0  0  0  0  0  0  0
   10.7703   47.9677   54.8308 H   0  0  0  0  0  0  0  0  0  0  0  0
   10.9065   46.6585   52.7010 H   0  0  0  0  0  0  0  0  0  0  0  0
    5.5800   45.3203   54.5740 H   0  0  0  0  0  0  0  0  0  0  0  0
    4.5117   46.2403   53.4477 H   0  0  0  0  0  0  0  0  0  0  0  0
    5.3285   43.2994   53.2527 H   0  0  0  0  0  0  0  0  0  0  0  0
    3.6822   43.9775   53.5651 H   0  0  0  0  0  0  0  0  0  0  0  0
    2.4146   39.5154   47.8052 H   0  0  0  0  0  0  0  0  0  0  0  0
    2.7048   39.5853   45.3323 H   0  0  0  0  0  0  0  0  0  0  0  0
  1  2  1  0
  2  3  2  0
  2  4  1  0
  4  5  1  0
  5  6  2  0
  6  7  1  0
  7  8  2  0
  8  9  1  0
  9 10  1  0
 10 11  1  0
 11 12  2  0
 11 13  1  0
 13 14  1  0
 14 15  1  0
 15 16  1  0
 16 17  1  0
 17 18  2  0
 18 19  1  0
 19 20  2  0
 20 21  1  0
 21 22  2  0
 16 23  1  0
 23 24  1  0
  8 25  1  0
 25 26  2  0
 26  5  1  0
 24 13  1  0
 22 17  1  0
  1 27  1  0
  1 28  1  0
  1 29  1  0
  4 30  1  0
  6 31  1  0
  7 32  1  0
  9 33  1  0
  9 34  1  0
 10 35  1  0
 13 36  1  0
 14 37  1  0
 14 38  1  0
 15 39  1  0
 15 40  1  0
 18 41  1  0
 20 42  1  0
 21 43  1  0
 23 44  1  0
 23 45  1  0
 24 46  1  0
 24 47  1  0
 25 48  1  0
 26 49  1  0
M  END
>  <meeko>  (3) 
{"is_sidechain": [false], "free_energy": -8.026, "intermolecular_energy": -10.304, "internal_energy": -0.641}

$$$$
ligand_68_conformer_3_docked
     RDKit          3D

 49 51  0  0  0  0  0  0  0  0999 V2000
   -3.6770   43.8800   58.2880 C   0  0  0  0  0  0  0  0  0  0  0  0
   -2.8920   43.4670   57.0860 C   0  0  0  0  0  0  0  0  0  0  0  0
   -2.7130   42.2400   56.8570 O   0  0  0  0  0  0  0  0  0  0  0  0
   -2.2730   44.4650   56.2590 N   0  0  0  0  0  0  0  0  0  0  0  0
   -1.6600   44.1940   54.9870 C   0  0  0  0  0  0  0  0  0  0  0  0
   -2.4300   43.9940   53.8280 C   0  0  0  0  0  0  0  0  0  0  0  0
   -1.8070   43.7570   52.5980 C   0  0  0  0  0  0  0  0  0  0  0  0
   -0.4080   43.7260   52.5070 C   0  0  0  0  0  0  0  0  0  0  0  0
    0.2530   43.5000   51.1730 C   0  0  0  0  0  0  0  0  0  0  0  0
    1.4030   44.3890   51.0240 N   0  0  0  0  0  0  0  0  0  0  0  0
    2.7520   43.9410   51.2160 C   0  0  0  0  0  0  0  0  0  0  0  0
    2.9850   42.7240   51.4580 O   0  0  0  0  0  0  0  0  0  0  0  0
    3.8880   44.9310   51.1900 C   0  0  0  0  0  0  0  0  0  0  0  0
    5.2420   44.2180   51.0240 C   0  0  0  0  0  0  0  0  0  0  0  0
    6.3880   45.2320   51.0110 C   0  0  0  0  0  0  0  0  0  0  0  0
    6.3140   46.1050   52.1910 N   0  0  0  0  0  0  0  0  0  0  0  0
    7.5300   46.4990   52.8580 C   0  0  0  0  0  0  0  0  0  0  0  0
    7.5330   46.9050   54.2040 C   0  0  0  0  0  0  0  0  0  0  0  0
    8.7030   47.2710   54.7920 N   0  0  0  0  0  0  0  0  0  0  0  0
    9.8740   47.2540   54.1040 C   0  0  0  0  0  0  0  0  0  0  0  0
    9.8760   46.8600   52.7660 C   0  0  0  0  0  0  0  0  0  0  0  0
    8.7090   46.4940   52.1760 N   0  0  0  0  0  0  0  0  0  0  0  0
    5.0380   46.7790   52.4770 C   0  0  0  0  0  0  0  0  0  0  0  0
    3.8840   45.7720   52.4760 C   0  0  0  0  0  0  0  0  0  0  0  0
    0.3620   43.9520   53.6580 C   0  0  0  0  0  0  0  0  0  0  0  0
   -0.2610   44.1900   54.8860 C   0  0  0  0  0  0  0  0  0  0  0  0
   -3.1312   43.5928   59.1988 H   0  0  0  0  0  0  0  0  0  0  0  0
   -3.8207   44.9705   58.2751 H   0  0  0  0  0  0  0  0  0  0  0  0
   -4.6571   43.3808   58.2751 H   0  0  0  0  0  0  0  0  0  0  0  0
   -2.1960   45.4340   56.6460 H   0  0  0  0  0  0  0  0  0  0  0  0
   -3.5279   44.0240   53.8885 H   0  0  0  0  0  0  0  0  0  0  0  0
   -2.4177   43.5941   51.6977 H   0  0  0  0  0  0  0  0  0  0  0  0
    0.5902   42.4551   51.1067 H   0  0  0  0  0  0  0  0  0  0  0  0
   -0.4712   43.7118   50.3725 H   0  0  0  0  0  0  0  0  0  0  0  0
    1.2250   45.3920   50.7890 H   0  0  0  0  0  0  0  0  0  0  0  0
    3.7451   45.5951   50.3248 H   0  0  0  0  0  0  0  0  0  0  0  0
    5.3874   43.5192   51.8610 H   0  0  0  0  0  0  0  0  0  0  0  0
    5.2405   43.6731   50.0685 H   0  0  0  0  0  0  0  0  0  0  0  0
    7.3476   44.6943   51.0177 H   0  0  0  0  0  0  0  0  0  0  0  0
    6.3069   45.8500   50.1047 H   0  0  0  0  0  0  0  0  0  0  0  0
    6.5947   46.9264   54.7778 H   0  0  0  0  0  0  0  0  0  0  0  0
   10.8121   47.5482   54.5974 H   0  0  0  0  0  0  0  0  0  0  0  0
   10.8152   46.8459   52.1935 H   0  0  0  0  0  0  0  0  0  0  0  0
    5.0968   47.2603   53.4643 H   0  0  0  0  0  0  0  0  0  0  0  0
    4.8521   47.5319   51.6969 H   0  0  0  0  0  0  0  0  0  0  0  0
    3.9892   45.1036   53.3433 H   0  0  0  0  0  0  0  0  0  0  0  0
    2.9353   46.3262   52.5293 H   0  0  0  0  0  0  0  0  0  0  0  0
    1.4601   43.9418   53.5935 H   0  0  0  0  0  0  0  0  0  0  0  0
    0.3509   44.3758   55.7810 H   0  0  0  0  0  0  0  0  0  0  0  0
  1  2  1  0
  2  3  2  0
  2  4  1  0
  4  5  1  0
  5  6  2  0
  6  7  1  0
  7  8  2  0
  8  9  1  0
  9 10  1  0
 10 11  1  0
 11 12  2  0
 11 13  1  0
 13 14  1  0
 14 15  1  0
 15 16  1  0
 16 17  1  0
 17 18  2  0
 18 19  1  0
 19 20  2  0
 20 21  1  0
 21 22  2  0
 16 23  1  0
 23 24  1  0
  8 25  1  0
 25 26  2  0
 26  5  1  0
 24 13  1  0
 22 17  1  0
  1 27  1  0
  1 28  1  0
  1 29  1  0
  4 30  1  0
  6 31  1  0
  7 32  1  0
  9 33  1  0
  9 34  1  0
 10 35  1  0
 13 36  1  0
 14 37  1  0
 14 38  1  0
 15 39  1  0
 15 40  1  0
 18 41  1  0
 20 42  1  0
 21 43  1  0
 23 44  1  0
 23 45  1  0
 24 46  1  0
 24 47  1  0
 25 48  1  0
 26 49  1  0
M  END
>  <meeko>  (4) 
{"is_sidechain": [false], "free_energy": -7.769, "intermolecular_energy": -9.932, "internal_energy": -0.681}

$$$$
ligand_68_conformer_3_docked
     RDKit          3D

 49 51  0  0  0  0  0  0  0  0999 V2000
    8.0960   48.5940   52.2940 C   0  0  0  0  0  0  0  0  0  0  0  0
    8.0060   47.1320   52.0010 C   0  0  0  0  0  0  0  0  0  0  0  0
    8.4780   46.3060   52.8290 O   0  0  0  0  0  0  0  0  0  0  0  0
    7.4710   46.6860   50.7450 N   0  0  0  0  0  0  0  0  0  0  0  0
    7.1680   45.3150   50.4360 C   0  0  0  0  0  0  0  0  0  0  0  0
    8.0410   44.5240   49.6690 C   0  0  0  0  0  0  0  0  0  0  0  0
    7.7350   43.1860   49.4050 C   0  0  0  0  0  0  0  0  0  0  0  0
    6.5570   42.6150   49.9110 C   0  0  0  0  0  0  0  0  0  0  0  0
    6.2500   41.1650   49.6460 C   0  0  0  0  0  0  0  0  0  0  0  0
    5.5000   41.0270   48.4010 N   0  0  0  0  0  0  0  0  0  0  0  0
    4.1060   40.6840   48.3770 C   0  0  0  0  0  0  0  0  0  0  0  0
    3.4680   40.5570   49.4590 O   0  0  0  0  0  0  0  0  0  0  0  0
    3.4170   40.4160   47.0640 C   0  0  0  0  0  0  0  0  0  0  0  0
    3.1450   38.9130   46.8760 C   0  0  0  0  0  0  0  0  0  0  0  0
    2.4570   38.6520   45.5340 C   0  0  0  0  0  0  0  0  0  0  0  0
    3.2230   39.2620   44.4380 N   0  0  0  0  0  0  0  0  0  0  0  0
    3.3430   38.5620   43.1820 C   0  0  0  0  0  0  0  0  0  0  0  0
    2.7180   39.0340   42.0140 C   0  0  0  0  0  0  0  0  0  0  0  0
    2.8560   38.3390   40.8530 N   0  0  0  0  0  0  0  0  0  0  0  0
    3.5860   37.1960   40.7970 C   0  0  0  0  0  0  0  0  0  0  0  0
    4.2020   36.7190   41.9540 C   0  0  0  0  0  0  0  0  0  0  0  0
    4.0660   37.4090   43.1160 N   0  0  0  0  0  0  0  0  0  0  0  0
    3.5950   40.6800   44.5540 C   0  0  0  0  0  0  0  0  0  0  0  0
    4.2710   40.9510   45.9030 C   0  0  0  0  0  0  0  0  0  0  0  0
    5.6980   43.3960   50.6990 C   0  0  0  0  0  0  0  0  0  0  0  0
    6.0060   44.7330   50.9630 C   0  0  0  0  0  0  0  0  0  0  0  0
    8.1056   48.7498   53.3829 H   0  0  0  0  0  0  0  0  0  0  0  0
    9.0208   48.9992   51.8574 H   0  0  0  0  0  0  0  0  0  0  0  0
    7.2279   49.1096   51.8574 H   0  0  0  0  0  0  0  0  0  0  0  0
    7.3740   47.3950   49.9820 H   0  0  0  0  0  0  0  0  0  0  0  0
    8.9703   44.9606   49.2743 H   0  0  0  0  0  0  0  0  0  0  0  0
    8.4210   42.5774   48.7975 H   0  0  0  0  0  0  0  0  0  0  0  0
    7.1922   40.6029   49.5667 H   0  0  0  0  0  0  0  0  0  0  0  0
    5.6448   40.7693   50.4749 H   0  0  0  0  0  0  0  0  0  0  0  0
    6.0090   41.1640   47.4990 H   0  0  0  0  0  0  0  0  0  0  0  0
    2.4488   40.9381   47.0709 H   0  0  0  0  0  0  0  0  0  0  0  0
    4.0994   38.3668   46.9048 H   0  0  0  0  0  0  0  0  0  0  0  0
    2.4841   38.5690   47.6853 H   0  0  0  0  0  0  0  0  0  0  0  0
    2.3874   37.5669   45.3674 H   0  0  0  0  0  0  0  0  0  0  0  0
    1.4510   39.0964   45.5565 H   0  0  0  0  0  0  0  0  0  0  0  0
    2.1221   39.9582   42.0391 H   0  0  0  0  0  0  0  0  0  0  0  0
    3.6909   36.6507   39.8475 H   0  0  0  0  0  0  0  0  0  0  0  0
    4.7930   35.7917   41.9256 H   0  0  0  0  0  0  0  0  0  0  0  0
    4.2908   40.9389   43.7423 H   0  0  0  0  0  0  0  0  0  0  0  0
    2.6842   41.2928   44.4839 H   0  0  0  0  0  0  0  0  0  0  0  0
    5.2525   40.4546   45.9198 H   0  0  0  0  0  0  0  0  0  0  0  0
    4.3870   42.0380   46.0250 H   0  0  0  0  0  0  0  0  0  0  0  0
    4.7786   42.9540   51.1105 H   0  0  0  0  0  0  0  0  0  0  0  0
    5.3311   45.3344   51.5897 H   0  0  0  0  0  0  0  0  0  0  0  0
  1  2  1  0
  2  3  2  0
  2  4  1  0
  4  5  1  0
  5  6  2  0
  6  7  1  0
  7  8  2  0
  8  9  1  0
  9 10  1  0
 10 11  1  0
 11 12  2  0
 11 13  1  0
 13 14  1  0
 14 15  1  0
 15 16  1  0
 16 17  1  0
 17 18  2  0
 18 19  1  0
 19 20  2  0
 20 21  1  0
 21 22  2  0
 16 23  1  0
 23 24  1  0
  8 25  1  0
 25 26  2  0
 26  5  1  0
 24 13  1  0
 22 17  1  0
  1 27  1  0
  1 28  1  0
  1 29  1  0
  4 30  1  0
  6 31  1  0
  7 32  1  0
  9 33  1  0
  9 34  1  0
 10 35  1  0
 13 36  1  0
 14 37  1  0
 14 38  1  0
 15 39  1  0
 15 40  1  0
 18 41  1  0
 20 42  1  0
 21 43  1  0
 23 44  1  0
 23 45  1  0
 24 46  1  0
 24 47  1  0
 25 48  1  0
 26 49  1  0
M  END
>  <meeko>  (5) 
{"is_sidechain": [false], "free_energy": -7.539, "intermolecular_energy": -9.637, "internal_energy": -0.678}

$$$$
