ligand_45_conformer_3_docked
     RDKit          3D

 49 51  0  0  0  0  0  0  0  0999 V2000
   11.0360   47.5210   56.1780 C   0  0  0  0  0  0  0  0  0  0  0  0
    9.8150   47.3540   55.3740 N   0  0  0  0  0  0  0  0  0  0  0  0
    9.0590   48.6170   55.3540 C   0  0  0  0  0  0  0  0  0  0  0  0
   10.1620   46.9150   54.0030 C   0  0  0  0  0  0  0  0  0  0  0  0
    9.2100   47.5240   52.9680 C   0  0  0  0  0  0  0  0  0  0  0  0
    8.8760   46.5340   51.8830 C   0  0  0  0  0  0  0  0  0  0  0  0
    9.8860   45.7420   51.3150 C   0  0  0  0  0  0  0  0  0  0  0  0
    9.5700   44.7830   50.3500 C   0  0  0  0  0  0  0  0  0  0  0  0
    8.2390   44.5960   49.9420 C   0  0  0  0  0  0  0  0  0  0  0  0
    7.8940   43.5430   48.9220 C   0  0  0  0  0  0  0  0  0  0  0  0
    6.5320   43.0500   49.1240 N   0  0  0  0  0  0  0  0  0  0  0  0
    6.2510   41.7870   49.7400 C   0  0  0  0  0  0  0  0  0  0  0  0
    7.1950   41.0540   50.1490 O   0  0  0  0  0  0  0  0  0  0  0  0
    4.8380   41.3140   49.9000 C   0  0  0  0  0  0  0  0  0  0  0  0
    4.0910   42.2150   50.8460 C   0  0  0  0  0  0  0  0  0  0  0  0
    2.6780   42.2520   50.8240 C   0  0  0  0  0  0  0  0  0  0  0  0
    1.9700   43.0690   51.7200 C   0  0  0  0  0  0  0  0  0  0  0  0
    2.6950   43.8310   52.6290 C   0  0  0  0  0  0  0  0  0  0  0  0
    2.1210   44.8850   53.8010 S   0  0  0  0  0  0  0  0  0  0  0  0
    3.6470   45.3170   54.3840 C   0  0  0  0  0  0  0  0  0  0  0  0
    4.6200   44.6340   53.6580 C   0  0  0  0  0  0  0  0  0  0  0  0
    4.0770   43.8020   52.6740 C   0  0  0  0  0  0  0  0  0  0  0  0
    4.7960   42.9920   51.7900 C   0  0  0  0  0  0  0  0  0  0  0  0
    7.2300   45.3950   50.5040 C   0  0  0  0  0  0  0  0  0  0  0  0
    7.5450   46.3510   51.4740 C   0  0  0  0  0  0  0  0  0  0  0  0
   10.7788   47.4858   57.2469 H   0  0  0  0  0  0  0  0  0  0  0  0
   11.7427   46.7111   55.9441 H   0  0  0  0  0  0  0  0  0  0  0  0
   11.4993   48.4909   55.9441 H   0  0  0  0  0  0  0  0  0  0  0  0
    8.8635   48.9437   56.3860 H   0  0  0  0  0  0  0  0  0  0  0  0
    9.6450   49.3868   54.8305 H   0  0  0  0  0  0  0  0  0  0  0  0
    8.1037   48.4643   54.8305 H   0  0  0  0  0  0  0  0  0  0  0  0
   11.1904   47.2315   53.7745 H   0  0  0  0  0  0  0  0  0  0  0  0
   10.0735   45.8196   53.9553 H   0  0  0  0  0  0  0  0  0  0  0  0
    8.2814   47.8305   53.4718 H   0  0  0  0  0  0  0  0  0  0  0  0
    9.7065   48.3905   52.5068 H   0  0  0  0  0  0  0  0  0  0  0  0
   10.9309   45.8772   51.6312 H   0  0  0  0  0  0  0  0  0  0  0  0
   10.3687   44.1702   49.9066 H   0  0  0  0  0  0  0  0  0  0  0  0
    7.9746   43.9769   47.9144 H   0  0  0  0  0  0  0  0  0  0  0  0
    8.5935   42.7015   49.0339 H   0  0  0  0  0  0  0  0  0  0  0  0
    5.7380   43.6380   48.7850 H   0  0  0  0  0  0  0  0  0  0  0  0
    4.3389   41.3229   48.9198 H   0  0  0  0  0  0  0  0  0  0  0  0
    4.8460   40.2928   50.3088 H   0  0  0  0  0  0  0  0  0  0  0  0
    2.1280   41.6350   50.0982 H   0  0  0  0  0  0  0  0  0  0  0  0
    0.8707   43.1051   51.7031 H   0  0  0  0  0  0  0  0  0  0  0  0
    3.8408   46.0236   55.2045 H   0  0  0  0  0  0  0  0  0  0  0  0
    5.7000   44.7380   53.8393 H   0  0  0  0  0  0  0  0  0  0  0  0
    5.8948   42.9607   51.8296 H   0  0  0  0  0  0  0  0  0  0  0  0
    6.1867   45.2679   50.1793 H   0  0  0  0  0  0  0  0  0  0  0  0
    6.7466   46.9629   51.9191 H   0  0  0  0  0  0  0  0  0  0  0  0
  1  2  1  0
  2  3  1  0
  2  4  1  0
  4  5  1  0
  5  6  1  0
  6  7  2  0
  7  8  1  0
  8  9  2  0
  9 10  1  0
 10 11  1  0
 11 12  1  0
 12 13  2  0
 12 14  1  0
 14 15  1  0
 15 16  2  0
 16 17  1  0
 17 18  2  0
 18 19  1  0
 19 20  1  0
 20 21  2  0
 21 22  1  0
 22 23  2  0
  9 24  1  0
 24 25  2  0
 25  6  1  0
 23 15  1  0
 22 18  1  0
  1 26  1  0
  1 27  1  0
  1 28  1  0
  3 29  1  0
  3 30  1  0
  3 31  1  0
  4 32  1  0
  4 33  1  0
  5 34  1  0
  5 35  1  0
  7 36  1  0
  8 37  1  0
 10 38  1  0
 10 39  1  0
 11 40  1  0
 14 41  1  0
 14 42  1  0
 16 43  1  0
 17 44  1  0
 20 45  1  0
 21 46  1  0
 23 47  1  0
 24 48  1  0
 25 49  1  0
M  END
>  <meeko>  (1) 
{"is_sidechain": [false], "free_energy": -8.614, "intermolecular_energy": -12.139, "internal_energy": -1.025}

$$$$
ligand_45_conformer_3_docked
     RDKit          3D

 49 51  0  0  0  0  0  0  0  0999 V2000
   -1.5920   43.3960   52.6340 C   0  0  0  0  0  0  0  0  0  0  0  0
   -0.3030   42.6920   52.5480 N   0  0  0  0  0  0  0  0  0  0  0  0
    0.3840   43.0690   51.3020 C   0  0  0  0  0  0  0  0  0  0  0  0
    0.5290   43.0000   53.7340 C   0  0  0  0  0  0  0  0  0  0  0  0
    0.2510   44.4160   54.2510 C   0  0  0  0  0  0  0  0  0  0  0  0
    1.4950   45.2660   54.2110 C   0  0  0  0  0  0  0  0  0  0  0  0
    2.3810   45.2710   55.3000 C   0  0  0  0  0  0  0  0  0  0  0  0
    3.5640   46.0130   55.2420 C   0  0  0  0  0  0  0  0  0  0  0  0
    3.8820   46.7550   54.0930 C   0  0  0  0  0  0  0  0  0  0  0  0
    5.1710   47.5310   54.0180 C   0  0  0  0  0  0  0  0  0  0  0  0
    5.8480   47.2940   52.7440 N   0  0  0  0  0  0  0  0  0  0  0  0
    7.1470   46.6930   52.6610 C   0  0  0  0  0  0  0  0  0  0  0  0
    7.7500   46.3310   53.7100 O   0  0  0  0  0  0  0  0  0  0  0  0
    7.8120   46.4950   51.3320 C   0  0  0  0  0  0  0  0  0  0  0  0
    7.3330   45.2180   50.6960 C   0  0  0  0  0  0  0  0  0  0  0  0
    8.1000   44.6000   49.6820 C   0  0  0  0  0  0  0  0  0  0  0  0
    7.6770   43.3940   49.1000 C   0  0  0  0  0  0  0  0  0  0  0  0
    6.4920   42.8260   49.5520 C   0  0  0  0  0  0  0  0  0  0  0  0
    5.7530   41.4080   49.0450 S   0  0  0  0  0  0  0  0  0  0  0  0
    4.4420   41.5260   50.1060 C   0  0  0  0  0  0  0  0  0  0  0  0
    4.5790   42.6850   50.8680 C   0  0  0  0  0  0  0  0  0  0  0  0
    5.7310   43.4100   50.5500 C   0  0  0  0  0  0  0  0  0  0  0  0
    6.1410   44.6090   51.1400 C   0  0  0  0  0  0  0  0  0  0  0  0
    2.9910   46.7560   53.0070 C   0  0  0  0  0  0  0  0  0  0  0  0
    1.8110   46.0090   53.0620 C   0  0  0  0  0  0  0  0  0  0  0  0
   -1.8600   43.5424   53.6907 H   0  0  0  0  0  0  0  0  0  0  0  0
   -1.5093   44.3742   52.1378 H   0  0  0  0  0  0  0  0  0  0  0  0
   -2.3704   42.7977   52.1378 H   0  0  0  0  0  0  0  0  0  0  0  0
    1.3248   43.5853   51.5438 H   0  0  0  0  0  0  0  0  0  0  0  0
    0.6024   42.1644   50.7155 H   0  0  0  0  0  0  0  0  0  0  0  0
   -0.2618   43.7391   50.7155 H   0  0  0  0  0  0  0  0  0  0  0  0
    0.3016   42.2758   54.5302 H   0  0  0  0  0  0  0  0  0  0  0  0
    1.5881   42.9359   53.4438 H   0  0  0  0  0  0  0  0  0  0  0  0
   -0.5221   44.8820   53.6223 H   0  0  0  0  0  0  0  0  0  0  0  0
   -0.0882   44.3448   55.2950 H   0  0  0  0  0  0  0  0  0  0  0  0
    2.1432   44.6887   56.2024 H   0  0  0  0  0  0  0  0  0  0  0  0
    4.2502   46.0158   56.1017 H   0  0  0  0  0  0  0  0  0  0  0  0
    4.9515   48.6045   54.1152 H   0  0  0  0  0  0  0  0  0  0  0  0
    5.8298   47.1987   54.8338 H   0  0  0  0  0  0  0  0  0  0  0  0
    5.3700   47.5950   51.8660 H   0  0  0  0  0  0  0  0  0  0  0  0
    7.5684   47.3422   50.6740 H   0  0  0  0  0  0  0  0  0  0  0  0
    8.9003   46.4356   51.4806 H   0  0  0  0  0  0  0  0  0  0  0  0
    9.0369   45.0681   49.3457 H   0  0  0  0  0  0  0  0  0  0  0  0
    8.2680   42.9118   48.3074 H   0  0  0  0  0  0  0  0  0  0  0  0
    3.6149   40.8049   50.1825 H   0  0  0  0  0  0  0  0  0  0  0  0
    3.8573   42.9961   51.6377 H   0  0  0  0  0  0  0  0  0  0  0  0
    5.5426   45.0709   51.9391 H   0  0  0  0  0  0  0  0  0  0  0  0
    3.2231   47.3475   52.1091 H   0  0  0  0  0  0  0  0  0  0  0  0
    1.1264   46.0030   52.2010 H   0  0  0  0  0  0  0  0  0  0  0  0
  1  2  1  0
  2  3  1  0
  2  4  1  0
  4  5  1  0
  5  6  1  0
  6  7  2  0
  7  8  1  0
  8  9  2  0
  9 10  1  0
 10 11  1  0
 11 12  1  0
 12 13  2  0
 12 14  1  0
 14 15  1  0
 15 16  2  0
 16 17  1  0
 17 18  2  0
 18 19  1  0
 19 20  1  0
 20 21  2  0
 21 22  1  0
 22 23  2  0
  9 24  1  0
 24 25  2  0
 25  6  1  0
 23 15  1  0
 22 18  1  0
  1 26  1  0
  1 27  1  0
  1 28  1  0
  3 29  1  0
  3 30  1  0
  3 31  1  0
  4 32  1  0
  4 33  1  0
  5 34  1  0
  5 35  1  0
  7 36  1  0
  8 37  1  0
 10 38  1  0
 10 39  1  0
 11 40  1  0
 14 41  1  0
 14 42  1  0
 16 43  1  0
 17 44  1  0
 20 45  1  0
 21 46  1  0
 23 47  1  0
 24 48  1  0
 25 49  1  0
M  END
>  <meeko>  (2) 
{"is_sidechain": [false], "free_energy": -7.937, "intermolecular_energy": -11.361, "internal_energy": -0.849}

$$$$
ligand_45_conformer_3_docked
     RDKit          3D

 49 51  0  0  0  0  0  0  0  0999 V2000
    0.4780   47.7110   59.4930 C   0  0  0  0  0  0  0  0  0  0  0  0
   -0.4630   46.9570   58.6490 N   0  0  0  0  0  0  0  0  0  0  0  0
   -1.4700   47.8740   58.0910 C   0  0  0  0  0  0  0  0  0  0  0  0
    0.2690   46.2460   57.5770 C   0  0  0  0  0  0  0  0  0  0  0  0
   -0.6590   45.2960   56.8100 C   0  0  0  0  0  0  0  0  0  0  0  0
    0.0240   44.7320   55.5910 C   0  0  0  0  0  0  0  0  0  0  0  0
   -0.7180   44.0270   54.6290 C   0  0  0  0  0  0  0  0  0  0  0  0
   -0.0980   43.5540   53.4700 C   0  0  0  0  0  0  0  0  0  0  0  0
    1.2710   43.7820   53.2510 C   0  0  0  0  0  0  0  0  0  0  0  0
    1.9330   43.2970   51.9890 C   0  0  0  0  0  0  0  0  0  0  0  0
    2.7060   44.3680   51.3620 N   0  0  0  0  0  0  0  0  0  0  0  0
    4.1340   44.3240   51.2470 C   0  0  0  0  0  0  0  0  0  0  0  0
    4.7780   43.3280   51.6820 O   0  0  0  0  0  0  0  0  0  0  0  0
    4.8840   45.4600   50.6180 C   0  0  0  0  0  0  0  0  0  0  0  0
    5.8820   46.0270   51.5920 C   0  0  0  0  0  0  0  0  0  0  0  0
    5.4390   46.6300   52.7910 C   0  0  0  0  0  0  0  0  0  0  0  0
    6.3630   47.1370   53.7200 C   0  0  0  0  0  0  0  0  0  0  0  0
    7.7170   47.0240   53.4290 C   0  0  0  0  0  0  0  0  0  0  0  0
    9.0280   47.5350   54.3430 S   0  0  0  0  0  0  0  0  0  0  0  0
   10.2000   46.9950   53.2520 C   0  0  0  0  0  0  0  0  0  0  0  0
    9.5660   46.4070   52.1590 C   0  0  0  0  0  0  0  0  0  0  0  0
    8.1720   46.4290   52.2660 C   0  0  0  0  0  0  0  0  0  0  0  0
    7.2650   45.9170   51.3340 C   0  0  0  0  0  0  0  0  0  0  0  0
    2.0140   44.4790   54.2180 C   0  0  0  0  0  0  0  0  0  0  0  0
    1.3930   44.9590   55.3750 C   0  0  0  0  0  0  0  0  0  0  0  0
    0.2483   47.5270   60.5529 H   0  0  0  0  0  0  0  0  0  0  0  0
    1.5061   47.3839   59.2784 H   0  0  0  0  0  0  0  0  0  0  0  0
    0.3829   48.7857   59.2784 H   0  0  0  0  0  0  0  0  0  0  0  0
   -2.0116   48.3672   58.9117 H   0  0  0  0  0  0  0  0  0  0  0  0
   -0.9708   48.6342   57.4722 H   0  0  0  0  0  0  0  0  0  0  0  0
   -2.1802   47.3060   57.4722 H   0  0  0  0  0  0  0  0  0  0  0  0
    0.6859   46.9843   56.8762 H   0  0  0  0  0  0  0  0  0  0  0  0
    1.0727   45.6526   58.0375 H   0  0  0  0  0  0  0  0  0  0  0  0
   -0.9516   44.4680   57.4725 H   0  0  0  0  0  0  0  0  0  0  0  0
   -1.5433   45.8624   56.4826 H   0  0  0  0  0  0  0  0  0  0  0  0
   -1.7913   43.8467   54.7889 H   0  0  0  0  0  0  0  0  0  0  0  0
   -0.6856   42.9992   52.7237 H   0  0  0  0  0  0  0  0  0  0  0  0
    2.6062   42.4621   52.2332 H   0  0  0  0  0  0  0  0  0  0  0  0
    1.1531   42.9681   51.2864 H   0  0  0  0  0  0  0  0  0  0  0  0
    2.1920   45.2030   51.0030 H   0  0  0  0  0  0  0  0  0  0  0  0
    5.4140   45.0956   49.7256 H   0  0  0  0  0  0  0  0  0  0  0  0
    4.1706   46.2482   50.3355 H   0  0  0  0  0  0  0  0  0  0  0  0
    4.3613   46.7030   52.9987 H   0  0  0  0  0  0  0  0  0  0  0  0
    6.0236   47.6108   54.6529 H   0  0  0  0  0  0  0  0  0  0  0  0
   11.2878   47.0919   53.3833 H   0  0  0  0  0  0  0  0  0  0  0  0
   10.1044   45.9723   51.3040 H   0  0  0  0  0  0  0  0  0  0  0  0
    7.6241   45.4352   50.4126 H   0  0  0  0  0  0  0  0  0  0  0  0
    3.0900   44.6481   54.0642 H   0  0  0  0  0  0  0  0  0  0  0  0
    1.9795   45.5171   56.1197 H   0  0  0  0  0  0  0  0  0  0  0  0
  1  2  1  0
  2  3  1  0
  2  4  1  0
  4  5  1  0
  5  6  1  0
  6  7  2  0
  7  8  1  0
  8  9  2  0
  9 10  1  0
 10 11  1  0
 11 12  1  0
 12 13  2  0
 12 14  1  0
 14 15  1  0
 15 16  2  0
 16 17  1  0
 17 18  2  0
 18 19  1  0
 19 20  1  0
 20 21  2  0
 21 22  1  0
 22 23  2  0
  9 24  1  0
 24 25  2  0
 25  6  1  0
 23 15  1  0
 22 18  1  0
  1 26  1  0
  1 27  1  0
  1 28  1  0
  3 29  1  0
  3 30  1  0
  3 31  1  0
  4 32  1  0
  4 33  1  0
  5 34  1  0
  5 35  1  0
  7 36  1  0
  8 37  1  0
 10 38  1  0
 10 39  1  0
 11 40  1  0
 14 41  1  0
 14 42  1  0
 16 43  1  0
 17 44  1  0
 20 45  1  0
 21 46  1  0
 23 47  1  0
 24 48  1  0
 25 49  1  0
M  END
>  <meeko>  (3) 
{"is_sidechain": [false], "free_energy": -7.69, "intermolecular_energy": -11.112, "internal_energy": -0.75}

$$$$
ligand_45_conformer_3_docked
     RDKit          3D

 49 51  0  0  0  0  0  0  0  0999 V2000
    0.1690   47.8620   59.5790 C   0  0  0  0  0  0  0  0  0  0  0  0
   -1.1720   47.5300   59.0720 N   0  0  0  0  0  0  0  0  0  0  0  0
   -2.0020   48.7450   59.0360 C   0  0  0  0  0  0  0  0  0  0  0  0
   -1.0720   46.9090   57.7310 C   0  0  0  0  0  0  0  0  0  0  0  0
    0.3420   46.3770   57.4720 C   0  0  0  0  0  0  0  0  0  0  0  0
    0.3690   45.4570   56.2780 C   0  0  0  0  0  0  0  0  0  0  0  0
    1.5940   45.0810   55.7060 C   0  0  0  0  0  0  0  0  0  0  0  0
    1.6250   44.1830   54.6360 C   0  0  0  0  0  0  0  0  0  0  0  0
    0.4330   43.6420   54.1260 C   0  0  0  0  0  0  0  0  0  0  0  0
    0.4670   42.6520   52.9920 C   0  0  0  0  0  0  0  0  0  0  0  0
    1.8440   42.3420   52.6130 N   0  0  0  0  0  0  0  0  0  0  0  0
    2.5080   42.9900   51.5190 C   0  0  0  0  0  0  0  0  0  0  0  0
    1.9110   43.8770   50.8470 O   0  0  0  0  0  0  0  0  0  0  0  0
    3.9140   42.6190   51.1520 C   0  0  0  0  0  0  0  0  0  0  0  0
    4.8660   43.7060   51.5720 C   0  0  0  0  0  0  0  0  0  0  0  0
    5.7130   44.3140   50.6180 C   0  0  0  0  0  0  0  0  0  0  0  0
    6.5860   45.3480   50.9930 C   0  0  0  0  0  0  0  0  0  0  0  0
    6.5880   45.7580   52.3210 C   0  0  0  0  0  0  0  0  0  0  0  0
    7.5140   46.9550   53.0440 S   0  0  0  0  0  0  0  0  0  0  0  0
    6.8600   46.7500   54.5880 C   0  0  0  0  0  0  0  0  0  0  0  0
    5.9060   45.7350   54.5450 C   0  0  0  0  0  0  0  0  0  0  0  0
    5.7590   45.1830   53.2690 C   0  0  0  0  0  0  0  0  0  0  0  0
    4.8840   44.1540   52.9100 C   0  0  0  0  0  0  0  0  0  0  0  0
   -0.7930   44.0260   54.6940 C   0  0  0  0  0  0  0  0  0  0  0  0
   -0.8240   44.9200   55.7690 C   0  0  0  0  0  0  0  0  0  0  0  0
    0.1563   47.8589   60.6789 H   0  0  0  0  0  0  0  0  0  0  0  0
    0.8924   47.1158   59.2185 H   0  0  0  0  0  0  0  0  0  0  0  0
    0.4607   48.8595   59.2185 H   0  0  0  0  0  0  0  0  0  0  0  0
   -2.2231   49.0686   60.0638 H   0  0  0  0  0  0  0  0  0  0  0  0
   -1.4600   49.5438   58.5086 H   0  0  0  0  0  0  0  0  0  0  0  0
   -2.9432   48.5306   58.5086 H   0  0  0  0  0  0  0  0  0  0  0  0
   -1.7866   46.0752   57.6673 H   0  0  0  0  0  0  0  0  0  0  0  0
   -1.3010   47.6739   56.9744 H   0  0  0  0  0  0  0  0  0  0  0  0
    1.0161   47.2260   57.2859 H   0  0  0  0  0  0  0  0  0  0  0  0
    0.6676   45.8093   58.3561 H   0  0  0  0  0  0  0  0  0  0  0  0
    2.5334   45.4948   56.1015 H   0  0  0  0  0  0  0  0  0  0  0  0
    2.5892   43.8977   54.1900 H   0  0  0  0  0  0  0  0  0  0  0  0
   -0.0373   41.7264   53.3065 H   0  0  0  0  0  0  0  0  0  0  0  0
   -0.0461   43.0927   52.1245 H   0  0  0  0  0  0  0  0  0  0  0  0
    2.3520   41.6060   53.1510 H   0  0  0  0  0  0  0  0  0  0  0  0
    4.1864   41.6817   51.6592 H   0  0  0  0  0  0  0  0  0  0  0  0
    3.9773   42.4887   50.0616 H   0  0  0  0  0  0  0  0  0  0  0  0
    5.6882   43.9742   49.5721 H   0  0  0  0  0  0  0  0  0  0  0  0
    7.2507   45.8210   50.2552 H   0  0  0  0  0  0  0  0  0  0  0  0
    7.1416   47.3247   55.4827 H   0  0  0  0  0  0  0  0  0  0  0  0
    5.3301   45.4035   55.4216 H   0  0  0  0  0  0  0  0  0  0  0  0
    4.2191   43.7000   53.6595 H   0  0  0  0  0  0  0  0  0  0  0  0
   -1.7333   43.6215   54.2913 H   0  0  0  0  0  0  0  0  0  0  0  0
   -1.7874   45.2036   56.2177 H   0  0  0  0  0  0  0  0  0  0  0  0
  1  2  1  0
  2  3  1  0
  2  4  1  0
  4  5  1  0
  5  6  1  0
  6  7  2  0
  7  8  1  0
  8  9  2  0
  9 10  1  0
 10 11  1  0
 11 12  1  0
 12 13  2  0
 12 14  1  0
 14 15  1  0
 15 16  2  0
 16 17  1  0
 17 18  2  0
 18 19  1  0
 19 20  1  0
 20 21  2  0
 21 22  1  0
 22 23  2  0
  9 24  1  0
 24 25  2  0
 25  6  1  0
 23 15  1  0
 22 18  1  0
  1 26  1  0
  1 27  1  0
  1 28  1  0
  3 29  1  0
  3 30  1  0
  3 31  1  0
  4 32  1  0
  4 33  1  0
  5 34  1  0
  5 35  1  0
  7 36  1  0
  8 37  1  0
 10 38  1  0
 10 39  1  0
 11 40  1  0
 14 41  1  0
 14 42  1  0
 16 43  1  0
 17 44  1  0
 20 45  1  0
 21 46  1  0
 23 47  1  0
 24 48  1  0
 25 49  1  0
M  END
>  <meeko>  (4) 
{"is_sidechain": [false], "free_energy": -7.654, "intermolecular_energy": -10.855, "internal_energy": -0.957}

$$$$
ligand_45_conformer_3_docked
     RDKit          3D

 49 51  0  0  0  0  0  0  0  0999 V2000
    2.0270   39.5460   45.4160 C   0  0  0  0  0  0  0  0  0  0  0  0
    2.3790   39.4270   46.8400 N   0  0  0  0  0  0  0  0  0  0  0  0
    2.6880   38.0230   47.1570 C   0  0  0  0  0  0  0  0  0  0  0  0
    3.5220   40.3130   47.1600 C   0  0  0  0  0  0  0  0  0  0  0  0
    3.8110   40.3220   48.6650 C   0  0  0  0  0  0  0  0  0  0  0  0
    4.8670   41.3390   49.0120 C   0  0  0  0  0  0  0  0  0  0  0  0
    5.8560   41.6780   48.0750 C   0  0  0  0  0  0  0  0  0  0  0  0
    6.8010   42.6630   48.3740 C   0  0  0  0  0  0  0  0  0  0  0  0
    6.7680   43.3290   49.6110 C   0  0  0  0  0  0  0  0  0  0  0  0
    7.7690   44.4100   49.9220 C   0  0  0  0  0  0  0  0  0  0  0  0
    7.1910   45.4120   50.8160 N   0  0  0  0  0  0  0  0  0  0  0  0
    7.9960   46.3040   51.5990 C   0  0  0  0  0  0  0  0  0  0  0  0
    9.2560   46.2560   51.5240 O   0  0  0  0  0  0  0  0  0  0  0  0
    7.3560   47.2970   52.5220 C   0  0  0  0  0  0  0  0  0  0  0  0
    6.1740   46.6760   53.2150 C   0  0  0  0  0  0  0  0  0  0  0  0
    6.3610   45.9090   54.3880 C   0  0  0  0  0  0  0  0  0  0  0  0
    5.2620   45.3480   55.0580 C   0  0  0  0  0  0  0  0  0  0  0  0
    3.9910   45.5730   54.5420 C   0  0  0  0  0  0  0  0  0  0  0  0
    2.5150   45.0320   55.1260 S   0  0  0  0  0  0  0  0  0  0  0  0
    1.5890   45.7650   53.9170 C   0  0  0  0  0  0  0  0  0  0  0  0
    2.4380   46.4420   53.0440 C   0  0  0  0  0  0  0  0  0  0  0  0
    3.7850   46.3280   53.4010 C   0  0  0  0  0  0  0  0  0  0  0  0
    4.8690   46.8950   52.7240 C   0  0  0  0  0  0  0  0  0  0  0  0
    5.7840   42.9830   50.5510 C   0  0  0  0  0  0  0  0  0  0  0  0
    4.8340   42.0020   50.2500 C   0  0  0  0  0  0  0  0  0  0  0  0
    0.9887   39.8970   45.3231 H   0  0  0  0  0  0  0  0  0  0  0  0
    2.7023   40.2658   44.9303 H   0  0  0  0  0  0  0  0  0  0  0  0
    2.1270   38.5641   44.9303 H   0  0  0  0  0  0  0  0  0  0  0  0
    2.7170   37.8914   48.2487 H   0  0  0  0  0  0  0  0  0  0  0  0
    1.9118   37.3712   46.7296 H   0  0  0  0  0  0  0  0  0  0  0  0
    3.6661   37.7573   46.7296 H   0  0  0  0  0  0  0  0  0  0  0  0
    4.4142   39.9551   46.6253 H   0  0  0  0  0  0  0  0  0  0  0  0
    3.2677   41.3366   46.8477 H   0  0  0  0  0  0  0  0  0  0  0  0
    2.8854   40.5671   49.2064 H   0  0  0  0  0  0  0  0  0  0  0  0
    4.1783   39.3264   48.9546 H   0  0  0  0  0  0  0  0  0  0  0  0
    5.8871   41.1663   47.1018 H   0  0  0  0  0  0  0  0  0  0  0  0
    7.5758   42.9187   47.6363 H   0  0  0  0  0  0  0  0  0  0  0  0
    8.6479   43.9591   50.4060 H   0  0  0  0  0  0  0  0  0  0  0  0
    8.0595   44.9021   48.9821 H   0  0  0  0  0  0  0  0  0  0  0  0
    6.1520   45.4610   50.8990 H   0  0  0  0  0  0  0  0  0  0  0  0
    8.0905   47.6191   53.2748 H   0  0  0  0  0  0  0  0  0  0  0  0
    7.0141   48.1629   51.9361 H   0  0  0  0  0  0  0  0  0  0  0  0
    7.3768   45.7504   54.7792 H   0  0  0  0  0  0  0  0  0  0  0  0
    5.4031   44.7460   55.9677 H   0  0  0  0  0  0  0  0  0  0  0  0
    0.4933   45.7156   53.8330 H   0  0  0  0  0  0  0  0  0  0  0  0
    2.0861   47.0059   52.1675 H   0  0  0  0  0  0  0  0  0  0  0  0
    4.7071   47.5030   51.8217 H   0  0  0  0  0  0  0  0  0  0  0  0
    5.7603   43.4861   51.5289 H   0  0  0  0  0  0  0  0  0  0  0  0
    4.0571   41.7483   50.9862 H   0  0  0  0  0  0  0  0  0  0  0  0
  1  2  1  0
  2  3  1  0
  2  4  1  0
  4  5  1  0
  5  6  1  0
  6  7  2  0
  7  8  1  0
  8  9  2  0
  9 10  1  0
 10 11  1  0
 11 12  1  0
 12 13  2  0
 12 14  1  0
 14 15  1  0
 15 16  2  0
 16 17  1  0
 17 18  2  0
 18 19  1  0
 19 20  1  0
 20 21  2  0
 21 22  1  0
 22 23  2  0
  9 24  1  0
 24 25  2  0
 25  6  1  0
 23 15  1  0
 22 18  1  0
  1 26  1  0
  1 27  1  0
  1 28  1  0
  3 29  1  0
  3 30  1  0
  3 31  1  0
  4 32  1  0
  4 33  1  0
  5 34  1  0
  5 35  1  0
  7 36  1  0
  8 37  1  0
 10 38  1  0
 10 39  1  0
 11 40  1  0
 14 41  1  0
 14 42  1  0
 16 43  1  0
 17 44  1  0
 20 45  1  0
 21 46  1  0
 23 47  1  0
 24 48  1  0
 25 49  1  0
M  END
>  <meeko>  (5) 
{"is_sidechain": [false], "free_energy": -7.559, "intermolecular_energy": -10.98, "internal_energy": -0.697}

$$$$
