ligand_39_conformer_1_docked
     RDKit          3D

 49 52  0  0  0  0  0  0  0  0999 V2000
   -1.8440   45.3080   51.4870 C   0  0  0  0  0  0  0  0  0  0  0  0
   -1.1730   44.2390   52.2270 N   0  0  0  0  0  0  0  0  0  0  0  0
   -0.6640   43.0680   51.5140 C   0  0  0  0  0  0  0  0  0  0  0  0
   -1.0410   44.3120   53.6560 C   0  0  0  0  0  0  0  0  0  0  0  0
   -2.0960   43.8860   54.4900 C   0  0  0  0  0  0  0  0  0  0  0  0
   -1.9820   43.9680   55.8900 C   0  0  0  0  0  0  0  0  0  0  0  0
   -0.8130   44.4700   56.4790 C   0  0  0  0  0  0  0  0  0  0  0  0
    0.2220   44.8790   55.6430 C   0  0  0  0  0  0  0  0  0  0  0  0
    1.7260   45.4810   56.0820 S   0  0  0  0  0  0  0  0  0  0  0  0
    2.2860   45.6610   54.4950 C   0  0  0  0  0  0  0  0  0  0  0  0
    3.6270   46.1500   54.1330 C   0  0  0  0  0  0  0  0  0  0  0  0
    4.1590   47.0490   54.8370 O   0  0  0  0  0  0  0  0  0  0  0  0
    4.3110   45.6240   52.9790 N   0  0  0  0  0  0  0  0  0  0  0  0
    5.7450   45.8220   52.6660 C   0  0  2  0  0  0  0  0  0  0  0  0
    6.1350   44.9540   51.4530 C   0  0  0  0  0  0  0  0  0  0  0  0
    5.4270   43.7570   51.1980 C   0  0  0  0  0  0  0  0  0  0  0  0
    5.7960   42.9140   50.1460 C   0  0  0  0  0  0  0  0  0  0  0  0
    6.8990   43.2250   49.3510 C   0  0  0  0  0  0  0  0  0  0  0  0
    7.6470   44.3710   49.6200 C   0  0  0  0  0  0  0  0  0  0  0  0
    7.2840   45.2190   50.6710 C   0  0  0  0  0  0  0  0  0  0  0  0
    6.6540   45.4400   53.8490 C   0  0  0  0  0  0  0  0  0  0  0  0
    7.3380   46.7310   54.2780 C   0  0  0  0  0  0  0  0  0  0  0  0
    7.2210   47.6910   53.1830 N   0  0  0  0  0  0  0  0  0  0  0  0
    6.0030   47.3320   52.4600 C   0  0  0  0  0  0  0  0  0  0  0  0
    1.2950   45.2360   53.6060 C   0  0  0  0  0  0  0  0  0  0  0  0
    0.1300   44.8070   54.2590 C   0  0  0  0  0  0  0  0  0  0  0  0
   -2.2910   46.0202   52.1962 H   0  0  0  0  0  0  0  0  0  0  0  0
   -1.1120   45.8313   50.8542 H   0  0  0  0  0  0  0  0  0  0  0  0
   -2.6334   44.8763   50.8542 H   0  0  0  0  0  0  0  0  0  0  0  0
   -0.3348   42.3107   52.2407 H   0  0  0  0  0  0  0  0  0  0  0  0
   -1.4609   42.6482   50.8825 H   0  0  0  0  0  0  0  0  0  0  0  0
    0.1865   43.3643   50.8825 H   0  0  0  0  0  0  0  0  0  0  0  0
   -3.0171   43.4857   54.0413 H   0  0  0  0  0  0  0  0  0  0  0  0
   -2.8155   43.6361   56.5265 H   0  0  0  0  0  0  0  0  0  0  0  0
   -0.7163   44.5388   57.5726 H   0  0  0  0  0  0  0  0  0  0  0  0
    3.7060   45.2240   52.2260 H   0  0  0  0  0  0  0  0  0  0  0  0
    4.5736   43.4853   51.8367 H   0  0  0  0  0  0  0  0  0  0  0  0
    5.2146   42.0022   49.9444 H   0  0  0  0  0  0  0  0  0  0  0  0
    7.1782   42.5681   48.5140 H   0  0  0  0  0  0  0  0  0  0  0  0
    8.5260   44.6088   49.0029 H   0  0  0  0  0  0  0  0  0  0  0  0
    7.8995   46.1033   50.8926 H   0  0  0  0  0  0  0  0  0  0  0  0
    6.0553   45.0303   54.6758 H   0  0  0  0  0  0  0  0  0  0  0  0
    7.3851   44.6683   53.5661 H   0  0  0  0  0  0  0  0  0  0  0  0
    6.8489   47.1309   55.1785 H   0  0  0  0  0  0  0  0  0  0  0  0
    8.3969   46.5431   54.5092 H   0  0  0  0  0  0  0  0  0  0  0  0
    8.0380   47.5510   52.5430 H   0  0  0  0  0  0  0  0  0  0  0  0
    5.1536   47.9114   52.8510 H   0  0  0  0  0  0  0  0  0  0  0  0
    6.1179   47.5547   51.3889 H   0  0  0  0  0  0  0  0  0  0  0  0
    1.4155   45.2377   52.5126 H   0  0  0  0  0  0  0  0  0  0  0  0
  1  2  1  0
  2  3  1  0
  2  4  1  0
  4  5  2  0
  5  6  1  0
  6  7  2  0
  7  8  1  0
  8  9  1  0
  9 10  1  0
 10 11  1  0
 11 12  2  0
 11 13  1  0
 14 13  1  1
 14 15  1  0
 15 16  2  0
 16 17  1  0
 17 18  2  0
 18 19  1  0
 19 20  2  0
 14 21  1  0
 21 22  1  0
 22 23  1  0
 23 24  1  0
 10 25  2  0
 25 26  1  0
 26  4  1  0
 26  8  2  0
 24 14  1  0
 20 15  1  0
  1 27  1  0
  1 28  1  0
  1 29  1  0
  3 30  1  0
  3 31  1  0
  3 32  1  0
  5 33  1  0
  6 34  1  0
  7 35  1  0
 13 36  1  0
 16 37  1  0
 17 38  1  0
 18 39  1  0
 19 40  1  0
 20 41  1  0
 21 42  1  0
 21 43  1  0
 22 44  1  0
 22 45  1  0
 23 46  1  0
 24 47  1  0
 24 48  1  0
 25 49  1  0
M  END
>  <meeko>  (1) 
{"is_sidechain": [false], "free_energy": -8.367, "intermolecular_energy": -10.323, "internal_energy": -0.269}

$$$$
ligand_39_conformer_1_docked
     RDKit          3D

 49 52  0  0  0  0  0  0  0  0999 V2000
    7.4530   45.3680   49.9880 C   0  0  0  0  0  0  0  0  0  0  0  0
    8.6620   45.3710   50.8110 N   0  0  0  0  0  0  0  0  0  0  0  0
    9.8360   44.6120   50.3840 C   0  0  0  0  0  0  0  0  0  0  0  0
    8.6950   46.0870   52.0570 C   0  0  0  0  0  0  0  0  0  0  0  0
    9.9180   46.5720   52.5650 C   0  0  0  0  0  0  0  0  0  0  0  0
    9.9630   47.2610   53.7910 C   0  0  0  0  0  0  0  0  0  0  0  0
    8.7890   47.4800   54.5260 C   0  0  0  0  0  0  0  0  0  0  0  0
    7.5900   47.0020   54.0080 C   0  0  0  0  0  0  0  0  0  0  0  0
    6.0510   47.1550   54.6600 S   0  0  0  0  0  0  0  0  0  0  0  0
    5.2700   46.3430   53.3970 C   0  0  0  0  0  0  0  0  0  0  0  0
    3.8160   46.1290   53.3140 C   0  0  0  0  0  0  0  0  0  0  0  0
    3.0620   47.1240   53.1410 O   0  0  0  0  0  0  0  0  0  0  0  0
    3.2600   44.8060   53.4510 N   0  0  0  0  0  0  0  0  0  0  0  0
    1.8700   44.4200   53.1210 C   0  0  2  0  0  0  0  0  0  0  0  0
    0.9600   44.6680   54.3420 C   0  0  0  0  0  0  0  0  0  0  0  0
    1.5440   44.9590   55.5960 C   0  0  0  0  0  0  0  0  0  0  0  0
    0.7520   45.1240   56.7360 C   0  0  0  0  0  0  0  0  0  0  0  0
   -0.6310   44.9660   56.6580 C   0  0  0  0  0  0  0  0  0  0  0  0
   -1.2230   44.6230   55.4440 C   0  0  0  0  0  0  0  0  0  0  0  0
   -0.4380   44.4560   54.2990 C   0  0  0  0  0  0  0  0  0  0  0  0
    1.7590   42.9350   52.7270 C   0  0  0  0  0  0  0  0  0  0  0  0
    1.3140   42.9280   51.2710 C   0  0  0  0  0  0  0  0  0  0  0  0
    0.7590   44.2430   50.9590 N   0  0  0  0  0  0  0  0  0  0  0  0
    1.4300   45.1850   51.8520 C   0  0  0  0  0  0  0  0  0  0  0  0
    6.2170   45.9550   52.4440 C   0  0  0  0  0  0  0  0  0  0  0  0
    7.5230   46.3200   52.8000 C   0  0  0  0  0  0  0  0  0  0  0  0
    6.5663   45.3658   50.6390 H   0  0  0  0  0  0  0  0  0  0  0  0
    7.4395   46.2661   49.3530 H   0  0  0  0  0  0  0  0  0  0  0  0
    7.4439   44.4698   49.3530 H   0  0  0  0  0  0  0  0  0  0  0  0
   10.3849   44.2571   51.2687 H   0  0  0  0  0  0  0  0  0  0  0  0
    9.5157   43.7496   49.7810 H   0  0  0  0  0  0  0  0  0  0  0  0
   10.4909   45.2581   49.7810 H   0  0  0  0  0  0  0  0  0  0  0  0
   10.8460   46.4100   51.9971 H   0  0  0  0  0  0  0  0  0  0  0  0
   10.9253   47.6302   54.1754 H   0  0  0  0  0  0  0  0  0  0  0  0
    8.8157   48.0155   55.4865 H   0  0  0  0  0  0  0  0  0  0  0  0
    3.8360   44.1180   53.9880 H   0  0  0  0  0  0  0  0  0  0  0  0
    2.6367   45.0570   55.6758 H   0  0  0  0  0  0  0  0  0  0  0  0
    1.2214   45.3793   57.6975 H   0  0  0  0  0  0  0  0  0  0  0  0
   -1.2537   45.1118   57.5530 H   0  0  0  0  0  0  0  0  0  0  0  0
   -2.3125   44.4830   55.3862 H   0  0  0  0  0  0  0  0  0  0  0  0
   -0.9133   44.1562   53.3534 H   0  0  0  0  0  0  0  0  0  0  0  0
    2.7337   42.4361   52.8327 H   0  0  0  0  0  0  0  0  0  0  0  0
    1.0492   42.3956   53.3714 H   0  0  0  0  0  0  0  0  0  0  0  0
    2.1758   42.7229   50.6189 H   0  0  0  0  0  0  0  0  0  0  0  0
    0.5570   42.1467   51.1079 H   0  0  0  0  0  0  0  0  0  0  0  0
   -0.2590   44.2290   51.1990 H   0  0  0  0  0  0  0  0  0  0  0  0
    2.3113   45.6106   51.3498 H   0  0  0  0  0  0  0  0  0  0  0  0
    0.7476   46.0048   52.1207 H   0  0  0  0  0  0  0  0  0  0  0  0
    5.9646   45.4214   51.5158 H   0  0  0  0  0  0  0  0  0  0  0  0
  1  2  1  0
  2  3  1  0
  2  4  1  0
  4  5  2  0
  5  6  1  0
  6  7  2  0
  7  8  1  0
  8  9  1  0
  9 10  1  0
 10 11  1  0
 11 12  2  0
 11 13  1  0
 14 13  1  1
 14 15  1  0
 15 16  2  0
 16 17  1  0
 17 18  2  0
 18 19  1  0
 19 20  2  0
 14 21  1  0
 21 22  1  0
 22 23  1  0
 23 24  1  0
 10 25  2  0
 25 26  1  0
 26  4  1  0
 26  8  2  0
 24 14  1  0
 20 15  1  0
  1 27  1  0
  1 28  1  0
  1 29  1  0
  3 30  1  0
  3 31  1  0
  3 32  1  0
  5 33  1  0
  6 34  1  0
  7 35  1  0
 13 36  1  0
 16 37  1  0
 17 38  1  0
 18 39  1  0
 19 40  1  0
 20 41  1  0
 21 42  1  0
 21 43  1  0
 22 44  1  0
 22 45  1  0
 23 46  1  0
 24 47  1  0
 24 48  1  0
 25 49  1  0
M  END
>  <meeko>  (2) 
{"is_sidechain": [false], "free_energy": -8.26, "intermolecular_energy": -11.123, "internal_energy": 0.662}

$$$$
ligand_39_conformer_1_docked
     RDKit          3D

 49 52  0  0  0  0  0  0  0  0999 V2000
    0.8110   45.0360   57.1870 C   0  0  0  0  0  0  0  0  0  0  0  0
   -0.3740   45.6150   56.5530 N   0  0  0  0  0  0  0  0  0  0  0  0
   -1.0300   46.7740   57.1570 C   0  0  0  0  0  0  0  0  0  0  0  0
   -0.9210   45.0330   55.3590 C   0  0  0  0  0  0  0  0  0  0  0  0
   -2.2490   44.5590   55.3440 C   0  0  0  0  0  0  0  0  0  0  0  0
   -2.7890   43.9730   54.1840 C   0  0  0  0  0  0  0  0  0  0  0  0
   -2.0150   43.8570   53.0210 C   0  0  0  0  0  0  0  0  0  0  0  0
   -0.7090   44.3360   53.0490 C   0  0  0  0  0  0  0  0  0  0  0  0
    0.4110   44.3510   51.8000 S   0  0  0  0  0  0  0  0  0  0  0  0
    1.6300   45.1060   52.6990 C   0  0  0  0  0  0  0  0  0  0  0  0
    2.9560   45.4660   52.1710 C   0  0  0  0  0  0  0  0  0  0  0  0
    3.0280   46.1430   51.1110 O   0  0  0  0  0  0  0  0  0  0  0  0
    4.1550   45.0320   52.8420 N   0  0  0  0  0  0  0  0  0  0  0  0
    5.5200   45.5430   52.5800 C   0  0  2  0  0  0  0  0  0  0  0  0
    6.1160   44.8210   51.3540 C   0  0  0  0  0  0  0  0  0  0  0  0
    5.5660   43.5870   50.9380 C   0  0  0  0  0  0  0  0  0  0  0  0
    6.1220   42.8750   49.8710 C   0  0  0  0  0  0  0  0  0  0  0  0
    7.2580   43.3580   49.2220 C   0  0  0  0  0  0  0  0  0  0  0  0
    7.8520   44.5450   49.6520 C   0  0  0  0  0  0  0  0  0  0  0  0
    7.3010   45.2620   50.7180 C   0  0  0  0  0  0  0  0  0  0  0  0
    6.4620   45.3210   53.7780 C   0  0  0  0  0  0  0  0  0  0  0  0
    6.8430   46.7110   54.2650 C   0  0  0  0  0  0  0  0  0  0  0  0
    6.5490   47.6630   53.1970 N   0  0  0  0  0  0  0  0  0  0  0  0
    5.4540   47.0790   52.4270 C   0  0  0  0  0  0  0  0  0  0  0  0
    1.1580   45.3630   53.9890 C   0  0  0  0  0  0  0  0  0  0  0  0
   -0.1560   44.9170   54.1830 C   0  0  0  0  0  0  0  0  0  0  0  0
    0.7042   45.0882   58.2806 H   0  0  0  0  0  0  0  0  0  0  0  0
    0.9155   43.9853   56.8785 H   0  0  0  0  0  0  0  0  0  0  0  0
    1.7041   45.5993   56.8785 H   0  0  0  0  0  0  0  0  0  0  0  0
   -0.9835   46.6918   58.2529 H   0  0  0  0  0  0  0  0  0  0  0  0
   -0.5184   47.6934   56.8362 H   0  0  0  0  0  0  0  0  0  0  0  0
   -2.0816   46.8086   56.8362 H   0  0  0  0  0  0  0  0  0  0  0  0
   -2.8691   44.6482   56.2481 H   0  0  0  0  0  0  0  0  0  0  0  0
   -3.8251   43.6036   54.1900 H   0  0  0  0  0  0  0  0  0  0  0  0
   -2.4292   43.3994   52.1105 H   0  0  0  0  0  0  0  0  0  0  0  0
    4.0690   44.1710   53.4290 H   0  0  0  0  0  0  0  0  0  0  0  0
    4.6878   43.1811   51.4614 H   0  0  0  0  0  0  0  0  0  0  0  0
    5.6622   41.9313   49.5425 H   0  0  0  0  0  0  0  0  0  0  0  0
    7.6849   42.8042   48.3728 H   0  0  0  0  0  0  0  0  0  0  0  0
    8.7571   44.9179   49.1504 H   0  0  0  0  0  0  0  0  0  0  0  0
    7.7948   46.1809   51.0671 H   0  0  0  0  0  0  0  0  0  0  0  0
    5.9458   44.7639   54.5737 H   0  0  0  0  0  0  0  0  0  0  0  0
    7.3475   44.7331   53.4948 H   0  0  0  0  0  0  0  0  0  0  0  0
    6.2589   46.9649   55.1619 H   0  0  0  0  0  0  0  0  0  0  0  0
    7.9121   46.7448   54.5217 H   0  0  0  0  0  0  0  0  0  0  0  0
    7.3920   47.7240   52.5790 H   0  0  0  0  0  0  0  0  0  0  0  0
    4.4914   47.4500   52.8087 H   0  0  0  0  0  0  0  0  0  0  0  0
    5.5440   47.3589   51.3670 H   0  0  0  0  0  0  0  0  0  0  0  0
    1.7537   45.8615   54.7679 H   0  0  0  0  0  0  0  0  0  0  0  0
  1  2  1  0
  2  3  1  0
  2  4  1  0
  4  5  2  0
  5  6  1  0
  6  7  2  0
  7  8  1  0
  8  9  1  0
  9 10  1  0
 10 11  1  0
 11 12  2  0
 11 13  1  0
 14 13  1  1
 14 15  1  0
 15 16  2  0
 16 17  1  0
 17 18  2  0
 18 19  1  0
 19 20  2  0
 14 21  1  0
 21 22  1  0
 22 23  1  0
 23 24  1  0
 10 25  2  0
 25 26  1  0
 26  4  1  0
 26  8  2  0
 24 14  1  0
 20 15  1  0
  1 27  1  0
  1 28  1  0
  1 29  1  0
  3 30  1  0
  3 31  1  0
  3 32  1  0
  5 33  1  0
  6 34  1  0
  7 35  1  0
 13 36  1  0
 16 37  1  0
 17 38  1  0
 18 39  1  0
 19 40  1  0
 20 41  1  0
 21 42  1  0
 21 43  1  0
 22 44  1  0
 22 45  1  0
 23 46  1  0
 24 47  1  0
 24 48  1  0
 25 49  1  0
M  END
>  <meeko>  (3) 
{"is_sidechain": [false], "free_energy": -8.119, "intermolecular_energy": -10.325, "internal_energy": 0.039}

$$$$
ligand_39_conformer_1_docked
     RDKit          3D

 49 52  0  0  0  0  0  0  0  0999 V2000
    5.4260   41.1810   50.0650 C   0  0  0  0  0  0  0  0  0  0  0  0
    5.9620   42.2090   49.1720 N   0  0  0  0  0  0  0  0  0  0  0  0
    5.9400   42.0010   47.7260 C   0  0  0  0  0  0  0  0  0  0  0  0
    6.5440   43.4090   49.7070 C   0  0  0  0  0  0  0  0  0  0  0  0
    7.8640   43.7710   49.3690 C   0  0  0  0  0  0  0  0  0  0  0  0
    8.4480   44.9360   49.9000 C   0  0  0  0  0  0  0  0  0  0  0  0
    7.7220   45.7600   50.7710 C   0  0  0  0  0  0  0  0  0  0  0  0
    6.4180   45.3940   51.0900 C   0  0  0  0  0  0  0  0  0  0  0  0
    5.3290   46.2080   52.0720 S   0  0  0  0  0  0  0  0  0  0  0  0
    4.0700   45.0990   51.8560 C   0  0  0  0  0  0  0  0  0  0  0  0
    2.7310   45.2280   52.4540 C   0  0  0  0  0  0  0  0  0  0  0  0
    2.1620   46.3520   52.4410 O   0  0  0  0  0  0  0  0  0  0  0  0
    2.0870   44.0910   53.0640 N   0  0  0  0  0  0  0  0  0  0  0  0
    0.6590   44.0160   53.4480 C   0  0  2  0  0  0  0  0  0  0  0  0
    0.4660   44.6440   54.8430 C   0  0  0  0  0  0  0  0  0  0  0  0
   -0.8380   44.9620   55.2880 C   0  0  0  0  0  0  0  0  0  0  0  0
   -1.0450   45.5910   56.5190 C   0  0  0  0  0  0  0  0  0  0  0  0
    0.0430   45.9500   57.3140 C   0  0  0  0  0  0  0  0  0  0  0  0
    1.3410   45.6990   56.8700 C   0  0  0  0  0  0  0  0  0  0  0  0
    1.5550   45.0700   55.6400 C   0  0  0  0  0  0  0  0  0  0  0  0
    0.1480   42.5640   53.4950 C   0  0  0  0  0  0  0  0  0  0  0  0
   -0.9120   42.4660   52.4070 C   0  0  0  0  0  0  0  0  0  0  0  0
   -1.3330   43.8220   52.0600 N   0  0  0  0  0  0  0  0  0  0  0  0
   -0.1880   44.6840   52.3420 C   0  0  0  0  0  0  0  0  0  0  0  0
    4.4950   44.0820   50.9970 C   0  0  0  0  0  0  0  0  0  0  0  0
    5.8230   44.2480   50.5780 C   0  0  0  0  0  0  0  0  0  0  0  0
    5.5843   41.4846   51.1104 H   0  0  0  0  0  0  0  0  0  0  0  0
    4.3490   41.0581   49.8779 H   0  0  0  0  0  0  0  0  0  0  0  0
    5.9418   40.2276   49.8779 H   0  0  0  0  0  0  0  0  0  0  0  0
    5.8265   40.9281   47.5116 H   0  0  0  0  0  0  0  0  0  0  0  0
    5.0953   42.5536   47.2889 H   0  0  0  0  0  0  0  0  0  0  0  0
    6.8816   42.3647   47.2889 H   0  0  0  0  0  0  0  0  0  0  0  0
    8.4436   43.1360   48.6829 H   0  0  0  0  0  0  0  0  0  0  0  0
    9.4807   45.2017   49.6299 H   0  0  0  0  0  0  0  0  0  0  0  0
    8.1713   46.6719   51.1913 H   0  0  0  0  0  0  0  0  0  0  0  0
    2.7200   43.3380   53.4170 H   0  0  0  0  0  0  0  0  0  0  0  0
   -1.7025   44.7106   54.6559 H   0  0  0  0  0  0  0  0  0  0  0  0
   -2.0686   45.8033   56.8614 H   0  0  0  0  0  0  0  0  0  0  0  0
   -0.1223   46.4304   58.2897 H   0  0  0  0  0  0  0  0  0  0  0  0
    2.1995   45.9970   57.4898 H   0  0  0  0  0  0  0  0  0  0  0  0
    2.5835   44.9040   55.2870 H   0  0  0  0  0  0  0  0  0  0  0  0
    0.9701   41.8612   53.2942 H   0  0  0  0  0  0  0  0  0  0  0  0
   -0.2600   42.3086   54.4841 H   0  0  0  0  0  0  0  0  0  0  0  0
   -0.4919   41.9678   51.5209 H   0  0  0  0  0  0  0  0  0  0  0  0
   -1.7715   41.8796   52.7639 H   0  0  0  0  0  0  0  0  0  0  0  0
   -2.1150   44.0900   52.7020 H   0  0  0  0  0  0  0  0  0  0  0  0
    0.4181   44.8074   51.4323 H   0  0  0  0  0  0  0  0  0  0  0  0
   -0.5313   45.6752   52.6731 H   0  0  0  0  0  0  0  0  0  0  0  0
    3.8572   43.2424   50.6835 H   0  0  0  0  0  0  0  0  0  0  0  0
  1  2  1  0
  2  3  1  0
  2  4  1  0
  4  5  2  0
  5  6  1  0
  6  7  2  0
  7  8  1  0
  8  9  1  0
  9 10  1  0
 10 11  1  0
 11 12  2  0
 11 13  1  0
 14 13  1  6
 14 15  1  0
 15 16  2  0
 16 17  1  0
 17 18  2  0
 18 19  1  0
 19 20  2  0
 14 21  1  0
 21 22  1  0
 22 23  1  0
 23 24  1  0
 10 25  2  0
 25 26  1  0
 26  4  1  0
 26  8  2  0
 24 14  1  0
 20 15  1  0
  1 27  1  0
  1 28  1  0
  1 29  1  0
  3 30  1  0
  3 31  1  0
  3 32  1  0
  5 33  1  0
  6 34  1  0
  7 35  1  0
 13 36  1  0
 16 37  1  0
 17 38  1  0
 18 39  1  0
 19 40  1  0
 20 41  1  0
 21 42  1  0
 21 43  1  0
 22 44  1  0
 22 45  1  0
 23 46  1  0
 24 47  1  0
 24 48  1  0
 25 49  1  0
M  END
>  <meeko>  (4) 
{"is_sidechain": [false], "free_energy": -7.687, "intermolecular_energy": -9.928, "internal_energy": 0.176}

$$$$
ligand_39_conformer_1_docked
     RDKit          3D

 49 52  0  0  0  0  0  0  0  0999 V2000
    8.6090   46.9340   53.8340 C   0  0  0  0  0  0  0  0  0  0  0  0
    8.2190   47.1980   52.4490 N   0  0  0  0  0  0  0  0  0  0  0  0
    8.0610   48.5770   51.9870 C   0  0  0  0  0  0  0  0  0  0  0  0
    7.9540   46.1130   51.5450 C   0  0  0  0  0  0  0  0  0  0  0  0
    8.9900   45.5830   50.7490 C   0  0  0  0  0  0  0  0  0  0  0  0
    8.7370   44.5310   49.8500 C   0  0  0  0  0  0  0  0  0  0  0  0
    7.4490   43.9880   49.7360 C   0  0  0  0  0  0  0  0  0  0  0  0
    6.4390   44.5160   50.5340 C   0  0  0  0  0  0  0  0  0  0  0  0
    4.8340   44.0360   50.6200 S   0  0  0  0  0  0  0  0  0  0  0  0
    4.4030   45.1590   51.8090 C   0  0  0  0  0  0  0  0  0  0  0  0
    3.0600   45.2740   52.4020 C   0  0  0  0  0  0  0  0  0  0  0  0
    2.4530   46.3760   52.3280 O   0  0  0  0  0  0  0  0  0  0  0  0
    2.4560   44.1510   53.0740 N   0  0  0  0  0  0  0  0  0  0  0  0
    1.0320   44.0480   53.4660 C   0  0  2  0  0  0  0  0  0  0  0  0
    0.8090   44.7810   54.8040 C   0  0  0  0  0  0  0  0  0  0  0  0
    1.9250   45.1690   55.5790 C   0  0  0  0  0  0  0  0  0  0  0  0
    1.7580   45.7770   56.8270 C   0  0  0  0  0  0  0  0  0  0  0  0
    0.4780   45.9760   57.3440 C   0  0  0  0  0  0  0  0  0  0  0  0
   -0.6360   45.5490   56.6220 C   0  0  0  0  0  0  0  0  0  0  0  0
   -0.4770   44.9400   55.3740 C   0  0  0  0  0  0  0  0  0  0  0  0
    0.5820   42.5840   53.6330 C   0  0  0  0  0  0  0  0  0  0  0  0
   -0.4700   42.3510   52.5580 C   0  0  0  0  0  0  0  0  0  0  0  0
   -0.9470   43.6540   52.1010 N   0  0  0  0  0  0  0  0  0  0  0  0
    0.1590   44.5840   52.3080 C   0  0  0  0  0  0  0  0  0  0  0  0
    5.5260   45.9150   52.1580 C   0  0  0  0  0  0  0  0  0  0  0  0
    6.6670   45.5550   51.4270 C   0  0  0  0  0  0  0  0  0  0  0  0
    7.8937   47.4182   54.5150 H   0  0  0  0  0  0  0  0  0  0  0  0
    8.6098   45.8489   54.0142 H   0  0  0  0  0  0  0  0  0  0  0  0
    9.6168   47.3364   54.0142 H   0  0  0  0  0  0  0  0  0  0  0  0
    7.9841   49.2480   52.8552 H   0  0  0  0  0  0  0  0  0  0  0  0
    8.9323   48.8622   51.3792 H   0  0  0  0  0  0  0  0  0  0  0  0
    7.1477   48.6577   51.3792 H   0  0  0  0  0  0  0  0  0  0  0  0
   10.0061   45.9962   50.8317 H   0  0  0  0  0  0  0  0  0  0  0  0
    9.5549   44.1316   49.2323 H   0  0  0  0  0  0  0  0  0  0  0  0
    7.2428   43.1664   49.0343 H   0  0  0  0  0  0  0  0  0  0  0  0
    3.1160   43.4410   53.4670 H   0  0  0  0  0  0  0  0  0  0  0  0
    2.9401   44.9901   55.1949 H   0  0  0  0  0  0  0  0  0  0  0  0
    2.6383   46.0992   57.4025 H   0  0  0  0  0  0  0  0  0  0  0  0
    0.3476   46.4686   58.3189 H   0  0  0  0  0  0  0  0  0  0  0  0
   -1.6448   45.6921   57.0366 H   0  0  0  0  0  0  0  0  0  0  0  0
   -1.3616   44.5800   54.8283 H   0  0  0  0  0  0  0  0  0  0  0  0
    1.4335   41.9024   53.4904 H   0  0  0  0  0  0  0  0  0  0  0  0
    0.1821   42.3947   54.6401 H   0  0  0  0  0  0  0  0  0  0  0  0
   -0.0268   41.7996   51.7157 H   0  0  0  0  0  0  0  0  0  0  0  0
   -1.3046   41.7598   52.9628 H   0  0  0  0  0  0  0  0  0  0  0  0
   -1.7410   43.9410   52.7190 H   0  0  0  0  0  0  0  0  0  0  0  0
    0.7613   44.6561   51.3904 H   0  0  0  0  0  0  0  0  0  0  0  0
   -0.2271   45.5839   52.5552 H   0  0  0  0  0  0  0  0  0  0  0  0
    5.5156   46.7058   52.9225 H   0  0  0  0  0  0  0  0  0  0  0  0
  1  2  1  0
  2  3  1  0
  2  4  1  0
  4  5  2  0
  5  6  1  0
  6  7  2  0
  7  8  1  0
  8  9  1  0
  9 10  1  0
 10 11  1  0
 11 12  2  0
 11 13  1  0
 14 13  1  6
 14 15  1  0
 15 16  2  0
 16 17  1  0
 17 18  2  0
 18 19  1  0
 19 20  2  0
 14 21  1  0
 21 22  1  0
 22 23  1  0
 23 24  1  0
 10 25  2  0
 25 26  1  0
 26  4  1  0
 26  8  2  0
 24 14  1  0
 20 15  1  0
  1 27  1  0
  1 28  1  0
  1 29  1  0
  3 30  1  0
  3 31  1  0
  3 32  1  0
  5 33  1  0
  6 34  1  0
  7 35  1  0
 13 36  1  0
 16 37  1  0
 17 38  1  0
 18 39  1  0
 19 40  1  0
 20 41  1  0
 21 42  1  0
 21 43  1  0
 22 44  1  0
 22 45  1  0
 23 46  1  0
 24 47  1  0
 24 48  1  0
 25 49  1  0
M  END
>  <meeko>  (5) 
{"is_sidechain": [false], "free_energy": -7.467, "intermolecular_energy": -9.327, "internal_energy": -0.155}

$$$$
