MODEL 1
REMARK VINA RESULT:    -9.101      0.000      0.000
REMARK INTER + INTRA:         -12.042
REMARK INTER:                 -11.229
REMARK INTRA:                  -0.813
REMARK UNBOUND:                -0.813
REMARK SMILES O=C1C[C@H](Nc2nccc(Oc3ccccc3)n2)[C@H]2CCCCN12
REMARK SMILES IDX 6 1 7 2 8 3 9 4 10 5 18 6 5 7 4 9 1 10 2 11 3 12 24 13 23 14
REMARK SMILES IDX 19 15 22 16 20 17 21 18 11 19 12 20 13 21 17 22 14 23 16 24
REMARK SMILES IDX 15 25
REMARK H PARENT 5 8
ROOT
ATOM      1  C   UNL     1       5.742  43.270  50.441  1.00  0.00     0.226 A 
ATOM      2  N   UNL     1       6.483  42.583  49.530  1.00  0.00    -0.221 NA
ATOM      3  C   UNL     1       7.623  43.109  49.012  1.00  0.00     0.121 A 
ATOM      4  C   UNL     1       8.046  44.377  49.408  1.00  0.00     0.089 A 
ATOM      5  C   UNL     1       7.287  45.070  50.350  1.00  0.00     0.224 A 
ATOM      6  N   UNL     1       6.153  44.504  50.846  1.00  0.00    -0.177 NA
ENDROOT
BRANCH   1   7
ATOM      7  N   UNL     1       4.521  42.695  50.934  1.00  0.00    -0.349 N 
ATOM      8  H   UNL     1       4.464  41.652  50.982  1.00  0.00     0.164 HD
BRANCH   7   9
ATOM      9  C   UNL     1       3.332  43.453  51.348  1.00  0.00     0.114 C 
ATOM     10  O   UNL     1      -0.055  42.644  52.134  1.00  0.00    -0.275 OA
ATOM     11  C   UNL     1       1.181  42.887  52.125  1.00  0.00     0.225 C 
ATOM     12  C   UNL     1       2.024  42.763  50.920  1.00  0.00     0.127 C 
ATOM     13  N   UNL     1       1.883  43.354  53.265  1.00  0.00    -0.338 N 
ATOM     14  C   UNL     1       1.235  44.031  54.387  1.00  0.00     0.120 C 
ATOM     15  C   UNL     1       3.261  43.661  52.891  1.00  0.00     0.108 C 
ATOM     16  C   UNL     1       1.263  45.557  54.177  1.00  0.00     0.022 C 
ATOM     17  C   UNL     1       3.634  45.099  53.326  1.00  0.00     0.027 C 
ATOM     18  C   UNL     1       2.415  46.032  53.262  1.00  0.00     0.004 C 
ENDBRANCH   7   9
ENDBRANCH   1   7
BRANCH   5  19
ATOM     19  O   UNL     1       7.677  46.358  50.733  1.00  0.00    -0.439 OA
BRANCH  19  20
ATOM     20  C   UNL     1       8.267  46.677  51.962  1.00  0.00     0.129 A 
ATOM     21  C   UNL     1       9.658  46.579  52.091  1.00  0.00     0.047 A 
ATOM     22  C   UNL     1       7.496  47.045  53.079  1.00  0.00     0.047 A 
ATOM     23  C   UNL     1      10.278  46.874  53.309  1.00  0.00     0.004 A 
ATOM     24  C   UNL     1       8.116  47.326  54.300  1.00  0.00     0.004 A 
ATOM     25  C   UNL     1       9.507  47.249  54.413  1.00  0.00     0.000 A 
ENDBRANCH  19  20
ENDBRANCH   5  19
TORSDOF 4
ENDMDL
MODEL 2
REMARK VINA RESULT:    -8.737      2.194      4.435
REMARK INTER + INTRA:         -11.593
REMARK INTER:                 -11.095
REMARK INTRA:                  -0.498
REMARK UNBOUND:                -0.813
REMARK SMILES O=C1C[C@H](Nc2nccc(Oc3ccccc3)n2)[C@H]2CCCCN12
REMARK SMILES IDX 6 1 7 2 8 3 9 4 10 5 18 6 5 7 4 9 1 10 2 11 3 12 24 13 23 14
REMARK SMILES IDX 19 15 22 16 20 17 21 18 11 19 12 20 13 21 17 22 14 23 16 24
REMARK SMILES IDX 15 25
REMARK H PARENT 5 8
ROOT
ATOM      1  C   UNL     1       6.532  47.101  54.089  1.00  0.00     0.226 A 
ATOM      2  N   UNL     1       7.513  47.569  54.907  1.00  0.00    -0.221 NA
ATOM      3  C   UNL     1       8.795  47.681  54.473  1.00  0.00     0.121 A 
ATOM      4  C   UNL     1       9.125  47.304  53.173  1.00  0.00     0.089 A 
ATOM      5  C   UNL     1       8.111  46.835  52.337  1.00  0.00     0.224 A 
ATOM      6  N   UNL     1       6.839  46.743  52.811  1.00  0.00    -0.177 NA
ENDROOT
BRANCH   1   7
ATOM      7  N   UNL     1       5.196  46.961  54.598  1.00  0.00    -0.349 N 
ATOM      8  H   UNL     1       4.896  47.619  55.354  1.00  0.00     0.164 HD
BRANCH   7   9
ATOM      9  C   UNL     1       4.225  45.947  54.166  1.00  0.00     0.114 C 
ATOM     10  O   UNL     1       1.173  44.628  55.468  1.00  0.00    -0.275 OA
ATOM     11  C   UNL     1       2.084  45.274  54.886  1.00  0.00     0.225 C 
ATOM     12  C   UNL     1       3.483  45.307  55.355  1.00  0.00     0.127 C 
ATOM     13  N   UNL     1       1.868  46.001  53.687  1.00  0.00    -0.338 N 
ATOM     14  C   UNL     1       0.766  45.725  52.768  1.00  0.00     0.120 C 
ATOM     15  C   UNL     1       3.143  46.524  53.204  1.00  0.00     0.108 C 
ATOM     16  C   UNL     1       1.218  44.735  51.676  1.00  0.00     0.022 C 
ATOM     17  C   UNL     1       3.370  46.121  51.727  1.00  0.00     0.027 C 
ATOM     18  C   UNL     1       2.742  44.752  51.422  1.00  0.00     0.004 C 
ENDBRANCH   7   9
ENDBRANCH   1   7
BRANCH   5  19
ATOM     19  O   UNL     1       8.430  46.419  51.039  1.00  0.00    -0.439 OA
BRANCH  19  20
ATOM     20  C   UNL     1       7.908  45.276  50.421  1.00  0.00     0.129 A 
ATOM     21  C   UNL     1       8.726  44.544  49.551  1.00  0.00     0.047 A 
ATOM     22  C   UNL     1       6.574  44.875  50.615  1.00  0.00     0.047 A 
ATOM     23  C   UNL     1       8.231  43.408  48.903  1.00  0.00     0.004 A 
ATOM     24  C   UNL     1       6.077  43.746  49.956  1.00  0.00     0.004 A 
ATOM     25  C   UNL     1       6.908  43.007  49.108  1.00  0.00     0.000 A 
ENDBRANCH  19  20
ENDBRANCH   5  19
TORSDOF 4
ENDMDL
MODEL 3
REMARK VINA RESULT:    -8.654      1.408      2.007
REMARK INTER + INTRA:         -11.490
REMARK INTER:                 -11.225
REMARK INTRA:                  -0.266
REMARK UNBOUND:                -0.813
REMARK SMILES O=C1C[C@H](Nc2nccc(Oc3ccccc3)n2)[C@H]2CCCCN12
REMARK SMILES IDX 6 1 7 2 8 3 9 4 10 5 18 6 5 7 4 9 1 10 2 11 3 12 24 13 23 14
REMARK SMILES IDX 19 15 22 16 20 17 21 18 11 19 12 20 13 21 17 22 14 23 16 24
REMARK SMILES IDX 15 25
REMARK H PARENT 5 8
ROOT
ATOM      1  C   UNL     1       5.719  43.434  50.489  1.00  0.00     0.226 A 
ATOM      2  N   UNL     1       6.461  42.704  49.614  1.00  0.00    -0.221 NA
ATOM      3  C   UNL     1       7.638  43.175  49.128  1.00  0.00     0.121 A 
ATOM      4  C   UNL     1       8.101  44.430  49.520  1.00  0.00     0.089 A 
ATOM      5  C   UNL     1       7.340  45.168  50.426  1.00  0.00     0.224 A 
ATOM      6  N   UNL     1       6.167  44.656  50.891  1.00  0.00    -0.177 NA
ENDROOT
BRANCH   1   7
ATOM      7  N   UNL     1       4.459  42.918  50.949  1.00  0.00    -0.349 N 
ATOM      8  H   UNL     1       3.917  42.314  50.290  1.00  0.00     0.164 HD
BRANCH   7   9
ATOM      9  C   UNL     1       3.856  43.194  52.259  1.00  0.00     0.114 C 
ATOM     10  O   UNL     1       4.370  45.605  54.841  1.00  0.00    -0.275 OA
ATOM     11  C   UNL     1       4.012  44.941  53.833  1.00  0.00     0.225 C 
ATOM     12  C   UNL     1       4.840  43.884  53.221  1.00  0.00     0.127 C 
ATOM     13  N   UNL     1       2.749  45.107  53.209  1.00  0.00    -0.338 N 
ATOM     14  C   UNL     1       1.587  45.679  53.886  1.00  0.00     0.120 C 
ATOM     15  C   UNL     1       2.594  44.105  52.158  1.00  0.00     0.108 C 
ATOM     16  C   UNL     1       0.736  44.562  54.521  1.00  0.00     0.022 C 
ATOM     17  C   UNL     1       1.270  43.326  52.343  1.00  0.00     0.027 C 
ATOM     18  C   UNL     1       0.907  43.189  53.830  1.00  0.00     0.004 C 
ENDBRANCH   7   9
ENDBRANCH   1   7
BRANCH   5  19
ATOM     19  O   UNL     1       7.770  46.445  50.805  1.00  0.00    -0.439 OA
BRANCH  19  20
ATOM     20  C   UNL     1       8.306  46.763  52.059  1.00  0.00     0.129 A 
ATOM     21  C   UNL     1       9.695  46.716  52.233  1.00  0.00     0.047 A 
ATOM     22  C   UNL     1       7.485  47.082  53.154  1.00  0.00     0.047 A 
ATOM     23  C   UNL     1      10.263  47.011  53.476  1.00  0.00     0.004 A 
ATOM     24  C   UNL     1       8.053  47.363  54.400  1.00  0.00     0.004 A 
ATOM     25  C   UNL     1       9.442  47.337  54.559  1.00  0.00     0.000 A 
ENDBRANCH  19  20
ENDBRANCH   5  19
TORSDOF 4
ENDMDL
MODEL 4
REMARK VINA RESULT:    -8.615      2.227      4.671
REMARK INTER + INTRA:         -11.442
REMARK INTER:                 -11.441
REMARK INTRA:                  -0.001
REMARK UNBOUND:                -0.813
REMARK SMILES O=C1C[C@H](Nc2nccc(Oc3ccccc3)n2)[C@H]2CCCCN12
REMARK SMILES IDX 6 1 7 2 8 3 9 4 10 5 18 6 5 7 4 9 1 10 2 11 3 12 24 13 23 14
REMARK SMILES IDX 19 15 22 16 20 17 21 18 11 19 12 20 13 21 17 22 14 23 16 24
REMARK SMILES IDX 15 25
REMARK H PARENT 5 8
ROOT
ATOM      1  C   UNL     1       7.188  47.090  54.156  1.00  0.00     0.226 A 
ATOM      2  N   UNL     1       8.380  47.388  54.737  1.00  0.00    -0.221 NA
ATOM      3  C   UNL     1       9.537  47.346  54.027  1.00  0.00     0.121 A 
ATOM      4  C   UNL     1       9.515  46.985  52.681  1.00  0.00     0.089 A 
ATOM      5  C   UNL     1       8.286  46.690  52.090  1.00  0.00     0.224 A 
ATOM      6  N   UNL     1       7.151  46.748  52.838  1.00  0.00    -0.177 NA
ENDROOT
BRANCH   1   7
ATOM      7  N   UNL     1       5.991  47.106  54.952  1.00  0.00    -0.349 N 
ATOM      8  H   UNL     1       6.101  47.230  55.984  1.00  0.00     0.164 HD
BRANCH   7   9
ATOM      9  C   UNL     1       4.626  46.933  54.437  1.00  0.00     0.114 C 
ATOM     10  O   UNL     1       3.120  46.831  51.202  1.00  0.00    -0.275 OA
ATOM     11  C   UNL     1       3.677  46.596  52.306  1.00  0.00     0.225 C 
ATOM     12  C   UNL     1       4.429  47.612  53.069  1.00  0.00     0.127 C 
ATOM     13  N   UNL     1       3.599  45.339  52.958  1.00  0.00    -0.338 N 
ATOM     14  C   UNL     1       2.540  44.364  52.699  1.00  0.00     0.120 C 
ATOM     15  C   UNL     1       4.235  45.433  54.268  1.00  0.00     0.108 C 
ATOM     16  C   UNL     1       1.380  44.561  53.695  1.00  0.00     0.022 C 
ATOM     17  C   UNL     1       3.277  44.930  55.374  1.00  0.00     0.027 C 
ATOM     18  C   UNL     1       1.812  45.230  55.020  1.00  0.00     0.004 C 
ENDBRANCH   7   9
ENDBRANCH   1   7
BRANCH   5  19
ATOM     19  O   UNL     1       8.248  46.291  50.749  1.00  0.00    -0.439 OA
BRANCH  19  20
ATOM     20  C   UNL     1       7.632  45.122  50.285  1.00  0.00     0.129 A 
ATOM     21  C   UNL     1       6.344  44.810  50.741  1.00  0.00     0.047 A 
ATOM     22  C   UNL     1       8.289  44.235  49.415  1.00  0.00     0.047 A 
ATOM     23  C   UNL     1       5.706  43.643  50.311  1.00  0.00     0.004 A 
ATOM     24  C   UNL     1       7.655  43.061  48.998  1.00  0.00     0.004 A 
ATOM     25  C   UNL     1       6.360  42.770  49.438  1.00  0.00     0.000 A 
ENDBRANCH  19  20
ENDBRANCH   5  19
TORSDOF 4
ENDMDL
MODEL 5
REMARK VINA RESULT:    -8.597      2.615      3.878
REMARK INTER + INTRA:         -11.420
REMARK INTER:                 -10.783
REMARK INTRA:                  -0.637
REMARK UNBOUND:                -0.813
REMARK SMILES O=C1C[C@H](Nc2nccc(Oc3ccccc3)n2)[C@H]2CCCCN12
REMARK SMILES IDX 6 1 7 2 8 3 9 4 10 5 18 6 5 7 4 9 1 10 2 11 3 12 24 13 23 14
REMARK SMILES IDX 19 15 22 16 20 17 21 18 11 19 12 20 13 21 17 22 14 23 16 24
REMARK SMILES IDX 15 25
REMARK H PARENT 5 8
ROOT
ATOM      1  C   UNL     1       3.037  46.327  53.576  1.00  0.00     0.226 A 
ATOM      2  N   UNL     1       3.316  45.350  54.481  1.00  0.00    -0.221 NA
ATOM      3  C   UNL     1       4.574  45.179  54.963  1.00  0.00     0.121 A 
ATOM      4  C   UNL     1       5.606  46.007  54.524  1.00  0.00     0.089 A 
ATOM      5  C   UNL     1       5.310  47.012  53.605  1.00  0.00     0.224 A 
ATOM      6  N   UNL     1       4.034  47.151  53.150  1.00  0.00    -0.177 NA
ENDROOT
BRANCH   1   7
ATOM      7  N   UNL     1       1.702  46.449  53.060  1.00  0.00    -0.349 N 
ATOM      8  H   UNL     1       1.167  47.313  53.308  1.00  0.00     0.164 HD
BRANCH   7   9
ATOM      9  C   UNL     1       1.013  45.445  52.238  1.00  0.00     0.114 C 
ATOM     10  O   UNL     1       1.934  42.371  50.674  1.00  0.00    -0.275 OA
ATOM     11  C   UNL     1       1.547  43.294  51.438  1.00  0.00     0.225 C 
ATOM     12  C   UNL     1       1.980  44.698  51.301  1.00  0.00     0.127 C 
ATOM     13  N   UNL     1       0.612  43.087  52.485  1.00  0.00    -0.338 N 
ATOM     14  C   UNL     1      -0.328  41.968  52.513  1.00  0.00     0.120 C 
ATOM     15  C   UNL     1       0.277  44.371  53.094  1.00  0.00     0.108 C 
ATOM     16  C   UNL     1      -1.667  42.380  51.869  1.00  0.00     0.022 C 
ATOM     17  C   UNL     1      -1.257  44.572  53.128  1.00  0.00     0.027 C 
ATOM     18  C   UNL     1      -1.932  43.902  51.921  1.00  0.00     0.004 C 
ENDBRANCH   7   9
ENDBRANCH   1   7
BRANCH   5  19
ATOM     19  O   UNL     1       6.339  47.830  53.127  1.00  0.00    -0.439 OA
BRANCH  19  20
ATOM     20  C   UNL     1       7.657  47.406  52.914  1.00  0.00     0.129 A 
ATOM     21  C   UNL     1       7.961  46.704  51.741  1.00  0.00     0.047 A 
ATOM     22  C   UNL     1       8.667  47.626  53.867  1.00  0.00     0.047 A 
ATOM     23  C   UNL     1       9.263  46.251  51.505  1.00  0.00     0.004 A 
ATOM     24  C   UNL     1       9.965  47.160  53.636  1.00  0.00     0.004 A 
ATOM     25  C   UNL     1      10.265  46.481  52.451  1.00  0.00     0.000 A 
ENDBRANCH  19  20
ENDBRANCH   5  19
TORSDOF 4
ENDMDL
