MODEL 1
REMARK VINA RESULT:    -8.119      0.000      0.000
REMARK INTER + INTRA:         -10.991
REMARK INTER:                 -10.492
REMARK INTRA:                  -0.499
REMARK UNBOUND:                -0.499
REMARK SMILES CO[C@@]1(c2nnc3n2CCN(C(=O)OC(C)(C)C)C3)CCOC1
REMARK SMILES IDX 4 1 5 2 6 3 7 4 19 5 11 6 10 7 9 8 8 9 3 10 20 11 23 12
REMARK SMILES IDX 21 13 22 14 2 15 1 16 12 17 13 18 14 19 15 20 16 21 17 22
REMARK SMILES IDX 18 23
REMARK H PARENT
ROOT
ATOM      1  C   UNL     1       2.381  45.752  53.434  1.00  0.00     0.167 A 
ATOM      2  N   UNL     1       2.009  46.810  52.679  1.00  0.00    -0.132 NA
ATOM      3  N   UNL     1       3.064  47.607  52.569  1.00  0.00    -0.133 NA
ATOM      4  C   UNL     1       4.059  47.026  53.263  1.00  0.00     0.152 A 
ATOM      5  C   UNL     1       5.444  47.572  53.406  1.00  0.00     0.200 C 
ATOM      6  N   UNL     1       6.296  46.661  54.193  1.00  0.00    -0.299 N 
ATOM      7  C   UNL     1       5.689  45.764  55.197  1.00  0.00     0.145 C 
ATOM      8  C   UNL     1       4.522  44.977  54.589  1.00  0.00     0.147 C 
ATOM      9  N   UNL     1       3.663  45.880  53.831  1.00  0.00    -0.309 N 
ENDROOT
BRANCH   1  10
ATOM     10  C   UNL     1       1.450  44.603  53.817  1.00  0.00     0.153 C 
ATOM     11  C   UNL     1       1.848  43.344  53.078  1.00  0.00     0.075 C 
ATOM     12  C   UNL     1       0.013  44.769  53.305  1.00  0.00     0.204 C 
ATOM     13  C   UNL     1       0.536  42.598  52.917  1.00  0.00     0.164 C 
ATOM     14  O   UNL     1      -0.538  43.494  53.081  1.00  0.00    -0.378 OA
BRANCH  10  15
ATOM     15  O   UNL     1       1.458  44.314  55.214  1.00  0.00    -0.368 OA
ATOM     16  C   UNL     1       0.759  45.272  55.987  1.00  0.00     0.196 C 
ENDBRANCH  10  15
ENDBRANCH   1  10
BRANCH   6  17
ATOM     17  C   UNL     1       7.722  46.869  54.174  1.00  0.00     0.410 C 
ATOM     18  O   UNL     1       8.252  47.696  54.965  1.00  0.00    -0.224 OA
BRANCH  17  19
ATOM     19  O   UNL     1       8.514  46.144  53.267  1.00  0.00    -0.444 OA
BRANCH  19  20
ATOM     20  C   UNL     1       8.782  46.491  51.901  1.00  0.00     0.106 C 
ATOM     21  C   UNL     1       7.844  45.723  50.951  1.00  0.00     0.056 C 
ATOM     22  C   UNL     1       8.646  48.011  51.692  1.00  0.00     0.056 C 
ATOM     23  C   UNL     1      10.232  46.077  51.606  1.00  0.00     0.056 C 
ENDBRANCH  19  20
ENDBRANCH  17  19
ENDBRANCH   6  17
TORSDOF 5
ENDMDL
MODEL 2
REMARK VINA RESULT:    -7.925      0.888      1.744
REMARK INTER + INTRA:         -10.740
REMARK INTER:                 -10.200
REMARK INTRA:                  -0.540
REMARK UNBOUND:                -0.499
REMARK SMILES CO[C@@]1(c2nnc3n2CCN(C(=O)OC(C)(C)C)C3)CCOC1
REMARK SMILES IDX 4 1 5 2 6 3 7 4 19 5 11 6 10 7 9 8 8 9 3 10 20 11 23 12
REMARK SMILES IDX 21 13 22 14 2 15 1 16 12 17 13 18 14 19 15 20 16 21 17 22
REMARK SMILES IDX 18 23
REMARK H PARENT
ROOT
ATOM      1  C   UNL     1       2.393  45.603  53.018  1.00  0.00     0.167 A 
ATOM      2  N   UNL     1       1.991  46.748  52.422  1.00  0.00    -0.132 NA
ATOM      3  N   UNL     1       3.001  47.606  52.492  1.00  0.00    -0.133 NA
ATOM      4  C   UNL     1       3.999  46.972  53.135  1.00  0.00     0.152 A 
ATOM      5  C   UNL     1       5.342  47.559  53.431  1.00  0.00     0.200 C 
ATOM      6  N   UNL     1       6.213  46.579  54.107  1.00  0.00    -0.299 N 
ATOM      7  C   UNL     1       5.618  45.502  54.924  1.00  0.00     0.145 C 
ATOM      8  C   UNL     1       4.526  44.764  54.142  1.00  0.00     0.147 C 
ATOM      9  N   UNL     1       3.648  45.731  53.494  1.00  0.00    -0.309 N 
ENDROOT
BRANCH   1  10
ATOM     10  C   UNL     1       1.516  44.361  53.167  1.00  0.00     0.153 C 
ATOM     11  C   UNL     1       0.221  44.545  52.409  1.00  0.00     0.075 C 
ATOM     12  C   UNL     1       0.969  44.153  54.585  1.00  0.00     0.204 C 
ATOM     13  C   UNL     1      -0.775  43.718  53.202  1.00  0.00     0.164 C 
ATOM     14  O   UNL     1      -0.271  43.493  54.498  1.00  0.00    -0.378 OA
BRANCH  10  15
ATOM     15  O   UNL     1       2.142  43.172  52.688  1.00  0.00    -0.368 OA
ATOM     16  C   UNL     1       2.486  43.233  51.316  1.00  0.00     0.196 C 
ENDBRANCH  10  15
ENDBRANCH   1  10
BRANCH   6  17
ATOM     17  C   UNL     1       7.624  46.860  54.192  1.00  0.00     0.410 C 
ATOM     18  O   UNL     1       8.050  47.713  55.018  1.00  0.00    -0.224 OA
BRANCH  17  19
ATOM     19  O   UNL     1       8.517  46.176  53.350  1.00  0.00    -0.444 OA
BRANCH  19  20
ATOM     20  C   UNL     1       8.804  46.488  51.979  1.00  0.00     0.106 C 
ATOM     21  C   UNL     1      10.255  46.107  51.628  1.00  0.00     0.056 C 
ATOM     22  C   UNL     1       7.811  45.775  51.041  1.00  0.00     0.056 C 
ATOM     23  C   UNL     1       8.637  48.006  51.815  1.00  0.00     0.056 C 
ENDBRANCH  19  20
ENDBRANCH  17  19
ENDBRANCH   6  17
TORSDOF 5
ENDMDL
MODEL 3
REMARK VINA RESULT:    -7.583      1.676      2.547
REMARK INTER + INTRA:         -10.298
REMARK INTER:                 -10.201
REMARK INTRA:                  -0.096
REMARK UNBOUND:                -0.499
REMARK SMILES CO[C@@]1(c2nnc3n2CCN(C(=O)OC(C)(C)C)C3)CCOC1
REMARK SMILES IDX 4 1 5 2 6 3 7 4 19 5 11 6 10 7 9 8 8 9 3 10 20 11 23 12
REMARK SMILES IDX 21 13 22 14 2 15 1 16 12 17 13 18 14 19 15 20 16 21 17 22
REMARK SMILES IDX 18 23
REMARK H PARENT
ROOT
ATOM      1  C   UNL     1       1.982  43.915  53.142  1.00  0.00     0.167 A 
ATOM      2  N   UNL     1       2.408  42.774  52.557  1.00  0.00    -0.132 NA
ATOM      3  N   UNL     1       3.721  42.877  52.397  1.00  0.00    -0.133 NA
ATOM      4  C   UNL     1       4.073  44.082  52.882  1.00  0.00     0.152 A 
ATOM      5  C   UNL     1       5.467  44.623  52.917  1.00  0.00     0.200 C 
ATOM      6  N   UNL     1       5.505  45.952  53.556  1.00  0.00    -0.299 N 
ATOM      7  C   UNL     1       4.315  46.825  53.517  1.00  0.00     0.145 C 
ATOM      8  C   UNL     1       3.067  46.067  53.985  1.00  0.00     0.147 C 
ATOM      9  N   UNL     1       3.013  44.762  53.335  1.00  0.00    -0.309 N 
ENDROOT
BRANCH   1  10
ATOM     10  C   UNL     1       0.523  44.209  53.487  1.00  0.00     0.153 C 
ATOM     11  C   UNL     1       0.402  44.605  54.941  1.00  0.00     0.075 C 
ATOM     12  C   UNL     1      -0.382  42.970  53.471  1.00  0.00     0.204 C 
ATOM     13  C   UNL     1      -0.986  44.128  55.325  1.00  0.00     0.164 C 
ATOM     14  O   UNL     1      -1.422  43.159  54.400  1.00  0.00    -0.378 OA
BRANCH  10  15
ATOM     15  O   UNL     1      -0.041  45.255  52.697  1.00  0.00    -0.368 OA
ATOM     16  C   UNL     1      -0.633  44.793  51.497  1.00  0.00     0.196 C 
ENDBRANCH  10  15
ENDBRANCH   1  10
BRANCH   6  17
ATOM     17  C   UNL     1       6.785  46.486  53.950  1.00  0.00     0.410 C 
ATOM     18  O   UNL     1       6.862  47.297  54.912  1.00  0.00    -0.224 OA
BRANCH  17  19
ATOM     19  O   UNL     1       7.940  46.094  53.254  1.00  0.00    -0.444 OA
BRANCH  19  20
ATOM     20  C   UNL     1       8.979  46.957  52.770  1.00  0.00     0.106 C 
ATOM     21  C   UNL     1       8.379  48.163  52.023  1.00  0.00     0.056 C 
ATOM     22  C   UNL     1       9.878  47.427  53.931  1.00  0.00     0.056 C 
ATOM     23  C   UNL     1       9.828  46.138  51.786  1.00  0.00     0.056 C 
ENDBRANCH  19  20
ENDBRANCH  17  19
ENDBRANCH   6  17
TORSDOF 5
ENDMDL
MODEL 4
REMARK VINA RESULT:    -7.378      2.229      3.181
REMARK INTER + INTRA:         -10.033
REMARK INTER:                  -9.483
REMARK INTRA:                  -0.550
REMARK UNBOUND:                -0.499
REMARK SMILES CO[C@@]1(c2nnc3n2CCN(C(=O)OC(C)(C)C)C3)CCOC1
REMARK SMILES IDX 4 1 5 2 6 3 7 4 19 5 11 6 10 7 9 8 8 9 3 10 20 11 23 12
REMARK SMILES IDX 21 13 22 14 2 15 1 16 12 17 13 18 14 19 15 20 16 21 17 22
REMARK SMILES IDX 18 23
REMARK H PARENT
ROOT
ATOM      1  C   UNL     1       2.242  43.911  52.719  1.00  0.00     0.167 A 
ATOM      2  N   UNL     1       2.366  42.565  52.721  1.00  0.00    -0.132 NA
ATOM      3  N   UNL     1       3.528  42.273  52.151  1.00  0.00    -0.133 NA
ATOM      4  C   UNL     1       4.091  43.446  51.805  1.00  0.00     0.152 A 
ATOM      5  C   UNL     1       5.420  43.600  51.138  1.00  0.00     0.200 C 
ATOM      6  N   UNL     1       5.755  45.023  50.943  1.00  0.00    -0.299 N 
ATOM      7  C   UNL     1       4.677  46.024  50.808  1.00  0.00     0.145 C 
ATOM      8  C   UNL     1       3.661  45.888  51.947  1.00  0.00     0.147 C 
ATOM      9  N   UNL     1       3.309  44.484  52.126  1.00  0.00    -0.309 N 
ENDROOT
BRANCH   1  10
ATOM     10  C   UNL     1       1.033  44.662  53.273  1.00  0.00     0.153 C 
ATOM     11  C   UNL     1       0.089  43.696  53.955  1.00  0.00     0.075 C 
ATOM     12  C   UNL     1       0.101  45.224  52.190  1.00  0.00     0.204 C 
ATOM     13  C   UNL     1      -1.274  44.333  53.756  1.00  0.00     0.164 C 
ATOM     14  O   UNL     1      -1.211  45.258  52.696  1.00  0.00    -0.378 OA
BRANCH  10  15
ATOM     15  O   UNL     1       1.382  45.675  54.213  1.00  0.00    -0.368 OA
ATOM     16  C   UNL     1       1.984  45.165  55.389  1.00  0.00     0.196 C 
ENDBRANCH  10  15
ENDBRANCH   1  10
BRANCH   6  17
ATOM     17  C   UNL     1       7.112  45.367  50.600  1.00  0.00     0.410 C 
ATOM     18  O   UNL     1       7.825  44.556  49.949  1.00  0.00    -0.224 OA
BRANCH  17  19
ATOM     19  O   UNL     1       7.631  46.611  50.998  1.00  0.00    -0.444 OA
BRANCH  19  20
ATOM     20  C   UNL     1       8.365  46.884  52.200  1.00  0.00     0.106 C 
ATOM     21  C   UNL     1       7.735  46.152  53.400  1.00  0.00     0.056 C 
ATOM     22  C   UNL     1       9.844  46.486  52.034  1.00  0.00     0.056 C 
ATOM     23  C   UNL     1       8.284  48.399  52.446  1.00  0.00     0.056 C 
ENDBRANCH  19  20
ENDBRANCH  17  19
ENDBRANCH   6  17
TORSDOF 5
ENDMDL
MODEL 5
REMARK VINA RESULT:    -7.277      1.886      2.488
REMARK INTER + INTRA:          -9.902
REMARK INTER:                  -9.671
REMARK INTRA:                  -0.231
REMARK UNBOUND:                -0.499
REMARK SMILES CO[C@@]1(c2nnc3n2CCN(C(=O)OC(C)(C)C)C3)CCOC1
REMARK SMILES IDX 4 1 5 2 6 3 7 4 19 5 11 6 10 7 9 8 8 9 3 10 20 11 23 12
REMARK SMILES IDX 21 13 22 14 2 15 1 16 12 17 13 18 14 19 15 20 16 21 17 22
REMARK SMILES IDX 18 23
REMARK H PARENT
ROOT
ATOM      1  C   UNL     1       2.337  43.806  52.131  1.00  0.00     0.167 A 
ATOM      2  N   UNL     1       2.890  42.867  51.332  1.00  0.00    -0.132 NA
ATOM      3  N   UNL     1       4.200  43.074  51.324  1.00  0.00    -0.133 NA
ATOM      4  C   UNL     1       4.425  44.141  52.114  1.00  0.00     0.152 A 
ATOM      5  C   UNL     1       5.768  44.729  52.406  1.00  0.00     0.200 C 
ATOM      6  N   UNL     1       5.659  45.861  53.345  1.00  0.00    -0.299 N 
ATOM      7  C   UNL     1       4.414  46.654  53.406  1.00  0.00     0.145 C 
ATOM      8  C   UNL     1       3.194  45.740  53.562  1.00  0.00     0.147 C 
ATOM      9  N   UNL     1       3.285  44.633  52.617  1.00  0.00    -0.309 N 
ENDROOT
BRANCH   1  10
ATOM     10  C   UNL     1       0.839  43.930  52.400  1.00  0.00     0.153 C 
ATOM     11  C   UNL     1       0.058  43.164  51.355  1.00  0.00     0.075 C 
ATOM     12  C   UNL     1       0.280  45.341  52.168  1.00  0.00     0.204 C 
ATOM     13  C   UNL     1      -1.243  43.937  51.246  1.00  0.00     0.164 C 
ATOM     14  O   UNL     1      -1.063  45.234  51.766  1.00  0.00    -0.378 OA
BRANCH  10  15
ATOM     15  O   UNL     1       0.455  43.440  53.683  1.00  0.00    -0.368 OA
ATOM     16  C   UNL     1       0.282  42.036  53.718  1.00  0.00     0.196 C 
ENDBRANCH  10  15
ENDBRANCH   1  10
BRANCH   6  17
ATOM     17  C   UNL     1       6.862  46.349  53.973  1.00  0.00     0.410 C 
ATOM     18  O   UNL     1       6.788  47.113  54.974  1.00  0.00    -0.224 OA
BRANCH  17  19
ATOM     19  O   UNL     1       8.112  45.965  53.460  1.00  0.00    -0.444 OA
BRANCH  19  20
ATOM     20  C   UNL     1       9.104  46.833  52.893  1.00  0.00     0.106 C 
ATOM     21  C   UNL     1      10.038  46.049  51.953  1.00  0.00     0.056 C 
ATOM     22  C   UNL     1       8.438  48.005  52.148  1.00  0.00     0.056 C 
ATOM     23  C   UNL     1       9.933  47.395  54.059  1.00  0.00     0.056 C 
ENDBRANCH  19  20
ENDBRANCH  17  19
ENDBRANCH   6  17
TORSDOF 5
ENDMDL
