ligand_3_conformer_3_docked
     RDKit          3D

 47 50  0  0  0  0  0  0  0  0999 V2000
    0.0480   45.6090   52.2570 O   0  0  0  0  0  0  0  0  0  0  0  0
    0.9160   45.3070   53.1210 C   0  0  0  0  0  0  0  0  0  0  0  0
    2.3500   45.4210   52.7690 C   0  0  0  0  0  0  0  0  0  0  0  0
    2.8620   46.6350   52.2800 C   0  0  0  0  0  0  0  0  0  0  0  0
    4.2160   46.7530   51.9550 C   0  0  0  0  0  0  0  0  0  0  0  0
    5.0870   45.6670   52.1330 C   0  0  0  0  0  0  0  0  0  0  0  0
    6.4780   45.7760   51.7840 N   0  0  0  0  0  0  0  0  0  0  0  0
    7.0620   45.3330   50.6440 C   0  0  0  0  0  0  0  0  0  0  0  0
    8.3950   45.5900   50.5870 N   0  0  0  0  0  0  0  0  0  0  0  0
    8.6350   46.2140   51.7550 C   0  0  0  0  0  0  0  0  0  0  0  0
    9.8590   46.6750   52.2310 C   0  0  0  0  0  0  0  0  0  0  0  0
    9.8870   47.2610   53.5100 C   0  0  0  0  0  0  0  0  0  0  0  0
    8.7030   47.3600   54.2770 C   0  0  0  0  0  0  0  0  0  0  0  0
    7.4810   46.8810   53.7670 C   0  0  0  0  0  0  0  0  0  0  0  0
    7.4860   46.3280   52.4840 C   0  0  0  0  0  0  0  0  0  0  0  0
    4.5770   44.4540   52.6200 C   0  0  0  0  0  0  0  0  0  0  0  0
    3.2230   44.3350   52.9460 C   0  0  0  0  0  0  0  0  0  0  0  0
    0.4890   44.8740   54.4260 N   0  0  0  0  0  0  0  0  0  0  0  0
    1.0550   45.5260   55.6150 C   0  0  0  0  0  0  0  0  0  0  0  0
    0.3860   45.0230   56.8980 C   0  0  0  0  0  0  0  0  0  0  0  0
   -1.1370   45.0780   56.7460 C   0  0  0  0  0  0  0  0  0  0  0  0
   -1.6700   44.2620   55.5200 C   0  0  1  0  0  0  0  0  0  0  0  0
   -2.3280   43.1160   56.0120 O   0  0  0  0  0  0  0  0  0  0  0  0
   -2.6810   45.1210   54.7160 C   0  0  0  0  0  0  0  0  0  0  0  0
   -2.6840   46.4470   55.1770 O   0  0  0  0  0  0  0  0  0  0  0  0
   -0.5140   43.8100   54.5840 C   0  0  0  0  0  0  0  0  0  0  0  0
    2.1923   47.4983   52.1522 H   0  0  0  0  0  0  0  0  0  0  0  0
    4.6016   47.7032   51.5571 H   0  0  0  0  0  0  0  0  0  0  0  0
    6.5113   44.8165   49.8440 H   0  0  0  0  0  0  0  0  0  0  0  0
   10.7741   46.5842   51.6274 H   0  0  0  0  0  0  0  0  0  0  0  0
   10.8350   47.6442   53.9155 H   0  0  0  0  0  0  0  0  0  0  0  0
    8.7369   47.8141   55.2783 H   0  0  0  0  0  0  0  0  0  0  0  0
    6.5551   46.9401   54.3579 H   0  0  0  0  0  0  0  0  0  0  0  0
    5.2472   43.5909   52.7461 H   0  0  0  0  0  0  0  0  0  0  0  0
    2.8385   43.3843   53.3439 H   0  0  0  0  0  0  0  0  0  0  0  0
    2.1323   45.3089   55.6639 H   0  0  0  0  0  0  0  0  0  0  0  0
    0.8792   46.6088   55.5336 H   0  0  0  0  0  0  0  0  0  0  0  0
    0.6965   43.9851   57.0888 H   0  0  0  0  0  0  0  0  0  0  0  0
    0.6899   45.6621   57.7402 H   0  0  0  0  0  0  0  0  0  0  0  0
   -1.5935   44.6714   57.6605 H   0  0  0  0  0  0  0  0  0  0  0  0
   -1.4086   46.1306   56.5781 H   0  0  0  0  0  0  0  0  0  0  0  0
   -1.8240   42.7880   56.8030 H   0  0  0  0  0  0  0  0  0  0  0  0
   -2.3992   45.1092   53.6528 H   0  0  0  0  0  0  0  0  0  0  0  0
   -3.6878   44.6985   54.8493 H   0  0  0  0  0  0  0  0  0  0  0  0
   -3.5910   46.8130   55.0120 H   0  0  0  0  0  0  0  0  0  0  0  0
   -0.0297   42.9215   55.0152 H   0  0  0  0  0  0  0  0  0  0  0  0
   -0.9364   43.5797   53.5948 H   0  0  0  0  0  0  0  0  0  0  0  0
  1  2  2  0
  2  3  1  0
  3  4  2  0
  4  5  1  0
  5  6  2  0
  6  7  1  0
  7  8  1  0
  8  9  2  0
  9 10  1  0
 10 11  2  0
 11 12  1  0
 12 13  2  0
 13 14  1  0
 14 15  2  0
  6 16  1  0
 16 17  2  0
  2 18  1  0
 18 19  1  0
 19 20  1  0
 20 21  1  0
 21 22  1  0
 22 23  1  1
 22 24  1  0
 24 25  1  0
 22 26  1  0
 17  3  1  0
 26 18  1  0
 15  7  1  0
 15 10  1  0
  4 27  1  0
  5 28  1  0
  8 29  1  0
 11 30  1  0
 12 31  1  0
 13 32  1  0
 14 33  1  0
 16 34  1  0
 17 35  1  0
 19 36  1  0
 19 37  1  0
 20 38  1  0
 20 39  1  0
 21 40  1  0
 21 41  1  0
 23 42  1  0
 24 43  1  0
 24 44  1  0
 25 45  1  0
 26 46  1  0
 26 47  1  0
M  END
>  <meeko>  (1) 
{"is_sidechain": [false], "free_energy": -8.901, "intermolecular_energy": -11.503, "internal_energy": -0.862}

$$$$
ligand_3_conformer_3_docked
     RDKit          3D

 47 50  0  0  0  0  0  0  0  0999 V2000
    0.8150   45.9720   56.0340 O   0  0  0  0  0  0  0  0  0  0  0  0
    1.0500   45.3170   54.9820 C   0  0  0  0  0  0  0  0  0  0  0  0
    2.3660   45.4700   54.3190 C   0  0  0  0  0  0  0  0  0  0  0  0
    2.4680   46.1810   53.1120 C   0  0  0  0  0  0  0  0  0  0  0  0
    3.7070   46.3380   52.4850 C   0  0  0  0  0  0  0  0  0  0  0  0
    4.8690   45.8040   53.0640 C   0  0  0  0  0  0  0  0  0  0  0  0
    6.1450   45.9460   52.4160 N   0  0  0  0  0  0  0  0  0  0  0  0
    6.4480   45.5930   51.1420 C   0  0  0  0  0  0  0  0  0  0  0  0
    7.7360   45.8600   50.8020 N   0  0  0  0  0  0  0  0  0  0  0  0
    8.2430   46.3960   51.9270 C   0  0  0  0  0  0  0  0  0  0  0  0
    9.5490   46.8260   52.1440 C   0  0  0  0  0  0  0  0  0  0  0  0
    9.8750   47.3150   53.4220 C   0  0  0  0  0  0  0  0  0  0  0  0
    8.8990   47.3510   54.4440 C   0  0  0  0  0  0  0  0  0  0  0  0
    7.5880   46.9050   54.1930 C   0  0  0  0  0  0  0  0  0  0  0  0
    7.2920   46.4490   52.9060 C   0  0  0  0  0  0  0  0  0  0  0  0
    4.7680   45.0920   54.2690 C   0  0  0  0  0  0  0  0  0  0  0  0
    3.5290   44.9360   54.8960 C   0  0  0  0  0  0  0  0  0  0  0  0
    0.0400   44.4320   54.4630 N   0  0  0  0  0  0  0  0  0  0  0  0
   -1.2120   45.0020   53.9450 C   0  0  0  0  0  0  0  0  0  0  0  0
   -2.1000   43.9220   53.3200 C   0  0  0  0  0  0  0  0  0  0  0  0
   -1.2780   43.0740   52.3440 C   0  0  0  0  0  0  0  0  0  0  0  0
   -0.0240   42.4070   53.0020 C   0  0  1  0  0  0  0  0  0  0  0  0
   -0.2710   41.0230   53.1100 O   0  0  0  0  0  0  0  0  0  0  0  0
    1.2220   42.6310   52.1050 C   0  0  0  0  0  0  0  0  0  0  0  0
    2.3950   42.2610   52.7830 O   0  0  0  0  0  0  0  0  0  0  0  0
    0.2510   42.9770   54.4230 C   0  0  0  0  0  0  0  0  0  0  0  0
    1.5664   46.6172   52.6571 H   0  0  0  0  0  0  0  0  0  0  0  0
    3.7721   46.8834   51.5319 H   0  0  0  0  0  0  0  0  0  0  0  0
    5.7230   45.1359   50.4525 H   0  0  0  0  0  0  0  0  0  0  0  0
   10.3013   46.7848   51.3425 H   0  0  0  0  0  0  0  0  0  0  0  0
   10.8952   47.6714   53.6273 H   0  0  0  0  0  0  0  0  0  0  0  0
    9.1659   47.7300   55.4416 H   0  0  0  0  0  0  0  0  0  0  0  0
    6.8226   46.9151   54.9830 H   0  0  0  0  0  0  0  0  0  0  0  0
    5.6694   44.6541   54.7226 H   0  0  0  0  0  0  0  0  0  0  0  0
    3.4645   44.3906   55.8491 H   0  0  0  0  0  0  0  0  0  0  0  0
   -1.7574   45.4794   54.7724 H   0  0  0  0  0  0  0  0  0  0  0  0
   -0.9619   45.7382   53.1669 H   0  0  0  0  0  0  0  0  0  0  0  0
   -2.5035   43.2765   54.1141 H   0  0  0  0  0  0  0  0  0  0  0  0
   -2.9269   44.4020   52.7762 H   0  0  0  0  0  0  0  0  0  0  0  0
   -1.9246   42.2799   51.9423 H   0  0  0  0  0  0  0  0  0  0  0  0
   -0.9107   43.7495   51.5574 H   0  0  0  0  0  0  0  0  0  0  0  0
   -0.8110   40.8700   53.9300 H   0  0  0  0  0  0  0  0  0  0  0  0
    1.1247   42.0229   51.1935 H   0  0  0  0  0  0  0  0  0  0  0  0
    1.2846   43.6985   51.8469 H   0  0  0  0  0  0  0  0  0  0  0  0
    2.8530   43.0990   53.0560 H   0  0  0  0  0  0  0  0  0  0  0  0
   -0.4301   42.4959   55.1404 H   0  0  0  0  0  0  0  0  0  0  0  0
    1.2993   42.7700   54.6842 H   0  0  0  0  0  0  0  0  0  0  0  0
  1  2  2  0
  2  3  1  0
  3  4  2  0
  4  5  1  0
  5  6  2  0
  6  7  1  0
  7  8  1  0
  8  9  2  0
  9 10  1  0
 10 11  2  0
 11 12  1  0
 12 13  2  0
 13 14  1  0
 14 15  2  0
  6 16  1  0
 16 17  2  0
  2 18  1  0
 18 19  1  0
 19 20  1  0
 20 21  1  0
 21 22  1  0
 22 23  1  1
 22 24  1  0
 24 25  1  0
 22 26  1  0
 17  3  1  0
 26 18  1  0
 15  7  1  0
 15 10  1  0
  4 27  1  0
  5 28  1  0
  8 29  1  0
 11 30  1  0
 12 31  1  0
 13 32  1  0
 14 33  1  0
 16 34  1  0
 17 35  1  0
 19 36  1  0
 19 37  1  0
 20 38  1  0
 20 39  1  0
 21 40  1  0
 21 41  1  0
 23 42  1  0
 24 43  1  0
 24 44  1  0
 25 45  1  0
 26 46  1  0
 26 47  1  0
M  END
>  <meeko>  (2) 
{"is_sidechain": [false], "free_energy": -8.704, "intermolecular_energy": -11.224, "internal_energy": -0.887}

$$$$
ligand_3_conformer_3_docked
     RDKit          3D

 47 50  0  0  0  0  0  0  0  0999 V2000
    1.6550   42.6940   50.1230 O   0  0  0  0  0  0  0  0  0  0  0  0
    1.4770   43.6310   50.9480 C   0  0  0  0  0  0  0  0  0  0  0  0
    2.6570   44.2860   51.5570 C   0  0  0  0  0  0  0  0  0  0  0  0
    3.0850   45.5410   51.0910 C   0  0  0  0  0  0  0  0  0  0  0  0
    4.1920   46.1700   51.6660 C   0  0  0  0  0  0  0  0  0  0  0  0
    4.8790   45.5670   52.7310 C   0  0  0  0  0  0  0  0  0  0  0  0
    6.0290   46.2010   53.3160 N   0  0  0  0  0  0  0  0  0  0  0  0
    6.0770   46.8500   54.5060 C   0  0  0  0  0  0  0  0  0  0  0  0
    7.3090   47.3370   54.8050 N   0  0  0  0  0  0  0  0  0  0  0  0
    8.0460   46.9730   53.7400 C   0  0  0  0  0  0  0  0  0  0  0  0
    9.3920   47.2470   53.5100 C   0  0  0  0  0  0  0  0  0  0  0  0
    9.9540   46.8050   52.2970 C   0  0  0  0  0  0  0  0  0  0  0  0
    9.1600   46.1180   51.3510 C   0  0  0  0  0  0  0  0  0  0  0  0
    7.8010   45.8600   51.6120 C   0  0  0  0  0  0  0  0  0  0  0  0
    7.2830   46.2900   52.8360 C   0  0  0  0  0  0  0  0  0  0  0  0
    4.4540   44.3130   53.1970 C   0  0  0  0  0  0  0  0  0  0  0  0
    3.3460   43.6840   52.6220 C   0  0  0  0  0  0  0  0  0  0  0  0
    0.1340   44.0450   51.2660 N   0  0  0  0  0  0  0  0  0  0  0  0
   -0.9910   43.4290   50.5480 C   0  0  0  0  0  0  0  0  0  0  0  0
   -2.3360   43.8990   51.1120 C   0  0  0  0  0  0  0  0  0  0  0  0
   -2.3370   43.7570   52.6370 C   0  0  0  0  0  0  0  0  0  0  0  0
   -1.1720   44.5370   53.3360 C   0  0  1  0  0  0  0  0  0  0  0  0
   -1.7300   45.6450   54.0060 O   0  0  0  0  0  0  0  0  0  0  0  0
   -0.4720   43.6190   54.3720 C   0  0  0  0  0  0  0  0  0  0  0  0
   -0.5920   42.2700   54.0010 O   0  0  0  0  0  0  0  0  0  0  0  0
   -0.1250   45.0500   52.3070 C   0  0  0  0  0  0  0  0  0  0  0  0
    2.5446   46.0313   50.2679 H   0  0  0  0  0  0  0  0  0  0  0  0
    4.5275   47.1445   51.2814 H   0  0  0  0  0  0  0  0  0  0  0  0
    5.2039   46.9701   55.1642 H   0  0  0  0  0  0  0  0  0  0  0  0
    9.9960   47.7907   54.2514 H   0  0  0  0  0  0  0  0  0  0  0  0
   11.0164   46.9954   52.0846 H   0  0  0  0  0  0  0  0  0  0  0  0
    9.6073   45.7824   50.4037 H   0  0  0  0  0  0  0  0  0  0  0  0
    7.1693   45.3382   50.8781 H   0  0  0  0  0  0  0  0  0  0  0  0
    4.9958   43.8226   54.0192 H   0  0  0  0  0  0  0  0  0  0  0  0
    3.0112   42.7095   53.0070 H   0  0  0  0  0  0  0  0  0  0  0  0
   -0.9320   43.7054   49.4849 H   0  0  0  0  0  0  0  0  0  0  0  0
   -0.9254   42.3378   50.6707 H   0  0  0  0  0  0  0  0  0  0  0  0
   -2.4962   44.9536   50.8433 H   0  0  0  0  0  0  0  0  0  0  0  0
   -3.1427   43.2822   50.6892 H   0  0  0  0  0  0  0  0  0  0  0  0
   -3.2934   44.1403   53.0221 H   0  0  0  0  0  0  0  0  0  0  0  0
   -2.1948   42.6900   52.8636 H   0  0  0  0  0  0  0  0  0  0  0  0
   -1.4160   46.4700   53.5490 H   0  0  0  0  0  0  0  0  0  0  0  0
    0.5940   43.8847   54.4278 H   0  0  0  0  0  0  0  0  0  0  0  0
   -0.9524   43.7605   55.3514 H   0  0  0  0  0  0  0  0  0  0  0  0
   -1.4060   42.1910   53.4400 H   0  0  0  0  0  0  0  0  0  0  0  0
   -0.5065   45.9667   51.8337 H   0  0  0  0  0  0  0  0  0  0  0  0
    0.8166   45.2510   52.8390 H   0  0  0  0  0  0  0  0  0  0  0  0
  1  2  2  0
  2  3  1  0
  3  4  2  0
  4  5  1  0
  5  6  2  0
  6  7  1  0
  7  8  1  0
  8  9  2  0
  9 10  1  0
 10 11  2  0
 11 12  1  0
 12 13  2  0
 13 14  1  0
 14 15  2  0
  6 16  1  0
 16 17  2  0
  2 18  1  0
 18 19  1  0
 19 20  1  0
 20 21  1  0
 21 22  1  0
 22 23  1  1
 22 24  1  0
 24 25  1  0
 22 26  1  0
 17  3  1  0
 26 18  1  0
 15  7  1  0
 15 10  1  0
  4 27  1  0
  5 28  1  0
  8 29  1  0
 11 30  1  0
 12 31  1  0
 13 32  1  0
 14 33  1  0
 16 34  1  0
 17 35  1  0
 19 36  1  0
 19 37  1  0
 20 38  1  0
 20 39  1  0
 21 40  1  0
 21 41  1  0
 23 42  1  0
 24 43  1  0
 24 44  1  0
 25 45  1  0
 26 46  1  0
 26 47  1  0
M  END
>  <meeko>  (3) 
{"is_sidechain": [false], "free_energy": -8.627, "intermolecular_energy": -11.276, "internal_energy": -0.735}

$$$$
ligand_3_conformer_3_docked
     RDKit          3D

 47 50  0  0  0  0  0  0  0  0999 V2000
    0.9030   43.0720   50.1900 O   0  0  0  0  0  0  0  0  0  0  0  0
    1.2650   43.7800   51.1690 C   0  0  0  0  0  0  0  0  0  0  0  0
    2.6690   44.2480   51.2370 C   0  0  0  0  0  0  0  0  0  0  0  0
    3.6820   43.3760   51.6690 C   0  0  0  0  0  0  0  0  0  0  0  0
    5.0100   43.8060   51.7280 C   0  0  0  0  0  0  0  0  0  0  0  0
    5.3520   45.1100   51.3350 C   0  0  0  0  0  0  0  0  0  0  0  0
    6.7140   45.5660   51.4090 N   0  0  0  0  0  0  0  0  0  0  0  0
    7.6620   45.4380   50.4480 C   0  0  0  0  0  0  0  0  0  0  0  0
    8.8590   45.9790   50.7970 N   0  0  0  0  0  0  0  0  0  0  0  0
    8.6290   46.4520   52.0350 C   0  0  0  0  0  0  0  0  0  0  0  0
    9.5370   47.0850   52.8800 C   0  0  0  0  0  0  0  0  0  0  0  0
    9.0900   47.4600   54.1610 C   0  0  0  0  0  0  0  0  0  0  0  0
    7.7630   47.1850   54.5630 C   0  0  0  0  0  0  0  0  0  0  0  0
    6.8710   46.5410   53.6860 C   0  0  0  0  0  0  0  0  0  0  0  0
    7.3400   46.2050   52.4130 C   0  0  0  0  0  0  0  0  0  0  0  0
    4.3410   45.9830   50.9050 C   0  0  0  0  0  0  0  0  0  0  0  0
    3.0130   45.5520   50.8460 C   0  0  0  0  0  0  0  0  0  0  0  0
    0.3030   44.1240   52.1830 N   0  0  0  0  0  0  0  0  0  0  0  0
   -0.8870   43.2800   52.3540 C   0  0  0  0  0  0  0  0  0  0  0  0
   -1.7200   43.7270   53.5590 C   0  0  0  0  0  0  0  0  0  0  0  0
   -0.8140   43.8900   54.7840 C   0  0  0  0  0  0  0  0  0  0  0  0
    0.3650   44.8950   54.5580 C   0  0  1  0  0  0  0  0  0  0  0  0
    0.0970   46.0580   55.3080 O   0  0  0  0  0  0  0  0  0  0  0  0
    1.6940   44.2670   55.0540 C   0  0  0  0  0  0  0  0  0  0  0  0
    2.0490   44.7830   56.3110 O   0  0  0  0  0  0  0  0  0  0  0  0
    0.5050   45.2880   53.0600 C   0  0  0  0  0  0  0  0  0  0  0  0
    3.4278   42.3470   51.9630 H   0  0  0  0  0  0  0  0  0  0  0  0
    5.7920   43.1193   52.0843 H   0  0  0  0  0  0  0  0  0  0  0  0
    7.4803   44.9451   49.4816 H   0  0  0  0  0  0  0  0  0  0  0  0
   10.5693   47.2853   52.5572 H   0  0  0  0  0  0  0  0  0  0  0  0
    9.7768   47.9696   54.8528 H   0  0  0  0  0  0  0  0  0  0  0  0
    7.4254   47.4765   55.5685 H   0  0  0  0  0  0  0  0  0  0  0  0
    5.8399   46.3099   53.9917 H   0  0  0  0  0  0  0  0  0  0  0  0
    4.5953   47.0125   50.6127 H   0  0  0  0  0  0  0  0  0  0  0  0
    2.2313   46.2394   50.4906 H   0  0  0  0  0  0  0  0  0  0  0  0
   -1.5058   43.3456   51.4469 H   0  0  0  0  0  0  0  0  0  0  0  0
   -0.5560   42.2453   52.5264 H   0  0  0  0  0  0  0  0  0  0  0  0
   -2.2039   44.6884   53.3321 H   0  0  0  0  0  0  0  0  0  0  0  0
   -2.4867   42.9677   53.7725 H   0  0  0  0  0  0  0  0  0  0  0  0
   -1.4251   44.2530   55.6235 H   0  0  0  0  0  0  0  0  0  0  0  0
   -0.3665   42.9063   54.9893 H   0  0  0  0  0  0  0  0  0  0  0  0
    0.0580   45.8040   56.2670 H   0  0  0  0  0  0  0  0  0  0  0  0
    1.5707   43.1768   55.1331 H   0  0  0  0  0  0  0  0  0  0  0  0
    2.4898   44.5102   54.3346 H   0  0  0  0  0  0  0  0  0  0  0  0
    1.5550   45.6360   56.4280 H   0  0  0  0  0  0  0  0  0  0  0  0
   -0.2466   46.0540   52.8183 H   0  0  0  0  0  0  0  0  0  0  0  0
    1.5211   45.6758   52.8953 H   0  0  0  0  0  0  0  0  0  0  0  0
  1  2  2  0
  2  3  1  0
  3  4  2  0
  4  5  1  0
  5  6  2  0
  6  7  1  0
  7  8  1  0
  8  9  2  0
  9 10  1  0
 10 11  2  0
 11 12  1  0
 12 13  2  0
 13 14  1  0
 14 15  2  0
  6 16  1  0
 16 17  2  0
  2 18  1  0
 18 19  1  0
 19 20  1  0
 20 21  1  0
 21 22  1  0
 22 23  1  1
 22 24  1  0
 24 25  1  0
 22 26  1  0
 17  3  1  0
 26 18  1  0
 15  7  1  0
 15 10  1  0
  4 27  1  0
  5 28  1  0
  8 29  1  0
 11 30  1  0
 12 31  1  0
 13 32  1  0
 14 33  1  0
 16 34  1  0
 17 35  1  0
 19 36  1  0
 19 37  1  0
 20 38  1  0
 20 39  1  0
 21 40  1  0
 21 41  1  0
 23 42  1  0
 24 43  1  0
 24 44  1  0
 25 45  1  0
 26 46  1  0
 26 47  1  0
M  END
>  <meeko>  (4) 
{"is_sidechain": [false], "free_energy": -8.503, "intermolecular_energy": -11.147, "internal_energy": -0.704}

$$$$
ligand_3_conformer_3_docked
     RDKit          3D

 47 50  0  0  0  0  0  0  0  0999 V2000
    5.9990   43.8930   49.9500 O   0  0  0  0  0  0  0  0  0  0  0  0
    5.6830   44.4930   51.0130 C   0  0  0  0  0  0  0  0  0  0  0  0
    4.3220   44.3050   51.5670 C   0  0  0  0  0  0  0  0  0  0  0  0
    3.3600   45.3200   51.4320 C   0  0  0  0  0  0  0  0  0  0  0  0
    2.0710   45.1460   51.9440 C   0  0  0  0  0  0  0  0  0  0  0  0
    1.7140   43.9470   52.5790 C   0  0  0  0  0  0  0  0  0  0  0  0
    0.3950   43.7680   53.1230 N   0  0  0  0  0  0  0  0  0  0  0  0
   -0.6590   43.1760   52.5080 C   0  0  0  0  0  0  0  0  0  0  0  0
   -1.7800   43.1390   53.2760 N   0  0  0  0  0  0  0  0  0  0  0  0
   -1.3890   43.7460   54.4120 C   0  0  0  0  0  0  0  0  0  0  0  0
   -2.1640   44.0070   55.5390 C   0  0  0  0  0  0  0  0  0  0  0  0
   -1.5590   44.7010   56.6040 C   0  0  0  0  0  0  0  0  0  0  0  0
   -0.2120   45.1200   56.5100 C   0  0  0  0  0  0  0  0  0  0  0  0
    0.5430   44.8420   55.3550 C   0  0  0  0  0  0  0  0  0  0  0  0
   -0.0820   44.1310   54.3270 C   0  0  0  0  0  0  0  0  0  0  0  0
    2.6740   42.9320   52.7150 C   0  0  0  0  0  0  0  0  0  0  0  0
    3.9630   43.1050   52.2040 C   0  0  0  0  0  0  0  0  0  0  0  0
    6.6550   45.3320   51.6660 N   0  0  0  0  0  0  0  0  0  0  0  0
    7.6320   46.0620   50.8460 C   0  0  0  0  0  0  0  0  0  0  0  0
    8.4920   46.9960   51.7030 C   0  0  0  0  0  0  0  0  0  0  0  0
    7.5930   47.8400   52.6130 C   0  0  0  0  0  0  0  0  0  0  0  0
    6.6630   46.9840   53.5380 C   0  0  1  0  0  0  0  0  0  0  0  0
    7.1410   47.0950   54.8590 O   0  0  0  0  0  0  0  0  0  0  0  0
    5.2130   47.5310   53.4760 C   0  0  0  0  0  0  0  0  0  0  0  0
    4.7650   47.8980   54.7550 O   0  0  0  0  0  0  0  0  0  0  0  0
    6.6690   45.4840   53.1280 C   0  0  0  0  0  0  0  0  0  0  0  0
    3.6228   46.2575   50.9202 H   0  0  0  0  0  0  0  0  0  0  0  0
    1.3315   45.9547   51.8484 H   0  0  0  0  0  0  0  0  0  0  0  0
   -0.6114   42.7662   51.4883 H   0  0  0  0  0  0  0  0  0  0  0  0
   -3.2134   43.6819   55.5953 H   0  0  0  0  0  0  0  0  0  0  0  0
   -2.1374   44.9184   57.5141 H   0  0  0  0  0  0  0  0  0  0  0  0
    0.2493   45.6671   57.3454 H   0  0  0  0  0  0  0  0  0  0  0  0
    1.5882   45.1728   55.2647 H   0  0  0  0  0  0  0  0  0  0  0  0
    2.4100   41.9948   53.2269 H   0  0  0  0  0  0  0  0  0  0  0  0
    4.7020   42.2960   52.3011 H   0  0  0  0  0  0  0  0  0  0  0  0
    8.2862   45.3377   50.3388 H   0  0  0  0  0  0  0  0  0  0  0  0
    7.0831   46.6713   50.1129 H   0  0  0  0  0  0  0  0  0  0  0  0
    9.1775   46.3971   52.3206 H   0  0  0  0  0  0  0  0  0  0  0  0
    9.0709   47.6616   51.0459 H   0  0  0  0  0  0  0  0  0  0  0  0
    8.2333   48.4691   53.2489 H   0  0  0  0  0  0  0  0  0  0  0  0
    6.9397   48.4370   51.9597 H   0  0  0  0  0  0  0  0  0  0  0  0
    7.9210   47.7100   54.8530 H   0  0  0  0  0  0  0  0  0  0  0  0
    5.1875   48.4121   52.8180 H   0  0  0  0  0  0  0  0  0  0  0  0
    4.5543   46.7421   53.0839 H   0  0  0  0  0  0  0  0  0  0  0  0
    4.1190   48.6430   54.6380 H   0  0  0  0  0  0  0  0  0  0  0  0
    7.5746   45.0060   53.5297 H   0  0  0  0  0  0  0  0  0  0  0  0
    5.7652   45.0079   53.5361 H   0  0  0  0  0  0  0  0  0  0  0  0
  1  2  2  0
  2  3  1  0
  3  4  2  0
  4  5  1  0
  5  6  2  0
  6  7  1  0
  7  8  1  0
  8  9  2  0
  9 10  1  0
 10 11  2  0
 11 12  1  0
 12 13  2  0
 13 14  1  0
 14 15  2  0
  6 16  1  0
 16 17  2  0
  2 18  1  0
 18 19  1  0
 19 20  1  0
 20 21  1  0
 21 22  1  0
 22 23  1  1
 22 24  1  0
 24 25  1  0
 22 26  1  0
 17  3  1  0
 26 18  1  0
 15  7  1  0
 15 10  1  0
  4 27  1  0
  5 28  1  0
  8 29  1  0
 11 30  1  0
 12 31  1  0
 13 32  1  0
 14 33  1  0
 16 34  1  0
 17 35  1  0
 19 36  1  0
 19 37  1  0
 20 38  1  0
 20 39  1  0
 21 40  1  0
 21 41  1  0
 23 42  1  0
 24 43  1  0
 24 44  1  0
 25 45  1  0
 26 46  1  0
 26 47  1  0
M  END
>  <meeko>  (5) 
{"is_sidechain": [false], "free_energy": -8.447, "intermolecular_energy": -10.91, "internal_energy": -0.867}

$$$$
