MODEL 1
REMARK VINA RESULT:    -9.084      0.000      0.000
REMARK INTER + INTRA:         -11.086
REMARK INTER:                 -10.677
REMARK INTRA:                  -0.409
REMARK UNBOUND:                -0.409
REMARK SMILES C[C@H]1CC[C@@]2(CCN(C(=O)c3ccc(-c4nn[nH]n4)o3)C2)CC1
REMARK SMILES IDX 11 1 12 2 13 3 14 4 20 5 9 6 10 7 8 8 2 9 3 10 23 11 4 12
REMARK SMILES IDX 22 13 5 14 6 15 21 16 7 17 1 18 15 19 16 20 19 21 17 22
REMARK SMILES IDX 18 23
REMARK H PARENT 18 24
ROOT
ATOM      1  C   UNL     1       8.748  45.391  51.031  1.00  0.00     0.192 A 
ATOM      2  C   UNL     1      10.125  45.373  50.900  1.00  0.00     0.057 A 
ATOM      3  C   UNL     1      10.619  46.081  51.975  1.00  0.00     0.055 A 
ATOM      4  C   UNL     1       9.511  46.488  52.692  1.00  0.00     0.176 A 
ATOM      5  O   UNL     1       8.415  46.065  52.107  1.00  0.00    -0.447 OA
ENDROOT
BRANCH   1   6
ATOM      6  C   UNL     1       7.790  44.760  50.100  1.00  0.00     0.289 C 
ATOM      7  O   UNL     1       8.180  44.467  48.937  1.00  0.00    -0.265 OA
BRANCH   6   8
ATOM      8  N   UNL     1       6.428  44.475  50.478  1.00  0.00    -0.335 N 
ATOM      9  C   UNL     1       2.753  46.350  53.477  1.00  0.00    -0.014 C 
ATOM     10  C   UNL     1       2.683  46.604  51.959  1.00  0.00     0.004 C 
ATOM     11  C   UNL     1       4.073  45.655  53.862  1.00  0.00     0.004 C 
ATOM     12  C   UNL     1       2.916  45.327  51.139  1.00  0.00     0.009 C 
ATOM     13  C   UNL     1       4.353  44.394  53.023  1.00  0.00     0.009 C 
ATOM     14  C   UNL     1       4.263  44.644  51.489  1.00  0.00    -0.010 C 
ATOM     15  C   UNL     1       4.392  43.297  50.741  1.00  0.00     0.030 C 
ATOM     16  C   UNL     1       5.477  45.455  50.978  1.00  0.00     0.127 C 
ATOM     17  C   UNL     1       5.874  43.134  50.434  1.00  0.00     0.120 C 
ATOM     18  C   UNL     1       1.525  45.585  53.997  1.00  0.00     0.007 C 
ENDBRANCH   6   8
ENDBRANCH   1   6
BRANCH   4  19
ATOM     19  C   UNL     1       9.525  47.274  53.928  1.00  0.00     0.239 A 
ATOM     20  N   UNL     1      10.343  47.030  54.969  1.00  0.00    -0.105 NA
ATOM     21  N   UNL     1       8.725  48.331  54.168  1.00  0.00    -0.130 NA
ATOM     22  N   UNL     1      10.038  47.955  55.863  1.00  0.00    -0.050 NA
ATOM     23  N   UNL     1       9.076  48.723  55.381  1.00  0.00    -0.177 N 
ATOM     24  H   UNL     1       8.652  49.531  55.888  1.00  0.00     0.216 HD
ENDBRANCH   4  19
TORSDOF 3
ENDMDL
MODEL 2
REMARK VINA RESULT:    -9.074      4.853      8.011
REMARK INTER + INTRA:         -11.074
REMARK INTER:                 -10.653
REMARK INTRA:                  -0.421
REMARK UNBOUND:                -0.409
REMARK SMILES C[C@H]1CC[C@@]2(CCN(C(=O)c3ccc(-c4nn[nH]n4)o3)C2)CC1
REMARK SMILES IDX 11 1 12 2 13 3 14 4 20 5 9 6 10 7 8 8 2 9 3 10 23 11 4 12
REMARK SMILES IDX 22 13 5 14 6 15 21 16 7 17 1 18 15 19 16 20 19 21 17 22
REMARK SMILES IDX 18 23
REMARK H PARENT 18 24
ROOT
ATOM      1  C   UNL     1       1.734  45.905  53.023  1.00  0.00     0.192 A 
ATOM      2  C   UNL     1       1.056  45.256  52.005  1.00  0.00     0.057 A 
ATOM      3  C   UNL     1       0.021  44.577  52.612  1.00  0.00     0.055 A 
ATOM      4  C   UNL     1       0.134  44.854  53.960  1.00  0.00     0.176 A 
ATOM      5  O   UNL     1       1.161  45.643  54.174  1.00  0.00    -0.447 OA
ENDROOT
BRANCH   1   6
ATOM      6  C   UNL     1       2.929  46.757  52.849  1.00  0.00     0.289 C 
ATOM      7  O   UNL     1       2.776  47.931  52.416  1.00  0.00    -0.265 OA
BRANCH   6   8
ATOM      8  N   UNL     1       4.257  46.286  53.153  1.00  0.00    -0.335 N 
ATOM      9  C   UNL     1       9.109  47.279  51.931  1.00  0.00    -0.014 C 
ATOM     10  C   UNL     1       8.560  47.775  53.282  1.00  0.00     0.004 C 
ATOM     11  C   UNL     1       7.989  46.656  51.075  1.00  0.00     0.004 C 
ATOM     12  C   UNL     1       7.800  46.680  54.045  1.00  0.00     0.009 C 
ATOM     13  C   UNL     1       7.181  45.586  51.831  1.00  0.00     0.009 C 
ATOM     14  C   UNL     1       6.643  46.079  53.206  1.00  0.00    -0.010 C 
ATOM     15  C   UNL     1       5.994  44.895  53.958  1.00  0.00     0.030 C 
ATOM     16  C   UNL     1       5.473  47.075  53.029  1.00  0.00     0.127 C 
ATOM     17  C   UNL     1       4.519  44.926  53.585  1.00  0.00     0.120 C 
ATOM     18  C   UNL     1      10.302  46.325  52.102  1.00  0.00     0.007 C 
ENDBRANCH   6   8
ENDBRANCH   1   6
BRANCH   4  19
ATOM     19  C   UNL     1      -0.747  44.356  55.019  1.00  0.00     0.239 A 
ATOM     20  N   UNL     1      -1.671  43.393  54.841  1.00  0.00    -0.105 NA
ATOM     21  N   UNL     1      -0.737  44.800  56.291  1.00  0.00    -0.130 NA
ATOM     22  N   UNL     1      -2.237  43.245  56.028  1.00  0.00    -0.050 NA
ATOM     23  N   UNL     1      -1.677  44.084  56.883  1.00  0.00    -0.177 N 
ATOM     24  H   UNL     1      -1.941  44.169  57.889  1.00  0.00     0.216 HD
ENDBRANCH   4  19
TORSDOF 3
ENDMDL
MODEL 3
REMARK VINA RESULT:    -8.807      1.653      2.684
REMARK INTER + INTRA:         -10.760
REMARK INTER:                 -10.326
REMARK INTRA:                  -0.434
REMARK UNBOUND:                -0.409
REMARK SMILES C[C@H]1CC[C@@]2(CCN(C(=O)c3ccc(-c4nn[nH]n4)o3)C2)CC1
REMARK SMILES IDX 11 1 12 2 13 3 14 4 20 5 9 6 10 7 8 8 2 9 3 10 23 11 4 12
REMARK SMILES IDX 22 13 5 14 6 15 21 16 7 17 1 18 15 19 16 20 19 21 17 22
REMARK SMILES IDX 18 23
REMARK H PARENT 18 24
ROOT
ATOM      1  C   UNL     1       7.094  45.868  52.059  1.00  0.00     0.192 A 
ATOM      2  C   UNL     1       7.936  46.501  51.162  1.00  0.00     0.057 A 
ATOM      3  C   UNL     1       8.865  47.176  51.925  1.00  0.00     0.055 A 
ATOM      4  C   UNL     1       8.530  46.912  53.239  1.00  0.00     0.176 A 
ATOM      5  O   UNL     1       7.474  46.134  53.287  1.00  0.00    -0.447 OA
ENDROOT
BRANCH   1   6
ATOM      6  C   UNL     1       5.935  45.025  51.698  1.00  0.00     0.289 C 
ATOM      7  O   UNL     1       6.141  43.949  51.074  1.00  0.00    -0.265 OA
BRANCH   6   8
ATOM      8  N   UNL     1       4.583  45.398  52.031  1.00  0.00    -0.335 N 
ATOM      9  C   UNL     1       0.423  43.399  54.203  1.00  0.00    -0.014 C 
ATOM     10  C   UNL     1       1.298  44.372  55.016  1.00  0.00     0.004 C 
ATOM     11  C   UNL     1       1.074  43.072  52.845  1.00  0.00     0.004 C 
ATOM     12  C   UNL     1       1.649  45.643  54.229  1.00  0.00     0.009 C 
ATOM     13  C   UNL     1       1.476  44.330  52.055  1.00  0.00     0.009 C 
ATOM     14  C   UNL     1       2.345  45.323  52.881  1.00  0.00    -0.010 C 
ATOM     15  C   UNL     1       2.557  46.620  52.067  1.00  0.00     0.030 C 
ATOM     16  C   UNL     1       3.782  44.786  53.080  1.00  0.00     0.127 C 
ATOM     17  C   UNL     1       3.857  46.420  51.301  1.00  0.00     0.120 C 
ATOM     18  C   UNL     1      -1.019  43.908  54.044  1.00  0.00     0.007 C 
ENDBRANCH   6   8
ENDBRANCH   1   6
BRANCH   4  19
ATOM     19  C   UNL     1       9.230  47.411  54.424  1.00  0.00     0.239 A 
ATOM     20  N   UNL     1      10.294  46.803  54.984  1.00  0.00    -0.105 NA
ATOM     21  N   UNL     1       8.896  48.531  55.093  1.00  0.00    -0.130 NA
ATOM     22  N   UNL     1      10.617  47.567  56.014  1.00  0.00    -0.050 NA
ATOM     23  N   UNL     1       9.782  48.590  56.072  1.00  0.00    -0.177 N 
ATOM     24  H   UNL     1       9.818  49.344  56.794  1.00  0.00     0.216 HD
ENDBRANCH   4  19
TORSDOF 3
ENDMDL
MODEL 4
REMARK VINA RESULT:    -8.798      4.980      7.571
REMARK INTER + INTRA:         -10.750
REMARK INTER:                 -10.275
REMARK INTRA:                  -0.475
REMARK UNBOUND:                -0.409
REMARK SMILES C[C@H]1CC[C@@]2(CCN(C(=O)c3ccc(-c4nn[nH]n4)o3)C2)CC1
REMARK SMILES IDX 11 1 12 2 13 3 14 4 20 5 9 6 10 7 8 8 2 9 3 10 23 11 4 12
REMARK SMILES IDX 22 13 5 14 6 15 21 16 7 17 1 18 15 19 16 20 19 21 17 22
REMARK SMILES IDX 18 23
REMARK H PARENT 18 24
ROOT
ATOM      1  C   UNL     1       0.843  44.506  54.781  1.00  0.00     0.192 A 
ATOM      2  C   UNL     1      -0.496  44.227  54.989  1.00  0.00     0.057 A 
ATOM      3  C   UNL     1      -0.841  44.875  56.157  1.00  0.00     0.055 A 
ATOM      4  C   UNL     1       0.310  45.506  56.586  1.00  0.00     0.176 A 
ATOM      5  O   UNL     1       1.293  45.268  55.750  1.00  0.00    -0.447 OA
ENDROOT
BRANCH   1   6
ATOM      6  C   UNL     1       1.654  44.016  53.646  1.00  0.00     0.289 C 
ATOM      7  O   UNL     1       1.604  42.791  53.352  1.00  0.00    -0.265 OA
BRANCH   6   8
ATOM      8  N   UNL     1       2.499  44.892  52.874  1.00  0.00    -0.335 N 
ATOM      9  C   UNL     1       7.436  46.063  52.350  1.00  0.00    -0.014 C 
ATOM     10  C   UNL     1       6.766  45.156  51.301  1.00  0.00     0.004 C 
ATOM     11  C   UNL     1       6.476  46.360  53.519  1.00  0.00     0.004 C 
ATOM     12  C   UNL     1       5.424  45.717  50.810  1.00  0.00     0.009 C 
ATOM     13  C   UNL     1       5.106  46.883  53.051  1.00  0.00     0.009 C 
ATOM     14  C   UNL     1       4.436  45.977  51.976  1.00  0.00    -0.010 C 
ATOM     15  C   UNL     1       3.156  46.665  51.450  1.00  0.00     0.030 C 
ATOM     16  C   UNL     1       3.908  44.662  52.596  1.00  0.00     0.127 C 
ATOM     17  C   UNL     1       2.020  46.145  52.320  1.00  0.00     0.120 C 
ATOM     18  C   UNL     1       8.004  47.350  51.729  1.00  0.00     0.007 C 
ENDBRANCH   6   8
ENDBRANCH   1   6
BRANCH   4  19
ATOM     19  C   UNL     1       0.444  46.328  57.791  1.00  0.00     0.239 A 
ATOM     20  N   UNL     1      -0.561  47.043  58.333  1.00  0.00    -0.105 NA
ATOM     21  N   UNL     1       1.582  46.465  58.497  1.00  0.00    -0.130 NA
ATOM     22  N   UNL     1      -0.025  47.628  59.391  1.00  0.00    -0.050 NA
ATOM     23  N   UNL     1       1.247  47.281  59.482  1.00  0.00    -0.177 N 
ATOM     24  H   UNL     1       1.898  47.606  60.230  1.00  0.00     0.216 HD
ENDBRANCH   4  19
TORSDOF 3
ENDMDL
MODEL 5
REMARK VINA RESULT:    -8.758      4.375      8.311
REMARK INTER + INTRA:         -10.703
REMARK INTER:                 -10.348
REMARK INTRA:                  -0.355
REMARK UNBOUND:                -0.409
REMARK SMILES C[C@H]1CC[C@@]2(CCN(C(=O)c3ccc(-c4nn[nH]n4)o3)C2)CC1
REMARK SMILES IDX 11 1 12 2 13 3 14 4 20 5 9 6 10 7 8 8 2 9 3 10 23 11 4 12
REMARK SMILES IDX 22 13 5 14 6 15 21 16 7 17 1 18 15 19 16 20 19 21 17 22
REMARK SMILES IDX 18 23
REMARK H PARENT 18 24
ROOT
ATOM      1  C   UNL     1       1.818  45.769  53.353  1.00  0.00     0.192 A 
ATOM      2  C   UNL     1       1.280  45.544  54.608  1.00  0.00     0.057 A 
ATOM      3  C   UNL     1       0.221  44.682  54.418  1.00  0.00     0.055 A 
ATOM      4  C   UNL     1       0.179  44.438  53.059  1.00  0.00     0.176 A 
ATOM      5  O   UNL     1       1.139  45.098  52.453  1.00  0.00    -0.447 OA
ENDROOT
BRANCH   1   6
ATOM      6  C   UNL     1       2.976  46.640  53.061  1.00  0.00     0.289 C 
ATOM      7  O   UNL     1       2.767  47.770  52.543  1.00  0.00    -0.265 OA
BRANCH   6   8
ATOM      8  N   UNL     1       4.330  46.235  53.344  1.00  0.00    -0.335 N 
ATOM      9  C   UNL     1       9.089  47.242  51.810  1.00  0.00    -0.014 C 
ATOM     10  C   UNL     1       8.587  47.844  53.135  1.00  0.00     0.004 C 
ATOM     11  C   UNL     1       7.953  46.514  51.066  1.00  0.00     0.004 C 
ATOM     12  C   UNL     1       7.895  46.804  54.028  1.00  0.00     0.009 C 
ATOM     13  C   UNL     1       7.213  45.496  51.953  1.00  0.00     0.009 C 
ATOM     14  C   UNL     1       6.721  46.098  53.302  1.00  0.00    -0.010 C 
ATOM     15  C   UNL     1       6.144  44.970  54.187  1.00  0.00     0.030 C 
ATOM     16  C   UNL     1       5.514  47.042  53.091  1.00  0.00     0.127 C 
ATOM     17  C   UNL     1       4.653  44.927  53.883  1.00  0.00     0.120 C 
ATOM     18  C   UNL     1      10.319  46.340  52.009  1.00  0.00     0.007 C 
ENDBRANCH   6   8
ENDBRANCH   1   6
BRANCH   4  19
ATOM     19  C   UNL     1      -0.780  43.574  52.367  1.00  0.00     0.239 A 
ATOM     20  N   UNL     1      -1.490  42.600  52.970  1.00  0.00    -0.105 NA
ATOM     21  N   UNL     1      -1.065  43.650  51.054  1.00  0.00    -0.130 NA
ATOM     22  N   UNL     1      -2.224  42.072  52.005  1.00  0.00    -0.050 NA
ATOM     23  N   UNL     1      -1.966  42.700  50.870  1.00  0.00    -0.177 N 
ATOM     24  H   UNL     1      -2.413  42.477  49.954  1.00  0.00     0.216 HD
ENDBRANCH   4  19
TORSDOF 3
ENDMDL
