ligand_22_conformer_3_docked
     RDKit          3D

 37 40  0  0  0  0  0  0  0  0999 V2000
    6.5180   45.5920   55.3130 O   0  0  0  0  0  0  0  0  0  0  0  0
    5.3430   45.6960   54.8750 C   0  0  0  0  0  0  0  0  0  0  0  0
    4.3470   44.7030   55.0850 N   0  0  0  0  0  0  0  0  0  0  0  0
    3.1390   45.1300   54.3840 C   0  0  2  0  0  0  0  0  0  0  0  0
    1.9040   45.1700   55.3160 C   0  0  0  0  0  0  0  0  0  0  0  0
    0.8290   44.2670   54.6750 C   0  0  0  0  0  0  0  0  0  0  0  0
    1.4930   43.6980   53.4750 C   0  0  0  0  0  0  0  0  0  0  0  0
    0.9370   42.7940   52.5660 C   0  0  0  0  0  0  0  0  0  0  0  0
    1.7110   42.3690   51.4750 C   0  0  0  0  0  0  0  0  0  0  0  0
    3.0220   42.8520   51.3070 C   0  0  0  0  0  0  0  0  0  0  0  0
    3.5610   43.7600   52.2310 C   0  0  0  0  0  0  0  0  0  0  0  0
    2.7710   44.1710   53.3120 C   0  0  0  0  0  0  0  0  0  0  0  0
    3.5260   46.4710   53.8270 C   0  0  0  0  0  0  0  0  0  0  0  0
    2.7660   47.2050   53.1390 O   0  0  0  0  0  0  0  0  0  0  0  0
    4.8810   46.8050   54.1160 N   0  0  0  0  0  0  0  0  0  0  0  0
    5.7190   47.6720   53.2890 C   0  0  0  0  0  0  0  0  0  0  0  0
    6.4340   46.8530   52.2460 C   0  0  0  0  0  0  0  0  0  0  0  0
    5.6820   46.0990   51.3960 N   0  0  0  0  0  0  0  0  0  0  0  0
    6.2390   45.2750   50.4710 C   0  0  0  0  0  0  0  0  0  0  0  0
    7.6260   45.1730   50.3730 C   0  0  0  0  0  0  0  0  0  0  0  0
    8.3550   44.1000   49.1910 Cl  0  0  0  0  0  0  0  0  0  0  0  0
    8.4280   45.9300   51.2280 C   0  0  0  0  0  0  0  0  0  0  0  0
    7.8410   46.7760   52.1740 C   0  0  0  0  0  0  0  0  0  0  0  0
    8.8970   47.7120   53.2270 Cl  0  0  0  0  0  0  0  0  0  0  0  0
    4.4870   43.7920   55.5760 H   0  0  0  0  0  0  0  0  0  0  0  0
    2.1706   44.7909   56.3136 H   0  0  0  0  0  0  0  0  0  0  0  0
    1.5338   46.1990   55.4351 H   0  0  0  0  0  0  0  0  0  0  0  0
    0.5274   43.4683   55.3686 H   0  0  0  0  0  0  0  0  0  0  0  0
   -0.0882   44.8200   54.4243 H   0  0  0  0  0  0  0  0  0  0  0  0
   -0.0891   42.4220   52.7031 H   0  0  0  0  0  0  0  0  0  0  0  0
    1.2917   41.6565   50.7494 H   0  0  0  0  0  0  0  0  0  0  0  0
    3.6251   42.5173   50.4501 H   0  0  0  0  0  0  0  0  0  0  0  0
    4.5852   44.1420   52.1086 H   0  0  0  0  0  0  0  0  0  0  0  0
    5.0875   48.4235   52.7925 H   0  0  0  0  0  0  0  0  0  0  0  0
    6.4618   48.1727   53.9274 H   0  0  0  0  0  0  0  0  0  0  0  0
    5.5956   44.6880   49.7990 H   0  0  0  0  0  0  0  0  0  0  0  0
    9.5236   45.8611   51.1577 H   0  0  0  0  0  0  0  0  0  0  0  0
  1  2  2  0
  2  3  1  0
  4  3  1  1
  4  5  1  0
  5  6  1  0
  6  7  1  0
  7  8  2  0
  8  9  1  0
  9 10  2  0
 10 11  1  0
 11 12  2  0
  4 13  1  0
 13 14  2  0
 13 15  1  0
 15 16  1  0
 16 17  1  0
 17 18  2  0
 18 19  1  0
 19 20  2  0
 20 21  1  0
 20 22  1  0
 22 23  2  0
 23 24  1  0
 15  2  1  0
 23 17  1  0
 12  4  1  0
 12  7  1  0
  3 25  1  0
  5 26  1  0
  5 27  1  0
  6 28  1  0
  6 29  1  0
  8 30  1  0
  9 31  1  0
 10 32  1  0
 11 33  1  0
 16 34  1  0
 16 35  1  0
 19 36  1  0
 22 37  1  0
M  END
>  <meeko>  (1) 
{"is_sidechain": [false], "free_energy": -9.401, "intermolecular_energy": -10.5, "internal_energy": -0.357}

$$$$
ligand_22_conformer_3_docked
     RDKit          3D

 37 40  0  0  0  0  0  0  0  0999 V2000
    1.6410   45.5080   51.0610 O   0  0  0  0  0  0  0  0  0  0  0  0
    2.8150   45.3990   51.4990 C   0  0  0  0  0  0  0  0  0  0  0  0
    3.9370   45.9990   50.8630 N   0  0  0  0  0  0  0  0  0  0  0  0
    5.1310   45.6070   51.6070 C   0  0  2  0  0  0  0  0  0  0  0  0
    5.9680   46.8280   52.0580 C   0  0  0  0  0  0  0  0  0  0  0  0
    7.3920   46.6260   51.4990 C   0  0  0  0  0  0  0  0  0  0  0  0
    7.3030   45.3730   50.7070 C   0  0  0  0  0  0  0  0  0  0  0  0
    8.3340   44.7750   49.9770 C   0  0  0  0  0  0  0  0  0  0  0  0
    8.0720   43.5770   49.2930 C   0  0  0  0  0  0  0  0  0  0  0  0
    6.7920   42.9970   49.3490 C   0  0  0  0  0  0  0  0  0  0  0  0
    5.7710   43.6140   50.0870 C   0  0  0  0  0  0  0  0  0  0  0  0
    6.0540   44.8070   50.7620 C   0  0  0  0  0  0  0  0  0  0  0  0
    4.5720   44.7970   52.7450 C   0  0  0  0  0  0  0  0  0  0  0  0
    5.2680   44.2560   53.6450 O   0  0  0  0  0  0  0  0  0  0  0  0
    3.1560   44.6600   52.6640 N   0  0  0  0  0  0  0  0  0  0  0  0
    2.3970   43.5310   53.2010 C   0  0  0  0  0  0  0  0  0  0  0  0
    1.3150   44.0310   54.1230 C   0  0  0  0  0  0  0  0  0  0  0  0
    1.6810   44.8100   55.1790 N   0  0  0  0  0  0  0  0  0  0  0  0
    0.7870   45.2480   56.1030 C   0  0  0  0  0  0  0  0  0  0  0  0
   -0.5580   44.8950   55.9940 C   0  0  0  0  0  0  0  0  0  0  0  0
   -1.7180   45.4430   57.1900 Cl  0  0  0  0  0  0  0  0  0  0  0  0
   -0.9690   44.0970   54.9250 C   0  0  0  0  0  0  0  0  0  0  0  0
   -0.0380   43.6550   53.9800 C   0  0  0  0  0  0  0  0  0  0  0  0
   -0.6080   42.6540   52.6490 Cl  0  0  0  0  0  0  0  0  0  0  0  0
    3.9150   46.5460   49.9740 H   0  0  0  0  0  0  0  0  0  0  0  0
    5.5319   47.7547   51.6566 H   0  0  0  0  0  0  0  0  0  0  0  0
    5.9836   46.9114   53.1547 H   0  0  0  0  0  0  0  0  0  0  0  0
    7.6824   47.4717   50.8584 H   0  0  0  0  0  0  0  0  0  0  0  0
    8.1502   46.5670   52.2938 H   0  0  0  0  0  0  0  0  0  0  0  0
    9.3327   45.2346   49.9390 H   0  0  0  0  0  0  0  0  0  0  0  0
    8.8697   43.0910   48.7120 H   0  0  0  0  0  0  0  0  0  0  0  0
    6.5911   42.0577   48.8130 H   0  0  0  0  0  0  0  0  0  0  0  0
    4.7664   43.1684   50.1343 H   0  0  0  0  0  0  0  0  0  0  0  0
    1.9395   42.9718   52.3715 H   0  0  0  0  0  0  0  0  0  0  0  0
    3.0762   42.8735   53.7635 H   0  0  0  0  0  0  0  0  0  0  0  0
    1.1237   45.8811   56.9372 H   0  0  0  0  0  0  0  0  0  0  0  0
   -2.0277   43.8152   54.8258 H   0  0  0  0  0  0  0  0  0  0  0  0
  1  2  2  0
  2  3  1  0
  4  3  1  6
  4  5  1  0
  5  6  1  0
  6  7  1  0
  7  8  2  0
  8  9  1  0
  9 10  2  0
 10 11  1  0
 11 12  2  0
  4 13  1  0
 13 14  2  0
 13 15  1  0
 15 16  1  0
 16 17  1  0
 17 18  2  0
 18 19  1  0
 19 20  2  0
 20 21  1  0
 20 22  1  0
 22 23  2  0
 23 24  1  0
 15  2  1  0
 23 17  1  0
 12  4  1  0
 12  7  1  0
  3 25  1  0
  5 26  1  0
  5 27  1  0
  6 28  1  0
  6 29  1  0
  8 30  1  0
  9 31  1  0
 10 32  1  0
 11 33  1  0
 16 34  1  0
 16 35  1  0
 19 36  1  0
 22 37  1  0
M  END
>  <meeko>  (2) 
{"is_sidechain": [false], "free_energy": -9.302, "intermolecular_energy": -10.293, "internal_energy": -0.453}

$$$$
ligand_22_conformer_3_docked
     RDKit          3D

 37 40  0  0  0  0  0  0  0  0999 V2000
    2.7270   47.2850   52.9410 O   0  0  0  0  0  0  0  0  0  0  0  0
    3.8670   46.7520   52.9030 C   0  0  0  0  0  0  0  0  0  0  0  0
    4.7020   46.7930   51.7520 N   0  0  0  0  0  0  0  0  0  0  0  0
    5.9050   46.0210   52.0500 C   0  0  2  0  0  0  0  0  0  0  0  0
    7.1980   46.8370   51.8140 C   0  0  0  0  0  0  0  0  0  0  0  0
    8.0610   46.0320   50.8190 C   0  0  0  0  0  0  0  0  0  0  0  0
    7.2230   44.8570   50.4720 C   0  0  0  0  0  0  0  0  0  0  0  0
    7.5540   43.8330   49.5800 C   0  0  0  0  0  0  0  0  0  0  0  0
    6.6400   42.7860   49.3820 C   0  0  0  0  0  0  0  0  0  0  0  0
    5.4160   42.7770   50.0750 C   0  0  0  0  0  0  0  0  0  0  0  0
    5.1030   43.8130   50.9660 C   0  0  0  0  0  0  0  0  0  0  0  0
    6.0300   44.8470   51.1490 C   0  0  0  0  0  0  0  0  0  0  0  0
    5.6980   45.6080   53.4810 C   0  0  0  0  0  0  0  0  0  0  0  0
    6.5120   44.9140   54.1490 O   0  0  0  0  0  0  0  0  0  0  0  0
    4.4420   46.0440   53.9920 N   0  0  0  0  0  0  0  0  0  0  0  0
    3.6930   45.3670   55.0500 C   0  0  0  0  0  0  0  0  0  0  0  0
    2.5690   44.5630   54.4510 C   0  0  0  0  0  0  0  0  0  0  0  0
    2.8420   43.7880   53.3640 N   0  0  0  0  0  0  0  0  0  0  0  0
    1.8790   43.0840   52.7130 C   0  0  0  0  0  0  0  0  0  0  0  0
    0.5560   43.1470   53.1480 C   0  0  0  0  0  0  0  0  0  0  0  0
   -0.6970   42.2530   52.3050 Cl  0  0  0  0  0  0  0  0  0  0  0  0
    0.2390   43.9310   54.2580 C   0  0  0  0  0  0  0  0  0  0  0  0
    1.2400   44.6490   54.9200 C   0  0  0  0  0  0  0  0  0  0  0  0
    0.7890   45.6200   56.3160 Cl  0  0  0  0  0  0  0  0  0  0  0  0
    4.4540   47.2210   50.8330 H   0  0  0  0  0  0  0  0  0  0  0  0
    6.9517   47.8219   51.3904 H   0  0  0  0  0  0  0  0  0  0  0  0
    7.7371   47.0024   52.7585 H   0  0  0  0  0  0  0  0  0  0  0  0
    8.2828   46.6304   49.9230 H   0  0  0  0  0  0  0  0  0  0  0  0
    9.0333   45.7432   51.2447 H   0  0  0  0  0  0  0  0  0  0  0  0
    8.5137   43.8473   49.0427 H   0  0  0  0  0  0  0  0  0  0  0  0
    6.8815   41.9712   48.6836 H   0  0  0  0  0  0  0  0  0  0  0  0
    4.7025   41.9548   49.9174 H   0  0  0  0  0  0  0  0  0  0  0  0
    4.1476   43.8139   51.5111 H   0  0  0  0  0  0  0  0  0  0  0  0
    4.3675   44.6956   55.6016 H   0  0  0  0  0  0  0  0  0  0  0  0
    3.2742   46.1194   55.7345 H   0  0  0  0  0  0  0  0  0  0  0  0
    2.1433   42.4647   51.8432 H   0  0  0  0  0  0  0  0  0  0  0  0
   -0.8007   43.9844   54.6131 H   0  0  0  0  0  0  0  0  0  0  0  0
  1  2  2  0
  2  3  1  0
  4  3  1  6
  4  5  1  0
  5  6  1  0
  6  7  1  0
  7  8  2  0
  8  9  1  0
  9 10  2  0
 10 11  1  0
 11 12  2  0
  4 13  1  0
 13 14  2  0
 13 15  1  0
 15 16  1  0
 16 17  1  0
 17 18  2  0
 18 19  1  0
 19 20  2  0
 20 21  1  0
 20 22  1  0
 22 23  2  0
 23 24  1  0
 15  2  1  0
 23 17  1  0
 12  4  1  0
 12  7  1  0
  3 25  1  0
  5 26  1  0
  5 27  1  0
  6 28  1  0
  6 29  1  0
  8 30  1  0
  9 31  1  0
 10 32  1  0
 11 33  1  0
 16 34  1  0
 16 35  1  0
 19 36  1  0
 22 37  1  0
M  END
>  <meeko>  (3) 
{"is_sidechain": [false], "free_energy": -9.203, "intermolecular_energy": -10.534, "internal_energy": -0.102}

$$$$
ligand_22_conformer_3_docked
     RDKit          3D

 37 40  0  0  0  0  0  0  0  0999 V2000
    6.1300   45.6460   55.6030 O   0  0  0  0  0  0  0  0  0  0  0  0
    5.2320   45.5420   54.7280 C   0  0  0  0  0  0  0  0  0  0  0  0
    4.4430   44.3710   54.5640 N   0  0  0  0  0  0  0  0  0  0  0  0
    3.5590   44.5880   53.4210 C   0  0  2  0  0  0  0  0  0  0  0  0
    2.0720   44.3570   53.7790 C   0  0  0  0  0  0  0  0  0  0  0  0
    1.5350   43.2930   52.7980 C   0  0  0  0  0  0  0  0  0  0  0  0
    2.7180   42.9070   51.9890 C   0  0  0  0  0  0  0  0  0  0  0  0
    2.7540   41.9490   50.9720 C   0  0  0  0  0  0  0  0  0  0  0  0
    3.9650   41.7220   50.2990 C   0  0  0  0  0  0  0  0  0  0  0  0
    5.1160   42.4500   50.6500 C   0  0  0  0  0  0  0  0  0  0  0  0
    5.0590   43.4070   51.6740 C   0  0  0  0  0  0  0  0  0  0  0  0
    3.8400   43.6190   52.3310 C   0  0  0  0  0  0  0  0  0  0  0  0
    3.8760   45.9990   53.0100 C   0  0  0  0  0  0  0  0  0  0  0  0
    3.3310   46.6010   52.0460 O   0  0  0  0  0  0  0  0  0  0  0  0
    4.9120   46.5720   53.8030 N   0  0  0  0  0  0  0  0  0  0  0  0
    5.8310   47.6140   53.3450 C   0  0  0  0  0  0  0  0  0  0  0  0
    6.9900   46.9910   52.6110 C   0  0  0  0  0  0  0  0  0  0  0  0
    6.7310   46.3160   51.4560 N   0  0  0  0  0  0  0  0  0  0  0  0
    7.6990   45.6620   50.7640 C   0  0  0  0  0  0  0  0  0  0  0  0
    9.0120   45.6590   51.2360 C   0  0  0  0  0  0  0  0  0  0  0  0
   10.2670   44.8050   50.3560 Cl  0  0  0  0  0  0  0  0  0  0  0  0
    9.3140   46.3390   52.4160 C   0  0  0  0  0  0  0  0  0  0  0  0
    8.3070   47.0100   53.1170 C   0  0  0  0  0  0  0  0  0  0  0  0
    8.7420   47.8550   54.5990 Cl  0  0  0  0  0  0  0  0  0  0  0  0
    4.5440   43.4850   55.1070 H   0  0  0  0  0  0  0  0  0  0  0  0
    1.9838   43.9959   54.8143 H   0  0  0  0  0  0  0  0  0  0  0  0
    1.4978   45.2919   53.6991 H   0  0  0  0  0  0  0  0  0  0  0  0
    1.1371   42.4252   53.3444 H   0  0  0  0  0  0  0  0  0  0  0  0
    0.7089   43.6724   52.1786 H   0  0  0  0  0  0  0  0  0  0  0  0
    1.8497   41.3830   50.7037 H   0  0  0  0  0  0  0  0  0  0  0  0
    4.0137   40.9728   49.4951 H   0  0  0  0  0  0  0  0  0  0  0  0
    6.0629   42.2686   50.1204 H   0  0  0  0  0  0  0  0  0  0  0  0
    5.9546   43.9802   51.9558 H   0  0  0  0  0  0  0  0  0  0  0  0
    5.2977   48.2992   52.6696 H   0  0  0  0  0  0  0  0  0  0  0  0
    6.2106   48.1694   54.2153 H   0  0  0  0  0  0  0  0  0  0  0  0
    7.4482   45.1348   49.8317 H   0  0  0  0  0  0  0  0  0  0  0  0
   10.3463   46.3474   52.7958 H   0  0  0  0  0  0  0  0  0  0  0  0
  1  2  2  0
  2  3  1  0
  4  3  1  1
  4  5  1  0
  5  6  1  0
  6  7  1  0
  7  8  2  0
  8  9  1  0
  9 10  2  0
 10 11  1  0
 11 12  2  0
  4 13  1  0
 13 14  2  0
 13 15  1  0
 15 16  1  0
 16 17  1  0
 17 18  2  0
 18 19  1  0
 19 20  2  0
 20 21  1  0
 20 22  1  0
 22 23  2  0
 23 24  1  0
 15  2  1  0
 23 17  1  0
 12  4  1  0
 12  7  1  0
  3 25  1  0
  5 26  1  0
  5 27  1  0
  6 28  1  0
  6 29  1  0
  8 30  1  0
  9 31  1  0
 10 32  1  0
 11 33  1  0
 16 34  1  0
 16 35  1  0
 19 36  1  0
 22 37  1  0
M  END
>  <meeko>  (4) 
{"is_sidechain": [false], "free_energy": -9.052, "intermolecular_energy": -9.953, "internal_energy": -0.514}

$$$$
ligand_22_conformer_3_docked
     RDKit          3D

 37 40  0  0  0  0  0  0  0  0999 V2000
    4.2280   45.5440   55.3050 O   0  0  0  0  0  0  0  0  0  0  0  0
    3.7120   45.2770   54.1880 C   0  0  0  0  0  0  0  0  0  0  0  0
    3.2660   43.9740   53.8340 N   0  0  0  0  0  0  0  0  0  0  0  0
    2.7920   44.0270   52.4530 C   0  0  2  0  0  0  0  0  0  0  0  0
    1.3450   43.4980   52.3110 C   0  0  0  0  0  0  0  0  0  0  0  0
    1.3840   42.3620   51.2660 C   0  0  0  0  0  0  0  0  0  0  0  0
    2.8210   42.2330   50.9150 C   0  0  0  0  0  0  0  0  0  0  0  0
    3.3800   41.3180   50.0200 C   0  0  0  0  0  0  0  0  0  0  0  0
    4.7660   41.3470   49.7990 C   0  0  0  0  0  0  0  0  0  0  0  0
    5.5690   42.2860   50.4720 C   0  0  0  0  0  0  0  0  0  0  0  0
    4.9880   43.1970   51.3670 C   0  0  0  0  0  0  0  0  0  0  0  0
    3.6040   43.1500   51.5710 C   0  0  0  0  0  0  0  0  0  0  0  0
    2.9490   45.4790   52.0960 C   0  0  0  0  0  0  0  0  0  0  0  0
    2.6520   45.9740   50.9760 O   0  0  0  0  0  0  0  0  0  0  0  0
    3.5270   46.2360   53.1560 N   0  0  0  0  0  0  0  0  0  0  0  0
    4.3260   47.4470   52.9740 C   0  0  0  0  0  0  0  0  0  0  0  0
    5.7910   47.1210   53.1090 C   0  0  0  0  0  0  0  0  0  0  0  0
    6.4230   47.4710   54.2640 N   0  0  0  0  0  0  0  0  0  0  0  0
    7.7560   47.2830   54.4490 C   0  0  0  0  0  0  0  0  0  0  0  0
    8.5280   46.7230   53.4320 C   0  0  0  0  0  0  0  0  0  0  0  0
   10.2530   46.4900   53.6560 Cl  0  0  0  0  0  0  0  0  0  0  0  0
    7.9150   46.3540   52.2340 C   0  0  0  0  0  0  0  0  0  0  0  0
    6.5420   46.5510   52.0590 C   0  0  0  0  0  0  0  0  0  0  0  0
    5.8170   46.0650   50.5300 Cl  0  0  0  0  0  0  0  0  0  0  0  0
    3.3500   43.1180   54.4260 H   0  0  0  0  0  0  0  0  0  0  0  0
    0.9869   43.1117   53.2767 H   0  0  0  0  0  0  0  0  0  0  0  0
    0.6614   44.3001   51.9957 H   0  0  0  0  0  0  0  0  0  0  0  0
    1.0025   41.4241   51.6960 H   0  0  0  0  0  0  0  0  0  0  0  0
    0.7556   42.5769   50.3891 H   0  0  0  0  0  0  0  0  0  0  0  0
    2.7452   40.5873   49.4974 H   0  0  0  0  0  0  0  0  0  0  0  0
    5.2251   40.6342   49.0983 H   0  0  0  0  0  0  0  0  0  0  0  0
    6.6547   42.3060   50.2961 H   0  0  0  0  0  0  0  0  0  0  0  0
    5.6082   43.9340   51.8982 H   0  0  0  0  0  0  0  0  0  0  0  0
    4.1356   47.8624   51.9734 H   0  0  0  0  0  0  0  0  0  0  0  0
    4.0470   48.1834   53.7420 H   0  0  0  0  0  0  0  0  0  0  0  0
    8.2257   47.5725   55.4006 H   0  0  0  0  0  0  0  0  0  0  0  0
    8.5130   45.9074   51.4260 H   0  0  0  0  0  0  0  0  0  0  0  0
  1  2  2  0
  2  3  1  0
  4  3  1  1
  4  5  1  0
  5  6  1  0
  6  7  1  0
  7  8  2  0
  8  9  1  0
  9 10  2  0
 10 11  1  0
 11 12  2  0
  4 13  1  0
 13 14  2  0
 13 15  1  0
 15 16  1  0
 16 17  1  0
 17 18  2  0
 18 19  1  0
 19 20  2  0
 20 21  1  0
 20 22  1  0
 22 23  2  0
 23 24  1  0
 15  2  1  0
 23 17  1  0
 12  4  1  0
 12  7  1  0
  3 25  1  0
  5 26  1  0
  5 27  1  0
  6 28  1  0
  6 29  1  0
  8 30  1  0
  9 31  1  0
 10 32  1  0
 11 33  1  0
 16 34  1  0
 16 35  1  0
 19 36  1  0
 22 37  1  0
M  END
>  <meeko>  (5) 
{"is_sidechain": [false], "free_energy": -8.847, "intermolecular_energy": -10.136, "internal_energy": -0.102}

$$$$
