ligand_74_conformer_2_docked
     RDKit          3D

 46 49  0  0  0  0  0  0  0  0999 V2000
   -1.3690   48.8370   59.4720 C   0  0  0  0  0  0  0  0  0  0  0  0
   -2.4550   48.1700   58.6300 C   0  0  1  0  0  0  0  0  0  0  0  0
   -1.8930   47.4750   57.3770 C   0  0  0  0  0  0  0  0  0  0  0  0
   -2.3600   46.0670   57.5740 C   0  0  0  0  0  0  0  0  0  0  0  0
   -1.9790   44.9100   56.6880 C   0  0  0  0  0  0  0  0  0  0  0  0
   -0.5080   44.6040   56.6530 C   0  0  0  0  0  0  0  0  0  0  0  0
   -0.3110   44.9430   55.2330 N   0  0  0  0  0  0  0  0  0  0  0  0
    0.7580   44.9520   54.2890 C   0  0  0  0  0  0  0  0  0  0  0  0
    0.5310   45.3100   53.1030 O   0  0  0  0  0  0  0  0  0  0  0  0
    2.0740   44.5560   54.6990 N   0  0  0  0  0  0  0  0  0  0  0  0
    3.2060   44.5190   53.8190 C   0  0  0  0  0  0  0  0  0  0  0  0
    4.3200   45.3250   53.9320 C   0  0  0  0  0  0  0  0  0  0  0  0
    5.1250   44.9360   52.8770 C   0  0  0  0  0  0  0  0  0  0  0  0
    6.4510   45.5130   52.5610 C   0  0  0  0  0  0  0  0  0  0  0  0
    7.2980   45.9360   53.6020 C   0  0  0  0  0  0  0  0  0  0  0  0
    8.5460   46.4980   53.3150 C   0  0  0  0  0  0  0  0  0  0  0  0
    8.9560   46.6520   51.9890 C   0  0  0  0  0  0  0  0  0  0  0  0
   10.1650   47.1980   51.7120 F   0  0  0  0  0  0  0  0  0  0  0  0
    8.1140   46.2540   50.9470 C   0  0  0  0  0  0  0  0  0  0  0  0
    6.8640   45.6940   51.2290 C   0  0  0  0  0  0  0  0  0  0  0  0
    4.5050   43.9330   52.2070 N   0  0  0  0  0  0  0  0  0  0  0  0
    5.0040   43.1820   51.0590 C   0  0  0  0  0  0  0  0  0  0  0  0
    3.3340   43.6820   52.7720 N   0  0  0  0  0  0  0  0  0  0  0  0
   -1.7480   45.2670   55.2480 C   0  0  0  0  0  0  0  0  0  0  0  0
   -2.9610   45.9050   58.7020 N   0  0  0  0  0  0  0  0  0  0  0  0
   -3.0530   47.1060   59.3540 O   0  0  0  0  0  0  0  0  0  0  0  0
   -1.5954   48.6979   60.5394 H   0  0  0  0  0  0  0  0  0  0  0  0
   -0.3947   48.3814   59.2415 H   0  0  0  0  0  0  0  0  0  0  0  0
   -1.3348   49.9120   59.2415 H   0  0  0  0  0  0  0  0  0  0  0  0
   -3.1498   48.9814   58.3676 H   0  0  0  0  0  0  0  0  0  0  0  0
   -2.3094   47.9102   56.4566 H   0  0  0  0  0  0  0  0  0  0  0  0
   -0.8031   47.5717   57.2645 H   0  0  0  0  0  0  0  0  0  0  0  0
   -2.7506   44.2063   57.0337 H   0  0  0  0  0  0  0  0  0  0  0  0
    0.0756   45.2474   57.3279 H   0  0  0  0  0  0  0  0  0  0  0  0
   -0.1977   43.5992   56.9756 H   0  0  0  0  0  0  0  0  0  0  0  0
    2.2190   44.2800   55.6960 H   0  0  0  0  0  0  0  0  0  0  0  0
    4.5215   46.0989   54.6873 H   0  0  0  0  0  0  0  0  0  0  0  0
    6.9765   45.8239   54.6480 H   0  0  0  0  0  0  0  0  0  0  0  0
    9.2055   46.8191   54.1347 H   0  0  0  0  0  0  0  0  0  0  0  0
    8.4352   46.3815   49.9027 H   0  0  0  0  0  0  0  0  0  0  0  0
    6.2004   45.3936   50.4047 H   0  0  0  0  0  0  0  0  0  0  0  0
    5.5807   42.3140   51.4112 H   0  0  0  0  0  0  0  0  0  0  0  0
    4.1556   42.8360   50.4503 H   0  0  0  0  0  0  0  0  0  0  0  0
    5.6517   43.8301   50.4503 H   0  0  0  0  0  0  0  0  0  0  0  0
   -1.9458   46.3283   55.0370 H   0  0  0  0  0  0  0  0  0  0  0  0
   -2.3814   44.7665   54.5008 H   0  0  0  0  0  0  0  0  0  0  0  0
  1  2  1  0
  2  3  1  0
  3  4  1  0
  4  5  1  0
  5  6  1  0
  6  7  1  0
  7  8  1  0
  8  9  2  0
  8 10  1  0
 10 11  1  0
 11 12  1  0
 12 13  2  0
 13 14  1  0
 14 15  2  0
 15 16  1  0
 16 17  2  0
 17 18  1  0
 17 19  1  0
 19 20  2  0
 13 21  1  0
 21 22  1  0
 21 23  1  0
  7 24  1  0
  4 25  2  0
 25 26  1  0
 26  2  1  0
 24  5  1  0
 23 11  2  0
 20 14  1  0
  1 27  1  0
  1 28  1  0
  1 29  1  0
  2 30  1  6
  3 31  1  0
  3 32  1  0
  5 33  1  0
  6 34  1  0
  6 35  1  0
 10 36  1  0
 12 37  1  0
 15 38  1  0
 16 39  1  0
 19 40  1  0
 20 41  1  0
 22 42  1  0
 22 43  1  0
 22 44  1  0
 24 45  1  0
 24 46  1  0
M  END
>  <meeko>  (1) 
{"is_sidechain": [false], "free_energy": -8.324, "intermolecular_energy": -9.784, "internal_energy": -0.133}

$$$$
ligand_74_conformer_2_docked
     RDKit          3D

 46 49  0  0  0  0  0  0  0  0999 V2000
   -3.0730   46.8020   46.6890 C   0  0  0  0  0  0  0  0  0  0  0  0
   -3.9750   46.3970   47.8540 C   0  0  1  0  0  0  0  0  0  0  0  0
   -3.4670   45.1450   48.5930 C   0  0  0  0  0  0  0  0  0  0  0  0
   -3.3110   45.6570   49.9890 C   0  0  0  0  0  0  0  0  0  0  0  0
   -2.7140   44.8690   51.1250 C   0  0  0  0  0  0  0  0  0  0  0  0
   -1.6860   45.6100   51.9310 C   0  0  0  0  0  0  0  0  0  0  0  0
   -0.5480   44.7490   51.5640 N   0  0  0  0  0  0  0  0  0  0  0  0
    0.8450   44.6600   51.8550 C   0  0  0  0  0  0  0  0  0  0  0  0
    1.5260   43.7350   51.3390 O   0  0  0  0  0  0  0  0  0  0  0  0
    1.4530   45.6220   52.7280 N   0  0  0  0  0  0  0  0  0  0  0  0
    2.8410   45.6050   53.0910 C   0  0  0  0  0  0  0  0  0  0  0  0
    3.8670   46.0970   52.3100 C   0  0  0  0  0  0  0  0  0  0  0  0
    5.0040   45.8590   53.0600 C   0  0  0  0  0  0  0  0  0  0  0  0
    6.3820   46.2090   52.6490 C   0  0  0  0  0  0  0  0  0  0  0  0
    6.9470   45.6110   51.5080 C   0  0  0  0  0  0  0  0  0  0  0  0
    8.2540   45.9220   51.1200 C   0  0  0  0  0  0  0  0  0  0  0  0
    9.0120   46.8230   51.8710 C   0  0  0  0  0  0  0  0  0  0  0  0
   10.2800   47.1220   51.4940 F   0  0  0  0  0  0  0  0  0  0  0  0
    8.4680   47.4070   53.0180 C   0  0  0  0  0  0  0  0  0  0  0  0
    7.1620   47.0980   53.4110 C   0  0  0  0  0  0  0  0  0  0  0  0
    4.6370   45.2790   54.2290 N   0  0  0  0  0  0  0  0  0  0  0  0
    5.4950   44.8990   55.3470 C   0  0  0  0  0  0  0  0  0  0  0  0
    3.3230   45.1150   54.2490 N   0  0  0  0  0  0  0  0  0  0  0  0
   -1.5350   44.0170   50.7510 C   0  0  0  0  0  0  0  0  0  0  0  0
   -3.5550   46.9200   50.0770 N   0  0  0  0  0  0  0  0  0  0  0  0
   -3.9570   47.3990   48.8590 O   0  0  0  0  0  0  0  0  0  0  0  0
   -2.1352   47.2231   47.0805 H   0  0  0  0  0  0  0  0  0  0  0  0
   -2.8493   45.9179   46.0739 H   0  0  0  0  0  0  0  0  0  0  0  0
   -3.5851   47.5566   46.0739 H   0  0  0  0  0  0  0  0  0  0  0  0
   -4.9641   46.2294   47.4028 H   0  0  0  0  0  0  0  0  0  0  0  0
   -4.2007   44.3268   48.5460 H   0  0  0  0  0  0  0  0  0  0  0  0
   -2.5455   44.7200   48.1685 H   0  0  0  0  0  0  0  0  0  0  0  0
   -3.6557   44.4746   51.5345 H   0  0  0  0  0  0  0  0  0  0  0  0
   -1.5555   46.6505   51.5988 H   0  0  0  0  0  0  0  0  0  0  0  0
   -1.8897   45.7401   53.0041 H   0  0  0  0  0  0  0  0  0  0  0  0
    0.8520   46.3810   53.1230 H   0  0  0  0  0  0  0  0  0  0  0  0
    3.7965   46.5696   51.3192 H   0  0  0  0  0  0  0  0  0  0  0  0
    6.3572   44.8945   50.9174 H   0  0  0  0  0  0  0  0  0  0  0  0
    8.6857   45.4562   50.2219 H   0  0  0  0  0  0  0  0  0  0  0  0
    9.0682   48.1111   53.6129 H   0  0  0  0  0  0  0  0  0  0  0  0
    6.7424   47.5524   54.3206 H   0  0  0  0  0  0  0  0  0  0  0  0
    4.9842   45.1252   56.2946 H   0  0  0  0  0  0  0  0  0  0  0  0
    5.7100   43.8215   55.2945 H   0  0  0  0  0  0  0  0  0  0  0  0
    6.4374   45.4639   55.2945 H   0  0  0  0  0  0  0  0  0  0  0  0
   -1.3093   44.0534   49.6750 H   0  0  0  0  0  0  0  0  0  0  0  0
   -1.6238   42.9346   50.9260 H   0  0  0  0  0  0  0  0  0  0  0  0
  1  2  1  0
  2  3  1  0
  3  4  1  0
  4  5  1  0
  5  6  1  0
  6  7  1  0
  7  8  1  0
  8  9  2  0
  8 10  1  0
 10 11  1  0
 11 12  1  0
 12 13  2  0
 13 14  1  0
 14 15  2  0
 15 16  1  0
 16 17  2  0
 17 18  1  0
 17 19  1  0
 19 20  2  0
 13 21  1  0
 21 22  1  0
 21 23  1  0
  7 24  1  0
  4 25  2  0
 25 26  1  0
 26  2  1  0
 24  5  1  0
 23 11  2  0
 20 14  1  0
  1 27  1  0
  1 28  1  0
  1 29  1  0
  2 30  1  6
  3 31  1  0
  3 32  1  0
  5 33  1  0
  6 34  1  0
  6 35  1  0
 10 36  1  0
 12 37  1  0
 15 38  1  0
 16 39  1  0
 19 40  1  0
 20 41  1  0
 22 42  1  0
 22 43  1  0
 22 44  1  0
 24 45  1  0
 24 46  1  0
M  END
>  <meeko>  (2) 
{"is_sidechain": [false], "free_energy": -8.073, "intermolecular_energy": -9.213, "internal_energy": -0.408}

$$$$
ligand_74_conformer_2_docked
     RDKit          3D

 46 49  0  0  0  0  0  0  0  0999 V2000
   -3.1830   39.3870   47.5690 C   0  0  0  0  0  0  0  0  0  0  0  0
   -3.5400   40.8700   47.6470 C   0  0  1  0  0  0  0  0  0  0  0  0
   -3.8810   41.3270   49.0770 C   0  0  0  0  0  0  0  0  0  0  0  0
   -2.8820   42.4180   49.2960 C   0  0  0  0  0  0  0  0  0  0  0  0
   -2.6810   43.1420   50.6010 C   0  0  0  0  0  0  0  0  0  0  0  0
   -1.7140   44.2900   50.5400 C   0  0  0  0  0  0  0  0  0  0  0  0
   -0.7070   43.6960   51.4360 N   0  0  0  0  0  0  0  0  0  0  0  0
    0.5580   44.0540   51.9870 C   0  0  0  0  0  0  0  0  0  0  0  0
    1.1440   43.2530   52.7620 O   0  0  0  0  0  0  0  0  0  0  0  0
    1.1490   45.3180   51.6520 N   0  0  0  0  0  0  0  0  0  0  0  0
    2.4080   45.7720   52.1670 C   0  0  0  0  0  0  0  0  0  0  0  0
    3.5980   45.7580   51.4690 C   0  0  0  0  0  0  0  0  0  0  0  0
    4.5180   46.2760   52.3610 C   0  0  0  0  0  0  0  0  0  0  0  0
    5.9590   46.4670   52.0820 C   0  0  0  0  0  0  0  0  0  0  0  0
    6.6120   45.6290   51.1600 C   0  0  0  0  0  0  0  0  0  0  0  0
    7.9760   45.7900   50.9010 C   0  0  0  0  0  0  0  0  0  0  0  0
    8.7040   46.7800   51.5650 C   0  0  0  0  0  0  0  0  0  0  0  0
   10.0270   46.9320   51.3140 F   0  0  0  0  0  0  0  0  0  0  0  0
    8.0700   47.6040   52.4980 C   0  0  0  0  0  0  0  0  0  0  0  0
    6.7060   47.4460   52.7630 C   0  0  0  0  0  0  0  0  0  0  0  0
    3.8730   46.5960   53.5100 N   0  0  0  0  0  0  0  0  0  0  0  0
    4.4320   47.2180   54.7060 C   0  0  0  0  0  0  0  0  0  0  0  0
    2.5910   46.2830   53.4000 N   0  0  0  0  0  0  0  0  0  0  0  0
   -1.6310   42.5490   51.4970 C   0  0  0  0  0  0  0  0  0  0  0  0
   -2.0660   42.5390   48.3060 N   0  0  0  0  0  0  0  0  0  0  0  0
   -2.4130   41.6650   47.3100 O   0  0  0  0  0  0  0  0  0  0  0  0
   -3.0849   38.9795   48.5860 H   0  0  0  0  0  0  0  0  0  0  0  0
   -3.9767   38.8465   47.0324 H   0  0  0  0  0  0  0  0  0  0  0  0
   -2.2303   39.2669   47.0324 H   0  0  0  0  0  0  0  0  0  0  0  0
   -4.3960   40.9912   46.9669 H   0  0  0  0  0  0  0  0  0  0  0  0
   -4.9108   41.7083   49.1407 H   0  0  0  0  0  0  0  0  0  0  0  0
   -3.8328   40.5221   49.8252 H   0  0  0  0  0  0  0  0  0  0  0  0
   -3.7422   43.2397   50.8738 H   0  0  0  0  0  0  0  0  0  0  0  0
   -1.3279   44.4661   49.5252 H   0  0  0  0  0  0  0  0  0  0  0  0
   -2.0998   45.2841   50.8101 H   0  0  0  0  0  0  0  0  0  0  0  0
    0.6330   45.9450   50.9940 H   0  0  0  0  0  0  0  0  0  0  0  0
    3.7741   45.4137   50.4392 H   0  0  0  0  0  0  0  0  0  0  0  0
    6.0458   44.8424   50.6398 H   0  0  0  0  0  0  0  0  0  0  0  0
    8.4773   45.1356   50.1726 H   0  0  0  0  0  0  0  0  0  0  0  0
    8.6451   48.3791   53.0256 H   0  0  0  0  0  0  0  0  0  0  0  0
    6.2147   48.0900   53.5073 H   0  0  0  0  0  0  0  0  0  0  0  0
    4.0043   46.7421   55.6008 H   0  0  0  0  0  0  0  0  0  0  0  0
    5.5245   47.0900   54.7094 H   0  0  0  0  0  0  0  0  0  0  0  0
    4.1885   48.2907   54.7094 H   0  0  0  0  0  0  0  0  0  0  0  0
   -1.1923   41.6281   51.0853 H   0  0  0  0  0  0  0  0  0  0  0  0
   -1.9532   42.2180   52.4953 H   0  0  0  0  0  0  0  0  0  0  0  0
  1  2  1  0
  2  3  1  0
  3  4  1  0
  4  5  1  0
  5  6  1  0
  6  7  1  0
  7  8  1  0
  8  9  2  0
  8 10  1  0
 10 11  1  0
 11 12  1  0
 12 13  2  0
 13 14  1  0
 14 15  2  0
 15 16  1  0
 16 17  2  0
 17 18  1  0
 17 19  1  0
 19 20  2  0
 13 21  1  0
 21 22  1  0
 21 23  1  0
  7 24  1  0
  4 25  2  0
 25 26  1  0
 26  2  1  0
 24  5  1  0
 23 11  2  0
 20 14  1  0
  1 27  1  0
  1 28  1  0
  1 29  1  0
  2 30  1  6
  3 31  1  0
  3 32  1  0
  5 33  1  0
  6 34  1  0
  6 35  1  0
 10 36  1  0
 12 37  1  0
 15 38  1  0
 16 39  1  0
 19 40  1  0
 20 41  1  0
 22 42  1  0
 22 43  1  0
 22 44  1  0
 24 45  1  0
 24 46  1  0
M  END
>  <meeko>  (3) 
{"is_sidechain": [false], "free_energy": -7.956, "intermolecular_energy": -9.455, "internal_energy": -0.029}

$$$$
ligand_74_conformer_2_docked
     RDKit          3D

 46 49  0  0  0  0  0  0  0  0999 V2000
   -1.3060   34.8380   45.9130 C   0  0  0  0  0  0  0  0  0  0  0  0
   -0.2530   34.7510   44.8100 C   0  0  1  0  0  0  0  0  0  0  0  0
    0.2140   36.1350   44.3220 C   0  0  0  0  0  0  0  0  0  0  0  0
    1.6860   36.0670   44.5760 C   0  0  0  0  0  0  0  0  0  0  0  0
    2.6370   37.2210   44.3930 C   0  0  0  0  0  0  0  0  0  0  0  0
    3.5130   37.5060   45.5790 C   0  0  0  0  0  0  0  0  0  0  0  0
    2.9490   38.8350   45.8760 N   0  0  0  0  0  0  0  0  0  0  0  0
    3.1560   39.8820   46.8210 C   0  0  0  0  0  0  0  0  0  0  0  0
    2.4540   40.9250   46.7500 O   0  0  0  0  0  0  0  0  0  0  0  0
    4.1560   39.7360   47.8390 N   0  0  0  0  0  0  0  0  0  0  0  0
    4.4470   40.7390   48.8210 C   0  0  0  0  0  0  0  0  0  0  0  0
    5.4070   41.7220   48.6860 C   0  0  0  0  0  0  0  0  0  0  0  0
    5.3250   42.4360   49.8660 C   0  0  0  0  0  0  0  0  0  0  0  0
    6.1630   43.6080   50.2110 C   0  0  0  0  0  0  0  0  0  0  0  0
    5.6350   44.6350   51.0140 C   0  0  0  0  0  0  0  0  0  0  0  0
    6.4120   45.7530   51.3320 C   0  0  0  0  0  0  0  0  0  0  0  0
    7.7170   45.8620   50.8450 C   0  0  0  0  0  0  0  0  0  0  0  0
    8.4670   46.9480   51.1530 F   0  0  0  0  0  0  0  0  0  0  0  0
    8.2430   44.8560   50.0300 C   0  0  0  0  0  0  0  0  0  0  0  0
    7.4700   43.7370   49.7070 C   0  0  0  0  0  0  0  0  0  0  0  0
    4.3420   41.8990   50.6300 N   0  0  0  0  0  0  0  0  0  0  0  0
    3.8690   42.3580   51.9330 C   0  0  0  0  0  0  0  0  0  0  0  0
    3.8110   40.8610   50.0020 N   0  0  0  0  0  0  0  0  0  0  0  0
    2.0650   38.5690   44.7270 C   0  0  0  0  0  0  0  0  0  0  0  0
    2.0310   34.9740   45.1630 N   0  0  0  0  0  0  0  0  0  0  0  0
    0.9370   34.1640   45.3150 O   0  0  0  0  0  0  0  0  0  0  0  0
   -0.8124   34.7972   46.8952 H   0  0  0  0  0  0  0  0  0  0  0  0
   -1.8580   35.7848   45.8191 H   0  0  0  0  0  0  0  0  0  0  0  0
   -2.0059   33.9946   45.8191 H   0  0  0  0  0  0  0  0  0  0  0  0
   -0.7320   34.1764   44.0036 H   0  0  0  0  0  0  0  0  0  0  0  0
   -0.0020   36.2767   43.2528 H   0  0  0  0  0  0  0  0  0  0  0  0
   -0.2865   36.9767   44.8230 H   0  0  0  0  0  0  0  0  0  0  0  0
    3.0132   36.9391   43.3985 H   0  0  0  0  0  0  0  0  0  0  0  0
    3.3634   36.7885   46.3993 H   0  0  0  0  0  0  0  0  0  0  0  0
    4.6004   37.4472   45.4236 H   0  0  0  0  0  0  0  0  0  0  0  0
    4.7050   38.8470   47.8680 H   0  0  0  0  0  0  0  0  0  0  0  0
    6.0818   41.8965   47.8350 H   0  0  0  0  0  0  0  0  0  0  0  0
    4.6055   44.5582   51.3938 H   0  0  0  0  0  0  0  0  0  0  0  0
    5.9950   46.5485   51.9670 H   0  0  0  0  0  0  0  0  0  0  0  0
    9.2683   44.9450   49.6415 H   0  0  0  0  0  0  0  0  0  0  0  0
    7.8856   42.9539   49.0559 H   0  0  0  0  0  0  0  0  0  0  0  0
    4.4144   41.8288   52.7283 H   0  0  0  0  0  0  0  0  0  0  0  0
    4.0436   43.4400   52.0261 H   0  0  0  0  0  0  0  0  0  0  0  0
    2.7927   42.1510   52.0261 H   0  0  0  0  0  0  0  0  0  0  0  0
    1.0033   38.5211   45.0106 H   0  0  0  0  0  0  0  0  0  0  0  0
    2.0498   39.3195   43.9229 H   0  0  0  0  0  0  0  0  0  0  0  0
  1  2  1  0
  2  3  1  0
  3  4  1  0
  4  5  1  0
  5  6  1  0
  6  7  1  0
  7  8  1  0
  8  9  2  0
  8 10  1  0
 10 11  1  0
 11 12  1  0
 12 13  2  0
 13 14  1  0
 14 15  2  0
 15 16  1  0
 16 17  2  0
 17 18  1  0
 17 19  1  0
 19 20  2  0
 13 21  1  0
 21 22  1  0
 21 23  1  0
  7 24  1  0
  4 25  2  0
 25 26  1  0
 26  2  1  0
 24  5  1  0
 23 11  2  0
 20 14  1  0
  1 27  1  0
  1 28  1  0
  1 29  1  0
  2 30  1  6
  3 31  1  0
  3 32  1  0
  5 33  1  0
  6 34  1  0
  6 35  1  0
 10 36  1  0
 12 37  1  0
 15 38  1  0
 16 39  1  0
 19 40  1  0
 20 41  1  0
 22 42  1  0
 22 43  1  0
 22 44  1  0
 24 45  1  0
 24 46  1  0
M  END
>  <meeko>  (4) 
{"is_sidechain": [false], "free_energy": -7.392, "intermolecular_energy": -8.753, "internal_energy": -0.068}

$$$$
