ligand_92_conformer_3_docked
     RDKit          3D

 35 37  0  0  0  0  0  0  0  0999 V2000
    1.3230   43.1480   53.9430 O   0  0  0  0  0  0  0  0  0  0  0  0
    2.1660   43.4030   53.0420 C   0  0  0  0  0  0  0  0  0  0  0  0
    2.3520   44.8010   52.5530 C   0  0  0  0  0  0  0  0  0  0  0  0
    3.8330   45.1160   52.2180 C   0  0  1  0  0  0  0  0  0  0  0  0
    3.8030   46.2560   51.3820 O   0  0  0  0  0  0  0  0  0  0  0  0
    4.5700   45.4450   53.5160 C   0  0  0  0  0  0  0  0  0  0  0  0
    4.1030   45.0060   54.6000 O   0  0  0  0  0  0  0  0  0  0  0  0
    5.8010   46.1790   53.5570 N   0  0  0  0  0  0  0  0  0  0  0  0
    6.7740   46.8370   52.6610 C   0  0  0  0  0  0  0  0  0  0  0  0
    7.6980   47.3050   53.7420 C   0  0  0  0  0  0  0  0  0  0  0  0
    9.0790   46.6420   53.7180 C   0  0  0  0  0  0  0  0  0  0  0  0
   10.0490   47.6010   53.4900 F   0  0  0  0  0  0  0  0  0  0  0  0
    6.7020   46.6300   54.6340 C   0  0  0  0  0  0  0  0  0  0  0  0
    4.4950   43.9600   51.4560 C   0  0  0  0  0  0  0  0  0  0  0  0
    5.6660   44.1810   50.7000 C   0  0  0  0  0  0  0  0  0  0  0  0
    6.2940   43.1270   50.0310 C   0  0  0  0  0  0  0  0  0  0  0  0
    7.8750   43.4520   49.0090 Br  0  0  0  0  0  0  0  0  0  0  0  0
    5.7770   41.8340   50.1180 C   0  0  0  0  0  0  0  0  0  0  0  0
    4.6390   41.5880   50.8860 C   0  0  0  0  0  0  0  0  0  0  0  0
    3.9980   42.6360   51.5610 C   0  0  0  0  0  0  0  0  0  0  0  0
    2.8830   42.3450   52.4130 N   0  0  0  0  0  0  0  0  0  0  0  0
    1.7465   44.9417   51.6455 H   0  0  0  0  0  0  0  0  0  0  0  0
    2.0367   45.4829   53.3565 H   0  0  0  0  0  0  0  0  0  0  0  0
    3.7790   47.0760   51.9430 H   0  0  0  0  0  0  0  0  0  0  0  0
    7.2555   46.1323   51.9670 H   0  0  0  0  0  0  0  0  0  0  0  0
    6.3828   47.6004   51.9724 H   0  0  0  0  0  0  0  0  0  0  0  0
    8.0296   48.3465   53.8658 H   0  0  0  0  0  0  0  0  0  0  0  0
    9.2675   46.1531   54.6852 H   0  0  0  0  0  0  0  0  0  0  0  0
    9.1105   45.8916   52.9144 H   0  0  0  0  0  0  0  0  0  0  0  0
    7.1382   45.7936   55.1998 H   0  0  0  0  0  0  0  0  0  0  0  0
    6.2569   47.2379   55.4355 H   0  0  0  0  0  0  0  0  0  0  0  0
    6.0892   45.1944   50.6366 H   0  0  0  0  0  0  0  0  0  0  0  0
    6.2670   41.0085   49.5808 H   0  0  0  0  0  0  0  0  0  0  0  0
    4.2420   40.5650   50.9625 H   0  0  0  0  0  0  0  0  0  0  0  0
    2.6200   41.3540   52.6190 H   0  0  0  0  0  0  0  0  0  0  0  0
  1  2  2  0
  2  3  1  0
  3  4  1  0
  4  5  1  6
  4  6  1  0
  6  7  2  0
  6  8  1  0
  8  9  1  0
  9 10  1  0
 10 11  1  0
 11 12  1  0
 10 13  1  0
  4 14  1  0
 14 15  2  0
 15 16  1  0
 16 17  1  0
 16 18  2  0
 18 19  1  0
 19 20  2  0
 20 21  1  0
 21  2  1  0
 13  8  1  0
 20 14  1  0
  3 22  1  0
  3 23  1  0
  5 24  1  0
  9 25  1  0
  9 26  1  0
 10 27  1  0
 11 28  1  0
 11 29  1  0
 13 30  1  0
 13 31  1  0
 15 32  1  0
 18 33  1  0
 19 34  1  0
 21 35  1  0
M  END
>  <meeko>  (1) 
{"is_sidechain": [false], "free_energy": -8.793, "intermolecular_energy": -10.078, "internal_energy": -0.034}

$$$$
ligand_92_conformer_3_docked
     RDKit          3D

 35 37  0  0  0  0  0  0  0  0999 V2000
    2.3430   45.4060   50.7390 O   0  0  0  0  0  0  0  0  0  0  0  0
    3.3740   45.9630   51.2020 C   0  0  0  0  0  0  0  0  0  0  0  0
    3.2560   47.0630   52.2040 C   0  0  0  0  0  0  0  0  0  0  0  0
    4.3840   47.0180   53.2660 C   0  0  1  0  0  0  0  0  0  0  0  0
    4.4140   48.3060   53.8490 O   0  0  0  0  0  0  0  0  0  0  0  0
    4.0190   45.9790   54.3260 C   0  0  0  0  0  0  0  0  0  0  0  0
    4.9380   45.5090   55.0490 O   0  0  0  0  0  0  0  0  0  0  0  0
    2.6740   45.5540   54.5800 N   0  0  0  0  0  0  0  0  0  0  0  0
    1.2900   45.7930   54.1210 C   0  0  0  0  0  0  0  0  0  0  0  0
    0.6400   44.8200   55.0560 C   0  0  0  0  0  0  0  0  0  0  0  0
   -0.2680   45.4700   56.1060 C   0  0  0  0  0  0  0  0  0  0  0  0
   -1.0460   44.4990   56.7080 F   0  0  0  0  0  0  0  0  0  0  0  0
    2.0490   44.5950   55.5100 C   0  0  0  0  0  0  0  0  0  0  0  0
    5.7490   46.7320   52.6240 C   0  0  0  0  0  0  0  0  0  0  0  0
    6.9410   47.0530   53.3080 C   0  0  0  0  0  0  0  0  0  0  0  0
    8.1880   46.7660   52.7450 C   0  0  0  0  0  0  0  0  0  0  0  0
    9.7870   47.2160   53.6860 Br  0  0  0  0  0  0  0  0  0  0  0  0
    8.2670   46.1370   51.5020 C   0  0  0  0  0  0  0  0  0  0  0  0
    7.1010   45.7810   50.8240 C   0  0  0  0  0  0  0  0  0  0  0  0
    5.8440   46.0660   51.3760 C   0  0  0  0  0  0  0  0  0  0  0  0
    4.6620   45.6130   50.7030 N   0  0  0  0  0  0  0  0  0  0  0  0
    3.3049   48.0275   51.6773 H   0  0  0  0  0  0  0  0  0  0  0  0
    2.2968   46.9382   52.7278 H   0  0  0  0  0  0  0  0  0  0  0  0
    5.3440   48.5220   54.1240 H   0  0  0  0  0  0  0  0  0  0  0  0
    0.9600   46.8287   54.2897 H   0  0  0  0  0  0  0  0  0  0  0  0
    1.0900   45.6645   53.0470 H   0  0  0  0  0  0  0  0  0  0  0  0
   -0.0411   44.0164   54.7392 H   0  0  0  0  0  0  0  0  0  0  0  0
    0.3503   45.9683   56.8672 H   0  0  0  0  0  0  0  0  0  0  0  0
   -0.9189   46.2111   55.6191 H   0  0  0  0  0  0  0  0  0  0  0  0
    2.2027   44.8663   56.5649 H   0  0  0  0  0  0  0  0  0  0  0  0
    2.4220   43.5605   55.4851 H   0  0  0  0  0  0  0  0  0  0  0  0
    6.8883   47.5346   54.2956 H   0  0  0  0  0  0  0  0  0  0  0  0
    9.2494   45.9217   51.0564 H   0  0  0  0  0  0  0  0  0  0  0  0
    7.1681   45.2736   49.8503 H   0  0  0  0  0  0  0  0  0  0  0  0
    4.7360   44.9830   49.8720 H   0  0  0  0  0  0  0  0  0  0  0  0
  1  2  2  0
  2  3  1  0
  3  4  1  0
  4  5  1  1
  4  6  1  0
  6  7  2  0
  6  8  1  0
  8  9  1  0
  9 10  1  0
 10 11  1  0
 11 12  1  0
 10 13  1  0
  4 14  1  0
 14 15  2  0
 15 16  1  0
 16 17  1  0
 16 18  2  0
 18 19  1  0
 19 20  2  0
 20 21  1  0
 21  2  1  0
 13  8  1  0
 20 14  1  0
  3 22  1  0
  3 23  1  0
  5 24  1  0
  9 25  1  0
  9 26  1  0
 10 27  1  0
 11 28  1  0
 11 29  1  0
 13 30  1  0
 13 31  1  0
 15 32  1  0
 18 33  1  0
 19 34  1  0
 21 35  1  0
M  END
>  <meeko>  (2) 
{"is_sidechain": [false], "free_energy": -8.169, "intermolecular_energy": -9.703, "internal_energy": 0.307}

$$$$
ligand_92_conformer_3_docked
     RDKit          3D

 35 37  0  0  0  0  0  0  0  0999 V2000
    4.6800   48.1530   54.5910 O   0  0  0  0  0  0  0  0  0  0  0  0
    4.9850   47.1170   53.9440 C   0  0  0  0  0  0  0  0  0  0  0  0
    4.3630   45.8020   54.2820 C   0  0  0  0  0  0  0  0  0  0  0  0
    4.0950   44.9350   53.0250 C   0  0  1  0  0  0  0  0  0  0  0  0
    3.9370   43.6130   53.4970 O   0  0  0  0  0  0  0  0  0  0  0  0
    2.7980   45.4100   52.3700 C   0  0  0  0  0  0  0  0  0  0  0  0
    2.8730   46.0990   51.3180 O   0  0  0  0  0  0  0  0  0  0  0  0
    1.4970   45.0600   52.8580 N   0  0  0  0  0  0  0  0  0  0  0  0
    0.8460   44.2830   53.9340 C   0  0  0  0  0  0  0  0  0  0  0  0
   -0.5610   44.5890   53.5250 C   0  0  0  0  0  0  0  0  0  0  0  0
   -1.3500   43.3720   53.0330 C   0  0  0  0  0  0  0  0  0  0  0  0
   -2.6950   43.5540   53.2980 F   0  0  0  0  0  0  0  0  0  0  0  0
    0.1160   45.3680   52.4400 C   0  0  0  0  0  0  0  0  0  0  0  0
    5.2810   44.9760   52.0500 C   0  0  0  0  0  0  0  0  0  0  0  0
    5.4390   43.9680   51.0760 C   0  0  0  0  0  0  0  0  0  0  0  0
    6.4970   44.0150   50.1640 C   0  0  0  0  0  0  0  0  0  0  0  0
    6.6940   42.6360   48.8570 Br  0  0  0  0  0  0  0  0  0  0  0  0
    7.4030   45.0760   50.1960 C   0  0  0  0  0  0  0  0  0  0  0  0
    7.2460   46.1000   51.1300 C   0  0  0  0  0  0  0  0  0  0  0  0
    6.1910   46.0640   52.0520 C   0  0  0  0  0  0  0  0  0  0  0  0
    5.9990   47.1690   52.9450 N   0  0  0  0  0  0  0  0  0  0  0  0
    5.0404   45.2526   54.9523 H   0  0  0  0  0  0  0  0  0  0  0  0
    3.3948   46.0027   54.7639 H   0  0  0  0  0  0  0  0  0  0  0  0
    3.4660   43.0710   52.8110 H   0  0  0  0  0  0  0  0  0  0  0  0
    1.0788   43.2092   53.8822 H   0  0  0  0  0  0  0  0  0  0  0  0
    1.1302   44.5260   54.9685 H   0  0  0  0  0  0  0  0  0  0  0  0
   -1.3248   45.0060   54.1979 H   0  0  0  0  0  0  0  0  0  0  0  0
   -1.2030   43.2539   51.9493 H   0  0  0  0  0  0  0  0  0  0  0  0
   -0.9936   42.4706   53.5530 H   0  0  0  0  0  0  0  0  0  0  0  0
   -0.1178   44.9863   51.4352 H   0  0  0  0  0  0  0  0  0  0  0  0
   -0.1521   46.4307   52.3468 H   0  0  0  0  0  0  0  0  0  0  0  0
    4.7213   43.1354   51.0338 H   0  0  0  0  0  0  0  0  0  0  0  0
    8.2413   45.1048   49.4843 H   0  0  0  0  0  0  0  0  0  0  0  0
    7.9547   46.9412   51.1430 H   0  0  0  0  0  0  0  0  0  0  0  0
    6.5670   48.0400   52.8360 H   0  0  0  0  0  0  0  0  0  0  0  0
  1  2  2  0
  2  3  1  0
  3  4  1  0
  4  5  1  1
  4  6  1  0
  6  7  2  0
  6  8  1  0
  8  9  1  0
  9 10  1  0
 10 11  1  0
 11 12  1  0
 10 13  1  0
  4 14  1  0
 14 15  2  0
 15 16  1  0
 16 17  1  0
 16 18  2  0
 18 19  1  0
 19 20  2  0
 20 21  1  0
 21  2  1  0
 13  8  1  0
 20 14  1  0
  3 22  1  0
  3 23  1  0
  5 24  1  0
  9 25  1  0
  9 26  1  0
 10 27  1  0
 11 28  1  0
 11 29  1  0
 13 30  1  0
 13 31  1  0
 15 32  1  0
 18 33  1  0
 19 34  1  0
 21 35  1  0
M  END
>  <meeko>  (3) 
{"is_sidechain": [false], "free_energy": -8.008, "intermolecular_energy": -8.95, "internal_energy": -0.262}

$$$$
ligand_92_conformer_3_docked
     RDKit          3D

 35 37  0  0  0  0  0  0  0  0999 V2000
    5.4210   45.0050   50.0620 O   0  0  0  0  0  0  0  0  0  0  0  0
    6.0410   45.6980   50.9130 C   0  0  0  0  0  0  0  0  0  0  0  0
    5.3110   46.6830   51.7640 C   0  0  0  0  0  0  0  0  0  0  0  0
    5.8830   46.7580   53.2030 C   0  0  1  0  0  0  0  0  0  0  0  0
    5.4230   47.9840   53.7360 O   0  0  0  0  0  0  0  0  0  0  0  0
    5.3150   45.5950   54.0170 C   0  0  0  0  0  0  0  0  0  0  0  0
    6.1180   44.7630   54.5180 O   0  0  0  0  0  0  0  0  0  0  0  0
    3.9170   45.4350   54.2910 N   0  0  0  0  0  0  0  0  0  0  0  0
    2.6170   46.0890   54.0360 C   0  0  0  0  0  0  0  0  0  0  0  0
    1.7850   45.0850   54.7720 C   0  0  0  0  0  0  0  0  0  0  0  0
    1.1010   45.6360   56.0280 C   0  0  0  0  0  0  0  0  0  0  0  0
   -0.2590   45.3950   55.9570 F   0  0  0  0  0  0  0  0  0  0  0  0
    3.1130   44.4390   55.0240 C   0  0  0  0  0  0  0  0  0  0  0  0
    7.4180   46.7630   53.1990 C   0  0  0  0  0  0  0  0  0  0  0  0
    8.1340   47.2360   54.3180 C   0  0  0  0  0  0  0  0  0  0  0  0
    9.5310   47.2130   54.3350 C   0  0  0  0  0  0  0  0  0  0  0  0
   10.4780   47.8660   55.8600 Br  0  0  0  0  0  0  0  0  0  0  0  0
   10.2370   46.7020   53.2460 C   0  0  0  0  0  0  0  0  0  0  0  0
    9.5480   46.1990   52.1420 C   0  0  0  0  0  0  0  0  0  0  0  0
    8.1470   46.2180   52.1110 C   0  0  0  0  0  0  0  0  0  0  0  0
    7.4600   45.6170   51.0050 N   0  0  0  0  0  0  0  0  0  0  0  0
    5.3895   47.6774   51.3002 H   0  0  0  0  0  0  0  0  0  0  0  0
    4.2639   46.3537   51.8357 H   0  0  0  0  0  0  0  0  0  0  0  0
    4.5050   48.1640   53.4040 H   0  0  0  0  0  0  0  0  0  0  0  0
    2.5549   47.0955   54.4755 H   0  0  0  0  0  0  0  0  0  0  0  0
    2.3527   46.2846   52.9863 H   0  0  0  0  0  0  0  0  0  0  0  0
    0.9180   44.5636   54.3400 H   0  0  0  0  0  0  0  0  0  0  0  0
    1.5151   45.1400   56.9182 H   0  0  0  0  0  0  0  0  0  0  0  0
    1.2778   46.7196   56.0957 H   0  0  0  0  0  0  0  0  0  0  0  0
    3.3663   44.3936   56.0935 H   0  0  0  0  0  0  0  0  0  0  0  0
    3.2227   43.3873   54.7208 H   0  0  0  0  0  0  0  0  0  0  0  0
    7.5863   47.6277   55.1878 H   0  0  0  0  0  0  0  0  0  0  0  0
   11.3369   46.6956   53.2576 H   0  0  0  0  0  0  0  0  0  0  0  0
   10.1079   45.7849   51.2905 H   0  0  0  0  0  0  0  0  0  0  0  0
    7.9910   45.0730   50.2870 H   0  0  0  0  0  0  0  0  0  0  0  0
  1  2  2  0
  2  3  1  0
  3  4  1  0
  4  5  1  1
  4  6  1  0
  6  7  2  0
  6  8  1  0
  8  9  1  0
  9 10  1  0
 10 11  1  0
 11 12  1  0
 10 13  1  0
  4 14  1  0
 14 15  2  0
 15 16  1  0
 16 17  1  0
 16 18  2  0
 18 19  1  0
 19 20  2  0
 20 21  1  0
 21  2  1  0
 13  8  1  0
 20 14  1  0
  3 22  1  0
  3 23  1  0
  5 24  1  0
  9 25  1  0
  9 26  1  0
 10 27  1  0
 11 28  1  0
 11 29  1  0
 13 30  1  0
 13 31  1  0
 15 32  1  0
 18 33  1  0
 19 34  1  0
 21 35  1  0
M  END
>  <meeko>  (4) 
{"is_sidechain": [false], "free_energy": -7.949, "intermolecular_energy": -8.883, "internal_energy": -0.261}

$$$$
ligand_92_conformer_3_docked
     RDKit          3D

 35 37  0  0  0  0  0  0  0  0999 V2000
    7.8920   48.6420   52.8840 O   0  0  0  0  0  0  0  0  0  0  0  0
    7.5740   47.4450   52.6510 C   0  0  0  0  0  0  0  0  0  0  0  0
    6.9500   46.6060   53.7160 C   0  0  0  0  0  0  0  0  0  0  0  0
    5.8770   45.6390   53.1530 C   0  0  1  0  0  0  0  0  0  0  0  0
    5.7040   44.6410   54.1400 O   0  0  0  0  0  0  0  0  0  0  0  0
    4.5720   46.4110   52.9630 C   0  0  0  0  0  0  0  0  0  0  0  0
    4.6320   47.6570   52.7810 O   0  0  0  0  0  0  0  0  0  0  0  0
    3.2850   45.7830   52.9220 N   0  0  0  0  0  0  0  0  0  0  0  0
    2.6570   44.4470   53.0080 C   0  0  0  0  0  0  0  0  0  0  0  0
    1.2460   44.9220   52.8470 C   0  0  0  0  0  0  0  0  0  0  0  0
    0.5720   44.4600   51.5510 C   0  0  0  0  0  0  0  0  0  0  0  0
   -0.3280   43.4480   51.8330 F   0  0  0  0  0  0  0  0  0  0  0  0
    1.9010   46.2660   52.7590 C   0  0  0  0  0  0  0  0  0  0  0  0
    6.3470   44.9730   51.8520 C   0  0  0  0  0  0  0  0  0  0  0  0
    5.7420   43.7810   51.4010 C   0  0  0  0  0  0  0  0  0  0  0  0
    6.1410   43.1870   50.2000 C   0  0  0  0  0  0  0  0  0  0  0  0
    5.3110   41.5700   49.6130 Br  0  0  0  0  0  0  0  0  0  0  0  0
    7.1360   43.7790   49.4220 C   0  0  0  0  0  0  0  0  0  0  0  0
    7.7250   44.9750   49.8340 C   0  0  0  0  0  0  0  0  0  0  0  0
    7.3360   45.5810   51.0370 C   0  0  0  0  0  0  0  0  0  0  0  0
    7.8920   46.8520   51.3960 N   0  0  0  0  0  0  0  0  0  0  0  0
    7.7371   46.0139   54.2059 H   0  0  0  0  0  0  0  0  0  0  0  0
    6.4526   47.2818   54.4273 H   0  0  0  0  0  0  0  0  0  0  0  0
    4.7520   44.3600   54.1610 H   0  0  0  0  0  0  0  0  0  0  0  0
    2.9741   43.7761   52.1960 H   0  0  0  0  0  0  0  0  0  0  0  0
    2.8833   43.8443   53.8999 H   0  0  0  0  0  0  0  0  0  0  0  0
    0.4278   44.6794   53.5411 H   0  0  0  0  0  0  0  0  0  0  0  0
    0.0396   45.3066   51.0929 H   0  0  0  0  0  0  0  0  0  0  0  0
    1.3365   44.0862   50.8540 H   0  0  0  0  0  0  0  0  0  0  0  0
    1.7347   46.7556   51.7881 H   0  0  0  0  0  0  0  0  0  0  0  0
    1.5553   47.0365   53.4639 H   0  0  0  0  0  0  0  0  0  0  0  0
    4.9473   43.3137   52.0011 H   0  0  0  0  0  0  0  0  0  0  0  0
    7.4564   43.3029   48.4835 H   0  0  0  0  0  0  0  0  0  0  0  0
    8.4997   45.4455   49.2108 H   0  0  0  0  0  0  0  0  0  0  0  0
    8.4940   47.3740   50.7190 H   0  0  0  0  0  0  0  0  0  0  0  0
  1  2  2  0
  2  3  1  0
  3  4  1  0
  4  5  1  1
  4  6  1  0
  6  7  2  0
  6  8  1  0
  8  9  1  0
  9 10  1  0
 10 11  1  0
 11 12  1  0
 10 13  1  0
  4 14  1  0
 14 15  2  0
 15 16  1  0
 16 17  1  0
 16 18  2  0
 18 19  1  0
 19 20  2  0
 20 21  1  0
 21  2  1  0
 13  8  1  0
 20 14  1  0
  3 22  1  0
  3 23  1  0
  5 24  1  0
  9 25  1  0
  9 26  1  0
 10 27  1  0
 11 28  1  0
 11 29  1  0
 13 30  1  0
 13 31  1  0
 15 32  1  0
 18 33  1  0
 19 34  1  0
 21 35  1  0
M  END
>  <meeko>  (5) 
{"is_sidechain": [false], "free_energy": -7.698, "intermolecular_energy": -8.812, "internal_energy": -0.044}

$$$$
