ligand_23_conformer_3_docked
     RDKit          3D

 45 47  0  0  0  0  0  0  0  0999 V2000
   -0.0690   41.5550   53.6810 C   0  0  0  0  0  0  0  0  0  0  0  0
    0.0750   42.7660   52.7500 C   0  0  2  0  0  0  0  0  0  0  0  0
    1.4920   43.1330   52.6200 N   0  0  0  0  0  0  0  0  0  0  0  0
    2.1570   43.2280   51.3490 C   0  0  0  0  0  0  0  0  0  0  0  0
    1.6470   42.6780   50.3340 O   0  0  0  0  0  0  0  0  0  0  0  0
    3.4460   43.9480   51.2120 C   0  0  0  0  0  0  0  0  0  0  0  0
    4.6630   43.2500   51.1070 C   0  0  0  0  0  0  0  0  0  0  0  0
    5.8720   43.9430   50.9950 C   0  0  0  0  0  0  0  0  0  0  0  0
    5.8870   45.3480   51.0030 C   0  0  0  0  0  0  0  0  0  0  0  0
    7.0790   46.0780   50.8780 O   0  0  0  0  0  0  0  0  0  0  0  0
    7.9320   46.4300   51.9330 C   0  0  0  0  0  0  0  0  0  0  0  0
    7.3700   46.7450   53.1760 C   0  0  0  0  0  0  0  0  0  0  0  0
    8.1890   47.0880   54.2570 C   0  0  0  0  0  0  0  0  0  0  0  0
    9.5800   47.1040   54.1060 C   0  0  0  0  0  0  0  0  0  0  0  0
   10.6050   47.5310   55.4630 Cl  0  0  0  0  0  0  0  0  0  0  0  0
   10.1500   46.7710   52.8730 C   0  0  0  0  0  0  0  0  0  0  0  0
    9.3330   46.4290   51.7920 C   0  0  0  0  0  0  0  0  0  0  0  0
    4.6790   46.0440   51.0950 C   0  0  0  0  0  0  0  0  0  0  0  0
    3.4690   45.3540   51.2100 C   0  0  0  0  0  0  0  0  0  0  0  0
   -0.7860   43.9700   53.2300 C   0  0  1  0  0  0  0  0  0  0  0  0
   -1.2610   43.8630   54.6810 C   0  0  0  0  0  0  0  0  0  0  0  0
   -0.4920   44.9340   55.4480 C   0  0  0  0  0  0  0  0  0  0  0  0
    0.5010   45.5120   54.5440 N   0  0  0  0  0  0  0  0  0  0  0  0
   -0.0050   45.2810   53.1970 C   0  0  0  0  0  0  0  0  0  0  0  0
   -0.0291   41.8905   54.7278 H   0  0  0  0  0  0  0  0  0  0  0  0
   -1.0324   41.0592   53.4913 H   0  0  0  0  0  0  0  0  0  0  0  0
    0.7513   40.8471   53.4913 H   0  0  0  0  0  0  0  0  0  0  0  0
   -0.3058   42.4848   51.7571 H   0  0  0  0  0  0  0  0  0  0  0  0
    2.0220   43.3710   53.4880 H   0  0  0  0  0  0  0  0  0  0  0  0
    4.6633   42.1500   51.1131 H   0  0  0  0  0  0  0  0  0  0  0  0
    6.8157   43.3859   50.9002 H   0  0  0  0  0  0  0  0  0  0  0  0
    6.2776   46.7226   53.3034 H   0  0  0  0  0  0  0  0  0  0  0  0
    7.7389   47.3455   55.2271 H   0  0  0  0  0  0  0  0  0  0  0  0
   11.2435   46.7783   52.7539 H   0  0  0  0  0  0  0  0  0  0  0  0
    9.7862   46.1579   50.8271 H   0  0  0  0  0  0  0  0  0  0  0  0
    4.6803   47.1438   51.0768 H   0  0  0  0  0  0  0  0  0  0  0  0
    2.5272   45.9152   51.2997 H   0  0  0  0  0  0  0  0  0  0  0  0
   -1.6370   43.9528   52.5332 H   0  0  0  0  0  0  0  0  0  0  0  0
   -2.3434   44.0485   54.7447 H   0  0  0  0  0  0  0  0  0  0  0  0
   -1.0802   42.8597   55.0941 H   0  0  0  0  0  0  0  0  0  0  0  0
   -1.1843   45.7167   55.7916 H   0  0  0  0  0  0  0  0  0  0  0  0
    0.0018   44.4941   56.3270 H   0  0  0  0  0  0  0  0  0  0  0  0
    0.5670   46.5430   54.7150 H   0  0  0  0  0  0  0  0  0  0  0  0
   -0.6663   46.1067   52.8955 H   0  0  0  0  0  0  0  0  0  0  0  0
    0.8208   45.2268   52.4724 H   0  0  0  0  0  0  0  0  0  0  0  0
  1  2  1  0
  2  3  1  0
  3  4  1  0
  4  5  2  0
  4  6  1  0
  6  7  2  0
  7  8  1  0
  8  9  2  0
  9 10  1  0
 10 11  1  0
 11 12  2  0
 12 13  1  0
 13 14  2  0
 14 15  1  0
 14 16  1  0
 16 17  2  0
  9 18  1  0
 18 19  2  0
  2 20  1  0
 20 21  1  0
 21 22  1  0
 22 23  1  0
 23 24  1  0
 19  6  1  0
 24 20  1  0
 17 11  1  0
  1 25  1  0
  1 26  1  0
  1 27  1  0
  2 28  1  6
  3 29  1  0
  7 30  1  0
  8 31  1  0
 12 32  1  0
 13 33  1  0
 16 34  1  0
 17 35  1  0
 18 36  1  0
 19 37  1  0
 20 38  1  6
 21 39  1  0
 21 40  1  0
 22 41  1  0
 22 42  1  0
 23 43  1  0
 24 44  1  0
 24 45  1  0
M  END
>  <meeko>  (1) 
{"is_sidechain": [false], "free_energy": -8.717, "intermolecular_energy": -11.266, "internal_energy": -0.997}

$$$$
ligand_23_conformer_3_docked
     RDKit          3D

 45 47  0  0  0  0  0  0  0  0999 V2000
   -2.3150   44.9300   53.5500 C   0  0  0  0  0  0  0  0  0  0  0  0
   -0.9710   44.2520   53.8440 C   0  0  2  0  0  0  0  0  0  0  0  0
    0.1190   45.2320   53.7450 N   0  0  0  0  0  0  0  0  0  0  0  0
    1.2480   45.2330   54.6350 C   0  0  0  0  0  0  0  0  0  0  0  0
    1.1800   44.6120   55.7310 O   0  0  0  0  0  0  0  0  0  0  0  0
    2.4900   45.9680   54.2950 C   0  0  0  0  0  0  0  0  0  0  0  0
    2.6490   46.5900   53.0430 C   0  0  0  0  0  0  0  0  0  0  0  0
    3.8330   47.2650   52.7310 C   0  0  0  0  0  0  0  0  0  0  0  0
    4.8860   47.3160   53.6590 C   0  0  0  0  0  0  0  0  0  0  0  0
    6.0820   47.9970   53.3870 O   0  0  0  0  0  0  0  0  0  0  0  0
    7.2680   47.4060   52.9280 C   0  0  0  0  0  0  0  0  0  0  0  0
    7.2220   46.6080   51.7790 C   0  0  0  0  0  0  0  0  0  0  0  0
    8.3860   46.0130   51.2820 C   0  0  0  0  0  0  0  0  0  0  0  0
    9.6110   46.2240   51.9260 C   0  0  0  0  0  0  0  0  0  0  0  0
   11.0710   45.4800   51.3000 Cl  0  0  0  0  0  0  0  0  0  0  0  0
    9.6690   47.0370   53.0620 C   0  0  0  0  0  0  0  0  0  0  0  0
    8.5070   47.6320   53.5600 C   0  0  0  0  0  0  0  0  0  0  0  0
    4.7260   46.7100   54.9080 C   0  0  0  0  0  0  0  0  0  0  0  0
    3.5450   46.0320   55.2220 C   0  0  0  0  0  0  0  0  0  0  0  0
   -0.7260   43.0280   52.9150 C   0  0  1  0  0  0  0  0  0  0  0  0
    0.0040   43.3640   51.6120 C   0  0  0  0  0  0  0  0  0  0  0  0
    1.3870   42.7340   51.7380 C   0  0  0  0  0  0  0  0  0  0  0  0
    1.5250   42.2140   53.0960 N   0  0  0  0  0  0  0  0  0  0  0  0
    0.1670   41.9790   53.5730 C   0  0  0  0  0  0  0  0  0  0  0  0
   -2.8138   45.1816   54.4976 H   0  0  0  0  0  0  0  0  0  0  0  0
   -2.1430   45.8492   52.9708 H   0  0  0  0  0  0  0  0  0  0  0  0
   -2.9521   44.2454   52.9708 H   0  0  0  0  0  0  0  0  0  0  0  0
   -0.9988   43.8643   54.8731 H   0  0  0  0  0  0  0  0  0  0  0  0
    0.0850   45.9310   52.9690 H   0  0  0  0  0  0  0  0  0  0  0  0
    1.8355   46.5449   52.3039 H   0  0  0  0  0  0  0  0  0  0  0  0
    3.9403   47.7586   51.7538 H   0  0  0  0  0  0  0  0  0  0  0  0
    6.2637   46.4477   51.2633 H   0  0  0  0  0  0  0  0  0  0  0  0
    8.3390   45.3788   50.3845 H   0  0  0  0  0  0  0  0  0  0  0  0
   10.6320   47.2087   53.5651 H   0  0  0  0  0  0  0  0  0  0  0  0
    8.5596   48.2788   54.4482 H   0  0  0  0  0  0  0  0  0  0  0  0
    5.5361   46.7671   55.6499 H   0  0  0  0  0  0  0  0  0  0  0  0
    3.4400   45.5445   56.2024 H   0  0  0  0  0  0  0  0  0  0  0  0
   -1.7461   42.6682   52.7155 H   0  0  0  0  0  0  0  0  0  0  0  0
   -0.5335   42.9397   50.7511 H   0  0  0  0  0  0  0  0  0  0  0  0
    0.0665   44.4503   51.4507 H   0  0  0  0  0  0  0  0  0  0  0  0
    1.4911   41.9141   51.0121 H   0  0  0  0  0  0  0  0  0  0  0  0
    2.1673   43.4822   51.5345 H   0  0  0  0  0  0  0  0  0  0  0  0
    2.0420   41.3040   53.0690 H   0  0  0  0  0  0  0  0  0  0  0  0
   -0.1638   40.9693   53.2883 H   0  0  0  0  0  0  0  0  0  0  0  0
    0.1179   42.0541   54.6693 H   0  0  0  0  0  0  0  0  0  0  0  0
  1  2  1  0
  2  3  1  0
  3  4  1  0
  4  5  2  0
  4  6  1  0
  6  7  2  0
  7  8  1  0
  8  9  2  0
  9 10  1  0
 10 11  1  0
 11 12  2  0
 12 13  1  0
 13 14  2  0
 14 15  1  0
 14 16  1  0
 16 17  2  0
  9 18  1  0
 18 19  2  0
  2 20  1  0
 20 21  1  0
 21 22  1  0
 22 23  1  0
 23 24  1  0
 19  6  1  0
 24 20  1  0
 17 11  1  0
  1 25  1  0
  1 26  1  0
  1 27  1  0
  2 28  1  1
  3 29  1  0
  7 30  1  0
  8 31  1  0
 12 32  1  0
 13 33  1  0
 16 34  1  0
 17 35  1  0
 18 36  1  0
 19 37  1  0
 20 38  1  6
 21 39  1  0
 21 40  1  0
 22 41  1  0
 22 42  1  0
 23 43  1  0
 24 44  1  0
 24 45  1  0
M  END
>  <meeko>  (2) 
{"is_sidechain": [false], "free_energy": -8.3, "intermolecular_energy": -10.654, "internal_energy": -1.07}

$$$$
ligand_23_conformer_3_docked
     RDKit          3D

 45 47  0  0  0  0  0  0  0  0999 V2000
    8.8260   47.9300   51.2600 C   0  0  0  0  0  0  0  0  0  0  0  0
    8.3910   46.5310   51.7160 C   0  0  2  0  0  0  0  0  0  0  0  0
    6.9300   46.4040   51.6220 N   0  0  0  0  0  0  0  0  0  0  0  0
    6.2850   45.2880   50.9850 C   0  0  0  0  0  0  0  0  0  0  0  0
    6.9420   44.5540   50.1970 O   0  0  0  0  0  0  0  0  0  0  0  0
    4.8520   44.9940   51.2260 C   0  0  0  0  0  0  0  0  0  0  0  0
    3.8620   45.9690   51.0120 C   0  0  0  0  0  0  0  0  0  0  0  0
    2.5160   45.6820   51.2590 C   0  0  0  0  0  0  0  0  0  0  0  0
    2.1380   44.4170   51.7410 C   0  0  0  0  0  0  0  0  0  0  0  0
    0.7960   44.0880   51.9860 O   0  0  0  0  0  0  0  0  0  0  0  0
    0.1260   44.2600   53.2050 C   0  0  0  0  0  0  0  0  0  0  0  0
   -1.1590   43.7220   53.3490 C   0  0  0  0  0  0  0  0  0  0  0  0
   -1.8530   43.8610   54.5550 C   0  0  0  0  0  0  0  0  0  0  0  0
   -1.2610   44.5290   55.6330 C   0  0  0  0  0  0  0  0  0  0  0  0
   -2.1320   44.7000   57.1460 Cl  0  0  0  0  0  0  0  0  0  0  0  0
    0.0300   45.0510   55.5040 C   0  0  0  0  0  0  0  0  0  0  0  0
    0.7250   44.9140   54.3000 C   0  0  0  0  0  0  0  0  0  0  0  0
    3.1180   43.4420   51.9430 C   0  0  0  0  0  0  0  0  0  0  0  0
    4.4640   43.7270   51.6990 C   0  0  0  0  0  0  0  0  0  0  0  0
    8.9020   46.2050   53.1490 C   0  0  1  0  0  0  0  0  0  0  0  0
    9.9540   47.1830   53.6780 C   0  0  0  0  0  0  0  0  0  0  0  0
    9.2690   47.9640   54.7940 C   0  0  0  0  0  0  0  0  0  0  0  0
    7.8550   47.5950   54.8020 N   0  0  0  0  0  0  0  0  0  0  0  0
    7.7830   46.2760   54.1860 C   0  0  0  0  0  0  0  0  0  0  0  0
    9.0215   48.5586   52.1413 H   0  0  0  0  0  0  0  0  0  0  0  0
    9.7418   47.8505   50.6559 H   0  0  0  0  0  0  0  0  0  0  0  0
    8.0266   48.3838   50.6559 H   0  0  0  0  0  0  0  0  0  0  0  0
    8.8501   45.7914   51.0436 H   0  0  0  0  0  0  0  0  0  0  0  0
    6.3410   47.1410   52.0720 H   0  0  0  0  0  0  0  0  0  0  0  0
    4.1488   46.9663   50.6471 H   0  0  0  0  0  0  0  0  0  0  0  0
    1.7497   46.4495   51.0753 H   0  0  0  0  0  0  0  0  0  0  0  0
   -1.6251   43.1870   52.5085 H   0  0  0  0  0  0  0  0  0  0  0  0
   -2.8660   43.4446   54.6566 H   0  0  0  0  0  0  0  0  0  0  0  0
    0.4992   45.5706   56.3525 H   0  0  0  0  0  0  0  0  0  0  0  0
    1.7438   45.3182   54.2064 H   0  0  0  0  0  0  0  0  0  0  0  0
    2.8276   42.4418   52.2970 H   0  0  0  0  0  0  0  0  0  0  0  0
    5.2264   42.9546   51.8782 H   0  0  0  0  0  0  0  0  0  0  0  0
    9.3236   45.1957   53.0322 H   0  0  0  0  0  0  0  0  0  0  0  0
   10.8232   46.6353   54.0711 H   0  0  0  0  0  0  0  0  0  0  0  0
   10.3235   47.8493   52.8846 H   0  0  0  0  0  0  0  0  0  0  0  0
    9.7263   47.7107   55.7618 H   0  0  0  0  0  0  0  0  0  0  0  0
    9.3805   49.0456   54.6273 H   0  0  0  0  0  0  0  0  0  0  0  0
    7.5170   47.5310   55.7910 H   0  0  0  0  0  0  0  0  0  0  0  0
    7.9241   45.4952   54.9479 H   0  0  0  0  0  0  0  0  0  0  0  0
    6.8016   46.1158   53.7157 H   0  0  0  0  0  0  0  0  0  0  0  0
  1  2  1  0
  2  3  1  0
  3  4  1  0
  4  5  2  0
  4  6  1  0
  6  7  2  0
  7  8  1  0
  8  9  2  0
  9 10  1  0
 10 11  1  0
 11 12  2  0
 12 13  1  0
 13 14  2  0
 14 15  1  0
 14 16  1  0
 16 17  2  0
  9 18  1  0
 18 19  2  0
  2 20  1  0
 20 21  1  0
 21 22  1  0
 22 23  1  0
 23 24  1  0
 19  6  1  0
 24 20  1  0
 17 11  1  0
  1 25  1  0
  1 26  1  0
  1 27  1  0
  2 28  1  6
  3 29  1  0
  7 30  1  0
  8 31  1  0
 12 32  1  0
 13 33  1  0
 16 34  1  0
 17 35  1  0
 18 36  1  0
 19 37  1  0
 20 38  1  6
 21 39  1  0
 21 40  1  0
 22 41  1  0
 22 42  1  0
 23 43  1  0
 24 44  1  0
 24 45  1  0
M  END
>  <meeko>  (3) 
{"is_sidechain": [false], "free_energy": -8.152, "intermolecular_energy": -10.675, "internal_energy": -0.856}

$$$$
ligand_23_conformer_3_docked
     RDKit          3D

 45 47  0  0  0  0  0  0  0  0999 V2000
    6.5820   46.9370   54.7260 C   0  0  0  0  0  0  0  0  0  0  0  0
    6.8110   47.1270   53.2220 C   0  0  2  0  0  0  0  0  0  0  0  0
    6.7730   45.8260   52.5400 N   0  0  0  0  0  0  0  0  0  0  0  0
    5.5450   45.1730   52.1760 C   0  0  0  0  0  0  0  0  0  0  0  0
    4.4640   45.5260   52.7230 O   0  0  0  0  0  0  0  0  0  0  0  0
    5.5280   44.0750   51.1790 C   0  0  0  0  0  0  0  0  0  0  0  0
    4.5950   43.0260   51.2680 C   0  0  0  0  0  0  0  0  0  0  0  0
    4.6020   41.9890   50.3300 C   0  0  0  0  0  0  0  0  0  0  0  0
    5.5540   41.9740   49.2960 C   0  0  0  0  0  0  0  0  0  0  0  0
    5.5810   40.9580   48.3290 O   0  0  0  0  0  0  0  0  0  0  0  0
    4.7380   40.8760   47.2110 C   0  0  0  0  0  0  0  0  0  0  0  0
    3.5680   40.1150   47.3050 C   0  0  0  0  0  0  0  0  0  0  0  0
    2.6940   40.0210   46.2170 C   0  0  0  0  0  0  0  0  0  0  0  0
    2.9800   40.7010   45.0280 C   0  0  0  0  0  0  0  0  0  0  0  0
    1.8830   40.5840   43.6650 Cl  0  0  0  0  0  0  0  0  0  0  0  0
    4.1370   41.4800   44.9330 C   0  0  0  0  0  0  0  0  0  0  0  0
    5.0110   41.5750   46.0190 C   0  0  0  0  0  0  0  0  0  0  0  0
    6.4740   43.0210   49.1990 C   0  0  0  0  0  0  0  0  0  0  0  0
    6.4710   44.0570   50.1370 C   0  0  0  0  0  0  0  0  0  0  0  0
    8.1370   47.8870   52.9300 C   0  0  1  0  0  0  0  0  0  0  0  0
    9.2620   47.5920   53.9250 C   0  0  0  0  0  0  0  0  0  0  0  0
   10.3010   46.7890   53.1480 C   0  0  0  0  0  0  0  0  0  0  0  0
    9.7430   46.4800   51.8340 N   0  0  0  0  0  0  0  0  0  0  0  0
    8.7330   47.5010   51.5790 C   0  0  0  0  0  0  0  0  0  0  0  0
    7.3102   47.5412   55.2870 H   0  0  0  0  0  0  0  0  0  0  0  0
    5.5623   47.2580   54.9851 H   0  0  0  0  0  0  0  0  0  0  0  0
    6.7092   45.8755   54.9851 H   0  0  0  0  0  0  0  0  0  0  0  0
    5.9975   47.7529   52.8264 H   0  0  0  0  0  0  0  0  0  0  0  0
    7.6810   45.3810   52.2770 H   0  0  0  0  0  0  0  0  0  0  0  0
    3.8545   43.0215   52.0814 H   0  0  0  0  0  0  0  0  0  0  0  0
    3.8589   41.1811   50.4017 H   0  0  0  0  0  0  0  0  0  0  0  0
    3.3337   39.5869   48.2410 H   0  0  0  0  0  0  0  0  0  0  0  0
    1.7813   39.4121   46.2961 H   0  0  0  0  0  0  0  0  0  0  0  0
    4.3599   42.0196   44.0007 H   0  0  0  0  0  0  0  0  0  0  0  0
    5.9148   42.1974   45.9429 H   0  0  0  0  0  0  0  0  0  0  0  0
    7.2062   43.0300   48.3782 H   0  0  0  0  0  0  0  0  0  0  0  0
    7.2130   44.8653   50.0591 H   0  0  0  0  0  0  0  0  0  0  0  0
    7.8284   48.9415   52.9836 H   0  0  0  0  0  0  0  0  0  0  0  0
    9.7012   48.5297   54.2963 H   0  0  0  0  0  0  0  0  0  0  0  0
    8.8938   47.0386   54.8015 H   0  0  0  0  0  0  0  0  0  0  0  0
   11.2208   47.3812   53.0330 H   0  0  0  0  0  0  0  0  0  0  0  0
   10.5475   45.8617   53.6859 H   0  0  0  0  0  0  0  0  0  0  0  0
   10.4960   46.5540   51.1100 H   0  0  0  0  0  0  0  0  0  0  0  0
    9.1953   48.3796   51.1053 H   0  0  0  0  0  0  0  0  0  0  0  0
    7.9545   47.1220   50.9006 H   0  0  0  0  0  0  0  0  0  0  0  0
  1  2  1  0
  2  3  1  0
  3  4  1  0
  4  5  2  0
  4  6  1  0
  6  7  2  0
  7  8  1  0
  8  9  2  0
  9 10  1  0
 10 11  1  0
 11 12  2  0
 12 13  1  0
 13 14  2  0
 14 15  1  0
 14 16  1  0
 16 17  2  0
  9 18  1  0
 18 19  2  0
  2 20  1  0
 20 21  1  0
 21 22  1  0
 22 23  1  0
 23 24  1  0
 19  6  1  0
 24 20  1  0
 17 11  1  0
  1 25  1  0
  1 26  1  0
  1 27  1  0
  2 28  1  6
  3 29  1  0
  7 30  1  0
  8 31  1  0
 12 32  1  0
 13 33  1  0
 16 34  1  0
 17 35  1  0
 18 36  1  0
 19 37  1  0
 20 38  1  6
 21 39  1  0
 21 40  1  0
 22 41  1  0
 22 42  1  0
 23 43  1  0
 24 44  1  0
 24 45  1  0
M  END
>  <meeko>  (4) 
{"is_sidechain": [false], "free_energy": -8.117, "intermolecular_energy": -10.542, "internal_energy": -0.945}

$$$$
ligand_23_conformer_3_docked
     RDKit          3D

 45 47  0  0  0  0  0  0  0  0999 V2000
    3.3220   39.7090   48.2570 C   0  0  0  0  0  0  0  0  0  0  0  0
    4.3510   40.4900   47.4320 C   0  0  2  0  0  0  0  0  0  0  0  0
    4.6870   41.7500   48.1090 N   0  0  0  0  0  0  0  0  0  0  0  0
    5.5380   41.8090   49.2660 C   0  0  0  0  0  0  0  0  0  0  0  0
    5.7530   40.7620   49.9370 O   0  0  0  0  0  0  0  0  0  0  0  0
    6.1560   43.0860   49.6980 C   0  0  0  0  0  0  0  0  0  0  0  0
    5.4490   44.0050   50.4940 C   0  0  0  0  0  0  0  0  0  0  0  0
    6.0390   45.2120   50.8790 C   0  0  0  0  0  0  0  0  0  0  0  0
    7.3420   45.5300   50.4600 C   0  0  0  0  0  0  0  0  0  0  0  0
    7.9730   46.7250   50.8390 O   0  0  0  0  0  0  0  0  0  0  0  0
    8.6550   46.9370   52.0450 C   0  0  0  0  0  0  0  0  0  0  0  0
    7.9720   47.5390   53.1090 C   0  0  0  0  0  0  0  0  0  0  0  0
    8.6150   47.7540   54.3320 C   0  0  0  0  0  0  0  0  0  0  0  0
    9.9450   47.3560   54.5050 C   0  0  0  0  0  0  0  0  0  0  0  0
   10.7490   47.6230   56.0400 Cl  0  0  0  0  0  0  0  0  0  0  0  0
   10.6280   46.7350   53.4540 C   0  0  0  0  0  0  0  0  0  0  0  0
    9.9880   46.5200   52.2310 C   0  0  0  0  0  0  0  0  0  0  0  0
    8.0520   44.6140   49.6790 C   0  0  0  0  0  0  0  0  0  0  0  0
    7.4630   43.4080   49.2900 C   0  0  0  0  0  0  0  0  0  0  0  0
    3.8580   40.7380   45.9770 C   0  0  1  0  0  0  0  0  0  0  0  0
    4.8590   41.4850   45.0920 C   0  0  0  0  0  0  0  0  0  0  0  0
    5.3500   40.4650   44.0700 C   0  0  0  0  0  0  0  0  0  0  0  0
    4.8080   39.1590   44.4380 N   0  0  0  0  0  0  0  0  0  0  0  0
    3.6110   39.4310   45.2260 C   0  0  0  0  0  0  0  0  0  0  0  0
    3.5205   39.8596   49.3284 H   0  0  0  0  0  0  0  0  0  0  0  0
    2.3105   40.0689   48.0173 H   0  0  0  0  0  0  0  0  0  0  0  0
    3.3965   38.6380   48.0173 H   0  0  0  0  0  0  0  0  0  0  0  0
    5.2634   39.8804   47.3551 H   0  0  0  0  0  0  0  0  0  0  0  0
    4.3190   42.6410   47.7050 H   0  0  0  0  0  0  0  0  0  0  0  0
    4.4234   43.7719   50.8161 H   0  0  0  0  0  0  0  0  0  0  0  0
    5.4807   45.9164   51.5131 H   0  0  0  0  0  0  0  0  0  0  0  0
    6.9230   47.8447   52.9819 H   0  0  0  0  0  0  0  0  0  0  0  0
    8.0742   48.2368   55.1593 H   0  0  0  0  0  0  0  0  0  0  0  0
   11.6715   46.4152   53.5909 H   0  0  0  0  0  0  0  0  0  0  0  0
   10.5265   46.0235   51.4104 H   0  0  0  0  0  0  0  0  0  0  0  0
    9.0818   44.8440   49.3683 H   0  0  0  0  0  0  0  0  0  0  0  0
    8.0263   42.7045   48.6593 H   0  0  0  0  0  0  0  0  0  0  0  0
    2.9452   41.3326   46.1291 H   0  0  0  0  0  0  0  0  0  0  0  0
    4.3677   42.3289   44.5856 H   0  0  0  0  0  0  0  0  0  0  0  0
    5.6897   41.9006   45.6812 H   0  0  0  0  0  0  0  0  0  0  0  0
    4.9996   40.7448   43.0655 H   0  0  0  0  0  0  0  0  0  0  0  0
    6.4495   40.4331   44.0604 H   0  0  0  0  0  0  0  0  0  0  0  0
    4.5370   38.6370   43.5710 H   0  0  0  0  0  0  0  0  0  0  0  0
    2.7385   39.5347   44.5641 H   0  0  0  0  0  0  0  0  0  0  0  0
    3.4071   38.6081   45.9269 H   0  0  0  0  0  0  0  0  0  0  0  0
  1  2  1  0
  2  3  1  0
  3  4  1  0
  4  5  2  0
  4  6  1  0
  6  7  2  0
  7  8  1  0
  8  9  2  0
  9 10  1  0
 10 11  1  0
 11 12  2  0
 12 13  1  0
 13 14  2  0
 14 15  1  0
 14 16  1  0
 16 17  2  0
  9 18  1  0
 18 19  2  0
  2 20  1  0
 20 21  1  0
 21 22  1  0
 22 23  1  0
 23 24  1  0
 19  6  1  0
 24 20  1  0
 17 11  1  0
  1 25  1  0
  1 26  1  0
  1 27  1  0
  2 28  1  6
  3 29  1  0
  7 30  1  0
  8 31  1  0
 12 32  1  0
 13 33  1  0
 16 34  1  0
 17 35  1  0
 18 36  1  0
 19 37  1  0
 20 38  1  1
 21 39  1  0
 21 40  1  0
 22 41  1  0
 22 42  1  0
 23 43  1  0
 24 44  1  0
 24 45  1  0
M  END
>  <meeko>  (5) 
{"is_sidechain": [false], "free_energy": -7.825, "intermolecular_energy": -10.574, "internal_energy": -0.535}

$$$$
