ligand_53_conformer_3_docked
     RDKit          3D

 38 40  0  0  0  0  0  0  0  0999 V2000
    1.1030   45.5670   54.8300 N   0  0  0  0  0  0  0  0  0  0  0  0
    2.2440   45.4670   54.6700 C   0  0  0  0  0  0  0  0  0  0  0  0
    3.6630   45.3430   54.4720 C   0  0  0  0  0  0  0  0  0  0  0  0
    4.2120   45.4810   53.1950 C   0  0  0  0  0  0  0  0  0  0  0  0
    5.6040   45.3560   53.0380 C   0  0  0  0  0  0  0  0  0  0  0  0
    6.2460   45.4860   51.7430 N   0  0  0  0  0  0  0  0  0  0  0  0
    7.5640   46.1380   51.6510 C   0  0  0  0  0  0  0  0  0  0  0  0
    7.5220   47.5770   52.1860 C   0  0  0  0  0  0  0  0  0  0  0  0
    8.8320   47.9730   52.8940 C   0  0  1  0  0  0  0  0  0  0  0  0
    8.7010   48.0210   54.4170 C   0  0  0  0  0  0  0  0  0  0  0  0
    9.7330   46.9070   54.5390 C   0  0  2  0  0  0  0  0  0  0  0  0
   10.9020   47.3470   55.1370 F   0  0  0  0  0  0  0  0  0  0  0  0
    9.8560   46.8430   53.0240 C   0  0  0  0  0  0  0  0  0  0  0  0
    5.5760   45.0640   50.5010 C   0  0  0  0  0  0  0  0  0  0  0  0
    5.5930   43.5730   50.3810 C   0  0  0  0  0  0  0  0  0  0  0  0
    6.5590   42.7830   49.7730 C   0  0  0  0  0  0  0  0  0  0  0  0
    6.2620   41.4060   49.8360 C   0  0  0  0  0  0  0  0  0  0  0  0
    5.1050   41.0680   50.4620 N   0  0  0  0  0  0  0  0  0  0  0  0
    4.4410   42.5110   50.9460 S   0  0  0  0  0  0  0  0  0  0  0  0
    6.3630   45.0980   54.1410 N   0  0  0  0  0  0  0  0  0  0  0  0
    5.8100   44.9650   55.3730 C   0  0  0  0  0  0  0  0  0  0  0  0
    4.4690   45.0890   55.5330 N   0  0  0  0  0  0  0  0  0  0  0  0
    3.5669   45.6839   52.3274 H   0  0  0  0  0  0  0  0  0  0  0  0
    8.2904   45.5592   52.2403 H   0  0  0  0  0  0  0  0  0  0  0  0
    7.8568   46.1736   50.5913 H   0  0  0  0  0  0  0  0  0  0  0  0
    7.3532   48.2635   51.3433 H   0  0  0  0  0  0  0  0  0  0  0  0
    6.7076   47.6398   52.9227 H   0  0  0  0  0  0  0  0  0  0  0  0
    9.0812   48.8736   52.3136 H   0  0  0  0  0  0  0  0  0  0  0  0
    9.0148   48.9753   54.8651 H   0  0  0  0  0  0  0  0  0  0  0  0
    7.7152   47.9223   54.8950 H   0  0  0  0  0  0  0  0  0  0  0  0
    9.5099   45.9996   55.1194 H   0  0  0  0  0  0  0  0  0  0  0  0
   10.8563   47.0972   52.6434 H   0  0  0  0  0  0  0  0  0  0  0  0
    9.7061   45.8916   52.4927 H   0  0  0  0  0  0  0  0  0  0  0  0
    4.5335   45.4149   50.5141 H   0  0  0  0  0  0  0  0  0  0  0  0
    6.1095   45.4976   49.6423 H   0  0  0  0  0  0  0  0  0  0  0  0
    7.4615   43.1886   49.2925 H   0  0  0  0  0  0  0  0  0  0  0  0
    6.9303   40.6476   49.4022 H   0  0  0  0  0  0  0  0  0  0  0  0
    6.4501   44.7564   56.2429 H   0  0  0  0  0  0  0  0  0  0  0  0
  1  2  3  0
  2  3  1  0
  3  4  2  0
  4  5  1  0
  5  6  1  0
  6  7  1  0
  7  8  1  0
  8  9  1  0
  9 10  1  0
 10 11  1  0
 11 12  1  0
 11 13  1  0
  6 14  1  0
 14 15  1  0
 15 16  2  0
 16 17  1  0
 17 18  2  0
 18 19  1  0
  5 20  2  0
 20 21  1  0
 21 22  2  0
 22  3  1  0
 13  9  1  0
 19 15  1  0
  4 23  1  0
  7 24  1  0
  7 25  1  0
  8 26  1  0
  8 27  1  0
  9 28  1  6
 10 29  1  0
 10 30  1  0
 11 31  1  1
 13 32  1  0
 13 33  1  0
 14 34  1  0
 14 35  1  0
 16 36  1  0
 17 37  1  0
 21 38  1  0
M  END
>  <meeko>  (1) 
{"is_sidechain": [false], "free_energy": -8.246, "intermolecular_energy": -11.138, "internal_energy": -0.782}

$$$$
ligand_53_conformer_3_docked
     RDKit          3D

 38 40  0  0  0  0  0  0  0  0999 V2000
   10.6750   47.5070   56.0890 N   0  0  0  0  0  0  0  0  0  0  0  0
   10.1620   47.2650   55.0800 C   0  0  0  0  0  0  0  0  0  0  0  0
    9.5250   46.9650   53.8270 C   0  0  0  0  0  0  0  0  0  0  0  0
    8.1320   46.9530   53.7280 C   0  0  0  0  0  0  0  0  0  0  0  0
    7.5430   46.6570   52.4850 C   0  0  0  0  0  0  0  0  0  0  0  0
    6.1030   46.6260   52.3060 N   0  0  0  0  0  0  0  0  0  0  0  0
    5.5260   45.8130   51.2220 C   0  0  0  0  0  0  0  0  0  0  0  0
    5.4980   44.3220   51.5870 C   0  0  0  0  0  0  0  0  0  0  0  0
    5.2920   43.4230   50.3520 C   0  0  1  0  0  0  0  0  0  0  0  0
    6.6030   43.0340   49.6670 C   0  0  0  0  0  0  0  0  0  0  0  0
    6.3270   41.5680   49.9740 C   0  0  2  0  0  0  0  0  0  0  0  0
    6.1010   40.8320   48.8230 F   0  0  0  0  0  0  0  0  0  0  0  0
    5.0290   41.9500   50.6700 C   0  0  0  0  0  0  0  0  0  0  0  0
    5.2030   47.4580   53.1240 C   0  0  0  0  0  0  0  0  0  0  0  0
    4.1650   46.6080   53.7850 C   0  0  0  0  0  0  0  0  0  0  0  0
    2.8290   46.4760   53.4330 C   0  0  0  0  0  0  0  0  0  0  0  0
    2.1240   45.5900   54.2730 C   0  0  0  0  0  0  0  0  0  0  0  0
    2.8380   45.0170   55.2770 N   0  0  0  0  0  0  0  0  0  0  0  0
    4.3740   45.6250   55.1130 S   0  0  0  0  0  0  0  0  0  0  0  0
    8.3580   46.3860   51.4270 N   0  0  0  0  0  0  0  0  0  0  0  0
    9.7090   46.4000   51.5440 C   0  0  0  0  0  0  0  0  0  0  0  0
   10.2850   46.6900   52.7380 N   0  0  0  0  0  0  0  0  0  0  0  0
    7.5065   47.1711   54.6062 H   0  0  0  0  0  0  0  0  0  0  0  0
    4.4976   46.1528   51.0296 H   0  0  0  0  0  0  0  0  0  0  0  0
    6.1544   45.9364   50.3276 H   0  0  0  0  0  0  0  0  0  0  0  0
    6.4533   44.0560   52.0632 H   0  0  0  0  0  0  0  0  0  0  0  0
    4.6507   44.1576   52.2690 H   0  0  0  0  0  0  0  0  0  0  0  0
    4.5273   44.0151   49.8279 H   0  0  0  0  0  0  0  0  0  0  0  0
    6.6359   43.2696   48.5930 H   0  0  0  0  0  0  0  0  0  0  0  0
    7.5515   43.4986   49.9744 H   0  0  0  0  0  0  0  0  0  0  0  0
    7.0786   40.9540   50.4918 H   0  0  0  0  0  0  0  0  0  0  0  0
    4.1262   41.5417   50.1922 H   0  0  0  0  0  0  0  0  0  0  0  0
    4.8368   41.6295   51.7046 H   0  0  0  0  0  0  0  0  0  0  0  0
    5.7907   47.9777   53.8950 H   0  0  0  0  0  0  0  0  0  0  0  0
    4.7031   48.1900   52.4726 H   0  0  0  0  0  0  0  0  0  0  0  0
    2.3683   47.0072   52.5870 H   0  0  0  0  0  0  0  0  0  0  0  0
    1.0556   45.3746   54.1239 H   0  0  0  0  0  0  0  0  0  0  0  0
   10.3385   46.1761   50.6702 H   0  0  0  0  0  0  0  0  0  0  0  0
  1  2  3  0
  2  3  1  0
  3  4  2  0
  4  5  1  0
  5  6  1  0
  6  7  1  0
  7  8  1  0
  8  9  1  0
  9 10  1  0
 10 11  1  0
 11 12  1  0
 11 13  1  0
  6 14  1  0
 14 15  1  0
 15 16  2  0
 16 17  1  0
 17 18  2  0
 18 19  1  0
  5 20  2  0
 20 21  1  0
 21 22  2  0
 22  3  1  0
 13  9  1  0
 19 15  1  0
  4 23  1  0
  7 24  1  0
  7 25  1  0
  8 26  1  0
  8 27  1  0
  9 28  1  6
 10 29  1  0
 10 30  1  0
 11 31  1  1
 13 32  1  0
 13 33  1  0
 14 34  1  0
 14 35  1  0
 16 36  1  0
 17 37  1  0
 21 38  1  0
M  END
>  <meeko>  (2) 
{"is_sidechain": [false], "free_energy": -8.036, "intermolecular_energy": -10.965, "internal_energy": -0.671}

$$$$
ligand_53_conformer_3_docked
     RDKit          3D

 38 40  0  0  0  0  0  0  0  0999 V2000
    3.6470   40.4360   49.8960 N   0  0  0  0  0  0  0  0  0  0  0  0
    4.4190   41.2970   49.9420 C   0  0  0  0  0  0  0  0  0  0  0  0
    5.3770   42.3670   50.0000 C   0  0  0  0  0  0  0  0  0  0  0  0
    5.1690   43.4570   50.8480 C   0  0  0  0  0  0  0  0  0  0  0  0
    6.1280   44.4850   50.8810 C   0  0  0  0  0  0  0  0  0  0  0  0
    5.9800   45.6480   51.7370 N   0  0  0  0  0  0  0  0  0  0  0  0
    7.1180   46.0880   52.5630 C   0  0  0  0  0  0  0  0  0  0  0  0
    7.4460   47.5700   52.3290 C   0  0  0  0  0  0  0  0  0  0  0  0
    8.7920   47.9750   52.9600 C   0  0  1  0  0  0  0  0  0  0  0  0
    8.7630   47.9740   54.4890 C   0  0  0  0  0  0  0  0  0  0  0  0
    9.8240   46.8800   54.5070 C   0  0  2  0  0  0  0  0  0  0  0  0
   11.0210   47.3280   55.0400 F   0  0  0  0  0  0  0  0  0  0  0  0
    9.8460   46.8650   52.9860 C   0  0  0  0  0  0  0  0  0  0  0  0
    4.6930   46.3500   51.8720 C   0  0  0  0  0  0  0  0  0  0  0  0
    4.0490   46.0130   53.1800 C   0  0  0  0  0  0  0  0  0  0  0  0
    4.2580   46.6250   54.4080 C   0  0  0  0  0  0  0  0  0  0  0  0
    3.4880   46.0560   55.4440 C   0  0  0  0  0  0  0  0  0  0  0  0
    2.6830   45.0190   55.0940 N   0  0  0  0  0  0  0  0  0  0  0  0
    2.9350   44.8090   53.4660 S   0  0  0  0  0  0  0  0  0  0  0  0
    7.2220   44.3790   50.0750 N   0  0  0  0  0  0  0  0  0  0  0  0
    7.4060   43.3140   49.2550 C   0  0  0  0  0  0  0  0  0  0  0  0
    6.4870   42.3160   49.2220 N   0  0  0  0  0  0  0  0  0  0  0  0
    4.2700   43.5105   51.4796 H   0  0  0  0  0  0  0  0  0  0  0  0
    6.8672   45.9410   53.6239 H   0  0  0  0  0  0  0  0  0  0  0  0
    7.9986   45.4919   52.2816 H   0  0  0  0  0  0  0  0  0  0  0  0
    7.4924   47.7558   51.2458 H   0  0  0  0  0  0  0  0  0  0  0  0
    6.6561   48.1698   52.8046 H   0  0  0  0  0  0  0  0  0  0  0  0
    8.9826   48.8981   52.3929 H   0  0  0  0  0  0  0  0  0  0  0  0
    9.0866   48.9212   54.9451 H   0  0  0  0  0  0  0  0  0  0  0  0
    7.8138   47.8386   55.0282 H   0  0  0  0  0  0  0  0  0  0  0  0
    9.6594   45.9505   55.0718 H   0  0  0  0  0  0  0  0  0  0  0  0
   10.8129   47.1535   52.5480 H   0  0  0  0  0  0  0  0  0  0  0  0
    9.6804   45.9269   52.4360 H   0  0  0  0  0  0  0  0  0  0  0  0
    4.8652   47.4353   51.8219 H   0  0  0  0  0  0  0  0  0  0  0  0
    4.0274   46.0345   51.0551 H   0  0  0  0  0  0  0  0  0  0  0  0
    4.9514   47.4657   54.5577 H   0  0  0  0  0  0  0  0  0  0  0  0
    3.5366   46.4308   56.4770 H   0  0  0  0  0  0  0  0  0  0  0  0
    8.3002   43.2594   48.6168 H   0  0  0  0  0  0  0  0  0  0  0  0
  1  2  3  0
  2  3  1  0
  3  4  2  0
  4  5  1  0
  5  6  1  0
  6  7  1  0
  7  8  1  0
  8  9  1  0
  9 10  1  0
 10 11  1  0
 11 12  1  0
 11 13  1  0
  6 14  1  0
 14 15  1  0
 15 16  2  0
 16 17  1  0
 17 18  2  0
 18 19  1  0
  5 20  2  0
 20 21  1  0
 21 22  2  0
 22  3  1  0
 13  9  1  0
 19 15  1  0
  4 23  1  0
  7 24  1  0
  7 25  1  0
  8 26  1  0
  8 27  1  0
  9 28  1  6
 10 29  1  0
 10 30  1  0
 11 31  1  1
 13 32  1  0
 13 33  1  0
 14 34  1  0
 14 35  1  0
 16 36  1  0
 17 37  1  0
 21 38  1  0
M  END
>  <meeko>  (3) 
{"is_sidechain": [false], "free_energy": -7.981, "intermolecular_energy": -11.005, "internal_energy": -0.557}

$$$$
ligand_53_conformer_3_docked
     RDKit          3D

 38 40  0  0  0  0  0  0  0  0999 V2000
   -0.7770   45.3940   52.0570 N   0  0  0  0  0  0  0  0  0  0  0  0
    0.2770   45.4500   52.5320 C   0  0  0  0  0  0  0  0  0  0  0  0
    1.5860   45.5180   53.1220 C   0  0  0  0  0  0  0  0  0  0  0  0
    2.7260   45.4860   52.3160 C   0  0  0  0  0  0  0  0  0  0  0  0
    3.9910   45.5580   52.9260 C   0  0  0  0  0  0  0  0  0  0  0  0
    5.2200   45.5300   52.1540 N   0  0  0  0  0  0  0  0  0  0  0  0
    6.4970   45.8480   52.8150 C   0  0  0  0  0  0  0  0  0  0  0  0
    7.4610   46.5720   51.8640 C   0  0  0  0  0  0  0  0  0  0  0  0
    8.5020   47.4180   52.6230 C   0  0  1  0  0  0  0  0  0  0  0  0
    8.4250   47.2450   54.1400 C   0  0  0  0  0  0  0  0  0  0  0  0
    9.8380   46.6770   54.1460 C   0  0  2  0  0  0  0  0  0  0  0  0
   10.7300   47.5120   54.8000 F   0  0  0  0  0  0  0  0  0  0  0  0
    9.9160   46.8310   52.6350 C   0  0  0  0  0  0  0  0  0  0  0  0
    5.2160   45.2780   50.7030 C   0  0  0  0  0  0  0  0  0  0  0  0
    5.4460   43.8260   50.4250 C   0  0  0  0  0  0  0  0  0  0  0  0
    4.6410   42.7560   50.7920 C   0  0  0  0  0  0  0  0  0  0  0  0
    5.1550   41.5120   50.3710 C   0  0  0  0  0  0  0  0  0  0  0  0
    6.3300   41.5460   49.6920 N   0  0  0  0  0  0  0  0  0  0  0  0
    6.7360   43.1550   49.6140 S   0  0  0  0  0  0  0  0  0  0  0  0
    4.0530   45.6480   54.2850 N   0  0  0  0  0  0  0  0  0  0  0  0
    2.9340   45.6760   55.0510 C   0  0  0  0  0  0  0  0  0  0  0  0
    1.7100   45.6120   54.4690 N   0  0  0  0  0  0  0  0  0  0  0  0
    2.6360   45.4058   51.2226 H   0  0  0  0  0  0  0  0  0  0  0  0
    6.2986   46.4946   53.6825 H   0  0  0  0  0  0  0  0  0  0  0  0
    6.9668   44.9039   53.1279 H   0  0  0  0  0  0  0  0  0  0  0  0
    7.9889   45.8222   51.2564 H   0  0  0  0  0  0  0  0  0  0  0  0
    6.8676   47.2516   51.2347 H   0  0  0  0  0  0  0  0  0  0  0  0
    8.3175   48.3935   52.1493 H   0  0  0  0  0  0  0  0  0  0  0  0
    8.3179   48.1887   54.6949 H   0  0  0  0  0  0  0  0  0  0  0  0
    7.5965   46.6824   54.5952 H   0  0  0  0  0  0  0  0  0  0  0  0
   10.0479   45.7066   54.6196 H   0  0  0  0  0  0  0  0  0  0  0  0
   10.6950   47.5288   52.2942 H   0  0  0  0  0  0  0  0  0  0  0  0
   10.1668   45.9690   51.9993 H   0  0  0  0  0  0  0  0  0  0  0  0
    4.2431   45.5772   50.2859 H   0  0  0  0  0  0  0  0  0  0  0  0
    6.0230   45.8626   50.2372 H   0  0  0  0  0  0  0  0  0  0  0  0
    3.7009   42.8669   51.3523 H   0  0  0  0  0  0  0  0  0  0  0  0
    4.6329   40.5669   50.5811 H   0  0  0  0  0  0  0  0  0  0  0  0
    3.0189   45.7507   56.1452 H   0  0  0  0  0  0  0  0  0  0  0  0
  1  2  3  0
  2  3  1  0
  3  4  2  0
  4  5  1  0
  5  6  1  0
  6  7  1  0
  7  8  1  0
  8  9  1  0
  9 10  1  0
 10 11  1  0
 11 12  1  0
 11 13  1  0
  6 14  1  0
 14 15  1  0
 15 16  2  0
 16 17  1  0
 17 18  2  0
 18 19  1  0
  5 20  2  0
 20 21  1  0
 21 22  2  0
 22  3  1  0
 13  9  1  0
 19 15  1  0
  4 23  1  0
  7 24  1  0
  7 25  1  0
  8 26  1  0
  8 27  1  0
  9 28  1  1
 10 29  1  0
 10 30  1  0
 11 31  1  6
 13 32  1  0
 13 33  1  0
 14 34  1  0
 14 35  1  0
 16 36  1  0
 17 37  1  0
 21 38  1  0
M  END
>  <meeko>  (4) 
{"is_sidechain": [false], "free_energy": -7.807, "intermolecular_energy": -10.601, "internal_energy": -0.726}

$$$$
ligand_53_conformer_3_docked
     RDKit          3D

 38 40  0  0  0  0  0  0  0  0999 V2000
   10.3020   47.5930   55.6450 N   0  0  0  0  0  0  0  0  0  0  0  0
    9.8650   47.2050   54.6470 C   0  0  0  0  0  0  0  0  0  0  0  0
    9.3210   46.7220   53.4070 C   0  0  0  0  0  0  0  0  0  0  0  0
    7.9480   46.5010   53.2760 C   0  0  0  0  0  0  0  0  0  0  0  0
    7.4500   46.0300   52.0480 C   0  0  0  0  0  0  0  0  0  0  0  0
    6.0360   45.7780   51.8380 N   0  0  0  0  0  0  0  0  0  0  0  0
    5.1020   45.9050   52.9700 C   0  0  0  0  0  0  0  0  0  0  0  0
    3.7830   46.5650   52.5440 C   0  0  0  0  0  0  0  0  0  0  0  0
    2.6270   46.2300   53.5050 C   0  0  1  0  0  0  0  0  0  0  0  0
    1.4860   45.4670   52.8300 C   0  0  0  0  0  0  0  0  0  0  0  0
    1.7350   44.2810   53.7510 C   0  0  2  0  0  0  0  0  0  0  0  0
    0.6780   44.0690   54.6210 F   0  0  0  0  0  0  0  0  0  0  0  0
    2.8810   45.0270   54.4170 C   0  0  0  0  0  0  0  0  0  0  0  0
    5.5180   45.3110   50.5410 C   0  0  0  0  0  0  0  0  0  0  0  0
    5.4550   43.8160   50.5120 C   0  0  0  0  0  0  0  0  0  0  0  0
    6.3430   42.9440   49.8970 C   0  0  0  0  0  0  0  0  0  0  0  0
    5.9860   41.5900   50.0620 C   0  0  0  0  0  0  0  0  0  0  0  0
    4.8550   41.3490   50.7750 N   0  0  0  0  0  0  0  0  0  0  0  0
    4.2920   42.8500   51.2070 S   0  0  0  0  0  0  0  0  0  0  0  0
    8.3310   45.8000   51.0340 N   0  0  0  0  0  0  0  0  0  0  0  0
    9.6620   46.0180   51.1810 C   0  0  0  0  0  0  0  0  0  0  0  0
   10.1490   46.4770   52.3610 N   0  0  0  0  0  0  0  0  0  0  0  0
    7.2678   46.6921   54.1191 H   0  0  0  0  0  0  0  0  0  0  0  0
    4.8869   44.9029   53.3693 H   0  0  0  0  0  0  0  0  0  0  0  0
    5.5730   46.5402   53.7346 H   0  0  0  0  0  0  0  0  0  0  0  0
    3.9229   47.6559   52.5250 H   0  0  0  0  0  0  0  0  0  0  0  0
    3.5178   46.1776   51.5492 H   0  0  0  0  0  0  0  0  0  0  0  0
    2.4678   47.2263   53.9433 H   0  0  0  0  0  0  0  0  0  0  0  0
    0.4977   45.9334   52.9555 H   0  0  0  0  0  0  0  0  0  0  0  0
    1.4756   45.3319   51.7384 H   0  0  0  0  0  0  0  0  0  0  0  0
    1.8911   43.2745   53.3356 H   0  0  0  0  0  0  0  0  0  0  0  0
    2.7223   45.2323   55.4860 H   0  0  0  0  0  0  0  0  0  0  0  0
    3.8815   44.5736   54.4752 H   0  0  0  0  0  0  0  0  0  0  0  0
    4.5085   45.7194   50.3856 H   0  0  0  0  0  0  0  0  0  0  0  0
    6.1920   45.6552   49.7428 H   0  0  0  0  0  0  0  0  0  0  0  0
    7.2318   43.2746   49.3395 H   0  0  0  0  0  0  0  0  0  0  0  0
    6.5895   40.7744   49.6372 H   0  0  0  0  0  0  0  0  0  0  0  0
   10.3468   45.8224   50.3427 H   0  0  0  0  0  0  0  0  0  0  0  0
  1  2  3  0
  2  3  1  0
  3  4  2  0
  4  5  1  0
  5  6  1  0
  6  7  1  0
  7  8  1  0
  8  9  1  0
  9 10  1  0
 10 11  1  0
 11 12  1  0
 11 13  1  0
  6 14  1  0
 14 15  1  0
 15 16  2  0
 16 17  1  0
 17 18  2  0
 18 19  1  0
  5 20  2  0
 20 21  1  0
 21 22  2  0
 22  3  1  0
 13  9  1  0
 19 15  1  0
  4 23  1  0
  7 24  1  0
  7 25  1  0
  8 26  1  0
  8 27  1  0
  9 28  1  1
 10 29  1  0
 10 30  1  0
 11 31  1  6
 13 32  1  0
 13 33  1  0
 14 34  1  0
 14 35  1  0
 16 36  1  0
 17 37  1  0
 21 38  1  0
M  END
>  <meeko>  (5) 
{"is_sidechain": [false], "free_energy": -7.497, "intermolecular_energy": -10.106, "internal_energy": -0.803}

$$$$
