ligand_86_conformer_2_docked
     RDKit          3D

 44 47  0  0  0  0  0  0  0  0999 V2000
    7.9990   44.9040   49.4550 O   0  0  0  0  0  0  0  0  0  0  0  0
    7.2830   44.8600   50.4920 C   0  0  0  0  0  0  0  0  0  0  0  0
    7.5350   45.7770   51.5700 N   0  0  0  0  0  0  0  0  0  0  0  0
    8.3610   46.9790   51.3940 C   0  0  0  0  0  0  0  0  0  0  0  0
    7.8690   48.1110   52.3100 C   0  0  0  0  0  0  0  0  0  0  0  0
    8.2420   47.8210   53.7690 C   0  0  0  0  0  0  0  0  0  0  0  0
    9.6420   47.6700   53.9090 O   0  0  0  0  0  0  0  0  0  0  0  0
   10.0760   46.5220   53.2040 C   0  0  0  0  0  0  0  0  0  0  0  0
    9.8420   46.6780   51.6940 C   0  0  0  0  0  0  0  0  0  0  0  0
    6.2010   43.8520   50.5880 C   0  0  0  0  0  0  0  0  0  0  0  0
    6.2760   42.6570   49.8560 C   0  0  0  0  0  0  0  0  0  0  0  0
    5.2800   41.7380   49.9390 N   0  0  0  0  0  0  0  0  0  0  0  0
    4.1830   41.9330   50.7160 C   0  0  0  0  0  0  0  0  0  0  0  0
    4.0440   43.1160   51.4600 C   0  0  0  0  0  0  0  0  0  0  0  0
    2.8410   43.3480   52.3000 C   0  0  0  0  0  0  0  0  0  0  0  0
    1.6250   42.6760   52.0150 C   0  0  0  0  0  0  0  0  0  0  0  0
    0.4860   42.8930   52.8080 C   0  0  0  0  0  0  0  0  0  0  0  0
    0.5840   43.7800   53.8750 C   0  0  0  0  0  0  0  0  0  0  0  0
    1.7450   44.4330   54.1620 C   0  0  0  0  0  0  0  0  0  0  0  0
    2.8940   44.2410   53.3950 C   0  0  0  0  0  0  0  0  0  0  0  0
    1.5540   45.3120   55.3440 C   0  0  0  0  0  0  0  0  0  0  0  0
    0.0710   45.0630   55.7140 C   0  0  0  0  0  0  0  0  0  0  0  0
   -0.4170   44.1210   54.7580 O   0  0  0  0  0  0  0  0  0  0  0  0
    5.0660   44.0760   51.3860 C   0  0  0  0  0  0  0  0  0  0  0  0
    7.1760   45.5360   52.5200 H   0  0  0  0  0  0  0  0  0  0  0  0
    8.2702   47.2982   50.3453 H   0  0  0  0  0  0  0  0  0  0  0  0
    8.3350   49.0574   51.9984 H   0  0  0  0  0  0  0  0  0  0  0  0
    6.7743   48.1833   52.2300 H   0  0  0  0  0  0  0  0  0  0  0  0
    7.9044   48.6561   54.4004 H   0  0  0  0  0  0  0  0  0  0  0  0
    7.7536   46.8852   54.0786 H   0  0  0  0  0  0  0  0  0  0  0  0
   11.1503   46.3728   53.3874 H   0  0  0  0  0  0  0  0  0  0  0  0
    9.4987   45.6555   53.5589 H   0  0  0  0  0  0  0  0  0  0  0  0
   10.4609   47.5058   51.3175 H   0  0  0  0  0  0  0  0  0  0  0  0
   10.1162   45.7356   51.1972 H   0  0  0  0  0  0  0  0  0  0  0  0
    7.1463   42.4639   49.2116 H   0  0  0  0  0  0  0  0  0  0  0  0
    3.4005   41.1613   50.7627 H   0  0  0  0  0  0  0  0  0  0  0  0
    1.5733   41.9789   51.1657 H   0  0  0  0  0  0  0  0  0  0  0  0
   -0.4595   42.3746   52.5907 H   0  0  0  0  0  0  0  0  0  0  0  0
    3.8247   44.7747   53.6376 H   0  0  0  0  0  0  0  0  0  0  0  0
    2.2229   45.0212   56.1674 H   0  0  0  0  0  0  0  0  0  0  0  0
    1.7837   46.3691   55.1448 H   0  0  0  0  0  0  0  0  0  0  0  0
   -0.0058   44.6510   56.7310 H   0  0  0  0  0  0  0  0  0  0  0  0
   -0.5121   45.9956   55.6967 H   0  0  0  0  0  0  0  0  0  0  0  0
    4.9775   45.0116   51.9576 H   0  0  0  0  0  0  0  0  0  0  0  0
  1  2  2  0
  2  3  1  0
  3  4  1  0
  4  5  1  0
  5  6  1  0
  6  7  1  0
  7  8  1  0
  8  9  1  0
  2 10  1  0
 10 11  2  0
 11 12  1  0
 12 13  2  0
 13 14  1  0
 14 15  1  0
 15 16  2  0
 16 17  1  0
 17 18  2  0
 18 19  1  0
 19 20  2  0
 19 21  1  0
 21 22  1  0
 22 23  1  0
 14 24  2  0
  9  4  1  0
 24 10  1  0
 20 15  1  0
 23 18  1  0
  3 25  1  0
  4 26  1  0
  5 27  1  0
  5 28  1  0
  6 29  1  0
  6 30  1  0
  8 31  1  0
  8 32  1  0
  9 33  1  0
  9 34  1  0
 11 35  1  0
 13 36  1  0
 16 37  1  0
 17 38  1  0
 20 39  1  0
 21 40  1  0
 21 41  1  0
 22 42  1  0
 22 43  1  0
 24 44  1  0
M  END
>  <meeko>  (1) 
{"is_sidechain": [false], "free_energy": -8.997, "intermolecular_energy": -10.575, "internal_energy": -0.648}

$$$$
ligand_86_conformer_2_docked
     RDKit          3D

 44 47  0  0  0  0  0  0  0  0999 V2000
    1.7190   42.6970   51.0120 O   0  0  0  0  0  0  0  0  0  0  0  0
    1.2610   43.8630   51.1550 C   0  0  0  0  0  0  0  0  0  0  0  0
   -0.1120   44.1330   50.8280 N   0  0  0  0  0  0  0  0  0  0  0  0
   -1.0980   43.0590   50.6530 C   0  0  0  0  0  0  0  0  0  0  0  0
   -1.6780   42.6310   52.0110 C   0  0  0  0  0  0  0  0  0  0  0  0
   -2.6380   43.7020   52.5450 C   0  0  0  0  0  0  0  0  0  0  0  0
   -3.6910   43.9330   51.6290 O   0  0  0  0  0  0  0  0  0  0  0  0
   -3.1780   44.4920   50.4340 C   0  0  0  0  0  0  0  0  0  0  0  0
   -2.2400   43.5060   49.7210 C   0  0  0  0  0  0  0  0  0  0  0  0
    2.1520   44.9400   51.6470 C   0  0  0  0  0  0  0  0  0  0  0  0
    1.6190   46.0510   52.3200 C   0  0  0  0  0  0  0  0  0  0  0  0
    2.4370   47.0400   52.7640 N   0  0  0  0  0  0  0  0  0  0  0  0
    3.7810   47.0020   52.5740 C   0  0  0  0  0  0  0  0  0  0  0  0
    4.3710   45.9250   51.8940 C   0  0  0  0  0  0  0  0  0  0  0  0
    5.8380   45.8820   51.6660 C   0  0  0  0  0  0  0  0  0  0  0  0
    6.3660   45.2640   50.5030 C   0  0  0  0  0  0  0  0  0  0  0  0
    7.7520   45.2220   50.2820 C   0  0  0  0  0  0  0  0  0  0  0  0
    8.5890   45.8010   51.2320 C   0  0  0  0  0  0  0  0  0  0  0  0
    8.0980   46.3980   52.3540 C   0  0  0  0  0  0  0  0  0  0  0  0
    6.7270   46.4560   52.6030 C   0  0  0  0  0  0  0  0  0  0  0  0
    9.2150   46.9200   53.1810 C   0  0  0  0  0  0  0  0  0  0  0  0
   10.4620   46.5300   52.3490 C   0  0  0  0  0  0  0  0  0  0  0  0
    9.9650   45.8570   51.1920 O   0  0  0  0  0  0  0  0  0  0  0  0
    3.5400   44.8930   51.4300 C   0  0  0  0  0  0  0  0  0  0  0  0
   -0.3920   45.1210   50.6400 H   0  0  0  0  0  0  0  0  0  0  0  0
   -0.5824   42.2021   50.1948 H   0  0  0  0  0  0  0  0  0  0  0  0
   -2.2235   41.6836   51.8896 H   0  0  0  0  0  0  0  0  0  0  0  0
   -0.8526   42.5033   52.7268 H   0  0  0  0  0  0  0  0  0  0  0  0
   -3.0604   43.3629   53.5024 H   0  0  0  0  0  0  0  0  0  0  0  0
   -2.0792   44.6392   52.6842 H   0  0  0  0  0  0  0  0  0  0  0  0
   -4.0151   44.7395   49.7647 H   0  0  0  0  0  0  0  0  0  0  0  0
   -2.6063   45.3967   50.6884 H   0  0  0  0  0  0  0  0  0  0  0  0
   -2.8164   42.6226   49.4090 H   0  0  0  0  0  0  0  0  0  0  0  0
   -1.8021   44.0089   48.8461 H   0  0  0  0  0  0  0  0  0  0  0  0
    0.5342   46.1207   52.4884 H   0  0  0  0  0  0  0  0  0  0  0  0
    4.4107   47.8195   52.9550 H   0  0  0  0  0  0  0  0  0  0  0  0
    5.6831   44.8136   49.7676 H   0  0  0  0  0  0  0  0  0  0  0  0
    8.1657   44.7441   49.3817 H   0  0  0  0  0  0  0  0  0  0  0  0
    6.3439   46.9403   53.5133 H   0  0  0  0  0  0  0  0  0  0  0  0
    9.1435   48.0110   53.3018 H   0  0  0  0  0  0  0  0  0  0  0  0
    9.2278   46.5162   54.2041 H   0  0  0  0  0  0  0  0  0  0  0  0
   11.0237   47.4295   52.0568 H   0  0  0  0  0  0  0  0  0  0  0  0
   11.1481   45.8912   52.9245 H   0  0  0  0  0  0  0  0  0  0  0  0
    3.9790   44.0400   50.8918 H   0  0  0  0  0  0  0  0  0  0  0  0
  1  2  2  0
  2  3  1  0
  3  4  1  0
  4  5  1  0
  5  6  1  0
  6  7  1  0
  7  8  1  0
  8  9  1  0
  2 10  1  0
 10 11  2  0
 11 12  1  0
 12 13  2  0
 13 14  1  0
 14 15  1  0
 15 16  2  0
 16 17  1  0
 17 18  2  0
 18 19  1  0
 19 20  2  0
 19 21  1  0
 21 22  1  0
 22 23  1  0
 14 24  2  0
  9  4  1  0
 24 10  1  0
 20 15  1  0
 23 18  1  0
  3 25  1  0
  4 26  1  0
  5 27  1  0
  5 28  1  0
  6 29  1  0
  6 30  1  0
  8 31  1  0
  8 32  1  0
  9 33  1  0
  9 34  1  0
 11 35  1  0
 13 36  1  0
 16 37  1  0
 17 38  1  0
 20 39  1  0
 21 40  1  0
 21 41  1  0
 22 42  1  0
 22 43  1  0
 24 44  1  0
M  END
>  <meeko>  (2) 
{"is_sidechain": [false], "free_energy": -8.484, "intermolecular_energy": -10.009, "internal_energy": -0.611}

$$$$
ligand_86_conformer_2_docked
     RDKit          3D

 44 47  0  0  0  0  0  0  0  0999 V2000
    7.1130   47.0630   51.9530 O   0  0  0  0  0  0  0  0  0  0  0  0
    6.4840   45.9750   51.8520 C   0  0  0  0  0  0  0  0  0  0  0  0
    5.3860   45.7030   52.7380 N   0  0  0  0  0  0  0  0  0  0  0  0
    4.7440   46.7590   53.5320 C   0  0  0  0  0  0  0  0  0  0  0  0
    3.5330   47.3380   52.7820 C   0  0  0  0  0  0  0  0  0  0  0  0
    2.3680   46.3410   52.7940 C   0  0  0  0  0  0  0  0  0  0  0  0
    1.9970   46.0180   54.1210 O   0  0  0  0  0  0  0  0  0  0  0  0
    3.0530   45.3260   54.7620 C   0  0  0  0  0  0  0  0  0  0  0  0
    4.2940   46.2200   54.9030 C   0  0  0  0  0  0  0  0  0  0  0  0
    6.8980   44.9870   50.8270 C   0  0  0  0  0  0  0  0  0  0  0  0
    8.2010   45.0090   50.3050 C   0  0  0  0  0  0  0  0  0  0  0  0
    8.5760   44.1080   49.3610 N   0  0  0  0  0  0  0  0  0  0  0  0
    7.7210   43.1660   48.8850 C   0  0  0  0  0  0  0  0  0  0  0  0
    6.4000   43.1050   49.3570 C   0  0  0  0  0  0  0  0  0  0  0  0
    5.4510   42.0910   48.8300 C   0  0  0  0  0  0  0  0  0  0  0  0
    4.6000   41.3770   49.7130 C   0  0  0  0  0  0  0  0  0  0  0  0
    3.7000   40.4190   49.2190 C   0  0  0  0  0  0  0  0  0  0  0  0
    3.6660   40.1910   47.8460 C   0  0  0  0  0  0  0  0  0  0  0  0
    4.4770   40.8690   46.9850 C   0  0  0  0  0  0  0  0  0  0  0  0
    5.3820   41.8260   47.4430 C   0  0  0  0  0  0  0  0  0  0  0  0
    4.2260   40.4180   45.5920 C   0  0  0  0  0  0  0  0  0  0  0  0
    3.1180   39.3520   45.7760 C   0  0  0  0  0  0  0  0  0  0  0  0
    2.8580   39.2960   47.1790 O   0  0  0  0  0  0  0  0  0  0  0  0
    5.9970   44.0280   50.3350 C   0  0  0  0  0  0  0  0  0  0  0  0
    5.0880   44.7100   52.8690 H   0  0  0  0  0  0  0  0  0  0  0  0
    5.4845   47.5567   53.6913 H   0  0  0  0  0  0  0  0  0  0  0  0
    3.2163   48.2709   53.2712 H   0  0  0  0  0  0  0  0  0  0  0  0
    3.8214   47.5361   51.7391 H   0  0  0  0  0  0  0  0  0  0  0  0
    1.5058   46.7875   52.2770 H   0  0  0  0  0  0  0  0  0  0  0  0
    2.6862   45.4205   52.2827 H   0  0  0  0  0  0  0  0  0  0  0  0
    2.7213   45.0113   55.7625 H   0  0  0  0  0  0  0  0  0  0  0  0
    3.3198   44.4514   54.1505 H   0  0  0  0  0  0  0  0  0  0  0  0
    4.0539   47.0676   55.5617 H   0  0  0  0  0  0  0  0  0  0  0  0
    5.1116   45.6203   55.3296 H   0  0  0  0  0  0  0  0  0  0  0  0
    8.9214   45.7595   50.6624 H   0  0  0  0  0  0  0  0  0  0  0  0
    8.0650   42.4477   48.1263 H   0  0  0  0  0  0  0  0  0  0  0  0
    4.6458   41.5757   50.7939 H   0  0  0  0  0  0  0  0  0  0  0  0
    3.0386   39.8628   49.8996 H   0  0  0  0  0  0  0  0  0  0  0  0
    6.0309   42.3654   46.7373 H   0  0  0  0  0  0  0  0  0  0  0  0
    3.8763   41.2495   44.9624 H   0  0  0  0  0  0  0  0  0  0  0  0
    5.1247   40.0322   45.0886 H   0  0  0  0  0  0  0  0  0  0  0  0
    2.2095   39.6462   45.2299 H   0  0  0  0  0  0  0  0  0  0  0  0
    3.4303   38.3729   45.3837 H   0  0  0  0  0  0  0  0  0  0  0  0
    4.9667   44.0001   50.7194 H   0  0  0  0  0  0  0  0  0  0  0  0
  1  2  2  0
  2  3  1  0
  3  4  1  0
  4  5  1  0
  5  6  1  0
  6  7  1  0
  7  8  1  0
  8  9  1  0
  2 10  1  0
 10 11  2  0
 11 12  1  0
 12 13  2  0
 13 14  1  0
 14 15  1  0
 15 16  2  0
 16 17  1  0
 17 18  2  0
 18 19  1  0
 19 20  2  0
 19 21  1  0
 21 22  1  0
 22 23  1  0
 14 24  2  0
  9  4  1  0
 24 10  1  0
 20 15  1  0
 23 18  1  0
  3 25  1  0
  4 26  1  0
  5 27  1  0
  5 28  1  0
  6 29  1  0
  6 30  1  0
  8 31  1  0
  8 32  1  0
  9 33  1  0
  9 34  1  0
 11 35  1  0
 13 36  1  0
 16 37  1  0
 17 38  1  0
 20 39  1  0
 21 40  1  0
 21 41  1  0
 22 42  1  0
 22 43  1  0
 24 44  1  0
M  END
>  <meeko>  (3) 
{"is_sidechain": [false], "free_energy": -8.288, "intermolecular_energy": -9.684, "internal_energy": -0.706}

$$$$
ligand_86_conformer_2_docked
     RDKit          3D

 44 47  0  0  0  0  0  0  0  0999 V2000
    0.6780   43.3760   54.0660 O   0  0  0  0  0  0  0  0  0  0  0  0
    0.9890   44.5980   54.0700 C   0  0  0  0  0  0  0  0  0  0  0  0
    0.3850   45.4820   55.0280 N   0  0  0  0  0  0  0  0  0  0  0  0
   -0.3220   44.9810   56.2150 C   0  0  0  0  0  0  0  0  0  0  0  0
    0.6060   44.9920   57.4410 C   0  0  0  0  0  0  0  0  0  0  0  0
    0.8310   46.4280   57.9300 C   0  0  0  0  0  0  0  0  0  0  0  0
   -0.3990   47.0450   58.2590 O   0  0  0  0  0  0  0  0  0  0  0  0
   -1.1900   47.1950   57.0940 C   0  0  0  0  0  0  0  0  0  0  0  0
   -1.5750   45.8280   56.5070 C   0  0  0  0  0  0  0  0  0  0  0  0
    1.9650   45.1050   53.0760 C   0  0  0  0  0  0  0  0  0  0  0  0
    1.5850   45.2870   51.7370 C   0  0  0  0  0  0  0  0  0  0  0  0
    2.4830   45.7440   50.8260 N   0  0  0  0  0  0  0  0  0  0  0  0
    3.7660   46.0340   51.1640 C   0  0  0  0  0  0  0  0  0  0  0  0
    4.2090   45.8580   52.4840 C   0  0  0  0  0  0  0  0  0  0  0  0
    5.6140   46.1550   52.8610 C   0  0  0  0  0  0  0  0  0  0  0  0
    5.9340   46.5600   54.1830 C   0  0  0  0  0  0  0  0  0  0  0  0
    7.2620   46.8400   54.5440 C   0  0  0  0  0  0  0  0  0  0  0  0
    8.2500   46.7110   53.5730 C   0  0  0  0  0  0  0  0  0  0  0  0
    7.9600   46.3240   52.2990 C   0  0  0  0  0  0  0  0  0  0  0  0
    6.6520   46.0380   51.9080 C   0  0  0  0  0  0  0  0  0  0  0  0
    9.2040   46.2770   51.4870 C   0  0  0  0  0  0  0  0  0  0  0  0
   10.2890   46.7030   52.5080 C   0  0  0  0  0  0  0  0  0  0  0  0
    9.5990   46.9420   53.7350 O   0  0  0  0  0  0  0  0  0  0  0  0
    3.2930   45.3870   53.4390 C   0  0  0  0  0  0  0  0  0  0  0  0
    0.3910   46.5070   54.8300 H   0  0  0  0  0  0  0  0  0  0  0  0
   -0.6343   43.9467   56.0086 H   0  0  0  0  0  0  0  0  0  0  0  0
    0.1469   44.4023   58.2481 H   0  0  0  0  0  0  0  0  0  0  0  0
    1.5754   44.5561   57.1579 H   0  0  0  0  0  0  0  0  0  0  0  0
    1.4747   46.4087   58.8218 H   0  0  0  0  0  0  0  0  0  0  0  0
    1.3101   47.0039   57.1245 H   0  0  0  0  0  0  0  0  0  0  0  0
   -2.1064   47.7468   57.3505 H   0  0  0  0  0  0  0  0  0  0  0  0
   -0.6047   47.7455   56.3428 H   0  0  0  0  0  0  0  0  0  0  0  0
   -2.2110   45.2931   57.2277 H   0  0  0  0  0  0  0  0  0  0  0  0
   -2.1159   45.9912   55.5632 H   0  0  0  0  0  0  0  0  0  0  0  0
    0.5555   45.0585   51.4241 H   0  0  0  0  0  0  0  0  0  0  0  0
    4.4618   46.4089   50.3989 H   0  0  0  0  0  0  0  0  0  0  0  0
    5.1342   46.6555   54.9321 H   0  0  0  0  0  0  0  0  0  0  0  0
    7.5144   47.1532   55.5678 H   0  0  0  0  0  0  0  0  0  0  0  0
    6.4318   45.7268   50.8762 H   0  0  0  0  0  0  0  0  0  0  0  0
    9.3925   45.2620   51.1073 H   0  0  0  0  0  0  0  0  0  0  0  0
    9.1681   46.9173   50.5933 H   0  0  0  0  0  0  0  0  0  0  0  0
   11.0303   45.9004   52.6359 H   0  0  0  0  0  0  0  0  0  0  0  0
   10.8332   47.5971   52.1698 H   0  0  0  0  0  0  0  0  0  0  0  0
    3.6177   45.2377   54.4793 H   0  0  0  0  0  0  0  0  0  0  0  0
  1  2  2  0
  2  3  1  0
  3  4  1  0
  4  5  1  0
  5  6  1  0
  6  7  1  0
  7  8  1  0
  8  9  1  0
  2 10  1  0
 10 11  2  0
 11 12  1  0
 12 13  2  0
 13 14  1  0
 14 15  1  0
 15 16  2  0
 16 17  1  0
 17 18  2  0
 18 19  1  0
 19 20  2  0
 19 21  1  0
 21 22  1  0
 22 23  1  0
 14 24  2  0
  9  4  1  0
 24 10  1  0
 20 15  1  0
 23 18  1  0
  3 25  1  0
  4 26  1  0
  5 27  1  0
  5 28  1  0
  6 29  1  0
  6 30  1  0
  8 31  1  0
  8 32  1  0
  9 33  1  0
  9 34  1  0
 11 35  1  0
 13 36  1  0
 16 37  1  0
 17 38  1  0
 20 39  1  0
 21 40  1  0
 21 41  1  0
 22 42  1  0
 22 43  1  0
 24 44  1  0
M  END
>  <meeko>  (4) 
{"is_sidechain": [false], "free_energy": -8.286, "intermolecular_energy": -9.734, "internal_energy": -0.653}

$$$$
ligand_86_conformer_2_docked
     RDKit          3D

 44 47  0  0  0  0  0  0  0  0999 V2000
    1.9850   44.5780   55.8940 O   0  0  0  0  0  0  0  0  0  0  0  0
    1.3520   45.2130   55.0070 C   0  0  0  0  0  0  0  0  0  0  0  0
    0.0180   45.6720   55.2770 N   0  0  0  0  0  0  0  0  0  0  0  0
   -0.5250   45.7350   56.6410 C   0  0  0  0  0  0  0  0  0  0  0  0
   -1.4670   46.9410   56.7920 C   0  0  0  0  0  0  0  0  0  0  0  0
   -2.7900   46.6840   56.0600 C   0  0  0  0  0  0  0  0  0  0  0  0
   -3.4210   45.5200   56.5600 O   0  0  0  0  0  0  0  0  0  0  0  0
   -2.6350   44.3800   56.2670 C   0  0  0  0  0  0  0  0  0  0  0  0
   -1.2820   44.4410   56.9920 C   0  0  0  0  0  0  0  0  0  0  0  0
    1.9920   45.4620   53.6940 C   0  0  0  0  0  0  0  0  0  0  0  0
    1.2200   45.4900   52.5220 C   0  0  0  0  0  0  0  0  0  0  0  0
    1.8090   45.7120   51.3180 N   0  0  0  0  0  0  0  0  0  0  0  0
    3.1480   45.9060   51.1970 C   0  0  0  0  0  0  0  0  0  0  0  0
    3.9740   45.8740   52.3310 C   0  0  0  0  0  0  0  0  0  0  0  0
    5.4410   46.0680   52.2090 C   0  0  0  0  0  0  0  0  0  0  0  0
    6.1200   45.6920   51.0220 C   0  0  0  0  0  0  0  0  0  0  0  0
    7.5070   45.8760   50.9020 C   0  0  0  0  0  0  0  0  0  0  0  0
    8.1940   46.4340   51.9760 C   0  0  0  0  0  0  0  0  0  0  0  0
    7.5570   46.8010   53.1230 C   0  0  0  0  0  0  0  0  0  0  0  0
    6.1810   46.6320   53.2750 C   0  0  0  0  0  0  0  0  0  0  0  0
    8.5360   47.3600   54.0910 C   0  0  0  0  0  0  0  0  0  0  0  0
    9.8710   47.2650   53.3120 C   0  0  0  0  0  0  0  0  0  0  0  0
    9.5460   46.6890   52.0470 O   0  0  0  0  0  0  0  0  0  0  0  0
    3.3800   45.6480   53.5840 C   0  0  0  0  0  0  0  0  0  0  0  0
   -0.6030   45.8990   54.4680 H   0  0  0  0  0  0  0  0  0  0  0  0
    0.3212   45.8490   57.3344 H   0  0  0  0  0  0  0  0  0  0  0  0
   -1.6708   47.1097   57.8597 H   0  0  0  0  0  0  0  0  0  0  0  0
   -0.9841   47.8268   56.3536 H   0  0  0  0  0  0  0  0  0  0  0  0
   -3.4566   47.5468   56.2055 H   0  0  0  0  0  0  0  0  0  0  0  0
   -2.5797   46.5401   54.9899 H   0  0  0  0  0  0  0  0  0  0  0  0
   -3.1755   43.4781   56.5900 H   0  0  0  0  0  0  0  0  0  0  0  0
   -2.4500   44.3519   55.1830 H   0  0  0  0  0  0  0  0  0  0  0  0
   -1.4541   44.4084   58.0780 H   0  0  0  0  0  0  0  0  0  0  0  0
   -0.6741   43.5819   56.6719 H   0  0  0  0  0  0  0  0  0  0  0  0
    0.1330   45.3314   52.5787 H   0  0  0  0  0  0  0  0  0  0  0  0
    3.5870   46.0891   50.2052 H   0  0  0  0  0  0  0  0  0  0  0  0
    5.5547   45.2520   50.1872 H   0  0  0  0  0  0  0  0  0  0  0  0
    8.0369   45.5865   49.9826 H   0  0  0  0  0  0  0  0  0  0  0  0
    5.6798   46.9319   54.2072 H   0  0  0  0  0  0  0  0  0  0  0  0
    8.2955   48.4038   54.3414 H   0  0  0  0  0  0  0  0  0  0  0  0
    8.5520   46.8287   55.0540 H   0  0  0  0  0  0  0  0  0  0  0  0
   10.3067   48.2659   53.1760 H   0  0  0  0  0  0  0  0  0  0  0  0
   10.6121   46.6585   53.8533 H   0  0  0  0  0  0  0  0  0  0  0  0
    4.0074   45.6164   54.4869 H   0  0  0  0  0  0  0  0  0  0  0  0
  1  2  2  0
  2  3  1  0
  3  4  1  0
  4  5  1  0
  5  6  1  0
  6  7  1  0
  7  8  1  0
  8  9  1  0
  2 10  1  0
 10 11  2  0
 11 12  1  0
 12 13  2  0
 13 14  1  0
 14 15  1  0
 15 16  2  0
 16 17  1  0
 17 18  2  0
 18 19  1  0
 19 20  2  0
 19 21  1  0
 21 22  1  0
 22 23  1  0
 14 24  2  0
  9  4  1  0
 24 10  1  0
 20 15  1  0
 23 18  1  0
  3 25  1  0
  4 26  1  0
  5 27  1  0
  5 28  1  0
  6 29  1  0
  6 30  1  0
  8 31  1  0
  8 32  1  0
  9 33  1  0
  9 34  1  0
 11 35  1  0
 13 36  1  0
 16 37  1  0
 17 38  1  0
 20 39  1  0
 21 40  1  0
 21 41  1  0
 22 42  1  0
 22 43  1  0
 24 44  1  0
M  END
>  <meeko>  (5) 
{"is_sidechain": [false], "free_energy": -8.012, "intermolecular_energy": -9.483, "internal_energy": -0.582}

$$$$
