ligand_92_conformer_5_docked
     RDKit          3D

 35 37  0  0  0  0  0  0  0  0999 V2000
    1.0050   43.2350   54.1810 O   0  0  0  0  0  0  0  0  0  0  0  0
    1.9810   43.4270   53.4080 C   0  0  0  0  0  0  0  0  0  0  0  0
    2.5710   44.7940   53.2550 C   0  0  0  0  0  0  0  0  0  0  0  0
    4.1110   44.7100   53.0570 C   0  0  2  0  0  0  0  0  0  0  0  0
    4.7010   44.2200   54.2390 O   0  0  0  0  0  0  0  0  0  0  0  0
    4.6510   46.0990   52.7390 C   0  0  0  0  0  0  0  0  0  0  0  0
    3.8970   46.9630   52.2160 O   0  0  0  0  0  0  0  0  0  0  0  0
    6.0310   46.4230   52.9360 N   0  0  0  0  0  0  0  0  0  0  0  0
    7.2770   45.7700   53.3900 C   0  0  0  0  0  0  0  0  0  0  0  0
    8.1730   46.9400   53.1220 C   0  0  0  0  0  0  0  0  0  0  0  0
    8.8040   47.5710   54.3720 C   0  0  0  0  0  0  0  0  0  0  0  0
   10.1870   47.5910   54.3000 F   0  0  0  0  0  0  0  0  0  0  0  0
    6.9000   47.5840   52.6670 C   0  0  0  0  0  0  0  0  0  0  0  0
    4.4420   43.7150   51.9390 C   0  0  0  0  0  0  0  0  0  0  0  0
    5.6070   43.8410   51.1500 C   0  0  0  0  0  0  0  0  0  0  0  0
    5.9380   42.8670   50.2050 C   0  0  0  0  0  0  0  0  0  0  0  0
    7.5090   43.0690   49.1370 Br  0  0  0  0  0  0  0  0  0  0  0  0
    5.1320   41.7380   50.0500 C   0  0  0  0  0  0  0  0  0  0  0  0
    3.9970   41.5760   50.8440 C   0  0  0  0  0  0  0  0  0  0  0  0
    3.6480   42.5500   51.7900 C   0  0  0  0  0  0  0  0  0  0  0  0
    2.4880   42.3560   52.6120 N   0  0  0  0  0  0  0  0  0  0  0  0
    2.1209   45.2855   52.3799 H   0  0  0  0  0  0  0  0  0  0  0  0
    2.3632   45.3726   54.1672 H   0  0  0  0  0  0  0  0  0  0  0  0
    5.6790   44.1390   54.0850 H   0  0  0  0  0  0  0  0  0  0  0  0
    7.2478   45.4919   54.4539 H   0  0  0  0  0  0  0  0  0  0  0  0
    7.5443   44.8141   52.9159 H   0  0  0  0  0  0  0  0  0  0  0  0
    9.0883   46.8872   52.5142 H   0  0  0  0  0  0  0  0  0  0  0  0
    8.4384   48.6036   54.4719 H   0  0  0  0  0  0  0  0  0  0  0  0
    8.5174   46.9621   55.2421 H   0  0  0  0  0  0  0  0  0  0  0  0
    6.6308   48.4642   53.2693 H   0  0  0  0  0  0  0  0  0  0  0  0
    6.8840   47.9955   51.6470 H   0  0  0  0  0  0  0  0  0  0  0  0
    6.2608   44.7158   51.2813 H   0  0  0  0  0  0  0  0  0  0  0  0
    5.3922   40.9755   49.3011 H   0  0  0  0  0  0  0  0  0  0  0  0
    3.3718   40.6785   50.7273 H   0  0  0  0  0  0  0  0  0  0  0  0
    1.9910   41.4360   52.6130 H   0  0  0  0  0  0  0  0  0  0  0  0
  1  2  2  0
  2  3  1  0
  3  4  1  0
  4  5  1  1
  4  6  1  0
  6  7  2  0
  6  8  1  0
  8  9  1  0
  9 10  1  0
 10 11  1  0
 11 12  1  0
 10 13  1  0
  4 14  1  0
 14 15  2  0
 15 16  1  0
 16 17  1  0
 16 18  2  0
 18 19  1  0
 19 20  2  0
 20 21  1  0
 21  2  1  0
 13  8  1  0
 20 14  1  0
  3 22  1  0
  3 23  1  0
  5 24  1  0
  9 25  1  0
  9 26  1  0
 10 27  1  0
 11 28  1  0
 11 29  1  0
 13 30  1  0
 13 31  1  0
 15 32  1  0
 18 33  1  0
 19 34  1  0
 21 35  1  0
M  END
>  <meeko>  (1) 
{"is_sidechain": [false], "free_energy": -8.87, "intermolecular_energy": -10.166, "internal_energy": 0.067}

$$$$
ligand_92_conformer_5_docked
     RDKit          3D

 35 37  0  0  0  0  0  0  0  0999 V2000
    7.9450   48.4140   52.7430 O   0  0  0  0  0  0  0  0  0  0  0  0
    7.4950   47.2980   52.3710 C   0  0  0  0  0  0  0  0  0  0  0  0
    6.4460   46.5960   53.1750 C   0  0  0  0  0  0  0  0  0  0  0  0
    5.4590   45.8330   52.2460 C   0  0  2  0  0  0  0  0  0  0  0  0
    4.7290   46.7670   51.4840 O   0  0  0  0  0  0  0  0  0  0  0  0
    4.5110   45.0000   53.1010 C   0  0  0  0  0  0  0  0  0  0  0  0
    4.9320   44.4470   54.1530 O   0  0  0  0  0  0  0  0  0  0  0  0
    3.1640   44.7480   52.6870 N   0  0  0  0  0  0  0  0  0  0  0  0
    2.2710   45.0540   51.5500 C   0  0  0  0  0  0  0  0  0  0  0  0
    1.1110   44.2440   52.0410 C   0  0  0  0  0  0  0  0  0  0  0  0
   -0.1370   45.0590   52.4130 C   0  0  0  0  0  0  0  0  0  0  0  0
   -1.0870   45.0400   51.4050 F   0  0  0  0  0  0  0  0  0  0  0  0
    2.0310   43.9460   53.1850 C   0  0  0  0  0  0  0  0  0  0  0  0
    6.2390   44.9540   51.2620 C   0  0  0  0  0  0  0  0  0  0  0  0
    5.6930   43.7650   50.7310 C   0  0  0  0  0  0  0  0  0  0  0  0
    6.3820   43.0340   49.7590 C   0  0  0  0  0  0  0  0  0  0  0  0
    5.6310   41.4190   49.0700 Br  0  0  0  0  0  0  0  0  0  0  0  0
    7.6110   43.4900   49.2810 C   0  0  0  0  0  0  0  0  0  0  0  0
    8.1520   44.6810   49.7650 C   0  0  0  0  0  0  0  0  0  0  0  0
    7.4750   45.4200   50.7460 C   0  0  0  0  0  0  0  0  0  0  0  0
    8.0360   46.6530   51.2180 N   0  0  0  0  0  0  0  0  0  0  0  0
    6.9310   45.8786   53.8532 H   0  0  0  0  0  0  0  0  0  0  0  0
    5.8821   47.3448   53.7506 H   0  0  0  0  0  0  0  0  0  0  0  0
    5.2050   47.6380   51.5270 H   0  0  0  0  0  0  0  0  0  0  0  0
    2.0373   46.1259   51.4695 H   0  0  0  0  0  0  0  0  0  0  0  0
    2.6481   44.8308   50.5410 H   0  0  0  0  0  0  0  0  0  0  0  0
    0.6022   43.4739   51.4426 H   0  0  0  0  0  0  0  0  0  0  0  0
   -0.5794   44.6346   53.3264 H   0  0  0  0  0  0  0  0  0  0  0  0
    0.1724   46.1029   52.5696 H   0  0  0  0  0  0  0  0  0  0  0  0
    1.6434   44.3105   54.1477 H   0  0  0  0  0  0  0  0  0  0  0  0
    2.2265   42.8867   53.4080 H   0  0  0  0  0  0  0  0  0  0  0  0
    4.7144   43.4100   51.0863 H   0  0  0  0  0  0  0  0  0  0  0  0
    8.1542   42.9091   48.5211 H   0  0  0  0  0  0  0  0  0  0  0  0
    9.1149   45.0426   49.3751 H   0  0  0  0  0  0  0  0  0  0  0  0
    8.8620   47.0750   50.7350 H   0  0  0  0  0  0  0  0  0  0  0  0
  1  2  2  0
  2  3  1  0
  3  4  1  0
  4  5  1  6
  4  6  1  0
  6  7  2  0
  6  8  1  0
  8  9  1  0
  9 10  1  0
 10 11  1  0
 11 12  1  0
 10 13  1  0
  4 14  1  0
 14 15  2  0
 15 16  1  0
 16 17  1  0
 16 18  2  0
 18 19  1  0
 19 20  2  0
 20 21  1  0
 21  2  1  0
 13  8  1  0
 20 14  1  0
  3 22  1  0
  3 23  1  0
  5 24  1  0
  9 25  1  0
  9 26  1  0
 10 27  1  0
 11 28  1  0
 11 29  1  0
 13 30  1  0
 13 31  1  0
 15 32  1  0
 18 33  1  0
 19 34  1  0
 21 35  1  0
M  END
>  <meeko>  (2) 
{"is_sidechain": [false], "free_energy": -8.336, "intermolecular_energy": -9.413, "internal_energy": -0.073}

$$$$
ligand_92_conformer_5_docked
     RDKit          3D

 35 37  0  0  0  0  0  0  0  0999 V2000
    3.2400   39.9830   49.7230 O   0  0  0  0  0  0  0  0  0  0  0  0
    3.7130   41.1210   49.9820 C   0  0  0  0  0  0  0  0  0  0  0  0
    2.8210   42.2210   50.4660 C   0  0  0  0  0  0  0  0  0  0  0  0
    3.5640   43.1200   51.4960 C   0  0  2  0  0  0  0  0  0  0  0  0
    3.8280   42.3660   52.6570 O   0  0  0  0  0  0  0  0  0  0  0  0
    2.6880   44.3180   51.8380 C   0  0  0  0  0  0  0  0  0  0  0  0
    2.0880   44.9420   50.9210 O   0  0  0  0  0  0  0  0  0  0  0  0
    2.5990   44.8170   53.1760 N   0  0  0  0  0  0  0  0  0  0  0  0
    3.1600   44.5290   54.5130 C   0  0  0  0  0  0  0  0  0  0  0  0
    2.5130   45.6880   55.2070 C   0  0  0  0  0  0  0  0  0  0  0  0
    1.4680   45.3070   56.2670 C   0  0  0  0  0  0  0  0  0  0  0  0
    1.4330   46.2180   57.3100 F   0  0  0  0  0  0  0  0  0  0  0  0
    1.9540   45.9630   53.8440 C   0  0  0  0  0  0  0  0  0  0  0  0
    4.9160   43.5630   50.9250 C   0  0  0  0  0  0  0  0  0  0  0  0
    5.5240   44.7780   51.3100 C   0  0  0  0  0  0  0  0  0  0  0  0
    6.8020   45.1130   50.8540 C   0  0  0  0  0  0  0  0  0  0  0  0
    7.5960   46.7700   51.3730 Br  0  0  0  0  0  0  0  0  0  0  0  0
    7.5050   44.2320   50.0310 C   0  0  0  0  0  0  0  0  0  0  0  0
    6.9370   43.0100   49.6680 C   0  0  0  0  0  0  0  0  0  0  0  0
    5.6530   42.6650   50.1120 C   0  0  0  0  0  0  0  0  0  0  0  0
    5.0940   41.3960   49.7450 N   0  0  0  0  0  0  0  0  0  0  0  0
    2.5089   42.8360   49.6091 H   0  0  0  0  0  0  0  0  0  0  0  0
    1.9431   41.7743   50.9556 H   0  0  0  0  0  0  0  0  0  0  0  0
    4.0250   43.0000   53.3970 H   0  0  0  0  0  0  0  0  0  0  0  0
    2.8315   43.5578   54.9115 H   0  0  0  0  0  0  0  0  0  0  0  0
    4.2540   44.4446   54.5907 H   0  0  0  0  0  0  0  0  0  0  0  0
    3.0610   46.4274   55.8095 H   0  0  0  0  0  0  0  0  0  0  0  0
    0.4764   45.2721   55.7921 H   0  0  0  0  0  0  0  0  0  0  0  0
    1.7448   44.3261   56.6808 H   0  0  0  0  0  0  0  0  0  0  0  0
    0.8558   45.9074   53.8164 H   0  0  0  0  0  0  0  0  0  0  0  0
    2.1395   46.9602   53.4184 H   0  0  0  0  0  0  0  0  0  0  0  0
    4.9858   45.4684   51.9761 H   0  0  0  0  0  0  0  0  0  0  0  0
    8.5079   44.5011   49.6680 H   0  0  0  0  0  0  0  0  0  0  0  0
    7.5003   42.3134   49.0297 H   0  0  0  0  0  0  0  0  0  0  0  0
    5.6880   40.6740   49.2780 H   0  0  0  0  0  0  0  0  0  0  0  0
  1  2  2  0
  2  3  1  0
  3  4  1  0
  4  5  1  1
  4  6  1  0
  6  7  2  0
  6  8  1  0
  8  9  1  0
  9 10  1  0
 10 11  1  0
 11 12  1  0
 10 13  1  0
  4 14  1  0
 14 15  2  0
 15 16  1  0
 16 17  1  0
 16 18  2  0
 18 19  1  0
 19 20  2  0
 20 21  1  0
 21  2  1  0
 13  8  1  0
 20 14  1  0
  3 22  1  0
  3 23  1  0
  5 24  1  0
  9 25  1  0
  9 26  1  0
 10 27  1  0
 11 28  1  0
 11 29  1  0
 13 30  1  0
 13 31  1  0
 15 32  1  0
 18 33  1  0
 19 34  1  0
 21 35  1  0
M  END
>  <meeko>  (3) 
{"is_sidechain": [false], "free_energy": -7.782, "intermolecular_energy": -8.823, "internal_energy": -0.028}

$$$$
ligand_92_conformer_5_docked
     RDKit          3D

 35 37  0  0  0  0  0  0  0  0999 V2000
    6.9860   47.9140   53.4820 O   0  0  0  0  0  0  0  0  0  0  0  0
    6.6840   46.8500   52.8800 C   0  0  0  0  0  0  0  0  0  0  0  0
    5.6000   45.9610   53.4070 C   0  0  0  0  0  0  0  0  0  0  0  0
    4.8110   45.3040   52.2390 C   0  0  2  0  0  0  0  0  0  0  0  0
    4.1120   46.3050   51.5360 O   0  0  0  0  0  0  0  0  0  0  0  0
    3.8320   44.2840   52.8090 C   0  0  0  0  0  0  0  0  0  0  0  0
    3.9440   43.0650   52.5040 O   0  0  0  0  0  0  0  0  0  0  0  0
    2.7210   44.6890   53.6150 N   0  0  0  0  0  0  0  0  0  0  0  0
    2.1170   45.9330   54.1360 C   0  0  0  0  0  0  0  0  0  0  0  0
    0.9320   45.2750   54.7740 C   0  0  0  0  0  0  0  0  0  0  0  0
    0.8890   45.3680   56.3070 C   0  0  0  0  0  0  0  0  0  0  0  0
   -0.3020   44.8790   56.8210 F   0  0  0  0  0  0  0  0  0  0  0  0
    1.5610   44.0260   54.2370 C   0  0  0  0  0  0  0  0  0  0  0  0
    5.7840   44.6510   51.2520 C   0  0  0  0  0  0  0  0  0  0  0  0
    5.4130   43.5350   50.4690 C   0  0  0  0  0  0  0  0  0  0  0  0
    6.2820   43.0190   49.5040 C   0  0  0  0  0  0  0  0  0  0  0  0
    5.7660   41.4980   48.4710 Br  0  0  0  0  0  0  0  0  0  0  0  0
    7.5210   43.6230   49.2830 C   0  0  0  0  0  0  0  0  0  0  0  0
    7.8920   44.7480   50.0190 C   0  0  0  0  0  0  0  0  0  0  0  0
    7.0340   45.2700   50.9970 C   0  0  0  0  0  0  0  0  0  0  0  0
    7.4240   46.4400   51.7300 N   0  0  0  0  0  0  0  0  0  0  0  0
    6.0499   45.1720   54.0275 H   0  0  0  0  0  0  0  0  0  0  0  0
    4.9049   46.5679   54.0058 H   0  0  0  0  0  0  0  0  0  0  0  0
    4.1610   47.1440   52.0660 H   0  0  0  0  0  0  0  0  0  0  0  0
    2.7619   46.4460   54.8646 H   0  0  0  0  0  0  0  0  0  0  0  0
    1.9160   46.7356   53.4112 H   0  0  0  0  0  0  0  0  0  0  0  0
   -0.1110   45.5695   54.5858 H   0  0  0  0  0  0  0  0  0  0  0  0
    1.7226   44.7827   56.7224 H   0  0  0  0  0  0  0  0  0  0  0  0
    0.9713   46.4286   56.5868 H   0  0  0  0  0  0  0  0  0  0  0  0
    1.8501   43.3213   55.0306 H   0  0  0  0  0  0  0  0  0  0  0  0
    0.9395   43.3916   53.5879 H   0  0  0  0  0  0  0  0  0  0  0  0
    4.4291   43.0671   50.6207 H   0  0  0  0  0  0  0  0  0  0  0  0
    8.2058   43.2109   48.5271 H   0  0  0  0  0  0  0  0  0  0  0  0
    8.8635   45.2285   49.8310 H   0  0  0  0  0  0  0  0  0  0  0  0
    8.2670   46.9860   51.4420 H   0  0  0  0  0  0  0  0  0  0  0  0
  1  2  2  0
  2  3  1  0
  3  4  1  0
  4  5  1  6
  4  6  1  0
  6  7  2  0
  6  8  1  0
  8  9  1  0
  9 10  1  0
 10 11  1  0
 11 12  1  0
 10 13  1  0
  4 14  1  0
 14 15  2  0
 15 16  1  0
 16 17  1  0
 16 18  2  0
 18 19  1  0
 19 20  2  0
 20 21  1  0
 21  2  1  0
 13  8  1  0
 20 14  1  0
  3 22  1  0
  3 23  1  0
  5 24  1  0
  9 25  1  0
  9 26  1  0
 10 27  1  0
 11 28  1  0
 11 29  1  0
 13 30  1  0
 13 31  1  0
 15 32  1  0
 18 33  1  0
 19 34  1  0
 21 35  1  0
M  END
>  <meeko>  (4) 
{"is_sidechain": [false], "free_energy": -7.58, "intermolecular_energy": -9.265, "internal_energy": 0.645}

$$$$
ligand_92_conformer_5_docked
     RDKit          3D

 35 37  0  0  0  0  0  0  0  0999 V2000
    4.2630   41.4490   49.7860 O   0  0  0  0  0  0  0  0  0  0  0  0
    3.9040   42.0760   50.8180 C   0  0  0  0  0  0  0  0  0  0  0  0
    4.9110   42.7970   51.6580 C   0  0  0  0  0  0  0  0  0  0  0  0
    4.3060   44.1050   52.2430 C   0  0  2  0  0  0  0  0  0  0  0  0
    4.0440   45.0020   51.1890 O   0  0  0  0  0  0  0  0  0  0  0  0
    5.2990   44.7220   53.2200 C   0  0  0  0  0  0  0  0  0  0  0  0
    5.1280   44.5860   54.4620 O   0  0  0  0  0  0  0  0  0  0  0  0
    6.3820   45.5380   52.7640 N   0  0  0  0  0  0  0  0  0  0  0  0
    6.9220   46.0660   51.4930 C   0  0  0  0  0  0  0  0  0  0  0  0
    8.0050   46.8930   52.1160 C   0  0  0  0  0  0  0  0  0  0  0  0
    9.4350   46.4340   51.7920 C   0  0  0  0  0  0  0  0  0  0  0  0
   10.3720   47.0470   52.6080 F   0  0  0  0  0  0  0  0  0  0  0  0
    7.4430   46.3460   53.3930 C   0  0  0  0  0  0  0  0  0  0  0  0
    2.9680   43.8020   52.9250 C   0  0  0  0  0  0  0  0  0  0  0  0
    2.4870   44.5820   54.0000 C   0  0  0  0  0  0  0  0  0  0  0  0
    1.2190   44.3500   54.5410 C   0  0  0  0  0  0  0  0  0  0  0  0
    0.5990   45.4050   56.0070 Br  0  0  0  0  0  0  0  0  0  0  0  0
    0.3990   43.3580   54.0010 C   0  0  0  0  0  0  0  0  0  0  0  0
    0.8400   42.6000   52.9160 C   0  0  0  0  0  0  0  0  0  0  0  0
    2.1130   42.8170   52.3700 C   0  0  0  0  0  0  0  0  0  0  0  0
    2.5400   42.0420   51.2410 N   0  0  0  0  0  0  0  0  0  0  0  0
    5.2252   42.1434   52.4851 H   0  0  0  0  0  0  0  0  0  0  0  0
    5.7740   43.0583   51.0280 H   0  0  0  0  0  0  0  0  0  0  0  0
    3.1710   44.7540   50.7820 H   0  0  0  0  0  0  0  0  0  0  0  0
    7.3150   45.2753   50.8369 H   0  0  0  0  0  0  0  0  0  0  0  0
    6.2178   46.5822   50.8240 H   0  0  0  0  0  0  0  0  0  0  0  0
    8.1523   47.9648   51.9172 H   0  0  0  0  0  0  0  0  0  0  0  0
    9.4993   45.3449   51.9326 H   0  0  0  0  0  0  0  0  0  0  0  0
    9.6549   46.7133   50.7510 H   0  0  0  0  0  0  0  0  0  0  0  0
    8.1691   45.7346   53.9488 H   0  0  0  0  0  0  0  0  0  0  0  0
    7.1317   47.0748   54.1559 H   0  0  0  0  0  0  0  0  0  0  0  0
    3.1176   45.3814   54.4163 H   0  0  0  0  0  0  0  0  0  0  0  0
   -0.5963   43.1736   54.4315 H   0  0  0  0  0  0  0  0  0  0  0  0
    0.1852   41.8276   52.4864 H   0  0  0  0  0  0  0  0  0  0  0  0
    1.8620   41.4280   50.7360 H   0  0  0  0  0  0  0  0  0  0  0  0
  1  2  2  0
  2  3  1  0
  3  4  1  0
  4  5  1  6
  4  6  1  0
  6  7  2  0
  6  8  1  0
  8  9  1  0
  9 10  1  0
 10 11  1  0
 11 12  1  0
 10 13  1  0
  4 14  1  0
 14 15  2  0
 15 16  1  0
 16 17  1  0
 16 18  2  0
 18 19  1  0
 19 20  2  0
 20 21  1  0
 21  2  1  0
 13  8  1  0
 20 14  1  0
  3 22  1  0
  3 23  1  0
  5 24  1  0
  9 25  1  0
  9 26  1  0
 10 27  1  0
 11 28  1  0
 11 29  1  0
 13 30  1  0
 13 31  1  0
 15 32  1  0
 18 33  1  0
 19 34  1  0
 21 35  1  0
M  END
>  <meeko>  (5) 
{"is_sidechain": [false], "free_energy": -7.345, "intermolecular_energy": -8.965, "internal_energy": 0.614}

$$$$
