MODEL 1
REMARK VINA RESULT:    -9.675      0.000      0.000
REMARK INTER + INTRA:         -14.005
REMARK INTER:                 -13.069
REMARK INTRA:                  -0.936
REMARK UNBOUND:                -0.936
REMARK SMILES CCc1noc(-c2ccc(C)c(NCc3ccc(C(=O)N4CCCC4)cc3)c2)n1
REMARK SMILES IDX 7 1 8 2 9 3 10 4 11 5 12 6 28 7 6 8 3 9 4 10 29 11 5 12 2 13
REMARK SMILES IDX 1 14 13 15 14 17 15 18 16 19 27 20 17 21 26 22 18 23 19 24
REMARK SMILES IDX 20 25 21 26 22 27 25 28 23 29 24 30
REMARK H PARENT 13 16
ROOT
ATOM      1  C   UNL     1       2.038  42.816  51.575  1.00  0.00     0.042 A 
ATOM      2  C   UNL     1       0.812  43.084  50.958  1.00  0.00     0.014 A 
ATOM      3  C   UNL     1      -0.212  43.712  51.669  1.00  0.00     0.006 A 
ATOM      4  C   UNL     1      -0.033  44.076  53.014  1.00  0.00    -0.028 A 
ATOM      5  C   UNL     1      -1.172  44.726  53.752  1.00  0.00     0.046 C 
ATOM      6  C   UNL     1       1.209  43.823  53.648  1.00  0.00     0.038 A 
ATOM      7  C   UNL     1       2.234  43.199  52.911  1.00  0.00     0.039 A 
ENDROOT
BRANCH   1   8
ATOM      8  C   UNL     1       3.118  42.143  50.825  1.00  0.00     0.257 A 
ATOM      9  C   UNL     1       4.982  41.554  50.095  1.00  0.00     0.172 A 
ATOM     10  N   UNL     1       4.061  40.827  49.433  1.00  0.00    -0.062 NA
ATOM     11  N   UNL     1       4.430  42.404  50.986  1.00  0.00    -0.192 NA
ATOM     12  O   UNL     1       2.920  41.218  49.916  1.00  0.00    -0.334 OA
BRANCH   9  13
ATOM     13  C   UNL     1       6.455  41.443  49.858  1.00  0.00     0.078 C 
ATOM     14  C   UNL     1       7.033  42.783  49.414  1.00  0.00     0.012 C 
ENDBRANCH   9  13
ENDBRANCH   1   8
BRANCH   6  15
ATOM     15  N   UNL     1       1.423  44.200  55.025  1.00  0.00    -0.381 N 
ATOM     16  H   UNL     1       1.079  43.577  55.789  1.00  0.00     0.160 HD
BRANCH  15  17
ATOM     17  C   UNL     1       2.183  45.381  55.444  1.00  0.00     0.148 C 
BRANCH  17  18
ATOM     18  C   UNL     1       3.389  45.580  54.564  1.00  0.00    -0.029 A 
ATOM     19  C   UNL     1       4.524  44.774  54.732  1.00  0.00     0.006 A 
ATOM     20  C   UNL     1       3.380  46.555  53.552  1.00  0.00     0.006 A 
ATOM     21  C   UNL     1       5.623  44.913  53.879  1.00  0.00     0.014 A 
ATOM     22  C   UNL     1       4.476  46.691  52.696  1.00  0.00     0.014 A 
ATOM     23  C   UNL     1       5.595  45.856  52.841  1.00  0.00     0.040 A 
BRANCH  23  24
ATOM     24  C   UNL     1       6.747  45.987  51.932  1.00  0.00     0.253 C 
ATOM     25  O   UNL     1       6.547  45.954  50.687  1.00  0.00    -0.269 OA
ATOM     26  N   UNL     1       8.082  46.183  52.436  1.00  0.00    -0.339 N 
ATOM     27  C   UNL     1       9.259  46.115  51.587  1.00  0.00     0.120 C 
ATOM     28  C   UNL     1       8.378  46.705  53.763  1.00  0.00     0.120 C 
ATOM     29  C   UNL     1      10.382  46.770  52.379  1.00  0.00     0.023 C 
ATOM     30  C   UNL     1       9.892  46.849  53.824  1.00  0.00     0.023 C 
ENDBRANCH  23  24
ENDBRANCH  17  18
ENDBRANCH  15  17
ENDBRANCH   6  15
TORSDOF 6
ENDMDL
MODEL 2
REMARK VINA RESULT:    -8.956      3.152      6.178
REMARK INTER + INTRA:         -13.032
REMARK INTER:                 -12.406
REMARK INTRA:                  -0.626
REMARK UNBOUND:                -0.936
REMARK SMILES CCc1noc(-c2ccc(C)c(NCc3ccc(C(=O)N4CCCC4)cc3)c2)n1
REMARK SMILES IDX 7 1 8 2 9 3 10 4 11 5 12 6 28 7 6 8 3 9 4 10 29 11 5 12 2 13
REMARK SMILES IDX 1 14 13 15 14 17 15 18 16 19 27 20 17 21 26 22 18 23 19 24
REMARK SMILES IDX 20 25 21 26 22 27 25 28 23 29 24 30
REMARK H PARENT 13 16
ROOT
ATOM      1  C   UNL     1      -0.452  45.126  55.882  1.00  0.00     0.042 A 
ATOM      2  C   UNL     1      -1.731  44.613  55.640  1.00  0.00     0.014 A 
ATOM      3  C   UNL     1      -1.967  43.804  54.529  1.00  0.00     0.006 A 
ATOM      4  C   UNL     1      -0.931  43.498  53.630  1.00  0.00    -0.028 A 
ATOM      5  C   UNL     1      -1.234  42.645  52.429  1.00  0.00     0.046 C 
ATOM      6  C   UNL     1       0.373  43.999  53.870  1.00  0.00     0.038 A 
ATOM      7  C   UNL     1       0.595  44.804  55.003  1.00  0.00     0.039 A 
ENDROOT
BRANCH   1   8
ATOM      8  C   UNL     1      -0.205  45.990  57.053  1.00  0.00     0.257 A 
ATOM      9  C   UNL     1      -0.392  47.424  58.558  1.00  0.00     0.172 A 
ATOM     10  N   UNL     1       0.804  46.830  58.737  1.00  0.00    -0.062 NA
ATOM     11  N   UNL     1      -1.066  46.926  57.501  1.00  0.00    -0.192 NA
ATOM     12  O   UNL     1       0.881  45.946  57.788  1.00  0.00    -0.334 OA
BRANCH   9  13
ATOM     13  C   UNL     1      -0.911  48.526  59.426  1.00  0.00     0.078 C 
ATOM     14  C   UNL     1      -0.206  48.527  60.779  1.00  0.00     0.012 C 
ENDBRANCH   9  13
ENDBRANCH   1   8
BRANCH   6  15
ATOM     15  N   UNL     1       1.459  43.688  52.970  1.00  0.00    -0.381 N 
ATOM     16  H   UNL     1       2.119  42.914  53.209  1.00  0.00     0.160 HD
BRANCH  15  17
ATOM     17  C   UNL     1       1.661  44.337  51.672  1.00  0.00     0.148 C 
BRANCH  17  18
ATOM     18  C   UNL     1       3.120  44.643  51.450  1.00  0.00    -0.029 A 
ATOM     19  C   UNL     1       3.513  45.915  51.009  1.00  0.00     0.006 A 
ATOM     20  C   UNL     1       4.100  43.668  51.705  1.00  0.00     0.006 A 
ATOM     21  C   UNL     1       4.868  46.224  50.859  1.00  0.00     0.014 A 
ATOM     22  C   UNL     1       5.455  43.979  51.560  1.00  0.00     0.014 A 
ATOM     23  C   UNL     1       5.847  45.264  51.157  1.00  0.00     0.040 A 
BRANCH  23  24
ATOM     24  C   UNL     1       7.275  45.599  51.017  1.00  0.00     0.253 C 
ATOM     25  O   UNL     1       7.822  45.474  49.888  1.00  0.00    -0.269 OA
ATOM     26  N   UNL     1       8.042  46.096  52.131  1.00  0.00    -0.339 N 
ATOM     27  C   UNL     1       9.486  46.244  52.084  1.00  0.00     0.120 C 
ATOM     28  C   UNL     1       7.452  46.722  53.305  1.00  0.00     0.120 C 
ATOM     29  C   UNL     1       9.849  47.155  53.249  1.00  0.00     0.023 C 
ATOM     30  C   UNL     1       8.623  47.187  54.159  1.00  0.00     0.023 C 
ENDBRANCH  23  24
ENDBRANCH  17  18
ENDBRANCH  15  17
ENDBRANCH   6  15
TORSDOF 6
ENDMDL
MODEL 3
REMARK VINA RESULT:    -8.943      1.925      6.933
REMARK INTER + INTRA:         -13.016
REMARK INTER:                 -11.815
REMARK INTRA:                  -1.201
REMARK UNBOUND:                -0.936
REMARK SMILES CCc1noc(-c2ccc(C)c(NCc3ccc(C(=O)N4CCCC4)cc3)c2)n1
REMARK SMILES IDX 7 1 8 2 9 3 10 4 11 5 12 6 28 7 6 8 3 9 4 10 29 11 5 12 2 13
REMARK SMILES IDX 1 14 13 15 14 17 15 18 16 19 27 20 17 21 26 22 18 23 19 24
REMARK SMILES IDX 20 25 21 26 22 27 25 28 23 29 24 30
REMARK H PARENT 13 16
ROOT
ATOM      1  C   UNL     1       8.340  45.658  51.605  1.00  0.00     0.042 A 
ATOM      2  C   UNL     1       9.560  46.330  51.731  1.00  0.00     0.014 A 
ATOM      3  C   UNL     1       9.797  47.158  52.829  1.00  0.00     0.006 A 
ATOM      4  C   UNL     1       8.816  47.338  53.818  1.00  0.00    -0.028 A 
ATOM      5  C   UNL     1       9.102  48.262  54.971  1.00  0.00     0.046 C 
ATOM      6  C   UNL     1       7.580  46.652  53.710  1.00  0.00     0.038 A 
ATOM      7  C   UNL     1       7.363  45.812  52.601  1.00  0.00     0.039 A 
ENDROOT
BRANCH   1   8
ATOM      8  C   UNL     1       8.086  44.789  50.438  1.00  0.00     0.257 A 
ATOM      9  C   UNL     1       7.214  43.470  49.076  1.00  0.00     0.172 A 
ATOM     10  N   UNL     1       8.426  43.787  48.584  1.00  0.00    -0.062 NA
ATOM     11  N   UNL     1       6.955  44.079  50.252  1.00  0.00    -0.192 NA
ATOM     12  O   UNL     1       8.933  44.608  49.453  1.00  0.00    -0.334 OA
BRANCH   9  13
ATOM     13  C   UNL     1       6.263  42.531  48.403  1.00  0.00     0.078 C 
ATOM     14  C   UNL     1       5.741  41.491  49.389  1.00  0.00     0.012 C 
ENDBRANCH   9  13
ENDBRANCH   1   8
BRANCH   6  15
ATOM     15  N   UNL     1       6.560  46.809  54.720  1.00  0.00    -0.381 N 
ATOM     16  H   UNL     1       6.730  46.444  55.684  1.00  0.00     0.160 HD
BRANCH  15  17
ATOM     17  C   UNL     1       5.304  47.535  54.513  1.00  0.00     0.148 C 
BRANCH  17  18
ATOM     18  C   UNL     1       4.305  46.675  53.782  1.00  0.00    -0.029 A 
ATOM     19  C   UNL     1       3.704  47.142  52.604  1.00  0.00     0.006 A 
ATOM     20  C   UNL     1       3.986  45.392  54.257  1.00  0.00     0.006 A 
ATOM     21  C   UNL     1       2.822  46.326  51.889  1.00  0.00     0.014 A 
ATOM     22  C   UNL     1       3.109  44.574  53.540  1.00  0.00     0.014 A 
ATOM     23  C   UNL     1       2.539  45.028  52.341  1.00  0.00     0.040 A 
BRANCH  23  24
ATOM     24  C   UNL     1       1.625  44.164  51.574  1.00  0.00     0.253 C 
ATOM     25  O   UNL     1       2.110  43.242  50.863  1.00  0.00    -0.269 OA
ATOM     26  N   UNL     1       0.196  44.331  51.649  1.00  0.00    -0.339 N 
ATOM     27  C   UNL     1      -0.722  43.637  50.761  1.00  0.00     0.120 C 
ATOM     28  C   UNL     1      -0.485  44.997  52.750  1.00  0.00     0.120 C 
ATOM     29  C   UNL     1      -2.094  43.748  51.413  1.00  0.00     0.023 C 
ATOM     30  C   UNL     1      -1.973  44.844  52.470  1.00  0.00     0.023 C 
ENDBRANCH  23  24
ENDBRANCH  17  18
ENDBRANCH  15  17
ENDBRANCH   6  15
TORSDOF 6
ENDMDL
MODEL 4
REMARK VINA RESULT:    -8.901      2.138      6.838
REMARK INTER + INTRA:         -12.958
REMARK INTER:                 -12.017
REMARK INTRA:                  -0.942
REMARK UNBOUND:                -0.936
REMARK SMILES CCc1noc(-c2ccc(C)c(NCc3ccc(C(=O)N4CCCC4)cc3)c2)n1
REMARK SMILES IDX 7 1 8 2 9 3 10 4 11 5 12 6 28 7 6 8 3 9 4 10 29 11 5 12 2 13
REMARK SMILES IDX 1 14 13 15 14 17 15 18 16 19 27 20 17 21 26 22 18 23 19 24
REMARK SMILES IDX 20 25 21 26 22 27 25 28 23 29 24 30
REMARK H PARENT 13 16
ROOT
ATOM      1  C   UNL     1       6.606  44.537  50.719  1.00  0.00     0.042 A 
ATOM      2  C   UNL     1       7.731  45.134  50.140  1.00  0.00     0.014 A 
ATOM      3  C   UNL     1       8.291  46.278  50.708  1.00  0.00     0.006 A 
ATOM      4  C   UNL     1       7.732  46.855  51.860  1.00  0.00    -0.028 A 
ATOM      5  C   UNL     1       8.350  48.106  52.424  1.00  0.00     0.046 C 
ATOM      6  C   UNL     1       6.600  46.254  52.465  1.00  0.00     0.038 A 
ATOM      7  C   UNL     1       6.056  45.092  51.885  1.00  0.00     0.039 A 
ENDROOT
BRANCH   1   8
ATOM      8  C   UNL     1       6.008  43.331  50.112  1.00  0.00     0.257 A 
ATOM      9  C   UNL     1       4.753  41.721  49.675  1.00  0.00     0.172 A 
ATOM     10  N   UNL     1       5.777  41.660  48.802  1.00  0.00    -0.062 NA
ATOM     11  N   UNL     1       4.858  42.762  50.526  1.00  0.00    -0.192 NA
ATOM     12  O   UNL     1       6.530  42.675  49.103  1.00  0.00    -0.334 OA
BRANCH   9  13
ATOM     13  C   UNL     1       3.630  40.734  49.709  1.00  0.00     0.078 C 
ATOM     14  C   UNL     1       3.490  40.027  48.364  1.00  0.00     0.012 C 
ENDBRANCH   9  13
ENDBRANCH   1   8
BRANCH   6  15
ATOM     15  N   UNL     1       6.015  46.818  53.658  1.00  0.00    -0.381 N 
ATOM     16  H   UNL     1       6.508  46.712  54.573  1.00  0.00     0.160 HD
BRANCH  15  17
ATOM     17  C   UNL     1       4.791  47.624  53.670  1.00  0.00     0.148 C 
BRANCH  17  18
ATOM     18  C   UNL     1       3.582  46.755  53.899  1.00  0.00    -0.029 A 
ATOM     19  C   UNL     1       2.592  46.652  52.910  1.00  0.00     0.006 A 
ATOM     20  C   UNL     1       3.445  46.021  55.089  1.00  0.00     0.006 A 
ATOM     21  C   UNL     1       1.499  45.800  53.091  1.00  0.00     0.014 A 
ATOM     22  C   UNL     1       2.354  45.166  55.268  1.00  0.00     0.014 A 
ATOM     23  C   UNL     1       1.387  45.034  54.261  1.00  0.00     0.040 A 
BRANCH  23  24
ATOM     24  C   UNL     1       0.242  44.123  54.439  1.00  0.00     0.253 C 
ATOM     25  O   UNL     1       0.242  43.019  53.829  1.00  0.00    -0.269 OA
ATOM     26  N   UNL     1      -0.850  44.455  55.318  1.00  0.00    -0.339 N 
ATOM     27  C   UNL     1      -2.080  43.682  55.365  1.00  0.00     0.120 C 
ATOM     28  C   UNL     1      -0.752  45.420  56.404  1.00  0.00     0.120 C 
ATOM     29  C   UNL     1      -2.772  44.083  56.661  1.00  0.00     0.023 C 
ATOM     30  C   UNL     1      -2.090  45.368  57.126  1.00  0.00     0.023 C 
ENDBRANCH  23  24
ENDBRANCH  17  18
ENDBRANCH  15  17
ENDBRANCH   6  15
TORSDOF 6
ENDMDL
MODEL 5
REMARK VINA RESULT:    -8.703      3.976      8.468
REMARK INTER + INTRA:         -12.692
REMARK INTER:                 -11.795
REMARK INTRA:                  -0.897
REMARK UNBOUND:                -0.936
REMARK SMILES CCc1noc(-c2ccc(C)c(NCc3ccc(C(=O)N4CCCC4)cc3)c2)n1
REMARK SMILES IDX 7 1 8 2 9 3 10 4 11 5 12 6 28 7 6 8 3 9 4 10 29 11 5 12 2 13
REMARK SMILES IDX 1 14 13 15 14 17 15 18 16 19 27 20 17 21 26 22 18 23 19 24
REMARK SMILES IDX 20 25 21 26 22 27 25 28 23 29 24 30
REMARK H PARENT 13 16
ROOT
ATOM      1  C   UNL     1       5.254  45.327  52.079  1.00  0.00     0.042 A 
ATOM      2  C   UNL     1       3.926  45.759  52.153  1.00  0.00     0.014 A 
ATOM      3  C   UNL     1       2.887  44.912  51.769  1.00  0.00     0.006 A 
ATOM      4  C   UNL     1       3.155  43.617  51.293  1.00  0.00    -0.028 A 
ATOM      5  C   UNL     1       2.007  42.745  50.863  1.00  0.00     0.046 C 
ATOM      6  C   UNL     1       4.495  43.161  51.226  1.00  0.00     0.038 A 
ATOM      7  C   UNL     1       5.529  44.026  51.629  1.00  0.00     0.039 A 
ENDROOT
BRANCH   1   8
ATOM      8  C   UNL     1       6.354  46.228  52.477  1.00  0.00     0.257 A 
ATOM      9  C   UNL     1       8.235  47.023  52.907  1.00  0.00     0.172 A 
ATOM     10  N   UNL     1       7.338  47.993  53.168  1.00  0.00    -0.062 NA
ATOM     11  N   UNL     1       7.658  45.885  52.469  1.00  0.00    -0.192 NA
ATOM     12  O   UNL     1       6.185  47.464  52.886  1.00  0.00    -0.334 OA
BRANCH   9  13
ATOM     13  C   UNL     1       9.711  47.183  53.097  1.00  0.00     0.078 C 
ATOM     14  C   UNL     1      10.068  47.189  54.579  1.00  0.00     0.012 C 
ENDBRANCH   9  13
ENDBRANCH   1   8
BRANCH   6  15
ATOM     15  N   UNL     1       4.797  41.830  50.754  1.00  0.00    -0.381 N 
ATOM     16  H   UNL     1       4.234  41.021  51.100  1.00  0.00     0.160 HD
BRANCH  15  17
ATOM     17  C   UNL     1       5.807  41.529  49.735  1.00  0.00     0.148 C 
BRANCH  17  18
ATOM     18  C   UNL     1       5.155  41.229  48.411  1.00  0.00    -0.029 A 
ATOM     19  C   UNL     1       4.003  40.429  48.358  1.00  0.00     0.006 A 
ATOM     20  C   UNL     1       5.677  41.764  47.221  1.00  0.00     0.006 A 
ATOM     21  C   UNL     1       3.359  40.197  47.139  1.00  0.00     0.014 A 
ATOM     22  C   UNL     1       5.030  41.536  46.003  1.00  0.00     0.014 A 
ATOM     23  C   UNL     1       3.855  40.769  45.959  1.00  0.00     0.040 A 
BRANCH  23  24
ATOM     24  C   UNL     1       3.163  40.538  44.679  1.00  0.00     0.253 C 
ATOM     25  O   UNL     1       2.185  41.274  44.373  1.00  0.00    -0.269 OA
ATOM     26  N   UNL     1       3.600  39.516  43.763  1.00  0.00    -0.339 N 
ATOM     27  C   UNL     1       2.829  39.126  42.596  1.00  0.00     0.120 C 
ATOM     28  C   UNL     1       4.942  38.949  43.763  1.00  0.00     0.120 C 
ATOM     29  C   UNL     1       3.790  38.357  41.700  1.00  0.00     0.023 C 
ATOM     30  C   UNL     1       4.991  38.001  42.573  1.00  0.00     0.023 C 
ENDBRANCH  23  24
ENDBRANCH  17  18
ENDBRANCH  15  17
ENDBRANCH   6  15
TORSDOF 6
ENDMDL
