MODEL 1
REMARK VINA RESULT:    -8.016      0.000      0.000
REMARK INTER + INTRA:         -11.873
REMARK INTER:                 -11.531
REMARK INTRA:                  -0.342
REMARK UNBOUND:                -0.342
REMARK SMILES CCN(Cc1cn(Cc2nccs2)nn1)c1cccc(CO)c1
REMARK SMILES IDX 3 1 2 2 1 3 4 4 5 5 6 6 15 7 7 8 14 9 8 10 9 11 10 12 13 13
REMARK SMILES IDX 11 14 12 15 16 16 17 17 23 18 18 19 20 20 19 21 21 22 22 23
REMARK H PARENT 22 24
ROOT
ATOM      1  N   UNL     1       6.060  46.685  52.229  1.00  0.00    -0.366 N 
ENDROOT
BRANCH   1   2
ATOM      2  C   UNL     1       5.482  45.944  51.094  1.00  0.00     0.113 C 
ATOM      3  C   UNL     1       5.727  44.442  51.226  1.00  0.00     0.027 C 
ENDBRANCH   1   2
BRANCH   1   4
ATOM      4  C   UNL     1       5.175  47.343  53.205  1.00  0.00     0.176 C 
BRANCH   4   5
ATOM      5  C   UNL     1       3.840  46.666  53.263  1.00  0.00     0.102 A 
ATOM      6  C   UNL     1       3.525  45.514  53.950  1.00  0.00     0.137 A 
ATOM      7  N   UNL     1       2.709  47.162  52.720  1.00  0.00    -0.134 NA
ATOM      8  N   UNL     1       2.205  45.334  53.781  1.00  0.00    -0.245 N 
ATOM      9  N   UNL     1       1.730  46.332  53.053  1.00  0.00    -0.067 NA
BRANCH   8  10
ATOM     10  C   UNL     1       1.384  44.297  54.394  1.00  0.00     0.213 C 
BRANCH  10  11
ATOM     11  C   UNL     1       0.542  44.892  55.474  1.00  0.00     0.114 A 
ATOM     12  N   UNL     1       1.050  45.577  56.523  1.00  0.00    -0.248 NA
ATOM     13  S   UNL     1      -1.139  44.923  55.475  1.00  0.00    -0.125 S 
ATOM     14  C   UNL     1       0.070  46.086  57.315  1.00  0.00     0.123 A 
ATOM     15  C   UNL     1      -1.228  45.822  56.893  1.00  0.00     0.087 A 
ENDBRANCH  10  11
ENDBRANCH   8  10
ENDBRANCH   4   5
ENDBRANCH   1   4
BRANCH   1  16
ATOM     16  C   UNL     1       7.492  46.699  52.427  1.00  0.00     0.037 A 
ATOM     17  C   UNL     1       8.362  46.315  51.390  1.00  0.00     0.026 A 
ATOM     18  C   UNL     1       8.038  47.112  53.654  1.00  0.00     0.032 A 
ATOM     19  C   UNL     1       9.745  46.346  51.579  1.00  0.00     0.003 A 
ATOM     20  C   UNL     1       9.427  47.129  53.852  1.00  0.00    -0.021 A 
ATOM     21  C   UNL     1      10.278  46.756  52.803  1.00  0.00     0.006 A 
BRANCH  20  22
ATOM     22  C   UNL     1       9.999  47.613  55.157  1.00  0.00     0.191 C 
BRANCH  22  23
ATOM     23  O   UNL     1       9.197  48.632  55.685  1.00  0.00    -0.392 OA
ATOM     24  H   UNL     1       8.613  48.208  56.368  1.00  0.00     0.211 HD
ENDBRANCH  22  23
ENDBRANCH  20  22
ENDBRANCH   1  16
TORSDOF 8
ENDMDL
MODEL 2
REMARK VINA RESULT:    -7.997      3.267      4.954
REMARK INTER + INTRA:         -11.846
REMARK INTER:                 -11.320
REMARK INTRA:                  -0.525
REMARK UNBOUND:                -0.342
REMARK SMILES CCN(Cc1cn(Cc2nccs2)nn1)c1cccc(CO)c1
REMARK SMILES IDX 3 1 2 2 1 3 4 4 5 5 6 6 15 7 7 8 14 9 8 10 9 11 10 12 13 13
REMARK SMILES IDX 11 14 12 15 16 16 17 17 23 18 18 19 20 20 19 21 21 22 22 23
REMARK H PARENT 22 24
ROOT
ATOM      1  N   UNL     1       5.771  46.781  53.393  1.00  0.00    -0.366 N 
ENDROOT
BRANCH   1   2
ATOM      2  C   UNL     1       5.216  46.825  54.758  1.00  0.00     0.113 C 
ATOM      3  C   UNL     1       5.135  45.428  55.372  1.00  0.00     0.027 C 
ENDBRANCH   1   2
BRANCH   1   4
ATOM      4  C   UNL     1       4.866  46.798  52.231  1.00  0.00     0.176 C 
BRANCH   4   5
ATOM      5  C   UNL     1       4.161  45.485  52.080  1.00  0.00     0.102 A 
ATOM      6  C   UNL     1       4.742  44.246  51.925  1.00  0.00     0.137 A 
ATOM      7  N   UNL     1       2.825  45.321  52.184  1.00  0.00    -0.134 NA
ATOM      8  N   UNL     1       3.728  43.363  51.916  1.00  0.00    -0.245 N 
ATOM      9  N   UNL     1       2.592  44.020  52.082  1.00  0.00    -0.067 NA
BRANCH   8  10
ATOM     10  C   UNL     1       3.842  41.911  51.866  1.00  0.00     0.213 C 
BRANCH  10  11
ATOM     11  C   UNL     1       4.247  41.482  50.494  1.00  0.00     0.114 A 
ATOM     12  N   UNL     1       3.397  40.911  49.611  1.00  0.00    -0.248 NA
ATOM     13  S   UNL     1       5.751  41.772  49.802  1.00  0.00    -0.125 S 
ATOM     14  C   UNL     1       3.991  40.695  48.407  1.00  0.00     0.123 A 
ATOM     15  C   UNL     1       5.315  41.110  48.319  1.00  0.00     0.087 A 
ENDBRANCH  10  11
ENDBRANCH   8  10
ENDBRANCH   4   5
ENDBRANCH   1   4
BRANCH   1  16
ATOM     16  C   UNL     1       7.202  46.800  53.196  1.00  0.00     0.037 A 
ATOM     17  C   UNL     1       7.753  46.568  51.923  1.00  0.00     0.026 A 
ATOM     18  C   UNL     1       8.067  47.065  54.272  1.00  0.00     0.032 A 
ATOM     19  C   UNL     1       9.136  46.603  51.732  1.00  0.00     0.003 A 
ATOM     20  C   UNL     1       9.458  47.085  54.087  1.00  0.00    -0.021 A 
ATOM     21  C   UNL     1       9.987  46.865  52.808  1.00  0.00     0.006 A 
BRANCH  20  22
ATOM     22  C   UNL     1      10.370  47.411  55.239  1.00  0.00     0.191 C 
BRANCH  22  23
ATOM     23  O   UNL     1       9.804  48.420  56.029  1.00  0.00    -0.392 OA
ATOM     24  H   UNL     1      10.379  49.222  55.919  1.00  0.00     0.211 HD
ENDBRANCH  22  23
ENDBRANCH  20  22
ENDBRANCH   1  16
TORSDOF 8
ENDMDL
MODEL 3
REMARK VINA RESULT:    -7.985      1.502      2.394
REMARK INTER + INTRA:         -11.828
REMARK INTER:                 -11.042
REMARK INTRA:                  -0.786
REMARK UNBOUND:                -0.342
REMARK SMILES CCN(Cc1cn(Cc2nccs2)nn1)c1cccc(CO)c1
REMARK SMILES IDX 3 1 2 2 1 3 4 4 5 5 6 6 15 7 7 8 14 9 8 10 9 11 10 12 13 13
REMARK SMILES IDX 11 14 12 15 16 16 17 17 23 18 18 19 20 20 19 21 21 22 22 23
REMARK H PARENT 22 24
ROOT
ATOM      1  N   UNL     1       6.058  46.688  52.186  1.00  0.00    -0.366 N 
ENDROOT
BRANCH   1   2
ATOM      2  C   UNL     1       5.495  45.763  51.187  1.00  0.00     0.113 C 
ATOM      3  C   UNL     1       5.456  44.330  51.714  1.00  0.00     0.027 C 
ENDBRANCH   1   2
BRANCH   1   4
ATOM      4  C   UNL     1       5.162  47.529  52.997  1.00  0.00     0.176 C 
BRANCH   4   5
ATOM      5  C   UNL     1       4.278  46.689  53.867  1.00  0.00     0.102 A 
ATOM      6  C   UNL     1       2.939  46.427  53.680  1.00  0.00     0.137 A 
ATOM      7  N   UNL     1       4.710  45.970  54.925  1.00  0.00    -0.134 NA
ATOM      8  N   UNL     1       2.592  45.568  54.653  1.00  0.00    -0.245 N 
ATOM      9  N   UNL     1       3.663  45.297  55.381  1.00  0.00    -0.067 NA
BRANCH   8  10
ATOM     10  C   UNL     1       1.295  44.924  54.822  1.00  0.00     0.213 C 
BRANCH  10  11
ATOM     11  C   UNL     1       0.888  44.266  53.545  1.00  0.00     0.114 A 
ATOM     12  N   UNL     1       1.514  43.184  53.031  1.00  0.00    -0.248 NA
ATOM     13  S   UNL     1      -0.473  44.673  52.646  1.00  0.00    -0.125 S 
ATOM     14  C   UNL     1       0.897  42.729  51.909  1.00  0.00     0.123 A 
ATOM     15  C   UNL     1      -0.238  43.438  51.530  1.00  0.00     0.087 A 
ENDBRANCH  10  11
ENDBRANCH   8  10
ENDBRANCH   4   5
ENDBRANCH   1   4
BRANCH   1  16
ATOM     16  C   UNL     1       7.484  46.714  52.422  1.00  0.00     0.037 A 
ATOM     17  C   UNL     1       8.384  46.332  51.411  1.00  0.00     0.026 A 
ATOM     18  C   UNL     1       7.994  47.135  53.662  1.00  0.00     0.032 A 
ATOM     19  C   UNL     1       9.762  46.374  51.637  1.00  0.00     0.003 A 
ATOM     20  C   UNL     1       9.377  47.162  53.898  1.00  0.00    -0.021 A 
ATOM     21  C   UNL     1      10.259  46.792  52.873  1.00  0.00     0.006 A 
BRANCH  20  22
ATOM     22  C   UNL     1       9.911  47.655  55.215  1.00  0.00     0.191 C 
BRANCH  22  23
ATOM     23  O   UNL     1       9.133  48.723  55.680  1.00  0.00    -0.392 OA
ATOM     24  H   UNL     1       8.298  48.328  56.047  1.00  0.00     0.211 HD
ENDBRANCH  22  23
ENDBRANCH  20  22
ENDBRANCH   1  16
TORSDOF 8
ENDMDL
MODEL 4
REMARK VINA RESULT:    -7.941      2.447      2.967
REMARK INTER + INTRA:         -11.766
REMARK INTER:                 -11.049
REMARK INTRA:                  -0.717
REMARK UNBOUND:                -0.342
REMARK SMILES CCN(Cc1cn(Cc2nccs2)nn1)c1cccc(CO)c1
REMARK SMILES IDX 3 1 2 2 1 3 4 4 5 5 6 6 15 7 7 8 14 9 8 10 9 11 10 12 13 13
REMARK SMILES IDX 11 14 12 15 16 16 17 17 23 18 18 19 20 20 19 21 21 22 22 23
REMARK H PARENT 22 24
ROOT
ATOM      1  N   UNL     1       6.020  46.440  53.272  1.00  0.00    -0.366 N 
ENDROOT
BRANCH   1   2
ATOM      2  C   UNL     1       5.414  46.375  54.613  1.00  0.00     0.113 C 
ATOM      3  C   UNL     1       5.494  44.964  55.193  1.00  0.00     0.027 C 
ENDBRANCH   1   2
BRANCH   1   4
ATOM      4  C   UNL     1       5.161  46.454  52.076  1.00  0.00     0.176 C 
BRANCH   4   5
ATOM      5  C   UNL     1       4.578  45.098  51.817  1.00  0.00     0.102 A 
ATOM      6  C   UNL     1       3.251  44.792  51.616  1.00  0.00     0.137 A 
ATOM      7  N   UNL     1       5.308  43.977  51.636  1.00  0.00    -0.134 NA
ATOM      8  N   UNL     1       3.214  43.477  51.341  1.00  0.00    -0.245 N 
ATOM      9  N   UNL     1       4.452  43.008  51.347  1.00  0.00    -0.067 NA
BRANCH   8  10
ATOM     10  C   UNL     1       2.039  42.701  50.965  1.00  0.00     0.213 C 
BRANCH  10  11
ATOM     11  C   UNL     1       0.923  42.981  51.917  1.00  0.00     0.114 A 
ATOM     12  N   UNL     1       0.938  42.603  53.214  1.00  0.00    -0.248 NA
ATOM     13  S   UNL     1      -0.429  43.916  51.563  1.00  0.00    -0.125 S 
ATOM     14  C   UNL     1      -0.156  43.054  53.883  1.00  0.00     0.123 A 
ATOM     15  C   UNL     1      -1.044  43.809  53.125  1.00  0.00     0.087 A 
ENDBRANCH  10  11
ENDBRANCH   8  10
ENDBRANCH   4   5
ENDBRANCH   1   4
BRANCH   1  16
ATOM     16  C   UNL     1       7.453  46.568  53.134  1.00  0.00     0.037 A 
ATOM     17  C   UNL     1       8.070  46.396  51.881  1.00  0.00     0.026 A 
ATOM     18  C   UNL     1       8.252  46.881  54.247  1.00  0.00     0.032 A 
ATOM     19  C   UNL     1       9.454  46.536  51.748  1.00  0.00     0.003 A 
ATOM     20  C   UNL     1       9.644  47.007  54.120  1.00  0.00    -0.021 A 
ATOM     21  C   UNL     1      10.239  46.846  52.861  1.00  0.00     0.006 A 
BRANCH  20  22
ATOM     22  C   UNL     1      10.482  47.383  55.311  1.00  0.00     0.191 C 
BRANCH  22  23
ATOM     23  O   UNL     1       9.847  48.394  56.045  1.00  0.00    -0.392 OA
ATOM     24  H   UNL     1      10.412  48.560  56.846  1.00  0.00     0.211 HD
ENDBRANCH  22  23
ENDBRANCH  20  22
ENDBRANCH   1  16
TORSDOF 8
ENDMDL
MODEL 5
REMARK VINA RESULT:    -7.896      3.752      6.645
REMARK INTER + INTRA:         -11.700
REMARK INTER:                 -10.606
REMARK INTRA:                  -1.094
REMARK UNBOUND:                -0.342
REMARK SMILES CCN(Cc1cn(Cc2nccs2)nn1)c1cccc(CO)c1
REMARK SMILES IDX 3 1 2 2 1 3 4 4 5 5 6 6 15 7 7 8 14 9 8 10 9 11 10 12 13 13
REMARK SMILES IDX 11 14 12 15 16 16 17 17 23 18 18 19 20 20 19 21 21 22 22 23
REMARK H PARENT 22 24
ROOT
ATOM      1  N   UNL     1       3.904  44.484  51.847  1.00  0.00    -0.366 N 
ENDROOT
BRANCH   1   2
ATOM      2  C   UNL     1       2.891  45.307  51.163  1.00  0.00     0.113 C 
ATOM      3  C   UNL     1       1.586  45.357  51.955  1.00  0.00     0.027 C 
ENDBRANCH   1   2
BRANCH   1   4
ATOM      4  C   UNL     1       3.941  44.435  53.318  1.00  0.00     0.176 C 
BRANCH   4   5
ATOM      5  C   UNL     1       4.809  45.523  53.871  1.00  0.00     0.102 A 
ATOM      6  C   UNL     1       6.177  45.495  54.022  1.00  0.00     0.137 A 
ATOM      7  N   UNL     1       4.367  46.753  54.209  1.00  0.00    -0.134 NA
ATOM      8  N   UNL     1       6.523  46.712  54.473  1.00  0.00    -0.245 N 
ATOM      9  N   UNL     1       5.432  47.455  54.570  1.00  0.00    -0.067 NA
BRANCH   8  10
ATOM     10  C   UNL     1       7.877  47.202  54.700  1.00  0.00     0.213 C 
BRANCH  10  11
ATOM     11  C   UNL     1       8.703  46.992  53.473  1.00  0.00     0.114 A 
ATOM     12  N   UNL     1       9.745  46.133  53.415  1.00  0.00    -0.248 NA
ATOM     13  S   UNL     1       8.378  47.669  51.969  1.00  0.00    -0.125 S 
ATOM     14  C   UNL     1      10.273  46.065  52.164  1.00  0.00     0.123 A 
ATOM     15  C   UNL     1       9.642  46.859  51.213  1.00  0.00     0.087 A 
ENDBRANCH  10  11
ENDBRANCH   8  10
ENDBRANCH   4   5
ENDBRANCH   1   4
BRANCH   1  16
ATOM     16  C   UNL     1       4.811  43.667  51.073  1.00  0.00     0.037 A 
ATOM     17  C   UNL     1       4.554  42.297  50.881  1.00  0.00     0.026 A 
ATOM     18  C   UNL     1       5.957  44.232  50.488  1.00  0.00     0.032 A 
ATOM     19  C   UNL     1       5.424  41.514  50.119  1.00  0.00     0.003 A 
ATOM     20  C   UNL     1       6.842  43.444  49.735  1.00  0.00    -0.021 A 
ATOM     21  C   UNL     1       6.562  42.084  49.543  1.00  0.00     0.006 A 
BRANCH  20  22
ATOM     22  C   UNL     1       8.043  44.071  49.080  1.00  0.00     0.191 C 
BRANCH  22  23
ATOM     23  O   UNL     1       9.216  43.633  49.709  1.00  0.00    -0.392 OA
ATOM     24  H   UNL     1       9.783  43.229  49.000  1.00  0.00     0.211 HD
ENDBRANCH  22  23
ENDBRANCH  20  22
ENDBRANCH   1  16
TORSDOF 8
ENDMDL
