MODEL 1
REMARK VINA RESULT:    -8.588      0.000      0.000
REMARK INTER + INTRA:         -10.769
REMARK INTER:                 -10.345
REMARK INTRA:                  -0.423
REMARK UNBOUND:                -0.423
REMARK SMILES Cc1nc(N2CC[C@H](CO)C2)c2cnn(-c3ccccc3)c2n1
REMARK SMILES IDX 5 1 6 2 7 3 8 4 11 5 4 6 2 7 3 8 23 9 22 10 12 11 15 12
REMARK SMILES IDX 13 13 14 14 1 15 16 16 17 17 21 18 18 19 20 20 19 21 9 22
REMARK SMILES IDX 10 23
REMARK H PARENT 10 24
ROOT
ATOM      1  N   UNL     1       1.491  44.193  53.005  1.00  0.00    -0.356 N 
ATOM      2  C   UNL     1       0.852  43.154  53.799  1.00  0.00     0.118 C 
ATOM      3  C   UNL     1      -0.646  43.395  53.665  1.00  0.00     0.029 C 
ATOM      4  C   UNL     1      -0.781  44.852  53.216  1.00  0.00     0.036 C 
ATOM      5  C   UNL     1       0.536  45.173  52.512  1.00  0.00     0.124 C 
ENDROOT
BRANCH   1   6
ATOM      6  C   UNL     1       2.885  44.232  52.633  1.00  0.00     0.143 A 
ATOM      7  C   UNL     1       4.692  43.248  51.398  1.00  0.00     0.130 A 
ATOM      8  N   UNL     1       3.376  43.280  51.779  1.00  0.00    -0.215 NA
ATOM      9  N   UNL     1       5.560  44.200  51.844  1.00  0.00    -0.213 NA
ATOM     10  C   UNL     1       5.091  45.164  52.672  1.00  0.00     0.168 A 
ATOM     11  C   UNL     1       3.793  45.201  53.089  1.00  0.00     0.082 A 
ATOM     12  N   UNL     1       5.792  46.168  53.231  1.00  0.00    -0.215 N 
ATOM     13  C   UNL     1       3.733  46.294  53.939  1.00  0.00     0.150 A 
ATOM     14  N   UNL     1       4.964  46.856  54.011  1.00  0.00    -0.174 NA
ATOM     15  C   UNL     1       5.161  42.201  50.445  1.00  0.00     0.090 C 
BRANCH  12  16
ATOM     16  C   UNL     1       7.189  46.480  53.079  1.00  0.00     0.067 A 
ATOM     17  C   UNL     1       7.779  46.585  51.805  1.00  0.00     0.028 A 
ATOM     18  C   UNL     1       7.979  46.721  54.217  1.00  0.00     0.028 A 
ATOM     19  C   UNL     1       9.136  46.898  51.678  1.00  0.00     0.002 A 
ATOM     20  C   UNL     1       9.336  47.032  54.085  1.00  0.00     0.002 A 
ATOM     21  C   UNL     1       9.914  47.118  52.817  1.00  0.00     0.000 A 
ENDBRANCH  12  16
ENDBRANCH   1   6
BRANCH   4  22
ATOM     22  C   UNL     1      -2.005  45.093  52.316  1.00  0.00     0.161 C 
BRANCH  22  23
ATOM     23  O   UNL     1      -2.093  46.445  51.955  1.00  0.00    -0.396 OA
ATOM     24  H   UNL     1      -3.017  46.736  52.172  1.00  0.00     0.210 HD
ENDBRANCH  22  23
ENDBRANCH   4  22
TORSDOF 4
ENDMDL
MODEL 2
REMARK VINA RESULT:    -8.463      2.000      2.201
REMARK INTER + INTRA:         -10.618
REMARK INTER:                 -10.517
REMARK INTRA:                  -0.102
REMARK UNBOUND:                -0.423
REMARK SMILES Cc1nc(N2CC[C@H](CO)C2)c2cnn(-c3ccccc3)c2n1
REMARK SMILES IDX 5 1 6 2 7 3 8 4 11 5 4 6 2 7 3 8 23 9 22 10 12 11 15 12
REMARK SMILES IDX 13 13 14 14 1 15 16 16 17 17 21 18 18 19 20 20 19 21 9 22
REMARK SMILES IDX 10 23
REMARK H PARENT 10 24
ROOT
ATOM      1  N   UNL     1       1.777  44.796  54.262  1.00  0.00    -0.356 N 
ATOM      2  C   UNL     1       0.490  44.877  53.589  1.00  0.00     0.118 C 
ATOM      3  C   UNL     1      -0.521  45.234  54.671  1.00  0.00     0.029 C 
ATOM      4  C   UNL     1       0.149  44.848  55.992  1.00  0.00     0.036 C 
ATOM      5  C   UNL     1       1.649  44.909  55.707  1.00  0.00     0.124 C 
ENDROOT
BRANCH   1   6
ATOM      6  C   UNL     1       3.065  44.722  53.615  1.00  0.00     0.143 A 
ATOM      7  C   UNL     1       4.473  43.640  52.001  1.00  0.00     0.130 A 
ATOM      8  N   UNL     1       3.271  43.778  52.645  1.00  0.00    -0.215 NA
ATOM      9  N   UNL     1       5.509  44.478  52.295  1.00  0.00    -0.213 NA
ATOM     10  C   UNL     1       5.320  45.433  53.236  1.00  0.00     0.168 A 
ATOM     11  C   UNL     1       4.143  45.572  53.910  1.00  0.00     0.082 A 
ATOM     12  N   UNL     1       6.221  46.332  53.675  1.00  0.00    -0.215 N 
ATOM     13  C   UNL     1       4.370  46.615  54.794  1.00  0.00     0.150 A 
ATOM     14  N   UNL     1       5.643  47.051  54.632  1.00  0.00    -0.174 NA
ATOM     15  C   UNL     1       4.629  42.609  50.935  1.00  0.00     0.090 C 
BRANCH  12  16
ATOM     16  C   UNL     1       7.585  46.515  53.252  1.00  0.00     0.067 A 
ATOM     17  C   UNL     1       7.964  46.324  51.910  1.00  0.00     0.028 A 
ATOM     18  C   UNL     1       8.555  46.928  54.182  1.00  0.00     0.028 A 
ATOM     19  C   UNL     1       9.293  46.517  51.517  1.00  0.00     0.002 A 
ATOM     20  C   UNL     1       9.882  47.117  53.785  1.00  0.00     0.002 A 
ATOM     21  C   UNL     1      10.251  46.910  52.454  1.00  0.00     0.000 A 
ENDBRANCH  12  16
ENDBRANCH   1   6
BRANCH   4  22
ATOM     22  C   UNL     1      -0.267  45.753  57.163  1.00  0.00     0.161 C 
BRANCH  22  23
ATOM     23  O   UNL     1       0.819  45.977  58.023  1.00  0.00    -0.396 OA
ATOM     24  H   UNL     1       0.962  45.133  58.524  1.00  0.00     0.210 HD
ENDBRANCH  22  23
ENDBRANCH   4  22
TORSDOF 4
ENDMDL
MODEL 3
REMARK VINA RESULT:    -8.330      2.808      7.295
REMARK INTER + INTRA:         -10.457
REMARK INTER:                 -10.146
REMARK INTRA:                  -0.311
REMARK UNBOUND:                -0.423
REMARK SMILES Cc1nc(N2CC[C@H](CO)C2)c2cnn(-c3ccccc3)c2n1
REMARK SMILES IDX 5 1 6 2 7 3 8 4 11 5 4 6 2 7 3 8 23 9 22 10 12 11 15 12
REMARK SMILES IDX 13 13 14 14 1 15 16 16 17 17 21 18 18 19 20 20 19 21 9 22
REMARK SMILES IDX 10 23
REMARK H PARENT 10 24
ROOT
ATOM      1  N   UNL     1       7.366  46.117  52.229  1.00  0.00    -0.356 N 
ATOM      2  C   UNL     1       8.457  46.484  51.339  1.00  0.00     0.118 C 
ATOM      3  C   UNL     1       9.480  47.200  52.212  1.00  0.00     0.029 C 
ATOM      4  C   UNL     1       8.706  47.652  53.453  1.00  0.00     0.036 C 
ATOM      5  C   UNL     1       7.530  46.682  53.560  1.00  0.00     0.124 C 
ENDROOT
BRANCH   1   6
ATOM      6  C   UNL     1       6.284  45.217  51.911  1.00  0.00     0.143 A 
ATOM      7  C   UNL     1       5.518  43.313  50.667  1.00  0.00     0.130 A 
ATOM      8  N   UNL     1       6.504  44.194  51.027  1.00  0.00    -0.215 NA
ATOM      9  N   UNL     1       4.273  43.415  51.213  1.00  0.00    -0.213 NA
ATOM     10  C   UNL     1       4.039  44.407  52.106  1.00  0.00     0.168 A 
ATOM     11  C   UNL     1       4.996  45.313  52.459  1.00  0.00     0.082 A 
ATOM     12  N   UNL     1       2.879  44.681  52.732  1.00  0.00    -0.215 N 
ATOM     13  C   UNL     1       4.355  46.166  53.345  1.00  0.00     0.150 A 
ATOM     14  N   UNL     1       3.069  45.760  53.484  1.00  0.00    -0.174 NA
ATOM     15  C   UNL     1       5.826  42.204  49.719  1.00  0.00     0.090 C 
BRANCH  12  16
ATOM     16  C   UNL     1       1.619  43.993  52.627  1.00  0.00     0.067 A 
ATOM     17  C   UNL     1       0.703  44.299  51.602  1.00  0.00     0.028 A 
ATOM     18  C   UNL     1       1.303  42.970  53.539  1.00  0.00     0.028 A 
ATOM     19  C   UNL     1      -0.511  43.612  51.511  1.00  0.00     0.002 A 
ATOM     20  C   UNL     1       0.086  42.288  53.445  1.00  0.00     0.002 A 
ATOM     21  C   UNL     1      -0.821  42.610  52.433  1.00  0.00     0.000 A 
ENDBRANCH  12  16
ENDBRANCH   1   6
BRANCH   4  22
ATOM     22  C   UNL     1       9.569  47.676  54.725  1.00  0.00     0.161 C 
BRANCH  22  23
ATOM     23  O   UNL     1       9.163  48.714  55.576  1.00  0.00    -0.396 OA
ATOM     24  H   UNL     1       8.429  49.193  55.109  1.00  0.00     0.210 HD
ENDBRANCH  22  23
ENDBRANCH   4  22
TORSDOF 4
ENDMDL
MODEL 4
REMARK VINA RESULT:    -7.285      2.435      3.807
REMARK INTER + INTRA:          -9.199
REMARK INTER:                  -9.215
REMARK INTRA:                   0.016
REMARK UNBOUND:                -0.423
REMARK SMILES Cc1nc(N2CC[C@H](CO)C2)c2cnn(-c3ccccc3)c2n1
REMARK SMILES IDX 5 1 6 2 7 3 8 4 11 5 4 6 2 7 3 8 23 9 22 10 12 11 15 12
REMARK SMILES IDX 13 13 14 14 1 15 16 16 17 17 21 18 18 19 20 20 19 21 9 22
REMARK SMILES IDX 10 23
REMARK H PARENT 10 24
ROOT
ATOM      1  N   UNL     1       0.557  44.571  53.835  1.00  0.00    -0.356 N 
ATOM      2  C   UNL     1      -0.552  44.273  52.942  1.00  0.00     0.118 C 
ATOM      3  C   UNL     1      -1.792  44.224  53.825  1.00  0.00     0.029 C 
ATOM      4  C   UNL     1      -1.267  43.998  55.245  1.00  0.00     0.036 C 
ATOM      5  C   UNL     1       0.156  44.553  55.233  1.00  0.00     0.124 C 
ENDROOT
BRANCH   1   6
ATOM      6  C   UNL     1       1.888  44.951  53.428  1.00  0.00     0.143 A 
ATOM      7  C   UNL     1       3.721  46.486  53.636  1.00  0.00     0.130 A 
ATOM      8  N   UNL     1       2.468  46.058  53.988  1.00  0.00    -0.215 NA
ATOM      9  N   UNL     1       4.453  45.788  52.720  1.00  0.00    -0.213 NA
ATOM     10  C   UNL     1       3.907  44.677  52.169  1.00  0.00     0.168 A 
ATOM     11  C   UNL     1       2.651  44.248  52.482  1.00  0.00     0.082 A 
ATOM     12  N   UNL     1       4.460  43.875  51.240  1.00  0.00    -0.215 N 
ATOM     13  C   UNL     1       2.460  43.127  51.689  1.00  0.00     0.150 A 
ATOM     14  N   UNL     1       3.573  42.931  50.941  1.00  0.00    -0.174 NA
ATOM     15  C   UNL     1       4.309  47.685  54.300  1.00  0.00     0.090 C 
BRANCH  12  16
ATOM     16  C   UNL     1       5.754  43.980  50.619  1.00  0.00     0.067 A 
ATOM     17  C   UNL     1       6.316  42.899  49.914  1.00  0.00     0.028 A 
ATOM     18  C   UNL     1       6.462  45.194  50.681  1.00  0.00     0.028 A 
ATOM     19  C   UNL     1       7.571  43.025  49.310  1.00  0.00     0.002 A 
ATOM     20  C   UNL     1       7.717  45.314  50.076  1.00  0.00     0.002 A 
ATOM     21  C   UNL     1       8.271  44.230  49.393  1.00  0.00     0.000 A 
ENDBRANCH  12  16
ENDBRANCH   1   6
BRANCH   4  22
ATOM     22  C   UNL     1      -2.147  44.653  56.323  1.00  0.00     0.161 C 
BRANCH  22  23
ATOM     23  O   UNL     1      -1.770  44.215  57.601  1.00  0.00    -0.396 OA
ATOM     24  H   UNL     1      -0.778  44.239  57.627  1.00  0.00     0.210 HD
ENDBRANCH  22  23
ENDBRANCH   4  22
TORSDOF 4
ENDMDL
MODEL 5
REMARK VINA RESULT:    -7.023      3.342      7.409
REMARK INTER + INTRA:          -8.883
REMARK INTER:                  -8.941
REMARK INTRA:                   0.057
REMARK UNBOUND:                -0.423
REMARK SMILES Cc1nc(N2CC[C@H](CO)C2)c2cnn(-c3ccccc3)c2n1
REMARK SMILES IDX 5 1 6 2 7 3 8 4 11 5 4 6 2 7 3 8 23 9 22 10 12 11 15 12
REMARK SMILES IDX 13 13 14 14 1 15 16 16 17 17 21 18 18 19 20 20 19 21 9 22
REMARK SMILES IDX 10 23
REMARK H PARENT 10 24
ROOT
ATOM      1  N   UNL     1       5.317  43.805  51.058  1.00  0.00    -0.356 N 
ATOM      2  C   UNL     1       5.334  42.393  50.707  1.00  0.00     0.118 C 
ATOM      3  C   UNL     1       6.553  42.204  49.814  1.00  0.00     0.029 C 
ATOM      4  C   UNL     1       6.889  43.602  49.288  1.00  0.00     0.036 C 
ATOM      5  C   UNL     1       6.325  44.563  50.333  1.00  0.00     0.124 C 
ENDROOT
BRANCH   1   6
ATOM      6  C   UNL     1       4.493  44.411  52.076  1.00  0.00     0.143 A 
ATOM      7  C   UNL     1       4.164  46.216  53.622  1.00  0.00     0.130 A 
ATOM      8  N   UNL     1       4.889  45.594  52.640  1.00  0.00    -0.215 NA
ATOM      9  N   UNL     1       2.987  45.677  54.053  1.00  0.00    -0.213 NA
ATOM     10  C   UNL     1       2.565  44.518  53.493  1.00  0.00     0.168 A 
ATOM     11  C   UNL     1       3.283  43.865  52.534  1.00  0.00     0.082 A 
ATOM     12  N   UNL     1       1.452  43.825  53.797  1.00  0.00    -0.215 N 
ATOM     13  C   UNL     1       2.543  42.725  52.262  1.00  0.00     0.150 A 
ATOM     14  N   UNL     1       1.440  42.726  53.051  1.00  0.00    -0.174 NA
ATOM     15  C   UNL     1       4.634  47.517  54.180  1.00  0.00     0.090 C 
BRANCH  12  16
ATOM     16  C   UNL     1       0.434  44.143  54.765  1.00  0.00     0.067 A 
ATOM     17  C   UNL     1       0.738  44.875  55.929  1.00  0.00     0.028 A 
ATOM     18  C   UNL     1      -0.896  43.752  54.535  1.00  0.00     0.028 A 
ATOM     19  C   UNL     1      -0.267  45.182  56.852  1.00  0.00     0.002 A 
ATOM     20  C   UNL     1      -1.897  44.060  55.462  1.00  0.00     0.002 A 
ATOM     21  C   UNL     1      -1.582  44.772  56.620  1.00  0.00     0.000 A 
ENDBRANCH  12  16
ENDBRANCH   1   6
BRANCH   4  22
ATOM     22  C   UNL     1       8.394  43.808  49.047  1.00  0.00     0.161 C 
BRANCH  22  23
ATOM     23  O   UNL     1       8.956  44.583  50.071  1.00  0.00    -0.396 OA
ATOM     24  H   UNL     1       9.534  45.260  49.630  1.00  0.00     0.210 HD
ENDBRANCH  22  23
ENDBRANCH   4  22
TORSDOF 4
ENDMDL
