ligand_82_conformer_4_docked
     RDKit          3D

 48 50  0  0  0  0  0  0  0  0999 V2000
    6.1160   41.8400   48.5220 C   0  0  0  0  0  0  0  0  0  0  0  0
    6.6320   43.0670   49.2130 C   0  0  0  0  0  0  0  0  0  0  0  0
    5.7880   43.8220   50.0430 C   0  0  0  0  0  0  0  0  0  0  0  0
    6.2870   44.9280   50.7350 C   0  0  0  0  0  0  0  0  0  0  0  0
    7.6350   45.2850   50.6100 C   0  0  0  0  0  0  0  0  0  0  0  0
    8.2770   46.6890   51.5240 S   0  0  0  0  0  0  0  0  0  0  0  0
    7.6540   46.1380   53.1530 C   0  0  0  0  0  0  0  0  0  0  0  0
    6.3350   46.7870   53.4820 C   0  0  0  0  0  0  0  0  0  0  0  0
    6.2660   48.0450   53.4220 O   0  0  0  0  0  0  0  0  0  0  0  0
    5.1750   46.0360   53.9130 N   0  0  0  0  0  0  0  0  0  0  0  0
    4.2150   46.7130   54.7950 C   0  0  0  0  0  0  0  0  0  0  0  0
    3.0970   45.7690   55.2530 C   0  0  0  0  0  0  0  0  0  0  0  0
    2.4690   44.9870   54.0730 C   0  0  0  0  0  0  0  0  0  0  0  0
    3.5950   44.1950   53.3190 C   0  0  0  0  0  0  0  0  0  0  0  0
    5.0420   44.5910   53.6730 C   0  0  0  0  0  0  0  0  0  0  0  0
    1.7460   46.0150   53.1320 C   0  0  0  0  0  0  0  0  0  0  0  0
    0.6920   45.3880   52.2020 C   0  0  1  0  0  0  0  0  0  0  0  0
    1.2980   44.7300   51.1200 O   0  0  0  0  0  0  0  0  0  0  0  0
   -0.1740   44.4040   52.9800 C   0  0  0  0  0  0  0  0  0  0  0  0
    0.7160   43.4180   53.7270 C   0  0  0  0  0  0  0  0  0  0  0  0
    1.5340   44.0880   54.6710 O   0  0  0  0  0  0  0  0  0  0  0  0
    8.4790   44.5430   49.7760 C   0  0  0  0  0  0  0  0  0  0  0  0
    7.9830   43.4290   49.0900 C   0  0  0  0  0  0  0  0  0  0  0  0
    5.8046   41.0996   49.2735 H   0  0  0  0  0  0  0  0  0  0  0  0
    5.2545   42.1084   47.8928 H   0  0  0  0  0  0  0  0  0  0  0  0
    6.9104   41.4121   47.8928 H   0  0  0  0  0  0  0  0  0  0  0  0
    4.7296   43.5414   50.1487 H   0  0  0  0  0  0  0  0  0  0  0  0
    5.6198   45.5195   51.3792 H   0  0  0  0  0  0  0  0  0  0  0  0
    7.5217   45.0461   53.1355 H   0  0  0  0  0  0  0  0  0  0  0  0
    8.3855   46.4289   53.9213 H   0  0  0  0  0  0  0  0  0  0  0  0
    4.7488   47.0884   55.6805 H   0  0  0  0  0  0  0  0  0  0  0  0
    3.7556   47.5377   54.2305 H   0  0  0  0  0  0  0  0  0  0  0  0
    3.5143   45.0491   55.9725 H   0  0  0  0  0  0  0  0  0  0  0  0
    2.3058   46.3810   55.7106 H   0  0  0  0  0  0  0  0  0  0  0  0
    3.4704   43.1270   53.5511 H   0  0  0  0  0  0  0  0  0  0  0  0
    3.4699   44.4373   52.2533 H   0  0  0  0  0  0  0  0  0  0  0  0
    5.3458   44.0507   54.5817 H   0  0  0  0  0  0  0  0  0  0  0  0
    5.6846   44.3278   52.8199 H   0  0  0  0  0  0  0  0  0  0  0  0
    1.2470   46.7666   53.7613 H   0  0  0  0  0  0  0  0  0  0  0  0
    2.5214   46.4483   52.4832 H   0  0  0  0  0  0  0  0  0  0  0  0
    0.0627   46.1993   51.8073 H   0  0  0  0  0  0  0  0  0  0  0  0
    0.9350   45.1440   50.2950 H   0  0  0  0  0  0  0  0  0  0  0  0
   -0.7958   44.9546   53.7012 H   0  0  0  0  0  0  0  0  0  0  0  0
   -0.8204   43.8542   52.2801 H   0  0  0  0  0  0  0  0  0  0  0  0
    0.0826   42.6886   54.2531 H   0  0  0  0  0  0  0  0  0  0  0  0
    1.3649   42.9096   52.9987 H   0  0  0  0  0  0  0  0  0  0  0  0
    9.5329   44.8357   49.6597 H   0  0  0  0  0  0  0  0  0  0  0  0
    8.6538   42.8347   48.4521 H   0  0  0  0  0  0  0  0  0  0  0  0
  1  2  1  0
  2  3  2  0
  3  4  1  0
  4  5  2  0
  5  6  1  0
  6  7  1  0
  7  8  1  0
  8  9  2  0
  8 10  1  0
 10 11  1  0
 11 12  1  0
 12 13  1  0
 13 14  1  0
 14 15  1  0
 13 16  1  0
 16 17  1  0
 17 18  1  0
 17 19  1  0
 19 20  1  0
 20 21  1  0
  5 22  1  0
 22 23  2  0
 23  2  1  0
 15 10  1  0
 21 13  1  0
  1 24  1  0
  1 25  1  0
  1 26  1  0
  3 27  1  0
  4 28  1  0
  7 29  1  0
  7 30  1  0
 11 31  1  0
 11 32  1  0
 12 33  1  0
 12 34  1  0
 14 35  1  0
 14 36  1  0
 15 37  1  0
 15 38  1  0
 16 39  1  0
 16 40  1  0
 17 41  1  6
 18 42  1  0
 19 43  1  0
 19 44  1  0
 20 45  1  0
 20 46  1  0
 22 47  1  0
 23 48  1  0
M  END
>  <meeko>  (1) 
{"is_sidechain": [false], "free_energy": -8.49, "intermolecular_energy": -10.228, "internal_energy": -0.175}

$$$$
ligand_82_conformer_4_docked
     RDKit          3D

 48 50  0  0  0  0  0  0  0  0999 V2000
   10.2930   47.5830   55.2900 C   0  0  0  0  0  0  0  0  0  0  0  0
    9.5620   47.0960   54.0750 C   0  0  0  0  0  0  0  0  0  0  0  0
   10.2700   46.7270   52.9200 C   0  0  0  0  0  0  0  0  0  0  0  0
    9.5910   46.2160   51.8120 C   0  0  0  0  0  0  0  0  0  0  0  0
    8.2000   46.0590   51.8500 C   0  0  0  0  0  0  0  0  0  0  0  0
    7.3370   45.3750   50.4340 S   0  0  0  0  0  0  0  0  0  0  0  0
    5.6660   45.8600   50.9960 C   0  0  0  0  0  0  0  0  0  0  0  0
    4.8880   44.6690   51.4910 C   0  0  0  0  0  0  0  0  0  0  0  0
    5.5380   43.6900   51.9490 O   0  0  0  0  0  0  0  0  0  0  0  0
    3.4460   44.5830   51.4090 N   0  0  0  0  0  0  0  0  0  0  0  0
    2.8490   43.2460   51.2850 C   0  0  0  0  0  0  0  0  0  0  0  0
    1.3280   43.3150   51.1050 C   0  0  0  0  0  0  0  0  0  0  0  0
    0.6540   44.2430   52.1460 C   0  0  0  0  0  0  0  0  0  0  0  0
    1.2930   45.6740   52.0530 C   0  0  0  0  0  0  0  0  0  0  0  0
    2.5970   45.7720   51.2370 C   0  0  0  0  0  0  0  0  0  0  0  0
    0.8460   43.6080   53.5690 C   0  0  0  0  0  0  0  0  0  0  0  0
   -0.1410   44.1250   54.6300 C   0  0  1  0  0  0  0  0  0  0  0  0
    0.2260   45.4010   55.0830 O   0  0  0  0  0  0  0  0  0  0  0  0
   -1.5510   44.1700   54.0550 C   0  0  0  0  0  0  0  0  0  0  0  0
   -1.5430   44.9330   52.7360 C   0  0  0  0  0  0  0  0  0  0  0  0
   -0.7260   44.2830   51.7790 O   0  0  0  0  0  0  0  0  0  0  0  0
    7.4880   46.4350   52.9940 C   0  0  0  0  0  0  0  0  0  0  0  0
    8.1670   46.9390   54.1080 C   0  0  0  0  0  0  0  0  0  0  0  0
    9.7723   47.2361   56.1947 H   0  0  0  0  0  0  0  0  0  0  0  0
   11.3195   47.1876   55.2834 H   0  0  0  0  0  0  0  0  0  0  0  0
   10.3235   48.6826   55.2834 H   0  0  0  0  0  0  0  0  0  0  0  0
   11.3636   46.8409   52.8879 H   0  0  0  0  0  0  0  0  0  0  0  0
   10.1502   45.9361   50.9070 H   0  0  0  0  0  0  0  0  0  0  0  0
    5.7607   46.5908   51.8127 H   0  0  0  0  0  0  0  0  0  0  0  0
    5.1262   46.2973   50.1432 H   0  0  0  0  0  0  0  0  0  0  0  0
    3.2880   42.7397   50.4126 H   0  0  0  0  0  0  0  0  0  0  0  0
    3.0584   42.6912   52.2115 H   0  0  0  0  0  0  0  0  0  0  0  0
    1.1081   43.6960   50.0968 H   0  0  0  0  0  0  0  0  0  0  0  0
    0.9260   42.3011   51.2481 H   0  0  0  0  0  0  0  0  0  0  0  0
    0.5538   46.3448   51.5907 H   0  0  0  0  0  0  0  0  0  0  0  0
    1.5626   45.9495   53.0833 H   0  0  0  0  0  0  0  0  0  0  0  0
    2.3424   45.8754   50.1719 H   0  0  0  0  0  0  0  0  0  0  0  0
    3.1590   46.6457   51.5987 H   0  0  0  0  0  0  0  0  0  0  0  0
    0.7181   42.5190   53.4807 H   0  0  0  0  0  0  0  0  0  0  0  0
    1.8526   43.8933   53.9087 H   0  0  0  0  0  0  0  0  0  0  0  0
   -0.1152   43.4326   55.4844 H   0  0  0  0  0  0  0  0  0  0  0  0
    1.1610   45.3320   55.4070 H   0  0  0  0  0  0  0  0  0  0  0  0
   -1.9083   43.1442   53.8820 H   0  0  0  0  0  0  0  0  0  0  0  0
   -2.2187   44.6784   54.7662 H   0  0  0  0  0  0  0  0  0  0  0  0
   -2.5710   44.9940   52.3494 H   0  0  0  0  0  0  0  0  0  0  0  0
   -1.1388   45.9401   52.9160 H   0  0  0  0  0  0  0  0  0  0  0  0
    6.3929   46.3341   53.0174 H   0  0  0  0  0  0  0  0  0  0  0  0
    7.6061   47.2135   55.0135 H   0  0  0  0  0  0  0  0  0  0  0  0
  1  2  1  0
  2  3  2  0
  3  4  1  0
  4  5  2  0
  5  6  1  0
  6  7  1  0
  7  8  1  0
  8  9  2  0
  8 10  1  0
 10 11  1  0
 11 12  1  0
 12 13  1  0
 13 14  1  0
 14 15  1  0
 13 16  1  0
 16 17  1  0
 17 18  1  0
 17 19  1  0
 19 20  1  0
 20 21  1  0
  5 22  1  0
 22 23  2  0
 23  2  1  0
 15 10  1  0
 21 13  1  0
  1 24  1  0
  1 25  1  0
  1 26  1  0
  3 27  1  0
  4 28  1  0
  7 29  1  0
  7 30  1  0
 11 31  1  0
 11 32  1  0
 12 33  1  0
 12 34  1  0
 14 35  1  0
 14 36  1  0
 15 37  1  0
 15 38  1  0
 16 39  1  0
 16 40  1  0
 17 41  1  1
 18 42  1  0
 19 43  1  0
 19 44  1  0
 20 45  1  0
 20 46  1  0
 22 47  1  0
 23 48  1  0
M  END
>  <meeko>  (2) 
{"is_sidechain": [false], "free_energy": -8.49, "intermolecular_energy": -10.188, "internal_energy": -0.214}

$$$$
ligand_82_conformer_4_docked
     RDKit          3D

 48 50  0  0  0  0  0  0  0  0999 V2000
   10.6880   47.5450   55.6660 C   0  0  0  0  0  0  0  0  0  0  0  0
    9.8400   47.2560   54.4630 C   0  0  0  0  0  0  0  0  0  0  0  0
   10.4220   46.7530   53.2880 C   0  0  0  0  0  0  0  0  0  0  0  0
    9.6210   46.4260   52.1910 C   0  0  0  0  0  0  0  0  0  0  0  0
    8.2330   46.5890   52.2600 C   0  0  0  0  0  0  0  0  0  0  0  0
    7.2080   46.1400   50.8580 S   0  0  0  0  0  0  0  0  0  0  0  0
    6.1490   44.9710   51.7840 C   0  0  0  0  0  0  0  0  0  0  0  0
    4.8100   45.5840   52.1060 C   0  0  0  0  0  0  0  0  0  0  0  0
    4.6870   46.8330   51.9760 O   0  0  0  0  0  0  0  0  0  0  0  0
    3.6920   44.8120   52.6040 N   0  0  0  0  0  0  0  0  0  0  0  0
    2.7220   45.4980   53.4690 C   0  0  0  0  0  0  0  0  0  0  0  0
    1.6540   44.5360   54.0030 C   0  0  0  0  0  0  0  0  0  0  0  0
    1.0360   43.6630   52.8840 C   0  0  0  0  0  0  0  0  0  0  0  0
    2.1790   42.8770   52.1510 C   0  0  0  0  0  0  0  0  0  0  0  0
    3.6150   43.3510   52.4490 C   0  0  0  0  0  0  0  0  0  0  0  0
    0.2520   44.6050   51.9020 C   0  0  0  0  0  0  0  0  0  0  0  0
   -0.7930   43.8830   51.0340 C   0  0  1  0  0  0  0  0  0  0  0  0
   -0.1820   43.1900   49.9770 O   0  0  0  0  0  0  0  0  0  0  0  0
   -1.6010   42.9100   51.8850 C   0  0  0  0  0  0  0  0  0  0  0  0
   -0.6550   42.0060   52.6670 C   0  0  0  0  0  0  0  0  0  0  0  0
    0.1530   42.7620   53.5520 O   0  0  0  0  0  0  0  0  0  0  0  0
    7.6490   47.1000   53.4250 C   0  0  0  0  0  0  0  0  0  0  0  0
    8.4470   47.4190   54.5280 C   0  0  0  0  0  0  0  0  0  0  0  0
   10.1080   47.3473   56.5795 H   0  0  0  0  0  0  0  0  0  0  0  0
   11.5787   46.8997   55.6504 H   0  0  0  0  0  0  0  0  0  0  0  0
   10.9992   48.5999   55.6504 H   0  0  0  0  0  0  0  0  0  0  0  0
   11.5120   46.6160   53.2312 H   0  0  0  0  0  0  0  0  0  0  0  0
   10.0828   46.0393   51.2705 H   0  0  0  0  0  0  0  0  0  0  0  0
    5.9930   44.0686   51.1746 H   0  0  0  0  0  0  0  0  0  0  0  0
    6.6525   44.7194   52.7291 H   0  0  0  0  0  0  0  0  0  0  0  0
    3.2572   45.9437   54.3204 H   0  0  0  0  0  0  0  0  0  0  0  0
    2.2172   46.2707   52.8705 H   0  0  0  0  0  0  0  0  0  0  0  0
    2.1155   43.8759   54.7522 H   0  0  0  0  0  0  0  0  0  0  0  0
    0.8467   45.1404   54.4423 H   0  0  0  0  0  0  0  0  0  0  0  0
    2.1044   41.8198   52.4454 H   0  0  0  0  0  0  0  0  0  0  0  0
    2.0224   43.0536   51.0766 H   0  0  0  0  0  0  0  0  0  0  0  0
    3.9597   42.8765   53.3796 H   0  0  0  0  0  0  0  0  0  0  0  0
    4.2506   43.0656   51.5978 H   0  0  0  0  0  0  0  0  0  0  0  0
   -0.2651   45.3712   52.4983 H   0  0  0  0  0  0  0  0  0  0  0  0
    0.9954   45.0311   51.2122 H   0  0  0  0  0  0  0  0  0  0  0  0
   -1.4643   44.6441   50.6096 H   0  0  0  0  0  0  0  0  0  0  0  0
    0.7870   43.1450   50.1880 H   0  0  0  0  0  0  0  0  0  0  0  0
   -2.2317   43.4747   52.5874 H   0  0  0  0  0  0  0  0  0  0  0  0
   -2.2369   42.2947   51.2315 H   0  0  0  0  0  0  0  0  0  0  0  0
   -1.2464   41.2832   53.2482 H   0  0  0  0  0  0  0  0  0  0  0  0
   -0.0003   41.4832   51.9543 H   0  0  0  0  0  0  0  0  0  0  0  0
    6.5604   47.2509   53.4729 H   0  0  0  0  0  0  0  0  0  0  0  0
    7.9819   47.7989   55.4496 H   0  0  0  0  0  0  0  0  0  0  0  0
  1  2  1  0
  2  3  2  0
  3  4  1  0
  4  5  2  0
  5  6  1  0
  6  7  1  0
  7  8  1  0
  8  9  2  0
  8 10  1  0
 10 11  1  0
 11 12  1  0
 12 13  1  0
 13 14  1  0
 14 15  1  0
 13 16  1  0
 16 17  1  0
 17 18  1  0
 17 19  1  0
 19 20  1  0
 20 21  1  0
  5 22  1  0
 22 23  2  0
 23  2  1  0
 15 10  1  0
 21 13  1  0
  1 24  1  0
  1 25  1  0
  1 26  1  0
  3 27  1  0
  4 28  1  0
  7 29  1  0
  7 30  1  0
 11 31  1  0
 11 32  1  0
 12 33  1  0
 12 34  1  0
 14 35  1  0
 14 36  1  0
 15 37  1  0
 15 38  1  0
 16 39  1  0
 16 40  1  0
 17 41  1  6
 18 42  1  0
 19 43  1  0
 19 44  1  0
 20 45  1  0
 20 46  1  0
 22 47  1  0
 23 48  1  0
M  END
>  <meeko>  (3) 
{"is_sidechain": [false], "free_energy": -8.444, "intermolecular_energy": -10.222, "internal_energy": -0.125}

$$$$
ligand_82_conformer_4_docked
     RDKit          3D

 48 50  0  0  0  0  0  0  0  0999 V2000
    9.9360   47.0940   53.5240 C   0  0  0  0  0  0  0  0  0  0  0  0
    8.6370   46.6910   52.8910 C   0  0  0  0  0  0  0  0  0  0  0  0
    7.4250   46.8860   53.5720 C   0  0  0  0  0  0  0  0  0  0  0  0
    6.2130   46.5670   52.9550 C   0  0  0  0  0  0  0  0  0  0  0  0
    6.2000   46.0600   51.6510 C   0  0  0  0  0  0  0  0  0  0  0  0
    4.6380   45.6800   50.8540 S   0  0  0  0  0  0  0  0  0  0  0  0
    4.4880   43.9980   51.5560 C   0  0  0  0  0  0  0  0  0  0  0  0
    3.4930   43.9640   52.6860 C   0  0  0  0  0  0  0  0  0  0  0  0
    3.8780   44.3560   53.8220 O   0  0  0  0  0  0  0  0  0  0  0  0
    2.1480   43.4540   52.5340 N   0  0  0  0  0  0  0  0  0  0  0  0
    1.5050   42.8640   53.7160 C   0  0  0  0  0  0  0  0  0  0  0  0
    0.1300   42.2740   53.3840 C   0  0  0  0  0  0  0  0  0  0  0  0
   -0.7530   43.2580   52.5770 C   0  0  0  0  0  0  0  0  0  0  0  0
    0.0050   43.6800   51.2700 C   0  0  0  0  0  0  0  0  0  0  0  0
    1.5030   43.3190   51.2190 C   0  0  0  0  0  0  0  0  0  0  0  0
   -1.0730   44.4940   53.4920 C   0  0  0  0  0  0  0  0  0  0  0  0
   -2.2940   45.3140   53.0410 C   0  0  1  0  0  0  0  0  0  0  0  0
   -1.9780   46.1310   51.9440 O   0  0  0  0  0  0  0  0  0  0  0  0
   -3.4440   44.3840   52.6730 C   0  0  0  0  0  0  0  0  0  0  0  0
   -2.9550   43.3320   51.6840 C   0  0  0  0  0  0  0  0  0  0  0  0
   -1.9390   42.5290   52.2590 O   0  0  0  0  0  0  0  0  0  0  0  0
    7.4050   45.8540   50.9710 C   0  0  0  0  0  0  0  0  0  0  0  0
    8.6200   46.1810   51.5830 C   0  0  0  0  0  0  0  0  0  0  0  0
    9.8355   47.0628   54.6190 H   0  0  0  0  0  0  0  0  0  0  0  0
   10.7286   46.3995   53.2086 H   0  0  0  0  0  0  0  0  0  0  0  0
   10.1963   48.1151   53.2086 H   0  0  0  0  0  0  0  0  0  0  0  0
    7.4297   47.2912   54.5946 H   0  0  0  0  0  0  0  0  0  0  0  0
    5.2665   46.7148   53.4957 H   0  0  0  0  0  0  0  0  0  0  0  0
    4.1568   43.3081   50.7659 H   0  0  0  0  0  0  0  0  0  0  0  0
    5.4703   43.6966   51.9488 H   0  0  0  0  0  0  0  0  0  0  0  0
    2.1496   42.0642   54.1094 H   0  0  0  0  0  0  0  0  0  0  0  0
    1.3631   43.6613   54.4605 H   0  0  0  0  0  0  0  0  0  0  0  0
    0.2718   41.3583   52.7912 H   0  0  0  0  0  0  0  0  0  0  0  0
   -0.3835   42.0625   54.3335 H   0  0  0  0  0  0  0  0  0  0  0  0
   -0.4899   43.1892   50.4190 H   0  0  0  0  0  0  0  0  0  0  0  0
   -0.0396   44.7787   51.2394 H   0  0  0  0  0  0  0  0  0  0  0  0
    1.6060   42.2782   50.8782 H   0  0  0  0  0  0  0  0  0  0  0  0
    1.9967   44.0157   50.5256 H   0  0  0  0  0  0  0  0  0  0  0  0
   -1.2610   44.1283   54.5123 H   0  0  0  0  0  0  0  0  0  0  0  0
   -0.2030   45.1645   53.4327 H   0  0  0  0  0  0  0  0  0  0  0  0
   -2.5975   45.9586   53.8791 H   0  0  0  0  0  0  0  0  0  0  0  0
   -2.1760   47.0640   52.2170 H   0  0  0  0  0  0  0  0  0  0  0  0
   -3.8179   43.8874   53.5805 H   0  0  0  0  0  0  0  0  0  0  0  0
   -4.2539   44.9691   52.2130 H   0  0  0  0  0  0  0  0  0  0  0  0
   -3.8000   42.6902   51.3941 H   0  0  0  0  0  0  0  0  0  0  0  0
   -2.5408   43.8443   50.8031 H   0  0  0  0  0  0  0  0  0  0  0  0
    7.3973   45.4345   49.9542 H   0  0  0  0  0  0  0  0  0  0  0  0
    9.5646   46.0381   51.0378 H   0  0  0  0  0  0  0  0  0  0  0  0
  1  2  1  0
  2  3  2  0
  3  4  1  0
  4  5  2  0
  5  6  1  0
  6  7  1  0
  7  8  1  0
  8  9  2  0
  8 10  1  0
 10 11  1  0
 11 12  1  0
 12 13  1  0
 13 14  1  0
 14 15  1  0
 13 16  1  0
 16 17  1  0
 17 18  1  0
 17 19  1  0
 19 20  1  0
 20 21  1  0
  5 22  1  0
 22 23  2  0
 23  2  1  0
 15 10  1  0
 21 13  1  0
  1 24  1  0
  1 25  1  0
  1 26  1  0
  3 27  1  0
  4 28  1  0
  7 29  1  0
  7 30  1  0
 11 31  1  0
 11 32  1  0
 12 33  1  0
 12 34  1  0
 14 35  1  0
 14 36  1  0
 15 37  1  0
 15 38  1  0
 16 39  1  0
 16 40  1  0
 17 41  1  1
 18 42  1  0
 19 43  1  0
 19 44  1  0
 20 45  1  0
 20 46  1  0
 22 47  1  0
 23 48  1  0
M  END
>  <meeko>  (4) 
{"is_sidechain": [false], "free_energy": -7.98, "intermolecular_energy": -9.518, "internal_energy": -0.27}

$$$$
ligand_82_conformer_4_docked
     RDKit          3D

 48 50  0  0  0  0  0  0  0  0999 V2000
    8.0500   43.8550   48.9830 C   0  0  0  0  0  0  0  0  0  0  0  0
    7.4120   44.6430   50.0880 C   0  0  0  0  0  0  0  0  0  0  0  0
    8.1080   45.6990   50.7000 C   0  0  0  0  0  0  0  0  0  0  0  0
    7.4880   46.4700   51.6860 C   0  0  0  0  0  0  0  0  0  0  0  0
    6.1680   46.2020   52.0630 C   0  0  0  0  0  0  0  0  0  0  0  0
    5.3680   47.2160   53.3090 S   0  0  0  0  0  0  0  0  0  0  0  0
    3.6620   46.8530   52.7610 C   0  0  0  0  0  0  0  0  0  0  0  0
    2.9120   46.0570   53.7980 C   0  0  0  0  0  0  0  0  0  0  0  0
    3.3010   46.1370   54.9960 O   0  0  0  0  0  0  0  0  0  0  0  0
    1.8150   45.1740   53.4690 N   0  0  0  0  0  0  0  0  0  0  0  0
    1.5890   44.0130   54.3410 C   0  0  0  0  0  0  0  0  0  0  0  0
    0.4650   43.1140   53.8150 C   0  0  0  0  0  0  0  0  0  0  0  0
   -0.8070   43.9170   53.4480 C   0  0  0  0  0  0  0  0  0  0  0  0
   -0.4360   45.0210   52.3950 C   0  0  0  0  0  0  0  0  0  0  0  0
    1.0720   45.2820   52.2040 C   0  0  0  0  0  0  0  0  0  0  0  0
   -1.3930   44.5390   54.7650 C   0  0  0  0  0  0  0  0  0  0  0  0
   -2.8720   44.9510   54.6650 C   0  0  1  0  0  0  0  0  0  0  0  0
   -3.0160   46.1560   53.9600 O   0  0  0  0  0  0  0  0  0  0  0  0
   -3.6760   43.8550   53.9760 C   0  0  0  0  0  0  0  0  0  0  0  0
   -3.0070   43.4800   52.6590 C   0  0  0  0  0  0  0  0  0  0  0  0
   -1.7060   42.9630   52.8810 O   0  0  0  0  0  0  0  0  0  0  0  0
    5.4730   45.1450   51.4640 C   0  0  0  0  0  0  0  0  0  0  0  0
    6.0880   44.3760   50.4700 C   0  0  0  0  0  0  0  0  0  0  0  0
    8.6868   43.0684   49.4140 H   0  0  0  0  0  0  0  0  0  0  0  0
    7.2675   43.3941   48.3623 H   0  0  0  0  0  0  0  0  0  0  0  0
    8.6636   44.5244   48.3623 H   0  0  0  0  0  0  0  0  0  0  0  0
    9.1437   45.9191   50.4019 H   0  0  0  0  0  0  0  0  0  0  0  0
    8.0397   47.2907   52.1676 H   0  0  0  0  0  0  0  0  0  0  0  0
    3.1327   47.8011   52.5850 H   0  0  0  0  0  0  0  0  0  0  0  0
    3.7130   46.2587   51.8368 H   0  0  0  0  0  0  0  0  0  0  0  0
    2.5171   43.4253   54.3985 H   0  0  0  0  0  0  0  0  0  0  0  0
    1.2928   44.3842   55.3332 H   0  0  0  0  0  0  0  0  0  0  0  0
    0.8230   42.5888   52.9172 H   0  0  0  0  0  0  0  0  0  0  0  0
    0.1977   42.4071   54.6143 H   0  0  0  0  0  0  0  0  0  0  0  0
   -0.8519   44.7152   51.4237 H   0  0  0  0  0  0  0  0  0  0  0  0
   -0.8563   45.9602   52.7839 H   0  0  0  0  0  0  0  0  0  0  0  0
    1.4727   44.5446   51.4928 H   0  0  0  0  0  0  0  0  0  0  0  0
    1.1938   46.3075   51.8252 H   0  0  0  0  0  0  0  0  0  0  0  0
   -1.2957   43.7960   55.5703 H   0  0  0  0  0  0  0  0  0  0  0  0
   -0.8217   45.4583   54.9615 H   0  0  0  0  0  0  0  0  0  0  0  0
   -3.2523   45.0985   55.6866 H   0  0  0  0  0  0  0  0  0  0  0  0
   -3.9850   46.3710   53.9560 H   0  0  0  0  0  0  0  0  0  0  0  0
   -3.7221   42.9702   54.6279 H   0  0  0  0  0  0  0  0  0  0  0  0
   -4.6945   44.2198   53.7770 H   0  0  0  0  0  0  0  0  0  0  0  0
   -3.6154   42.7176   52.1504 H   0  0  0  0  0  0  0  0  0  0  0  0
   -2.9244   44.3837   52.0373 H   0  0  0  0  0  0  0  0  0  0  0  0
    4.4424   44.9187   51.7750 H   0  0  0  0  0  0  0  0  0  0  0  0
    5.5320   43.5594   49.9862 H   0  0  0  0  0  0  0  0  0  0  0  0
  1  2  1  0
  2  3  2  0
  3  4  1  0
  4  5  2  0
  5  6  1  0
  6  7  1  0
  7  8  1  0
  8  9  2  0
  8 10  1  0
 10 11  1  0
 11 12  1  0
 12 13  1  0
 13 14  1  0
 14 15  1  0
 13 16  1  0
 16 17  1  0
 17 18  1  0
 17 19  1  0
 19 20  1  0
 20 21  1  0
  5 22  1  0
 22 23  2  0
 23  2  1  0
 15 10  1  0
 21 13  1  0
  1 24  1  0
  1 25  1  0
  1 26  1  0
  3 27  1  0
  4 28  1  0
  7 29  1  0
  7 30  1  0
 11 31  1  0
 11 32  1  0
 12 33  1  0
 12 34  1  0
 14 35  1  0
 14 36  1  0
 15 37  1  0
 15 38  1  0
 16 39  1  0
 16 40  1  0
 17 41  1  1
 18 42  1  0
 19 43  1  0
 19 44  1  0
 20 45  1  0
 20 46  1  0
 22 47  1  0
 23 48  1  0
M  END
>  <meeko>  (5) 
{"is_sidechain": [false], "free_energy": -7.742, "intermolecular_energy": -9.244, "internal_energy": -0.257}

$$$$
