MODEL 1
REMARK VINA RESULT:    -9.564      0.000      0.000
REMARK INTER + INTRA:         -12.842
REMARK INTER:                 -12.080
REMARK INTRA:                  -0.762
REMARK UNBOUND:                -0.762
REMARK SMILES Cc1c[nH]c2ncc(C(=O)N[C@H]3[C@@H]4CN(C(=O)c5ccc6nc(N)n(C)c6c5)C[C@@H]43)cc12
REMARK SMILES IDX 12 1 13 2 14 3 15 4 29 5 30 6 11 7 9 8 10 9 8 11 2 12 3 13
REMARK SMILES IDX 32 14 4 15 31 16 5 17 6 18 7 19 1 20 16 22 17 23 18 24 19 25
REMARK SMILES IDX 28 26 20 27 27 28 21 29 25 30 22 31 23 32 26 33 24 34
REMARK H PARENT 11 10 4 21 24 35 24 36
ROOT
ATOM      1  C   UNL     1       2.713  44.360  53.363  1.00  0.00     0.093 C 
ATOM      2  C   UNL     1       1.825  44.390  52.125  1.00  0.00     0.038 C 
ATOM      3  C   UNL     1       0.371  44.769  52.367  1.00  0.00     0.126 C 
ATOM      4  N   UNL     1      -0.193  43.714  53.196  1.00  0.00    -0.338 N 
ATOM      5  C   UNL     1       0.769  42.668  53.515  1.00  0.00     0.126 C 
ATOM      6  C   UNL     1       2.075  43.075  52.853  1.00  0.00     0.038 C 
ENDROOT
BRANCH   1   7
ATOM      7  N   UNL     1       4.140  44.440  53.069  1.00  0.00    -0.349 N 
ATOM      8  C   UNL     1       4.738  45.677  52.654  1.00  0.00     0.253 C 
ATOM      9  O   UNL     1       4.053  46.737  52.685  1.00  0.00    -0.269 OA
ATOM     10  H   UNL     1       4.727  43.583  53.193  1.00  0.00     0.164 HD
BRANCH   8  11
ATOM     11  C   UNL     1       6.148  45.738  52.197  1.00  0.00     0.058 A 
ATOM     12  C   UNL     1       9.666  46.679  53.076  1.00  0.00    -0.024 A 
ATOM     13  C   UNL     1      10.632  46.407  52.110  1.00  0.00     0.088 A 
ATOM     14  C   UNL     1       8.467  46.268  52.530  1.00  0.00     0.022 A 
ATOM     15  N   UNL     1      10.061  45.866  51.008  1.00  0.00    -0.346 N 
ATOM     16  C   UNL     1       7.170  46.253  53.031  1.00  0.00     0.027 A 
ATOM     17  C   UNL     1       8.749  45.790  51.283  1.00  0.00     0.137 A 
ATOM     18  N   UNL     1       7.792  45.281  50.471  1.00  0.00    -0.238 NA
ATOM     19  C   UNL     1       6.499  45.248  50.909  1.00  0.00     0.127 A 
ATOM     20  C   UNL     1       9.901  47.202  54.456  1.00  0.00     0.047 C 
ATOM     21  H   UNL     1      10.544  45.556  50.136  1.00  0.00     0.167 HD
ENDBRANCH   8  11
ENDBRANCH   1   7
BRANCH   4  22
ATOM     22  C   UNL     1      -1.480  43.831  53.828  1.00  0.00     0.253 C 
ATOM     23  O   UNL     1      -2.416  43.057  53.486  1.00  0.00    -0.269 OA
BRANCH  22  24
ATOM     24  C   UNL     1      -1.741  44.853  54.860  1.00  0.00     0.042 A 
ATOM     25  C   UNL     1      -3.024  45.453  54.949  1.00  0.00     0.016 A 
ATOM     26  C   UNL     1      -0.732  45.213  55.782  1.00  0.00     0.042 A 
ATOM     27  C   UNL     1      -3.292  46.428  55.926  1.00  0.00     0.031 A 
ATOM     28  C   UNL     1      -1.037  46.180  56.742  1.00  0.00     0.070 A 
ATOM     29  C   UNL     1      -2.269  46.768  56.804  1.00  0.00     0.091 A 
ATOM     30  N   UNL     1      -0.262  46.695  57.713  1.00  0.00    -0.314 N 
ATOM     31  N   UNL     1      -2.313  47.677  57.796  1.00  0.00    -0.213 NA
ATOM     32  C   UNL     1      -1.064  47.604  58.324  1.00  0.00     0.200 A 
ATOM     33  C   UNL     1       1.142  46.410  58.015  1.00  0.00     0.153 C 
BRANCH  32  34
ATOM     34  N   UNL     1      -0.645  48.429  59.413  1.00  0.00    -0.369 N 
ATOM     35  H   UNL     1      -0.341  49.411  59.234  1.00  0.00     0.159 HD
ATOM     36  H   UNL     1      -0.634  48.068  60.391  1.00  0.00     0.159 HD
ENDBRANCH  32  34
ENDBRANCH  22  24
ENDBRANCH   4  22
TORSDOF 5
ENDMDL
MODEL 2
REMARK VINA RESULT:    -9.233      2.695     10.237
REMARK INTER + INTRA:         -12.425
REMARK INTER:                 -11.625
REMARK INTRA:                  -0.800
REMARK UNBOUND:                -0.762
REMARK SMILES Cc1c[nH]c2ncc(C(=O)N[C@H]3[C@@H]4CN(C(=O)c5ccc6nc(N)n(C)c6c5)C[C@@H]43)cc12
REMARK SMILES IDX 12 1 13 2 14 3 15 4 29 5 30 6 11 7 9 8 10 9 8 11 2 12 3 13
REMARK SMILES IDX 32 14 4 15 31 16 5 17 6 18 7 19 1 20 16 22 17 23 18 24 19 25
REMARK SMILES IDX 28 26 20 27 27 28 21 29 25 30 22 31 23 32 26 33 24 34
REMARK H PARENT 11 10 4 21 24 35 24 36
ROOT
ATOM      1  C   UNL     1       3.236  45.438  54.502  1.00  0.00     0.093 C 
ATOM      2  C   UNL     1       3.513  46.935  54.554  1.00  0.00     0.038 C 
ATOM      3  C   UNL     1       4.444  47.470  53.476  1.00  0.00     0.126 C 
ATOM      4  N   UNL     1       5.739  46.850  53.710  1.00  0.00    -0.338 N 
ATOM      5  C   UNL     1       5.739  45.955  54.859  1.00  0.00     0.126 C 
ATOM      6  C   UNL     1       4.326  45.978  55.418  1.00  0.00     0.038 C 
ENDROOT
BRANCH   1   7
ATOM      7  N   UNL     1       2.036  45.034  55.228  1.00  0.00    -0.349 N 
ATOM      8  C   UNL     1       0.748  45.054  54.593  1.00  0.00     0.253 C 
ATOM      9  O   UNL     1       0.673  45.283  53.354  1.00  0.00    -0.269 OA
ATOM     10  H   UNL     1       2.134  44.702  56.215  1.00  0.00     0.164 HD
BRANCH   8  11
ATOM     11  C   UNL     1      -0.496  44.804  55.360  1.00  0.00     0.058 A 
ATOM     12  C   UNL     1      -2.808  46.050  58.032  1.00  0.00    -0.024 A 
ATOM     13  C   UNL     1      -3.947  45.282  58.263  1.00  0.00     0.088 A 
ATOM     14  C   UNL     1      -2.114  45.396  57.034  1.00  0.00     0.022 A 
ATOM     15  N   UNL     1      -3.956  44.193  57.458  1.00  0.00    -0.346 N 
ATOM     16  C   UNL     1      -0.933  45.699  56.366  1.00  0.00     0.027 A 
ATOM     17  C   UNL     1      -2.837  44.282  56.721  1.00  0.00     0.137 A 
ATOM     18  N   UNL     1      -2.448  43.417  55.754  1.00  0.00    -0.238 NA
ATOM     19  C   UNL     1      -1.291  43.661  55.071  1.00  0.00     0.127 A 
ATOM     20  C   UNL     1      -2.472  47.365  58.658  1.00  0.00     0.047 C 
ATOM     21  H   UNL     1      -4.689  43.452  57.409  1.00  0.00     0.167 HD
ENDBRANCH   8  11
ENDBRANCH   1   7
BRANCH   4  22
ATOM     22  C   UNL     1       6.817  46.925  52.760  1.00  0.00     0.253 C 
ATOM     23  O   UNL     1       7.637  47.882  52.823  1.00  0.00    -0.269 OA
BRANCH  22  24
ATOM     24  C   UNL     1       6.979  45.916  51.696  1.00  0.00     0.042 A 
ATOM     25  C   UNL     1       8.089  45.990  50.818  1.00  0.00     0.016 A 
ATOM     26  C   UNL     1       6.052  44.856  51.570  1.00  0.00     0.042 A 
ATOM     27  C   UNL     1       8.260  45.037  49.798  1.00  0.00     0.031 A 
ATOM     28  C   UNL     1       6.258  43.925  50.550  1.00  0.00     0.070 A 
ATOM     29  C   UNL     1       7.319  44.019  49.694  1.00  0.00     0.091 A 
ATOM     30  N   UNL     1       5.528  42.844  50.218  1.00  0.00    -0.314 N 
ATOM     31  N   UNL     1       7.292  43.022  48.791  1.00  0.00    -0.213 NA
ATOM     32  C   UNL     1       6.179  42.329  49.144  1.00  0.00     0.200 A 
ATOM     33  C   UNL     1       4.283  42.360  50.815  1.00  0.00     0.153 C 
BRANCH  32  34
ATOM     34  N   UNL     1       5.737  41.174  48.427  1.00  0.00    -0.369 N 
ATOM     35  H   UNL     1       5.700  41.191  47.385  1.00  0.00     0.159 HD
ATOM     36  H   UNL     1       5.447  40.306  48.927  1.00  0.00     0.159 HD
ENDBRANCH  32  34
ENDBRANCH  22  24
ENDBRANCH   4  22
TORSDOF 5
ENDMDL
MODEL 3
REMARK VINA RESULT:    -9.016      2.120      9.535
REMARK INTER + INTRA:         -12.150
REMARK INTER:                 -11.356
REMARK INTRA:                  -0.794
REMARK UNBOUND:                -0.762
REMARK SMILES Cc1c[nH]c2ncc(C(=O)N[C@H]3[C@@H]4CN(C(=O)c5ccc6nc(N)n(C)c6c5)C[C@@H]43)cc12
REMARK SMILES IDX 12 1 13 2 14 3 15 4 29 5 30 6 11 7 9 8 10 9 8 11 2 12 3 13
REMARK SMILES IDX 32 14 4 15 31 16 5 17 6 18 7 19 1 20 16 22 17 23 18 24 19 25
REMARK SMILES IDX 28 26 20 27 27 28 21 29 25 30 22 31 23 32 26 33 24 34
REMARK H PARENT 11 10 4 21 24 35 24 36
ROOT
ATOM      1  C   UNL     1       1.563  44.982  53.579  1.00  0.00     0.093 C 
ATOM      2  C   UNL     1       1.271  43.560  53.117  1.00  0.00     0.038 C 
ATOM      3  C   UNL     1       2.484  42.743  52.696  1.00  0.00     0.126 C 
ATOM      4  N   UNL     1       3.033  43.403  51.522  1.00  0.00    -0.338 N 
ATOM      5  C   UNL     1       2.279  44.586  51.131  1.00  0.00     0.126 C 
ATOM      6  C   UNL     1       1.148  44.722  52.138  1.00  0.00     0.038 C 
ENDROOT
BRANCH   1   7
ATOM      7  N   UNL     1       0.496  45.575  54.378  1.00  0.00    -0.349 N 
ATOM      8  C   UNL     1       0.401  45.320  55.788  1.00  0.00     0.253 C 
ATOM      9  O   UNL     1       1.333  44.697  56.367  1.00  0.00    -0.269 OA
ATOM     10  H   UNL     1      -0.186  46.215  53.909  1.00  0.00     0.164 HD
BRANCH   8  11
ATOM     11  C   UNL     1      -0.765  45.781  56.580  1.00  0.00     0.058 A 
ATOM     12  C   UNL     1      -1.990  48.106  59.249  1.00  0.00    -0.024 A 
ATOM     13  C   UNL     1      -3.357  48.065  59.517  1.00  0.00     0.088 A 
ATOM     14  C   UNL     1      -1.777  47.169  58.260  1.00  0.00     0.022 A 
ATOM     15  N   UNL     1      -3.964  47.134  58.744  1.00  0.00    -0.346 N 
ATOM     16  C   UNL     1      -0.633  46.788  57.566  1.00  0.00     0.027 A 
ATOM     17  C   UNL     1      -2.988  46.603  57.989  1.00  0.00     0.137 A 
ATOM     18  N   UNL     1      -3.144  45.648  57.041  1.00  0.00    -0.238 NA
ATOM     19  C   UNL     1      -2.053  45.229  56.334  1.00  0.00     0.127 A 
ATOM     20  C   UNL     1      -0.991  49.052  59.833  1.00  0.00     0.047 C 
ATOM     21  H   UNL     1      -4.980  46.894  58.726  1.00  0.00     0.167 HD
ENDBRANCH   8  11
ENDBRANCH   1   7
BRANCH   4  22
ATOM     22  C   UNL     1       4.319  43.062  50.972  1.00  0.00     0.253 C 
ATOM     23  O   UNL     1       4.476  41.951  50.395  1.00  0.00    -0.269 OA
BRANCH  22  24
ATOM     24  C   UNL     1       5.471  43.977  51.084  1.00  0.00     0.042 A 
ATOM     25  C   UNL     1       6.385  44.094  50.005  1.00  0.00     0.016 A 
ATOM     26  C   UNL     1       5.651  44.763  52.245  1.00  0.00     0.042 A 
ATOM     27  C   UNL     1       7.488  44.961  50.092  1.00  0.00     0.031 A 
ATOM     28  C   UNL     1       6.755  45.617  52.293  1.00  0.00     0.070 A 
ATOM     29  C   UNL     1       7.641  45.705  51.257  1.00  0.00     0.091 A 
ATOM     30  N   UNL     1       7.148  46.451  53.272  1.00  0.00    -0.314 N 
ATOM     31  N   UNL     1       8.625  46.577  51.546  1.00  0.00    -0.213 NA
ATOM     32  C   UNL     1       8.288  47.008  52.788  1.00  0.00     0.200 A 
ATOM     33  C   UNL     1       6.545  46.671  54.587  1.00  0.00     0.153 C 
BRANCH  32  34
ATOM     34  N   UNL     1       9.083  47.948  53.514  1.00  0.00    -0.369 N 
ATOM     35  H   UNL     1       8.723  48.355  54.405  1.00  0.00     0.159 HD
ATOM     36  H   UNL     1      10.023  48.240  53.170  1.00  0.00     0.159 HD
ENDBRANCH  32  34
ENDBRANCH  22  24
ENDBRANCH   4  22
TORSDOF 5
ENDMDL
MODEL 4
REMARK VINA RESULT:    -8.831      2.272      9.758
REMARK INTER + INTRA:         -11.917
REMARK INTER:                 -11.337
REMARK INTRA:                  -0.580
REMARK UNBOUND:                -0.762
REMARK SMILES Cc1c[nH]c2ncc(C(=O)N[C@H]3[C@@H]4CN(C(=O)c5ccc6nc(N)n(C)c6c5)C[C@@H]43)cc12
REMARK SMILES IDX 12 1 13 2 14 3 15 4 29 5 30 6 11 7 9 8 10 9 8 11 2 12 3 13
REMARK SMILES IDX 32 14 4 15 31 16 5 17 6 18 7 19 1 20 16 22 17 23 18 24 19 25
REMARK SMILES IDX 28 26 20 27 27 28 21 29 25 30 22 31 23 32 26 33 24 34
REMARK H PARENT 11 10 4 21 24 35 24 36
ROOT
ATOM      1  C   UNL     1       3.725  44.157  52.572  1.00  0.00     0.093 C 
ATOM      2  C   UNL     1       3.818  43.274  51.333  1.00  0.00     0.038 C 
ATOM      3  C   UNL     1       5.226  43.002  50.823  1.00  0.00     0.126 C 
ATOM      4  N   UNL     1       5.761  44.287  50.398  1.00  0.00    -0.338 N 
ATOM      5  C   UNL     1       4.819  45.382  50.581  1.00  0.00     0.126 C 
ATOM      6  C   UNL     1       3.566  44.770  51.188  1.00  0.00     0.038 C 
ENDROOT
BRANCH   1   7
ATOM      7  N   UNL     1       2.459  44.038  53.287  1.00  0.00    -0.349 N 
ATOM      8  C   UNL     1       1.991  45.097  54.137  1.00  0.00     0.253 C 
ATOM      9  O   UNL     1       2.608  46.197  54.151  1.00  0.00    -0.269 OA
ATOM     10  H   UNL     1       1.882  43.177  53.147  1.00  0.00     0.164 HD
BRANCH   8  11
ATOM     11  C   UNL     1       0.792  44.927  54.994  1.00  0.00     0.058 A 
ATOM     12  C   UNL     1      -2.865  44.123  55.104  1.00  0.00    -0.024 A 
ATOM     13  C   UNL     1      -3.445  44.081  56.369  1.00  0.00     0.088 A 
ATOM     14  C   UNL     1      -1.540  44.447  55.312  1.00  0.00     0.022 A 
ATOM     15  N   UNL     1      -2.529  44.380  57.321  1.00  0.00    -0.346 N 
ATOM     16  C   UNL     1      -0.468  44.597  54.439  1.00  0.00     0.027 A 
ATOM     17  C   UNL     1      -1.382  44.599  56.658  1.00  0.00     0.137 A 
ATOM     18  N   UNL     1      -0.185  44.901  57.215  1.00  0.00    -0.238 NA
ATOM     19  C   UNL     1       0.902  45.067  56.405  1.00  0.00     0.127 A 
ATOM     20  C   UNL     1      -3.520  43.775  53.806  1.00  0.00     0.047 C 
ATOM     21  H   UNL     1      -2.681  44.416  58.353  1.00  0.00     0.167 HD
ENDBRANCH   8  11
ENDBRANCH   1   7
BRANCH   4  22
ATOM     22  C   UNL     1       7.150  44.478  50.073  1.00  0.00     0.253 C 
ATOM     23  O   UNL     1       7.606  44.016  48.991  1.00  0.00    -0.269 OA
BRANCH  22  24
ATOM     24  C   UNL     1       8.064  45.188  50.987  1.00  0.00     0.042 A 
ATOM     25  C   UNL     1       9.449  45.250  50.690  1.00  0.00     0.016 A 
ATOM     26  C   UNL     1       7.562  45.836  52.139  1.00  0.00     0.042 A 
ATOM     27  C   UNL     1      10.336  45.923  51.549  1.00  0.00     0.031 A 
ATOM     28  C   UNL     1       8.472  46.499  52.965  1.00  0.00     0.070 A 
ATOM     29  C   UNL     1       9.808  46.534  52.681  1.00  0.00     0.091 A 
ATOM     30  N   UNL     1       8.254  47.177  54.107  1.00  0.00    -0.314 N 
ATOM     31  N   UNL     1      10.479  47.213  53.630  1.00  0.00    -0.213 NA
ATOM     32  C   UNL     1       9.492  47.586  54.485  1.00  0.00     0.200 A 
ATOM     33  C   UNL     1       6.997  47.378  54.828  1.00  0.00     0.153 C 
BRANCH  32  34
ATOM     34  N   UNL     1       9.753  48.326  55.679  1.00  0.00    -0.369 N 
ATOM     35  H   UNL     1       8.962  48.615  56.295  1.00  0.00     0.159 HD
ATOM     36  H   UNL     1      10.725  48.587  55.951  1.00  0.00     0.159 HD
ENDBRANCH  32  34
ENDBRANCH  22  24
ENDBRANCH   4  22
TORSDOF 5
ENDMDL
MODEL 5
REMARK VINA RESULT:    -8.761      6.413     10.199
REMARK INTER + INTRA:         -11.828
REMARK INTER:                 -11.257
REMARK INTRA:                  -0.571
REMARK UNBOUND:                -0.762
REMARK SMILES Cc1c[nH]c2ncc(C(=O)N[C@H]3[C@@H]4CN(C(=O)c5ccc6nc(N)n(C)c6c5)C[C@@H]43)cc12
REMARK SMILES IDX 12 1 13 2 14 3 15 4 29 5 30 6 11 7 9 8 10 9 8 11 2 12 3 13
REMARK SMILES IDX 32 14 4 15 31 16 5 17 6 18 7 19 1 20 16 22 17 23 18 24 19 25
REMARK SMILES IDX 28 26 20 27 27 28 21 29 25 30 22 31 23 32 26 33 24 34
REMARK H PARENT 11 10 4 21 24 35 24 36
ROOT
ATOM      1  C   UNL     1       3.922  41.291  48.884  1.00  0.00     0.093 C 
ATOM      2  C   UNL     1       4.074  41.158  50.394  1.00  0.00     0.038 C 
ATOM      3  C   UNL     1       3.710  42.394  51.204  1.00  0.00     0.126 C 
ATOM      4  N   UNL     1       4.669  43.422  50.830  1.00  0.00    -0.338 N 
ATOM      5  C   UNL     1       5.638  42.964  49.845  1.00  0.00     0.126 C 
ATOM      6  C   UNL     1       5.279  41.519  49.535  1.00  0.00     0.038 C 
ENDROOT
BRANCH   1   7
ATOM      7  N   UNL     1       3.838  40.014  48.183  1.00  0.00    -0.349 N 
ATOM      8  C   UNL     1       3.111  39.896  46.951  1.00  0.00     0.253 C 
ATOM      9  O   UNL     1       2.665  40.937  46.394  1.00  0.00    -0.269 OA
ATOM     10  H   UNL     1       4.342  39.189  48.582  1.00  0.00     0.164 HD
BRANCH   8  11
ATOM     11  C   UNL     1       2.880  38.577  46.313  1.00  0.00     0.058 A 
ATOM     12  C   UNL     1       0.965  35.359  46.427  1.00  0.00    -0.024 A 
ATOM     13  C   UNL     1       1.216  34.460  45.393  1.00  0.00     0.088 A 
ATOM     14  C   UNL     1       1.783  36.444  46.185  1.00  0.00     0.022 A 
ATOM     15  N   UNL     1       2.157  34.954  44.554  1.00  0.00    -0.346 N 
ATOM     16  C   UNL     1       1.947  37.656  46.847  1.00  0.00     0.027 A 
ATOM     17  C   UNL     1       2.487  36.157  45.051  1.00  0.00     0.137 A 
ATOM     18  N   UNL     1       3.376  37.026  44.514  1.00  0.00    -0.238 NA
ATOM     19  C   UNL     1       3.582  38.229  45.127  1.00  0.00     0.127 A 
ATOM     20  C   UNL     1      -0.059  35.219  47.506  1.00  0.00     0.047 C 
ATOM     21  H   UNL     1       2.533  34.501  43.691  1.00  0.00     0.167 HD
ENDBRANCH   8  11
ENDBRANCH   1   7
BRANCH   4  22
ATOM     22  C   UNL     1       4.511  44.802  51.209  1.00  0.00     0.253 C 
ATOM     23  O   UNL     1       3.626  45.505  50.649  1.00  0.00    -0.269 OA
BRANCH  22  24
ATOM     24  C   UNL     1       5.376  45.424  52.229  1.00  0.00     0.042 A 
ATOM     25  C   UNL     1       4.819  45.849  53.462  1.00  0.00     0.016 A 
ATOM     26  C   UNL     1       6.763  45.567  51.999  1.00  0.00     0.042 A 
ATOM     27  C   UNL     1       5.627  46.443  54.447  1.00  0.00     0.031 A 
ATOM     28  C   UNL     1       7.536  46.156  53.002  1.00  0.00     0.070 A 
ATOM     29  C   UNL     1       6.985  46.583  54.177  1.00  0.00     0.091 A 
ATOM     30  N   UNL     1       8.857  46.409  53.026  1.00  0.00    -0.314 N 
ATOM     31  N   UNL     1       7.923  47.130  54.972  1.00  0.00    -0.213 NA
ATOM     32  C   UNL     1       9.053  47.008  54.230  1.00  0.00     0.200 A 
ATOM     33  C   UNL     1       9.856  46.171  51.984  1.00  0.00     0.153 C 
BRANCH  32  34
ATOM     34  N   UNL     1      10.321  47.487  54.682  1.00  0.00    -0.369 N 
ATOM     35  H   UNL     1      10.470  47.687  55.695  1.00  0.00     0.159 HD
ATOM     36  H   UNL     1      11.108  47.642  54.016  1.00  0.00     0.159 HD
ENDBRANCH  32  34
ENDBRANCH  22  24
ENDBRANCH   4  22
TORSDOF 5
ENDMDL
