MODEL 1
REMARK VINA RESULT:    -9.008      0.000      0.000
REMARK INTER + INTRA:         -12.970
REMARK INTER:                 -12.168
REMARK INTRA:                  -0.802
REMARK UNBOUND:                -0.802
REMARK SMILES O=C(Nc1cccc(OC(F)F)c1)c1cccc(Nc2ncccn2)c1
REMARK SMILES IDX 4 1 5 2 6 3 7 4 8 5 13 6 3 7 1 8 2 9 14 11 15 12 26 13 16 14
REMARK SMILES IDX 18 15 17 16 19 17 20 19 21 20 25 21 22 22 24 23 23 24 9 25
REMARK SMILES IDX 10 26 11 27 12 28
REMARK H PARENT 3 10 19 18
ROOT
ATOM      1  C   UNL     1       6.981  46.428  52.701  1.00  0.00     0.045 A 
ATOM      2  C   UNL     1       7.559  46.997  51.553  1.00  0.00     0.026 A 
ATOM      3  C   UNL     1       8.902  47.380  51.557  1.00  0.00     0.006 A 
ATOM      4  C   UNL     1       9.676  47.212  52.707  1.00  0.00     0.047 A 
ATOM      5  C   UNL     1       9.115  46.668  53.867  1.00  0.00     0.128 A 
ATOM      6  C   UNL     1       7.760  46.282  53.860  1.00  0.00     0.072 A 
ENDROOT
BRANCH   1   7
ATOM      7  N   UNL     1       5.593  46.047  52.729  1.00  0.00    -0.322 N 
ATOM      8  O   UNL     1       4.774  47.983  53.746  1.00  0.00    -0.269 OA
ATOM      9  C   UNL     1       4.582  46.772  53.449  1.00  0.00     0.255 C 
ATOM     10  H   UNL     1       5.287  45.270  52.101  1.00  0.00     0.170 HD
BRANCH   9  11
ATOM     11  C   UNL     1       3.292  46.129  53.801  1.00  0.00     0.042 A 
ATOM     12  C   UNL     1       2.421  45.661  52.802  1.00  0.00     0.014 A 
ATOM     13  C   UNL     1       2.931  45.959  55.151  1.00  0.00     0.040 A 
ATOM     14  C   UNL     1       1.208  45.060  53.144  1.00  0.00     0.003 A 
ATOM     15  C   UNL     1       1.725  45.334  55.501  1.00  0.00     0.042 A 
ATOM     16  C   UNL     1       0.854  44.905  54.486  1.00  0.00     0.026 A 
BRANCH  15  17
ATOM     17  N   UNL     1       1.373  45.206  56.889  1.00  0.00    -0.324 N 
ATOM     18  H   UNL     1       1.567  44.294  57.364  1.00  0.00     0.170 HD
BRANCH  17  19
ATOM     19  C   UNL     1       0.672  46.207  57.640  1.00  0.00     0.227 A 
ATOM     20  N   UNL     1       1.248  46.736  58.753  1.00  0.00    -0.221 NA
ATOM     21  N   UNL     1      -0.583  46.597  57.282  1.00  0.00    -0.221 NA
ATOM     22  C   UNL     1       0.600  47.665  59.505  1.00  0.00     0.117 A 
ATOM     23  C   UNL     1      -1.263  47.524  58.007  1.00  0.00     0.117 A 
ATOM     24  C   UNL     1      -0.679  48.083  59.142  1.00  0.00     0.040 A 
ENDBRANCH  17  19
ENDBRANCH  15  17
ENDBRANCH   9  11
ENDBRANCH   1   7
BRANCH   5  25
ATOM     25  O   UNL     1       9.934  46.529  54.999  1.00  0.00    -0.435 OA
BRANCH  25  26
ATOM     26  C   UNL     1      10.654  47.592  55.616  1.00  0.00     0.542 C 
ATOM     27  F   UNL     1       9.775  48.612  55.923  1.00  0.00    -0.167 F 
ATOM     28  F   UNL     1      11.249  47.145  56.782  1.00  0.00    -0.167 F 
ENDBRANCH  25  26
ENDBRANCH   5  25
TORSDOF 6
ENDMDL
MODEL 2
REMARK VINA RESULT:    -8.792      3.831      8.594
REMARK INTER + INTRA:         -12.679
REMARK INTER:                 -12.072
REMARK INTRA:                  -0.607
REMARK UNBOUND:                -0.802
REMARK SMILES O=C(Nc1cccc(OC(F)F)c1)c1cccc(Nc2ncccn2)c1
REMARK SMILES IDX 4 1 5 2 6 3 7 4 8 5 13 6 3 7 1 8 2 9 14 11 15 12 26 13 16 14
REMARK SMILES IDX 18 15 17 16 19 17 20 19 21 20 25 21 22 22 24 23 23 24 9 25
REMARK SMILES IDX 10 26 11 27 12 28
REMARK H PARENT 3 10 19 18
ROOT
ATOM      1  C   UNL     1       1.388  44.338  54.608  1.00  0.00     0.045 A 
ATOM      2  C   UNL     1       0.191  43.839  54.065  1.00  0.00     0.026 A 
ATOM      3  C   UNL     1      -1.012  43.987  54.758  1.00  0.00     0.006 A 
ATOM      4  C   UNL     1      -1.033  44.620  56.002  1.00  0.00     0.047 A 
ATOM      5  C   UNL     1       0.150  45.104  56.571  1.00  0.00     0.128 A 
ATOM      6  C   UNL     1       1.363  44.953  55.869  1.00  0.00     0.072 A 
ENDROOT
BRANCH   1   7
ATOM      7  N   UNL     1       2.644  44.177  53.925  1.00  0.00    -0.322 N 
ATOM      8  O   UNL     1       2.344  45.874  52.348  1.00  0.00    -0.269 OA
ATOM      9  C   UNL     1       2.966  44.828  52.684  1.00  0.00     0.255 C 
ATOM     10  H   UNL     1       3.402  43.650  54.415  1.00  0.00     0.170 HD
BRANCH   9  11
ATOM     11  C   UNL     1       4.058  44.317  51.819  1.00  0.00     0.042 A 
ATOM     12  C   UNL     1       4.041  42.996  51.341  1.00  0.00     0.014 A 
ATOM     13  C   UNL     1       5.120  45.162  51.446  1.00  0.00     0.040 A 
ATOM     14  C   UNL     1       5.075  42.524  50.529  1.00  0.00     0.003 A 
ATOM     15  C   UNL     1       6.148  44.701  50.611  1.00  0.00     0.042 A 
ATOM     16  C   UNL     1       6.130  43.367  50.173  1.00  0.00     0.026 A 
BRANCH  15  17
ATOM     17  N   UNL     1       7.234  45.582  50.275  1.00  0.00    -0.324 N 
ATOM     18  H   UNL     1       7.422  45.769  49.264  1.00  0.00     0.170 HD
BRANCH  17  19
ATOM     19  C   UNL     1       8.148  46.135  51.232  1.00  0.00     0.227 A 
ATOM     20  N   UNL     1       9.437  45.698  51.258  1.00  0.00    -0.221 NA
ATOM     21  N   UNL     1       7.731  47.053  52.147  1.00  0.00    -0.221 NA
ATOM     22  C   UNL     1      10.323  46.180  52.169  1.00  0.00     0.117 A 
ATOM     23  C   UNL     1       8.587  47.559  53.074  1.00  0.00     0.117 A 
ATOM     24  C   UNL     1       9.913  47.129  53.102  1.00  0.00     0.040 A 
ENDBRANCH  17  19
ENDBRANCH  15  17
ENDBRANCH   9  11
ENDBRANCH   1   7
BRANCH   5  25
ATOM     25  O   UNL     1       0.076  45.724  57.829  1.00  0.00    -0.435 OA
BRANCH  25  26
ATOM     26  C   UNL     1       0.816  46.880  58.209  1.00  0.00     0.542 C 
ATOM     27  F   UNL     1      -0.059  47.845  58.666  1.00  0.00    -0.167 F 
ATOM     28  F   UNL     1       1.703  46.561  59.222  1.00  0.00    -0.167 F 
ENDBRANCH  25  26
ENDBRANCH   5  25
TORSDOF 6
ENDMDL
MODEL 3
REMARK VINA RESULT:    -8.752      1.296      1.608
REMARK INTER + INTRA:         -12.625
REMARK INTER:                 -12.027
REMARK INTRA:                  -0.598
REMARK UNBOUND:                -0.802
REMARK SMILES O=C(Nc1cccc(OC(F)F)c1)c1cccc(Nc2ncccn2)c1
REMARK SMILES IDX 4 1 5 2 6 3 7 4 8 5 13 6 3 7 1 8 2 9 14 11 15 12 26 13 16 14
REMARK SMILES IDX 18 15 17 16 19 17 20 19 21 20 25 21 22 22 24 23 23 24 9 25
REMARK SMILES IDX 10 26 11 27 12 28
REMARK H PARENT 3 10 19 18
ROOT
ATOM      1  C   UNL     1       5.875  45.564  52.208  1.00  0.00     0.045 A 
ATOM      2  C   UNL     1       6.417  45.211  50.960  1.00  0.00     0.026 A 
ATOM      3  C   UNL     1       7.629  45.759  50.537  1.00  0.00     0.006 A 
ATOM      4  C   UNL     1       8.306  46.674  51.347  1.00  0.00     0.047 A 
ATOM      5  C   UNL     1       7.773  47.056  52.583  1.00  0.00     0.128 A 
ATOM      6  C   UNL     1       6.550  46.500  53.007  1.00  0.00     0.072 A 
ENDROOT
BRANCH   1   7
ATOM      7  N   UNL     1       4.616  45.030  52.656  1.00  0.00    -0.322 N 
ATOM      8  O   UNL     1       3.276  46.817  51.974  1.00  0.00    -0.269 OA
ATOM      9  C   UNL     1       3.397  45.791  52.698  1.00  0.00     0.255 C 
ATOM     10  H   UNL     1       4.562  44.005  52.851  1.00  0.00     0.170 HD
BRANCH   9  11
ATOM     11  C   UNL     1       2.259  45.356  53.544  1.00  0.00     0.042 A 
ATOM     12  C   UNL     1       1.133  44.735  52.976  1.00  0.00     0.014 A 
ATOM     13  C   UNL     1       2.301  45.542  54.939  1.00  0.00     0.040 A 
ATOM     14  C   UNL     1       0.066  44.332  53.781  1.00  0.00     0.003 A 
ATOM     15  C   UNL     1       1.242  45.117  55.755  1.00  0.00     0.042 A 
ATOM     16  C   UNL     1       0.113  44.529  55.163  1.00  0.00     0.026 A 
BRANCH  15  17
ATOM     17  N   UNL     1       1.306  45.351  57.172  1.00  0.00    -0.324 N 
ATOM     18  H   UNL     1       1.861  44.685  57.757  1.00  0.00     0.170 HD
BRANCH  17  19
ATOM     19  C   UNL     1       0.566  46.374  57.855  1.00  0.00     0.227 A 
ATOM     20  N   UNL     1       1.034  46.864  59.035  1.00  0.00    -0.221 NA
ATOM     21  N   UNL     1      -0.622  46.822  57.363  1.00  0.00    -0.221 NA
ATOM     22  C   UNL     1       0.345  47.812  59.722  1.00  0.00     0.117 A 
ATOM     23  C   UNL     1      -1.340  47.770  58.021  1.00  0.00     0.117 A 
ATOM     24  C   UNL     1      -0.866  48.290  59.224  1.00  0.00     0.040 A 
ENDBRANCH  17  19
ENDBRANCH  15  17
ENDBRANCH   9  11
ENDBRANCH   1   7
BRANCH   5  25
ATOM     25  O   UNL     1       8.489  47.986  53.354  1.00  0.00    -0.435 OA
BRANCH  25  26
ATOM     26  C   UNL     1       9.149  47.687  54.581  1.00  0.00     0.542 C 
ATOM     27  F   UNL     1      10.456  47.331  54.315  1.00  0.00    -0.167 F 
ATOM     28  F   UNL     1       9.144  48.800  55.403  1.00  0.00    -0.167 F 
ENDBRANCH  25  26
ENDBRANCH   5  25
TORSDOF 6
ENDMDL
MODEL 4
REMARK VINA RESULT:    -8.448      4.460      8.626
REMARK INTER + INTRA:         -12.214
REMARK INTER:                 -11.355
REMARK INTRA:                  -0.859
REMARK UNBOUND:                -0.802
REMARK SMILES O=C(Nc1cccc(OC(F)F)c1)c1cccc(Nc2ncccn2)c1
REMARK SMILES IDX 4 1 5 2 6 3 7 4 8 5 13 6 3 7 1 8 2 9 14 11 15 12 26 13 16 14
REMARK SMILES IDX 18 15 17 16 19 17 20 19 21 20 25 21 22 22 24 23 23 24 9 25
REMARK SMILES IDX 10 26 11 27 12 28
REMARK H PARENT 3 10 19 18
ROOT
ATOM      1  C   UNL     1       1.602  43.684  52.110  1.00  0.00     0.045 A 
ATOM      2  C   UNL     1       0.627  42.683  51.962  1.00  0.00     0.026 A 
ATOM      3  C   UNL     1      -0.460  42.624  52.836  1.00  0.00     0.006 A 
ATOM      4  C   UNL     1      -0.579  43.553  53.872  1.00  0.00     0.047 A 
ATOM      5  C   UNL     1       0.392  44.544  54.051  1.00  0.00     0.128 A 
ATOM      6  C   UNL     1       1.488  44.601  53.167  1.00  0.00     0.072 A 
ENDROOT
BRANCH   1   7
ATOM      7  N   UNL     1       2.745  43.752  51.237  1.00  0.00    -0.322 N 
ATOM      8  O   UNL     1       3.889  41.908  52.101  1.00  0.00    -0.269 OA
ATOM      9  C   UNL     1       3.937  42.971  51.422  1.00  0.00     0.255 C 
ATOM     10  H   UNL     1       2.655  44.312  50.359  1.00  0.00     0.170 HD
BRANCH   9  11
ATOM     11  C   UNL     1       5.214  43.371  50.781  1.00  0.00     0.042 A 
ATOM     12  C   UNL     1       5.874  42.510  49.887  1.00  0.00     0.014 A 
ATOM     13  C   UNL     1       5.774  44.635  51.047  1.00  0.00     0.040 A 
ATOM     14  C   UNL     1       7.077  42.895  49.292  1.00  0.00     0.003 A 
ATOM     15  C   UNL     1       6.970  45.036  50.433  1.00  0.00     0.042 A 
ATOM     16  C   UNL     1       7.630  44.147  49.569  1.00  0.00     0.026 A 
BRANCH  15  17
ATOM     17  N   UNL     1       7.529  46.322  50.751  1.00  0.00    -0.324 N 
ATOM     18  H   UNL     1       7.487  47.071  50.023  1.00  0.00     0.170 HD
BRANCH  17  19
ATOM     19  C   UNL     1       8.242  46.614  51.962  1.00  0.00     0.227 A 
ATOM     20  N   UNL     1       9.600  46.528  51.977  1.00  0.00    -0.221 NA
ATOM     21  N   UNL     1       7.575  46.924  53.107  1.00  0.00    -0.221 NA
ATOM     22  C   UNL     1      10.305  46.770  53.113  1.00  0.00     0.117 A 
ATOM     23  C   UNL     1       8.244  47.173  54.263  1.00  0.00     0.117 A 
ATOM     24  C   UNL     1       9.636  47.102  54.289  1.00  0.00     0.040 A 
ENDBRANCH  17  19
ENDBRANCH  15  17
ENDBRANCH   9  11
ENDBRANCH   1   7
BRANCH   5  25
ATOM     25  O   UNL     1       0.230  45.447  55.114  1.00  0.00    -0.435 OA
BRANCH  25  26
ATOM     26  C   UNL     1       0.791  45.283  56.412  1.00  0.00     0.542 C 
ATOM     27  F   UNL     1      -0.124  44.639  57.221  1.00  0.00    -0.167 F 
ATOM     28  F   UNL     1       1.940  44.516  56.336  1.00  0.00    -0.167 F 
ENDBRANCH  25  26
ENDBRANCH   5  25
TORSDOF 6
ENDMDL
MODEL 5
REMARK VINA RESULT:    -8.234      4.895      9.403
REMARK INTER + INTRA:         -11.925
REMARK INTER:                 -11.137
REMARK INTRA:                  -0.788
REMARK UNBOUND:                -0.802
REMARK SMILES O=C(Nc1cccc(OC(F)F)c1)c1cccc(Nc2ncccn2)c1
REMARK SMILES IDX 4 1 5 2 6 3 7 4 8 5 13 6 3 7 1 8 2 9 14 11 15 12 26 13 16 14
REMARK SMILES IDX 18 15 17 16 19 17 20 19 21 20 25 21 22 22 24 23 23 24 9 25
REMARK SMILES IDX 10 26 11 27 12 28
REMARK H PARENT 3 10 19 18
ROOT
ATOM      1  C   UNL     1       1.308  44.232  54.649  1.00  0.00     0.045 A 
ATOM      2  C   UNL     1       1.218  44.937  55.862  1.00  0.00     0.026 A 
ATOM      3  C   UNL     1      -0.019  45.115  56.483  1.00  0.00     0.006 A 
ATOM      4  C   UNL     1      -1.179  44.604  55.897  1.00  0.00     0.047 A 
ATOM      5  C   UNL     1      -1.115  43.919  54.678  1.00  0.00     0.128 A 
ATOM      6  C   UNL     1       0.135  43.741  54.054  1.00  0.00     0.072 A 
ENDROOT
BRANCH   1   7
ATOM      7  N   UNL     1       2.569  44.055  53.977  1.00  0.00    -0.322 N 
ATOM      8  O   UNL     1       2.354  45.828  52.472  1.00  0.00    -0.269 OA
ATOM      9  C   UNL     1       2.933  44.748  52.771  1.00  0.00     0.255 C 
ATOM     10  H   UNL     1       3.300  43.481  54.454  1.00  0.00     0.170 HD
BRANCH   9  11
ATOM     11  C   UNL     1       4.019  44.236  51.900  1.00  0.00     0.042 A 
ATOM     12  C   UNL     1       4.011  42.907  51.441  1.00  0.00     0.014 A 
ATOM     13  C   UNL     1       5.068  45.086  51.501  1.00  0.00     0.040 A 
ATOM     14  C   UNL     1       5.040  42.434  50.624  1.00  0.00     0.003 A 
ATOM     15  C   UNL     1       6.091  44.623  50.660  1.00  0.00     0.042 A 
ATOM     16  C   UNL     1       6.081  43.283  50.242  1.00  0.00     0.026 A 
BRANCH  15  17
ATOM     17  N   UNL     1       7.163  45.511  50.299  1.00  0.00    -0.324 N 
ATOM     18  H   UNL     1       7.327  45.695  49.283  1.00  0.00     0.170 HD
BRANCH  17  19
ATOM     19  C   UNL     1       8.094  46.073  51.234  1.00  0.00     0.227 A 
ATOM     20  N   UNL     1       9.377  45.620  51.256  1.00  0.00    -0.221 NA
ATOM     21  N   UNL     1       7.698  47.016  52.133  1.00  0.00    -0.221 NA
ATOM     22  C   UNL     1      10.278  46.110  52.148  1.00  0.00     0.117 A 
ATOM     23  C   UNL     1       8.569  47.530  53.040  1.00  0.00     0.117 A 
ATOM     24  C   UNL     1       9.890  47.085  53.064  1.00  0.00     0.040 A 
ENDBRANCH  17  19
ENDBRANCH  15  17
ENDBRANCH   9  11
ENDBRANCH   1   7
BRANCH   5  25
ATOM     25  O   UNL     1      -2.312  43.434  54.127  1.00  0.00    -0.435 OA
BRANCH  25  26
ATOM     26  C   UNL     1      -2.974  43.998  52.999  1.00  0.00     0.542 C 
ATOM     27  F   UNL     1      -2.682  45.346  52.932  1.00  0.00    -0.167 F 
ATOM     28  F   UNL     1      -2.533  43.385  51.839  1.00  0.00    -0.167 F 
ENDBRANCH  25  26
ENDBRANCH   5  25
TORSDOF 6
ENDMDL
