MODEL 1
REMARK VINA RESULT:    -9.448      0.000      0.000
REMARK INTER + INTRA:         -13.750
REMARK INTER:                 -12.762
REMARK INTRA:                  -0.988
REMARK UNBOUND:                -0.988
REMARK SMILES C[C@@H](C(=O)NC1(Cc2ccccc2)CCC1)n1ccc(C(F)(F)F)n1
REMARK SMILES IDX 3 1 4 2 5 3 2 5 1 6 17 7 18 8 25 9 19 10 20 11 21 12 22 13
REMARK SMILES IDX 23 14 24 15 6 16 14 17 16 18 15 19 7 20 8 21 9 22 13 23
REMARK SMILES IDX 10 24 12 25 11 26
REMARK H PARENT 5 4
ROOT
ATOM      1  C   UNL     1       5.857  46.598  53.865  1.00  0.00     0.245 C 
ATOM      2  O   UNL     1       5.509  47.716  53.396  1.00  0.00    -0.273 OA
ATOM      3  N   UNL     1       7.000  45.907  53.333  1.00  0.00    -0.348 N 
ATOM      4  H   UNL     1       7.012  44.873  53.470  1.00  0.00     0.164 HD
ENDROOT
BRANCH   1   5
ATOM      5  C   UNL     1       5.067  45.951  54.976  1.00  0.00     0.193 C 
ATOM      6  C   UNL     1       5.891  44.938  55.778  1.00  0.00     0.044 C 
BRANCH   5   7
ATOM      7  N   UNL     1       3.888  45.291  54.411  1.00  0.00    -0.260 N 
ATOM      8  C   UNL     1       2.613  45.461  54.815  1.00  0.00     0.110 A 
ATOM      9  N   UNL     1       3.930  44.440  53.397  1.00  0.00    -0.168 NA
ATOM     10  C   UNL     1       1.798  44.680  54.025  1.00  0.00     0.055 A 
ATOM     11  C   UNL     1       2.663  44.064  53.136  1.00  0.00     0.166 A 
BRANCH  11  12
ATOM     12  C   UNL     1       2.294  43.052  52.099  1.00  0.00     0.435 C 
ATOM     13  F   UNL     1       1.989  43.693  50.912  1.00  0.00    -0.164 F 
ATOM     14  F   UNL     1       3.361  42.199  51.894  1.00  0.00    -0.164 F 
ATOM     15  F   UNL     1       1.196  42.317  52.509  1.00  0.00    -0.164 F 
ENDBRANCH  11  12
ENDBRANCH   5   7
ENDBRANCH   1   5
BRANCH   3  16
ATOM     16  C   UNL     1       8.171  46.542  52.693  1.00  0.00     0.044 C 
ATOM     17  C   UNL     1       9.525  45.959  53.129  1.00  0.00     0.029 C 
ATOM     18  C   UNL     1       8.539  47.874  53.357  1.00  0.00     0.029 C 
ATOM     19  C   UNL     1       9.873  47.283  53.801  1.00  0.00     0.005 C 
BRANCH  16  20
ATOM     20  C   UNL     1       8.009  46.667  51.154  1.00  0.00     0.063 C 
BRANCH  20  21
ATOM     21  C   UNL     1       7.548  45.381  50.502  1.00  0.00    -0.046 A 
ATOM     22  C   UNL     1       6.220  44.943  50.655  1.00  0.00     0.004 A 
ATOM     23  C   UNL     1       8.436  44.608  49.732  1.00  0.00     0.004 A 
ATOM     24  C   UNL     1       5.796  43.745  50.071  1.00  0.00     0.000 A 
ATOM     25  C   UNL     1       8.007  43.411  49.149  1.00  0.00     0.000 A 
ATOM     26  C   UNL     1       6.691  42.979  49.321  1.00  0.00     0.000 A 
ENDBRANCH  20  21
ENDBRANCH  16  20
ENDBRANCH   3  16
TORSDOF 6
ENDMDL
MODEL 2
REMARK VINA RESULT:    -9.173      2.547      4.647
REMARK INTER + INTRA:         -13.379
REMARK INTER:                 -12.647
REMARK INTRA:                  -0.732
REMARK UNBOUND:                -0.988
REMARK SMILES C[C@@H](C(=O)NC1(Cc2ccccc2)CCC1)n1ccc(C(F)(F)F)n1
REMARK SMILES IDX 3 1 4 2 5 3 2 5 1 6 17 7 18 8 25 9 19 10 20 11 21 12 22 13
REMARK SMILES IDX 23 14 24 15 6 16 14 17 16 18 15 19 7 20 8 21 9 22 13 23
REMARK SMILES IDX 10 24 12 25 11 26
REMARK H PARENT 5 4
ROOT
ATOM      1  C   UNL     1       3.153  44.787  52.955  1.00  0.00     0.245 C 
ATOM      2  O   UNL     1       2.748  44.642  54.141  1.00  0.00    -0.273 OA
ATOM      3  N   UNL     1       4.193  45.732  52.650  1.00  0.00    -0.348 N 
ATOM      4  H   UNL     1       4.215  46.082  51.668  1.00  0.00     0.164 HD
ENDROOT
BRANCH   1   5
ATOM      5  C   UNL     1       2.537  43.992  51.830  1.00  0.00     0.193 C 
ATOM      6  C   UNL     1       1.373  43.111  52.294  1.00  0.00     0.044 C 
BRANCH   5   7
ATOM      7  N   UNL     1       3.567  43.160  51.205  1.00  0.00    -0.260 N 
ATOM      8  C   UNL     1       3.513  41.824  51.034  1.00  0.00     0.110 A 
ATOM      9  N   UNL     1       4.697  43.633  50.702  1.00  0.00    -0.168 NA
ATOM     10  C   UNL     1       4.663  41.419  50.394  1.00  0.00     0.055 A 
ATOM     11  C   UNL     1       5.376  42.589  50.189  1.00  0.00     0.166 A 
BRANCH  11  12
ATOM     12  C   UNL     1       6.740  42.701  49.588  1.00  0.00     0.435 C 
ATOM     13  F   UNL     1       7.514  41.626  49.987  1.00  0.00    -0.164 F 
ATOM     14  F   UNL     1       6.635  42.698  48.211  1.00  0.00    -0.164 F 
ATOM     15  F   UNL     1       7.354  43.872  49.995  1.00  0.00    -0.164 F 
ENDBRANCH  11  12
ENDBRANCH   5   7
ENDBRANCH   1   5
BRANCH   3  16
ATOM     16  C   UNL     1       5.257  46.172  53.576  1.00  0.00     0.044 C 
ATOM     17  C   UNL     1       6.169  45.039  54.076  1.00  0.00     0.029 C 
ATOM     18  C   UNL     1       4.734  46.370  55.003  1.00  0.00     0.029 C 
ATOM     19  C   UNL     1       5.628  45.234  55.488  1.00  0.00     0.005 C 
BRANCH  16  20
ATOM     20  C   UNL     1       6.029  47.409  53.045  1.00  0.00     0.063 C 
BRANCH  20  21
ATOM     21  C   UNL     1       7.508  47.147  52.857  1.00  0.00    -0.046 A 
ATOM     22  C   UNL     1       7.987  46.619  51.644  1.00  0.00     0.004 A 
ATOM     23  C   UNL     1       8.425  47.429  53.886  1.00  0.00     0.004 A 
ATOM     24  C   UNL     1       9.350  46.357  51.474  1.00  0.00     0.000 A 
ATOM     25  C   UNL     1       9.787  47.166  53.711  1.00  0.00     0.000 A 
ATOM     26  C   UNL     1      10.249  46.628  52.508  1.00  0.00     0.000 A 
ENDBRANCH  20  21
ENDBRANCH  16  20
ENDBRANCH   3  16
TORSDOF 6
ENDMDL
MODEL 3
REMARK VINA RESULT:    -8.684      2.818      5.244
REMARK INTER + INTRA:         -12.718
REMARK INTER:                 -11.698
REMARK INTRA:                  -1.021
REMARK UNBOUND:                -0.988
REMARK SMILES C[C@@H](C(=O)NC1(Cc2ccccc2)CCC1)n1ccc(C(F)(F)F)n1
REMARK SMILES IDX 3 1 4 2 5 3 2 5 1 6 17 7 18 8 25 9 19 10 20 11 21 12 22 13
REMARK SMILES IDX 23 14 24 15 6 16 14 17 16 18 15 19 7 20 8 21 9 22 13 23
REMARK SMILES IDX 10 24 12 25 11 26
REMARK H PARENT 5 4
ROOT
ATOM      1  C   UNL     1       3.750  44.768  51.885  1.00  0.00     0.245 C 
ATOM      2  O   UNL     1       2.889  45.665  51.674  1.00  0.00    -0.273 OA
ATOM      3  N   UNL     1       4.901  45.039  52.702  1.00  0.00    -0.348 N 
ATOM      4  H   UNL     1       5.733  44.433  52.533  1.00  0.00     0.164 HD
ENDROOT
BRANCH   1   5
ATOM      5  C   UNL     1       3.603  43.400  51.264  1.00  0.00     0.193 C 
ATOM      6  C   UNL     1       3.178  42.332  52.277  1.00  0.00     0.044 C 
BRANCH   5   7
ATOM      7  N   UNL     1       4.870  43.012  50.641  1.00  0.00    -0.260 N 
ATOM      8  C   UNL     1       5.278  41.753  50.387  1.00  0.00     0.110 A 
ATOM      9  N   UNL     1       5.785  43.875  50.224  1.00  0.00    -0.168 NA
ATOM     10  C   UNL     1       6.513  41.808  49.780  1.00  0.00     0.055 A 
ATOM     11  C   UNL     1       6.791  43.161  49.682  1.00  0.00     0.166 A 
BRANCH  11  12
ATOM     12  C   UNL     1       8.051  43.771  49.157  1.00  0.00     0.435 C 
ATOM     13  F   UNL     1       7.998  45.145  49.302  1.00  0.00    -0.164 F 
ATOM     14  F   UNL     1       9.128  43.279  49.868  1.00  0.00    -0.164 F 
ATOM     15  F   UNL     1       8.214  43.466  47.817  1.00  0.00    -0.164 F 
ENDBRANCH  11  12
ENDBRANCH   5   7
ENDBRANCH   1   5
BRANCH   3  16
ATOM     16  C   UNL     1       4.969  46.034  53.793  1.00  0.00     0.044 C 
ATOM     17  C   UNL     1       5.465  45.469  55.135  1.00  0.00     0.029 C 
ATOM     18  C   UNL     1       3.595  46.296  54.420  1.00  0.00     0.029 C 
ATOM     19  C   UNL     1       4.089  45.719  55.742  1.00  0.00     0.005 C 
BRANCH  16  20
ATOM     20  C   UNL     1       5.687  47.340  53.359  1.00  0.00     0.063 C 
BRANCH  20  21
ATOM     21  C   UNL     1       7.184  47.170  53.210  1.00  0.00    -0.046 A 
ATOM     22  C   UNL     1       7.746  46.900  51.949  1.00  0.00     0.004 A 
ATOM     23  C   UNL     1       8.034  47.283  54.325  1.00  0.00     0.004 A 
ATOM     24  C   UNL     1       9.126  46.723  51.811  1.00  0.00     0.000 A 
ATOM     25  C   UNL     1       9.414  47.105  54.182  1.00  0.00     0.000 A 
ATOM     26  C   UNL     1       9.958  46.823  52.928  1.00  0.00     0.000 A 
ENDBRANCH  20  21
ENDBRANCH  16  20
ENDBRANCH   3  16
TORSDOF 6
ENDMDL
MODEL 4
REMARK VINA RESULT:    -8.461      3.082      5.613
REMARK INTER + INTRA:         -12.416
REMARK INTER:                 -11.363
REMARK INTRA:                  -1.054
REMARK UNBOUND:                -0.988
REMARK SMILES C[C@@H](C(=O)NC1(Cc2ccccc2)CCC1)n1ccc(C(F)(F)F)n1
REMARK SMILES IDX 3 1 4 2 5 3 2 5 1 6 17 7 18 8 25 9 19 10 20 11 21 12 22 13
REMARK SMILES IDX 23 14 24 15 6 16 14 17 16 18 15 19 7 20 8 21 9 22 13 23
REMARK SMILES IDX 10 24 12 25 11 26
REMARK H PARENT 5 4
ROOT
ATOM      1  C   UNL     1       4.529  45.464  54.117  1.00  0.00     0.245 C 
ATOM      2  O   UNL     1       4.484  44.549  54.985  1.00  0.00    -0.273 OA
ATOM      3  N   UNL     1       4.081  45.218  52.774  1.00  0.00    -0.348 N 
ATOM      4  H   UNL     1       4.481  45.841  52.039  1.00  0.00     0.164 HD
ENDROOT
BRANCH   1   5
ATOM      5  C   UNL     1       5.076  46.827  54.465  1.00  0.00     0.193 C 
ATOM      6  C   UNL     1       4.286  47.967  53.813  1.00  0.00     0.044 C 
BRANCH   5   7
ATOM      7  N   UNL     1       6.480  46.904  54.057  1.00  0.00    -0.260 N 
ATOM      8  C   UNL     1       7.529  47.151  54.866  1.00  0.00     0.110 A 
ATOM      9  N   UNL     1       6.903  46.716  52.816  1.00  0.00    -0.168 NA
ATOM     10  C   UNL     1       8.680  47.123  54.109  1.00  0.00     0.055 A 
ATOM     11  C   UNL     1       8.245  46.832  52.827  1.00  0.00     0.166 A 
BRANCH  11  12
ATOM     12  C   UNL     1       9.094  46.754  51.600  1.00  0.00     0.435 C 
ATOM     13  F   UNL     1       9.010  47.944  50.900  1.00  0.00    -0.164 F 
ATOM     14  F   UNL     1      10.408  46.534  51.966  1.00  0.00    -0.164 F 
ATOM     15  F   UNL     1       8.671  45.721  50.783  1.00  0.00    -0.164 F 
ENDBRANCH  11  12
ENDBRANCH   5   7
ENDBRANCH   1   5
BRANCH   3  16
ATOM     16  C   UNL     1       3.059  44.228  52.373  1.00  0.00     0.044 C 
ATOM     17  C   UNL     1       2.246  44.625  51.129  1.00  0.00     0.029 C 
ATOM     18  C   UNL     1       1.790  44.333  53.226  1.00  0.00     0.029 C 
ATOM     19  C   UNL     1       0.994  44.742  51.991  1.00  0.00     0.005 C 
BRANCH  16  20
ATOM     20  C   UNL     1       3.625  42.784  52.318  1.00  0.00     0.063 C 
BRANCH  20  21
ATOM     21  C   UNL     1       4.517  42.544  51.119  1.00  0.00    -0.046 A 
ATOM     22  C   UNL     1       5.564  43.437  50.823  1.00  0.00     0.004 A 
ATOM     23  C   UNL     1       4.318  41.428  50.287  1.00  0.00     0.004 A 
ATOM     24  C   UNL     1       6.378  43.230  49.705  1.00  0.00     0.000 A 
ATOM     25  C   UNL     1       5.135  41.225  49.170  1.00  0.00     0.000 A 
ATOM     26  C   UNL     1       6.161  42.126  48.878  1.00  0.00     0.000 A 
ENDBRANCH  20  21
ENDBRANCH  16  20
ENDBRANCH   3  16
TORSDOF 6
ENDMDL
MODEL 5
REMARK VINA RESULT:    -8.317      3.302      5.803
REMARK INTER + INTRA:         -12.222
REMARK INTER:                 -12.022
REMARK INTRA:                  -0.200
REMARK UNBOUND:                -0.988
REMARK SMILES C[C@@H](C(=O)NC1(Cc2ccccc2)CCC1)n1ccc(C(F)(F)F)n1
REMARK SMILES IDX 3 1 4 2 5 3 2 5 1 6 17 7 18 8 25 9 19 10 20 11 21 12 22 13
REMARK SMILES IDX 23 14 24 15 6 16 14 17 16 18 15 19 7 20 8 21 9 22 13 23
REMARK SMILES IDX 10 24 12 25 11 26
REMARK H PARENT 5 4
ROOT
ATOM      1  C   UNL     1       3.629  46.250  53.217  1.00  0.00     0.245 C 
ATOM      2  O   UNL     1       2.926  46.915  52.408  1.00  0.00    -0.273 OA
ATOM      3  N   UNL     1       3.378  44.849  53.423  1.00  0.00    -0.348 N 
ATOM      4  H   UNL     1       3.701  44.458  54.334  1.00  0.00     0.164 HD
ENDROOT
BRANCH   1   5
ATOM      5  C   UNL     1       4.732  46.915  54.003  1.00  0.00     0.193 C 
ATOM      6  C   UNL     1       4.428  48.381  54.329  1.00  0.00     0.044 C 
BRANCH   5   7
ATOM      7  N   UNL     1       5.985  46.826  53.250  1.00  0.00    -0.260 N 
ATOM      8  C   UNL     1       6.100  46.658  51.918  1.00  0.00     0.110 A 
ATOM      9  N   UNL     1       7.187  46.922  53.798  1.00  0.00    -0.168 NA
ATOM     10  C   UNL     1       7.439  46.642  51.595  1.00  0.00     0.055 A 
ATOM     11  C   UNL     1       8.090  46.826  52.803  1.00  0.00     0.166 A 
BRANCH  11  12
ATOM     12  C   UNL     1       9.569  46.819  53.023  1.00  0.00     0.435 C 
ATOM     13  F   UNL     1       9.950  45.614  53.584  1.00  0.00    -0.164 F 
ATOM     14  F   UNL     1      10.212  46.981  51.811  1.00  0.00    -0.164 F 
ATOM     15  F   UNL     1       9.937  47.847  53.873  1.00  0.00    -0.164 F 
ENDBRANCH  11  12
ENDBRANCH   5   7
ENDBRANCH   1   5
BRANCH   3  16
ATOM     16  C   UNL     1       2.784  43.926  52.434  1.00  0.00     0.044 C 
ATOM     17  C   UNL     1       2.497  44.564  51.064  1.00  0.00     0.029 C 
ATOM     18  C   UNL     1       1.279  43.737  52.652  1.00  0.00     0.029 C 
ATOM     19  C   UNL     1       1.001  44.386  51.301  1.00  0.00     0.005 C 
BRANCH  16  20
ATOM     20  C   UNL     1       3.549  42.578  52.349  1.00  0.00     0.063 C 
BRANCH  20  21
ATOM     21  C   UNL     1       4.497  42.510  51.170  1.00  0.00    -0.046 A 
ATOM     22  C   UNL     1       4.430  41.433  50.266  1.00  0.00     0.004 A 
ATOM     23  C   UNL     1       5.452  43.520  50.957  1.00  0.00     0.004 A 
ATOM     24  C   UNL     1       5.317  41.357  49.188  1.00  0.00     0.000 A 
ATOM     25  C   UNL     1       6.336  43.440  49.877  1.00  0.00     0.000 A 
ATOM     26  C   UNL     1       6.271  42.359  48.995  1.00  0.00     0.000 A 
ENDBRANCH  20  21
ENDBRANCH  16  20
ENDBRANCH   3  16
TORSDOF 6
ENDMDL
