MODEL 1
REMARK VINA RESULT:    -8.854      0.000      0.000
REMARK INTER + INTRA:         -11.747
REMARK INTER:                 -10.924
REMARK INTRA:                  -0.823
REMARK UNBOUND:                -0.823
REMARK SMILES CN1CC[C@@H]2[C@H]1CCCN2C(=O)[C@@H]1CCN(c2ccc(-c3nn[nH]n3)cc2F)C1
REMARK SMILES IDX 13 1 14 2 15 3 16 4 29 5 11 6 12 7 10 8 2 9 3 10 6 11 4 12
REMARK SMILES IDX 5 13 7 14 8 15 9 16 1 17 17 18 18 19 27 20 19 21 26 22 20 23
REMARK SMILES IDX 28 24 21 25 22 26 25 27 23 28 24 29
REMARK H PARENT 24 30
ROOT
ATOM      1  C   UNL     1       1.506  43.436  51.221  1.00  0.00     0.100 C 
ATOM      2  C   UNL     1       2.444  42.297  50.791  1.00  0.00     0.037 C 
ATOM      3  C   UNL     1       3.752  42.540  51.535  1.00  0.00     0.117 C 
ATOM      4  N   UNL     1       3.717  43.939  51.931  1.00  0.00    -0.368 N 
ATOM      5  C   UNL     1       2.448  44.577  51.616  1.00  0.00     0.130 C 
ENDROOT
BRANCH   1   6
ATOM      6  C   UNL     1       0.610  43.056  52.386  1.00  0.00     0.227 C 
ATOM      7  O   UNL     1       0.972  42.178  53.216  1.00  0.00    -0.274 OA
BRANCH   6   8
ATOM      8  N   UNL     1      -0.659  43.708  52.567  1.00  0.00    -0.338 N 
ATOM      9  N   UNL     1      -1.826  44.972  55.606  1.00  0.00    -0.301 NA
ATOM     10  C   UNL     1      -0.428  44.570  55.726  1.00  0.00     0.086 C 
ATOM     11  C   UNL     1      -2.156  44.948  54.161  1.00  0.00     0.079 C 
ATOM     12  C   UNL     1       0.247  45.100  54.484  1.00  0.00     0.042 C 
ATOM     13  C   UNL     1      -0.809  44.937  53.385  1.00  0.00     0.103 C 
ATOM     14  C   UNL     1      -3.099  43.800  53.716  1.00  0.00     0.023 C 
ATOM     15  C   UNL     1      -3.125  43.717  52.192  1.00  0.00     0.023 C 
ATOM     16  C   UNL     1      -1.744  43.321  51.650  1.00  0.00     0.120 C 
ATOM     17  C   UNL     1      -2.706  44.223  56.519  1.00  0.00     0.105 C 
ENDBRANCH   6   8
ENDBRANCH   1   6
BRANCH   4  18
ATOM     18  C   UNL     1       4.852  44.648  52.455  1.00  0.00     0.073 A 
ATOM     19  C   UNL     1       5.143  44.604  53.826  1.00  0.00     0.030 A 
ATOM     20  C   UNL     1       5.681  45.401  51.604  1.00  0.00     0.147 A 
ATOM     21  C   UNL     1       6.252  45.286  54.340  1.00  0.00     0.014 A 
ATOM     22  C   UNL     1       6.794  46.076  52.118  1.00  0.00     0.053 A 
ATOM     23  C   UNL     1       7.089  46.023  53.489  1.00  0.00     0.026 A 
ATOM     24  F   UNL     1       5.390  45.531  50.284  1.00  0.00    -0.205 F 
BRANCH  23  25
ATOM     25  C   UNL     1       8.268  46.733  54.029  1.00  0.00     0.204 A 
ATOM     26  N   UNL     1       8.210  47.736  54.930  1.00  0.00    -0.108 NA
ATOM     27  N   UNL     1       9.544  46.455  53.695  1.00  0.00    -0.134 NA
ATOM     28  N   UNL     1       9.471  48.073  55.147  1.00  0.00    -0.050 NA
ATOM     29  N   UNL     1      10.257  47.306  54.412  1.00  0.00    -0.177 N 
ATOM     30  H   UNL     1      11.299  47.369  54.395  1.00  0.00     0.216 HD
ENDBRANCH  23  25
ENDBRANCH   4  18
TORSDOF 4
ENDMDL
MODEL 2
REMARK VINA RESULT:    -8.560      1.031      2.361
REMARK INTER + INTRA:         -11.386
REMARK INTER:                 -10.722
REMARK INTRA:                  -0.664
REMARK UNBOUND:                -0.823
REMARK SMILES CN1CC[C@@H]2[C@H]1CCCN2C(=O)[C@@H]1CCN(c2ccc(-c3nn[nH]n3)cc2F)C1
REMARK SMILES IDX 13 1 14 2 15 3 16 4 29 5 11 6 12 7 10 8 2 9 3 10 6 11 4 12
REMARK SMILES IDX 5 13 7 14 8 15 9 16 1 17 17 18 18 19 27 20 19 21 26 22 20 23
REMARK SMILES IDX 28 24 21 25 22 26 25 27 23 28 24 29
REMARK H PARENT 24 30
ROOT
ATOM      1  C   UNL     1       1.151  43.744  51.557  1.00  0.00     0.100 C 
ATOM      2  C   UNL     1       2.035  42.710  50.840  1.00  0.00     0.037 C 
ATOM      3  C   UNL     1       3.424  42.869  51.447  1.00  0.00     0.117 C 
ATOM      4  N   UNL     1       3.429  44.188  52.059  1.00  0.00    -0.368 N 
ATOM      5  C   UNL     1       2.127  44.834  52.007  1.00  0.00     0.130 C 
ENDROOT
BRANCH   1   6
ATOM      6  C   UNL     1       0.411  43.164  52.748  1.00  0.00     0.227 C 
ATOM      7  O   UNL     1       0.949  42.284  53.474  1.00  0.00    -0.274 OA
BRANCH   6   8
ATOM      8  N   UNL     1      -0.912  43.625  53.075  1.00  0.00    -0.338 N 
ATOM      9  N   UNL     1      -3.359  44.462  50.729  1.00  0.00    -0.301 NA
ATOM     10  C   UNL     1      -2.217  43.835  50.070  1.00  0.00     0.086 C 
ATOM     11  C   UNL     1      -3.175  44.264  52.186  1.00  0.00     0.079 C 
ATOM     12  C   UNL     1      -1.860  42.649  50.934  1.00  0.00     0.042 C 
ATOM     13  C   UNL     1      -2.120  43.137  52.364  1.00  0.00     0.103 C 
ATOM     14  C   UNL     1      -2.809  45.542  52.986  1.00  0.00     0.023 C 
ATOM     15  C   UNL     1      -2.370  45.157  54.397  1.00  0.00     0.023 C 
ATOM     16  C   UNL     1      -1.072  44.339  54.353  1.00  0.00     0.120 C 
ATOM     17  C   UNL     1      -3.598  45.834  50.251  1.00  0.00     0.105 C 
ENDBRANCH   6   8
ENDBRANCH   1   6
BRANCH   4  18
ATOM     18  C   UNL     1       4.617  44.837  52.544  1.00  0.00     0.073 A 
ATOM     19  C   UNL     1       4.950  44.778  53.905  1.00  0.00     0.030 A 
ATOM     20  C   UNL     1       5.456  45.546  51.665  1.00  0.00     0.147 A 
ATOM     21  C   UNL     1       6.109  45.401  54.381  1.00  0.00     0.014 A 
ATOM     22  C   UNL     1       6.618  46.161  52.141  1.00  0.00     0.053 A 
ATOM     23  C   UNL     1       6.955  46.094  53.502  1.00  0.00     0.026 A 
ATOM     24  F   UNL     1       5.129  45.690  50.355  1.00  0.00    -0.205 F 
BRANCH  23  25
ATOM     25  C   UNL     1       8.187  46.741  54.003  1.00  0.00     0.204 A 
ATOM     26  N   UNL     1       8.219  47.671  54.979  1.00  0.00    -0.108 NA
ATOM     27  N   UNL     1       9.427  46.471  53.550  1.00  0.00    -0.134 NA
ATOM     28  N   UNL     1       9.500  47.971  55.123  1.00  0.00    -0.050 NA
ATOM     29  N   UNL     1      10.211  47.252  54.272  1.00  0.00    -0.177 N 
ATOM     30  H   UNL     1      11.250  47.300  54.179  1.00  0.00     0.216 HD
ENDBRANCH  23  25
ENDBRANCH   4  18
TORSDOF 4
ENDMDL
MODEL 3
REMARK VINA RESULT:    -8.504      2.858      9.302
REMARK INTER + INTRA:         -11.315
REMARK INTER:                 -10.928
REMARK INTRA:                  -0.387
REMARK UNBOUND:                -0.823
REMARK SMILES CN1CC[C@@H]2[C@H]1CCCN2C(=O)[C@@H]1CCN(c2ccc(-c3nn[nH]n3)cc2F)C1
REMARK SMILES IDX 13 1 14 2 15 3 16 4 29 5 11 6 12 7 10 8 2 9 3 10 6 11 4 12
REMARK SMILES IDX 5 13 7 14 8 15 9 16 1 17 17 18 18 19 27 20 19 21 26 22 20 23
REMARK SMILES IDX 28 24 21 25 22 26 25 27 23 28 24 29
REMARK H PARENT 24 30
ROOT
ATOM      1  C   UNL     1       5.745  45.158  53.874  1.00  0.00     0.100 C 
ATOM      2  C   UNL     1       5.055  44.551  52.642  1.00  0.00     0.037 C 
ATOM      3  C   UNL     1       3.560  44.725  52.882  1.00  0.00     0.117 C 
ATOM      4  N   UNL     1       3.421  44.937  54.313  1.00  0.00    -0.368 N 
ATOM      5  C   UNL     1       4.704  45.039  54.991  1.00  0.00     0.130 C 
ENDROOT
BRANCH   1   6
ATOM      6  C   UNL     1       6.147  46.607  53.671  1.00  0.00     0.227 C 
ATOM      7  O   UNL     1       5.292  47.531  53.756  1.00  0.00    -0.274 OA
BRANCH   6   8
ATOM      8  N   UNL     1       7.517  46.948  53.397  1.00  0.00    -0.338 N 
ATOM      9  N   UNL     1       9.365  45.723  50.698  1.00  0.00    -0.301 NA
ATOM     10  C   UNL     1       7.960  45.350  50.563  1.00  0.00     0.086 C 
ATOM     11  C   UNL     1       9.440  46.718  51.793  1.00  0.00     0.079 C 
ATOM     12  C   UNL     1       7.181  46.597  50.907  1.00  0.00     0.042 C 
ATOM     13  C   UNL     1       7.999  47.251  52.026  1.00  0.00     0.103 C 
ATOM     14  C   UNL     1      10.097  46.211  53.104  1.00  0.00     0.023 C 
ATOM     15  C   UNL     1       9.855  47.220  54.224  1.00  0.00     0.023 C 
ATOM     16  C   UNL     1       8.357  47.315  54.549  1.00  0.00     0.120 C 
ATOM     17  C   UNL     1      10.251  44.550  50.780  1.00  0.00     0.105 C 
ENDBRANCH   6   8
ENDBRANCH   1   6
BRANCH   4  18
ATOM     18  C   UNL     1       2.160  44.916  55.004  1.00  0.00     0.073 A 
ATOM     19  C   UNL     1       1.989  45.651  56.186  1.00  0.00     0.030 A 
ATOM     20  C   UNL     1       1.085  44.156  54.510  1.00  0.00     0.147 A 
ATOM     21  C   UNL     1       0.761  45.641  56.858  1.00  0.00     0.014 A 
ATOM     22  C   UNL     1      -0.144  44.153  55.178  1.00  0.00     0.053 A 
ATOM     23  C   UNL     1      -0.317  44.896  56.357  1.00  0.00     0.026 A 
ATOM     24  F   UNL     1       1.234  43.371  53.411  1.00  0.00    -0.205 F 
BRANCH  23  25
ATOM     25  C   UNL     1      -1.618  44.896  57.058  1.00  0.00     0.204 A 
ATOM     26  N   UNL     1      -2.040  45.874  57.885  1.00  0.00    -0.108 NA
ATOM     27  N   UNL     1      -2.543  43.922  56.947  1.00  0.00    -0.134 NA
ATOM     28  N   UNL     1      -3.243  45.490  58.283  1.00  0.00    -0.050 NA
ATOM     29  N   UNL     1      -3.535  44.331  57.720  1.00  0.00    -0.177 N 
ATOM     30  H   UNL     1      -4.425  43.806  57.870  1.00  0.00     0.216 HD
ENDBRANCH  23  25
ENDBRANCH   4  18
TORSDOF 4
ENDMDL
MODEL 4
REMARK VINA RESULT:    -8.363      2.677      9.348
REMARK INTER + INTRA:         -11.142
REMARK INTER:                 -10.317
REMARK INTRA:                  -0.825
REMARK UNBOUND:                -0.823
REMARK SMILES CN1CC[C@@H]2[C@H]1CCCN2C(=O)[C@@H]1CCN(c2ccc(-c3nn[nH]n3)cc2F)C1
REMARK SMILES IDX 13 1 14 2 15 3 16 4 29 5 11 6 12 7 10 8 2 9 3 10 6 11 4 12
REMARK SMILES IDX 5 13 7 14 8 15 9 16 1 17 17 18 18 19 27 20 19 21 26 22 20 23
REMARK SMILES IDX 28 24 21 25 22 26 25 27 23 28 24 29
REMARK H PARENT 24 30
ROOT
ATOM      1  C   UNL     1       4.673  46.659  53.983  1.00  0.00     0.100 C 
ATOM      2  C   UNL     1       3.986  46.402  55.334  1.00  0.00     0.037 C 
ATOM      3  C   UNL     1       2.931  45.337  55.061  1.00  0.00     0.117 C 
ATOM      4  N   UNL     1       2.709  45.374  53.624  1.00  0.00    -0.368 N 
ATOM      5  C   UNL     1       3.618  46.279  52.941  1.00  0.00     0.130 C 
ENDROOT
BRANCH   1   6
ATOM      6  C   UNL     1       5.933  45.834  53.794  1.00  0.00     0.227 C 
ATOM      7  O   UNL     1       5.934  44.597  54.040  1.00  0.00    -0.274 OA
BRANCH   6   8
ATOM      8  N   UNL     1       7.139  46.452  53.315  1.00  0.00    -0.338 N 
ATOM      9  N   UNL     1       8.843  45.500  50.419  1.00  0.00    -0.301 NA
ATOM     10  C   UNL     1       7.556  44.816  50.499  1.00  0.00     0.086 C 
ATOM     11  C   UNL     1       8.833  46.555  51.459  1.00  0.00     0.079 C 
ATOM     12  C   UNL     1       6.565  45.878  50.912  1.00  0.00     0.042 C 
ATOM     13  C   UNL     1       7.352  46.768  51.880  1.00  0.00     0.103 C 
ATOM     14  C   UNL     1       9.757  46.292  52.677  1.00  0.00     0.023 C 
ATOM     15  C   UNL     1       9.440  47.291  53.788  1.00  0.00     0.023 C 
ATOM     16  C   UNL     1       8.018  47.071  54.322  1.00  0.00     0.120 C 
ATOM     17  C   UNL     1       9.977  44.561  50.409  1.00  0.00     0.105 C 
ENDBRANCH   6   8
ENDBRANCH   1   6
BRANCH   4  18
ATOM     18  C   UNL     1       1.626  44.693  52.967  1.00  0.00     0.073 A 
ATOM     19  C   UNL     1       0.387  45.330  52.800  1.00  0.00     0.030 A 
ATOM     20  C   UNL     1       1.789  43.380  52.490  1.00  0.00     0.147 A 
ATOM     21  C   UNL     1      -0.667  44.675  52.154  1.00  0.00     0.014 A 
ATOM     22  C   UNL     1       0.737  42.730  51.837  1.00  0.00     0.053 A 
ATOM     23  C   UNL     1      -0.500  43.372  51.663  1.00  0.00     0.026 A 
ATOM     24  F   UNL     1       2.947  42.702  52.699  1.00  0.00    -0.205 F 
BRANCH  23  25
ATOM     25  C   UNL     1      -1.609  42.684  50.969  1.00  0.00     0.204 A 
ATOM     26  N   UNL     1      -1.822  42.729  49.637  1.00  0.00    -0.108 NA
ATOM     27  N   UNL     1      -2.535  41.921  51.582  1.00  0.00    -0.134 NA
ATOM     28  N   UNL     1      -2.895  41.980  49.438  1.00  0.00    -0.050 NA
ATOM     29  N   UNL     1      -3.311  41.502  50.597  1.00  0.00    -0.177 N 
ATOM     30  H   UNL     1      -4.143  40.883  50.719  1.00  0.00     0.216 HD
ENDBRANCH  23  25
ENDBRANCH   4  18
TORSDOF 4
ENDMDL
MODEL 5
REMARK VINA RESULT:    -8.257      1.437      2.493
REMARK INTER + INTRA:         -11.011
REMARK INTER:                 -10.626
REMARK INTRA:                  -0.385
REMARK UNBOUND:                -0.823
REMARK SMILES CN1CC[C@@H]2[C@H]1CCCN2C(=O)[C@@H]1CCN(c2ccc(-c3nn[nH]n3)cc2F)C1
REMARK SMILES IDX 13 1 14 2 15 3 16 4 29 5 11 6 12 7 10 8 2 9 3 10 6 11 4 12
REMARK SMILES IDX 5 13 7 14 8 15 9 16 1 17 17 18 18 19 27 20 19 21 26 22 20 23
REMARK SMILES IDX 28 24 21 25 22 26 25 27 23 28 24 29
REMARK H PARENT 24 30
ROOT
ATOM      1  C   UNL     1       0.307  44.881  52.616  1.00  0.00     0.100 C 
ATOM      2  C   UNL     1       0.856  44.218  51.343  1.00  0.00     0.037 C 
ATOM      3  C   UNL     1       2.367  44.148  51.537  1.00  0.00     0.117 C 
ATOM      4  N   UNL     1       2.669  45.126  52.569  1.00  0.00    -0.368 N 
ATOM      5  C   UNL     1       1.473  45.724  53.140  1.00  0.00     0.130 C 
ENDROOT
BRANCH   1   6
ATOM      6  C   UNL     1      -0.138  43.875  53.662  1.00  0.00     0.227 C 
ATOM      7  O   UNL     1      -0.324  42.667  53.353  1.00  0.00    -0.274 OA
BRANCH   6   8
ATOM      8  N   UNL     1      -0.335  44.287  55.025  1.00  0.00    -0.338 N 
ATOM      9  N   UNL     1      -3.147  45.995  56.197  1.00  0.00    -0.301 NA
ATOM     10  C   UNL     1      -3.360  45.547  54.824  1.00  0.00     0.086 C 
ATOM     11  C   UNL     1      -1.918  45.322  56.682  1.00  0.00     0.079 C 
ATOM     12  C   UNL     1      -2.855  44.125  54.786  1.00  0.00     0.042 C 
ATOM     13  C   UNL     1      -1.638  44.134  55.719  1.00  0.00     0.103 C 
ATOM     14  C   UNL     1      -0.682  46.243  56.852  1.00  0.00     0.023 C 
ATOM     15  C   UNL     1       0.566  45.392  57.072  1.00  0.00     0.023 C 
ATOM     16  C   UNL     1       0.873  44.553  55.823  1.00  0.00     0.120 C 
ATOM     17  C   UNL     1      -3.217  47.460  56.326  1.00  0.00     0.105 C 
ENDBRANCH   6   8
ENDBRANCH   1   6
BRANCH   4  18
ATOM     18  C   UNL     1       4.003  45.553  52.897  1.00  0.00     0.073 A 
ATOM     19  C   UNL     1       4.497  45.389  54.200  1.00  0.00     0.030 A 
ATOM     20  C   UNL     1       4.826  46.146  51.924  1.00  0.00     0.147 A 
ATOM     21  C   UNL     1       5.796  45.794  54.523  1.00  0.00     0.014 A 
ATOM     22  C   UNL     1       6.127  46.543  52.246  1.00  0.00     0.053 A 
ATOM     23  C   UNL     1       6.624  46.370  53.548  1.00  0.00     0.026 A 
ATOM     24  F   UNL     1       4.358  46.391  50.673  1.00  0.00    -0.205 F 
BRANCH  23  25
ATOM     25  C   UNL     1       8.002  46.787  53.886  1.00  0.00     0.204 A 
ATOM     26  N   UNL     1       8.329  47.558  54.942  1.00  0.00    -0.108 NA
ATOM     27  N   UNL     1       9.097  46.435  53.184  1.00  0.00    -0.134 NA
ATOM     28  N   UNL     1       9.646  47.678  54.882  1.00  0.00    -0.050 NA
ATOM     29  N   UNL     1      10.094  47.006  53.837  1.00  0.00    -0.177 N 
ATOM     30  H   UNL     1      11.100  46.941  53.561  1.00  0.00     0.216 HD
ENDBRANCH  23  25
ENDBRANCH   4  18
TORSDOF 4
ENDMDL
