ligand_42_conformer_3_docked
     RDKit          3D

 47 49  0  0  0  0  0  0  0  0999 V2000
    0.6040   45.2360   56.2260 C   0  0  0  0  0  0  0  0  0  0  0  0
    1.1470   44.1980   55.4340 O   0  0  0  0  0  0  0  0  0  0  0  0
    1.0460   44.4310   54.0300 C   0  0  1  0  0  0  0  0  0  0  0  0
    2.0230   45.5010   53.5300 C   0  0  0  0  0  0  0  0  0  0  0  0
    1.6250   46.5250   52.7410 N   0  0  0  0  0  0  0  0  0  0  0  0
    2.6990   47.2410   52.4410 N   0  0  0  0  0  0  0  0  0  0  0  0
    3.7410   46.6370   53.0370 C   0  0  0  0  0  0  0  0  0  0  0  0
    3.3660   45.5320   53.7000 N   0  0  0  0  0  0  0  0  0  0  0  0
    4.2730   44.6940   54.4830 C   0  0  0  0  0  0  0  0  0  0  0  0
    5.7070   44.8380   53.9600 C   0  0  0  0  0  0  0  0  0  0  0  0
    6.0510   46.2590   53.7610 N   0  0  0  0  0  0  0  0  0  0  0  0
    7.3730   46.7400   54.0700 C   0  0  0  0  0  0  0  0  0  0  0  0
    7.5420   47.5700   55.0050 O   0  0  0  0  0  0  0  0  0  0  0  0
    8.4680   46.2770   53.3220 O   0  0  0  0  0  0  0  0  0  0  0  0
    8.7870   46.6310   51.9680 C   0  0  0  0  0  0  0  0  0  0  0  0
    8.4880   48.1200   51.7100 C   0  0  0  0  0  0  0  0  0  0  0  0
    8.0100   45.7410   50.9770 C   0  0  0  0  0  0  0  0  0  0  0  0
   10.2920   46.3870   51.7780 C   0  0  0  0  0  0  0  0  0  0  0  0
    5.1550   47.1220   52.9730 C   0  0  0  0  0  0  0  0  0  0  0  0
    1.3640   43.1180   53.3440 C   0  0  0  0  0  0  0  0  0  0  0  0
    0.0380   42.3850   53.3490 C   0  0  0  0  0  0  0  0  0  0  0  0
   -1.0040   43.3250   53.4460 O   0  0  0  0  0  0  0  0  0  0  0  0
   -0.4130   44.5970   53.5750 C   0  0  0  0  0  0  0  0  0  0  0  0
    0.7325   44.9905   57.2905 H   0  0  0  0  0  0  0  0  0  0  0  0
    1.1244   46.1788   56.0018 H   0  0  0  0  0  0  0  0  0  0  0  0
   -0.4673   45.3462   56.0018 H   0  0  0  0  0  0  0  0  0  0  0  0
    4.2373   45.0056   55.5373 H   0  0  0  0  0  0  0  0  0  0  0  0
    3.9606   43.6432   54.3925 H   0  0  0  0  0  0  0  0  0  0  0  0
    6.4029   44.3970   54.6889 H   0  0  0  0  0  0  0  0  0  0  0  0
    5.7843   44.3175   52.9940 H   0  0  0  0  0  0  0  0  0  0  0  0
    8.3826   48.6447   52.6710 H   0  0  0  0  0  0  0  0  0  0  0  0
    9.3145   48.5661   51.1374 H   0  0  0  0  0  0  0  0  0  0  0  0
    7.5534   48.2124   51.1374 H   0  0  0  0  0  0  0  0  0  0  0  0
    7.3869   45.0273   51.5359 H   0  0  0  0  0  0  0  0  0  0  0  0
    7.3678   46.3711   50.3441 H   0  0  0  0  0  0  0  0  0  0  0  0
    8.7210   45.1897   50.3441 H   0  0  0  0  0  0  0  0  0  0  0  0
   10.7778   46.3082   52.7618 H   0  0  0  0  0  0  0  0  0  0  0  0
   10.4441   45.4525   51.2181 H   0  0  0  0  0  0  0  0  0  0  0  0
   10.7316   47.2256   51.2181 H   0  0  0  0  0  0  0  0  0  0  0  0
    5.2013   48.1461   53.3717 H   0  0  0  0  0  0  0  0  0  0  0  0
    5.4837   47.0987   51.9235 H   0  0  0  0  0  0  0  0  0  0  0  0
    1.7158   43.2870   52.3156 H   0  0  0  0  0  0  0  0  0  0  0  0
    2.1656   42.5561   53.8457 H   0  0  0  0  0  0  0  0  0  0  0  0
   -0.0693   41.8102   52.4173 H   0  0  0  0  0  0  0  0  0  0  0  0
   -0.0024   41.6954   54.2050 H   0  0  0  0  0  0  0  0  0  0  0  0
   -0.4395   45.1154   52.6052 H   0  0  0  0  0  0  0  0  0  0  0  0
   -0.9674   45.1892   54.3180 H   0  0  0  0  0  0  0  0  0  0  0  0
  1  2  1  0
  3  2  1  1
  3  4  1  0
  4  5  2  0
  5  6  1  0
  6  7  2  0
  7  8  1  0
  8  9  1  0
  9 10  1  0
 10 11  1  0
 11 12  1  0
 12 13  2  0
 12 14  1  0
 14 15  1  0
 15 16  1  0
 15 17  1  0
 15 18  1  0
 11 19  1  0
  3 20  1  0
 20 21  1  0
 21 22  1  0
 22 23  1  0
 23  3  1  0
  8  4  1  0
 19  7  1  0
  1 24  1  0
  1 25  1  0
  1 26  1  0
  9 27  1  0
  9 28  1  0
 10 29  1  0
 10 30  1  0
 16 31  1  0
 16 32  1  0
 16 33  1  0
 17 34  1  0
 17 35  1  0
 17 36  1  0
 18 37  1  0
 18 38  1  0
 18 39  1  0
 19 40  1  0
 19 41  1  0
 20 42  1  0
 20 43  1  0
 21 44  1  0
 21 45  1  0
 23 46  1  0
 23 47  1  0
M  END
>  <meeko>  (1) 
{"is_sidechain": [false], "free_energy": -7.87, "intermolecular_energy": -10.171, "internal_energy": -0.623}

$$$$
ligand_42_conformer_3_docked
     RDKit          3D

 47 49  0  0  0  0  0  0  0  0999 V2000
    1.7950   42.7610   50.8330 C   0  0  0  0  0  0  0  0  0  0  0  0
    1.6400   42.6820   52.2370 O   0  0  0  0  0  0  0  0  0  0  0  0
    0.9910   43.8170   52.8100 C   0  0  1  0  0  0  0  0  0  0  0  0
    1.8490   45.0850   52.7630 C   0  0  0  0  0  0  0  0  0  0  0  0
    1.3510   46.2760   52.3620 N   0  0  0  0  0  0  0  0  0  0  0  0
    2.3430   47.1540   52.3840 N   0  0  0  0  0  0  0  0  0  0  0  0
    3.4380   46.4850   52.7840 C   0  0  0  0  0  0  0  0  0  0  0  0
    3.1790   45.1860   53.0010 N   0  0  0  0  0  0  0  0  0  0  0  0
    4.1640   44.2200   53.4870 C   0  0  0  0  0  0  0  0  0  0  0  0
    5.5790   44.6790   53.1200 C   0  0  0  0  0  0  0  0  0  0  0  0
    5.7670   46.1060   53.4460 N   0  0  0  0  0  0  0  0  0  0  0  0
    7.0240   46.5760   53.9690 C   0  0  0  0  0  0  0  0  0  0  0  0
    7.0480   47.3110   54.9930 O   0  0  0  0  0  0  0  0  0  0  0  0
    8.2190   46.2080   53.3270 O   0  0  0  0  0  0  0  0  0  0  0  0
    8.7090   46.7190   52.0780 C   0  0  0  0  0  0  0  0  0  0  0  0
    8.0460   45.9900   50.8940 C   0  0  0  0  0  0  0  0  0  0  0  0
   10.2430   46.5920   52.0060 C   0  0  0  0  0  0  0  0  0  0  0  0
    8.3310   48.2070   52.0190 C   0  0  0  0  0  0  0  0  0  0  0  0
    4.7910   47.0990   52.9630 C   0  0  0  0  0  0  0  0  0  0  0  0
   -0.2730   44.0490   52.0060 C   0  0  0  0  0  0  0  0  0  0  0  0
   -1.2780   43.1120   52.6440 C   0  0  0  0  0  0  0  0  0  0  0  0
   -0.8760   42.8410   53.9650 O   0  0  0  0  0  0  0  0  0  0  0  0
    0.3560   43.4920   54.1720 C   0  0  0  0  0  0  0  0  0  0  0  0
    2.7522   43.2489   50.5967 H   0  0  0  0  0  0  0  0  0  0  0  0
    1.7845   41.7476   50.4053 H   0  0  0  0  0  0  0  0  0  0  0  0
    0.9688   43.3480   50.4053 H   0  0  0  0  0  0  0  0  0  0  0  0
    4.0814   44.1354   54.5806 H   0  0  0  0  0  0  0  0  0  0  0  0
    3.9704   43.2432   53.0197 H   0  0  0  0  0  0  0  0  0  0  0  0
    6.3100   44.0808   53.6837 H   0  0  0  0  0  0  0  0  0  0  0  0
    5.7253   44.5417   52.0385 H   0  0  0  0  0  0  0  0  0  0  0  0
    7.3519   45.2268   51.2756 H   0  0  0  0  0  0  0  0  0  0  0  0
    7.4919   46.7156   50.2805 H   0  0  0  0  0  0  0  0  0  0  0  0
    8.8208   45.5070   50.2805 H   0  0  0  0  0  0  0  0  0  0  0  0
   10.6563   46.5578   53.0248 H   0  0  0  0  0  0  0  0  0  0  0  0
   10.5098   45.6687   51.4709 H   0  0  0  0  0  0  0  0  0  0  0  0
   10.6580   47.4589   51.4709 H   0  0  0  0  0  0  0  0  0  0  0  0
    8.2310   48.6007   53.0412 H   0  0  0  0  0  0  0  0  0  0  0  0
    9.1162   48.7640   51.4868 H   0  0  0  0  0  0  0  0  0  0  0  0
    7.3752   48.3217   51.4868 H   0  0  0  0  0  0  0  0  0  0  0  0
    4.7197   47.9174   53.6946 H   0  0  0  0  0  0  0  0  0  0  0  0
    5.1331   47.4784   51.9888 H   0  0  0  0  0  0  0  0  0  0  0  0
   -0.6041   45.0948   52.0878 H   0  0  0  0  0  0  0  0  0  0  0  0
   -0.1362   43.8612   50.9308 H   0  0  0  0  0  0  0  0  0  0  0  0
   -2.2711   43.5849   52.6502 H   0  0  0  0  0  0  0  0  0  0  0  0
   -1.3286   42.1745   52.0708 H   0  0  0  0  0  0  0  0  0  0  0  0
    0.1901   44.4239   54.7324 H   0  0  0  0  0  0  0  0  0  0  0  0
    1.0280   42.8374   54.7464 H   0  0  0  0  0  0  0  0  0  0  0  0
  1  2  1  0
  3  2  1  6
  3  4  1  0
  4  5  2  0
  5  6  1  0
  6  7  2  0
  7  8  1  0
  8  9  1  0
  9 10  1  0
 10 11  1  0
 11 12  1  0
 12 13  2  0
 12 14  1  0
 14 15  1  0
 15 16  1  0
 15 17  1  0
 15 18  1  0
 11 19  1  0
  3 20  1  0
 20 21  1  0
 21 22  1  0
 22 23  1  0
 23  3  1  0
  8  4  1  0
 19  7  1  0
  1 24  1  0
  1 25  1  0
  1 26  1  0
  9 27  1  0
  9 28  1  0
 10 29  1  0
 10 30  1  0
 16 31  1  0
 16 32  1  0
 16 33  1  0
 17 34  1  0
 17 35  1  0
 17 36  1  0
 18 37  1  0
 18 38  1  0
 18 39  1  0
 19 40  1  0
 19 41  1  0
 20 42  1  0
 20 43  1  0
 21 44  1  0
 21 45  1  0
 23 46  1  0
 23 47  1  0
M  END
>  <meeko>  (2) 
{"is_sidechain": [false], "free_energy": -7.564, "intermolecular_energy": -9.904, "internal_energy": -0.494}

$$$$
ligand_42_conformer_3_docked
     RDKit          3D

 47 49  0  0  0  0  0  0  0  0999 V2000
   -0.0030   44.6400   51.6260 C   0  0  0  0  0  0  0  0  0  0  0  0
    0.0440   45.3590   52.8430 O   0  0  0  0  0  0  0  0  0  0  0  0
    0.6330   44.6310   53.9210 C   0  0  1  0  0  0  0  0  0  0  0  0
    2.0170   45.1580   54.3130 C   0  0  0  0  0  0  0  0  0  0  0  0
    2.2770   45.6480   55.5460 N   0  0  0  0  0  0  0  0  0  0  0  0
    3.5340   46.0650   55.5560 N   0  0  0  0  0  0  0  0  0  0  0  0
    4.0210   45.8400   54.3230 C   0  0  0  0  0  0  0  0  0  0  0  0
    3.0990   45.3030   53.5100 N   0  0  0  0  0  0  0  0  0  0  0  0
    3.3510   44.9070   52.1250 C   0  0  0  0  0  0  0  0  0  0  0  0
    4.5170   45.7190   51.5490 C   0  0  0  0  0  0  0  0  0  0  0  0
    5.6490   45.7500   52.4940 N   0  0  0  0  0  0  0  0  0  0  0  0
    7.0050   45.6830   52.0100 C   0  0  0  0  0  0  0  0  0  0  0  0
    7.2350   45.3310   50.8210 O   0  0  0  0  0  0  0  0  0  0  0  0
    8.0630   46.0110   52.8740 O   0  0  0  0  0  0  0  0  0  0  0  0
    9.0330   47.0500   52.6780 C   0  0  0  0  0  0  0  0  0  0  0  0
    8.4080   48.2440   51.9310 C   0  0  0  0  0  0  0  0  0  0  0  0
   10.2580   46.5110   51.9130 C   0  0  0  0  0  0  0  0  0  0  0  0
    9.4850   47.5180   54.0700 C   0  0  0  0  0  0  0  0  0  0  0  0
    5.4210   46.1510   53.8930 C   0  0  0  0  0  0  0  0  0  0  0  0
   -0.3010   44.7740   55.1060 C   0  0  0  0  0  0  0  0  0  0  0  0
   -1.3250   43.6790   54.8850 C   0  0  0  0  0  0  0  0  0  0  0  0
   -0.7580   42.6780   54.0740 O   0  0  0  0  0  0  0  0  0  0  0  0
    0.5330   43.1110   53.7130 C   0  0  0  0  0  0  0  0  0  0  0  0
   -0.0734   43.5631   51.8388 H   0  0  0  0  0  0  0  0  0  0  0  0
   -0.8823   44.9574   51.0463 H   0  0  0  0  0  0  0  0  0  0  0  0
    0.9102   44.8403   51.0463 H   0  0  0  0  0  0  0  0  0  0  0  0
    3.6020   43.8365   52.0925 H   0  0  0  0  0  0  0  0  0  0  0  0
    2.4485   45.0980   51.5259 H   0  0  0  0  0  0  0  0  0  0  0  0
    4.8466   45.2583   50.6060 H   0  0  0  0  0  0  0  0  0  0  0  0
    4.1762   46.7498   51.3721 H   0  0  0  0  0  0  0  0  0  0  0  0
    8.0261   48.9736   52.6603 H   0  0  0  0  0  0  0  0  0  0  0  0
    9.1716   48.7219   51.2997 H   0  0  0  0  0  0  0  0  0  0  0  0
    7.5801   47.8889   51.2997 H   0  0  0  0  0  0  0  0  0  0  0  0
   11.0204   46.1755   52.6314 H   0  0  0  0  0  0  0  0  0  0  0  0
    9.9521   45.6643   51.2808 H   0  0  0  0  0  0  0  0  0  0  0  0
   10.6756   47.3085   51.2808 H   0  0  0  0  0  0  0  0  0  0  0  0
    8.9402   46.9539   54.8413 H   0  0  0  0  0  0  0  0  0  0  0  0
   10.5652   47.3436   54.1826 H   0  0  0  0  0  0  0  0  0  0  0  0
    9.2732   48.5915   54.1826 H   0  0  0  0  0  0  0  0  0  0  0  0
    6.1246   45.6082   54.5413 H   0  0  0  0  0  0  0  0  0  0  0  0
    5.5779   47.2367   53.9746 H   0  0  0  0  0  0  0  0  0  0  0  0
    0.2387   44.6221   56.0524 H   0  0  0  0  0  0  0  0  0  0  0  0
   -0.7527   45.7745   55.1766 H   0  0  0  0  0  0  0  0  0  0  0  0
   -1.6179   43.2471   55.8533 H   0  0  0  0  0  0  0  0  0  0  0  0
   -2.2151   44.0967   54.3919 H   0  0  0  0  0  0  0  0  0  0  0  0
    1.2802   42.6038   54.3410 H   0  0  0  0  0  0  0  0  0  0  0  0
    0.7219   42.8693   52.6566 H   0  0  0  0  0  0  0  0  0  0  0  0
  1  2  1  0
  3  2  1  6
  3  4  1  0
  4  5  2  0
  5  6  1  0
  6  7  2  0
  7  8  1  0
  8  9  1  0
  9 10  1  0
 10 11  1  0
 11 12  1  0
 12 13  2  0
 12 14  1  0
 14 15  1  0
 15 16  1  0
 15 17  1  0
 15 18  1  0
 11 19  1  0
  3 20  1  0
 20 21  1  0
 21 22  1  0
 22 23  1  0
 23  3  1  0
  8  4  1  0
 19  7  1  0
  1 24  1  0
  1 25  1  0
  1 26  1  0
  9 27  1  0
  9 28  1  0
 10 29  1  0
 10 30  1  0
 16 31  1  0
 16 32  1  0
 16 33  1  0
 17 34  1  0
 17 35  1  0
 17 36  1  0
 18 37  1  0
 18 38  1  0
 18 39  1  0
 19 40  1  0
 19 41  1  0
 20 42  1  0
 20 43  1  0
 21 44  1  0
 21 45  1  0
 23 46  1  0
 23 47  1  0
M  END
>  <meeko>  (3) 
{"is_sidechain": [false], "free_energy": -7.363, "intermolecular_energy": -9.782, "internal_energy": -0.357}

$$$$
ligand_42_conformer_3_docked
     RDKit          3D

 47 49  0  0  0  0  0  0  0  0999 V2000
    8.3670   48.9540   51.2250 C   0  0  0  0  0  0  0  0  0  0  0  0
    7.9820   48.7000   52.5620 O   0  0  0  0  0  0  0  0  0  0  0  0
    8.0080   47.3180   52.9170 C   0  0  1  0  0  0  0  0  0  0  0  0
    7.0180   46.4740   52.1070 C   0  0  0  0  0  0  0  0  0  0  0  0
    7.4170   45.6730   51.0940 N   0  0  0  0  0  0  0  0  0  0  0  0
    6.3330   45.1230   50.5660 N   0  0  0  0  0  0  0  0  0  0  0  0
    5.2840   45.6070   51.2540 C   0  0  0  0  0  0  0  0  0  0  0  0
    5.6660   46.4750   52.2030 N   0  0  0  0  0  0  0  0  0  0  0  0
    4.7520   47.1270   53.1400 C   0  0  0  0  0  0  0  0  0  0  0  0
    3.3460   47.2070   52.5340 C   0  0  0  0  0  0  0  0  0  0  0  0
    2.9540   45.9100   51.9490 N   0  0  0  0  0  0  0  0  0  0  0  0
    1.5970   45.4400   52.0600 C   0  0  0  0  0  0  0  0  0  0  0  0
    1.0280   44.9110   51.0660 O   0  0  0  0  0  0  0  0  0  0  0  0
    0.9160   45.5780   53.2810 O   0  0  0  0  0  0  0  0  0  0  0  0
    0.9250   44.6460   54.3720 C   0  0  0  0  0  0  0  0  0  0  0  0
    2.0220   45.0100   55.3900 C   0  0  0  0  0  0  0  0  0  0  0  0
    1.1180   43.2070   53.8540 C   0  0  0  0  0  0  0  0  0  0  0  0
   -0.4450   44.7440   55.0620 C   0  0  0  0  0  0  0  0  0  0  0  0
    3.8570   45.2360   51.0000 C   0  0  0  0  0  0  0  0  0  0  0  0
    9.4140   46.8230   52.6430 C   0  0  0  0  0  0  0  0  0  0  0  0
   10.1720   47.1920   53.9010 C   0  0  0  0  0  0  0  0  0  0  0  0
    9.2600   47.3110   54.9670 O   0  0  0  0  0  0  0  0  0  0  0  0
    7.9690   47.1110   54.4390 C   0  0  0  0  0  0  0  0  0  0  0  0
    9.2852   49.5597   51.2166 H   0  0  0  0  0  0  0  0  0  0  0  0
    8.5522   48.0002   50.7093 H   0  0  0  0  0  0  0  0  0  0  0  0
    7.5630   49.4996   50.7093 H   0  0  0  0  0  0  0  0  0  0  0  0
    4.7133   46.5470   54.0739 H   0  0  0  0  0  0  0  0  0  0  0  0
    5.1137   48.1450   53.3468 H   0  0  0  0  0  0  0  0  0  0  0  0
    2.6284   47.4790   53.3220 H   0  0  0  0  0  0  0  0  0  0  0  0
    3.3470   47.9671   51.7388 H   0  0  0  0  0  0  0  0  0  0  0  0
    1.6326   44.8808   56.4106 H   0  0  0  0  0  0  0  0  0  0  0  0
    2.8913   44.3521   55.2432 H   0  0  0  0  0  0  0  0  0  0  0  0
    2.3256   46.0570   55.2432 H   0  0  0  0  0  0  0  0  0  0  0  0
    1.2102   42.5193   54.7076 H   0  0  0  0  0  0  0  0  0  0  0  0
    0.2506   42.9180   53.2424 H   0  0  0  0  0  0  0  0  0  0  0  0
    2.0309   43.1568   53.2424 H   0  0  0  0  0  0  0  0  0  0  0  0
   -0.3074   44.7342   56.1533 H   0  0  0  0  0  0  0  0  0  0  0  0
   -0.9399   45.6798   54.7632 H   0  0  0  0  0  0  0  0  0  0  0  0
   -1.0681   43.8881   54.7632 H   0  0  0  0  0  0  0  0  0  0  0  0
    3.7445   44.1472   51.1093 H   0  0  0  0  0  0  0  0  0  0  0  0
    3.5908   45.5532   49.9809 H   0  0  0  0  0  0  0  0  0  0  0  0
    9.4233   45.7346   52.4837 H   0  0  0  0  0  0  0  0  0  0  0  0
    9.8527   47.2622   51.7349 H   0  0  0  0  0  0  0  0  0  0  0  0
   10.9084   46.4080   54.1313 H   0  0  0  0  0  0  0  0  0  0  0  0
   10.6967   48.1473   53.7522 H   0  0  0  0  0  0  0  0  0  0  0  0
    7.6346   46.0872   54.6626 H   0  0  0  0  0  0  0  0  0  0  0  0
    7.2692   47.8289   54.8918 H   0  0  0  0  0  0  0  0  0  0  0  0
  1  2  1  0
  3  2  1  1
  3  4  1  0
  4  5  2  0
  5  6  1  0
  6  7  2  0
  7  8  1  0
  8  9  1  0
  9 10  1  0
 10 11  1  0
 11 12  1  0
 12 13  2  0
 12 14  1  0
 14 15  1  0
 15 16  1  0
 15 17  1  0
 15 18  1  0
 11 19  1  0
  3 20  1  0
 20 21  1  0
 21 22  1  0
 22 23  1  0
 23  3  1  0
  8  4  1  0
 19  7  1  0
  1 24  1  0
  1 25  1  0
  1 26  1  0
  9 27  1  0
  9 28  1  0
 10 29  1  0
 10 30  1  0
 16 31  1  0
 16 32  1  0
 16 33  1  0
 17 34  1  0
 17 35  1  0
 17 36  1  0
 18 37  1  0
 18 38  1  0
 18 39  1  0
 19 40  1  0
 19 41  1  0
 20 42  1  0
 20 43  1  0
 21 44  1  0
 21 45  1  0
 23 46  1  0
 23 47  1  0
M  END
>  <meeko>  (4) 
{"is_sidechain": [false], "free_energy": -7.237, "intermolecular_energy": -9.453, "internal_energy": -0.522}

$$$$
ligand_42_conformer_3_docked
     RDKit          3D

 47 49  0  0  0  0  0  0  0  0999 V2000
    0.0970   44.1520   54.6590 C   0  0  0  0  0  0  0  0  0  0  0  0
    0.4190   43.2700   53.6010 O   0  0  0  0  0  0  0  0  0  0  0  0
    0.8280   43.9320   52.4040 C   0  0  1  0  0  0  0  0  0  0  0  0
    2.3410   43.8670   52.1720 C   0  0  0  0  0  0  0  0  0  0  0  0
    2.8920   43.0530   51.2440 N   0  0  0  0  0  0  0  0  0  0  0  0
    4.2080   43.1880   51.3210 N   0  0  0  0  0  0  0  0  0  0  0  0
    4.4450   44.0710   52.3060 C   0  0  0  0  0  0  0  0  0  0  0  0
    3.3090   44.4960   52.8820 N   0  0  0  0  0  0  0  0  0  0  0  0
    3.2490   45.4930   53.9490 C   0  0  0  0  0  0  0  0  0  0  0  0
    4.5690   45.5110   54.7280 C   0  0  0  0  0  0  0  0  0  0  0  0
    5.7210   45.5290   53.8060 N   0  0  0  0  0  0  0  0  0  0  0  0
    6.8930   46.3060   54.1180 C   0  0  0  0  0  0  0  0  0  0  0  0
    6.8240   47.2450   54.9570 O   0  0  0  0  0  0  0  0  0  0  0  0
    8.1080   46.0090   53.4800 O   0  0  0  0  0  0  0  0  0  0  0  0
    9.0950   46.9550   53.0390 C   0  0  0  0  0  0  0  0  0  0  0  0
    9.9150   47.4800   54.2320 C   0  0  0  0  0  0  0  0  0  0  0  0
    8.4280   48.1200   52.2820 C   0  0  0  0  0  0  0  0  0  0  0  0
   10.0360   46.2130   52.0780 C   0  0  0  0  0  0  0  0  0  0  0  0
    5.8060   44.5310   52.7260 C   0  0  0  0  0  0  0  0  0  0  0  0
    0.1250   43.2340   51.2570 C   0  0  0  0  0  0  0  0  0  0  0  0
   -1.2290   43.9110   51.2050 C   0  0  0  0  0  0  0  0  0  0  0  0
   -1.1250   45.1870   51.7880 O   0  0  0  0  0  0  0  0  0  0  0  0
    0.1920   45.3240   52.2680 C   0  0  0  0  0  0  0  0  0  0  0  0
    0.2795   43.6520   55.6216 H   0  0  0  0  0  0  0  0  0  0  0  0
    0.7242   45.0530   54.5891 H   0  0  0  0  0  0  0  0  0  0  0  0
   -0.9632   44.4369   54.5891 H   0  0  0  0  0  0  0  0  0  0  0  0
    3.0723   46.4859   53.5097 H   0  0  0  0  0  0  0  0  0  0  0  0
    2.4291   45.2363   54.6359 H   0  0  0  0  0  0  0  0  0  0  0  0
    4.6010   46.4088   55.3628 H   0  0  0  0  0  0  0  0  0  0  0  0
    4.6261   44.6029   55.3462 H   0  0  0  0  0  0  0  0  0  0  0  0
    9.4336   47.1718   55.1718 H   0  0  0  0  0  0  0  0  0  0  0  0
   10.9329   47.0652   54.1882 H   0  0  0  0  0  0  0  0  0  0  0  0
    9.9643   48.5780   54.1882 H   0  0  0  0  0  0  0  0  0  0  0  0
    8.0162   48.8392   53.0053 H   0  0  0  0  0  0  0  0  0  0  0  0
    9.1753   48.6224   51.6502 H   0  0  0  0  0  0  0  0  0  0  0  0
    7.6164   47.7299   51.6502 H   0  0  0  0  0  0  0  0  0  0  0  0
   10.7701   45.6341   52.6577 H   0  0  0  0  0  0  0  0  0  0  0  0
    9.4498   45.5315   51.4441 H   0  0  0  0  0  0  0  0  0  0  0  0
   10.5620   46.9420   51.4441 H   0  0  0  0  0  0  0  0  0  0  0  0
    6.3155   44.9808   51.8611 H   0  0  0  0  0  0  0  0  0  0  0  0
    6.3681   43.6618   53.0983 H   0  0  0  0  0  0  0  0  0  0  0  0
    0.6729   43.3785   50.3142 H   0  0  0  0  0  0  0  0  0  0  0  0
    0.0537   42.1454   51.3981 H   0  0  0  0  0  0  0  0  0  0  0  0
   -1.5526   44.0089   50.1582 H   0  0  0  0  0  0  0  0  0  0  0  0
   -1.9670   43.3094   51.7559 H   0  0  0  0  0  0  0  0  0  0  0  0
    0.7796   45.9295   51.5623 H   0  0  0  0  0  0  0  0  0  0  0  0
    0.1777   45.8210   53.2492 H   0  0  0  0  0  0  0  0  0  0  0  0
  1  2  1  0
  3  2  1  1
  3  4  1  0
  4  5  2  0
  5  6  1  0
  6  7  2  0
  7  8  1  0
  8  9  1  0
  9 10  1  0
 10 11  1  0
 11 12  1  0
 12 13  2  0
 12 14  1  0
 14 15  1  0
 15 16  1  0
 15 17  1  0
 15 18  1  0
 11 19  1  0
  3 20  1  0
 20 21  1  0
 21 22  1  0
 22 23  1  0
 23  3  1  0
  8  4  1  0
 19  7  1  0
  1 24  1  0
  1 25  1  0
  1 26  1  0
  9 27  1  0
  9 28  1  0
 10 29  1  0
 10 30  1  0
 16 31  1  0
 16 32  1  0
 16 33  1  0
 17 34  1  0
 17 35  1  0
 17 36  1  0
 18 37  1  0
 18 38  1  0
 18 39  1  0
 19 40  1  0
 19 41  1  0
 20 42  1  0
 20 43  1  0
 21 44  1  0
 21 45  1  0
 23 46  1  0
 23 47  1  0
M  END
>  <meeko>  (5) 
{"is_sidechain": [false], "free_energy": -7.137, "intermolecular_energy": -9.668, "internal_energy": -0.179}

$$$$
