ligand_8_conformer_5_docked
     RDKit          3D

 55 58  0  0  0  0  0  0  0  0999 V2000
    2.4010   41.9290   50.4410 O   0  0  0  0  0  0  0  0  0  0  0  0
    2.7200   42.8990   51.1820 C   0  0  0  0  0  0  0  0  0  0  0  0
    1.8460   43.2800   52.2550 N   0  0  0  0  0  0  0  0  0  0  0  0
    0.5610   42.6060   52.4810 C   0  0  2  0  0  0  0  0  0  0  0  0
   -0.5780   43.3750   51.8150 C   0  0  0  0  0  0  0  0  0  0  0  0
   -1.0930   44.3730   52.8670 C   0  0  1  0  0  0  0  0  0  0  0  0
   -2.6150   44.3510   53.0500 C   0  0  0  0  0  0  0  0  0  0  0  0
   -2.9100   43.6200   54.2850 N   0  0  0  0  0  0  0  0  0  0  0  0
   -1.7300   43.7870   55.1330 C   0  0  0  0  0  0  0  0  0  0  0  0
   -0.5210   43.9350   54.2100 C   0  0  1  0  0  0  0  0  0  0  0  0
    0.2170   42.6120   53.9640 C   0  0  0  0  0  0  0  0  0  0  0  0
    4.0010   43.6080   50.9320 C   0  0  0  0  0  0  0  0  0  0  0  0
    4.0770   45.0000   51.1160 C   0  0  0  0  0  0  0  0  0  0  0  0
    5.2740   45.6830   50.8960 C   0  0  0  0  0  0  0  0  0  0  0  0
    6.4180   45.0010   50.4780 C   0  0  0  0  0  0  0  0  0  0  0  0
    7.5850   45.7520   50.2610 O   0  0  0  0  0  0  0  0  0  0  0  0
    8.8140   45.6430   50.9850 C   0  0  0  0  0  0  0  0  0  0  0  0
    8.8110   46.5800   52.2140 C   0  0  0  0  0  0  0  0  0  0  0  0
    7.8190   46.0860   53.2840 C   0  0  0  0  0  0  0  0  0  0  0  0
    7.6820   47.0970   54.4460 C   0  0  0  0  0  0  0  0  0  0  0  0
    8.9350   47.9640   54.6580 C   0  0  0  0  0  0  0  0  0  0  0  0
   10.2140   47.2010   54.3010 C   0  0  0  0  0  0  0  0  0  0  0  0
   10.2260   46.7460   52.8250 C   0  0  0  0  0  0  0  0  0  0  0  0
    6.3590   43.6030   50.3150 C   0  0  0  0  0  0  0  0  0  0  0  0
    5.1630   42.9160   50.5430 C   0  0  0  0  0  0  0  0  0  0  0  0
    2.2140   43.8920   53.0180 H   0  0  0  0  0  0  0  0  0  0  0  0
    0.6629   41.5882   52.0764 H   0  0  0  0  0  0  0  0  0  0  0  0
   -0.2090   43.9116   50.9285 H   0  0  0  0  0  0  0  0  0  0  0  0
   -1.3771   42.6978   51.4791 H   0  0  0  0  0  0  0  0  0  0  0  0
   -0.7942   45.3773   52.5321 H   0  0  0  0  0  0  0  0  0  0  0  0
   -2.9973   45.3797   53.1243 H   0  0  0  0  0  0  0  0  0  0  0  0
   -3.0970   43.8616   52.1908 H   0  0  0  0  0  0  0  0  0  0  0  0
   -2.9870   42.6000   54.0390 H   0  0  0  0  0  0  0  0  0  0  0  0
   -1.8394   44.6866   55.7565 H   0  0  0  0  0  0  0  0  0  0  0  0
   -1.6056   42.9213   55.8002 H   0  0  0  0  0  0  0  0  0  0  0  0
    0.1940   44.6353   54.6663 H   0  0  0  0  0  0  0  0  0  0  0  0
    1.1331   42.5645   54.5711 H   0  0  0  0  0  0  0  0  0  0  0  0
   -0.3985   41.7441   54.2430 H   0  0  0  0  0  0  0  0  0  0  0  0
    3.1838   45.5563   51.4366 H   0  0  0  0  0  0  0  0  0  0  0  0
    5.3164   46.7708   51.0537 H   0  0  0  0  0  0  0  0  0  0  0  0
    8.9424   44.6043   51.3236 H   0  0  0  0  0  0  0  0  0  0  0  0
    9.6416   45.9341   50.3213 H   0  0  0  0  0  0  0  0  0  0  0  0
    8.4844   47.5689   51.8600 H   0  0  0  0  0  0  0  0  0  0  0  0
    6.8331   45.9432   52.8175 H   0  0  0  0  0  0  0  0  0  0  0  0
    8.2008   45.1400   53.6954 H   0  0  0  0  0  0  0  0  0  0  0  0
    6.8318   47.7610   54.2310 H   0  0  0  0  0  0  0  0  0  0  0  0
    7.5339   46.5130   55.3663 H   0  0  0  0  0  0  0  0  0  0  0  0
    8.8628   48.8579   54.0211 H   0  0  0  0  0  0  0  0  0  0  0  0
    8.9854   48.2427   55.7209 H   0  0  0  0  0  0  0  0  0  0  0  0
   11.0793   47.8570   54.4770 H   0  0  0  0  0  0  0  0  0  0  0  0
   10.2598   46.3019   54.9331 H   0  0  0  0  0  0  0  0  0  0  0  0
   10.7737   47.4954   52.2347 H   0  0  0  0  0  0  0  0  0  0  0  0
   10.7071   45.7572   52.7967 H   0  0  0  0  0  0  0  0  0  0  0  0
    7.2582   43.0493   50.0069 H   0  0  0  0  0  0  0  0  0  0  0  0
    5.1299   41.8237   50.4171 H   0  0  0  0  0  0  0  0  0  0  0  0
  1  2  2  0
  2  3  1  0
  3  4  1  0
  4  5  1  0
  5  6  1  0
  6  7  1  0
  7  8  1  0
  8  9  1  0
  9 10  1  0
 10 11  1  0
  2 12  1  0
 12 13  2  0
 13 14  1  0
 14 15  2  0
 15 16  1  0
 16 17  1  0
 17 18  1  0
 18 19  1  0
 19 20  1  0
 20 21  1  0
 21 22  1  0
 22 23  1  0
 15 24  1  0
 24 25  2  0
 11  4  1  0
 25 12  1  0
 10  6  1  0
 23 18  1  0
  3 26  1  0
  4 27  1  6
  5 28  1  0
  5 29  1  0
  6 30  1  6
  7 31  1  0
  7 32  1  0
  8 33  1  0
  9 34  1  0
  9 35  1  0
 10 36  1  1
 11 37  1  0
 11 38  1  0
 13 39  1  0
 14 40  1  0
 17 41  1  0
 17 42  1  0
 18 43  1  0
 19 44  1  0
 19 45  1  0
 20 46  1  0
 20 47  1  0
 21 48  1  0
 21 49  1  0
 22 50  1  0
 22 51  1  0
 23 52  1  0
 23 53  1  0
 24 54  1  0
 25 55  1  0
M  END
>  <meeko>  (1) 
{"is_sidechain": [false], "free_energy": -8.667, "intermolecular_energy": -11.201, "internal_energy": -0.59}

$$$$
ligand_8_conformer_5_docked
     RDKit          3D

 55 58  0  0  0  0  0  0  0  0999 V2000
    3.0760   39.4300   49.3290 O   0  0  0  0  0  0  0  0  0  0  0  0
    3.7090   40.0990   48.4680 C   0  0  0  0  0  0  0  0  0  0  0  0
    3.5270   39.8020   47.0750 N   0  0  0  0  0  0  0  0  0  0  0  0
    2.6650   38.7010   46.6260 C   0  0  2  0  0  0  0  0  0  0  0  0
    3.4920   37.6000   45.9670 C   0  0  0  0  0  0  0  0  0  0  0  0
    3.5570   37.9520   44.4710 C   0  0  1  0  0  0  0  0  0  0  0  0
    3.1940   36.7860   43.5430 C   0  0  0  0  0  0  0  0  0  0  0  0
    1.8310   37.0080   43.0530 N   0  0  0  0  0  0  0  0  0  0  0  0
    1.6330   38.4580   43.0840 C   0  0  0  0  0  0  0  0  0  0  0  0
    2.4930   39.0120   44.2180 C   0  0  1  0  0  0  0  0  0  0  0  0
    1.7210   39.1840   45.5340 C   0  0  0  0  0  0  0  0  0  0  0  0
    4.6130   41.1880   48.9190 C   0  0  0  0  0  0  0  0  0  0  0  0
    4.4260   41.7720   50.1840 C   0  0  0  0  0  0  0  0  0  0  0  0
    5.2700   42.7910   50.6300 C   0  0  0  0  0  0  0  0  0  0  0  0
    6.3100   43.2590   49.8250 C   0  0  0  0  0  0  0  0  0  0  0  0
    7.1120   44.2950   50.3300 O   0  0  0  0  0  0  0  0  0  0  0  0
    6.6550   45.5250   50.9010 C   0  0  0  0  0  0  0  0  0  0  0  0
    7.6750   46.0650   51.9280 C   0  0  0  0  0  0  0  0  0  0  0  0
    9.1020   46.0580   51.3470 C   0  0  0  0  0  0  0  0  0  0  0  0
   10.1550   46.4380   52.4130 C   0  0  0  0  0  0  0  0  0  0  0  0
    9.6020   47.3420   53.5300 C   0  0  0  0  0  0  0  0  0  0  0  0
    8.5010   48.2700   53.0080 C   0  0  0  0  0  0  0  0  0  0  0  0
    7.3040   47.4840   52.4300 C   0  0  0  0  0  0  0  0  0  0  0  0
    6.5210   42.6640   48.5670 C   0  0  0  0  0  0  0  0  0  0  0  0
    5.6820   41.6380   48.1220 C   0  0  0  0  0  0  0  0  0  0  0  0
    3.8320   40.5020   46.3610 H   0  0  0  0  0  0  0  0  0  0  0  0
    2.1291   38.3366   47.5148 H   0  0  0  0  0  0  0  0  0  0  0  0
    4.5040   37.5735   46.3972 H   0  0  0  0  0  0  0  0  0  0  0  0
    3.0420   36.6091   46.1273 H   0  0  0  0  0  0  0  0  0  0  0  0
    4.5907   38.2619   44.2580 H   0  0  0  0  0  0  0  0  0  0  0  0
    3.8946   36.7505   42.6957 H   0  0  0  0  0  0  0  0  0  0  0  0
    3.2554   35.8310   44.0855 H   0  0  0  0  0  0  0  0  0  0  0  0
    1.1700   36.5790   43.7500 H   0  0  0  0  0  0  0  0  0  0  0  0
    1.9435   38.9005   42.1260 H   0  0  0  0  0  0  0  0  0  0  0  0
    0.5727   38.7019   43.2458 H   0  0  0  0  0  0  0  0  0  0  0  0
    2.8765   40.0004   43.9249 H   0  0  0  0  0  0  0  0  0  0  0  0
    1.4602   40.2410   45.6913 H   0  0  0  0  0  0  0  0  0  0  0  0
    0.7778   38.6180   45.5305 H   0  0  0  0  0  0  0  0  0  0  0  0
    3.6064   41.4226   50.8291 H   0  0  0  0  0  0  0  0  0  0  0  0
    5.1137   43.2298   51.6265 H   0  0  0  0  0  0  0  0  0  0  0  0
    6.5222   46.2672   50.1000 H   0  0  0  0  0  0  0  0  0  0  0  0
    5.7000   45.3419   51.4152 H   0  0  0  0  0  0  0  0  0  0  0  0
    7.6429   45.3878   52.7943 H   0  0  0  0  0  0  0  0  0  0  0  0
    9.3272   45.0507   50.9667 H   0  0  0  0  0  0  0  0  0  0  0  0
    9.1471   46.8034   50.5393 H   0  0  0  0  0  0  0  0  0  0  0  0
   10.5361   45.5132   52.8706 H   0  0  0  0  0  0  0  0  0  0  0  0
   10.9443   47.0061   51.8990 H   0  0  0  0  0  0  0  0  0  0  0  0
    9.1875   46.7098   54.3290 H   0  0  0  0  0  0  0  0  0  0  0  0
   10.4259   47.9639   53.9102 H   0  0  0  0  0  0  0  0  0  0  0  0
    8.1450   48.8993   53.8370 H   0  0  0  0  0  0  0  0  0  0  0  0
    8.9281   48.8802   52.1985 H   0  0  0  0  0  0  0  0  0  0  0  0
    6.5407   47.3859   53.2160 H   0  0  0  0  0  0  0  0  0  0  0  0
    6.9390   48.0482   51.5591 H   0  0  0  0  0  0  0  0  0  0  0  0
    7.3500   43.0079   47.9309 H   0  0  0  0  0  0  0  0  0  0  0  0
    5.8593   41.1777   47.1388 H   0  0  0  0  0  0  0  0  0  0  0  0
  1  2  2  0
  2  3  1  0
  3  4  1  0
  4  5  1  0
  5  6  1  0
  6  7  1  0
  7  8  1  0
  8  9  1  0
  9 10  1  0
 10 11  1  0
  2 12  1  0
 12 13  2  0
 13 14  1  0
 14 15  2  0
 15 16  1  0
 16 17  1  0
 17 18  1  0
 18 19  1  0
 19 20  1  0
 20 21  1  0
 21 22  1  0
 22 23  1  0
 15 24  1  0
 24 25  2  0
 11  4  1  0
 25 12  1  0
 10  6  1  0
 23 18  1  0
  3 26  1  0
  4 27  1  1
  5 28  1  0
  5 29  1  0
  6 30  1  6
  7 31  1  0
  7 32  1  0
  8 33  1  0
  9 34  1  0
  9 35  1  0
 10 36  1  6
 11 37  1  0
 11 38  1  0
 13 39  1  0
 14 40  1  0
 17 41  1  0
 17 42  1  0
 18 43  1  0
 19 44  1  0
 19 45  1  0
 20 46  1  0
 20 47  1  0
 21 48  1  0
 21 49  1  0
 22 50  1  0
 22 51  1  0
 23 52  1  0
 23 53  1  0
 24 54  1  0
 25 55  1  0
M  END
>  <meeko>  (2) 
{"is_sidechain": [false], "free_energy": -8.263, "intermolecular_energy": -10.708, "internal_energy": -0.56}

$$$$
ligand_8_conformer_5_docked
     RDKit          3D

 55 58  0  0  0  0  0  0  0  0999 V2000
    2.0920   44.9650   56.0380 O   0  0  0  0  0  0  0  0  0  0  0  0
    2.5770   44.8800   54.8770 C   0  0  0  0  0  0  0  0  0  0  0  0
    1.9050   44.0790   53.8930 N   0  0  0  0  0  0  0  0  0  0  0  0
    0.6970   43.3090   54.2180 C   0  0  2  0  0  0  0  0  0  0  0  0
    0.3730   42.3150   53.1060 C   0  0  0  0  0  0  0  0  0  0  0  0
   -0.5520   43.0570   52.1250 C   0  0  1  0  0  0  0  0  0  0  0  0
   -1.8200   42.2770   51.7570 C   0  0  0  0  0  0  0  0  0  0  0  0
   -2.9370   42.8520   52.5110 N   0  0  0  0  0  0  0  0  0  0  0  0
   -2.5680   44.2470   52.7580 C   0  0  0  0  0  0  0  0  0  0  0  0
   -1.0440   44.3080   52.8410 C   0  0  1  0  0  0  0  0  0  0  0  0
   -0.5130   44.2300   54.2790 C   0  0  0  0  0  0  0  0  0  0  0  0
    3.8200   45.6270   54.5550 C   0  0  0  0  0  0  0  0  0  0  0  0
    5.0640   45.1260   54.9740 C   0  0  0  0  0  0  0  0  0  0  0  0
    6.2450   45.8090   54.6740 C   0  0  0  0  0  0  0  0  0  0  0  0
    6.2130   47.0080   53.9610 C   0  0  0  0  0  0  0  0  0  0  0  0
    7.4360   47.6500   53.7050 O   0  0  0  0  0  0  0  0  0  0  0  0
    7.8600   48.2090   52.4590 C   0  0  0  0  0  0  0  0  0  0  0  0
    8.6260   47.1610   51.6210 C   0  0  0  0  0  0  0  0  0  0  0  0
    9.6140   46.3670   52.4950 C   0  0  0  0  0  0  0  0  0  0  0  0
   10.5050   45.4310   51.6460 C   0  0  0  0  0  0  0  0  0  0  0  0
    9.8440   44.9790   50.3310 C   0  0  0  0  0  0  0  0  0  0  0  0
    8.3250   44.8550   50.4800 C   0  0  0  0  0  0  0  0  0  0  0  0
    7.6680   46.1950   50.8760 C   0  0  0  0  0  0  0  0  0  0  0  0
    4.9740   47.5050   53.5150 C   0  0  0  0  0  0  0  0  0  0  0  0
    3.7920   46.8190   53.8070 C   0  0  0  0  0  0  0  0  0  0  0  0
    2.1410   44.2090   52.8830 H   0  0  0  0  0  0  0  0  0  0  0  0
    0.8919   42.8053   55.1763 H   0  0  0  0  0  0  0  0  0  0  0  0
    1.2950   41.9989   52.5962 H   0  0  0  0  0  0  0  0  0  0  0  0
   -0.1080   41.4096   53.5045 H   0  0  0  0  0  0  0  0  0  0  0  0
    0.0283   43.2361   51.2078 H   0  0  0  0  0  0  0  0  0  0  0  0
   -2.0130   42.3651   50.6776 H   0  0  0  0  0  0  0  0  0  0  0  0
   -1.6996   41.2117   52.0031 H   0  0  0  0  0  0  0  0  0  0  0  0
   -2.9780   42.3620   53.4400 H   0  0  0  0  0  0  0  0  0  0  0  0
   -2.9255   44.8821   51.9341 H   0  0  0  0  0  0  0  0  0  0  0  0
   -3.0229   44.6098   53.6915 H   0  0  0  0  0  0  0  0  0  0  0  0
   -0.7008   45.2603   52.4104 H   0  0  0  0  0  0  0  0  0  0  0  0
   -0.2183   45.2284   54.6344 H   0  0  0  0  0  0  0  0  0  0  0  0
   -1.2767   43.8537   54.9755 H   0  0  0  0  0  0  0  0  0  0  0  0
    5.1084   44.1863   55.5441 H   0  0  0  0  0  0  0  0  0  0  0  0
    7.2104   45.3973   55.0033 H   0  0  0  0  0  0  0  0  0  0  0  0
    6.9773   48.5461   51.8958 H   0  0  0  0  0  0  0  0  0  0  0  0
    8.5306   49.0569   52.6625 H   0  0  0  0  0  0  0  0  0  0  0  0
    9.1952   47.7164   50.8610 H   0  0  0  0  0  0  0  0  0  0  0  0
   10.2571   47.0747   53.0387 H   0  0  0  0  0  0  0  0  0  0  0  0
    9.0322   45.7465   53.1925 H   0  0  0  0  0  0  0  0  0  0  0  0
   11.4362   45.9634   51.4024 H   0  0  0  0  0  0  0  0  0  0  0  0
   10.6858   44.5261   52.2447 H   0  0  0  0  0  0  0  0  0  0  0  0
   10.0671   45.7172   49.5466 H   0  0  0  0  0  0  0  0  0  0  0  0
   10.2464   43.9906   50.0644 H   0  0  0  0  0  0  0  0  0  0  0  0
    7.9008   44.5218   49.5214 H   0  0  0  0  0  0  0  0  0  0  0  0
    8.1218   44.1288   51.2808 H   0  0  0  0  0  0  0  0  0  0  0  0
    7.3149   46.6928   49.9609 H   0  0  0  0  0  0  0  0  0  0  0  0
    6.8462   45.9589   51.5680 H   0  0  0  0  0  0  0  0  0  0  0  0
    4.9359   48.4381   52.9337 H   0  0  0  0  0  0  0  0  0  0  0  0
    2.8301   47.2145   53.4487 H   0  0  0  0  0  0  0  0  0  0  0  0
  1  2  2  0
  2  3  1  0
  3  4  1  0
  4  5  1  0
  5  6  1  0
  6  7  1  0
  7  8  1  0
  8  9  1  0
  9 10  1  0
 10 11  1  0
  2 12  1  0
 12 13  2  0
 13 14  1  0
 14 15  2  0
 15 16  1  0
 16 17  1  0
 17 18  1  0
 18 19  1  0
 19 20  1  0
 20 21  1  0
 21 22  1  0
 22 23  1  0
 15 24  1  0
 24 25  2  0
 11  4  1  0
 25 12  1  0
 10  6  1  0
 23 18  1  0
  3 26  1  0
  4 27  1  1
  5 28  1  0
  5 29  1  0
  6 30  1  6
  7 31  1  0
  7 32  1  0
  8 33  1  0
  9 34  1  0
  9 35  1  0
 10 36  1  6
 11 37  1  0
 11 38  1  0
 13 39  1  0
 14 40  1  0
 17 41  1  0
 17 42  1  0
 18 43  1  0
 19 44  1  0
 19 45  1  0
 20 46  1  0
 20 47  1  0
 21 48  1  0
 21 49  1  0
 22 50  1  0
 22 51  1  0
 23 52  1  0
 23 53  1  0
 24 54  1  0
 25 55  1  0
M  END
>  <meeko>  (3) 
{"is_sidechain": [false], "free_energy": -8.049, "intermolecular_energy": -10.255, "internal_energy": -0.737}

$$$$
ligand_8_conformer_5_docked
     RDKit          3D

 55 58  0  0  0  0  0  0  0  0999 V2000
    6.3750   41.2090   50.0980 O   0  0  0  0  0  0  0  0  0  0  0  0
    5.5790   42.1190   49.7370 C   0  0  0  0  0  0  0  0  0  0  0  0
    4.8250   41.9520   48.5260 N   0  0  0  0  0  0  0  0  0  0  0  0
    4.9980   40.7760   47.6650 C   0  0  2  0  0  0  0  0  0  0  0  0
    5.3880   41.1940   46.2490 C   0  0  0  0  0  0  0  0  0  0  0  0
    4.0680   41.3720   45.4770 C   0  0  1  0  0  0  0  0  0  0  0  0
    4.0360   40.6460   44.1270 C   0  0  0  0  0  0  0  0  0  0  0  0
    3.2310   39.4310   44.2880 N   0  0  0  0  0  0  0  0  0  0  0  0
    2.2940   39.7220   45.3730 C   0  0  0  0  0  0  0  0  0  0  0  0
    2.9750   40.7160   46.3120 C   0  0  1  0  0  0  0  0  0  0  0  0
    3.6730   40.0440   47.5020 C   0  0  0  0  0  0  0  0  0  0  0  0
    5.4300   43.3280   50.5860 C   0  0  0  0  0  0  0  0  0  0  0  0
    4.8080   43.2280   51.8430 C   0  0  0  0  0  0  0  0  0  0  0  0
    4.6660   44.3510   52.6590 C   0  0  0  0  0  0  0  0  0  0  0  0
    5.1290   45.6000   52.2410 C   0  0  0  0  0  0  0  0  0  0  0  0
    4.9420   46.6910   53.1060 O   0  0  0  0  0  0  0  0  0  0  0  0
    5.9370   47.3070   53.9270 C   0  0  0  0  0  0  0  0  0  0  0  0
    7.3550   46.9880   53.4030 C   0  0  0  0  0  0  0  0  0  0  0  0
    7.7740   47.9790   52.3010 C   0  0  0  0  0  0  0  0  0  0  0  0
    9.1180   47.5770   51.6510 C   0  0  0  0  0  0  0  0  0  0  0  0
   10.0370   46.7720   52.5860 C   0  0  0  0  0  0  0  0  0  0  0  0
    9.8560   47.1900   54.0490 C   0  0  0  0  0  0  0  0  0  0  0  0
    8.4090   46.9700   54.5400 C   0  0  0  0  0  0  0  0  0  0  0  0
    5.7760   45.7070   50.9950 C   0  0  0  0  0  0  0  0  0  0  0  0
    5.9260   44.5810   50.1790 C   0  0  0  0  0  0  0  0  0  0  0  0
    3.9900   42.5580   48.3600 H   0  0  0  0  0  0  0  0  0  0  0  0
    5.7699   40.1501   48.1366 H   0  0  0  0  0  0  0  0  0  0  0  0
    5.9479   42.1406   46.2710 H   0  0  0  0  0  0  0  0  0  0  0  0
    6.0341   40.4424   45.7719 H   0  0  0  0  0  0  0  0  0  0  0  0
    3.9419   42.4501   45.2985 H   0  0  0  0  0  0  0  0  0  0  0  0
    3.5833   41.2959   43.3637 H   0  0  0  0  0  0  0  0  0  0  0  0
    5.0562   40.3900   43.8052 H   0  0  0  0  0  0  0  0  0  0  0  0
    3.8740   38.6660   44.6150 H   0  0  0  0  0  0  0  0  0  0  0  0
    1.3717   40.1615   44.9653 H   0  0  0  0  0  0  0  0  0  0  0  0
    2.0258   38.8010   45.9114 H   0  0  0  0  0  0  0  0  0  0  0  0
    2.2169   41.4030   46.7161 H   0  0  0  0  0  0  0  0  0  0  0  0
    3.0636   40.1455   48.4121 H   0  0  0  0  0  0  0  0  0  0  0  0
    3.8206   38.9672   47.3327 H   0  0  0  0  0  0  0  0  0  0  0  0
    4.4293   42.2542   52.1868 H   0  0  0  0  0  0  0  0  0  0  0  0
    4.1838   44.2510   53.6426 H   0  0  0  0  0  0  0  0  0  0  0  0
    5.7865   48.3966   53.9198 H   0  0  0  0  0  0  0  0  0  0  0  0
    5.8425   46.9142   54.9501 H   0  0  0  0  0  0  0  0  0  0  0  0
    7.3139   45.9766   52.9724 H   0  0  0  0  0  0  0  0  0  0  0  0
    6.9947   47.9994   51.5249 H   0  0  0  0  0  0  0  0  0  0  0  0
    7.8986   48.9705   52.7609 H   0  0  0  0  0  0  0  0  0  0  0  0
    8.9052   46.9658   50.7615 H   0  0  0  0  0  0  0  0  0  0  0  0
    9.6473   48.5084   51.4013 H   0  0  0  0  0  0  0  0  0  0  0  0
    9.7984   45.7027   52.4878 H   0  0  0  0  0  0  0  0  0  0  0  0
   11.0801   46.9689   52.2976 H   0  0  0  0  0  0  0  0  0  0  0  0
   10.5374   46.5952   54.6749 H   0  0  0  0  0  0  0  0  0  0  0  0
   10.0804   48.2642   54.1251 H   0  0  0  0  0  0  0  0  0  0  0  0
    8.3583   45.9941   55.0450 H   0  0  0  0  0  0  0  0  0  0  0  0
    8.1682   47.8049   55.2145 H   0  0  0  0  0  0  0  0  0  0  0  0
    6.1652   46.6804   50.6619 H   0  0  0  0  0  0  0  0  0  0  0  0
    6.4367   44.6755   49.2094 H   0  0  0  0  0  0  0  0  0  0  0  0
  1  2  2  0
  2  3  1  0
  3  4  1  0
  4  5  1  0
  5  6  1  0
  6  7  1  0
  7  8  1  0
  8  9  1  0
  9 10  1  0
 10 11  1  0
  2 12  1  0
 12 13  2  0
 13 14  1  0
 14 15  2  0
 15 16  1  0
 16 17  1  0
 17 18  1  0
 18 19  1  0
 19 20  1  0
 20 21  1  0
 21 22  1  0
 22 23  1  0
 15 24  1  0
 24 25  2  0
 11  4  1  0
 25 12  1  0
 10  6  1  0
 23 18  1  0
  3 26  1  0
  4 27  1  1
  5 28  1  0
  5 29  1  0
  6 30  1  6
  7 31  1  0
  7 32  1  0
  8 33  1  0
  9 34  1  0
  9 35  1  0
 10 36  1  1
 11 37  1  0
 11 38  1  0
 13 39  1  0
 14 40  1  0
 17 41  1  0
 17 42  1  0
 18 43  1  0
 19 44  1  0
 19 45  1  0
 20 46  1  0
 20 47  1  0
 21 48  1  0
 21 49  1  0
 22 50  1  0
 22 51  1  0
 23 52  1  0
 23 53  1  0
 24 54  1  0
 25 55  1  0
M  END
>  <meeko>  (4) 
{"is_sidechain": [false], "free_energy": -7.72, "intermolecular_energy": -10.181, "internal_energy": -0.386}

$$$$
