MODEL 1
REMARK VINA RESULT:    -9.634      0.000      0.000
REMARK INTER + INTRA:         -13.068
REMARK INTER:                 -12.450
REMARK INTRA:                  -0.618
REMARK UNBOUND:                -0.618
REMARK SMILES Cc1cc(NC(=O)NC2CCN([C@H](C)c3ccccc3)CC2)nn1-c1ccc(F)cc1F
REMARK SMILES IDX 5 1 6 2 7 3 8 4 4 7 2 8 3 9 24 10 23 11 1 12 25 13 26 14
REMARK SMILES IDX 31 15 27 16 30 17 28 18 32 19 29 20 9 21 10 22 22 23 11 24
REMARK SMILES IDX 21 25 12 26 13 27 14 28 15 29 16 30 20 31 17 32 19 33 18 34
REMARK H PARENT 5 5 8 6
ROOT
ATOM      1  N   UNL     1       2.769  44.813  54.857  1.00  0.00    -0.291 N 
ATOM      2  C   UNL     1       2.635  44.343  53.507  1.00  0.00     0.320 C 
ATOM      3  O   UNL     1       1.498  44.289  52.960  1.00  0.00    -0.248 OA
ATOM      4  N   UNL     1       3.806  43.960  52.771  1.00  0.00    -0.335 N 
ATOM      5  H   UNL     1       3.730  44.992  55.227  1.00  0.00     0.173 HD
ATOM      6  H   UNL     1       4.731  44.056  53.247  1.00  0.00     0.165 HD
ENDROOT
BRANCH   1   7
ATOM      7  C   UNL     1       1.653  45.066  55.720  1.00  0.00     0.156 A 
ATOM      8  C   UNL     1      -0.275  44.936  56.712  1.00  0.00     0.043 A 
ATOM      9  C   UNL     1       0.524  44.276  55.800  1.00  0.00     0.072 A 
ATOM     10  N   UNL     1       0.374  46.046  57.143  1.00  0.00    -0.233 N 
ATOM     11  N   UNL     1       1.543  46.136  56.530  1.00  0.00    -0.150 NA
ATOM     12  C   UNL     1      -1.647  44.500  57.127  1.00  0.00     0.067 C 
BRANCH  10  13
ATOM     13  C   UNL     1      -0.096  47.024  58.084  1.00  0.00     0.101 A 
ATOM     14  C   UNL     1      -1.306  47.708  57.863  1.00  0.00     0.034 A 
ATOM     15  C   UNL     1       0.635  47.280  59.260  1.00  0.00     0.151 A 
ATOM     16  C   UNL     1      -1.761  48.650  58.790  1.00  0.00     0.041 A 
ATOM     17  C   UNL     1       0.177  48.229  60.181  1.00  0.00     0.080 A 
ATOM     18  C   UNL     1      -1.017  48.916  59.945  1.00  0.00     0.126 A 
ATOM     19  F   UNL     1       1.801  46.631  59.500  1.00  0.00    -0.205 F 
ATOM     20  F   UNL     1      -1.459  49.834  60.839  1.00  0.00    -0.207 F 
ENDBRANCH  10  13
ENDBRANCH   1   7
BRANCH   4  21
ATOM     21  C   UNL     1       3.752  43.587  51.350  1.00  0.00     0.086 C 
ATOM     22  C   UNL     1       4.991  42.762  50.950  1.00  0.00     0.040 C 
ATOM     23  C   UNL     1       3.640  44.836  50.466  1.00  0.00     0.040 C 
ATOM     24  C   UNL     1       6.155  43.629  50.435  1.00  0.00     0.087 C 
ATOM     25  C   UNL     1       4.913  45.711  50.525  1.00  0.00     0.087 C 
ATOM     26  N   UNL     1       6.108  44.982  51.035  1.00  0.00    -0.296 NA
BRANCH  26  27
ATOM     27  C   UNL     1       7.354  45.763  50.774  1.00  0.00     0.083 C 
ATOM     28  C   UNL     1       8.431  44.925  50.054  1.00  0.00     0.030 C 
BRANCH  27  29
ATOM     29  C   UNL     1       7.958  46.273  52.074  1.00  0.00    -0.031 A 
ATOM     30  C   UNL     1       7.154  46.438  53.214  1.00  0.00     0.005 A 
ATOM     31  C   UNL     1       9.324  46.607  52.144  1.00  0.00     0.005 A 
ATOM     32  C   UNL     1       7.709  46.925  54.403  1.00  0.00     0.000 A 
ATOM     33  C   UNL     1       9.875  47.093  53.334  1.00  0.00     0.000 A 
ATOM     34  C   UNL     1       9.068  47.254  54.462  1.00  0.00     0.000 A 
ENDBRANCH  27  29
ENDBRANCH  26  27
ENDBRANCH   4  21
TORSDOF 5
ENDMDL
MODEL 2
REMARK VINA RESULT:    -9.521      5.570      9.971
REMARK INTER + INTRA:         -12.922
REMARK INTER:                 -12.174
REMARK INTRA:                  -0.748
REMARK UNBOUND:                -0.618
REMARK SMILES Cc1cc(NC(=O)NC2CCN([C@H](C)c3ccccc3)CC2)nn1-c1ccc(F)cc1F
REMARK SMILES IDX 5 1 6 2 7 3 8 4 4 7 2 8 3 9 24 10 23 11 1 12 25 13 26 14
REMARK SMILES IDX 31 15 27 16 30 17 28 18 32 19 29 20 9 21 10 22 22 23 11 24
REMARK SMILES IDX 21 25 12 26 13 27 14 28 15 29 16 30 20 31 17 32 19 33 18 34
REMARK H PARENT 5 5 8 6
ROOT
ATOM      1  N   UNL     1       3.598  41.592  51.341  1.00  0.00    -0.291 N 
ATOM      2  C   UNL     1       2.714  42.660  51.715  1.00  0.00     0.320 C 
ATOM      3  O   UNL     1       2.021  43.250  50.840  1.00  0.00    -0.248 OA
ATOM      4  N   UNL     1       2.598  43.033  53.096  1.00  0.00    -0.335 N 
ATOM      5  H   UNL     1       4.038  41.024  52.100  1.00  0.00     0.173 HD
ATOM      6  H   UNL     1       3.160  42.493  53.793  1.00  0.00     0.165 HD
ENDROOT
BRANCH   1   7
ATOM      7  C   UNL     1       3.899  41.255  49.981  1.00  0.00     0.156 A 
ATOM      8  C   UNL     1       4.829  41.174  48.020  1.00  0.00     0.043 A 
ATOM      9  C   UNL     1       4.990  41.723  49.276  1.00  0.00     0.072 A 
ATOM     10  N   UNL     1       3.705  40.416  48.011  1.00  0.00    -0.233 N 
ATOM     11  N   UNL     1       3.127  40.474  49.201  1.00  0.00    -0.150 NA
ATOM     12  C   UNL     1       5.741  41.409  46.855  1.00  0.00     0.067 C 
BRANCH  10  13
ATOM     13  C   UNL     1       3.157  39.674  46.910  1.00  0.00     0.101 A 
ATOM     14  C   UNL     1       3.109  38.268  46.946  1.00  0.00     0.034 A 
ATOM     15  C   UNL     1       2.625  40.353  45.797  1.00  0.00     0.151 A 
ATOM     16  C   UNL     1       2.563  37.555  45.874  1.00  0.00     0.041 A 
ATOM     17  C   UNL     1       2.086  39.633  44.725  1.00  0.00     0.080 A 
ATOM     18  C   UNL     1       2.058  38.236  44.762  1.00  0.00     0.126 A 
ATOM     19  F   UNL     1       2.654  41.707  45.740  1.00  0.00    -0.205 F 
ATOM     20  F   UNL     1       1.534  37.541  43.722  1.00  0.00    -0.207 F 
ENDBRANCH  10  13
ENDBRANCH   1   7
BRANCH   4  21
ATOM     21  C   UNL     1       1.624  44.031  53.559  1.00  0.00     0.086 C 
ATOM     22  C   UNL     1       1.535  45.213  52.573  1.00  0.00     0.040 C 
ATOM     23  C   UNL     1       1.990  44.538  54.960  1.00  0.00     0.040 C 
ATOM     24  C   UNL     1       2.511  46.356  52.909  1.00  0.00     0.087 C 
ATOM     25  C   UNL     1       3.309  45.344  54.964  1.00  0.00     0.087 C 
ATOM     26  N   UNL     1       3.704  45.837  53.615  1.00  0.00    -0.296 NA
BRANCH  26  27
ATOM     27  C   UNL     1       4.789  46.858  53.723  1.00  0.00     0.083 C 
ATOM     28  C   UNL     1       4.271  48.291  53.477  1.00  0.00     0.030 C 
BRANCH  27  29
ATOM     29  C   UNL     1       5.893  46.587  52.712  1.00  0.00    -0.031 A 
ATOM     30  C   UNL     1       5.750  45.563  51.760  1.00  0.00     0.005 A 
ATOM     31  C   UNL     1       7.082  47.343  52.733  1.00  0.00     0.005 A 
ATOM     32  C   UNL     1       6.775  45.304  50.844  1.00  0.00     0.000 A 
ATOM     33  C   UNL     1       8.104  47.080  51.816  1.00  0.00     0.000 A 
ATOM     34  C   UNL     1       7.952  46.061  50.873  1.00  0.00     0.000 A 
ENDBRANCH  27  29
ENDBRANCH  26  27
ENDBRANCH   4  21
TORSDOF 5
ENDMDL
MODEL 3
REMARK VINA RESULT:    -8.672      3.448      8.997
REMARK INTER + INTRA:         -11.826
REMARK INTER:                 -11.023
REMARK INTRA:                  -0.803
REMARK UNBOUND:                -0.618
REMARK SMILES Cc1cc(NC(=O)NC2CCN([C@H](C)c3ccccc3)CC2)nn1-c1ccc(F)cc1F
REMARK SMILES IDX 5 1 6 2 7 3 8 4 4 7 2 8 3 9 24 10 23 11 1 12 25 13 26 14
REMARK SMILES IDX 31 15 27 16 30 17 28 18 32 19 29 20 9 21 10 22 22 23 11 24
REMARK SMILES IDX 21 25 12 26 13 27 14 28 15 29 16 30 20 31 17 32 19 33 18 34
REMARK H PARENT 5 5 8 6
ROOT
ATOM      1  N   UNL     1       1.628  42.429  52.027  1.00  0.00    -0.291 N 
ATOM      2  C   UNL     1       0.510  43.152  51.489  1.00  0.00     0.320 C 
ATOM      3  O   UNL     1       0.666  43.929  50.506  1.00  0.00    -0.248 OA
ATOM      4  N   UNL     1      -0.795  42.963  52.056  1.00  0.00    -0.335 N 
ATOM      5  H   UNL     1       1.442  41.682  52.734  1.00  0.00     0.173 HD
ATOM      6  H   UNL     1      -0.887  42.282  52.844  1.00  0.00     0.165 HD
ENDROOT
BRANCH   1   7
ATOM      7  C   UNL     1       2.985  42.667  51.634  1.00  0.00     0.156 A 
ATOM      8  C   UNL     1       4.984  42.421  50.820  1.00  0.00     0.043 A 
ATOM      9  C   UNL     1       3.761  41.787  50.907  1.00  0.00     0.072 A 
ATOM     10  N   UNL     1       4.907  43.615  51.458  1.00  0.00    -0.233 N 
ATOM     11  N   UNL     1       3.695  43.762  51.968  1.00  0.00    -0.150 NA
ATOM     12  C   UNL     1       6.200  41.857  50.152  1.00  0.00     0.067 C 
BRANCH  10  13
ATOM     13  C   UNL     1       5.949  44.590  51.621  1.00  0.00     0.101 A 
ATOM     14  C   UNL     1       6.654  45.078  50.505  1.00  0.00     0.034 A 
ATOM     15  C   UNL     1       6.249  45.097  52.900  1.00  0.00     0.151 A 
ATOM     16  C   UNL     1       7.659  46.036  50.671  1.00  0.00     0.041 A 
ATOM     17  C   UNL     1       7.260  46.050  53.060  1.00  0.00     0.080 A 
ATOM     18  C   UNL     1       7.967  46.517  51.948  1.00  0.00     0.126 A 
ATOM     19  F   UNL     1       5.582  44.647  53.991  1.00  0.00    -0.205 F 
ATOM     20  F   UNL     1       8.946  47.442  52.105  1.00  0.00    -0.207 F 
ENDBRANCH  10  13
ENDBRANCH   1   7
BRANCH   4  21
ATOM     21  C   UNL     1      -1.998  43.577  51.476  1.00  0.00     0.086 C 
ATOM     22  C   UNL     1      -1.933  45.115  51.573  1.00  0.00     0.040 C 
ATOM     23  C   UNL     1      -3.262  43.056  52.173  1.00  0.00     0.040 C 
ATOM     24  C   UNL     1      -2.563  45.666  52.867  1.00  0.00     0.087 C 
ATOM     25  C   UNL     1      -3.345  43.507  53.649  1.00  0.00     0.087 C 
ATOM     26  N   UNL     1      -2.470  44.672  53.961  1.00  0.00    -0.296 NA
BRANCH  26  27
ATOM     27  C   UNL     1      -2.824  45.256  55.289  1.00  0.00     0.083 C 
ATOM     28  C   UNL     1      -3.648  46.554  55.159  1.00  0.00     0.030 C 
BRANCH  27  29
ATOM     29  C   UNL     1      -1.571  45.585  56.089  1.00  0.00    -0.031 A 
ATOM     30  C   UNL     1      -1.615  46.541  57.118  1.00  0.00     0.005 A 
ATOM     31  C   UNL     1      -0.348  44.952  55.792  1.00  0.00     0.005 A 
ATOM     32  C   UNL     1      -0.457  46.854  57.838  1.00  0.00     0.000 A 
ATOM     33  C   UNL     1       0.807  45.268  56.515  1.00  0.00     0.000 A 
ATOM     34  C   UNL     1       0.753  46.220  57.536  1.00  0.00     0.000 A 
ENDBRANCH  27  29
ENDBRANCH  26  27
ENDBRANCH   4  21
TORSDOF 5
ENDMDL
MODEL 4
REMARK VINA RESULT:    -8.616      3.152      9.038
REMARK INTER + INTRA:         -11.753
REMARK INTER:                 -11.590
REMARK INTRA:                  -0.164
REMARK UNBOUND:                -0.618
REMARK SMILES Cc1cc(NC(=O)NC2CCN([C@H](C)c3ccccc3)CC2)nn1-c1ccc(F)cc1F
REMARK SMILES IDX 5 1 6 2 7 3 8 4 4 7 2 8 3 9 24 10 23 11 1 12 25 13 26 14
REMARK SMILES IDX 31 15 27 16 30 17 28 18 32 19 29 20 9 21 10 22 22 23 11 24
REMARK SMILES IDX 21 25 12 26 13 27 14 28 15 29 16 30 20 31 17 32 19 33 18 34
REMARK H PARENT 5 5 8 6
ROOT
ATOM      1  N   UNL     1       1.950  46.138  52.481  1.00  0.00    -0.291 N 
ATOM      2  C   UNL     1       0.854  45.270  52.156  1.00  0.00     0.320 C 
ATOM      3  O   UNL     1       1.069  44.133  51.652  1.00  0.00    -0.248 OA
ATOM      4  N   UNL     1      -0.489  45.690  52.437  1.00  0.00    -0.335 N 
ATOM      5  H   UNL     1       1.752  47.002  53.036  1.00  0.00     0.173 HD
ATOM      6  H   UNL     1      -0.621  46.623  52.891  1.00  0.00     0.165 HD
ENDROOT
BRANCH   1   7
ATOM      7  C   UNL     1       3.306  45.877  52.097  1.00  0.00     0.156 A 
ATOM      8  C   UNL     1       5.068  45.037  51.144  1.00  0.00     0.043 A 
ATOM      9  C   UNL     1       3.689  44.979  51.121  1.00  0.00     0.072 A 
ATOM     10  N   UNL     1       5.455  45.937  52.082  1.00  0.00    -0.233 N 
ATOM     11  N   UNL     1       4.385  46.440  52.675  1.00  0.00    -0.150 NA
ATOM     12  C   UNL     1       5.979  44.211  50.287  1.00  0.00     0.067 C 
BRANCH  10  13
ATOM     13  C   UNL     1       6.796  46.301  52.446  1.00  0.00     0.101 A 
ATOM     14  C   UNL     1       7.599  47.047  51.564  1.00  0.00     0.034 A 
ATOM     15  C   UNL     1       7.306  45.946  53.709  1.00  0.00     0.151 A 
ATOM     16  C   UNL     1       8.900  47.407  51.930  1.00  0.00     0.041 A 
ATOM     17  C   UNL     1       8.611  46.304  54.068  1.00  0.00     0.080 A 
ATOM     18  C   UNL     1       9.408  47.031  53.178  1.00  0.00     0.126 A 
ATOM     19  F   UNL     1       6.552  45.232  54.579  1.00  0.00    -0.205 F 
ATOM     20  F   UNL     1      10.671  47.378  53.528  1.00  0.00    -0.207 F 
ENDBRANCH  10  13
ENDBRANCH   1   7
BRANCH   4  21
ATOM     21  C   UNL     1      -1.645  44.803  52.243  1.00  0.00     0.086 C 
ATOM     22  C   UNL     1      -2.963  45.539  52.558  1.00  0.00     0.040 C 
ATOM     23  C   UNL     1      -1.517  43.548  53.117  1.00  0.00     0.040 C 
ATOM     24  C   UNL     1      -3.399  45.395  54.029  1.00  0.00     0.087 C 
ATOM     25  C   UNL     1      -1.606  43.874  54.626  1.00  0.00     0.087 C 
ATOM     26  N   UNL     1      -2.223  45.200  54.908  1.00  0.00    -0.296 NA
BRANCH  26  27
ATOM     27  C   UNL     1      -2.571  45.322  56.356  1.00  0.00     0.083 C 
ATOM     28  C   UNL     1      -3.839  46.170  56.584  1.00  0.00     0.030 C 
BRANCH  27  29
ATOM     29  C   UNL     1      -1.435  45.971  57.134  1.00  0.00    -0.031 A 
ATOM     30  C   UNL     1      -1.688  47.064  57.980  1.00  0.00     0.005 A 
ATOM     31  C   UNL     1      -0.115  45.500  56.998  1.00  0.00     0.005 A 
ATOM     32  C   UNL     1      -0.639  47.671  58.680  1.00  0.00     0.000 A 
ATOM     33  C   UNL     1       0.930  46.109  57.699  1.00  0.00     0.000 A 
ATOM     34  C   UNL     1       0.669  47.194  58.538  1.00  0.00     0.000 A 
ENDBRANCH  27  29
ENDBRANCH  26  27
ENDBRANCH   4  21
TORSDOF 5
ENDMDL
MODEL 5
REMARK VINA RESULT:    -8.425      3.415      9.770
REMARK INTER + INTRA:         -11.506
REMARK INTER:                 -11.140
REMARK INTRA:                  -0.367
REMARK UNBOUND:                -0.618
REMARK SMILES Cc1cc(NC(=O)NC2CCN([C@H](C)c3ccccc3)CC2)nn1-c1ccc(F)cc1F
REMARK SMILES IDX 5 1 6 2 7 3 8 4 4 7 2 8 3 9 24 10 23 11 1 12 25 13 26 14
REMARK SMILES IDX 31 15 27 16 30 17 28 18 32 19 29 20 9 21 10 22 22 23 11 24
REMARK SMILES IDX 21 25 12 26 13 27 14 28 15 29 16 30 20 31 17 32 19 33 18 34
REMARK H PARENT 5 5 8 6
ROOT
ATOM      1  N   UNL     1       1.565  45.890  53.748  1.00  0.00    -0.291 N 
ATOM      2  C   UNL     1       0.505  44.924  53.807  1.00  0.00     0.320 C 
ATOM      3  O   UNL     1       0.768  43.690  53.855  1.00  0.00    -0.248 OA
ATOM      4  N   UNL     1      -0.859  45.370  53.842  1.00  0.00    -0.335 N 
ATOM      5  H   UNL     1       1.323  46.901  53.865  1.00  0.00     0.173 HD
ATOM      6  H   UNL     1      -1.032  46.401  53.840  1.00  0.00     0.165 HD
ENDROOT
BRANCH   1   7
ATOM      7  C   UNL     1       2.941  45.543  53.551  1.00  0.00     0.156 A 
ATOM      8  C   UNL     1       5.057  45.179  53.878  1.00  0.00     0.043 A 
ATOM      9  C   UNL     1       3.897  45.515  54.546  1.00  0.00     0.072 A 
ATOM     10  N   UNL     1       4.775  45.010  52.563  1.00  0.00    -0.233 N 
ATOM     11  N   UNL     1       3.489  45.244  52.357  1.00  0.00    -0.150 NA
ATOM     12  C   UNL     1       6.409  45.054  54.512  1.00  0.00     0.067 C 
BRANCH  10  13
ATOM     13  C   UNL     1       5.687  44.667  51.508  1.00  0.00     0.101 A 
ATOM     14  C   UNL     1       5.582  43.431  50.843  1.00  0.00     0.034 A 
ATOM     15  C   UNL     1       6.675  45.585  51.103  1.00  0.00     0.151 A 
ATOM     16  C   UNL     1       6.467  43.110  49.810  1.00  0.00     0.041 A 
ATOM     17  C   UNL     1       7.563  45.255  50.073  1.00  0.00     0.080 A 
ATOM     18  C   UNL     1       7.461  44.018  49.429  1.00  0.00     0.126 A 
ATOM     19  F   UNL     1       6.795  46.784  51.724  1.00  0.00    -0.205 F 
ATOM     20  F   UNL     1       8.321  43.702  48.430  1.00  0.00    -0.207 F 
ENDBRANCH  10  13
ENDBRANCH   1   7
BRANCH   4  21
ATOM     21  C   UNL     1      -1.983  44.441  54.026  1.00  0.00     0.086 C 
ATOM     22  C   UNL     1      -3.332  45.180  53.911  1.00  0.00     0.040 C 
ATOM     23  C   UNL     1      -1.883  43.731  55.383  1.00  0.00     0.040 C 
ATOM     24  C   UNL     1      -3.852  45.705  55.263  1.00  0.00     0.087 C 
ATOM     25  C   UNL     1      -2.068  44.706  56.569  1.00  0.00     0.087 C 
ATOM     26  N   UNL     1      -2.728  45.985  56.184  1.00  0.00    -0.296 NA
BRANCH  26  27
ATOM     27  C   UNL     1      -3.163  46.739  57.398  1.00  0.00     0.083 C 
ATOM     28  C   UNL     1      -3.942  48.023  57.042  1.00  0.00     0.030 C 
BRANCH  27  29
ATOM     29  C   UNL     1      -1.965  47.146  58.243  1.00  0.00    -0.031 A 
ATOM     30  C   UNL     1      -2.152  47.811  59.468  1.00  0.00     0.005 A 
ATOM     31  C   UNL     1      -0.655  46.884  57.799  1.00  0.00     0.005 A 
ATOM     32  C   UNL     1      -1.048  48.200  60.234  1.00  0.00     0.000 A 
ATOM     33  C   UNL     1       0.446  47.276  58.568  1.00  0.00     0.000 A 
ATOM     34  C   UNL     1       0.250  47.935  59.783  1.00  0.00     0.000 A 
ENDBRANCH  27  29
ENDBRANCH  26  27
ENDBRANCH   4  21
TORSDOF 5
ENDMDL
