ligand_10_conformer_4_docked
     RDKit          3D

 50 53  0  0  0  0  0  0  0  0999 V2000
   -3.5200   42.8140   58.8990 C   0  0  0  0  0  0  0  0  0  0  0  0
   -3.1270   43.7440   57.7900 C   0  0  0  0  0  0  0  0  0  0  0  0
   -3.3190   45.1280   57.9210 C   0  0  0  0  0  0  0  0  0  0  0  0
   -2.9770   45.9870   56.8740 C   0  0  0  0  0  0  0  0  0  0  0  0
   -2.4610   45.4720   55.6830 C   0  0  0  0  0  0  0  0  0  0  0  0
   -2.2970   44.0850   55.5250 C   0  0  0  0  0  0  0  0  0  0  0  0
   -1.7740   43.5290   54.3480 O   0  0  0  0  0  0  0  0  0  0  0  0
   -0.5860   43.9280   53.7180 C   0  0  0  0  0  0  0  0  0  0  0  0
    0.6210   43.8120   54.4120 C   0  0  0  0  0  0  0  0  0  0  0  0
    1.8210   44.1850   53.8040 C   0  0  0  0  0  0  0  0  0  0  0  0
    1.8080   44.6640   52.4830 C   0  0  0  0  0  0  0  0  0  0  0  0
    3.0580   45.0730   51.8070 C   0  0  0  0  0  0  0  0  0  0  0  0
    3.0110   45.9000   50.8550 O   0  0  0  0  0  0  0  0  0  0  0  0
    4.3260   44.5610   52.2530 N   0  0  0  0  0  0  0  0  0  0  0  0
    5.5490   44.6930   51.5100 C   0  0  0  0  0  0  0  0  0  0  0  0
    5.7880   43.8440   50.4210 C   0  0  0  0  0  0  0  0  0  0  0  0
    6.9640   43.9610   49.6780 C   0  0  0  0  0  0  0  0  0  0  0  0
    7.9060   44.9370   50.0040 C   0  0  0  0  0  0  0  0  0  0  0  0
    7.6710   45.8240   51.0700 C   0  0  0  0  0  0  0  0  0  0  0  0
    8.6900   46.8820   51.4340 C   0  0  1  0  0  0  0  0  0  0  0  0
    8.0300   48.1260   52.0810 C   0  0  0  0  0  0  0  0  0  0  0  0
    8.5780   48.2430   53.5130 C   0  0  0  0  0  0  0  0  0  0  0  0
    9.5640   47.1480   53.5910 C   0  0  0  0  0  0  0  0  0  0  0  0
   10.2780   46.9150   54.6020 O   0  0  0  0  0  0  0  0  0  0  0  0
    9.6270   46.3700   52.4180 N   0  0  0  0  0  0  0  0  0  0  0  0
    6.4890   45.6930   51.8210 C   0  0  0  0  0  0  0  0  0  0  0  0
    0.6210   44.7500   51.8190 N   0  0  0  0  0  0  0  0  0  0  0  0
   -0.5580   44.3960   52.3940 C   0  0  0  0  0  0  0  0  0  0  0  0
   -2.6220   43.2290   56.5850 C   0  0  0  0  0  0  0  0  0  0  0  0
   -3.3176   43.2930   59.8683 H   0  0  0  0  0  0  0  0  0  0  0  0
   -4.5926   42.5830   58.8210 H   0  0  0  0  0  0  0  0  0  0  0  0
   -2.9380   41.8838   58.8210 H   0  0  0  0  0  0  0  0  0  0  0  0
   -3.7401   45.5376   58.8510 H   0  0  0  0  0  0  0  0  0  0  0  0
   -3.1146   47.0724   56.9880 H   0  0  0  0  0  0  0  0  0  0  0  0
   -2.1821   46.1538   54.8661 H   0  0  0  0  0  0  0  0  0  0  0  0
    0.6258   43.4252   55.4417 H   0  0  0  0  0  0  0  0  0  0  0  0
    2.7697   44.1046   54.3549 H   0  0  0  0  0  0  0  0  0  0  0  0
    4.3840   44.1530   53.2150 H   0  0  0  0  0  0  0  0  0  0  0  0
    5.0441   43.0804   50.1499 H   0  0  0  0  0  0  0  0  0  0  0  0
    7.1485   43.2815   48.8329 H   0  0  0  0  0  0  0  0  0  0  0  0
    8.8377   45.0133   49.4242 H   0  0  0  0  0  0  0  0  0  0  0  0
    9.1897   47.1561   50.4932 H   0  0  0  0  0  0  0  0  0  0  0  0
    8.2842   49.0286   51.5060 H   0  0  0  0  0  0  0  0  0  0  0  0
    6.9347   48.0244   52.0907 H   0  0  0  0  0  0  0  0  0  0  0  0
    9.0599   49.2190   53.6717 H   0  0  0  0  0  0  0  0  0  0  0  0
    7.7936   48.1707   54.2808 H   0  0  0  0  0  0  0  0  0  0  0  0
   10.2640   45.5540   52.2740 H   0  0  0  0  0  0  0  0  0  0  0  0
    6.2975   46.3788   52.6595 H   0  0  0  0  0  0  0  0  0  0  0  0
   -1.4935   44.4762   51.8209 H   0  0  0  0  0  0  0  0  0  0  0  0
   -2.4805   42.1439   56.4726 H   0  0  0  0  0  0  0  0  0  0  0  0
  1  2  1  0
  2  3  2  0
  3  4  1  0
  4  5  2  0
  5  6  1  0
  6  7  1  0
  7  8  1  0
  8  9  2  0
  9 10  1  0
 10 11  2  0
 11 12  1  0
 12 13  2  0
 12 14  1  0
 14 15  1  0
 15 16  2  0
 16 17  1  0
 17 18  2  0
 18 19  1  0
 19 20  1  0
 20 21  1  0
 21 22  1  0
 22 23  1  0
 23 24  2  0
 23 25  1  0
 19 26  2  0
 11 27  1  0
 27 28  2  0
  6 29  2  0
 29  2  1  0
 28  8  1  0
 26 15  1  0
 25 20  1  0
  1 30  1  0
  1 31  1  0
  1 32  1  0
  3 33  1  0
  4 34  1  0
  5 35  1  0
  9 36  1  0
 10 37  1  0
 14 38  1  0
 16 39  1  0
 17 40  1  0
 18 41  1  0
 20 42  1  6
 21 43  1  0
 21 44  1  0
 22 45  1  0
 22 46  1  0
 25 47  1  0
 26 48  1  0
 28 49  1  0
 29 50  1  0
M  END
>  <meeko>  (1) 
{"is_sidechain": [false], "free_energy": -9.052, "intermolecular_energy": -11.698, "internal_energy": -0.932}

$$$$
ligand_10_conformer_4_docked
     RDKit          3D

 50 53  0  0  0  0  0  0  0  0999 V2000
   10.5550   47.3750   55.4550 C   0  0  0  0  0  0  0  0  0  0  0  0
    9.8130   47.2030   54.1630 C   0  0  0  0  0  0  0  0  0  0  0  0
   10.4470   46.6310   53.0490 C   0  0  0  0  0  0  0  0  0  0  0  0
    9.7600   46.4990   51.8400 C   0  0  0  0  0  0  0  0  0  0  0  0
    8.4450   46.9540   51.7270 C   0  0  0  0  0  0  0  0  0  0  0  0
    7.8100   47.5630   52.8230 C   0  0  0  0  0  0  0  0  0  0  0  0
    6.4870   48.0260   52.7520 O   0  0  0  0  0  0  0  0  0  0  0  0
    5.3450   47.2760   53.0670 C   0  0  0  0  0  0  0  0  0  0  0  0
    4.7400   46.5100   52.0680 C   0  0  0  0  0  0  0  0  0  0  0  0
    3.6120   45.7400   52.3580 C   0  0  0  0  0  0  0  0  0  0  0  0
    3.1000   45.7290   53.6660 C   0  0  0  0  0  0  0  0  0  0  0  0
    1.9040   44.9290   54.0100 C   0  0  0  0  0  0  0  0  0  0  0  0
    1.9140   43.6800   53.8260 O   0  0  0  0  0  0  0  0  0  0  0  0
    0.7480   45.5610   54.5860 N   0  0  0  0  0  0  0  0  0  0  0  0
   -0.5340   44.9240   54.7120 C   0  0  0  0  0  0  0  0  0  0  0  0
   -1.0350   44.6310   55.9880 C   0  0  0  0  0  0  0  0  0  0  0  0
   -2.2830   44.0220   56.1350 C   0  0  0  0  0  0  0  0  0  0  0  0
   -3.0510   43.7150   55.0120 C   0  0  0  0  0  0  0  0  0  0  0  0
   -2.5840   44.0330   53.7230 C   0  0  0  0  0  0  0  0  0  0  0  0
   -3.4080   43.6970   52.4990 C   0  0  1  0  0  0  0  0  0  0  0  0
   -3.6580   44.9410   51.6080 C   0  0  0  0  0  0  0  0  0  0  0  0
   -2.9900   44.6730   50.2490 C   0  0  0  0  0  0  0  0  0  0  0  0
   -2.4800   43.2940   50.3860 C   0  0  0  0  0  0  0  0  0  0  0  0
   -1.8900   42.6690   49.4670 O   0  0  0  0  0  0  0  0  0  0  0  0
   -2.7090   42.7390   51.6610 N   0  0  0  0  0  0  0  0  0  0  0  0
   -1.3220   44.6360   53.5820 C   0  0  0  0  0  0  0  0  0  0  0  0
    3.7180   46.4680   54.6280 N   0  0  0  0  0  0  0  0  0  0  0  0
    4.8140   47.2280   54.3660 C   0  0  0  0  0  0  0  0  0  0  0  0
    8.4960   47.6740   54.0400 C   0  0  0  0  0  0  0  0  0  0  0  0
    9.8661   47.2153   56.2975 H   0  0  0  0  0  0  0  0  0  0  0  0
   11.3744   46.6430   55.5075 H   0  0  0  0  0  0  0  0  0  0  0  0
   10.9687   48.3929   55.5075 H   0  0  0  0  0  0  0  0  0  0  0  0
   11.4883   46.2855   53.1283 H   0  0  0  0  0  0  0  0  0  0  0  0
   10.2564   46.0354   50.9747 H   0  0  0  0  0  0  0  0  0  0  0  0
    7.9039   46.8354   50.7767 H   0  0  0  0  0  0  0  0  0  0  0  0
    5.1538   46.5134   51.0488 H   0  0  0  0  0  0  0  0  0  0  0  0
    3.1280   45.1466   51.5683 H   0  0  0  0  0  0  0  0  0  0  0  0
    0.8670   46.5030   55.0270 H   0  0  0  0  0  0  0  0  0  0  0  0
   -0.4412   44.8824   56.8792 H   0  0  0  0  0  0  0  0  0  0  0  0
   -2.6616   43.7836   57.1399 H   0  0  0  0  0  0  0  0  0  0  0  0
   -4.0266   43.2219   55.1344 H   0  0  0  0  0  0  0  0  0  0  0  0
   -4.3600   43.2955   52.8766 H   0  0  0  0  0  0  0  0  0  0  0  0
   -4.7386   45.0955   51.4722 H   0  0  0  0  0  0  0  0  0  0  0  0
   -3.2400   45.8447   52.0755 H   0  0  0  0  0  0  0  0  0  0  0  0
   -3.7211   44.7430   49.4301 H   0  0  0  0  0  0  0  0  0  0  0  0
   -2.2018   45.4009   50.0063 H   0  0  0  0  0  0  0  0  0  0  0  0
   -2.4280   41.7770   51.9540 H   0  0  0  0  0  0  0  0  0  0  0  0
   -0.9466   44.8852   52.5785 H   0  0  0  0  0  0  0  0  0  0  0  0
    5.2861   47.8068   55.1735 H   0  0  0  0  0  0  0  0  0  0  0  0
    7.9984   48.1341   54.9064 H   0  0  0  0  0  0  0  0  0  0  0  0
  1  2  1  0
  2  3  2  0
  3  4  1  0
  4  5  2  0
  5  6  1  0
  6  7  1  0
  7  8  1  0
  8  9  2  0
  9 10  1  0
 10 11  2  0
 11 12  1  0
 12 13  2  0
 12 14  1  0
 14 15  1  0
 15 16  2  0
 16 17  1  0
 17 18  2  0
 18 19  1  0
 19 20  1  0
 20 21  1  0
 21 22  1  0
 22 23  1  0
 23 24  2  0
 23 25  1  0
 19 26  2  0
 11 27  1  0
 27 28  2  0
  6 29  2  0
 29  2  1  0
 28  8  1  0
 26 15  1  0
 25 20  1  0
  1 30  1  0
  1 31  1  0
  1 32  1  0
  3 33  1  0
  4 34  1  0
  5 35  1  0
  9 36  1  0
 10 37  1  0
 14 38  1  0
 16 39  1  0
 17 40  1  0
 18 41  1  0
 20 42  1  1
 21 43  1  0
 21 44  1  0
 22 45  1  0
 22 46  1  0
 25 47  1  0
 26 48  1  0
 28 49  1  0
 29 50  1  0
M  END
>  <meeko>  (2) 
{"is_sidechain": [false], "free_energy": -9.028, "intermolecular_energy": -11.735, "internal_energy": -0.865}

$$$$
ligand_10_conformer_4_docked
     RDKit          3D

 50 53  0  0  0  0  0  0  0  0999 V2000
    0.5080   46.4880   57.9160 C   0  0  0  0  0  0  0  0  0  0  0  0
   -0.6200   46.1210   56.9970 C   0  0  0  0  0  0  0  0  0  0  0  0
   -1.9310   46.5350   57.2800 C   0  0  0  0  0  0  0  0  0  0  0  0
   -2.9810   46.1680   56.4370 C   0  0  0  0  0  0  0  0  0  0  0  0
   -2.7360   45.3690   55.3170 C   0  0  0  0  0  0  0  0  0  0  0  0
   -1.4340   44.9170   55.0420 C   0  0  0  0  0  0  0  0  0  0  0  0
   -1.1460   44.1210   53.9240 O   0  0  0  0  0  0  0  0  0  0  0  0
    0.1200   43.9650   53.3400 C   0  0  0  0  0  0  0  0  0  0  0  0
    0.6840   45.0370   52.6460 C   0  0  0  0  0  0  0  0  0  0  0  0
    1.9490   44.9160   52.0700 C   0  0  0  0  0  0  0  0  0  0  0  0
    2.6600   43.7120   52.2080 C   0  0  0  0  0  0  0  0  0  0  0  0
    4.0010   43.5440   51.6090 C   0  0  0  0  0  0  0  0  0  0  0  0
    4.5390   42.4030   51.5900 O   0  0  0  0  0  0  0  0  0  0  0  0
    4.6770   44.6670   51.0160 N   0  0  0  0  0  0  0  0  0  0  0  0
    6.0660   44.6620   50.6470 C   0  0  0  0  0  0  0  0  0  0  0  0
    6.5280   43.7190   49.7170 C   0  0  0  0  0  0  0  0  0  0  0  0
    7.8710   43.7010   49.3350 C   0  0  0  0  0  0  0  0  0  0  0  0
    8.7630   44.6340   49.8640 C   0  0  0  0  0  0  0  0  0  0  0  0
    8.3140   45.6120   50.7710 C   0  0  0  0  0  0  0  0  0  0  0  0
    9.2770   46.6240   51.3540 C   0  0  1  0  0  0  0  0  0  0  0  0
    8.5560   47.9230   51.7970 C   0  0  0  0  0  0  0  0  0  0  0  0
    8.7460   48.0550   53.3180 C   0  0  0  0  0  0  0  0  0  0  0  0
    9.6150   46.9110   53.6540 C   0  0  0  0  0  0  0  0  0  0  0  0
   10.0460   46.6730   54.8120 O   0  0  0  0  0  0  0  0  0  0  0  0
    9.9140   46.0930   52.5460 N   0  0  0  0  0  0  0  0  0  0  0  0
    6.9630   45.6170   51.1590 C   0  0  0  0  0  0  0  0  0  0  0  0
    2.0990   42.6860   52.9060 N   0  0  0  0  0  0  0  0  0  0  0  0
    0.8660   42.7820   53.4710 C   0  0  0  0  0  0  0  0  0  0  0  0
   -0.3810   45.3050   55.8800 C   0  0  0  0  0  0  0  0  0  0  0  0
    0.1796   46.3812   58.9604 H   0  0  0  0  0  0  0  0  0  0  0  0
    1.3635   45.8219   57.7306 H   0  0  0  0  0  0  0  0  0  0  0  0
    0.8078   47.5300   57.7306 H   0  0  0  0  0  0  0  0  0  0  0  0
   -2.1315   47.1508   58.1692 H   0  0  0  0  0  0  0  0  0  0  0  0
   -4.0040   46.5086   56.6548 H   0  0  0  0  0  0  0  0  0  0  0  0
   -3.5648   45.0930   54.6485 H   0  0  0  0  0  0  0  0  0  0  0  0
    0.1283   45.9817   52.5528 H   0  0  0  0  0  0  0  0  0  0  0  0
    2.3865   45.7570   51.5120 H   0  0  0  0  0  0  0  0  0  0  0  0
    4.1080   45.5030   50.7480 H   0  0  0  0  0  0  0  0  0  0  0  0
    5.8276   42.9887   49.2857 H   0  0  0  0  0  0  0  0  0  0  0  0
    8.2265   42.9491   48.6151 H   0  0  0  0  0  0  0  0  0  0  0  0
    9.8228   44.6052   49.5707 H   0  0  0  0  0  0  0  0  0  0  0  0
   10.0065   46.8402   50.5596 H   0  0  0  0  0  0  0  0  0  0  0  0
    8.9969   48.7915   51.2857 H   0  0  0  0  0  0  0  0  0  0  0  0
    7.4872   47.8826   51.5398 H   0  0  0  0  0  0  0  0  0  0  0  0
    9.2333   49.0077   53.5727 H   0  0  0  0  0  0  0  0  0  0  0  0
    7.7956   48.0498   53.8718 H   0  0  0  0  0  0  0  0  0  0  0  0
   10.5160   45.2400   52.5770 H   0  0  0  0  0  0  0  0  0  0  0  0
    6.6036   46.3753   51.8702 H   0  0  0  0  0  0  0  0  0  0  0  0
    0.4517   41.9313   54.0320 H   0  0  0  0  0  0  0  0  0  0  0  0
    0.6427   44.9672   55.6609 H   0  0  0  0  0  0  0  0  0  0  0  0
  1  2  1  0
  2  3  2  0
  3  4  1  0
  4  5  2  0
  5  6  1  0
  6  7  1  0
  7  8  1  0
  8  9  2  0
  9 10  1  0
 10 11  2  0
 11 12  1  0
 12 13  2  0
 12 14  1  0
 14 15  1  0
 15 16  2  0
 16 17  1  0
 17 18  2  0
 18 19  1  0
 19 20  1  0
 20 21  1  0
 21 22  1  0
 22 23  1  0
 23 24  2  0
 23 25  1  0
 19 26  2  0
 11 27  1  0
 27 28  2  0
  6 29  2  0
 29  2  1  0
 28  8  1  0
 26 15  1  0
 25 20  1  0
  1 30  1  0
  1 31  1  0
  1 32  1  0
  3 33  1  0
  4 34  1  0
  5 35  1  0
  9 36  1  0
 10 37  1  0
 14 38  1  0
 16 39  1  0
 17 40  1  0
 18 41  1  0
 20 42  1  6
 21 43  1  0
 21 44  1  0
 22 45  1  0
 22 46  1  0
 25 47  1  0
 26 48  1  0
 28 49  1  0
 29 50  1  0
M  END
>  <meeko>  (3) 
{"is_sidechain": [false], "free_energy": -8.807, "intermolecular_energy": -11.778, "internal_energy": -0.535}

$$$$
ligand_10_conformer_4_docked
     RDKit          3D

 50 53  0  0  0  0  0  0  0  0999 V2000
   -1.5950   49.2680   59.0830 C   0  0  0  0  0  0  0  0  0  0  0  0
   -2.0240   48.3270   57.9970 C   0  0  0  0  0  0  0  0  0  0  0  0
   -3.1310   48.6320   57.1890 C   0  0  0  0  0  0  0  0  0  0  0  0
   -3.5430   47.7390   56.1970 C   0  0  0  0  0  0  0  0  0  0  0  0
   -2.8700   46.5290   56.0180 C   0  0  0  0  0  0  0  0  0  0  0  0
   -1.7830   46.1940   56.8450 C   0  0  0  0  0  0  0  0  0  0  0  0
   -1.0760   44.9930   56.6900 O   0  0  0  0  0  0  0  0  0  0  0  0
   -0.0210   44.7800   55.7910 C   0  0  0  0  0  0  0  0  0  0  0  0
   -0.2700   44.0880   54.6040 C   0  0  0  0  0  0  0  0  0  0  0  0
    0.7570   43.8770   53.6830 C   0  0  0  0  0  0  0  0  0  0  0  0
    2.0410   44.3800   53.9520 C   0  0  0  0  0  0  0  0  0  0  0  0
    3.1560   44.1720   53.0020 C   0  0  0  0  0  0  0  0  0  0  0  0
    3.4530   43.0020   52.6340 O   0  0  0  0  0  0  0  0  0  0  0  0
    3.8760   45.2970   52.4700 N   0  0  0  0  0  0  0  0  0  0  0  0
    5.1190   45.1880   51.7560 C   0  0  0  0  0  0  0  0  0  0  0  0
    5.2550   44.2130   50.7580 C   0  0  0  0  0  0  0  0  0  0  0  0
    6.4500   44.0950   50.0440 C   0  0  0  0  0  0  0  0  0  0  0  0
    7.5130   44.9590   50.3070 C   0  0  0  0  0  0  0  0  0  0  0  0
    7.3850   45.9680   51.2780 C   0  0  0  0  0  0  0  0  0  0  0  0
    8.5360   46.9060   51.5740 C   0  0  1  0  0  0  0  0  0  0  0  0
    8.0570   48.2190   52.2450 C   0  0  0  0  0  0  0  0  0  0  0  0
    8.6960   48.2780   53.6430 C   0  0  0  0  0  0  0  0  0  0  0  0
    9.5570   47.0790   53.6750 C   0  0  0  0  0  0  0  0  0  0  0  0
   10.2970   46.7710   54.6450 O   0  0  0  0  0  0  0  0  0  0  0  0
    9.4650   46.2950   52.5070 N   0  0  0  0  0  0  0  0  0  0  0  0
    6.1840   46.0750   52.0010 C   0  0  0  0  0  0  0  0  0  0  0  0
    2.2570   45.0680   55.1070 N   0  0  0  0  0  0  0  0  0  0  0  0
    1.2720   45.2810   56.0190 C   0  0  0  0  0  0  0  0  0  0  0  0
   -1.3600   47.1020   57.8240 C   0  0  0  0  0  0  0  0  0  0  0  0
   -1.8017   48.8147   60.0637 H   0  0  0  0  0  0  0  0  0  0  0  0
   -0.5171   49.4672   58.9909 H   0  0  0  0  0  0  0  0  0  0  0  0
   -2.1516   50.2123   58.9909 H   0  0  0  0  0  0  0  0  0  0  0  0
   -3.6751   49.5764   57.3375 H   0  0  0  0  0  0  0  0  0  0  0  0
   -4.4002   47.9899   55.5550 H   0  0  0  0  0  0  0  0  0  0  0  0
   -3.1911   45.8351   55.2272 H   0  0  0  0  0  0  0  0  0  0  0  0
   -1.2804   43.7074   54.3939 H   0  0  0  0  0  0  0  0  0  0  0  0
    0.5628   43.3213   52.7538 H   0  0  0  0  0  0  0  0  0  0  0  0
    3.4260   46.2410   52.5190 H   0  0  0  0  0  0  0  0  0  0  0  0
    4.4161   43.5371   50.5358 H   0  0  0  0  0  0  0  0  0  0  0  0
    6.5529   43.3183   49.2719 H   0  0  0  0  0  0  0  0  0  0  0  0
    8.4564   44.8505   49.7519 H   0  0  0  0  0  0  0  0  0  0  0  0
    9.0090   47.1194   50.6041 H   0  0  0  0  0  0  0  0  0  0  0  0
    8.3773   49.0855   51.6478 H   0  0  0  0  0  0  0  0  0  0  0  0
    6.9596   48.2415   52.3172 H   0  0  0  0  0  0  0  0  0  0  0  0
    9.2921   49.1943   53.7652 H   0  0  0  0  0  0  0  0  0  0  0  0
    7.9538   48.2962   54.4546 H   0  0  0  0  0  0  0  0  0  0  0  0
    9.9970   45.4130   52.3350 H   0  0  0  0  0  0  0  0  0  0  0  0
    6.0757   46.8590   52.7650 H   0  0  0  0  0  0  0  0  0  0  0  0
    1.4874   45.8467   56.9375 H   0  0  0  0  0  0  0  0  0  0  0  0
   -0.4999   46.8532   58.4630 H   0  0  0  0  0  0  0  0  0  0  0  0
  1  2  1  0
  2  3  2  0
  3  4  1  0
  4  5  2  0
  5  6  1  0
  6  7  1  0
  7  8  1  0
  8  9  2  0
  9 10  1  0
 10 11  2  0
 11 12  1  0
 12 13  2  0
 12 14  1  0
 14 15  1  0
 15 16  2  0
 16 17  1  0
 17 18  2  0
 18 19  1  0
 19 20  1  0
 20 21  1  0
 21 22  1  0
 22 23  1  0
 23 24  2  0
 23 25  1  0
 19 26  2  0
 11 27  1  0
 27 28  2  0
  6 29  2  0
 29  2  1  0
 28  8  1  0
 26 15  1  0
 25 20  1  0
  1 30  1  0
  1 31  1  0
  1 32  1  0
  3 33  1  0
  4 34  1  0
  5 35  1  0
  9 36  1  0
 10 37  1  0
 14 38  1  0
 16 39  1  0
 17 40  1  0
 18 41  1  0
 20 42  1  6
 21 43  1  0
 21 44  1  0
 22 45  1  0
 22 46  1  0
 25 47  1  0
 26 48  1  0
 28 49  1  0
 29 50  1  0
M  END
>  <meeko>  (4) 
{"is_sidechain": [false], "free_energy": -8.684, "intermolecular_energy": -11.74, "internal_energy": -0.414}

$$$$
ligand_10_conformer_4_docked
     RDKit          3D

 50 53  0  0  0  0  0  0  0  0999 V2000
   10.6910   45.9810   51.5740 C   0  0  0  0  0  0  0  0  0  0  0  0
    9.4270   46.4080   52.2600 C   0  0  0  0  0  0  0  0  0  0  0  0
    9.4660   46.9290   53.5620 C   0  0  0  0  0  0  0  0  0  0  0  0
    8.2830   47.2990   54.2060 C   0  0  0  0  0  0  0  0  0  0  0  0
    7.0530   47.1340   53.5660 C   0  0  0  0  0  0  0  0  0  0  0  0
    6.9970   46.5800   52.2750 C   0  0  0  0  0  0  0  0  0  0  0  0
    5.7820   46.4060   51.5950 O   0  0  0  0  0  0  0  0  0  0  0  0
    4.5450   46.1330   52.1960 C   0  0  0  0  0  0  0  0  0  0  0  0
    4.2790   44.8360   52.6400 C   0  0  0  0  0  0  0  0  0  0  0  0
    3.0630   44.5390   53.2580 C   0  0  0  0  0  0  0  0  0  0  0  0
    2.1140   45.5590   53.4430 C   0  0  0  0  0  0  0  0  0  0  0  0
    0.8130   45.2820   54.0900 C   0  0  0  0  0  0  0  0  0  0  0  0
   -0.1830   44.9690   53.3800 O   0  0  0  0  0  0  0  0  0  0  0  0
    0.6880   45.3310   55.5220 N   0  0  0  0  0  0  0  0  0  0  0  0
   -0.5710   45.3330   56.2160 C   0  0  0  0  0  0  0  0  0  0  0  0
   -1.3740   44.1840   56.1870 C   0  0  0  0  0  0  0  0  0  0  0  0
   -2.5950   44.1590   56.8630 C   0  0  0  0  0  0  0  0  0  0  0  0
   -3.0200   45.2730   57.5880 C   0  0  0  0  0  0  0  0  0  0  0  0
   -2.2130   46.4230   57.6600 C   0  0  0  0  0  0  0  0  0  0  0  0
   -2.6690   47.6380   58.4390 C   0  0  1  0  0  0  0  0  0  0  0  0
   -3.3490   47.2500   59.7760 C   0  0  0  0  0  0  0  0  0  0  0  0
   -2.4920   47.8350   60.9120 C   0  0  0  0  0  0  0  0  0  0  0  0
   -1.4420   48.5850   60.1950 C   0  0  0  0  0  0  0  0  0  0  0  0
   -0.5430   49.2560   60.7660 O   0  0  0  0  0  0  0  0  0  0  0  0
   -1.5350   48.4720   58.7930 N   0  0  0  0  0  0  0  0  0  0  0  0
   -0.9900   46.4460   56.9680 C   0  0  0  0  0  0  0  0  0  0  0  0
    2.4030   46.8200   53.0200 N   0  0  0  0  0  0  0  0  0  0  0  0
    3.5800   47.1290   52.4120 C   0  0  0  0  0  0  0  0  0  0  0  0
    8.1870   46.2290   51.6250 C   0  0  0  0  0  0  0  0  0  0  0  0
   11.4492   45.7249   52.3287 H   0  0  0  0  0  0  0  0  0  0  0  0
   10.4878   45.1016   50.9452 H   0  0  0  0  0  0  0  0  0  0  0  0
   11.0627   46.8034   50.9452 H   0  0  0  0  0  0  0  0  0  0  0  0
   10.4308   47.0465   54.0771 H   0  0  0  0  0  0  0  0  0  0  0  0
    8.3205   47.7218   55.2208 H   0  0  0  0  0  0  0  0  0  0  0  0
    6.1255   47.4382   54.0732 H   0  0  0  0  0  0  0  0  0  0  0  0
    5.0309   44.0450   52.5022 H   0  0  0  0  0  0  0  0  0  0  0  0
    2.8493   43.5148   53.5975 H   0  0  0  0  0  0  0  0  0  0  0  0
    1.5590   45.2660   56.0970 H   0  0  0  0  0  0  0  0  0  0  0  0
   -1.0399   43.2972   55.6284 H   0  0  0  0  0  0  0  0  0  0  0  0
   -3.2245   43.2578   56.8241 H   0  0  0  0  0  0  0  0  0  0  0  0
   -3.9904   45.2518   58.1055 H   0  0  0  0  0  0  0  0  0  0  0  0
   -3.3792   48.1660   57.7856 H   0  0  0  0  0  0  0  0  0  0  0  0
   -4.3652   47.6691   59.8170 H   0  0  0  0  0  0  0  0  0  0  0  0
   -3.4269   46.1568   59.8704 H   0  0  0  0  0  0  0  0  0  0  0  0
   -3.0877   48.5041   61.5503 H   0  0  0  0  0  0  0  0  0  0  0  0
   -2.0869   47.0652   61.5853 H   0  0  0  0  0  0  0  0  0  0  0  0
   -0.8900   48.9310   58.1110 H   0  0  0  0  0  0  0  0  0  0  0  0
   -0.3543   47.3425   57.0147 H   0  0  0  0  0  0  0  0  0  0  0  0
    3.7759   48.1620   52.0888 H   0  0  0  0  0  0  0  0  0  0  0  0
    8.1502   45.8097   50.6087 H   0  0  0  0  0  0  0  0  0  0  0  0
  1  2  1  0
  2  3  2  0
  3  4  1  0
  4  5  2  0
  5  6  1  0
  6  7  1  0
  7  8  1  0
  8  9  2  0
  9 10  1  0
 10 11  2  0
 11 12  1  0
 12 13  2  0
 12 14  1  0
 14 15  1  0
 15 16  2  0
 16 17  1  0
 17 18  2  0
 18 19  1  0
 19 20  1  0
 20 21  1  0
 21 22  1  0
 22 23  1  0
 23 24  2  0
 23 25  1  0
 19 26  2  0
 11 27  1  0
 27 28  2  0
  6 29  2  0
 29  2  1  0
 28  8  1  0
 26 15  1  0
 25 20  1  0
  1 30  1  0
  1 31  1  0
  1 32  1  0
  3 33  1  0
  4 34  1  0
  5 35  1  0
  9 36  1  0
 10 37  1  0
 14 38  1  0
 16 39  1  0
 17 40  1  0
 18 41  1  0
 20 42  1  6
 21 43  1  0
 21 44  1  0
 22 45  1  0
 22 46  1  0
 25 47  1  0
 26 48  1  0
 28 49  1  0
 29 50  1  0
M  END
>  <meeko>  (5) 
{"is_sidechain": [false], "free_energy": -8.42, "intermolecular_energy": -11.1, "internal_energy": -0.713}

$$$$
