ligand_32_conformer_5_docked
     RDKit          3D

 42 45  0  0  0  0  0  0  0  0999 V2000
    4.3700   45.7820   51.6710 O   0  0  0  0  0  0  0  0  0  0  0  0
    4.6140   45.1710   52.7470 C   0  0  0  0  0  0  0  0  0  0  0  0
    4.5570   43.7340   52.7970 N   0  0  0  0  0  0  0  0  0  0  0  0
    4.3030   42.9010   51.6550 C   0  0  0  0  0  0  0  0  0  0  0  0
    5.3730   42.4740   50.8590 C   0  0  0  0  0  0  0  0  0  0  0  0
    5.1440   41.6480   49.7570 C   0  0  0  0  0  0  0  0  0  0  0  0
    3.8360   41.2340   49.4640 C   0  0  0  0  0  0  0  0  0  0  0  0
    3.5690   40.3820   48.3360 N   0  0  0  0  0  0  0  0  0  0  0  0
    3.8020   40.6840   47.0440 C   0  0  0  0  0  0  0  0  0  0  0  0
    3.4130   39.6110   46.2710 C   0  0  0  0  0  0  0  0  0  0  0  0
    2.9460   38.6770   47.1740 C   0  0  0  0  0  0  0  0  0  0  0  0
    3.0500   39.1680   48.4240 N   0  0  0  0  0  0  0  0  0  0  0  0
    2.8130   41.6370   50.2680 N   0  0  0  0  0  0  0  0  0  0  0  0
    3.0120   42.4460   51.3420 C   0  0  0  0  0  0  0  0  0  0  0  0
    4.8800   45.9710   53.9950 C   0  0  1  0  0  0  0  0  0  0  0  0
    5.8000   45.2890   55.0030 C   0  0  0  0  0  0  0  0  0  0  0  0
    6.2940   46.5250   54.2500 C   0  0  1  0  0  0  0  0  0  0  0  0
    7.3590   46.3660   53.1260 C   0  0  0  0  0  0  0  0  0  0  0  0
    8.8140   46.2470   53.5750 C   0  0  0  0  0  0  0  0  0  0  0  0
    9.6350   46.6590   52.3620 C   0  0  0  0  0  0  0  0  0  0  0  0
    8.7410   47.5810   51.5340 C   0  0  0  0  0  0  0  0  0  0  0  0
    7.3700   47.5820   52.2060 C   0  0  0  0  0  0  0  0  0  0  0  0
    4.8190   43.2580   53.6890 H   0  0  0  0  0  0  0  0  0  0  0  0
    6.3978   42.7906   51.1029 H   0  0  0  0  0  0  0  0  0  0  0  0
    5.9828   41.3243   49.1233 H   0  0  0  0  0  0  0  0  0  0  0  0
    4.2296   41.6259   46.6698 H   0  0  0  0  0  0  0  0  0  0  0  0
    3.4635   39.5192   45.1760 H   0  0  0  0  0  0  0  0  0  0  0  0
    2.5499   37.6846   46.9129 H   0  0  0  0  0  0  0  0  0  0  0  0
    2.1586   42.7453   51.9682 H   0  0  0  0  0  0  0  0  0  0  0  0
    3.8806   46.4306   53.9967 H   0  0  0  0  0  0  0  0  0  0  0  0
    5.5792   45.3539   56.0786 H   0  0  0  0  0  0  0  0  0  0  0  0
    6.1750   44.2640   55.1397 H   0  0  0  0  0  0  0  0  0  0  0  0
    6.7189   47.4938   54.5515 H   0  0  0  0  0  0  0  0  0  0  0  0
    7.0431   45.4244   52.6530 H   0  0  0  0  0  0  0  0  0  0  0  0
    9.0132   46.9187   54.4230 H   0  0  0  0  0  0  0  0  0  0  0  0
    9.0599   45.2300   53.9145 H   0  0  0  0  0  0  0  0  0  0  0  0
   10.5428   47.1928   52.6797 H   0  0  0  0  0  0  0  0  0  0  0  0
    9.9557   45.7829   51.7792 H   0  0  0  0  0  0  0  0  0  0  0  0
    9.1568   48.5993   51.5193 H   0  0  0  0  0  0  0  0  0  0  0  0
    8.6710   47.2338   50.4926 H   0  0  0  0  0  0  0  0  0  0  0  0
    7.2293   48.5045   52.7884 H   0  0  0  0  0  0  0  0  0  0  0  0
    6.5563   47.5387   51.4671 H   0  0  0  0  0  0  0  0  0  0  0  0
  1  2  2  0
  2  3  1  0
  3  4  1  0
  4  5  2  0
  5  6  1  0
  6  7  2  0
  7  8  1  0
  8  9  1  0
  9 10  2  0
 10 11  1  0
 11 12  2  0
  7 13  1  0
 13 14  2  0
  2 15  1  0
 15 16  1  0
 16 17  1  0
 17 18  1  0
 18 19  1  0
 19 20  1  0
 20 21  1  0
 21 22  1  0
 14  4  1  0
 17 15  1  0
 22 18  1  0
 12  8  1  0
  3 23  1  0
  5 24  1  0
  6 25  1  0
  9 26  1  0
 10 27  1  0
 11 28  1  0
 14 29  1  0
 15 30  1  1
 16 31  1  0
 16 32  1  0
 17 33  1  1
 18 34  1  0
 19 35  1  0
 19 36  1  0
 20 37  1  0
 20 38  1  0
 21 39  1  0
 21 40  1  0
 22 41  1  0
 22 42  1  0
M  END
>  <meeko>  (1) 
{"is_sidechain": [false], "free_energy": -7.878, "intermolecular_energy": -9.72, "internal_energy": -0.647}

$$$$
ligand_32_conformer_5_docked
     RDKit          3D

 42 45  0  0  0  0  0  0  0  0999 V2000
    5.2070   46.4050   51.3370 O   0  0  0  0  0  0  0  0  0  0  0  0
    5.8650   45.3440   51.5090 C   0  0  0  0  0  0  0  0  0  0  0  0
    5.4610   44.3910   52.5080 N   0  0  0  0  0  0  0  0  0  0  0  0
    4.2780   44.5240   53.3120 C   0  0  0  0  0  0  0  0  0  0  0  0
    4.3310   45.2570   54.5040 C   0  0  0  0  0  0  0  0  0  0  0  0
    3.1850   45.4120   55.2860 C   0  0  0  0  0  0  0  0  0  0  0  0
    1.9750   44.8440   54.8580 C   0  0  0  0  0  0  0  0  0  0  0  0
    0.7780   44.9870   55.6410 N   0  0  0  0  0  0  0  0  0  0  0  0
    0.6860   45.5860   56.8440 C   0  0  0  0  0  0  0  0  0  0  0  0
   -0.6250   45.5190   57.2640 C   0  0  0  0  0  0  0  0  0  0  0  0
   -1.2860   44.8550   56.2500 C   0  0  0  0  0  0  0  0  0  0  0  0
   -0.4140   44.5410   55.2740 N   0  0  0  0  0  0  0  0  0  0  0  0
    1.9390   44.1590   53.6810 N   0  0  0  0  0  0  0  0  0  0  0  0
    3.0440   43.9910   52.9070 C   0  0  0  0  0  0  0  0  0  0  0  0
    7.1260   45.1290   50.7120 C   0  0  1  0  0  0  0  0  0  0  0  0
    7.7090   46.3940   50.0920 C   0  0  0  0  0  0  0  0  0  0  0  0
    8.4560   45.7040   51.2340 C   0  0  1  0  0  0  0  0  0  0  0  0
    8.4710   46.3550   52.6470 C   0  0  0  0  0  0  0  0  0  0  0  0
    8.3220   47.8740   52.7020 C   0  0  0  0  0  0  0  0  0  0  0  0
    8.9090   48.2790   54.0460 C   0  0  0  0  0  0  0  0  0  0  0  0
    9.9160   47.1910   54.4180 C   0  0  0  0  0  0  0  0  0  0  0  0
    9.7990   46.1030   53.3540 C   0  0  0  0  0  0  0  0  0  0  0  0
    5.9950   43.4960   52.5850 H   0  0  0  0  0  0  0  0  0  0  0  0
    5.2793   45.7124   54.8254 H   0  0  0  0  0  0  0  0  0  0  0  0
    3.2300   45.9748   56.2301 H   0  0  0  0  0  0  0  0  0  0  0  0
    1.5160   46.0498   57.3971 H   0  0  0  0  0  0  0  0  0  0  0  0
   -1.0507   45.9086   58.2005 H   0  0  0  0  0  0  0  0  0  0  0  0
   -2.3603   44.6188   56.2411 H   0  0  0  0  0  0  0  0  0  0  0  0
    2.9709   43.4356   51.9603 H   0  0  0  0  0  0  0  0  0  0  0  0
    6.8218   44.1290   50.3694 H   0  0  0  0  0  0  0  0  0  0  0  0
    8.1197   46.3657   49.0719 H   0  0  0  0  0  0  0  0  0  0  0  0
    7.3349   47.4133   49.9156 H   0  0  0  0  0  0  0  0  0  0  0  0
    9.4799   45.3254   51.3694 H   0  0  0  0  0  0  0  0  0  0  0  0
    7.5949   45.8834   53.1161 H   0  0  0  0  0  0  0  0  0  0  0  0
    8.8779   48.3470   51.8790 H   0  0  0  0  0  0  0  0  0  0  0  0
    7.2737   48.1904   52.5968 H   0  0  0  0  0  0  0  0  0  0  0  0
    9.4134   49.2531   53.9637 H   0  0  0  0  0  0  0  0  0  0  0  0
    8.1254   48.3781   54.8117 H   0  0  0  0  0  0  0  0  0  0  0  0
   10.9352   47.6047   54.4267 H   0  0  0  0  0  0  0  0  0  0  0  0
    9.7106   46.7878   55.4206 H   0  0  0  0  0  0  0  0  0  0  0  0
   10.6327   46.1741   52.6400 H   0  0  0  0  0  0  0  0  0  0  0  0
    9.8374   45.0970   53.7973 H   0  0  0  0  0  0  0  0  0  0  0  0
  1  2  2  0
  2  3  1  0
  3  4  1  0
  4  5  2  0
  5  6  1  0
  6  7  2  0
  7  8  1  0
  8  9  1  0
  9 10  2  0
 10 11  1  0
 11 12  2  0
  7 13  1  0
 13 14  2  0
  2 15  1  0
 15 16  1  0
 16 17  1  0
 17 18  1  0
 18 19  1  0
 19 20  1  0
 20 21  1  0
 21 22  1  0
 14  4  1  0
 17 15  1  0
 22 18  1  0
 12  8  1  0
  3 23  1  0
  5 24  1  0
  6 25  1  0
  9 26  1  0
 10 27  1  0
 11 28  1  0
 14 29  1  0
 15 30  1  6
 16 31  1  0
 16 32  1  0
 17 33  1  6
 18 34  1  0
 19 35  1  0
 19 36  1  0
 20 37  1  0
 20 38  1  0
 21 39  1  0
 21 40  1  0
 22 41  1  0
 22 42  1  0
M  END
>  <meeko>  (2) 
{"is_sidechain": [false], "free_energy": -7.711, "intermolecular_energy": -9.382, "internal_energy": -0.778}

$$$$
ligand_32_conformer_5_docked
     RDKit          3D

 42 45  0  0  0  0  0  0  0  0999 V2000
    7.1490   46.2080   55.0230 O   0  0  0  0  0  0  0  0  0  0  0  0
    7.1760   47.0240   54.0620 C   0  0  0  0  0  0  0  0  0  0  0  0
    6.0870   47.0780   53.1240 N   0  0  0  0  0  0  0  0  0  0  0  0
    4.8890   46.2950   53.2390 C   0  0  0  0  0  0  0  0  0  0  0  0
    4.8490   45.0080   52.6870 C   0  0  0  0  0  0  0  0  0  0  0  0
    3.6980   44.2270   52.8080 C   0  0  0  0  0  0  0  0  0  0  0  0
    2.5890   44.7340   53.5020 C   0  0  0  0  0  0  0  0  0  0  0  0
    1.3900   43.9530   53.6440 N   0  0  0  0  0  0  0  0  0  0  0  0
    1.2380   42.6640   53.2830 C   0  0  0  0  0  0  0  0  0  0  0  0
   -0.0520   42.2780   53.5810 C   0  0  0  0  0  0  0  0  0  0  0  0
   -0.6360   43.4020   54.1310 C   0  0  0  0  0  0  0  0  0  0  0  0
    0.2580   44.4080   54.1590 N   0  0  0  0  0  0  0  0  0  0  0  0
    2.6590   45.9760   54.0550 N   0  0  0  0  0  0  0  0  0  0  0  0
    3.7670   46.7570   53.9450 C   0  0  0  0  0  0  0  0  0  0  0  0
    8.4020   47.8770   53.8630 C   0  0  1  0  0  0  0  0  0  0  0  0
    9.6720   47.3250   54.5020 C   0  0  0  0  0  0  0  0  0  0  0  0
    9.5500   47.3570   52.9780 C   0  0  1  0  0  0  0  0  0  0  0  0
    9.3310   46.0290   52.1960 C   0  0  0  0  0  0  0  0  0  0  0  0
   10.5600   45.4190   51.5270 C   0  0  0  0  0  0  0  0  0  0  0  0
   10.0070   44.5200   50.4320 C   0  0  0  0  0  0  0  0  0  0  0  0
    8.6380   45.0890   50.0610 C   0  0  0  0  0  0  0  0  0  0  0  0
    8.3580   46.2280   51.0390 C   0  0  0  0  0  0  0  0  0  0  0  0
    6.1160   47.8040   52.3720 H   0  0  0  0  0  0  0  0  0  0  0  0
    5.7273   44.6115   52.1565 H   0  0  0  0  0  0  0  0  0  0  0  0
    3.6609   43.2219   52.3626 H   0  0  0  0  0  0  0  0  0  0  0  0
    2.0113   42.0276   52.8280 H   0  0  0  0  0  0  0  0  0  0  0  0
   -0.5135   41.2930   53.4169 H   0  0  0  0  0  0  0  0  0  0  0  0
   -1.6734   43.4656   54.4912 H   0  0  0  0  0  0  0  0  0  0  0  0
    3.7840   47.7535   54.4105 H   0  0  0  0  0  0  0  0  0  0  0  0
    7.8333   48.8184   53.8806 H   0  0  0  0  0  0  0  0  0  0  0  0
   10.3705   48.0057   55.0107 H   0  0  0  0  0  0  0  0  0  0  0  0
    9.8885   46.5437   55.2454 H   0  0  0  0  0  0  0  0  0  0  0  0
   10.1650   47.7661   52.1628 H   0  0  0  0  0  0  0  0  0  0  0  0
    8.9778   45.3586   52.9934 H   0  0  0  0  0  0  0  0  0  0  0  0
   11.1964   46.2061   51.0963 H   0  0  0  0  0  0  0  0  0  0  0  0
   11.1858   44.8633   52.2409 H   0  0  0  0  0  0  0  0  0  0  0  0
   10.6738   44.5309   49.5572 H   0  0  0  0  0  0  0  0  0  0  0  0
    9.9277   43.4771   50.7728 H   0  0  0  0  0  0  0  0  0  0  0  0
    8.6525   45.4699   49.0292 H   0  0  0  0  0  0  0  0  0  0  0  0
    7.8582   44.3154   50.1200 H   0  0  0  0  0  0  0  0  0  0  0  0
    8.5319   47.2003   50.5549 H   0  0  0  0  0  0  0  0  0  0  0  0
    7.3129   46.2199   51.3822 H   0  0  0  0  0  0  0  0  0  0  0  0
  1  2  2  0
  2  3  1  0
  3  4  1  0
  4  5  2  0
  5  6  1  0
  6  7  2  0
  7  8  1  0
  8  9  1  0
  9 10  2  0
 10 11  1  0
 11 12  2  0
  7 13  1  0
 13 14  2  0
  2 15  1  0
 15 16  1  0
 16 17  1  0
 17 18  1  0
 18 19  1  0
 19 20  1  0
 20 21  1  0
 21 22  1  0
 14  4  1  0
 17 15  1  0
 22 18  1  0
 12  8  1  0
  3 23  1  0
  5 24  1  0
  6 25  1  0
  9 26  1  0
 10 27  1  0
 11 28  1  0
 14 29  1  0
 15 30  1  6
 16 31  1  0
 16 32  1  0
 17 33  1  6
 18 34  1  0
 19 35  1  0
 19 36  1  0
 20 37  1  0
 20 38  1  0
 21 39  1  0
 21 40  1  0
 22 41  1  0
 22 42  1  0
M  END
>  <meeko>  (3) 
{"is_sidechain": [false], "free_energy": -7.682, "intermolecular_energy": -9.898, "internal_energy": -0.226}

$$$$
ligand_32_conformer_5_docked
     RDKit          3D

 42 45  0  0  0  0  0  0  0  0999 V2000
    1.7140   45.5570   52.2090 O   0  0  0  0  0  0  0  0  0  0  0  0
    1.6570   44.4340   52.7790 C   0  0  0  0  0  0  0  0  0  0  0  0
    2.8340   43.8590   53.3730 N   0  0  0  0  0  0  0  0  0  0  0  0
    4.1080   44.5200   53.4340 C   0  0  0  0  0  0  0  0  0  0  0  0
    4.5140   45.1290   54.6280 C   0  0  0  0  0  0  0  0  0  0  0  0
    5.7580   45.7580   54.7090 C   0  0  0  0  0  0  0  0  0  0  0  0
    6.6040   45.7620   53.5890 C   0  0  0  0  0  0  0  0  0  0  0  0
    7.8900   46.4020   53.6420 N   0  0  0  0  0  0  0  0  0  0  0  0
    8.8340   46.3610   52.6820 C   0  0  0  0  0  0  0  0  0  0  0  0
    9.9190   47.0970   53.1070 C   0  0  0  0  0  0  0  0  0  0  0  0
    9.5590   47.5650   54.3550 C   0  0  0  0  0  0  0  0  0  0  0  0
    8.3220   47.1300   54.6600 N   0  0  0  0  0  0  0  0  0  0  0  0
    6.2010   45.1400   52.4470 N   0  0  0  0  0  0  0  0  0  0  0  0
    4.9930   44.5250   52.3440 C   0  0  0  0  0  0  0  0  0  0  0  0
    0.3600   43.6680   52.7520 C   0  0  1  0  0  0  0  0  0  0  0  0
    0.2210   42.6150   53.8460 C   0  0  0  0  0  0  0  0  0  0  0  0
   -0.6570   43.8650   53.8910 C   0  0  1  0  0  0  0  0  0  0  0  0
   -0.3710   44.9690   54.9490 C   0  0  0  0  0  0  0  0  0  0  0  0
    0.6060   44.6080   56.0660 C   0  0  0  0  0  0  0  0  0  0  0  0
    0.2860   45.5740   57.1960 C   0  0  0  0  0  0  0  0  0  0  0  0
   -1.1750   45.9800   57.0110 C   0  0  0  0  0  0  0  0  0  0  0  0
   -1.6420   45.3520   55.7010 C   0  0  0  0  0  0  0  0  0  0  0  0
    2.7390   42.9530   53.8850 H   0  0  0  0  0  0  0  0  0  0  0  0
    3.8505   45.1118   55.5052 H   0  0  0  0  0  0  0  0  0  0  0  0
    6.0725   46.2465   55.6431 H   0  0  0  0  0  0  0  0  0  0  0  0
    8.7527   45.8303   51.7219 H   0  0  0  0  0  0  0  0  0  0  0  0
   10.8631   47.2727   52.5705 H   0  0  0  0  0  0  0  0  0  0  0  0
   10.1866   48.1964   55.0010 H   0  0  0  0  0  0  0  0  0  0  0  0
    4.7081   44.0299   51.4040 H   0  0  0  0  0  0  0  0  0  0  0  0
    0.2789   43.7083   51.6557 H   0  0  0  0  0  0  0  0  0  0  0  0
   -0.2274   41.6380   53.6130 H   0  0  0  0  0  0  0  0  0  0  0  0
    0.9160   42.1311   54.5480 H   0  0  0  0  0  0  0  0  0  0  0  0
   -1.7400   44.0453   53.9590 H   0  0  0  0  0  0  0  0  0  0  0  0
    0.0613   45.7654   54.3254 H   0  0  0  0  0  0  0  0  0  0  0  0
    0.4541   43.5683   56.3915 H   0  0  0  0  0  0  0  0  0  0  0  0
    1.6536   44.6860   55.7399 H   0  0  0  0  0  0  0  0  0  0  0  0
    0.4241   45.0808   58.1695 H   0  0  0  0  0  0  0  0  0  0  0  0
    0.9507   46.4502   57.1737 H   0  0  0  0  0  0  0  0  0  0  0  0
   -1.7816   45.6052   57.8486 H   0  0  0  0  0  0  0  0  0  0  0  0
   -1.2813   47.0745   56.9851 H   0  0  0  0  0  0  0  0  0  0  0  0
   -2.2532   44.4594   55.9003 H   0  0  0  0  0  0  0  0  0  0  0  0
   -2.2645   46.0465   55.1177 H   0  0  0  0  0  0  0  0  0  0  0  0
  1  2  2  0
  2  3  1  0
  3  4  1  0
  4  5  2  0
  5  6  1  0
  6  7  2  0
  7  8  1  0
  8  9  1  0
  9 10  2  0
 10 11  1  0
 11 12  2  0
  7 13  1  0
 13 14  2  0
  2 15  1  0
 15 16  1  0
 16 17  1  0
 17 18  1  0
 18 19  1  0
 19 20  1  0
 20 21  1  0
 21 22  1  0
 14  4  1  0
 17 15  1  0
 22 18  1  0
 12  8  1  0
  3 23  1  0
  5 24  1  0
  6 25  1  0
  9 26  1  0
 10 27  1  0
 11 28  1  0
 14 29  1  0
 15 30  1  6
 16 31  1  0
 16 32  1  0
 17 33  1  6
 18 34  1  0
 19 35  1  0
 19 36  1  0
 20 37  1  0
 20 38  1  0
 21 39  1  0
 21 40  1  0
 22 41  1  0
 22 42  1  0
M  END
>  <meeko>  (4) 
{"is_sidechain": [false], "free_energy": -7.429, "intermolecular_energy": -9.133, "internal_energy": -0.679}

$$$$
ligand_32_conformer_5_docked
     RDKit          3D

 42 45  0  0  0  0  0  0  0  0999 V2000
    3.1850   45.4530   51.6760 O   0  0  0  0  0  0  0  0  0  0  0  0
    3.8310   44.4850   52.1590 C   0  0  0  0  0  0  0  0  0  0  0  0
    3.4990   43.9640   53.4580 N   0  0  0  0  0  0  0  0  0  0  0  0
    2.3980   44.4320   54.2530 C   0  0  0  0  0  0  0  0  0  0  0  0
    1.1110   43.9330   54.0130 C   0  0  0  0  0  0  0  0  0  0  0  0
    0.0340   44.3640   54.7900 C   0  0  0  0  0  0  0  0  0  0  0  0
    0.2530   45.2860   55.8250 C   0  0  0  0  0  0  0  0  0  0  0  0
   -0.8350   45.7470   56.6420 N   0  0  0  0  0  0  0  0  0  0  0  0
   -2.0330   45.1460   56.7780 C   0  0  0  0  0  0  0  0  0  0  0  0
   -2.7990   45.8940   57.6460 C   0  0  0  0  0  0  0  0  0  0  0  0
   -1.9900   46.9530   58.0050 C   0  0  0  0  0  0  0  0  0  0  0  0
   -0.8010   46.8440   57.3830 N   0  0  0  0  0  0  0  0  0  0  0  0
    1.5170   45.7350   56.0590 N   0  0  0  0  0  0  0  0  0  0  0  0
    2.5800   45.3340   55.3120 C   0  0  0  0  0  0  0  0  0  0  0  0
    5.0090   43.9400   51.3940 C   0  0  1  0  0  0  0  0  0  0  0  0
    5.4050   44.7570   50.1690 C   0  0  0  0  0  0  0  0  0  0  0  0
    6.3330   44.7260   51.3830 C   0  0  1  0  0  0  0  0  0  0  0  0
    6.4480   45.9830   52.2940 C   0  0  0  0  0  0  0  0  0  0  0  0
    7.4730   47.0360   51.8790 C   0  0  0  0  0  0  0  0  0  0  0  0
    7.7740   47.8140   53.1510 C   0  0  0  0  0  0  0  0  0  0  0  0
    7.4820   46.8660   54.3120 C   0  0  0  0  0  0  0  0  0  0  0  0
    6.8860   45.5990   53.7040 C   0  0  0  0  0  0  0  0  0  0  0  0
    4.0180   43.1250   53.8040 H   0  0  0  0  0  0  0  0  0  0  0  0
    0.9485   43.1992   53.2098 H   0  0  0  0  0  0  0  0  0  0  0  0
   -0.9790   43.9835   54.5923 H   0  0  0  0  0  0  0  0  0  0  0  0
   -2.3466   44.2162   56.2808 H   0  0  0  0  0  0  0  0  0  0  0  0
   -3.8277   45.6917   57.9790 H   0  0  0  0  0  0  0  0  0  0  0  0
   -2.2734   47.7623   58.6940 H   0  0  0  0  0  0  0  0  0  0  0  0
    3.5856   45.7179   55.5387 H   0  0  0  0  0  0  0  0  0  0  0  0
    4.7579   42.8930   51.6192 H   0  0  0  0  0  0  0  0  0  0  0  0
    5.6993   44.2457   49.2406 H   0  0  0  0  0  0  0  0  0  0  0  0
    4.9252   45.5534   49.5811 H   0  0  0  0  0  0  0  0  0  0  0  0
    7.3950   44.4841   51.5369 H   0  0  0  0  0  0  0  0  0  0  0  0
    5.4355   46.4061   52.2170 H   0  0  0  0  0  0  0  0  0  0  0  0
    8.3852   46.5570   51.4936 H   0  0  0  0  0  0  0  0  0  0  0  0
    7.0958   47.6863   51.0760 H   0  0  0  0  0  0  0  0  0  0  0  0
    8.8296   48.1230   53.1678 H   0  0  0  0  0  0  0  0  0  0  0  0
    7.1627   48.7262   53.2160 H   0  0  0  0  0  0  0  0  0  0  0  0
    8.4115   46.6275   54.8498 H   0  0  0  0  0  0  0  0  0  0  0  0
    6.7878   47.3240   55.0320 H   0  0  0  0  0  0  0  0  0  0  0  0
    7.6410   44.7999   53.6666 H   0  0  0  0  0  0  0  0  0  0  0  0
    6.0436   45.2200   54.3013 H   0  0  0  0  0  0  0  0  0  0  0  0
  1  2  2  0
  2  3  1  0
  3  4  1  0
  4  5  2  0
  5  6  1  0
  6  7  2  0
  7  8  1  0
  8  9  1  0
  9 10  2  0
 10 11  1  0
 11 12  2  0
  7 13  1  0
 13 14  2  0
  2 15  1  0
 15 16  1  0
 16 17  1  0
 17 18  1  0
 18 19  1  0
 19 20  1  0
 20 21  1  0
 21 22  1  0
 14  4  1  0
 17 15  1  0
 22 18  1  0
 12  8  1  0
  3 23  1  0
  5 24  1  0
  6 25  1  0
  9 26  1  0
 10 27  1  0
 11 28  1  0
 14 29  1  0
 15 30  1  6
 16 31  1  0
 16 32  1  0
 17 33  1  6
 18 34  1  0
 19 35  1  0
 19 36  1  0
 20 37  1  0
 20 38  1  0
 21 39  1  0
 21 40  1  0
 22 41  1  0
 22 42  1  0
M  END
>  <meeko>  (5) 
{"is_sidechain": [false], "free_energy": -6.725, "intermolecular_energy": -8.411, "internal_energy": -0.533}

$$$$
