ligand_61_conformer_3_docked
     RDKit          3D

 41 44  0  0  0  0  0  0  0  0999 V2000
    1.3200   45.0180   52.3150 O   0  0  0  0  0  0  0  0  0  0  0  0
    1.5490   44.3250   53.3450 C   0  0  0  0  0  0  0  0  0  0  0  0
    2.5690   43.3120   53.3080 N   0  0  0  0  0  0  0  0  0  0  0  0
    3.6540   43.3070   52.3650 C   0  0  0  0  0  0  0  0  0  0  0  0
    3.7210   42.2940   51.3970 C   0  0  0  0  0  0  0  0  0  0  0  0
    4.7750   42.2610   50.4820 C   0  0  0  0  0  0  0  0  0  0  0  0
    5.7820   43.2270   50.5340 C   0  0  0  0  0  0  0  0  0  0  0  0
    5.7530   44.2310   51.5150 C   0  0  0  0  0  0  0  0  0  0  0  0
    6.8200   45.2550   51.5890 C   0  0  0  0  0  0  0  0  0  0  0  0
    7.5320   45.6960   50.5260 N   0  0  0  0  0  0  0  0  0  0  0  0
    8.3940   46.6280   50.9120 N   0  0  0  0  0  0  0  0  0  0  0  0
    8.2390   46.7780   52.2400 C   0  0  0  0  0  0  0  0  0  0  0  0
    7.2520   45.9570   52.7000 C   0  0  0  0  0  0  0  0  0  0  0  0
    6.8370   45.9560   54.1410 C   0  0  0  0  0  0  0  0  0  0  0  0
    7.1960   47.1850   54.7620 O   0  0  0  0  0  0  0  0  0  0  0  0
    8.5840   47.4580   54.5880 C   0  0  0  0  0  0  0  0  0  0  0  0
    8.9150   47.7810   53.1140 C   0  0  0  0  0  0  0  0  0  0  0  0
    4.6840   44.2650   52.4270 C   0  0  0  0  0  0  0  0  0  0  0  0
    0.7280   44.5330   54.5620 C   0  0  0  0  0  0  0  0  0  0  0  0
   -0.6340   44.1820   54.5720 C   0  0  0  0  0  0  0  0  0  0  0  0
   -1.3870   44.3800   55.6870 N   0  0  0  0  0  0  0  0  0  0  0  0
   -0.8640   44.9220   56.8180 C   0  0  0  0  0  0  0  0  0  0  0  0
    0.4790   45.2980   56.8570 C   0  0  0  0  0  0  0  0  0  0  0  0
    1.0070   45.8610   58.0170 O   0  0  0  0  0  0  0  0  0  0  0  0
    1.2770   45.1040   55.7240 C   0  0  0  0  0  0  0  0  0  0  0  0
    2.4510   42.4750   53.9220 H   0  0  0  0  0  0  0  0  0  0  0  0
    2.9389   41.5215   51.3586 H   0  0  0  0  0  0  0  0  0  0  0  0
    4.8123   41.4711   49.7173 H   0  0  0  0  0  0  0  0  0  0  0  0
    6.6028   43.2012   49.8021 H   0  0  0  0  0  0  0  0  0  0  0  0
    7.4430   45.3640   49.5400 H   0  0  0  0  0  0  0  0  0  0  0  0
    5.7469   45.8230   54.2040 H   0  0  0  0  0  0  0  0  0  0  0  0
    7.3492   45.1318   54.6590 H   0  0  0  0  0  0  0  0  0  0  0  0
    8.8604   48.3194   55.2138 H   0  0  0  0  0  0  0  0  0  0  0  0
    9.1521   46.5632   54.8821 H   0  0  0  0  0  0  0  0  0  0  0  0
    8.5544   48.7903   52.8664 H   0  0  0  0  0  0  0  0  0  0  0  0
   10.0030   47.7413   52.9572 H   0  0  0  0  0  0  0  0  0  0  0  0
    4.6517   45.0490   53.1979 H   0  0  0  0  0  0  0  0  0  0  0  0
   -1.0927   43.7449   53.6728 H   0  0  0  0  0  0  0  0  0  0  0  0
   -1.5003   45.0645   57.7039 H   0  0  0  0  0  0  0  0  0  0  0  0
    0.6530   46.7350   58.3890 H   0  0  0  0  0  0  0  0  0  0  0  0
    2.3366   45.3989   55.7423 H   0  0  0  0  0  0  0  0  0  0  0  0
  1  2  2  0
  2  3  1  0
  3  4  1  0
  4  5  2  0
  5  6  1  0
  6  7  2  0
  7  8  1  0
  8  9  1  0
  9 10  1  0
 10 11  1  0
 11 12  2  0
 12 13  1  0
 13 14  1  0
 14 15  1  0
 15 16  1  0
 16 17  1  0
  8 18  2  0
  2 19  1  0
 19 20  2  0
 20 21  1  0
 21 22  2  0
 22 23  1  0
 23 24  1  0
 23 25  2  0
 18  4  1  0
 25 19  1  0
 13  9  2  0
 17 12  1  0
  3 26  1  0
  5 27  1  0
  6 28  1  0
  7 29  1  0
 10 30  1  0
 14 31  1  0
 14 32  1  0
 16 33  1  0
 16 34  1  0
 17 35  1  0
 17 36  1  0
 18 37  1  0
 20 38  1  0
 22 39  1  0
 24 40  1  0
 25 41  1  0
M  END
>  <meeko>  (1) 
{"is_sidechain": [false], "free_energy": -9.338, "intermolecular_energy": -11.248, "internal_energy": -0.378}

$$$$
ligand_61_conformer_3_docked
     RDKit          3D

 41 44  0  0  0  0  0  0  0  0999 V2000
    1.3810   43.3630   54.0010 O   0  0  0  0  0  0  0  0  0  0  0  0
    0.7070   44.4020   54.2450 C   0  0  0  0  0  0  0  0  0  0  0  0
    1.2960   45.6970   54.0360 N   0  0  0  0  0  0  0  0  0  0  0  0
    2.4120   45.9340   53.1600 C   0  0  0  0  0  0  0  0  0  0  0  0
    2.2220   45.8680   51.7720 C   0  0  0  0  0  0  0  0  0  0  0  0
    3.2940   46.0780   50.9020 C   0  0  0  0  0  0  0  0  0  0  0  0
    4.5690   46.3390   51.4090 C   0  0  0  0  0  0  0  0  0  0  0  0
    4.7890   46.3770   52.7950 C   0  0  0  0  0  0  0  0  0  0  0  0
    6.1370   46.6420   53.3460 C   0  0  0  0  0  0  0  0  0  0  0  0
    6.3830   47.0020   54.6280 N   0  0  0  0  0  0  0  0  0  0  0  0
    7.6890   47.1420   54.8170 N   0  0  0  0  0  0  0  0  0  0  0  0
    8.2860   46.8790   53.6400 C   0  0  0  0  0  0  0  0  0  0  0  0
    7.3560   46.5410   52.7000 C   0  0  0  0  0  0  0  0  0  0  0  0
    7.7520   46.1510   51.3080 C   0  0  0  0  0  0  0  0  0  0  0  0
    9.1020   45.7010   51.2820 O   0  0  0  0  0  0  0  0  0  0  0  0
    9.9750   46.6740   51.8510 C   0  0  0  0  0  0  0  0  0  0  0  0
    9.7520   46.8080   53.3740 C   0  0  0  0  0  0  0  0  0  0  0  0
    3.7030   46.1740   53.6650 C   0  0  0  0  0  0  0  0  0  0  0  0
   -0.6650   44.2700   54.7900 C   0  0  0  0  0  0  0  0  0  0  0  0
   -1.7230   43.8490   53.9640 C   0  0  0  0  0  0  0  0  0  0  0  0
   -2.9820   43.7340   54.4640 N   0  0  0  0  0  0  0  0  0  0  0  0
   -3.2670   44.0230   55.7610 C   0  0  0  0  0  0  0  0  0  0  0  0
   -2.2560   44.4550   56.6200 C   0  0  0  0  0  0  0  0  0  0  0  0
   -2.5560   44.7570   57.9470 O   0  0  0  0  0  0  0  0  0  0  0  0
   -0.9500   44.5800   56.1310 C   0  0  0  0  0  0  0  0  0  0  0  0
    0.9720   46.4860   54.6390 H   0  0  0  0  0  0  0  0  0  0  0  0
    1.2231   45.6496   51.3664 H   0  0  0  0  0  0  0  0  0  0  0  0
    3.1338   46.0377   49.8145 H   0  0  0  0  0  0  0  0  0  0  0  0
    5.4062   46.5159   50.7178 H   0  0  0  0  0  0  0  0  0  0  0  0
    5.6710   47.1600   55.3740 H   0  0  0  0  0  0  0  0  0  0  0  0
    7.0939   45.3423   50.9575 H   0  0  0  0  0  0  0  0  0  0  0  0
    7.6565   47.0285   50.6516 H   0  0  0  0  0  0  0  0  0  0  0  0
   11.0165   46.3719   51.6668 H   0  0  0  0  0  0  0  0  0  0  0  0
    9.7625   47.6464   51.3827 H   0  0  0  0  0  0  0  0  0  0  0  0
   10.1794   45.9348   53.8886 H   0  0  0  0  0  0  0  0  0  0  0  0
   10.2441   47.7190   53.7454 H   0  0  0  0  0  0  0  0  0  0  0  0
    3.8647   46.2032   54.7527 H   0  0  0  0  0  0  0  0  0  0  0  0
   -1.5305   43.6114   52.9073 H   0  0  0  0  0  0  0  0  0  0  0  0
   -4.2963   43.9162   56.1341 H   0  0  0  0  0  0  0  0  0  0  0  0
   -3.2100   45.4940   58.1860 H   0  0  0  0  0  0  0  0  0  0  0  0
   -0.1449   44.9217   56.7981 H   0  0  0  0  0  0  0  0  0  0  0  0
  1  2  2  0
  2  3  1  0
  3  4  1  0
  4  5  2  0
  5  6  1  0
  6  7  2  0
  7  8  1  0
  8  9  1  0
  9 10  1  0
 10 11  1  0
 11 12  2  0
 12 13  1  0
 13 14  1  0
 14 15  1  0
 15 16  1  0
 16 17  1  0
  8 18  2  0
  2 19  1  0
 19 20  2  0
 20 21  1  0
 21 22  2  0
 22 23  1  0
 23 24  1  0
 23 25  2  0
 18  4  1  0
 25 19  1  0
 13  9  2  0
 17 12  1  0
  3 26  1  0
  5 27  1  0
  6 28  1  0
  7 29  1  0
 10 30  1  0
 14 31  1  0
 14 32  1  0
 16 33  1  0
 16 34  1  0
 17 35  1  0
 17 36  1  0
 18 37  1  0
 20 38  1  0
 22 39  1  0
 24 40  1  0
 25 41  1  0
M  END
>  <meeko>  (2) 
{"is_sidechain": [false], "free_energy": -9.087, "intermolecular_energy": -11.071, "internal_energy": -0.254}

$$$$
ligand_61_conformer_3_docked
     RDKit          3D

 41 44  0  0  0  0  0  0  0  0999 V2000
    5.0330   46.6720   52.1180 O   0  0  0  0  0  0  0  0  0  0  0  0
    5.8680   45.9040   52.6700 C   0  0  0  0  0  0  0  0  0  0  0  0
    5.4290   44.6450   53.2090 N   0  0  0  0  0  0  0  0  0  0  0  0
    4.2290   43.9740   52.7890 C   0  0  0  0  0  0  0  0  0  0  0  0
    4.2530   43.1820   51.6320 C   0  0  0  0  0  0  0  0  0  0  0  0
    3.0950   42.5340   51.1960 C   0  0  0  0  0  0  0  0  0  0  0  0
    1.8990   42.6830   51.9000 C   0  0  0  0  0  0  0  0  0  0  0  0
    1.8440   43.4970   53.0430 C   0  0  0  0  0  0  0  0  0  0  0  0
    0.5800   43.6740   53.7930 C   0  0  0  0  0  0  0  0  0  0  0  0
   -0.5810   43.0450   53.4940 N   0  0  0  0  0  0  0  0  0  0  0  0
   -1.5230   43.3930   54.3630 N   0  0  0  0  0  0  0  0  0  0  0  0
   -0.9600   44.2630   55.2220 C   0  0  0  0  0  0  0  0  0  0  0  0
    0.3570   44.4490   54.9170 C   0  0  0  0  0  0  0  0  0  0  0  0
    1.2380   45.3350   55.7450 C   0  0  0  0  0  0  0  0  0  0  0  0
    0.7010   45.4860   57.0550 O   0  0  0  0  0  0  0  0  0  0  0  0
   -0.6480   45.9440   57.0030 C   0  0  0  0  0  0  0  0  0  0  0  0
   -1.5900   44.8580   56.4360 C   0  0  0  0  0  0  0  0  0  0  0  0
    3.0150   44.1390   53.4820 C   0  0  0  0  0  0  0  0  0  0  0  0
    7.2800   46.3360   52.8010 C   0  0  0  0  0  0  0  0  0  0  0  0
    8.1380   46.3150   51.6860 C   0  0  0  0  0  0  0  0  0  0  0  0
    9.4350   46.7060   51.8090 N   0  0  0  0  0  0  0  0  0  0  0  0
    9.9490   47.1190   52.9970 C   0  0  0  0  0  0  0  0  0  0  0  0
    9.1450   47.1470   54.1360 C   0  0  0  0  0  0  0  0  0  0  0  0
    9.6810   47.5630   55.3530 O   0  0  0  0  0  0  0  0  0  0  0  0
    7.8050   46.7520   54.0370 C   0  0  0  0  0  0  0  0  0  0  0  0
    5.9470   44.2540   54.0280 H   0  0  0  0  0  0  0  0  0  0  0  0
    5.1888   43.0705   51.0647 H   0  0  0  0  0  0  0  0  0  0  0  0
    3.1257   41.9041   50.2947 H   0  0  0  0  0  0  0  0  0  0  0  0
    0.9941   42.1597   51.5574 H   0  0  0  0  0  0  0  0  0  0  0  0
   -0.7420   42.3870   52.7000 H   0  0  0  0  0  0  0  0  0  0  0  0
    2.2403   44.8870   55.8138 H   0  0  0  0  0  0  0  0  0  0  0  0
    1.2976   46.3244   55.2680 H   0  0  0  0  0  0  0  0  0  0  0  0
   -0.9761   46.2074   58.0194 H   0  0  0  0  0  0  0  0  0  0  0  0
   -0.6910   46.8206   56.3398 H   0  0  0  0  0  0  0  0  0  0  0  0
   -1.7489   44.0748   57.1919 H   0  0  0  0  0  0  0  0  0  0  0  0
   -2.5605   45.3044   56.1734 H   0  0  0  0  0  0  0  0  0  0  0  0
    2.9822   44.7775   54.3771 H   0  0  0  0  0  0  0  0  0  0  0  0
    7.7578   45.9805   50.7095 H   0  0  0  0  0  0  0  0  0  0  0  0
   11.0016   47.4319   53.0604 H   0  0  0  0  0  0  0  0  0  0  0  0
   10.0170   48.5090   55.4870 H   0  0  0  0  0  0  0  0  0  0  0  0
    7.1614   46.7673   54.9290 H   0  0  0  0  0  0  0  0  0  0  0  0
  1  2  2  0
  2  3  1  0
  3  4  1  0
  4  5  2  0
  5  6  1  0
  6  7  2  0
  7  8  1  0
  8  9  1  0
  9 10  1  0
 10 11  1  0
 11 12  2  0
 12 13  1  0
 13 14  1  0
 14 15  1  0
 15 16  1  0
 16 17  1  0
  8 18  2  0
  2 19  1  0
 19 20  2  0
 20 21  1  0
 21 22  2  0
 22 23  1  0
 23 24  1  0
 23 25  2  0
 18  4  1  0
 25 19  1  0
 13  9  2  0
 17 12  1  0
  3 26  1  0
  5 27  1  0
  6 28  1  0
  7 29  1  0
 10 30  1  0
 14 31  1  0
 14 32  1  0
 16 33  1  0
 16 34  1  0
 17 35  1  0
 17 36  1  0
 18 37  1  0
 20 38  1  0
 22 39  1  0
 24 40  1  0
 25 41  1  0
M  END
>  <meeko>  (3) 
{"is_sidechain": [false], "free_energy": -8.558, "intermolecular_energy": -10.475, "internal_energy": -0.212}

$$$$
ligand_61_conformer_3_docked
     RDKit          3D

 41 44  0  0  0  0  0  0  0  0999 V2000
    3.5540   46.5420   52.3710 O   0  0  0  0  0  0  0  0  0  0  0  0
    4.1960   45.4710   52.5500 C   0  0  0  0  0  0  0  0  0  0  0  0
    3.8370   44.6000   53.6370 N   0  0  0  0  0  0  0  0  0  0  0  0
    2.5440   44.6010   54.2660 C   0  0  0  0  0  0  0  0  0  0  0  0
    1.4950   43.8740   53.6850 C   0  0  0  0  0  0  0  0  0  0  0  0
    0.2270   43.8750   54.2690 C   0  0  0  0  0  0  0  0  0  0  0  0
   -0.0110   44.6140   55.4290 C   0  0  0  0  0  0  0  0  0  0  0  0
    1.0150   45.3760   56.0100 C   0  0  0  0  0  0  0  0  0  0  0  0
    0.7740   46.1740   57.2330 C   0  0  0  0  0  0  0  0  0  0  0  0
    1.7000   46.4000   58.1950 N   0  0  0  0  0  0  0  0  0  0  0  0
    1.1860   47.1680   59.1480 N   0  0  0  0  0  0  0  0  0  0  0  0
   -0.0870   47.4280   58.7980 C   0  0  0  0  0  0  0  0  0  0  0  0
   -0.3790   46.8450   57.5990 C   0  0  0  0  0  0  0  0  0  0  0  0
   -1.7190   47.0150   56.9480 C   0  0  0  0  0  0  0  0  0  0  0  0
   -2.3650   48.1860   57.4370 O   0  0  0  0  0  0  0  0  0  0  0  0
   -2.4410   48.1710   58.8600 C   0  0  0  0  0  0  0  0  0  0  0  0
   -1.0440   48.3310   59.5010 C   0  0  0  0  0  0  0  0  0  0  0  0
    2.2920   45.3630   55.4220 C   0  0  0  0  0  0  0  0  0  0  0  0
    5.3430   45.1510   51.6670 C   0  0  0  0  0  0  0  0  0  0  0  0
    6.4670   45.9960   51.6240 C   0  0  0  0  0  0  0  0  0  0  0  0
    7.5160   45.7040   50.8090 N   0  0  0  0  0  0  0  0  0  0  0  0
    7.5180   44.6060   50.0100 C   0  0  0  0  0  0  0  0  0  0  0  0
    6.4230   43.7410   50.0050 C   0  0  0  0  0  0  0  0  0  0  0  0
    6.4270   42.6210   49.1760 O   0  0  0  0  0  0  0  0  0  0  0  0
    5.3310   44.0170   50.8360 C   0  0  0  0  0  0  0  0  0  0  0  0
    4.5890   44.0160   54.0670 H   0  0  0  0  0  0  0  0  0  0  0  0
    1.6723   43.2996   52.7638 H   0  0  0  0  0  0  0  0  0  0  0  0
   -0.5869   43.2917   53.8137 H   0  0  0  0  0  0  0  0  0  0  0  0
   -1.0092   44.5992   55.8910 H   0  0  0  0  0  0  0  0  0  0  0  0
    2.6760   46.0330   58.2130 H   0  0  0  0  0  0  0  0  0  0  0  0
   -1.5844   47.1032   55.8598 H   0  0  0  0  0  0  0  0  0  0  0  0
   -2.3426   46.1398   57.1827 H   0  0  0  0  0  0  0  0  0  0  0  0
   -3.0844   48.9988   59.1928 H   0  0  0  0  0  0  0  0  0  0  0  0
   -2.8572   47.2025   59.1743 H   0  0  0  0  0  0  0  0  0  0  0  0
   -0.7090   49.3741   59.4021 H   0  0  0  0  0  0  0  0  0  0  0  0
   -1.0900   48.0692   60.5684 H   0  0  0  0  0  0  0  0  0  0  0  0
    3.1033   45.9551   55.8706 H   0  0  0  0  0  0  0  0  0  0  0  0
    6.4976   46.8979   52.2530 H   0  0  0  0  0  0  0  0  0  0  0  0
    8.3847   44.3980   49.3653 H   0  0  0  0  0  0  0  0  0  0  0  0
    7.2700   42.3190   48.7000 H   0  0  0  0  0  0  0  0  0  0  0  0
    4.4606   43.3444   50.8389 H   0  0  0  0  0  0  0  0  0  0  0  0
  1  2  2  0
  2  3  1  0
  3  4  1  0
  4  5  2  0
  5  6  1  0
  6  7  2  0
  7  8  1  0
  8  9  1  0
  9 10  1  0
 10 11  1  0
 11 12  2  0
 12 13  1  0
 13 14  1  0
 14 15  1  0
 15 16  1  0
 16 17  1  0
  8 18  2  0
  2 19  1  0
 19 20  2  0
 20 21  1  0
 21 22  2  0
 22 23  1  0
 23 24  1  0
 23 25  2  0
 18  4  1  0
 25 19  1  0
 13  9  2  0
 17 12  1  0
  3 26  1  0
  5 27  1  0
  6 28  1  0
  7 29  1  0
 10 30  1  0
 14 31  1  0
 14 32  1  0
 16 33  1  0
 16 34  1  0
 17 35  1  0
 17 36  1  0
 18 37  1  0
 20 38  1  0
 22 39  1  0
 24 40  1  0
 25 41  1  0
M  END
>  <meeko>  (4) 
{"is_sidechain": [false], "free_energy": -8.305, "intermolecular_energy": -9.978, "internal_energy": -0.404}

$$$$
ligand_61_conformer_3_docked
     RDKit          3D

 41 44  0  0  0  0  0  0  0  0999 V2000
    5.5600   41.1690   49.5520 O   0  0  0  0  0  0  0  0  0  0  0  0
    4.3190   41.0880   49.3410 C   0  0  0  0  0  0  0  0  0  0  0  0
    3.3960   41.6130   50.3110 N   0  0  0  0  0  0  0  0  0  0  0  0
    3.7440   42.6160   51.2810 C   0  0  0  0  0  0  0  0  0  0  0  0
    2.9050   42.8270   52.3840 C   0  0  0  0  0  0  0  0  0  0  0  0
    3.2140   43.8070   53.3290 C   0  0  0  0  0  0  0  0  0  0  0  0
    4.3550   44.5980   53.1740 C   0  0  0  0  0  0  0  0  0  0  0  0
    5.1930   44.4260   52.0600 C   0  0  0  0  0  0  0  0  0  0  0  0
    6.3990   45.2640   51.8780 C   0  0  0  0  0  0  0  0  0  0  0  0
    7.0220   45.4590   50.6920 N   0  0  0  0  0  0  0  0  0  0  0  0
    8.0560   46.2770   50.8520 N   0  0  0  0  0  0  0  0  0  0  0  0
    8.1000   46.6010   52.1570 C   0  0  0  0  0  0  0  0  0  0  0  0
    7.0710   46.0090   52.8300 C   0  0  0  0  0  0  0  0  0  0  0  0
    6.8530   46.2400   54.2950 C   0  0  0  0  0  0  0  0  0  0  0  0
    7.4680   47.4580   54.7030 O   0  0  0  0  0  0  0  0  0  0  0  0
    8.8460   47.4790   54.3410 C   0  0  0  0  0  0  0  0  0  0  0  0
    9.0250   47.5740   52.8090 C   0  0  0  0  0  0  0  0  0  0  0  0
    4.8800   43.4310   51.1170 C   0  0  0  0  0  0  0  0  0  0  0  0
    3.8300   40.4060   48.1190 C   0  0  0  0  0  0  0  0  0  0  0  0
    3.1520   39.1760   48.2110 C   0  0  0  0  0  0  0  0  0  0  0  0
    2.7100   38.5500   47.0880 N   0  0  0  0  0  0  0  0  0  0  0  0
    2.9070   39.0730   45.8500 C   0  0  0  0  0  0  0  0  0  0  0  0
    3.5840   40.2840   45.7020 C   0  0  0  0  0  0  0  0  0  0  0  0
    3.7910   40.8110   44.4290 O   0  0  0  0  0  0  0  0  0  0  0  0
    4.0480   40.9510   46.8420 C   0  0  0  0  0  0  0  0  0  0  0  0
    2.4580   41.1610   50.3910 H   0  0  0  0  0  0  0  0  0  0  0  0
    1.9979   42.2168   52.5056 H   0  0  0  0  0  0  0  0  0  0  0  0
    2.5570   43.9568   54.1984 H   0  0  0  0  0  0  0  0  0  0  0  0
    4.5986   45.3601   53.9289 H   0  0  0  0  0  0  0  0  0  0  0  0
    6.7570   45.0360   49.7760 H   0  0  0  0  0  0  0  0  0  0  0  0
    5.7730   46.2942   54.4965 H   0  0  0  0  0  0  0  0  0  0  0  0
    7.3015   45.4081   54.8578 H   0  0  0  0  0  0  0  0  0  0  0  0
    9.3266   48.3491   54.8121 H   0  0  0  0  0  0  0  0  0  0  0  0
    9.3090   46.5428   54.6863 H   0  0  0  0  0  0  0  0  0  0  0  0
    8.7875   48.5936   52.4713 H   0  0  0  0  0  0  0  0  0  0  0  0
   10.0653   47.3406   52.5384 H   0  0  0  0  0  0  0  0  0  0  0  0
    5.5301   43.2879   50.2413 H   0  0  0  0  0  0  0  0  0  0  0  0
    2.9789   38.7189   49.1964 H   0  0  0  0  0  0  0  0  0  0  0  0
    2.5323   38.5412   44.9630 H   0  0  0  0  0  0  0  0  0  0  0  0
    3.1770   40.5840   43.6560 H   0  0  0  0  0  0  0  0  0  0  0  0
    4.5852   41.9052   46.7379 H   0  0  0  0  0  0  0  0  0  0  0  0
  1  2  2  0
  2  3  1  0
  3  4  1  0
  4  5  2  0
  5  6  1  0
  6  7  2  0
  7  8  1  0
  8  9  1  0
  9 10  1  0
 10 11  1  0
 11 12  2  0
 12 13  1  0
 13 14  1  0
 14 15  1  0
 15 16  1  0
 16 17  1  0
  8 18  2  0
  2 19  1  0
 19 20  2  0
 20 21  1  0
 21 22  2  0
 22 23  1  0
 23 24  1  0
 23 25  2  0
 18  4  1  0
 25 19  1  0
 13  9  2  0
 17 12  1  0
  3 26  1  0
  5 27  1  0
  6 28  1  0
  7 29  1  0
 10 30  1  0
 14 31  1  0
 14 32  1  0
 16 33  1  0
 16 34  1  0
 17 35  1  0
 17 36  1  0
 18 37  1  0
 20 38  1  0
 22 39  1  0
 24 40  1  0
 25 41  1  0
M  END
>  <meeko>  (5) 
{"is_sidechain": [false], "free_energy": -8.266, "intermolecular_energy": -10.564, "internal_energy": 0.228}

$$$$
