ligand_14_conformer_2_docked
     RDKit          3D

 47 50  0  0  0  0  0  0  0  0999 V2000
    8.7160   48.3240   54.6640 C   0  0  0  0  0  0  0  0  0  0  0  0
    8.8130   47.3690   53.5110 C   0  0  0  0  0  0  0  0  0  0  0  0
   10.0680   46.9720   53.0300 C   0  0  0  0  0  0  0  0  0  0  0  0
   10.1650   46.1040   51.9400 C   0  0  0  0  0  0  0  0  0  0  0  0
   11.3890   45.7130   51.5030 F   0  0  0  0  0  0  0  0  0  0  0  0
    9.0070   45.6430   51.3040 C   0  0  0  0  0  0  0  0  0  0  0  0
    9.1110   44.7810   50.2580 N   0  0  0  0  0  0  0  0  0  0  0  0
    8.0180   44.2960   49.6120 C   0  0  0  0  0  0  0  0  0  0  0  0
    8.1710   43.4120   48.5500 O   0  0  0  0  0  0  0  0  0  0  0  0
    6.7400   44.6880   50.0110 C   0  0  0  0  0  0  0  0  0  0  0  0
    6.5840   45.5900   51.0710 C   0  0  0  0  0  0  0  0  0  0  0  0
    5.2180   46.0130   51.4370 C   0  0  0  0  0  0  0  0  0  0  0  0
    4.4010   46.3030   50.5220 O   0  0  0  0  0  0  0  0  0  0  0  0
    4.8190   46.1250   52.8140 N   0  0  0  0  0  0  0  0  0  0  0  0
    4.4060   47.3700   53.4420 C   0  0  0  0  0  0  0  0  0  0  0  0
    3.7810   46.9660   54.7690 C   0  0  0  0  0  0  0  0  0  0  0  0
    4.3230   45.5590   55.0610 C   0  0  1  0  0  0  0  0  0  0  0  0
    3.3460   44.7250   55.7750 N   0  0  0  0  0  0  0  0  0  0  0  0
    1.9210   44.7930   55.5670 C   0  0  0  0  0  0  0  0  0  0  0  0
    1.0610   45.4230   56.4900 C   0  0  0  0  0  0  0  0  0  0  0  0
   -0.3170   45.4700   56.2520 C   0  0  0  0  0  0  0  0  0  0  0  0
   -0.8510   44.8970   55.0970 C   0  0  0  0  0  0  0  0  0  0  0  0
   -0.0070   44.2760   54.1730 C   0  0  0  0  0  0  0  0  0  0  0  0
    1.3700   44.2270   54.4050 C   0  0  0  0  0  0  0  0  0  0  0  0
    4.6670   44.9770   53.6890 C   0  0  0  0  0  0  0  0  0  0  0  0
    7.7310   46.0650   51.7510 C   0  0  0  0  0  0  0  0  0  0  0  0
    7.6500   46.9230   52.8660 C   0  0  0  0  0  0  0  0  0  0  0  0
    8.7728   47.7645   55.6093 H   0  0  0  0  0  0  0  0  0  0  0  0
    9.5456   49.0446   54.6140 H   0  0  0  0  0  0  0  0  0  0  0  0
    7.7585   48.8631   54.6140 H   0  0  0  0  0  0  0  0  0  0  0  0
   10.9822   47.3463   53.5138 H   0  0  0  0  0  0  0  0  0  0  0  0
    7.3640   42.9970   48.0980 H   0  0  0  0  0  0  0  0  0  0  0  0
    5.8553   44.2889   49.4934 H   0  0  0  0  0  0  0  0  0  0  0  0
    5.2750   48.0234   53.6091 H   0  0  0  0  0  0  0  0  0  0  0  0
    3.7004   47.9313   52.8119 H   0  0  0  0  0  0  0  0  0  0  0  0
    4.0783   47.6660   55.5638 H   0  0  0  0  0  0  0  0  0  0  0  0
    2.6819   46.9812   54.7260 H   0  0  0  0  0  0  0  0  0  0  0  0
    5.1990   45.5942   55.7254 H   0  0  0  0  0  0  0  0  0  0  0  0
    3.6950   44.0380   56.4820 H   0  0  0  0  0  0  0  0  0  0  0  0
    1.4753   45.8795   57.4011 H   0  0  0  0  0  0  0  0  0  0  0  0
   -0.9820   45.9605   56.9781 H   0  0  0  0  0  0  0  0  0  0  0  0
   -1.9351   44.9343   54.9144 H   0  0  0  0  0  0  0  0  0  0  0  0
   -0.4270   43.8251   53.2618 H   0  0  0  0  0  0  0  0  0  0  0  0
    2.0291   43.7406   53.6708 H   0  0  0  0  0  0  0  0  0  0  0  0
    5.6040   44.4028   53.7378 H   0  0  0  0  0  0  0  0  0  0  0  0
    3.8896   44.2869   53.3293 H   0  0  0  0  0  0  0  0  0  0  0  0
    6.6651   47.2461   53.2341 H   0  0  0  0  0  0  0  0  0  0  0  0
  1  2  1  0
  2  3  2  0
  3  4  1  0
  4  5  1  0
  4  6  2  0
  6  7  1  0
  7  8  2  0
  8  9  1  0
  8 10  1  0
 10 11  2  0
 11 12  1  0
 12 13  2  0
 12 14  1  0
 14 15  1  0
 15 16  1  0
 16 17  1  0
 17 18  1  0
 18 19  1  0
 19 20  2  0
 20 21  1  0
 21 22  2  0
 22 23  1  0
 23 24  2  0
 17 25  1  0
 11 26  1  0
 26 27  2  0
 27  2  1  0
 26  6  1  0
 25 14  1  0
 24 19  1  0
  1 28  1  0
  1 29  1  0
  1 30  1  0
  3 31  1  0
  9 32  1  0
 10 33  1  0
 15 34  1  0
 15 35  1  0
 16 36  1  0
 16 37  1  0
 17 38  1  1
 18 39  1  0
 20 40  1  0
 21 41  1  0
 22 42  1  0
 23 43  1  0
 24 44  1  0
 25 45  1  0
 25 46  1  0
 27 47  1  0
M  END
>  <meeko>  (1) 
{"is_sidechain": [false], "free_energy": -10.058, "intermolecular_energy": -12.704, "internal_energy": -0.156}

$$$$
ligand_14_conformer_2_docked
     RDKit          3D

 47 50  0  0  0  0  0  0  0  0999 V2000
   10.3320   46.0190   50.9400 C   0  0  0  0  0  0  0  0  0  0  0  0
    9.2420   46.3700   51.9100 C   0  0  0  0  0  0  0  0  0  0  0  0
    9.5610   46.9220   53.1580 C   0  0  0  0  0  0  0  0  0  0  0  0
    8.5520   47.2260   54.0750 C   0  0  0  0  0  0  0  0  0  0  0  0
    8.8790   47.7800   55.2690 F   0  0  0  0  0  0  0  0  0  0  0  0
    7.2140   46.9590   53.7620 C   0  0  0  0  0  0  0  0  0  0  0  0
    6.2380   47.2780   54.6520 N   0  0  0  0  0  0  0  0  0  0  0  0
    4.9240   47.0480   54.3940 C   0  0  0  0  0  0  0  0  0  0  0  0
    3.9580   47.3960   55.3320 O   0  0  0  0  0  0  0  0  0  0  0  0
    4.5420   46.4590   53.1880 C   0  0  0  0  0  0  0  0  0  0  0  0
    5.5140   46.0940   52.2490 C   0  0  0  0  0  0  0  0  0  0  0  0
    5.0740   45.4350   51.0040 C   0  0  0  0  0  0  0  0  0  0  0  0
    4.5610   46.1350   50.0890 O   0  0  0  0  0  0  0  0  0  0  0  0
    5.1940   44.0130   50.8320 N   0  0  0  0  0  0  0  0  0  0  0  0
    4.2460   43.0460   51.3630 C   0  0  0  0  0  0  0  0  0  0  0  0
    4.5860   41.7300   50.6800 C   0  0  0  0  0  0  0  0  0  0  0  0
    6.0270   41.8930   50.1780 C   0  0  1  0  0  0  0  0  0  0  0  0
    6.2650   41.1650   48.9240 N   0  0  0  0  0  0  0  0  0  0  0  0
    5.3590   41.1740   47.8020 C   0  0  0  0  0  0  0  0  0  0  0  0
    4.1310   40.4820   47.8260 C   0  0  0  0  0  0  0  0  0  0  0  0
    3.2790   40.5150   46.7180 C   0  0  0  0  0  0  0  0  0  0  0  0
    3.6370   41.2390   45.5790 C   0  0  0  0  0  0  0  0  0  0  0  0
    4.8470   41.9340   45.5450 C   0  0  0  0  0  0  0  0  0  0  0  0
    5.7020   41.9040   46.6510 C   0  0  0  0  0  0  0  0  0  0  0  0
    6.2140   43.4000   50.0010 C   0  0  0  0  0  0  0  0  0  0  0  0
    6.8770   46.3650   52.5220 C   0  0  0  0  0  0  0  0  0  0  0  0
    7.9040   46.0850   51.5980 C   0  0  0  0  0  0  0  0  0  0  0  0
   11.2364   45.7278   51.4943 H   0  0  0  0  0  0  0  0  0  0  0  0
   10.0040   45.1811   50.3073 H   0  0  0  0  0  0  0  0  0  0  0  0
   10.5546   46.8909   50.3073 H   0  0  0  0  0  0  0  0  0  0  0  0
   10.6121   47.1170   53.4170 H   0  0  0  0  0  0  0  0  0  0  0  0
    2.9730   47.3830   55.0930 H   0  0  0  0  0  0  0  0  0  0  0  0
    3.4775   46.2816   52.9752 H   0  0  0  0  0  0  0  0  0  0  0  0
    4.3597   42.9544   52.4533 H   0  0  0  0  0  0  0  0  0  0  0  0
    3.2051   43.3477   51.1746 H   0  0  0  0  0  0  0  0  0  0  0  0
    4.5193   40.8967   51.3949 H   0  0  0  0  0  0  0  0  0  0  0  0
    3.8897   41.5027   49.8593 H   0  0  0  0  0  0  0  0  0  0  0  0
    6.7514   41.4681   50.8884 H   0  0  0  0  0  0  0  0  0  0  0  0
    7.1390   40.6000   48.8300 H   0  0  0  0  0  0  0  0  0  0  0  0
    3.8415   39.9128   48.7217 H   0  0  0  0  0  0  0  0  0  0  0  0
    2.3243   39.9693   46.7436 H   0  0  0  0  0  0  0  0  0  0  0  0
    2.9653   41.2617   44.7082 H   0  0  0  0  0  0  0  0  0  0  0  0
    5.1280   42.5054   44.6480 H   0  0  0  0  0  0  0  0  0  0  0  0
    6.6523   42.4571   46.6199 H   0  0  0  0  0  0  0  0  0  0  0  0
    7.2170   43.7055   50.3338 H   0  0  0  0  0  0  0  0  0  0  0  0
    6.1218   43.7037   48.9478 H   0  0  0  0  0  0  0  0  0  0  0  0
    7.6543   45.6392   50.6239 H   0  0  0  0  0  0  0  0  0  0  0  0
  1  2  1  0
  2  3  2  0
  3  4  1  0
  4  5  1  0
  4  6  2  0
  6  7  1  0
  7  8  2  0
  8  9  1  0
  8 10  1  0
 10 11  2  0
 11 12  1  0
 12 13  2  0
 12 14  1  0
 14 15  1  0
 15 16  1  0
 16 17  1  0
 17 18  1  0
 18 19  1  0
 19 20  2  0
 20 21  1  0
 21 22  2  0
 22 23  1  0
 23 24  2  0
 17 25  1  0
 11 26  1  0
 26 27  2  0
 27  2  1  0
 26  6  1  0
 25 14  1  0
 24 19  1  0
  1 28  1  0
  1 29  1  0
  1 30  1  0
  3 31  1  0
  9 32  1  0
 10 33  1  0
 15 34  1  0
 15 35  1  0
 16 36  1  0
 16 37  1  0
 17 38  1  1
 18 39  1  0
 20 40  1  0
 21 41  1  0
 22 42  1  0
 23 43  1  0
 24 44  1  0
 25 45  1  0
 25 46  1  0
 27 47  1  0
M  END
>  <meeko>  (2) 
{"is_sidechain": [false], "free_energy": -10.011, "intermolecular_energy": -12.331, "internal_energy": -0.47}

$$$$
ligand_14_conformer_2_docked
     RDKit          3D

 47 50  0  0  0  0  0  0  0  0999 V2000
   11.0240   45.9880   51.4970 C   0  0  0  0  0  0  0  0  0  0  0  0
    9.8240   46.4000   52.2970 C   0  0  0  0  0  0  0  0  0  0  0  0
    9.9840   47.1390   53.4770 C   0  0  0  0  0  0  0  0  0  0  0  0
    8.8720   47.5020   54.2390 C   0  0  0  0  0  0  0  0  0  0  0  0
    9.0450   48.2380   55.3660 F   0  0  0  0  0  0  0  0  0  0  0  0
    7.5880   47.1080   53.8430 C   0  0  0  0  0  0  0  0  0  0  0  0
    6.5100   47.4850   54.5810 N   0  0  0  0  0  0  0  0  0  0  0  0
    5.2430   47.1370   54.2350 C   0  0  0  0  0  0  0  0  0  0  0  0
    4.1690   47.5490   55.0160 O   0  0  0  0  0  0  0  0  0  0  0  0
    5.0180   46.3610   53.0970 C   0  0  0  0  0  0  0  0  0  0  0  0
    6.1000   45.9320   52.3170 C   0  0  0  0  0  0  0  0  0  0  0  0
    5.8240   45.0790   51.1440 C   0  0  0  0  0  0  0  0  0  0  0  0
    6.3970   45.3380   50.0510 O   0  0  0  0  0  0  0  0  0  0  0  0
    4.8960   43.9840   51.2240 N   0  0  0  0  0  0  0  0  0  0  0  0
    5.1760   42.6430   50.7350 C   0  0  0  0  0  0  0  0  0  0  0  0
    4.0720   41.7660   51.3080 C   0  0  0  0  0  0  0  0  0  0  0  0
    2.9360   42.7310   51.6740 C   0  0  1  0  0  0  0  0  0  0  0  0
    2.1870   42.2830   52.8560 N   0  0  0  0  0  0  0  0  0  0  0  0
    1.0190   42.9530   53.3740 C   0  0  0  0  0  0  0  0  0  0  0  0
    1.0990   43.8920   54.4210 C   0  0  0  0  0  0  0  0  0  0  0  0
   -0.0560   44.5220   54.8950 C   0  0  0  0  0  0  0  0  0  0  0  0
   -1.2990   44.2270   54.3300 C   0  0  0  0  0  0  0  0  0  0  0  0
   -1.3890   43.3040   53.2870 C   0  0  0  0  0  0  0  0  0  0  0  0
   -0.2370   42.6720   52.8100 C   0  0  0  0  0  0  0  0  0  0  0  0
    3.6240   44.0750   51.9160 C   0  0  0  0  0  0  0  0  0  0  0  0
    7.4110   46.3260   52.6760 C   0  0  0  0  0  0  0  0  0  0  0  0
    8.5410   45.9870   51.9050 C   0  0  0  0  0  0  0  0  0  0  0  0
   11.8405   45.7077   52.1787 H   0  0  0  0  0  0  0  0  0  0  0  0
   10.7641   45.1276   50.8628 H   0  0  0  0  0  0  0  0  0  0  0  0
   11.3474   46.8266   50.8628 H   0  0  0  0  0  0  0  0  0  0  0  0
   10.9916   47.4347   53.8047 H   0  0  0  0  0  0  0  0  0  0  0  0
    3.2200   47.4960   54.6640 H   0  0  0  0  0  0  0  0  0  0  0  0
    3.9915   46.0863   52.8125 H   0  0  0  0  0  0  0  0  0  0  0  0
    5.1531   42.6216   49.6354 H   0  0  0  0  0  0  0  0  0  0  0  0
    6.1743   42.2961   51.0401 H   0  0  0  0  0  0  0  0  0  0  0  0
    3.7313   41.0367   50.5583 H   0  0  0  0  0  0  0  0  0  0  0  0
    4.4169   41.1899   52.1792 H   0  0  0  0  0  0  0  0  0  0  0  0
    2.1840   42.7915   50.8734 H   0  0  0  0  0  0  0  0  0  0  0  0
    2.5140   41.4290   53.3630 H   0  0  0  0  0  0  0  0  0  0  0  0
    2.0752   44.1310   54.8681 H   0  0  0  0  0  0  0  0  0  0  0  0
    0.0145   45.2518   55.7150 H   0  0  0  0  0  0  0  0  0  0  0  0
   -2.2063   44.7218   54.7069 H   0  0  0  0  0  0  0  0  0  0  0  0
   -2.3673   43.0737   52.8399 H   0  0  0  0  0  0  0  0  0  0  0  0
   -0.3144   41.9480   51.9855 H   0  0  0  0  0  0  0  0  0  0  0  0
    3.0195   44.8969   51.5047 H   0  0  0  0  0  0  0  0  0  0  0  0
    3.7545   44.2817   52.9885 H   0  0  0  0  0  0  0  0  0  0  0  0
    8.4164   45.3932   50.9875 H   0  0  0  0  0  0  0  0  0  0  0  0
  1  2  1  0
  2  3  2  0
  3  4  1  0
  4  5  1  0
  4  6  2  0
  6  7  1  0
  7  8  2  0
  8  9  1  0
  8 10  1  0
 10 11  2  0
 11 12  1  0
 12 13  2  0
 12 14  1  0
 14 15  1  0
 15 16  1  0
 16 17  1  0
 17 18  1  0
 18 19  1  0
 19 20  2  0
 20 21  1  0
 21 22  2  0
 22 23  1  0
 23 24  2  0
 17 25  1  0
 11 26  1  0
 26 27  2  0
 27  2  1  0
 26  6  1  0
 25 14  1  0
 24 19  1  0
  1 28  1  0
  1 29  1  0
  1 30  1  0
  3 31  1  0
  9 32  1  0
 10 33  1  0
 15 34  1  0
 15 35  1  0
 16 36  1  0
 16 37  1  0
 17 38  1  6
 18 39  1  0
 20 40  1  0
 21 41  1  0
 22 42  1  0
 23 43  1  0
 24 44  1  0
 25 45  1  0
 25 46  1  0
 27 47  1  0
M  END
>  <meeko>  (3) 
{"is_sidechain": [false], "free_energy": -9.812, "intermolecular_energy": -12.894, "internal_energy": 0.345}

$$$$
ligand_14_conformer_2_docked
     RDKit          3D

 47 50  0  0  0  0  0  0  0  0999 V2000
    7.2660   43.0480   49.7280 C   0  0  0  0  0  0  0  0  0  0  0  0
    5.8480   42.7580   50.1230 C   0  0  0  0  0  0  0  0  0  0  0  0
    5.2420   41.5530   49.7410 C   0  0  0  0  0  0  0  0  0  0  0  0
    3.9150   41.2900   50.0830 C   0  0  0  0  0  0  0  0  0  0  0  0
    3.3530   40.1080   49.7240 F   0  0  0  0  0  0  0  0  0  0  0  0
    3.1690   42.2410   50.7900 C   0  0  0  0  0  0  0  0  0  0  0  0
    1.8840   41.9660   51.1380 N   0  0  0  0  0  0  0  0  0  0  0  0
    1.1200   42.8510   51.8310 C   0  0  0  0  0  0  0  0  0  0  0  0
   -0.1890   42.5260   52.1700 O   0  0  0  0  0  0  0  0  0  0  0  0
    1.6470   44.0880   52.2020 C   0  0  0  0  0  0  0  0  0  0  0  0
    2.9610   44.4230   51.8490 C   0  0  0  0  0  0  0  0  0  0  0  0
    3.4690   45.7580   52.2230 C   0  0  0  0  0  0  0  0  0  0  0  0
    3.0910   46.7640   51.5640 O   0  0  0  0  0  0  0  0  0  0  0  0
    4.4050   45.9200   53.3030 N   0  0  0  0  0  0  0  0  0  0  0  0
    4.5890   44.9530   54.3720 C   0  0  0  0  0  0  0  0  0  0  0  0
    5.8690   45.3730   55.0810 C   0  0  0  0  0  0  0  0  0  0  0  0
    6.0760   46.8470   54.7040 C   0  0  1  0  0  0  0  0  0  0  0  0
    7.4980   47.1990   54.6020 N   0  0  0  0  0  0  0  0  0  0  0  0
    8.3560   46.7910   53.5170 C   0  0  0  0  0  0  0  0  0  0  0  0
    7.8400   46.3980   52.2650 C   0  0  0  0  0  0  0  0  0  0  0  0
    8.7040   46.0100   51.2360 C   0  0  0  0  0  0  0  0  0  0  0  0
   10.0860   46.0120   51.4400 C   0  0  0  0  0  0  0  0  0  0  0  0
   10.6080   46.4060   52.6730 C   0  0  0  0  0  0  0  0  0  0  0  0
    9.7480   46.7950   53.7050 C   0  0  0  0  0  0  0  0  0  0  0  0
    5.3540   47.0160   53.3670 C   0  0  0  0  0  0  0  0  0  0  0  0
    3.7510   43.4800   51.1500 C   0  0  0  0  0  0  0  0  0  0  0  0
    5.1000   43.7220   50.8170 C   0  0  0  0  0  0  0  0  0  0  0  0
    7.8801   43.1736   50.6320 H   0  0  0  0  0  0  0  0  0  0  0  0
    7.6588   42.2116   49.1312 H   0  0  0  0  0  0  0  0  0  0  0  0
    7.2988   43.9715   49.1312 H   0  0  0  0  0  0  0  0  0  0  0  0
    5.8162   40.8101   49.1680 H   0  0  0  0  0  0  0  0  0  0  0  0
   -0.9720   42.9440   51.6820 H   0  0  0  0  0  0  0  0  0  0  0  0
    1.0315   44.8001   52.7713 H   0  0  0  0  0  0  0  0  0  0  0  0
    3.7370   44.9810   55.0672 H   0  0  0  0  0  0  0  0  0  0  0  0
    4.6532   43.9246   53.9869 H   0  0  0  0  0  0  0  0  0  0  0  0
    5.7591   45.2656   56.1702 H   0  0  0  0  0  0  0  0  0  0  0  0
    6.7255   44.7497   54.7845 H   0  0  0  0  0  0  0  0  0  0  0  0
    5.6766   47.5210   55.4761 H   0  0  0  0  0  0  0  0  0  0  0  0
    7.9270   47.7800   55.3590 H   0  0  0  0  0  0  0  0  0  0  0  0
    6.7529   46.3966   52.0969 H   0  0  0  0  0  0  0  0  0  0  0  0
    8.2940   45.7022   50.2628 H   0  0  0  0  0  0  0  0  0  0  0  0
   10.7624   45.7032   50.6294 H   0  0  0  0  0  0  0  0  0  0  0  0
   11.6963   46.4106   52.8331 H   0  0  0  0  0  0  0  0  0  0  0  0
   10.1658   47.1072   54.6735 H   0  0  0  0  0  0  0  0  0  0  0  0
    4.8296   47.9823   53.3318 H   0  0  0  0  0  0  0  0  0  0  0  0
    6.0538   47.0025   52.5184 H   0  0  0  0  0  0  0  0  0  0  0  0
    5.5700   44.6744   51.1036 H   0  0  0  0  0  0  0  0  0  0  0  0
  1  2  1  0
  2  3  2  0
  3  4  1  0
  4  5  1  0
  4  6  2  0
  6  7  1  0
  7  8  2  0
  8  9  1  0
  8 10  1  0
 10 11  2  0
 11 12  1  0
 12 13  2  0
 12 14  1  0
 14 15  1  0
 15 16  1  0
 16 17  1  0
 17 18  1  0
 18 19  1  0
 19 20  2  0
 20 21  1  0
 21 22  2  0
 22 23  1  0
 23 24  2  0
 17 25  1  0
 11 26  1  0
 26 27  2  0
 27  2  1  0
 26  6  1  0
 25 14  1  0
 24 19  1  0
  1 28  1  0
  1 29  1  0
  1 30  1  0
  3 31  1  0
  9 32  1  0
 10 33  1  0
 15 34  1  0
 15 35  1  0
 16 36  1  0
 16 37  1  0
 17 38  1  1
 18 39  1  0
 20 40  1  0
 21 41  1  0
 22 42  1  0
 23 43  1  0
 24 44  1  0
 25 45  1  0
 25 46  1  0
 27 47  1  0
M  END
>  <meeko>  (4) 
{"is_sidechain": [false], "free_energy": -9.8, "intermolecular_energy": -12.127, "internal_energy": -0.407}

$$$$
ligand_14_conformer_2_docked
     RDKit          3D

 47 50  0  0  0  0  0  0  0  0999 V2000
    0.2730   45.1520   57.0800 C   0  0  0  0  0  0  0  0  0  0  0  0
   -0.2110   44.7670   55.7130 C   0  0  0  0  0  0  0  0  0  0  0  0
   -1.5810   44.5850   55.4770 C   0  0  0  0  0  0  0  0  0  0  0  0
   -2.0350   44.2010   54.2140 C   0  0  0  0  0  0  0  0  0  0  0  0
   -3.3660   44.0510   53.9990 F   0  0  0  0  0  0  0  0  0  0  0  0
   -1.1220   43.9700   53.1780 C   0  0  0  0  0  0  0  0  0  0  0  0
   -1.5750   43.6180   51.9460 N   0  0  0  0  0  0  0  0  0  0  0  0
   -0.7310   43.3920   50.9050 C   0  0  0  0  0  0  0  0  0  0  0  0
   -1.2400   43.0390   49.6600 O   0  0  0  0  0  0  0  0  0  0  0  0
    0.6470   43.5110   51.0850 C   0  0  0  0  0  0  0  0  0  0  0  0
    1.1620   43.8520   52.3420 C   0  0  0  0  0  0  0  0  0  0  0  0
    2.6270   43.9280   52.5030 C   0  0  0  0  0  0  0  0  0  0  0  0
    3.2780   42.8650   52.6910 O   0  0  0  0  0  0  0  0  0  0  0  0
    3.3130   45.1910   52.4770 N   0  0  0  0  0  0  0  0  0  0  0  0
    2.6450   46.4780   52.3680 C   0  0  0  0  0  0  0  0  0  0  0  0
    3.7080   47.5150   52.7010 C   0  0  0  0  0  0  0  0  0  0  0  0
    5.0510   46.8030   52.4880 C   0  0  1  0  0  0  0  0  0  0  0  0
    6.0830   47.2730   53.4210 N   0  0  0  0  0  0  0  0  0  0  0  0
    7.5000   47.1210   53.2020 C   0  0  0  0  0  0  0  0  0  0  0  0
    8.4320   47.1920   54.2580 C   0  0  0  0  0  0  0  0  0  0  0  0
    9.7990   47.0380   54.0050 C   0  0  0  0  0  0  0  0  0  0  0  0
   10.2510   46.8090   52.7040 C   0  0  0  0  0  0  0  0  0  0  0  0
    9.3370   46.7310   51.6510 C   0  0  0  0  0  0  0  0  0  0  0  0
    7.9700   46.8830   51.8990 C   0  0  0  0  0  0  0  0  0  0  0  0
    4.7440   45.3180   52.6850 C   0  0  0  0  0  0  0  0  0  0  0  0
    0.2680   44.1110   53.4090 C   0  0  0  0  0  0  0  0  0  0  0  0
    0.7100   44.5210   54.6840 C   0  0  0  0  0  0  0  0  0  0  0  0
   -0.3482   44.6579   57.8415 H   0  0  0  0  0  0  0  0  0  0  0  0
    1.3201   44.8373   57.2003 H   0  0  0  0  0  0  0  0  0  0  0  0
    0.2019   46.2431   57.2003 H   0  0  0  0  0  0  0  0  0  0  0  0
   -2.3023   44.7457   56.2918 H   0  0  0  0  0  0  0  0  0  0  0  0
   -0.6900   42.4870   49.0120 H   0  0  0  0  0  0  0  0  0  0  0  0
    1.3292   43.3371   50.2398 H   0  0  0  0  0  0  0  0  0  0  0  0
    2.2662   46.6296   51.3465 H   0  0  0  0  0  0  0  0  0  0  0  0
    1.7796   46.5481   53.0434 H   0  0  0  0  0  0  0  0  0  0  0  0
    3.6220   48.3833   52.0312 H   0  0  0  0  0  0  0  0  0  0  0  0
    3.6034   47.8933   53.7286 H   0  0  0  0  0  0  0  0  0  0  0  0
    5.4634   47.0100   51.4895 H   0  0  0  0  0  0  0  0  0  0  0  0
    5.7830   47.7470   54.3040 H   0  0  0  0  0  0  0  0  0  0  0  0
    8.0822   47.3694   55.2857 H   0  0  0  0  0  0  0  0  0  0  0  0
   10.5201   47.0975   54.8335 H   0  0  0  0  0  0  0  0  0  0  0  0
   11.3269   46.6900   52.5084 H   0  0  0  0  0  0  0  0  0  0  0  0
    9.6931   46.5499   50.6261 H   0  0  0  0  0  0  0  0  0  0  0  0
    7.2547   46.8157   51.0660 H   0  0  0  0  0  0  0  0  0  0  0  0
    5.2951   44.7103   51.9523 H   0  0  0  0  0  0  0  0  0  0  0  0
    5.0459   44.9660   53.6825 H   0  0  0  0  0  0  0  0  0  0  0  0
    1.7860   44.6489   54.8731 H   0  0  0  0  0  0  0  0  0  0  0  0
  1  2  1  0
  2  3  2  0
  3  4  1  0
  4  5  1  0
  4  6  2  0
  6  7  1  0
  7  8  2  0
  8  9  1  0
  8 10  1  0
 10 11  2  0
 11 12  1  0
 12 13  2  0
 12 14  1  0
 14 15  1  0
 15 16  1  0
 16 17  1  0
 17 18  1  0
 18 19  1  0
 19 20  2  0
 20 21  1  0
 21 22  2  0
 22 23  1  0
 23 24  2  0
 17 25  1  0
 11 26  1  0
 26 27  2  0
 27  2  1  0
 26  6  1  0
 25 14  1  0
 24 19  1  0
  1 28  1  0
  1 29  1  0
  1 30  1  0
  3 31  1  0
  9 32  1  0
 10 33  1  0
 15 34  1  0
 15 35  1  0
 16 36  1  0
 16 37  1  0
 17 38  1  6
 18 39  1  0
 20 40  1  0
 21 41  1  0
 22 42  1  0
 23 43  1  0
 24 44  1  0
 25 45  1  0
 25 46  1  0
 27 47  1  0
M  END
>  <meeko>  (5) 
{"is_sidechain": [false], "free_energy": -9.287, "intermolecular_energy": -11.274, "internal_energy": -0.612}

$$$$
