MODEL 1
REMARK VINA RESULT:    -8.778      0.000      0.000
REMARK INTER + INTRA:         -10.723
REMARK INTER:                 -10.318
REMARK INTRA:                  -0.405
REMARK UNBOUND:                -0.405
REMARK SMILES COc1nc(C)cc(N2CCN(C(=O)C3CCCCC3)CC2)n1
REMARK SMILES IDX 3 1 4 2 5 3 6 4 7 5 8 6 23 7 2 8 1 9 9 10 10 11 22 12 11 13
REMARK SMILES IDX 21 14 12 15 13 16 14 17 15 18 16 19 20 20 17 21 19 22 18 23
REMARK H PARENT
ROOT
ATOM      1  C   UNL     1       0.905  45.649  56.850  1.00  0.00     0.318 A 
ATOM      2  N   UNL     1      -0.320  45.128  56.587  1.00  0.00    -0.200 NA
ATOM      3  C   UNL     1      -0.635  44.660  55.352  1.00  0.00     0.047 A 
ATOM      4  C   UNL     1      -1.986  44.066  55.104  1.00  0.00     0.067 C 
ATOM      5  C   UNL     1       0.321  44.698  54.330  1.00  0.00     0.070 A 
ATOM      6  C   UNL     1       1.591  45.236  54.608  1.00  0.00     0.136 A 
ATOM      7  N   UNL     1       1.842  45.698  55.865  1.00  0.00    -0.178 NA
ENDROOT
BRANCH   1   8
ATOM      8  O   UNL     1       1.186  46.131  58.131  1.00  0.00    -0.467 OA
ATOM      9  C   UNL     1       0.501  47.240  58.703  1.00  0.00     0.282 C 
ENDBRANCH   1   8
BRANCH   6  10
ATOM     10  N   UNL     1       2.622  45.310  53.594  1.00  0.00    -0.353 N 
ATOM     11  C   UNL     1       3.080  46.617  53.090  1.00  0.00     0.139 C 
ATOM     12  C   UNL     1       3.104  44.074  52.952  1.00  0.00     0.139 C 
ATOM     13  C   UNL     1       3.960  46.480  51.844  1.00  0.00     0.141 C 
ATOM     14  C   UNL     1       4.608  44.159  52.661  1.00  0.00     0.141 C 
ATOM     15  N   UNL     1       4.974  45.446  52.060  1.00  0.00    -0.339 N 
ATOM     16  C   UNL     1       6.269  45.577  51.456  1.00  0.00     0.225 C 
ATOM     17  O   UNL     1       6.512  44.958  50.385  1.00  0.00    -0.275 OA
BRANCH  16  18
ATOM     18  C   UNL     1       7.355  46.423  52.079  1.00  0.00     0.078 C 
ATOM     19  C   UNL     1       8.755  46.080  51.529  1.00  0.00     0.013 C 
ATOM     20  C   UNL     1       7.330  46.307  53.614  1.00  0.00     0.013 C 
ATOM     21  C   UNL     1       9.827  46.973  52.168  1.00  0.00     0.001 C 
ATOM     22  C   UNL     1       8.406  47.198  54.248  1.00  0.00     0.001 C 
ATOM     23  C   UNL     1       9.796  46.859  53.698  1.00  0.00     0.000 C 
ENDBRANCH  16  18
ENDBRANCH   6  10
TORSDOF 3
ENDMDL
MODEL 2
REMARK VINA RESULT:    -8.624      1.676      2.592
REMARK INTER + INTRA:         -10.542
REMARK INTER:                 -10.129
REMARK INTRA:                  -0.413
REMARK UNBOUND:                -0.405
REMARK SMILES COc1nc(C)cc(N2CCN(C(=O)C3CCCCC3)CC2)n1
REMARK SMILES IDX 3 1 4 2 5 3 6 4 7 5 8 6 23 7 2 8 1 9 9 10 10 11 22 12 11 13
REMARK SMILES IDX 21 14 12 15 13 16 14 17 15 18 16 19 20 20 17 21 19 22 18 23
REMARK H PARENT
ROOT
ATOM      1  C   UNL     1      -0.211  43.774  54.100  1.00  0.00     0.318 A 
ATOM      2  N   UNL     1      -0.250  44.317  55.343  1.00  0.00    -0.200 NA
ATOM      3  C   UNL     1       0.776  45.072  55.814  1.00  0.00     0.047 A 
ATOM      4  C   UNL     1       0.689  45.679  57.178  1.00  0.00     0.067 C 
ATOM      5  C   UNL     1       1.891  45.311  55.002  1.00  0.00     0.070 A 
ATOM      6  C   UNL     1       1.926  44.749  53.713  1.00  0.00     0.136 A 
ATOM      7  N   UNL     1       0.869  43.994  53.302  1.00  0.00    -0.178 NA
ENDROOT
BRANCH   1   8
ATOM      8  O   UNL     1      -1.282  42.993  53.658  1.00  0.00    -0.467 OA
ATOM      9  C   UNL     1      -1.496  42.689  52.283  1.00  0.00     0.282 C 
ENDBRANCH   1   8
BRANCH   6  10
ATOM     10  N   UNL     1       3.052  44.954  52.826  1.00  0.00    -0.353 N 
ATOM     11  C   UNL     1       3.488  46.319  52.478  1.00  0.00     0.139 C 
ATOM     12  C   UNL     1       3.664  43.800  52.145  1.00  0.00     0.139 C 
ATOM     13  C   UNL     1       4.500  46.327  51.328  1.00  0.00     0.141 C 
ATOM     14  C   UNL     1       5.183  43.977  52.025  1.00  0.00     0.141 C 
ATOM     15  N   UNL     1       5.540  45.326  51.570  1.00  0.00    -0.339 N 
ATOM     16  C   UNL     1       6.882  45.565  51.122  1.00  0.00     0.225 C 
ATOM     17  O   UNL     1       7.268  45.049  50.038  1.00  0.00    -0.275 OA
BRANCH  16  18
ATOM     18  C   UNL     1       7.850  46.404  51.923  1.00  0.00     0.078 C 
ATOM     19  C   UNL     1       9.313  45.952  51.737  1.00  0.00     0.013 C 
ATOM     20  C   UNL     1       7.468  46.409  53.416  1.00  0.00     0.013 C 
ATOM     21  C   UNL     1      10.267  46.839  52.547  1.00  0.00     0.001 C 
ATOM     22  C   UNL     1       8.427  47.294  54.222  1.00  0.00     0.001 C 
ATOM     23  C   UNL     1       9.881  46.847  54.032  1.00  0.00     0.000 C 
ENDBRANCH  16  18
ENDBRANCH   6  10
TORSDOF 3
ENDMDL
MODEL 3
REMARK VINA RESULT:    -8.409      2.927      7.684
REMARK INTER + INTRA:         -10.289
REMARK INTER:                  -9.853
REMARK INTRA:                  -0.436
REMARK UNBOUND:                -0.405
REMARK SMILES COc1nc(C)cc(N2CCN(C(=O)C3CCCCC3)CC2)n1
REMARK SMILES IDX 3 1 4 2 5 3 6 4 7 5 8 6 23 7 2 8 1 9 9 10 10 11 22 12 11 13
REMARK SMILES IDX 21 14 12 15 13 16 14 17 15 18 16 19 20 20 17 21 19 22 18 23
REMARK H PARENT
ROOT
ATOM      1  C   UNL     1       9.490  47.525  54.902  1.00  0.00     0.318 A 
ATOM      2  N   UNL     1      10.188  47.110  53.815  1.00  0.00    -0.200 NA
ATOM      3  C   UNL     1       9.562  46.546  52.750  1.00  0.00     0.047 A 
ATOM      4  C   UNL     1      10.358  46.124  51.556  1.00  0.00     0.067 C 
ATOM      5  C   UNL     1       8.170  46.401  52.760  1.00  0.00     0.070 A 
ATOM      6  C   UNL     1       7.450  46.836  53.887  1.00  0.00     0.136 A 
ATOM      7  N   UNL     1       8.137  47.386  54.928  1.00  0.00    -0.178 NA
ENDROOT
BRANCH   1   8
ATOM      8  O   UNL     1      10.173  48.090  55.982  1.00  0.00    -0.467 OA
ATOM      9  C   UNL     1      11.370  47.530  56.512  1.00  0.00     0.282 C 
ENDBRANCH   1   8
BRANCH   6  10
ATOM     10  N   UNL     1       6.009  46.710  53.963  1.00  0.00    -0.353 N 
ATOM     11  C   UNL     1       5.184  46.842  52.748  1.00  0.00     0.139 C 
ATOM     12  C   UNL     1       5.354  46.606  55.279  1.00  0.00     0.139 C 
ATOM     13  C   UNL     1       3.691  46.953  53.073  1.00  0.00     0.141 C 
ATOM     14  C   UNL     1       4.148  45.660  55.217  1.00  0.00     0.141 C 
ATOM     15  N   UNL     1       3.311  45.921  54.039  1.00  0.00    -0.339 N 
ATOM     16  C   UNL     1       2.001  45.340  53.987  1.00  0.00     0.225 C 
ATOM     17  O   UNL     1       1.109  45.766  54.769  1.00  0.00    -0.275 OA
BRANCH  16  18
ATOM     18  C   UNL     1       1.666  44.219  53.031  1.00  0.00     0.078 C 
ATOM     19  C   UNL     1       2.927  43.558  52.437  1.00  0.00     0.013 C 
ATOM     20  C   UNL     1       0.731  44.711  51.911  1.00  0.00     0.013 C 
ATOM     21  C   UNL     1       2.549  42.412  51.490  1.00  0.00     0.001 C 
ATOM     22  C   UNL     1       0.358  43.563  50.964  1.00  0.00     0.001 C 
ATOM     23  C   UNL     1       1.613  42.904  50.378  1.00  0.00     0.000 C 
ENDBRANCH  16  18
ENDBRANCH   6  10
TORSDOF 3
ENDMDL
MODEL 4
REMARK VINA RESULT:    -8.062      2.585      3.706
REMARK INTER + INTRA:          -9.881
REMARK INTER:                  -9.532
REMARK INTRA:                  -0.348
REMARK UNBOUND:                -0.405
REMARK SMILES COc1nc(C)cc(N2CCN(C(=O)C3CCCCC3)CC2)n1
REMARK SMILES IDX 3 1 4 2 5 3 6 4 7 5 8 6 23 7 2 8 1 9 9 10 10 11 22 12 11 13
REMARK SMILES IDX 21 14 12 15 13 16 14 17 15 18 16 19 20 20 17 21 19 22 18 23
REMARK H PARENT
ROOT
ATOM      1  C   UNL     1       0.753  43.760  53.100  1.00  0.00     0.318 A 
ATOM      2  N   UNL     1      -0.196  43.902  54.059  1.00  0.00    -0.200 NA
ATOM      3  C   UNL     1       0.080  44.525  55.234  1.00  0.00     0.047 A 
ATOM      4  C   UNL     1      -0.997  44.690  56.259  1.00  0.00     0.067 C 
ATOM      5  C   UNL     1       1.359  45.047  55.460  1.00  0.00     0.070 A 
ATOM      6  C   UNL     1       2.339  44.901  54.461  1.00  0.00     0.136 A 
ATOM      7  N   UNL     1       2.002  44.258  53.308  1.00  0.00    -0.178 NA
ENDROOT
BRANCH   1   8
ATOM      8  O   UNL     1       0.433  43.102  51.909  1.00  0.00    -0.467 OA
ATOM      9  C   UNL     1       1.329  43.031  50.805  1.00  0.00     0.282 C 
ENDBRANCH   1   8
BRANCH   6  10
ATOM     10  N   UNL     1       3.681  45.413  54.635  1.00  0.00    -0.353 N 
ATOM     11  C   UNL     1       4.847  44.537  54.418  1.00  0.00     0.139 C 
ATOM     12  C   UNL     1       3.882  46.767  55.180  1.00  0.00     0.139 C 
ATOM     13  C   UNL     1       6.149  45.174  54.913  1.00  0.00     0.141 C 
ATOM     14  C   UNL     1       5.085  47.452  54.519  1.00  0.00     0.141 C 
ATOM     15  N   UNL     1       6.243  46.555  54.435  1.00  0.00    -0.339 N 
ATOM     16  C   UNL     1       7.526  47.119  54.125  1.00  0.00     0.225 C 
ATOM     17  O   UNL     1       8.098  47.850  54.978  1.00  0.00    -0.275 OA
BRANCH  16  18
ATOM     18  C   UNL     1       8.200  46.874  52.795  1.00  0.00     0.078 C 
ATOM     19  C   UNL     1       7.361  45.971  51.868  1.00  0.00     0.013 C 
ATOM     20  C   UNL     1       9.611  46.288  52.994  1.00  0.00     0.013 C 
ATOM     21  C   UNL     1       8.067  45.764  50.522  1.00  0.00     0.001 C 
ATOM     22  C   UNL     1      10.311  46.078  51.645  1.00  0.00     0.001 C 
ATOM     23  C   UNL     1       9.473  45.184  50.723  1.00  0.00     0.000 C 
ENDBRANCH  16  18
ENDBRANCH   6  10
TORSDOF 3
ENDMDL
MODEL 5
REMARK VINA RESULT:    -7.687      2.297      7.865
REMARK INTER + INTRA:          -9.440
REMARK INTER:                  -9.032
REMARK INTRA:                  -0.408
REMARK UNBOUND:                -0.405
REMARK SMILES COc1nc(C)cc(N2CCN(C(=O)C3CCCCC3)CC2)n1
REMARK SMILES IDX 3 1 4 2 5 3 6 4 7 5 8 6 23 7 2 8 1 9 9 10 10 11 22 12 11 13
REMARK SMILES IDX 21 14 12 15 13 16 14 17 15 18 16 19 20 20 17 21 19 22 18 23
REMARK H PARENT
ROOT
ATOM      1  C   UNL     1       7.270  46.531  51.785  1.00  0.00     0.318 A 
ATOM      2  N   UNL     1       8.029  45.901  50.853  1.00  0.00    -0.200 NA
ATOM      3  C   UNL     1       7.551  44.835  50.160  1.00  0.00     0.047 A 
ATOM      4  C   UNL     1       8.405  44.182  49.119  1.00  0.00     0.067 C 
ATOM      5  C   UNL     1       6.248  44.383  50.394  1.00  0.00     0.070 A 
ATOM      6  C   UNL     1       5.463  45.041  51.358  1.00  0.00     0.136 A 
ATOM      7  N   UNL     1       6.003  46.098  52.027  1.00  0.00    -0.178 NA
ENDROOT
BRANCH   1   8
ATOM      8  O   UNL     1       7.803  47.616  52.486  1.00  0.00    -0.467 OA
ATOM      9  C   UNL     1       9.078  47.572  53.118  1.00  0.00     0.282 C 
ENDBRANCH   1   8
BRANCH   6  10
ATOM     10  N   UNL     1       4.109  44.619  51.651  1.00  0.00    -0.353 N 
ATOM     11  C   UNL     1       3.858  43.544  52.629  1.00  0.00     0.139 C 
ATOM     12  C   UNL     1       2.989  45.156  50.858  1.00  0.00     0.139 C 
ATOM     13  C   UNL     1       2.405  43.060  52.594  1.00  0.00     0.141 C 
ATOM     14  C   UNL     1       1.747  45.362  51.733  1.00  0.00     0.141 C 
ATOM     15  N   UNL     1       1.495  44.207  52.603  1.00  0.00    -0.339 N 
ATOM     16  C   UNL     1       0.223  44.106  53.258  1.00  0.00     0.225 C 
ATOM     17  O   UNL     1      -0.805  43.867  52.569  1.00  0.00    -0.275 OA
BRANCH  16  18
ATOM     18  C   UNL     1       0.080  44.297  54.750  1.00  0.00     0.078 C 
ATOM     19  C   UNL     1      -1.360  44.669  55.159  1.00  0.00     0.013 C 
ATOM     20  C   UNL     1       1.082  45.346  55.269  1.00  0.00     0.013 C 
ATOM     21  C   UNL     1      -1.470  44.833  56.681  1.00  0.00     0.001 C 
ATOM     22  C   UNL     1       0.965  45.509  56.790  1.00  0.00     0.001 C 
ATOM     23  C   UNL     1      -0.468  45.875  57.195  1.00  0.00     0.000 C 
ENDBRANCH  16  18
ENDBRANCH   6  10
TORSDOF 3
ENDMDL
