ligand_38_conformer_3_docked
     RDKit          3D

 52 57  0  0  0  0  0  0  0  0999 V2000
   -2.1200   44.6070   51.1200 C   0  0  0  0  0  0  0  0  0  0  0  0
   -1.4190   44.3730   52.3760 N   0  0  0  0  0  0  0  0  0  0  0  0
   -2.0330   44.2660   53.6710 C   0  0  0  0  0  0  0  0  0  0  0  0
   -3.2490   44.0030   53.8650 O   0  0  0  0  0  0  0  0  0  0  0  0
   -1.0430   44.5490   54.7070 C   0  0  0  0  0  0  0  0  0  0  0  0
   -1.0820   44.5840   56.0990 C   0  0  0  0  0  0  0  0  0  0  0  0
    0.1030   44.9440   56.7800 C   0  0  0  0  0  0  0  0  0  0  0  0
    1.2850   45.2640   56.0630 C   0  0  0  0  0  0  0  0  0  0  0  0
    1.2930   45.2120   54.6470 C   0  0  0  0  0  0  0  0  0  0  0  0
    2.3970   45.4870   53.7980 C   0  0  0  0  0  0  0  0  0  0  0  0
    4.0050   45.8160   54.4590 S   0  0  0  0  0  0  0  0  0  0  0  0
    4.2530   44.8950   55.6210 O   0  0  0  0  0  0  0  0  0  0  0  0
    4.0950   47.2410   54.9310 O   0  0  0  0  0  0  0  0  0  0  0  0
    5.1920   45.5420   53.2090 N   0  0  0  0  0  0  0  0  0  0  0  0
    6.5160   45.2540   53.7720 C   0  0  0  0  0  0  0  0  0  0  0  0
    7.4530   46.1240   53.0150 C   0  0  0  0  0  0  0  0  0  0  0  0
    8.0700   47.2070   53.6680 C   0  0  0  0  0  0  0  0  0  0  0  0
    8.7460   48.1810   52.9350 C   0  0  0  0  0  0  0  0  0  0  0  0
    8.7920   48.0990   51.5460 C   0  0  0  0  0  0  0  0  0  0  0  0
    8.1840   47.0290   50.8860 C   0  0  0  0  0  0  0  0  0  0  0  0
    7.5190   46.0120   51.6060 C   0  0  0  0  0  0  0  0  0  0  0  0
    6.9680   44.8240   50.8650 C   0  0  0  0  0  0  0  0  0  0  0  0
    7.7650   44.3080   49.8170 C   0  0  0  0  0  0  0  0  0  0  0  0
    7.3500   43.2190   49.0540 C   0  0  0  0  0  0  0  0  0  0  0  0
    6.1340   42.6050   49.3210 C   0  0  0  0  0  0  0  0  0  0  0  0
    5.3360   43.0670   50.3630 C   0  0  0  0  0  0  0  0  0  0  0  0
    5.7280   44.1580   51.1640 C   0  0  0  0  0  0  0  0  0  0  0  0
    4.7420   44.5060   52.2760 C   0  0  0  0  0  0  0  0  0  0  0  0
    2.2210   45.4210   52.3870 C   0  0  0  0  0  0  0  0  0  0  0  0
    0.9750   45.0700   51.8200 C   0  0  0  0  0  0  0  0  0  0  0  0
   -0.0790   44.7730   52.6840 C   0  0  0  0  0  0  0  0  0  0  0  0
    0.1020   44.8520   54.0350 C   0  0  0  0  0  0  0  0  0  0  0  0
   -3.1442   44.9489   51.3299 H   0  0  0  0  0  0  0  0  0  0  0  0
   -1.5881   45.3763   50.5410 H   0  0  0  0  0  0  0  0  0  0  0  0
   -2.1568   43.6724   50.5410 H   0  0  0  0  0  0  0  0  0  0  0  0
   -2.0029   44.3400   56.6490 H   0  0  0  0  0  0  0  0  0  0  0  0
    0.1091   44.9765   57.8795 H   0  0  0  0  0  0  0  0  0  0  0  0
    2.1963   45.5528   56.6072 H   0  0  0  0  0  0  0  0  0  0  0  0
    6.5418   45.4987   54.8441 H   0  0  0  0  0  0  0  0  0  0  0  0
    6.7792   44.1895   53.6856 H   0  0  0  0  0  0  0  0  0  0  0  0
    8.0185   47.2855   54.7640 H   0  0  0  0  0  0  0  0  0  0  0  0
    9.2429   49.0140   53.4538 H   0  0  0  0  0  0  0  0  0  0  0  0
    9.3084   48.8788   50.9671 H   0  0  0  0  0  0  0  0  0  0  0  0
    8.2236   46.9774   49.7879 H   0  0  0  0  0  0  0  0  0  0  0  0
    8.7356   44.7777   49.5992 H   0  0  0  0  0  0  0  0  0  0  0  0
    7.9868   42.8450   48.2387 H   0  0  0  0  0  0  0  0  0  0  0  0
    5.8014   41.7536   48.7091 H   0  0  0  0  0  0  0  0  0  0  0  0
    4.3766   42.5689   50.5663 H   0  0  0  0  0  0  0  0  0  0  0  0
    3.8092   44.8526   51.8072 H   0  0  0  0  0  0  0  0  0  0  0  0
    4.6207   43.5902   52.8732 H   0  0  0  0  0  0  0  0  0  0  0  0
    3.0705   45.6474   51.7258 H   0  0  0  0  0  0  0  0  0  0  0  0
    0.8403   45.0321   50.7289 H   0  0  0  0  0  0  0  0  0  0  0  0
  1  2  1  0
  2  3  1  0
  3  4  2  0
  3  5  1  0
  5  6  2  0
  6  7  1  0
  7  8  2  0
  8  9  1  0
  9 10  2  0
 10 11  1  0
 11 12  2  0
 11 13  2  0
 11 14  1  0
 14 15  1  0
 15 16  1  0
 16 17  2  0
 17 18  1  0
 18 19  2  0
 19 20  1  0
 20 21  2  0
 21 22  1  0
 22 23  2  0
 23 24  1  0
 24 25  2  0
 25 26  1  0
 26 27  2  0
 27 28  1  0
 10 29  1  0
 29 30  2  0
 30 31  1  0
 31 32  2  0
 31  2  1  0
 32  5  1  0
 32  9  1  0
 28 14  1  0
 21 16  1  0
 27 22  1  0
  1 33  1  0
  1 34  1  0
  1 35  1  0
  6 36  1  0
  7 37  1  0
  8 38  1  0
 15 39  1  0
 15 40  1  0
 17 41  1  0
 18 42  1  0
 19 43  1  0
 20 44  1  0
 23 45  1  0
 24 46  1  0
 25 47  1  0
 26 48  1  0
 28 49  1  0
 28 50  1  0
 29 51  1  0
 30 52  1  0
M  END
>  <meeko>  (1) 
{"is_sidechain": [false], "free_energy": -11.403, "intermolecular_energy": -12.736, "internal_energy": 0.483}

$$$$
ligand_38_conformer_3_docked
     RDKit          3D

 52 57  0  0  0  0  0  0  0  0999 V2000
    9.5920   44.5490   49.5670 C   0  0  0  0  0  0  0  0  0  0  0  0
    9.2890   45.5410   50.5900 N   0  0  0  0  0  0  0  0  0  0  0  0
   10.2090   46.0320   51.5800 C   0  0  0  0  0  0  0  0  0  0  0  0
   11.4630   45.9560   51.4890 O   0  0  0  0  0  0  0  0  0  0  0  0
    9.4650   46.5840   52.7090 C   0  0  0  0  0  0  0  0  0  0  0  0
    9.8340   47.1820   53.9120 C   0  0  0  0  0  0  0  0  0  0  0  0
    8.8020   47.5690   54.7960 C   0  0  0  0  0  0  0  0  0  0  0  0
    7.4400   47.3460   54.4660 C   0  0  0  0  0  0  0  0  0  0  0  0
    7.0980   46.7420   53.2320 C   0  0  0  0  0  0  0  0  0  0  0  0
    5.7870   46.4710   52.7580 C   0  0  0  0  0  0  0  0  0  0  0  0
    4.3590   47.0080   53.6520 S   0  0  0  0  0  0  0  0  0  0  0  0
    3.8390   48.2730   53.0280 O   0  0  0  0  0  0  0  0  0  0  0  0
    4.7100   47.2750   55.0900 O   0  0  0  0  0  0  0  0  0  0  0  0
    3.1450   45.7560   53.5740 N   0  0  0  0  0  0  0  0  0  0  0  0
    3.6870   44.4500   53.9680 C   0  0  0  0  0  0  0  0  0  0  0  0
    3.2230   43.5090   52.9150 C   0  0  0  0  0  0  0  0  0  0  0  0
    4.1600   42.9590   52.0210 C   0  0  0  0  0  0  0  0  0  0  0  0
    3.7330   42.2840   50.8790 C   0  0  0  0  0  0  0  0  0  0  0  0
    2.3730   42.1710   50.6050 C   0  0  0  0  0  0  0  0  0  0  0  0
    1.4330   42.7120   51.4850 C   0  0  0  0  0  0  0  0  0  0  0  0
    1.8370   43.3750   52.6650 C   0  0  0  0  0  0  0  0  0  0  0  0
    0.7930   43.8510   53.6380 C   0  0  0  0  0  0  0  0  0  0  0  0
   -0.3090   42.9910   53.8550 C   0  0  0  0  0  0  0  0  0  0  0  0
   -1.3410   43.3330   54.7230 C   0  0  0  0  0  0  0  0  0  0  0  0
   -1.3030   44.5390   55.4100 C   0  0  0  0  0  0  0  0  0  0  0  0
   -0.2220   45.3990   55.2440 C   0  0  0  0  0  0  0  0  0  0  0  0
    0.8480   45.0800   54.3830 C   0  0  0  0  0  0  0  0  0  0  0  0
    1.9580   46.1270   54.3500 C   0  0  0  0  0  0  0  0  0  0  0  0
    5.6230   45.8220   51.5010 C   0  0  0  0  0  0  0  0  0  0  0  0
    6.7390   45.4610   50.7120 C   0  0  0  0  0  0  0  0  0  0  0  0
    8.0100   45.7720   51.1930 C   0  0  0  0  0  0  0  0  0  0  0  0
    8.1520   46.3840   52.4050 C   0  0  0  0  0  0  0  0  0  0  0  0
    9.8810   43.6028   50.0479 H   0  0  0  0  0  0  0  0  0  0  0  0
    8.7029   44.3852   48.9403 H   0  0  0  0  0  0  0  0  0  0  0  0
   10.4209   44.9099   48.9403 H   0  0  0  0  0  0  0  0  0  0  0  0
   10.8918   47.3471   54.1647 H   0  0  0  0  0  0  0  0  0  0  0  0
    9.0575   48.0492   55.7521 H   0  0  0  0  0  0  0  0  0  0  0  0
    6.6487   47.6429   55.1700 H   0  0  0  0  0  0  0  0  0  0  0  0
    4.7860   44.4815   54.0017 H   0  0  0  0  0  0  0  0  0  0  0  0
    3.3503   44.1477   54.9706 H   0  0  0  0  0  0  0  0  0  0  0  0
    5.2360   43.0624   52.2247 H   0  0  0  0  0  0  0  0  0  0  0  0
    4.4707   41.8405   50.1941 H   0  0  0  0  0  0  0  0  0  0  0  0
    2.0378   41.6545   49.6935 H   0  0  0  0  0  0  0  0  0  0  0  0
    0.3611   42.6203   51.2555 H   0  0  0  0  0  0  0  0  0  0  0  0
   -0.3510   42.0283   53.3245 H   0  0  0  0  0  0  0  0  0  0  0  0
   -2.1887   42.6466   54.8653 H   0  0  0  0  0  0  0  0  0  0  0  0
   -2.1268   44.8143   56.0849 H   0  0  0  0  0  0  0  0  0  0  0  0
   -0.2016   46.3496   55.7971 H   0  0  0  0  0  0  0  0  0  0  0  0
    1.5430   47.0490   53.9167 H   0  0  0  0  0  0  0  0  0  0  0  0
    2.2979   46.2434   55.3897 H   0  0  0  0  0  0  0  0  0  0  0  0
    4.6094   45.5975   51.1374 H   0  0  0  0  0  0  0  0  0  0  0  0
    6.6084   44.9497   49.7469 H   0  0  0  0  0  0  0  0  0  0  0  0
  1  2  1  0
  2  3  1  0
  3  4  2  0
  3  5  1  0
  5  6  2  0
  6  7  1  0
  7  8  2  0
  8  9  1  0
  9 10  2  0
 10 11  1  0
 11 12  2  0
 11 13  2  0
 11 14  1  0
 14 15  1  0
 15 16  1  0
 16 17  2  0
 17 18  1  0
 18 19  2  0
 19 20  1  0
 20 21  2  0
 21 22  1  0
 22 23  2  0
 23 24  1  0
 24 25  2  0
 25 26  1  0
 26 27  2  0
 27 28  1  0
 10 29  1  0
 29 30  2  0
 30 31  1  0
 31 32  2  0
 31  2  1  0
 32  5  1  0
 32  9  1  0
 28 14  1  0
 21 16  1  0
 27 22  1  0
  1 33  1  0
  1 34  1  0
  1 35  1  0
  6 36  1  0
  7 37  1  0
  8 38  1  0
 15 39  1  0
 15 40  1  0
 17 41  1  0
 18 42  1  0
 19 43  1  0
 20 44  1  0
 23 45  1  0
 24 46  1  0
 25 47  1  0
 26 48  1  0
 28 49  1  0
 28 50  1  0
 29 51  1  0
 30 52  1  0
M  END
>  <meeko>  (2) 
{"is_sidechain": [false], "free_energy": -11.212, "intermolecular_energy": -11.847, "internal_energy": -0.194}

$$$$
ligand_38_conformer_3_docked
     RDKit          3D

 52 57  0  0  0  0  0  0  0  0999 V2000
   -2.1500   43.2940   56.8140 C   0  0  0  0  0  0  0  0  0  0  0  0
   -1.7960   44.0210   55.6020 N   0  0  0  0  0  0  0  0  0  0  0  0
   -2.3630   43.8050   54.2990 C   0  0  0  0  0  0  0  0  0  0  0  0
   -3.4650   43.2330   54.0860 O   0  0  0  0  0  0  0  0  0  0  0  0
   -1.4490   44.3090   53.2770 C   0  0  0  0  0  0  0  0  0  0  0  0
   -1.4890   44.3640   51.8860 C   0  0  0  0  0  0  0  0  0  0  0  0
   -0.3680   44.9080   51.2190 C   0  0  0  0  0  0  0  0  0  0  0  0
    0.7570   45.3740   51.9480 C   0  0  0  0  0  0  0  0  0  0  0  0
    0.7620   45.3110   53.3630 C   0  0  0  0  0  0  0  0  0  0  0  0
    1.8010   45.7500   54.2250 C   0  0  0  0  0  0  0  0  0  0  0  0
    3.2240   46.5900   53.5940 S   0  0  0  0  0  0  0  0  0  0  0  0
    4.0480   47.0900   54.7480 O   0  0  0  0  0  0  0  0  0  0  0  0
    2.8080   47.7590   52.7420 O   0  0  0  0  0  0  0  0  0  0  0  0
    4.1540   45.4720   52.6300 N   0  0  0  0  0  0  0  0  0  0  0  0
    5.3260   44.9710   53.3580 C   0  0  0  0  0  0  0  0  0  0  0  0
    6.4570   45.1060   52.4040 C   0  0  0  0  0  0  0  0  0  0  0  0
    7.4580   46.0630   52.6520 C   0  0  0  0  0  0  0  0  0  0  0  0
    8.3840   46.3890   51.6630 C   0  0  0  0  0  0  0  0  0  0  0  0
    8.3080   45.7830   50.4120 C   0  0  0  0  0  0  0  0  0  0  0  0
    7.3190   44.8300   50.1530 C   0  0  0  0  0  0  0  0  0  0  0  0
    6.3870   44.4600   51.1480 C   0  0  0  0  0  0  0  0  0  0  0  0
    5.4050   43.3550   50.8630 C   0  0  0  0  0  0  0  0  0  0  0  0
    5.8990   42.2410   50.1450 C   0  0  0  0  0  0  0  0  0  0  0  0
    5.0780   41.1660   49.8140 C   0  0  0  0  0  0  0  0  0  0  0  0
    3.7440   41.1650   50.1970 C   0  0  0  0  0  0  0  0  0  0  0  0
    3.2300   42.2310   50.9290 C   0  0  0  0  0  0  0  0  0  0  0  0
    4.0330   43.3300   51.2930 C   0  0  0  0  0  0  0  0  0  0  0  0
    3.3080   44.3900   52.1180 C   0  0  0  0  0  0  0  0  0  0  0  0
    1.6570   45.5780   55.6310 C   0  0  0  0  0  0  0  0  0  0  0  0
    0.4930   44.9970   56.1820 C   0  0  0  0  0  0  0  0  0  0  0  0
   -0.5220   44.6070   55.3080 C   0  0  0  0  0  0  0  0  0  0  0  0
   -0.3650   44.7670   53.9620 C   0  0  0  0  0  0  0  0  0  0  0  0
   -1.8614   43.8867   57.6946 H   0  0  0  0  0  0  0  0  0  0  0  0
   -3.2354   43.1164   56.8312 H   0  0  0  0  0  0  0  0  0  0  0  0
   -1.6204   42.3300   56.8312 H   0  0  0  0  0  0  0  0  0  0  0  0
   -2.3620   43.9971   51.3264 H   0  0  0  0  0  0  0  0  0  0  0  0
   -0.3675   44.9710   50.1208 H   0  0  0  0  0  0  0  0  0  0  0  0
    1.6262   45.7847   51.4134 H   0  0  0  0  0  0  0  0  0  0  0  0
    5.5073   45.5733   54.2604 H   0  0  0  0  0  0  0  0  0  0  0  0
    5.1908   43.9326   53.6947 H   0  0  0  0  0  0  0  0  0  0  0  0
    7.5100   46.5573   53.6333 H   0  0  0  0  0  0  0  0  0  0  0  0
    9.1747   47.1249   51.8707 H   0  0  0  0  0  0  0  0  0  0  0  0
    9.0278   46.0547   49.6258 H   0  0  0  0  0  0  0  0  0  0  0  0
    7.2655   44.3610   49.1594 H   0  0  0  0  0  0  0  0  0  0  0  0
    6.9560   42.2234   49.8411 H   0  0  0  0  0  0  0  0  0  0  0  0
    5.4874   40.3163   49.2481 H   0  0  0  0  0  0  0  0  0  0  0  0
    3.0933   40.3218   49.9220 H   0  0  0  0  0  0  0  0  0  0  0  0
    2.1722   42.2153   51.2305 H   0  0  0  0  0  0  0  0  0  0  0  0
    2.5283   44.8388   51.4850 H   0  0  0  0  0  0  0  0  0  0  0  0
    2.9120   43.8691   53.0022 H   0  0  0  0  0  0  0  0  0  0  0  0
    2.4668   45.9034   56.3005 H   0  0  0  0  0  0  0  0  0  0  0  0
    0.3901   44.8563   57.2681 H   0  0  0  0  0  0  0  0  0  0  0  0
  1  2  1  0
  2  3  1  0
  3  4  2  0
  3  5  1  0
  5  6  2  0
  6  7  1  0
  7  8  2  0
  8  9  1  0
  9 10  2  0
 10 11  1  0
 11 12  2  0
 11 13  2  0
 11 14  1  0
 14 15  1  0
 15 16  1  0
 16 17  2  0
 17 18  1  0
 18 19  2  0
 19 20  1  0
 20 21  2  0
 21 22  1  0
 22 23  2  0
 23 24  1  0
 24 25  2  0
 25 26  1  0
 26 27  2  0
 27 28  1  0
 10 29  1  0
 29 30  2  0
 30 31  1  0
 31 32  2  0
 31  2  1  0
 32  5  1  0
 32  9  1  0
 28 14  1  0
 21 16  1  0
 27 22  1  0
  1 33  1  0
  1 34  1  0
  1 35  1  0
  6 36  1  0
  7 37  1  0
  8 38  1  0
 15 39  1  0
 15 40  1  0
 17 41  1  0
 18 42  1  0
 19 43  1  0
 20 44  1  0
 23 45  1  0
 24 46  1  0
 25 47  1  0
 26 48  1  0
 28 49  1  0
 28 50  1  0
 29 51  1  0
 30 52  1  0
M  END
>  <meeko>  (3) 
{"is_sidechain": [false], "free_energy": -10.555, "intermolecular_energy": -11.848, "internal_energy": 0.542}

$$$$
ligand_38_conformer_3_docked
     RDKit          3D

 52 57  0  0  0  0  0  0  0  0999 V2000
    1.2850   46.6770   58.3030 C   0  0  0  0  0  0  0  0  0  0  0  0
    0.8830   46.1240   57.0170 N   0  0  0  0  0  0  0  0  0  0  0  0
   -0.3180   45.3750   56.7660 C   0  0  0  0  0  0  0  0  0  0  0  0
   -1.3400   45.3960   57.5020 O   0  0  0  0  0  0  0  0  0  0  0  0
   -0.1480   44.5660   55.5610 C   0  0  0  0  0  0  0  0  0  0  0  0
   -0.9660   43.6770   54.8690 C   0  0  0  0  0  0  0  0  0  0  0  0
   -0.4250   43.0380   53.7310 C   0  0  0  0  0  0  0  0  0  0  0  0
    0.9080   43.2930   53.3180 C   0  0  0  0  0  0  0  0  0  0  0  0
    1.7120   44.2090   54.0400 C   0  0  0  0  0  0  0  0  0  0  0  0
    3.0500   44.5770   53.7410 C   0  0  0  0  0  0  0  0  0  0  0  0
    3.8570   43.9970   52.2770 S   0  0  0  0  0  0  0  0  0  0  0  0
    3.0260   44.3700   51.0810 O   0  0  0  0  0  0  0  0  0  0  0  0
    4.0130   42.5010   52.3220 O   0  0  0  0  0  0  0  0  0  0  0  0
    5.4320   44.7420   52.1710 N   0  0  0  0  0  0  0  0  0  0  0  0
    5.5490   45.5970   50.9850 C   0  0  0  0  0  0  0  0  0  0  0  0
    6.8440   45.2160   50.3640 C   0  0  0  0  0  0  0  0  0  0  0  0
    6.8450   44.5310   49.1340 C   0  0  0  0  0  0  0  0  0  0  0  0
    8.0130   43.9410   48.6550 C   0  0  0  0  0  0  0  0  0  0  0  0
    9.1830   44.0070   49.4050 C   0  0  0  0  0  0  0  0  0  0  0  0
    9.1960   44.6840   50.6270 C   0  0  0  0  0  0  0  0  0  0  0  0
    8.0340   45.3160   51.1220 C   0  0  0  0  0  0  0  0  0  0  0  0
    8.1160   46.1240   52.3890 C   0  0  0  0  0  0  0  0  0  0  0  0
    9.2750   46.9170   52.5590 C   0  0  0  0  0  0  0  0  0  0  0  0
    9.4650   47.6940   53.6980 C   0  0  0  0  0  0  0  0  0  0  0  0
    8.5020   47.7130   54.6970 C   0  0  0  0  0  0  0  0  0  0  0  0
    7.3360   46.9670   54.5530 C   0  0  0  0  0  0  0  0  0  0  0  0
    7.1030   46.1780   53.4080 C   0  0  0  0  0  0  0  0  0  0  0  0
    5.7600   45.4540   53.4090 C   0  0  0  0  0  0  0  0  0  0  0  0
    3.7280   45.4900   54.5970 C   0  0  0  0  0  0  0  0  0  0  0  0
    3.0860   46.0490   55.7250 C   0  0  0  0  0  0  0  0  0  0  0  0
    1.7610   45.6910   55.9710 C   0  0  0  0  0  0  0  0  0  0  0  0
    1.1280   44.8050   55.1470 C   0  0  0  0  0  0  0  0  0  0  0  0
    0.8478   46.0755   59.1136 H   0  0  0  0  0  0  0  0  0  0  0  0
    2.3819   46.6585   58.3833 H   0  0  0  0  0  0  0  0  0  0  0  0
    0.9290   47.7147   58.3833 H   0  0  0  0  0  0  0  0  0  0  0  0
   -1.9972   43.4791   55.1967 H   0  0  0  0  0  0  0  0  0  0  0  0
   -1.0455   42.3335   53.1577 H   0  0  0  0  0  0  0  0  0  0  0  0
    1.3178   42.7789   52.4361 H   0  0  0  0  0  0  0  0  0  0  0  0
    4.7170   45.4104   50.2900 H   0  0  0  0  0  0  0  0  0  0  0  0
    5.5115   46.6662   51.2405 H   0  0  0  0  0  0  0  0  0  0  0  0
    5.9173   44.4611   48.5470 H   0  0  0  0  0  0  0  0  0  0  0  0
    8.0100   43.4234   47.6844 H   0  0  0  0  0  0  0  0  0  0  0  0
   10.0999   43.5250   49.0349 H   0  0  0  0  0  0  0  0  0  0  0  0
   10.1260   44.7255   51.2129 H   0  0  0  0  0  0  0  0  0  0  0  0
   10.0441   46.9196   51.7726 H   0  0  0  0  0  0  0  0  0  0  0  0
   10.3804   48.2943   53.8065 H   0  0  0  0  0  0  0  0  0  0  0  0
    8.6602   48.3175   55.6023 H   0  0  0  0  0  0  0  0  0  0  0  0
    6.5790   46.9935   55.3506 H   0  0  0  0  0  0  0  0  0  0  0  0
    5.7691   44.7219   54.2300 H   0  0  0  0  0  0  0  0  0  0  0  0
    4.9935   46.2346   53.5234 H   0  0  0  0  0  0  0  0  0  0  0  0
    4.7700   45.7653   54.3766 H   0  0  0  0  0  0  0  0  0  0  0  0
    3.6163   46.7466   56.3899 H   0  0  0  0  0  0  0  0  0  0  0  0
  1  2  1  0
  2  3  1  0
  3  4  2  0
  3  5  1  0
  5  6  2  0
  6  7  1  0
  7  8  2  0
  8  9  1  0
  9 10  2  0
 10 11  1  0
 11 12  2  0
 11 13  2  0
 11 14  1  0
 14 15  1  0
 15 16  1  0
 16 17  2  0
 17 18  1  0
 18 19  2  0
 19 20  1  0
 20 21  2  0
 21 22  1  0
 22 23  2  0
 23 24  1  0
 24 25  2  0
 25 26  1  0
 26 27  2  0
 27 28  1  0
 10 29  1  0
 29 30  2  0
 30 31  1  0
 31 32  2  0
 31  2  1  0
 32  5  1  0
 32  9  1  0
 28 14  1  0
 21 16  1  0
 27 22  1  0
  1 33  1  0
  1 34  1  0
  1 35  1  0
  6 36  1  0
  7 37  1  0
  8 38  1  0
 15 39  1  0
 15 40  1  0
 17 41  1  0
 18 42  1  0
 19 43  1  0
 20 44  1  0
 23 45  1  0
 24 46  1  0
 25 47  1  0
 26 48  1  0
 28 49  1  0
 28 50  1  0
 29 51  1  0
 30 52  1  0
M  END
>  <meeko>  (4) 
{"is_sidechain": [false], "free_energy": -10.305, "intermolecular_energy": -12.069, "internal_energy": 1.042}

$$$$
ligand_38_conformer_3_docked
     RDKit          3D

 52 57  0  0  0  0  0  0  0  0999 V2000
   -3.0990   44.1510   52.6120 C   0  0  0  0  0  0  0  0  0  0  0  0
   -1.9940   44.1120   53.5610 N   0  0  0  0  0  0  0  0  0  0  0  0
   -2.1190   44.0060   54.9890 C   0  0  0  0  0  0  0  0  0  0  0  0
   -3.1430   43.5790   55.5860 O   0  0  0  0  0  0  0  0  0  0  0  0
   -0.9030   44.5050   55.6260 C   0  0  0  0  0  0  0  0  0  0  0  0
   -0.4850   44.6320   56.9480 C   0  0  0  0  0  0  0  0  0  0  0  0
    0.7820   45.2120   57.1830 C   0  0  0  0  0  0  0  0  0  0  0  0
    1.5910   45.6520   56.1040 C   0  0  0  0  0  0  0  0  0  0  0  0
    1.1400   45.5030   54.7700 C   0  0  0  0  0  0  0  0  0  0  0  0
    1.8400   45.8790   53.5930 C   0  0  0  0  0  0  0  0  0  0  0  0
    3.4990   46.4880   53.6670 S   0  0  0  0  0  0  0  0  0  0  0  0
    4.0250   46.3060   55.0630 O   0  0  0  0  0  0  0  0  0  0  0  0
    3.5360   47.9510   53.3130 O   0  0  0  0  0  0  0  0  0  0  0  0
    4.4770   45.5930   52.5330 N   0  0  0  0  0  0  0  0  0  0  0  0
    3.8210   45.4730   51.2260 C   0  0  0  0  0  0  0  0  0  0  0  0
    3.9480   44.0380   50.8630 C   0  0  0  0  0  0  0  0  0  0  0  0
    2.7980   43.2260   50.8460 C   0  0  0  0  0  0  0  0  0  0  0  0
    2.9140   41.8400   50.7610 C   0  0  0  0  0  0  0  0  0  0  0  0
    4.1730   41.2490   50.7160 C   0  0  0  0  0  0  0  0  0  0  0  0
    5.3220   42.0430   50.7310 C   0  0  0  0  0  0  0  0  0  0  0  0
    5.2330   43.4520   50.7870 C   0  0  0  0  0  0  0  0  0  0  0  0
    6.4900   44.2740   50.6950 C   0  0  0  0  0  0  0  0  0  0  0  0
    7.4690   43.8320   49.7750 C   0  0  0  0  0  0  0  0  0  0  0  0
    8.6760   44.5070   49.6160 C   0  0  0  0  0  0  0  0  0  0  0  0
    8.9400   45.6480   50.3600 C   0  0  0  0  0  0  0  0  0  0  0  0
    7.9890   46.1300   51.2550 C   0  0  0  0  0  0  0  0  0  0  0  0
    6.7500   45.4800   51.4340 C   0  0  0  0  0  0  0  0  0  0  0  0
    5.8230   46.1660   52.4340 C   0  0  0  0  0  0  0  0  0  0  0  0
    1.2210   45.6880   52.3260 C   0  0  0  0  0  0  0  0  0  0  0  0
   -0.0670   45.1160   52.2180 C   0  0  0  0  0  0  0  0  0  0  0  0
   -0.7120   44.7280   53.3920 C   0  0  0  0  0  0  0  0  0  0  0  0
   -0.1110   44.9280   54.6010 C   0  0  0  0  0  0  0  0  0  0  0  0
   -4.0521   44.1846   53.1602 H   0  0  0  0  0  0  0  0  0  0  0  0
   -3.0079   45.0465   51.9797 H   0  0  0  0  0  0  0  0  0  0  0  0
   -3.0712   43.2513   51.9797 H   0  0  0  0  0  0  0  0  0  0  0  0
   -1.1189   44.2927   57.7805 H   0  0  0  0  0  0  0  0  0  0  0  0
    1.1454   45.3237   58.2152 H   0  0  0  0  0  0  0  0  0  0  0  0
    2.5709   46.1100   56.3040 H   0  0  0  0  0  0  0  0  0  0  0  0
    2.7619   45.7617   51.2969 H   0  0  0  0  0  0  0  0  0  0  0  0
    4.2770   46.1320   50.4725 H   0  0  0  0  0  0  0  0  0  0  0  0
    1.8015   43.6887   50.9002 H   0  0  0  0  0  0  0  0  0  0  0  0
    2.0106   41.2132   50.7295 H   0  0  0  0  0  0  0  0  0  0  0  0
    4.2636   40.1538   50.6685 H   0  0  0  0  0  0  0  0  0  0  0  0
    6.3116   41.5639   50.6987 H   0  0  0  0  0  0  0  0  0  0  0  0
    7.2721   42.9340   49.1711 H   0  0  0  0  0  0  0  0  0  0  0  0
    9.4223   44.1349   48.8987 H   0  0  0  0  0  0  0  0  0  0  0  0
    9.9003   46.1714   50.2427 H   0  0  0  0  0  0  0  0  0  0  0  0
    8.2086   47.0381   51.8356 H   0  0  0  0  0  0  0  0  0  0  0  0
    6.2915   46.1077   53.4275 H   0  0  0  0  0  0  0  0  0  0  0  0
    5.6902   47.1956   52.0702 H   0  0  0  0  0  0  0  0  0  0  0  0
    1.7550   45.9912   51.4134 H   0  0  0  0  0  0  0  0  0  0  0  0
   -0.5463   44.9809   51.2372 H   0  0  0  0  0  0  0  0  0  0  0  0
  1  2  1  0
  2  3  1  0
  3  4  2  0
  3  5  1  0
  5  6  2  0
  6  7  1  0
  7  8  2  0
  8  9  1  0
  9 10  2  0
 10 11  1  0
 11 12  2  0
 11 13  2  0
 11 14  1  0
 14 15  1  0
 15 16  1  0
 16 17  2  0
 17 18  1  0
 18 19  2  0
 19 20  1  0
 20 21  2  0
 21 22  1  0
 22 23  2  0
 23 24  1  0
 24 25  2  0
 25 26  1  0
 26 27  2  0
 27 28  1  0
 10 29  1  0
 29 30  2  0
 30 31  1  0
 31 32  2  0
 31  2  1  0
 32  5  1  0
 32  9  1  0
 28 14  1  0
 21 16  1  0
 27 22  1  0
  1 33  1  0
  1 34  1  0
  1 35  1  0
  6 36  1  0
  7 37  1  0
  8 38  1  0
 15 39  1  0
 15 40  1  0
 17 41  1  0
 18 42  1  0
 19 43  1  0
 20 44  1  0
 23 45  1  0
 24 46  1  0
 25 47  1  0
 26 48  1  0
 28 49  1  0
 28 50  1  0
 29 51  1  0
 30 52  1  0
M  END
>  <meeko>  (5) 
{"is_sidechain": [false], "free_energy": -10.259, "intermolecular_energy": -11.612, "internal_energy": 0.636}

$$$$
