ligand_95_conformer_3_docked
     RDKit          3D

 30 32  0  0  0  0  0  0  0  0999 V2000
    1.9350   42.8790   53.1140 N   0  0  0  0  0  0  0  0  0  0  0  0
    2.8040   42.7200   52.3660 C   0  0  0  0  0  0  0  0  0  0  0  0
    3.8840   42.5210   51.4360 C   0  0  0  0  0  0  0  0  0  0  0  0
    4.0000   41.3700   50.6460 C   0  0  0  0  0  0  0  0  0  0  0  0
    5.1220   41.3700   49.8280 C   0  0  0  0  0  0  0  0  0  0  0  0
    5.9690   42.8010   50.0880 S   0  0  0  0  0  0  0  0  0  0  0  0
    4.9160   43.4330   51.2340 C   0  0  0  0  0  0  0  0  0  0  0  0
    5.1300   44.9800   52.0420 S   0  0  0  0  0  0  0  0  0  0  0  0
    3.8180   45.7030   52.1620 O   0  0  0  0  0  0  0  0  0  0  0  0
    5.6850   44.7350   53.4160 O   0  0  0  0  0  0  0  0  0  0  0  0
    6.2440   45.9670   51.1480 N   0  0  0  0  0  0  0  0  0  0  0  0
    7.6760   45.9000   51.2980 C   0  0  0  0  0  0  0  0  0  0  0  0
    8.4940   45.2060   50.3750 C   0  0  0  0  0  0  0  0  0  0  0  0
    9.8890   45.1550   50.5460 C   0  0  0  0  0  0  0  0  0  0  0  0
   10.4960   45.7930   51.6360 C   0  0  0  0  0  0  0  0  0  0  0  0
    9.6870   46.4770   52.5400 C   0  0  0  0  0  0  0  0  0  0  0  0
    8.3160   46.5310   52.3790 C   0  0  0  0  0  0  0  0  0  0  0  0
    7.7020   47.2660   53.4270 N   0  0  0  0  0  0  0  0  0  0  0  0
    8.7780   47.6770   54.2630 C   0  0  0  0  0  0  0  0  0  0  0  0
    8.6090   48.3560   55.3090 O   0  0  0  0  0  0  0  0  0  0  0  0
   10.1130   47.2140   53.7690 C   0  0  0  0  0  0  0  0  0  0  0  0
    3.2723   40.5455   50.6713 H   0  0  0  0  0  0  0  0  0  0  0  0
    5.4086   40.5706   49.1288 H   0  0  0  0  0  0  0  0  0  0  0  0
    5.8230   46.6630   50.4970 H   0  0  0  0  0  0  0  0  0  0  0  0
    8.0332   44.7004   49.5136 H   0  0  0  0  0  0  0  0  0  0  0  0
   10.5084   44.6100   49.8185 H   0  0  0  0  0  0  0  0  0  0  0  0
   11.5866   45.7545   51.7745 H   0  0  0  0  0  0  0  0  0  0  0  0
    6.6880   47.4550   53.5840 H   0  0  0  0  0  0  0  0  0  0  0  0
   10.7764   48.0584   53.5305 H   0  0  0  0  0  0  0  0  0  0  0  0
   10.6958   46.6208   54.4891 H   0  0  0  0  0  0  0  0  0  0  0  0
  1  2  3  0
  2  3  1  0
  3  4  1  0
  4  5  2  0
  5  6  1  0
  6  7  1  0
  7  8  1  0
  8  9  2  0
  8 10  2  0
  8 11  1  0
 11 12  1  0
 12 13  2  0
 13 14  1  0
 14 15  2  0
 15 16  1  0
 16 17  2  0
 17 18  1  0
 18 19  1  0
 19 20  2  0
 19 21  1  0
  7  3  2  0
 17 12  1  0
 21 16  1  0
  4 22  1  0
  5 23  1  0
 11 24  1  0
 13 25  1  0
 14 26  1  0
 15 27  1  0
 18 28  1  0
 21 29  1  0
 21 30  1  0
M  END
>  <meeko>  (1) 
{"is_sidechain": [false], "free_energy": -8.944, "intermolecular_energy": -10.513, "internal_energy": -0.365}

$$$$
ligand_95_conformer_3_docked
     RDKit          3D

 30 32  0  0  0  0  0  0  0  0999 V2000
    9.0430   48.3040   55.3930 N   0  0  0  0  0  0  0  0  0  0  0  0
    9.0720   47.7010   54.4060 C   0  0  0  0  0  0  0  0  0  0  0  0
    9.1070   46.9520   53.1770 C   0  0  0  0  0  0  0  0  0  0  0  0
   10.2970   46.6970   52.4820 C   0  0  0  0  0  0  0  0  0  0  0  0
   10.1100   45.9700   51.3130 C   0  0  0  0  0  0  0  0  0  0  0  0
    8.4670   45.6470   51.1460 S   0  0  0  0  0  0  0  0  0  0  0  0
    7.9820   46.4200   52.5560 C   0  0  0  0  0  0  0  0  0  0  0  0
    6.3160   46.5400   53.1080 S   0  0  0  0  0  0  0  0  0  0  0  0
    6.1000   45.6920   54.3310 O   0  0  0  0  0  0  0  0  0  0  0  0
    6.0200   47.9740   53.4420 O   0  0  0  0  0  0  0  0  0  0  0  0
    5.2370   46.0150   51.8530 N   0  0  0  0  0  0  0  0  0  0  0  0
    4.3190   44.9140   51.9930 C   0  0  0  0  0  0  0  0  0  0  0  0
    3.1040   45.0370   52.7080 C   0  0  0  0  0  0  0  0  0  0  0  0
    2.2260   43.9440   52.8310 C   0  0  0  0  0  0  0  0  0  0  0  0
    2.5400   42.7110   52.2430 C   0  0  0  0  0  0  0  0  0  0  0  0
    3.7350   42.5950   51.5380 C   0  0  0  0  0  0  0  0  0  0  0  0
    4.6020   43.6640   51.4140 C   0  0  0  0  0  0  0  0  0  0  0  0
    5.7570   43.3070   50.6700 N   0  0  0  0  0  0  0  0  0  0  0  0
    5.5620   41.9390   50.3280 C   0  0  0  0  0  0  0  0  0  0  0  0
    6.3990   41.2760   49.6610 O   0  0  0  0  0  0  0  0  0  0  0  0
    4.2720   41.3850   50.8460 C   0  0  0  0  0  0  0  0  0  0  0  0
   11.2833   47.0393   52.8285 H   0  0  0  0  0  0  0  0  0  0  0  0
   10.9013   45.6585   50.6153 H   0  0  0  0  0  0  0  0  0  0  0  0
    5.3030   46.5240   50.9460 H   0  0  0  0  0  0  0  0  0  0  0  0
    2.8426   45.9988   53.1734 H   0  0  0  0  0  0  0  0  0  0  0  0
    1.2870   44.0581   53.3924 H   0  0  0  0  0  0  0  0  0  0  0  0
    1.8572   41.8537   52.3365 H   0  0  0  0  0  0  0  0  0  0  0  0
    6.5880   43.8920   50.4360 H   0  0  0  0  0  0  0  0  0  0  0  0
    3.6123   41.0537   50.0305 H   0  0  0  0  0  0  0  0  0  0  0  0
    4.3707   40.4918   51.4803 H   0  0  0  0  0  0  0  0  0  0  0  0
  1  2  3  0
  2  3  1  0
  3  4  1  0
  4  5  2  0
  5  6  1  0
  6  7  1  0
  7  8  1  0
  8  9  2  0
  8 10  2  0
  8 11  1  0
 11 12  1  0
 12 13  2  0
 13 14  1  0
 14 15  2  0
 15 16  1  0
 16 17  2  0
 17 18  1  0
 18 19  1  0
 19 20  2  0
 19 21  1  0
  7  3  2  0
 17 12  1  0
 21 16  1  0
  4 22  1  0
  5 23  1  0
 11 24  1  0
 13 25  1  0
 14 26  1  0
 15 27  1  0
 18 28  1  0
 21 29  1  0
 21 30  1  0
M  END
>  <meeko>  (2) 
{"is_sidechain": [false], "free_energy": -8.762, "intermolecular_energy": -10.23, "internal_energy": -0.434}

$$$$
ligand_95_conformer_3_docked
     RDKit          3D

 30 32  0  0  0  0  0  0  0  0999 V2000
    5.4050   43.1410   50.9030 N   0  0  0  0  0  0  0  0  0  0  0  0
    4.4930   43.7500   51.2750 C   0  0  0  0  0  0  0  0  0  0  0  0
    3.3600   44.5070   51.7360 C   0  0  0  0  0  0  0  0  0  0  0  0
    2.0570   44.2720   51.2780 C   0  0  0  0  0  0  0  0  0  0  0  0
    1.1110   45.1220   51.8380 C   0  0  0  0  0  0  0  0  0  0  0  0
    1.8970   46.1640   52.9010 S   0  0  0  0  0  0  0  0  0  0  0  0
    3.4390   45.5410   52.6640 C   0  0  0  0  0  0  0  0  0  0  0  0
    4.8910   46.1410   53.4540 S   0  0  0  0  0  0  0  0  0  0  0  0
    4.5460   47.1900   54.4740 O   0  0  0  0  0  0  0  0  0  0  0  0
    5.5770   44.9930   54.1390 O   0  0  0  0  0  0  0  0  0  0  0  0
    5.9680   46.8240   52.2760 N   0  0  0  0  0  0  0  0  0  0  0  0
    7.4040   46.7280   52.3490 C   0  0  0  0  0  0  0  0  0  0  0  0
    8.1530   47.4240   53.3270 C   0  0  0  0  0  0  0  0  0  0  0  0
    9.5550   47.3130   53.3740 C   0  0  0  0  0  0  0  0  0  0  0  0
   10.2350   46.5070   52.4510 C   0  0  0  0  0  0  0  0  0  0  0  0
    9.4940   45.8210   51.4930 C   0  0  0  0  0  0  0  0  0  0  0  0
    8.1170   45.9260   51.4410 C   0  0  0  0  0  0  0  0  0  0  0  0
    7.5820   45.1550   50.3760 N   0  0  0  0  0  0  0  0  0  0  0  0
    8.7130   44.5510   49.7570 C   0  0  0  0  0  0  0  0  0  0  0  0
    8.6210   43.7890   48.7600 O   0  0  0  0  0  0  0  0  0  0  0  0
   10.0060   44.9220   50.4150 C   0  0  0  0  0  0  0  0  0  0  0  0
    1.8069   43.4901   50.5458 H   0  0  0  0  0  0  0  0  0  0  0  0
    0.0322   45.1151   51.6232 H   0  0  0  0  0  0  0  0  0  0  0  0
    5.5220   47.3590   51.5000 H   0  0  0  0  0  0  0  0  0  0  0  0
    7.6332   48.0594   54.0592 H   0  0  0  0  0  0  0  0  0  0  0  0
   10.1211   47.8626   54.1405 H   0  0  0  0  0  0  0  0  0  0  0  0
   11.3310   46.4184   52.4829 H   0  0  0  0  0  0  0  0  0  0  0  0
    6.5870   45.0570   50.0770 H   0  0  0  0  0  0  0  0  0  0  0  0
   10.5226   44.0425   50.8268 H   0  0  0  0  0  0  0  0  0  0  0  0
   10.7544   45.3748   49.7480 H   0  0  0  0  0  0  0  0  0  0  0  0
  1  2  3  0
  2  3  1  0
  3  4  1  0
  4  5  2  0
  5  6  1  0
  6  7  1  0
  7  8  1  0
  8  9  2  0
  8 10  2  0
  8 11  1  0
 11 12  1  0
 12 13  2  0
 13 14  1  0
 14 15  2  0
 15 16  1  0
 16 17  2  0
 17 18  1  0
 18 19  1  0
 19 20  2  0
 19 21  1  0
  7  3  2  0
 17 12  1  0
 21 16  1  0
  4 22  1  0
  5 23  1  0
 11 24  1  0
 13 25  1  0
 14 26  1  0
 15 27  1  0
 18 28  1  0
 21 29  1  0
 21 30  1  0
M  END
>  <meeko>  (3) 
{"is_sidechain": [false], "free_energy": -8.758, "intermolecular_energy": -9.871, "internal_energy": -0.788}

$$$$
ligand_95_conformer_3_docked
     RDKit          3D

 30 32  0  0  0  0  0  0  0  0999 V2000
    4.5080   42.7380   51.2050 N   0  0  0  0  0  0  0  0  0  0  0  0
    3.7550   43.1660   51.9720 C   0  0  0  0  0  0  0  0  0  0  0  0
    2.8190   43.6990   52.9270 C   0  0  0  0  0  0  0  0  0  0  0  0
    1.4950   43.2510   53.0170 C   0  0  0  0  0  0  0  0  0  0  0  0
    0.7540   43.9050   53.9930 C   0  0  0  0  0  0  0  0  0  0  0  0
    1.7460   45.0410   54.7410 S   0  0  0  0  0  0  0  0  0  0  0  0
    3.1220   44.7060   53.8380 C   0  0  0  0  0  0  0  0  0  0  0  0
    4.6650   45.5310   54.0230 S   0  0  0  0  0  0  0  0  0  0  0  0
    4.5430   46.6720   54.9940 O   0  0  0  0  0  0  0  0  0  0  0  0
    5.6780   44.5500   54.5390 O   0  0  0  0  0  0  0  0  0  0  0  0
    5.1970   46.1450   52.4890 N   0  0  0  0  0  0  0  0  0  0  0  0
    6.5560   46.0580   52.0170 C   0  0  0  0  0  0  0  0  0  0  0  0
    6.8890   45.4080   50.8060 C   0  0  0  0  0  0  0  0  0  0  0  0
    8.2250   45.3360   50.3700 C   0  0  0  0  0  0  0  0  0  0  0  0
    9.2520   45.9120   51.1290 C   0  0  0  0  0  0  0  0  0  0  0  0
    8.9190   46.5550   52.3190 C   0  0  0  0  0  0  0  0  0  0  0  0
    7.6090   46.6280   52.7540 C   0  0  0  0  0  0  0  0  0  0  0  0
    7.5160   47.3120   53.9940 N   0  0  0  0  0  0  0  0  0  0  0  0
    8.8550   47.6700   54.3160 C   0  0  0  0  0  0  0  0  0  0  0  0
    9.1620   48.2960   55.3640 O   0  0  0  0  0  0  0  0  0  0  0  0
    9.8440   47.2230   53.2840 C   0  0  0  0  0  0  0  0  0  0  0  0
    1.0819   42.4578   52.3766 H   0  0  0  0  0  0  0  0  0  0  0  0
   -0.3016   43.7132   54.2359 H   0  0  0  0  0  0  0  0  0  0  0  0
    4.4770   46.6280   51.9110 H   0  0  0  0  0  0  0  0  0  0  0  0
    6.0937   44.9530   50.1973 H   0  0  0  0  0  0  0  0  0  0  0  0
    8.4647   44.8238   49.4265 H   0  0  0  0  0  0  0  0  0  0  0  0
   10.2980   45.8577   50.7928 H   0  0  0  0  0  0  0  0  0  0  0  0
    6.6680   47.5000   54.5730 H   0  0  0  0  0  0  0  0  0  0  0  0
   10.3694   48.0736   52.8253 H   0  0  0  0  0  0  0  0  0  0  0  0
   10.6584   46.5884   53.6636 H   0  0  0  0  0  0  0  0  0  0  0  0
  1  2  3  0
  2  3  1  0
  3  4  1  0
  4  5  2  0
  5  6  1  0
  6  7  1  0
  7  8  1  0
  8  9  2  0
  8 10  2  0
  8 11  1  0
 11 12  1  0
 12 13  2  0
 13 14  1  0
 14 15  2  0
 15 16  1  0
 16 17  2  0
 17 18  1  0
 18 19  1  0
 19 20  2  0
 19 21  1  0
  7  3  2  0
 17 12  1  0
 21 16  1  0
  4 22  1  0
  5 23  1  0
 11 24  1  0
 13 25  1  0
 14 26  1  0
 15 27  1  0
 18 28  1  0
 21 29  1  0
 21 30  1  0
M  END
>  <meeko>  (4) 
{"is_sidechain": [false], "free_energy": -8.726, "intermolecular_energy": -9.991, "internal_energy": -0.63}

$$$$
ligand_95_conformer_3_docked
     RDKit          3D

 30 32  0  0  0  0  0  0  0  0999 V2000
    5.8170   45.2520   55.6280 N   0  0  0  0  0  0  0  0  0  0  0  0
    4.7180   45.2700   55.2670 C   0  0  0  0  0  0  0  0  0  0  0  0
    3.3510   45.2930   54.8170 C   0  0  0  0  0  0  0  0  0  0  0  0
    2.2660   45.3550   55.7000 C   0  0  0  0  0  0  0  0  0  0  0  0
    1.0320   45.3520   55.0630 C   0  0  0  0  0  0  0  0  0  0  0  0
    1.2920   45.2700   53.4020 S   0  0  0  0  0  0  0  0  0  0  0  0
    2.9700   45.2450   53.4800 C   0  0  0  0  0  0  0  0  0  0  0  0
    4.0330   45.1470   52.0820 S   0  0  0  0  0  0  0  0  0  0  0  0
    4.7010   43.8020   52.0170 O   0  0  0  0  0  0  0  0  0  0  0  0
    3.2170   45.3540   50.8380 O   0  0  0  0  0  0  0  0  0  0  0  0
    5.2490   46.3830   52.1740 N   0  0  0  0  0  0  0  0  0  0  0  0
    6.6330   46.1750   51.8310 C   0  0  0  0  0  0  0  0  0  0  0  0
    7.0180   45.4740   50.6630 C   0  0  0  0  0  0  0  0  0  0  0  0
    8.3770   45.2840   50.3520 C   0  0  0  0  0  0  0  0  0  0  0  0
    9.3760   45.7890   51.1950 C   0  0  0  0  0  0  0  0  0  0  0  0
    8.9930   46.4810   52.3410 C   0  0  0  0  0  0  0  0  0  0  0  0
    7.6600   46.6710   52.6530 C   0  0  0  0  0  0  0  0  0  0  0  0
    7.5130   47.3860   53.8700 N   0  0  0  0  0  0  0  0  0  0  0  0
    8.8430   47.6380   54.3090 C   0  0  0  0  0  0  0  0  0  0  0  0
    9.1060   48.2580   55.3730 O   0  0  0  0  0  0  0  0  0  0  0  0
    9.8790   47.0900   53.3780 C   0  0  0  0  0  0  0  0  0  0  0  0
    2.3801   45.4016   56.7931 H   0  0  0  0  0  0  0  0  0  0  0  0
    0.0514   45.3958   55.5595 H   0  0  0  0  0  0  0  0  0  0  0  0
    4.9380   47.3100   52.5350 H   0  0  0  0  0  0  0  0  0  0  0  0
    6.2454   45.0730   49.9904 H   0  0  0  0  0  0  0  0  0  0  0  0
    8.6572   44.7352   49.4408 H   0  0  0  0  0  0  0  0  0  0  0  0
   10.4397   45.6419   50.9566 H   0  0  0  0  0  0  0  0  0  0  0  0
    6.6350   47.6550   54.3670 H   0  0  0  0  0  0  0  0  0  0  0  0
   10.5133   47.8848   52.9585 H   0  0  0  0  0  0  0  0  0  0  0  0
   10.5992   46.3980   53.8390 H   0  0  0  0  0  0  0  0  0  0  0  0
  1  2  3  0
  2  3  1  0
  3  4  1  0
  4  5  2  0
  5  6  1  0
  6  7  1  0
  7  8  1  0
  8  9  2  0
  8 10  2  0
  8 11  1  0
 11 12  1  0
 12 13  2  0
 13 14  1  0
 14 15  2  0
 15 16  1  0
 16 17  2  0
 17 18  1  0
 18 19  1  0
 19 20  2  0
 19 21  1  0
  7  3  2  0
 17 12  1  0
 21 16  1  0
  4 22  1  0
  5 23  1  0
 11 24  1  0
 13 25  1  0
 14 26  1  0
 15 27  1  0
 18 28  1  0
 21 29  1  0
 21 30  1  0
M  END
>  <meeko>  (5) 
{"is_sidechain": [false], "free_energy": -8.707, "intermolecular_energy": -10.014, "internal_energy": -0.586}

$$$$
