ligand_46_conformer_3_docked
     RDKit          3D

 53 57  0  0  0  0  0  0  0  0999 V2000
   -0.6160   43.7580   50.7800 O   0  0  0  0  0  0  0  0  0  0  0  0
    0.0360   44.0490   51.8190 C   0  0  0  0  0  0  0  0  0  0  0  0
    1.5130   44.0180   51.7830 C   0  0  0  0  0  0  0  0  0  0  0  0
    2.1790   42.8850   51.2410 C   0  0  0  0  0  0  0  0  0  0  0  0
    3.5840   42.8300   51.1960 C   0  0  0  0  0  0  0  0  0  0  0  0
    4.2940   43.9190   51.6890 C   0  0  0  0  0  0  0  0  0  0  0  0
    5.6500   44.1430   51.7650 C   0  0  0  0  0  0  0  0  0  0  0  0
    5.7790   45.4150   52.3310 C   0  0  0  0  0  0  0  0  0  0  0  0
    7.0630   46.1040   52.6170 C   0  0  0  0  0  0  0  0  0  0  0  0
    7.9750   46.3830   51.5800 C   0  0  0  0  0  0  0  0  0  0  0  0
    9.1820   47.0320   51.8530 C   0  0  0  0  0  0  0  0  0  0  0  0
    9.4940   47.4130   53.1590 C   0  0  0  0  0  0  0  0  0  0  0  0
    8.5980   47.1450   54.1970 C   0  0  0  0  0  0  0  0  0  0  0  0
    7.3890   46.4950   53.9300 C   0  0  0  0  0  0  0  0  0  0  0  0
    4.5570   45.9450   52.5900 N   0  0  0  0  0  0  0  0  0  0  0  0
    3.6650   45.0220   52.1960 C   0  0  0  0  0  0  0  0  0  0  0  0
    2.2750   45.1110   52.2570 C   0  0  0  0  0  0  0  0  0  0  0  0
   -0.6790   44.3530   53.0190 N   0  0  0  0  0  0  0  0  0  0  0  0
   -2.0990   44.4040   53.4190 C   0  0  0  0  0  0  0  0  0  0  0  0
   -1.8510   44.6030   54.8810 C   0  0  0  0  0  0  0  0  0  0  0  0
   -2.3000   43.4480   55.6810 N   0  0  0  0  0  0  0  0  0  0  0  0
   -3.4380   43.7870   56.5570 C   0  0  0  0  0  0  0  0  0  0  0  0
   -3.8210   42.5590   57.4130 C   0  0  0  0  0  0  0  0  0  0  0  0
   -3.2590   42.6830   58.8380 C   0  0  0  0  0  0  0  0  0  0  0  0
   -3.7430   43.8200   59.5450 O   0  0  0  0  0  0  0  0  0  0  0  0
   -3.9800   44.9620   58.7280 C   0  0  0  0  0  0  0  0  0  0  0  0
   -3.1310   45.0120   57.4480 C   0  0  0  0  0  0  0  0  0  0  0  0
   -0.4120   44.5540   54.4580 C   0  0  0  0  0  0  0  0  0  0  0  0
    1.5891   42.0418   50.8524 H   0  0  0  0  0  0  0  0  0  0  0  0
    4.1045   41.9530   50.7837 H   0  0  0  0  0  0  0  0  0  0  0  0
    6.4580   43.4670   51.4486 H   0  0  0  0  0  0  0  0  0  0  0  0
    7.7351   46.0878   50.5479 H   0  0  0  0  0  0  0  0  0  0  0  0
    9.8882   47.2432   51.0365 H   0  0  0  0  0  0  0  0  0  0  0  0
   10.4448   47.9240   53.3709 H   0  0  0  0  0  0  0  0  0  0  0  0
    8.8440   47.4458   55.2261 H   0  0  0  0  0  0  0  0  0  0  0  0
    6.6875   46.2876   54.7515 H   0  0  0  0  0  0  0  0  0  0  0  0
    4.3380   46.8670   53.0260 H   0  0  0  0  0  0  0  0  0  0  0  0
    1.7840   46.0077   52.6631 H   0  0  0  0  0  0  0  0  0  0  0  0
   -2.6379   45.2471   52.9621 H   0  0  0  0  0  0  0  0  0  0  0  0
   -2.7292   43.5494   53.1317 H   0  0  0  0  0  0  0  0  0  0  0  0
   -2.2692   45.4148   55.4942 H   0  0  0  0  0  0  0  0  0  0  0  0
   -1.5190   43.0310   56.2400 H   0  0  0  0  0  0  0  0  0  0  0  0
   -4.2928   44.0616   55.9214 H   0  0  0  0  0  0  0  0  0  0  0  0
   -4.9173   42.4841   57.4641 H   0  0  0  0  0  0  0  0  0  0  0  0
   -3.3942   41.6594   56.9454 H   0  0  0  0  0  0  0  0  0  0  0  0
   -3.5363   41.7796   59.4009 H   0  0  0  0  0  0  0  0  0  0  0  0
   -2.1692   42.8006   58.7457 H   0  0  0  0  0  0  0  0  0  0  0  0
   -5.0410   44.9635   58.4377 H   0  0  0  0  0  0  0  0  0  0  0  0
   -3.6988   45.8410   59.3266 H   0  0  0  0  0  0  0  0  0  0  0  0
   -3.3639   45.9327   56.8930 H   0  0  0  0  0  0  0  0  0  0  0  0
   -2.0659   44.9988   57.7225 H   0  0  0  0  0  0  0  0  0  0  0  0
    0.1233   45.4927   54.6635 H   0  0  0  0  0  0  0  0  0  0  0  0
    0.2320   43.8144   54.9563 H   0  0  0  0  0  0  0  0  0  0  0  0
  1  2  2  0
  2  3  1  0
  3  4  2  0
  4  5  1  0
  5  6  2  0
  6  7  1  0
  7  8  2  0
  8  9  1  0
  9 10  2  0
 10 11  1  0
 11 12  2  0
 12 13  1  0
 13 14  2  0
  8 15  1  0
 15 16  1  0
 16 17  2  0
  2 18  1  0
 18 19  1  0
 19 20  1  0
 20 21  1  0
 21 22  1  0
 22 23  1  0
 23 24  1  0
 24 25  1  0
 25 26  1  0
 26 27  1  0
 20 28  1  0
 17  3  1  0
 28 18  1  0
 16  6  1  0
 27 22  1  0
 14  9  1  0
  4 29  1  0
  5 30  1  0
  7 31  1  0
 10 32  1  0
 11 33  1  0
 12 34  1  0
 13 35  1  0
 14 36  1  0
 15 37  1  0
 17 38  1  0
 19 39  1  0
 19 40  1  0
 20 41  1  0
 21 42  1  0
 22 43  1  0
 23 44  1  0
 23 45  1  0
 24 46  1  0
 24 47  1  0
 26 48  1  0
 26 49  1  0
 27 50  1  0
 27 51  1  0
 28 52  1  0
 28 53  1  0
M  END
>  <meeko>  (1) 
{"is_sidechain": [false], "free_energy": -8.689, "intermolecular_energy": -10.721, "internal_energy": -0.509}

$$$$
ligand_46_conformer_3_docked
     RDKit          3D

 53 57  0  0  0  0  0  0  0  0999 V2000
    1.6300   42.1220   51.0340 O   0  0  0  0  0  0  0  0  0  0  0  0
    1.4850   43.2180   51.6420 C   0  0  0  0  0  0  0  0  0  0  0  0
    2.5900   44.1990   51.6430 C   0  0  0  0  0  0  0  0  0  0  0  0
    2.4530   45.4120   50.9150 C   0  0  0  0  0  0  0  0  0  0  0  0
    3.4900   46.3630   50.8990 C   0  0  0  0  0  0  0  0  0  0  0  0
    4.6430   46.0810   51.6230 C   0  0  0  0  0  0  0  0  0  0  0  0
    5.7950   46.8150   51.7940 C   0  0  0  0  0  0  0  0  0  0  0  0
    6.5980   46.0430   52.6380 C   0  0  0  0  0  0  0  0  0  0  0  0
    7.9540   46.4160   53.1160 C   0  0  0  0  0  0  0  0  0  0  0  0
    9.0960   46.0950   52.3560 C   0  0  0  0  0  0  0  0  0  0  0  0
   10.3710   46.4480   52.8100 C   0  0  0  0  0  0  0  0  0  0  0  0
   10.5210   47.1250   54.0210 C   0  0  0  0  0  0  0  0  0  0  0  0
    9.3970   47.4520   54.7830 C   0  0  0  0  0  0  0  0  0  0  0  0
    8.1200   47.1010   54.3350 C   0  0  0  0  0  0  0  0  0  0  0  0
    5.9650   44.8880   52.9700 N   0  0  0  0  0  0  0  0  0  0  0  0
    4.7790   44.9260   52.3420 C   0  0  0  0  0  0  0  0  0  0  0  0
    3.7730   43.9620   52.3800 C   0  0  0  0  0  0  0  0  0  0  0  0
    0.2690   43.4560   52.3560 N   0  0  0  0  0  0  0  0  0  0  0  0
   -0.9670   42.6950   52.6190 C   0  0  0  0  0  0  0  0  0  0  0  0
   -1.5460   43.6590   53.6060 C   0  0  0  0  0  0  0  0  0  0  0  0
   -1.6290   43.0820   54.9610 N   0  0  0  0  0  0  0  0  0  0  0  0
   -2.4720   43.8910   55.8600 C   0  0  0  0  0  0  0  0  0  0  0  0
   -1.6140   44.4550   57.0140 C   0  0  0  0  0  0  0  0  0  0  0  0
   -1.2450   45.9250   56.7620 C   0  0  0  0  0  0  0  0  0  0  0  0
   -2.3730   46.7860   56.6560 O   0  0  0  0  0  0  0  0  0  0  0  0
   -3.5170   46.1840   56.0590 C   0  0  0  0  0  0  0  0  0  0  0  0
   -3.1960   45.0260   55.1010 C   0  0  0  0  0  0  0  0  0  0  0  0
   -0.2860   44.4240   53.3230 C   0  0  0  0  0  0  0  0  0  0  0  0
    1.5255   45.6097   50.3576 H   0  0  0  0  0  0  0  0  0  0  0  0
    3.3915   47.3001   50.3315 H   0  0  0  0  0  0  0  0  0  0  0  0
    6.0323   47.7974   51.3599 H   0  0  0  0  0  0  0  0  0  0  0  0
    8.9842   45.5634   51.3995 H   0  0  0  0  0  0  0  0  0  0  0  0
   11.2573   46.1914   52.2112 H   0  0  0  0  0  0  0  0  0  0  0  0
   11.5249   47.4013   54.3757 H   0  0  0  0  0  0  0  0  0  0  0  0
    9.5167   47.9865   55.7370 H   0  0  0  0  0  0  0  0  0  0  0  0
    7.2386   47.3618   54.9392 H   0  0  0  0  0  0  0  0  0  0  0  0
    6.3220   44.1110   53.5670 H   0  0  0  0  0  0  0  0  0  0  0  0
    3.8963   43.0407   52.9682 H   0  0  0  0  0  0  0  0  0  0  0  0
   -1.5929   42.5800   51.7218 H   0  0  0  0  0  0  0  0  0  0  0  0
   -0.8504   41.6522   52.9492 H   0  0  0  0  0  0  0  0  0  0  0  0
   -2.5479   44.1092   53.5457 H   0  0  0  0  0  0  0  0  0  0  0  0
   -0.6820   42.9330   55.3830 H   0  0  0  0  0  0  0  0  0  0  0  0
   -3.2523   43.2387   56.2791 H   0  0  0  0  0  0  0  0  0  0  0  0
   -2.1828   44.3833   57.9528 H   0  0  0  0  0  0  0  0  0  0  0  0
   -0.6859   43.8680   57.0783 H   0  0  0  0  0  0  0  0  0  0  0  0
   -0.6184   46.2740   57.5960 H   0  0  0  0  0  0  0  0  0  0  0  0
   -0.7179   45.9642   55.7973 H   0  0  0  0  0  0  0  0  0  0  0  0
   -4.1615   45.7977   56.8623 H   0  0  0  0  0  0  0  0  0  0  0  0
   -4.0050   46.9645   55.4567 H   0  0  0  0  0  0  0  0  0  0  0  0
   -4.1323   44.6378   54.6736 H   0  0  0  0  0  0  0  0  0  0  0  0
   -2.5414   45.3954   54.2978 H   0  0  0  0  0  0  0  0  0  0  0  0
   -0.4790   45.4096   52.8743 H   0  0  0  0  0  0  0  0  0  0  0  0
    0.3440   44.6894   54.1848 H   0  0  0  0  0  0  0  0  0  0  0  0
  1  2  2  0
  2  3  1  0
  3  4  2  0
  4  5  1  0
  5  6  2  0
  6  7  1  0
  7  8  2  0
  8  9  1  0
  9 10  2  0
 10 11  1  0
 11 12  2  0
 12 13  1  0
 13 14  2  0
  8 15  1  0
 15 16  1  0
 16 17  2  0
  2 18  1  0
 18 19  1  0
 19 20  1  0
 20 21  1  0
 21 22  1  0
 22 23  1  0
 23 24  1  0
 24 25  1  0
 25 26  1  0
 26 27  1  0
 20 28  1  0
 17  3  1  0
 28 18  1  0
 16  6  1  0
 27 22  1  0
 14  9  1  0
  4 29  1  0
  5 30  1  0
  7 31  1  0
 10 32  1  0
 11 33  1  0
 12 34  1  0
 13 35  1  0
 14 36  1  0
 15 37  1  0
 17 38  1  0
 19 39  1  0
 19 40  1  0
 20 41  1  0
 21 42  1  0
 22 43  1  0
 23 44  1  0
 23 45  1  0
 24 46  1  0
 24 47  1  0
 26 48  1  0
 26 49  1  0
 27 50  1  0
 27 51  1  0
 28 52  1  0
 28 53  1  0
M  END
>  <meeko>  (2) 
{"is_sidechain": [false], "free_energy": -8.684, "intermolecular_energy": -10.598, "internal_energy": -0.625}

$$$$
ligand_46_conformer_3_docked
     RDKit          3D

 53 57  0  0  0  0  0  0  0  0999 V2000
    0.0710   41.6770   53.8260 O   0  0  0  0  0  0  0  0  0  0  0  0
    0.4460   42.8800   53.7950 C   0  0  0  0  0  0  0  0  0  0  0  0
    1.7520   43.2200   53.1920 C   0  0  0  0  0  0  0  0  0  0  0  0
    2.1180   42.6500   51.9430 C   0  0  0  0  0  0  0  0  0  0  0  0
    3.3550   42.9560   51.3470 C   0  0  0  0  0  0  0  0  0  0  0  0
    4.1990   43.8370   52.0150 C   0  0  0  0  0  0  0  0  0  0  0  0
    5.4440   44.3170   51.6750 C   0  0  0  0  0  0  0  0  0  0  0  0
    5.7970   45.1830   52.7130 C   0  0  0  0  0  0  0  0  0  0  0  0
    7.0660   45.9510   52.7990 C   0  0  0  0  0  0  0  0  0  0  0  0
    7.5960   46.3210   54.0500 C   0  0  0  0  0  0  0  0  0  0  0  0
    8.7910   47.0440   54.1280 C   0  0  0  0  0  0  0  0  0  0  0  0
    9.4700   47.4030   52.9620 C   0  0  0  0  0  0  0  0  0  0  0  0
    8.9570   47.0400   51.7150 C   0  0  0  0  0  0  0  0  0  0  0  0
    7.7620   46.3180   51.6310 C   0  0  0  0  0  0  0  0  0  0  0  0
    4.8130   45.2320   53.6470 N   0  0  0  0  0  0  0  0  0  0  0  0
    3.8490   44.4060   53.2080 C   0  0  0  0  0  0  0  0  0  0  0  0
    2.6330   44.1250   53.8270 C   0  0  0  0  0  0  0  0  0  0  0  0
   -0.3870   43.8780   54.3920 N   0  0  0  0  0  0  0  0  0  0  0  0
   -1.6710   43.8850   55.1200 C   0  0  0  0  0  0  0  0  0  0  0  0
   -1.6250   45.3260   55.5190 C   0  0  0  0  0  0  0  0  0  0  0  0
   -1.4970   45.4930   56.9790 N   0  0  0  0  0  0  0  0  0  0  0  0
   -1.6030   46.9050   57.3900 C   0  0  0  0  0  0  0  0  0  0  0  0
   -3.0020   47.1710   57.9870 C   0  0  0  0  0  0  0  0  0  0  0  0
   -2.9530   47.1900   59.5230 C   0  0  0  0  0  0  0  0  0  0  0  0
   -2.1020   48.1990   60.0540 O   0  0  0  0  0  0  0  0  0  0  0  0
   -0.9510   48.4740   59.2610 C   0  0  0  0  0  0  0  0  0  0  0  0
   -0.4890   47.2970   58.3870 C   0  0  0  0  0  0  0  0  0  0  0  0
   -0.3240   45.3040   54.7710 C   0  0  0  0  0  0  0  0  0  0  0  0
    1.4260   41.9614   51.4361 H   0  0  0  0  0  0  0  0  0  0  0  0
    3.6456   42.5126   50.3832 H   0  0  0  0  0  0  0  0  0  0  0  0
    6.0335   44.0716   50.7793 H   0  0  0  0  0  0  0  0  0  0  0  0
    7.0667   46.0396   54.9723 H   0  0  0  0  0  0  0  0  0  0  0  0
    9.1965   47.3302   55.1097 H   0  0  0  0  0  0  0  0  0  0  0  0
   10.4093   47.9719   53.0257 H   0  0  0  0  0  0  0  0  0  0  0  0
    9.4936   47.3223   50.7972 H   0  0  0  0  0  0  0  0  0  0  0  0
    7.3631   46.0349   50.6458 H   0  0  0  0  0  0  0  0  0  0  0  0
    4.8020   45.7740   54.5380 H   0  0  0  0  0  0  0  0  0  0  0  0
    2.3654   44.5950   54.7848 H   0  0  0  0  0  0  0  0  0  0  0  0
   -2.5277   43.6522   54.4705 H   0  0  0  0  0  0  0  0  0  0  0  0
   -1.7913   43.1472   55.9270 H   0  0  0  0  0  0  0  0  0  0  0  0
   -2.4153   46.0665   55.3266 H   0  0  0  0  0  0  0  0  0  0  0  0
   -0.6110   45.0700   57.3460 H   0  0  0  0  0  0  0  0  0  0  0  0
   -1.4688   47.5348   56.4982 H   0  0  0  0  0  0  0  0  0  0  0  0
   -3.3672   48.1442   57.6270 H   0  0  0  0  0  0  0  0  0  0  0  0
   -3.6773   46.3631   57.6687 H   0  0  0  0  0  0  0  0  0  0  0  0
   -3.9718   47.3601   59.9012 H   0  0  0  0  0  0  0  0  0  0  0  0
   -2.5434   46.2210   59.8443 H   0  0  0  0  0  0  0  0  0  0  0  0
   -1.1822   49.3232   58.6011 H   0  0  0  0  0  0  0  0  0  0  0  0
   -0.1299   48.6878   59.9611 H   0  0  0  0  0  0  0  0  0  0  0  0
    0.4120   47.5906   57.8285 H   0  0  0  0  0  0  0  0  0  0  0  0
   -0.2653   46.4354   59.0332 H   0  0  0  0  0  0  0  0  0  0  0  0
   -0.3235   45.9755   53.8998 H   0  0  0  0  0  0  0  0  0  0  0  0
    0.5721   45.6396   55.3135 H   0  0  0  0  0  0  0  0  0  0  0  0
  1  2  2  0
  2  3  1  0
  3  4  2  0
  4  5  1  0
  5  6  2  0
  6  7  1  0
  7  8  2  0
  8  9  1  0
  9 10  2  0
 10 11  1  0
 11 12  2  0
 12 13  1  0
 13 14  2  0
  8 15  1  0
 15 16  1  0
 16 17  2  0
  2 18  1  0
 18 19  1  0
 19 20  1  0
 20 21  1  0
 21 22  1  0
 22 23  1  0
 23 24  1  0
 24 25  1  0
 25 26  1  0
 26 27  1  0
 20 28  1  0
 17  3  1  0
 28 18  1  0
 16  6  1  0
 27 22  1  0
 14  9  1  0
  4 29  1  0
  5 30  1  0
  7 31  1  0
 10 32  1  0
 11 33  1  0
 12 34  1  0
 13 35  1  0
 14 36  1  0
 15 37  1  0
 17 38  1  0
 19 39  1  0
 19 40  1  0
 20 41  1  0
 21 42  1  0
 22 43  1  0
 23 44  1  0
 23 45  1  0
 24 46  1  0
 24 47  1  0
 26 48  1  0
 26 49  1  0
 27 50  1  0
 27 51  1  0
 28 52  1  0
 28 53  1  0
M  END
>  <meeko>  (3) 
{"is_sidechain": [false], "free_energy": -8.637, "intermolecular_energy": -10.866, "internal_energy": -0.301}

$$$$
ligand_46_conformer_3_docked
     RDKit          3D

 53 57  0  0  0  0  0  0  0  0999 V2000
    3.1120   42.4540   50.8320 O   0  0  0  0  0  0  0  0  0  0  0  0
    3.3930   43.2430   51.7740 C   0  0  0  0  0  0  0  0  0  0  0  0
    2.3640   43.5630   52.7860 C   0  0  0  0  0  0  0  0  0  0  0  0
    1.1630   42.8040   52.8310 C   0  0  0  0  0  0  0  0  0  0  0  0
    0.1670   43.0880   53.7830 C   0  0  0  0  0  0  0  0  0  0  0  0
    0.4010   44.1250   54.6790 C   0  0  0  0  0  0  0  0  0  0  0  0
   -0.3760   44.6140   55.7050 C   0  0  0  0  0  0  0  0  0  0  0  0
    0.3770   45.6440   56.2750 C   0  0  0  0  0  0  0  0  0  0  0  0
   -0.0420   46.4830   57.4260 C   0  0  0  0  0  0  0  0  0  0  0  0
   -1.3760   46.9200   57.5480 C   0  0  0  0  0  0  0  0  0  0  0  0
   -1.7670   47.7090   58.6340 C   0  0  0  0  0  0  0  0  0  0  0  0
   -0.8360   48.0700   59.6100 C   0  0  0  0  0  0  0  0  0  0  0  0
    0.4890   47.6420   59.5030 C   0  0  0  0  0  0  0  0  0  0  0  0
    0.8860   46.8520   58.4190 C   0  0  0  0  0  0  0  0  0  0  0  0
    1.5630   45.7800   55.6270 N   0  0  0  0  0  0  0  0  0  0  0  0
    1.5600   44.8500   54.6580 C   0  0  0  0  0  0  0  0  0  0  0  0
    2.5670   44.5970   53.7290 C   0  0  0  0  0  0  0  0  0  0  0  0
    4.6900   43.8450   51.8070 N   0  0  0  0  0  0  0  0  0  0  0  0
    5.8920   43.8110   50.9520 C   0  0  0  0  0  0  0  0  0  0  0  0
    6.6340   44.8940   51.6700 C   0  0  0  0  0  0  0  0  0  0  0  0
    6.8170   46.0910   50.8280 N   0  0  0  0  0  0  0  0  0  0  0  0
    8.1440   46.7070   51.0160 C   0  0  0  0  0  0  0  0  0  0  0  0
    8.0250   47.9270   51.9550 C   0  0  0  0  0  0  0  0  0  0  0  0
    8.4780   47.5740   53.3810 C   0  0  0  0  0  0  0  0  0  0  0  0
    9.8340   47.1490   53.4600 O   0  0  0  0  0  0  0  0  0  0  0  0
   10.2890   46.4210   52.3240 C   0  0  0  0  0  0  0  0  0  0  0  0
    9.1770   45.6900   51.5540 C   0  0  0  0  0  0  0  0  0  0  0  0
    5.4070   44.9130   52.5330 C   0  0  0  0  0  0  0  0  0  0  0  0
    1.0106   41.9848   52.1129 H   0  0  0  0  0  0  0  0  0  0  0  0
   -0.7671   42.5081   53.8174 H   0  0  0  0  0  0  0  0  0  0  0  0
   -1.3746   44.2683   56.0104 H   0  0  0  0  0  0  0  0  0  0  0  0
   -2.1150   46.6384   56.7834 H   0  0  0  0  0  0  0  0  0  0  0  0
   -2.8105   48.0462   58.7197 H   0  0  0  0  0  0  0  0  0  0  0  0
   -1.1462   48.6914   60.4630 H   0  0  0  0  0  0  0  0  0  0  0  0
    1.2218   47.9266   60.2725 H   0  0  0  0  0  0  0  0  0  0  0  0
    1.9307   46.5165   58.3416 H   0  0  0  0  0  0  0  0  0  0  0  0
    2.3200   46.4720   55.8140 H   0  0  0  0  0  0  0  0  0  0  0  0
    3.4958   45.1863   53.7291 H   0  0  0  0  0  0  0  0  0  0  0  0
    6.4127   42.8428   50.9910 H   0  0  0  0  0  0  0  0  0  0  0  0
    5.7394   43.9427   49.8706 H   0  0  0  0  0  0  0  0  0  0  0  0
    7.6523   44.8080   52.0770 H   0  0  0  0  0  0  0  0  0  0  0  0
    6.0600   46.7990   50.9830 H   0  0  0  0  0  0  0  0  0  0  0  0
    8.5094   47.0447   50.0350 H   0  0  0  0  0  0  0  0  0  0  0  0
    8.6563   48.7407   51.5686 H   0  0  0  0  0  0  0  0  0  0  0  0
    6.9708   48.2391   51.9905 H   0  0  0  0  0  0  0  0  0  0  0  0
    8.3553   48.4644   54.0151 H   0  0  0  0  0  0  0  0  0  0  0  0
    7.8561   46.7314   53.7174 H   0  0  0  0  0  0  0  0  0  0  0  0
   10.7780   47.1264   51.6360 H   0  0  0  0  0  0  0  0  0  0  0  0
   10.9735   45.6463   52.6998 H   0  0  0  0  0  0  0  0  0  0  0  0
    9.6198   45.1407   50.7101 H   0  0  0  0  0  0  0  0  0  0  0  0
    8.6706   44.9888   52.2336 H   0  0  0  0  0  0  0  0  0  0  0  0
    5.6192   44.6470   53.5790 H   0  0  0  0  0  0  0  0  0  0  0  0
    4.8891   45.8767   52.6472 H   0  0  0  0  0  0  0  0  0  0  0  0
  1  2  2  0
  2  3  1  0
  3  4  2  0
  4  5  1  0
  5  6  2  0
  6  7  1  0
  7  8  2  0
  8  9  1  0
  9 10  2  0
 10 11  1  0
 11 12  2  0
 12 13  1  0
 13 14  2  0
  8 15  1  0
 15 16  1  0
 16 17  2  0
  2 18  1  0
 18 19  1  0
 19 20  1  0
 20 21  1  0
 21 22  1  0
 22 23  1  0
 23 24  1  0
 24 25  1  0
 25 26  1  0
 26 27  1  0
 20 28  1  0
 17  3  1  0
 28 18  1  0
 16  6  1  0
 27 22  1  0
 14  9  1  0
  4 29  1  0
  5 30  1  0
  7 31  1  0
 10 32  1  0
 11 33  1  0
 12 34  1  0
 13 35  1  0
 14 36  1  0
 15 37  1  0
 17 38  1  0
 19 39  1  0
 19 40  1  0
 20 41  1  0
 21 42  1  0
 22 43  1  0
 23 44  1  0
 23 45  1  0
 24 46  1  0
 24 47  1  0
 26 48  1  0
 26 49  1  0
 27 50  1  0
 27 51  1  0
 28 52  1  0
 28 53  1  0
M  END
>  <meeko>  (4) 
{"is_sidechain": [false], "free_energy": -8.356, "intermolecular_energy": -10.436, "internal_energy": -0.382}

$$$$
ligand_46_conformer_3_docked
     RDKit          3D

 53 57  0  0  0  0  0  0  0  0999 V2000
   -0.2430   42.3640   54.3660 O   0  0  0  0  0  0  0  0  0  0  0  0
    0.2190   43.1920   53.5350 C   0  0  0  0  0  0  0  0  0  0  0  0
    1.4080   43.9950   53.8940 C   0  0  0  0  0  0  0  0  0  0  0  0
    1.4140   44.7370   55.1060 C   0  0  0  0  0  0  0  0  0  0  0  0
    2.5320   45.5100   55.4700 C   0  0  0  0  0  0  0  0  0  0  0  0
    3.6270   45.5140   54.6130 C   0  0  0  0  0  0  0  0  0  0  0  0
    4.8390   46.1600   54.7130 C   0  0  0  0  0  0  0  0  0  0  0  0
    5.5500   45.7790   53.5720 C   0  0  0  0  0  0  0  0  0  0  0  0
    6.9260   46.2210   53.2260 C   0  0  0  0  0  0  0  0  0  0  0  0
    7.4200   46.0710   51.9160 C   0  0  0  0  0  0  0  0  0  0  0  0
    8.7150   46.4890   51.5950 C   0  0  0  0  0  0  0  0  0  0  0  0
    9.5300   47.0600   52.5730 C   0  0  0  0  0  0  0  0  0  0  0  0
    9.0520   47.2170   53.8760 C   0  0  0  0  0  0  0  0  0  0  0  0
    7.7580   46.8010   54.2030 C   0  0  0  0  0  0  0  0  0  0  0  0
    4.8070   44.9380   52.8070 N   0  0  0  0  0  0  0  0  0  0  0  0
    3.6390   44.7900   53.4540 C   0  0  0  0  0  0  0  0  0  0  0  0
    2.5500   44.0140   53.0610 C   0  0  0  0  0  0  0  0  0  0  0  0
   -0.4540   43.3650   52.2860 N   0  0  0  0  0  0  0  0  0  0  0  0
   -1.6630   42.8050   51.6510 C   0  0  0  0  0  0  0  0  0  0  0  0
   -1.6680   43.7250   50.4710 C   0  0  0  0  0  0  0  0  0  0  0  0
   -2.8340   44.6290   50.4780 N   0  0  0  0  0  0  0  0  0  0  0  0
   -3.5850   44.5790   49.2100 C   0  0  0  0  0  0  0  0  0  0  0  0
   -3.8430   46.0130   48.6990 C   0  0  0  0  0  0  0  0  0  0  0  0
   -2.8540   46.3880   47.5840 C   0  0  0  0  0  0  0  0  0  0  0  0
   -2.9370   45.5440   46.4410 O   0  0  0  0  0  0  0  0  0  0  0  0
   -3.2620   44.1890   46.7340 C   0  0  0  0  0  0  0  0  0  0  0  0
   -2.8550   43.7310   48.1440 C   0  0  0  0  0  0  0  0  0  0  0  0
   -0.4370   44.2790   51.1260 C   0  0  0  0  0  0  0  0  0  0  0  0
    0.5351   44.7067   55.7668 H   0  0  0  0  0  0  0  0  0  0  0  0
    2.5395   46.0927   56.4030 H   0  0  0  0  0  0  0  0  0  0  0  0
    5.1749   46.8310   55.5173 H   0  0  0  0  0  0  0  0  0  0  0  0
    6.7828   45.6219   51.1399 H   0  0  0  0  0  0  0  0  0  0  0  0
    9.0922   46.3674   50.5689 H   0  0  0  0  0  0  0  0  0  0  0  0
   10.5490   47.3865   52.3179 H   0  0  0  0  0  0  0  0  0  0  0  0
    9.6947   47.6686   54.6460 H   0  0  0  0  0  0  0  0  0  0  0  0
    7.3871   46.9276   55.2308 H   0  0  0  0  0  0  0  0  0  0  0  0
    5.0650   44.5070   51.8930 H   0  0  0  0  0  0  0  0  0  0  0  0
    2.5784   43.4321   52.1279 H   0  0  0  0  0  0  0  0  0  0  0  0
   -1.5417   41.7497   51.3653 H   0  0  0  0  0  0  0  0  0  0  0  0
   -2.5775   42.7705   52.2614 H   0  0  0  0  0  0  0  0  0  0  0  0
   -1.6967   43.4105   49.4173 H   0  0  0  0  0  0  0  0  0  0  0  0
   -2.5630   45.6150   50.7050 H   0  0  0  0  0  0  0  0  0  0  0  0
   -4.5508   44.0882   49.4007 H   0  0  0  0  0  0  0  0  0  0  0  0
   -4.8685   46.0755   48.3059 H   0  0  0  0  0  0  0  0  0  0  0  0
   -3.7075   46.7127   49.5369 H   0  0  0  0  0  0  0  0  0  0  0  0
   -3.0607   47.4214   47.2689 H   0  0  0  0  0  0  0  0  0  0  0  0
   -1.8416   46.2714   47.9982 H   0  0  0  0  0  0  0  0  0  0  0  0
   -4.3504   44.0662   46.6328 H   0  0  0  0  0  0  0  0  0  0  0  0
   -2.6938   43.5686   46.0252 H   0  0  0  0  0  0  0  0  0  0  0  0
   -3.1242   42.6725   48.2744 H   0  0  0  0  0  0  0  0  0  0  0  0
   -1.7691   43.8589   48.2643 H   0  0  0  0  0  0  0  0  0  0  0  0
    0.4638   44.1615   50.5057 H   0  0  0  0  0  0  0  0  0  0  0  0
   -0.4241   45.3583   51.3380 H   0  0  0  0  0  0  0  0  0  0  0  0
  1  2  2  0
  2  3  1  0
  3  4  2  0
  4  5  1  0
  5  6  2  0
  6  7  1  0
  7  8  2  0
  8  9  1  0
  9 10  2  0
 10 11  1  0
 11 12  2  0
 12 13  1  0
 13 14  2  0
  8 15  1  0
 15 16  1  0
 16 17  2  0
  2 18  1  0
 18 19  1  0
 19 20  1  0
 20 21  1  0
 21 22  1  0
 22 23  1  0
 23 24  1  0
 24 25  1  0
 25 26  1  0
 26 27  1  0
 20 28  1  0
 17  3  1  0
 28 18  1  0
 16  6  1  0
 27 22  1  0
 14  9  1  0
  4 29  1  0
  5 30  1  0
  7 31  1  0
 10 32  1  0
 11 33  1  0
 12 34  1  0
 13 35  1  0
 14 36  1  0
 15 37  1  0
 17 38  1  0
 19 39  1  0
 19 40  1  0
 20 41  1  0
 21 42  1  0
 22 43  1  0
 23 44  1  0
 23 45  1  0
 24 46  1  0
 24 47  1  0
 26 48  1  0
 26 49  1  0
 27 50  1  0
 27 51  1  0
 28 52  1  0
 28 53  1  0
M  END
>  <meeko>  (5) 
{"is_sidechain": [false], "free_energy": -8.192, "intermolecular_energy": -9.942, "internal_energy": -0.674}

$$$$
