MODEL 1
REMARK VINA RESULT:   -11.403      0.000      0.000
REMARK INTER + INTRA:         -12.253
REMARK INTER:                 -12.736
REMARK INTRA:                   0.483
REMARK UNBOUND:                 0.483
REMARK SMILES CN1C(=O)c2cccc3c(S(=O)(=O)N4Cc5ccccc5-c5ccccc5C4)ccc1c23
REMARK SMILES IDX 1 1 2 2 3 3 4 4 5 5 6 6 7 7 8 8 9 9 10 10 29 11 30 12 31 13
REMARK SMILES IDX 32 14 11 15 12 16 13 17 14 18 15 19 28 20 16 21 27 22 17 23
REMARK SMILES IDX 21 24 26 25 22 26 18 27 20 28 25 29 23 30 19 31 24 32
REMARK H PARENT
ROOT
ATOM      1  C   UNL     1      -2.120  44.607  51.120  1.00  0.00     0.153 C 
ATOM      2  N   UNL     1      -1.419  44.373  52.376  1.00  0.00    -0.311 N 
ATOM      3  C   UNL     1      -2.033  44.266  53.671  1.00  0.00     0.258 C 
ATOM      4  O   UNL     1      -3.249  44.003  53.865  1.00  0.00    -0.269 OA
ATOM      5  C   UNL     1      -1.043  44.549  54.707  1.00  0.00     0.050 A 
ATOM      6  C   UNL     1      -1.082  44.584  56.099  1.00  0.00     0.014 A 
ATOM      7  C   UNL     1       0.103  44.944  56.780  1.00  0.00     0.002 A 
ATOM      8  C   UNL     1       1.285  45.264  56.063  1.00  0.00     0.010 A 
ATOM      9  C   UNL     1       1.293  45.212  54.647  1.00  0.00     0.005 A 
ATOM     10  C   UNL     1       2.397  45.487  53.798  1.00  0.00     0.090 A 
ATOM     11  C   UNL     1       2.221  45.421  52.387  1.00  0.00     0.024 A 
ATOM     12  C   UNL     1       0.975  45.070  51.820  1.00  0.00     0.028 A 
ATOM     13  C   UNL     1      -0.079  44.773  52.684  1.00  0.00     0.052 A 
ATOM     14  C   UNL     1       0.102  44.852  54.035  1.00  0.00     0.020 A 
ENDROOT
BRANCH  10  15
ATOM     15  S   UNL     1       4.005  45.816  54.459  1.00  0.00     0.244 S 
ATOM     16  O   UNL     1       4.253  44.895  55.621  1.00  0.00    -0.207 OA
ATOM     17  O   UNL     1       4.095  47.241  54.931  1.00  0.00    -0.207 OA
BRANCH  15  18
ATOM     18  N   UNL     1       5.192  45.542  53.209  1.00  0.00    -0.189 NA
ATOM     19  C   UNL     1       6.516  45.254  53.772  1.00  0.00     0.139 C 
ATOM     20  C   UNL     1       4.742  44.506  52.276  1.00  0.00     0.139 C 
ATOM     21  C   UNL     1       7.453  46.124  53.015  1.00  0.00    -0.025 A 
ATOM     22  C   UNL     1       5.728  44.158  51.164  1.00  0.00    -0.025 A 
ATOM     23  C   UNL     1       8.070  47.207  53.668  1.00  0.00     0.006 A 
ATOM     24  C   UNL     1       7.519  46.012  51.606  1.00  0.00    -0.014 A 
ATOM     25  C   UNL     1       5.336  43.067  50.363  1.00  0.00     0.006 A 
ATOM     26  C   UNL     1       6.968  44.824  50.865  1.00  0.00    -0.014 A 
ATOM     27  C   UNL     1       8.746  48.181  52.935  1.00  0.00     0.000 A 
ATOM     28  C   UNL     1       8.184  47.029  50.886  1.00  0.00     0.009 A 
ATOM     29  C   UNL     1       6.134  42.605  49.321  1.00  0.00     0.000 A 
ATOM     30  C   UNL     1       7.765  44.308  49.817  1.00  0.00     0.009 A 
ATOM     31  C   UNL     1       8.792  48.099  51.546  1.00  0.00     0.001 A 
ATOM     32  C   UNL     1       7.350  43.219  49.054  1.00  0.00     0.001 A 
ENDBRANCH  15  18
ENDBRANCH  10  15
TORSDOF 2
ENDMDL
MODEL 2
REMARK VINA RESULT:   -11.212      2.399      7.993
REMARK INTER + INTRA:         -12.040
REMARK INTER:                 -11.847
REMARK INTRA:                  -0.194
REMARK UNBOUND:                 0.483
REMARK SMILES CN1C(=O)c2cccc3c(S(=O)(=O)N4Cc5ccccc5-c5ccccc5C4)ccc1c23
REMARK SMILES IDX 1 1 2 2 3 3 4 4 5 5 6 6 7 7 8 8 9 9 10 10 29 11 30 12 31 13
REMARK SMILES IDX 32 14 11 15 12 16 13 17 14 18 15 19 28 20 16 21 27 22 17 23
REMARK SMILES IDX 21 24 26 25 22 26 18 27 20 28 25 29 23 30 19 31 24 32
REMARK H PARENT
ROOT
ATOM      1  C   UNL     1       9.592  44.549  49.567  1.00  0.00     0.153 C 
ATOM      2  N   UNL     1       9.289  45.541  50.590  1.00  0.00    -0.311 N 
ATOM      3  C   UNL     1      10.209  46.032  51.580  1.00  0.00     0.258 C 
ATOM      4  O   UNL     1      11.463  45.956  51.489  1.00  0.00    -0.269 OA
ATOM      5  C   UNL     1       9.465  46.584  52.709  1.00  0.00     0.050 A 
ATOM      6  C   UNL     1       9.834  47.182  53.912  1.00  0.00     0.014 A 
ATOM      7  C   UNL     1       8.802  47.569  54.796  1.00  0.00     0.002 A 
ATOM      8  C   UNL     1       7.440  47.346  54.466  1.00  0.00     0.010 A 
ATOM      9  C   UNL     1       7.098  46.742  53.232  1.00  0.00     0.005 A 
ATOM     10  C   UNL     1       5.787  46.471  52.758  1.00  0.00     0.090 A 
ATOM     11  C   UNL     1       5.623  45.822  51.501  1.00  0.00     0.024 A 
ATOM     12  C   UNL     1       6.739  45.461  50.712  1.00  0.00     0.028 A 
ATOM     13  C   UNL     1       8.010  45.772  51.193  1.00  0.00     0.052 A 
ATOM     14  C   UNL     1       8.152  46.384  52.405  1.00  0.00     0.020 A 
ENDROOT
BRANCH  10  15
ATOM     15  S   UNL     1       4.359  47.008  53.652  1.00  0.00     0.244 S 
ATOM     16  O   UNL     1       3.839  48.273  53.028  1.00  0.00    -0.207 OA
ATOM     17  O   UNL     1       4.710  47.275  55.090  1.00  0.00    -0.207 OA
BRANCH  15  18
ATOM     18  N   UNL     1       3.145  45.756  53.574  1.00  0.00    -0.189 NA
ATOM     19  C   UNL     1       3.687  44.450  53.968  1.00  0.00     0.139 C 
ATOM     20  C   UNL     1       1.958  46.127  54.350  1.00  0.00     0.139 C 
ATOM     21  C   UNL     1       3.223  43.509  52.915  1.00  0.00    -0.025 A 
ATOM     22  C   UNL     1       0.848  45.080  54.383  1.00  0.00    -0.025 A 
ATOM     23  C   UNL     1       4.160  42.959  52.021  1.00  0.00     0.006 A 
ATOM     24  C   UNL     1       1.837  43.375  52.665  1.00  0.00    -0.014 A 
ATOM     25  C   UNL     1      -0.222  45.399  55.244  1.00  0.00     0.006 A 
ATOM     26  C   UNL     1       0.793  43.851  53.638  1.00  0.00    -0.014 A 
ATOM     27  C   UNL     1       3.733  42.284  50.879  1.00  0.00     0.000 A 
ATOM     28  C   UNL     1       1.433  42.712  51.485  1.00  0.00     0.009 A 
ATOM     29  C   UNL     1      -1.303  44.539  55.410  1.00  0.00     0.000 A 
ATOM     30  C   UNL     1      -0.309  42.991  53.855  1.00  0.00     0.009 A 
ATOM     31  C   UNL     1       2.373  42.171  50.605  1.00  0.00     0.001 A 
ATOM     32  C   UNL     1      -1.341  43.333  54.723  1.00  0.00     0.001 A 
ENDBRANCH  15  18
ENDBRANCH  10  15
TORSDOF 2
ENDMDL
MODEL 3
REMARK VINA RESULT:   -10.555      1.386      2.746
REMARK INTER + INTRA:         -11.306
REMARK INTER:                 -11.848
REMARK INTRA:                   0.542
REMARK UNBOUND:                 0.483
REMARK SMILES CN1C(=O)c2cccc3c(S(=O)(=O)N4Cc5ccccc5-c5ccccc5C4)ccc1c23
REMARK SMILES IDX 1 1 2 2 3 3 4 4 5 5 6 6 7 7 8 8 9 9 10 10 29 11 30 12 31 13
REMARK SMILES IDX 32 14 11 15 12 16 13 17 14 18 15 19 28 20 16 21 27 22 17 23
REMARK SMILES IDX 21 24 26 25 22 26 18 27 20 28 25 29 23 30 19 31 24 32
REMARK H PARENT
ROOT
ATOM      1  C   UNL     1      -2.150  43.294  56.814  1.00  0.00     0.153 C 
ATOM      2  N   UNL     1      -1.796  44.021  55.602  1.00  0.00    -0.311 N 
ATOM      3  C   UNL     1      -2.363  43.805  54.299  1.00  0.00     0.258 C 
ATOM      4  O   UNL     1      -3.465  43.233  54.086  1.00  0.00    -0.269 OA
ATOM      5  C   UNL     1      -1.449  44.309  53.277  1.00  0.00     0.050 A 
ATOM      6  C   UNL     1      -1.489  44.364  51.886  1.00  0.00     0.014 A 
ATOM      7  C   UNL     1      -0.368  44.908  51.219  1.00  0.00     0.002 A 
ATOM      8  C   UNL     1       0.757  45.374  51.948  1.00  0.00     0.010 A 
ATOM      9  C   UNL     1       0.762  45.311  53.363  1.00  0.00     0.005 A 
ATOM     10  C   UNL     1       1.801  45.750  54.225  1.00  0.00     0.090 A 
ATOM     11  C   UNL     1       1.657  45.578  55.631  1.00  0.00     0.024 A 
ATOM     12  C   UNL     1       0.493  44.997  56.182  1.00  0.00     0.028 A 
ATOM     13  C   UNL     1      -0.522  44.607  55.308  1.00  0.00     0.052 A 
ATOM     14  C   UNL     1      -0.365  44.767  53.962  1.00  0.00     0.020 A 
ENDROOT
BRANCH  10  15
ATOM     15  S   UNL     1       3.224  46.590  53.594  1.00  0.00     0.244 S 
ATOM     16  O   UNL     1       4.048  47.090  54.748  1.00  0.00    -0.207 OA
ATOM     17  O   UNL     1       2.808  47.759  52.742  1.00  0.00    -0.207 OA
BRANCH  15  18
ATOM     18  N   UNL     1       4.154  45.472  52.630  1.00  0.00    -0.189 NA
ATOM     19  C   UNL     1       5.326  44.971  53.358  1.00  0.00     0.139 C 
ATOM     20  C   UNL     1       3.308  44.390  52.118  1.00  0.00     0.139 C 
ATOM     21  C   UNL     1       6.457  45.106  52.404  1.00  0.00    -0.025 A 
ATOM     22  C   UNL     1       4.033  43.330  51.293  1.00  0.00    -0.025 A 
ATOM     23  C   UNL     1       7.458  46.063  52.652  1.00  0.00     0.006 A 
ATOM     24  C   UNL     1       6.387  44.460  51.148  1.00  0.00    -0.014 A 
ATOM     25  C   UNL     1       3.230  42.231  50.929  1.00  0.00     0.006 A 
ATOM     26  C   UNL     1       5.405  43.355  50.863  1.00  0.00    -0.014 A 
ATOM     27  C   UNL     1       8.384  46.389  51.663  1.00  0.00     0.000 A 
ATOM     28  C   UNL     1       7.319  44.830  50.153  1.00  0.00     0.009 A 
ATOM     29  C   UNL     1       3.744  41.165  50.197  1.00  0.00     0.000 A 
ATOM     30  C   UNL     1       5.899  42.241  50.145  1.00  0.00     0.009 A 
ATOM     31  C   UNL     1       8.308  45.783  50.412  1.00  0.00     0.001 A 
ATOM     32  C   UNL     1       5.078  41.166  49.814  1.00  0.00     0.001 A 
ENDBRANCH  15  18
ENDBRANCH  10  15
TORSDOF 2
ENDMDL
MODEL 4
REMARK VINA RESULT:   -10.305      2.252      4.183
REMARK INTER + INTRA:         -11.027
REMARK INTER:                 -12.069
REMARK INTRA:                   1.042
REMARK UNBOUND:                 0.483
REMARK SMILES CN1C(=O)c2cccc3c(S(=O)(=O)N4Cc5ccccc5-c5ccccc5C4)ccc1c23
REMARK SMILES IDX 1 1 2 2 3 3 4 4 5 5 6 6 7 7 8 8 9 9 10 10 29 11 30 12 31 13
REMARK SMILES IDX 32 14 11 15 12 16 13 17 14 18 15 19 28 20 16 21 27 22 17 23
REMARK SMILES IDX 21 24 26 25 22 26 18 27 20 28 25 29 23 30 19 31 24 32
REMARK H PARENT
ROOT
ATOM      1  C   UNL     1       1.285  46.677  58.303  1.00  0.00     0.153 C 
ATOM      2  N   UNL     1       0.883  46.124  57.017  1.00  0.00    -0.311 N 
ATOM      3  C   UNL     1      -0.318  45.375  56.766  1.00  0.00     0.258 C 
ATOM      4  O   UNL     1      -1.340  45.396  57.502  1.00  0.00    -0.269 OA
ATOM      5  C   UNL     1      -0.148  44.566  55.561  1.00  0.00     0.050 A 
ATOM      6  C   UNL     1      -0.966  43.677  54.869  1.00  0.00     0.014 A 
ATOM      7  C   UNL     1      -0.425  43.038  53.731  1.00  0.00     0.002 A 
ATOM      8  C   UNL     1       0.908  43.293  53.318  1.00  0.00     0.010 A 
ATOM      9  C   UNL     1       1.712  44.209  54.040  1.00  0.00     0.005 A 
ATOM     10  C   UNL     1       3.050  44.577  53.741  1.00  0.00     0.090 A 
ATOM     11  C   UNL     1       3.728  45.490  54.597  1.00  0.00     0.024 A 
ATOM     12  C   UNL     1       3.086  46.049  55.725  1.00  0.00     0.028 A 
ATOM     13  C   UNL     1       1.761  45.691  55.971  1.00  0.00     0.052 A 
ATOM     14  C   UNL     1       1.128  44.805  55.147  1.00  0.00     0.020 A 
ENDROOT
BRANCH  10  15
ATOM     15  S   UNL     1       3.857  43.997  52.277  1.00  0.00     0.244 S 
ATOM     16  O   UNL     1       3.026  44.370  51.081  1.00  0.00    -0.207 OA
ATOM     17  O   UNL     1       4.013  42.501  52.322  1.00  0.00    -0.207 OA
BRANCH  15  18
ATOM     18  N   UNL     1       5.432  44.742  52.171  1.00  0.00    -0.189 NA
ATOM     19  C   UNL     1       5.549  45.597  50.985  1.00  0.00     0.139 C 
ATOM     20  C   UNL     1       5.760  45.454  53.409  1.00  0.00     0.139 C 
ATOM     21  C   UNL     1       6.844  45.216  50.364  1.00  0.00    -0.025 A 
ATOM     22  C   UNL     1       7.103  46.178  53.408  1.00  0.00    -0.025 A 
ATOM     23  C   UNL     1       6.845  44.531  49.134  1.00  0.00     0.006 A 
ATOM     24  C   UNL     1       8.034  45.316  51.122  1.00  0.00    -0.014 A 
ATOM     25  C   UNL     1       7.336  46.967  54.553  1.00  0.00     0.006 A 
ATOM     26  C   UNL     1       8.116  46.124  52.389  1.00  0.00    -0.014 A 
ATOM     27  C   UNL     1       8.013  43.941  48.655  1.00  0.00     0.000 A 
ATOM     28  C   UNL     1       9.196  44.684  50.627  1.00  0.00     0.009 A 
ATOM     29  C   UNL     1       8.502  47.713  54.697  1.00  0.00     0.000 A 
ATOM     30  C   UNL     1       9.275  46.917  52.559  1.00  0.00     0.009 A 
ATOM     31  C   UNL     1       9.183  44.007  49.405  1.00  0.00     0.001 A 
ATOM     32  C   UNL     1       9.465  47.694  53.698  1.00  0.00     0.001 A 
ENDBRANCH  15  18
ENDBRANCH  10  15
TORSDOF 2
ENDMDL
MODEL 5
REMARK VINA RESULT:   -10.259      1.324      3.318
REMARK INTER + INTRA:         -10.976
REMARK INTER:                 -11.612
REMARK INTRA:                   0.636
REMARK UNBOUND:                 0.483
REMARK SMILES CN1C(=O)c2cccc3c(S(=O)(=O)N4Cc5ccccc5-c5ccccc5C4)ccc1c23
REMARK SMILES IDX 1 1 2 2 3 3 4 4 5 5 6 6 7 7 8 8 9 9 10 10 29 11 30 12 31 13
REMARK SMILES IDX 32 14 11 15 12 16 13 17 14 18 15 19 28 20 16 21 27 22 17 23
REMARK SMILES IDX 21 24 26 25 22 26 18 27 20 28 25 29 23 30 19 31 24 32
REMARK H PARENT
ROOT
ATOM      1  C   UNL     1      -3.099  44.151  52.612  1.00  0.00     0.153 C 
ATOM      2  N   UNL     1      -1.994  44.112  53.561  1.00  0.00    -0.311 N 
ATOM      3  C   UNL     1      -2.119  44.006  54.989  1.00  0.00     0.258 C 
ATOM      4  O   UNL     1      -3.143  43.579  55.586  1.00  0.00    -0.269 OA
ATOM      5  C   UNL     1      -0.903  44.505  55.626  1.00  0.00     0.050 A 
ATOM      6  C   UNL     1      -0.485  44.632  56.948  1.00  0.00     0.014 A 
ATOM      7  C   UNL     1       0.782  45.212  57.183  1.00  0.00     0.002 A 
ATOM      8  C   UNL     1       1.591  45.652  56.104  1.00  0.00     0.010 A 
ATOM      9  C   UNL     1       1.140  45.503  54.770  1.00  0.00     0.005 A 
ATOM     10  C   UNL     1       1.840  45.879  53.593  1.00  0.00     0.090 A 
ATOM     11  C   UNL     1       1.221  45.688  52.326  1.00  0.00     0.024 A 
ATOM     12  C   UNL     1      -0.067  45.116  52.218  1.00  0.00     0.028 A 
ATOM     13  C   UNL     1      -0.712  44.728  53.392  1.00  0.00     0.052 A 
ATOM     14  C   UNL     1      -0.111  44.928  54.601  1.00  0.00     0.020 A 
ENDROOT
BRANCH  10  15
ATOM     15  S   UNL     1       3.499  46.488  53.667  1.00  0.00     0.244 S 
ATOM     16  O   UNL     1       4.025  46.306  55.063  1.00  0.00    -0.207 OA
ATOM     17  O   UNL     1       3.536  47.951  53.313  1.00  0.00    -0.207 OA
BRANCH  15  18
ATOM     18  N   UNL     1       4.477  45.593  52.533  1.00  0.00    -0.189 NA
ATOM     19  C   UNL     1       3.821  45.473  51.226  1.00  0.00     0.139 C 
ATOM     20  C   UNL     1       5.823  46.166  52.434  1.00  0.00     0.139 C 
ATOM     21  C   UNL     1       3.948  44.038  50.863  1.00  0.00    -0.025 A 
ATOM     22  C   UNL     1       6.750  45.480  51.434  1.00  0.00    -0.025 A 
ATOM     23  C   UNL     1       2.798  43.226  50.846  1.00  0.00     0.006 A 
ATOM     24  C   UNL     1       5.233  43.452  50.787  1.00  0.00    -0.014 A 
ATOM     25  C   UNL     1       7.989  46.130  51.255  1.00  0.00     0.006 A 
ATOM     26  C   UNL     1       6.490  44.274  50.695  1.00  0.00    -0.014 A 
ATOM     27  C   UNL     1       2.914  41.840  50.761  1.00  0.00     0.000 A 
ATOM     28  C   UNL     1       5.322  42.043  50.731  1.00  0.00     0.009 A 
ATOM     29  C   UNL     1       8.940  45.648  50.360  1.00  0.00     0.000 A 
ATOM     30  C   UNL     1       7.469  43.832  49.775  1.00  0.00     0.009 A 
ATOM     31  C   UNL     1       4.173  41.249  50.716  1.00  0.00     0.001 A 
ATOM     32  C   UNL     1       8.676  44.507  49.616  1.00  0.00     0.001 A 
ENDBRANCH  15  18
ENDBRANCH  10  15
TORSDOF 2
ENDMDL
