MODEL 1
REMARK VINA RESULT:    -8.581      0.000      0.000
REMARK INTER + INTRA:         -11.119
REMARK INTER:                 -10.587
REMARK INTRA:                  -0.532
REMARK UNBOUND:                -0.532
REMARK SMILES CN1CC[C@@H]2[C@H]1CCCN2C(=O)[C@H]1CCN(c2ccc(-c3nn[nH]n3)cc2F)C1
REMARK SMILES IDX 13 1 14 2 15 3 16 4 29 5 11 6 12 7 10 8 2 9 3 10 6 11 4 12
REMARK SMILES IDX 5 13 7 14 8 15 9 16 1 17 17 18 18 19 27 20 19 21 26 22 20 23
REMARK SMILES IDX 28 24 21 25 22 26 25 27 23 28 24 29
REMARK H PARENT 24 30
ROOT
ATOM      1  C   UNL     1       5.064  46.174  51.969  1.00  0.00     0.100 C 
ATOM      2  C   UNL     1       4.025  46.443  50.877  1.00  0.00     0.037 C 
ATOM      3  C   UNL     1       2.685  46.407  51.598  1.00  0.00     0.117 C 
ATOM      4  N   UNL     1       2.909  45.639  52.818  1.00  0.00    -0.368 N 
ATOM      5  C   UNL     1       4.322  45.350  53.020  1.00  0.00     0.130 C 
ENDROOT
BRANCH   1   6
ATOM      6  C   UNL     1       6.309  45.479  51.466  1.00  0.00     0.227 C 
ATOM      7  O   UNL     1       6.189  44.491  50.688  1.00  0.00    -0.274 OA
BRANCH   6   8
ATOM      8  N   UNL     1       7.628  45.889  51.887  1.00  0.00    -0.338 N 
ATOM      9  N   UNL     1       9.343  47.052  54.945  1.00  0.00    -0.301 NA
ATOM     10  C   UNL     1       8.459  48.196  54.684  1.00  0.00     0.086 C 
ATOM     11  C   UNL     1       9.319  46.234  53.724  1.00  0.00     0.079 C 
ATOM     12  C   UNL     1       7.498  47.770  53.566  1.00  0.00     0.042 C 
ATOM     13  C   UNL     1       7.854  46.312  53.285  1.00  0.00     0.103 C 
ATOM     14  C   UNL     1      10.300  46.757  52.628  1.00  0.00     0.023 C 
ATOM     15  C   UNL     1       9.920  46.393  51.183  1.00  0.00     0.023 C 
ATOM     16  C   UNL     1       8.768  45.402  51.103  1.00  0.00     0.120 C 
ATOM     17  C   UNL     1      10.676  47.432  55.439  1.00  0.00     0.105 C 
ENDBRANCH   6   8
ENDBRANCH   1   6
BRANCH   4  18
ATOM     18  C   UNL     1       1.849  45.263  53.734  1.00  0.00     0.073 A 
ATOM     19  C   UNL     1       0.675  44.656  53.245  1.00  0.00     0.030 A 
ATOM     20  C   UNL     1       1.956  45.485  55.127  1.00  0.00     0.147 A 
ATOM     21  C   UNL     1      -0.361  44.290  54.109  1.00  0.00     0.014 A 
ATOM     22  C   UNL     1       0.916  45.116  55.987  1.00  0.00     0.053 A 
ATOM     23  C   UNL     1      -0.250  44.518  55.487  1.00  0.00     0.026 A 
ATOM     24  F   UNL     1       3.065  46.037  55.677  1.00  0.00    -0.205 F 
BRANCH  23  25
ATOM     25  C   UNL     1      -1.345  44.129  56.401  1.00  0.00     0.204 A 
ATOM     26  N   UNL     1      -1.560  44.681  57.613  1.00  0.00    -0.108 NA
ATOM     27  N   UNL     1      -2.260  43.176  56.134  1.00  0.00    -0.134 NA
ATOM     28  N   UNL     1      -2.623  44.054  58.090  1.00  0.00    -0.050 NA
ATOM     29  N   UNL     1      -3.032  43.163  57.206  1.00  0.00    -0.177 N 
ATOM     30  H   UNL     1      -3.854  42.533  57.336  1.00  0.00     0.216 HD
ENDBRANCH  23  25
ENDBRANCH   4  18
TORSDOF 4
ENDMDL
MODEL 2
REMARK VINA RESULT:    -8.530      1.812      2.985
REMARK INTER + INTRA:         -11.057
REMARK INTER:                 -10.226
REMARK INTRA:                  -0.831
REMARK UNBOUND:                -0.532
REMARK SMILES CN1CC[C@@H]2[C@H]1CCCN2C(=O)[C@H]1CCN(c2ccc(-c3nn[nH]n3)cc2F)C1
REMARK SMILES IDX 13 1 14 2 15 3 16 4 29 5 11 6 12 7 10 8 2 9 3 10 6 11 4 12
REMARK SMILES IDX 5 13 7 14 8 15 9 16 1 17 17 18 18 19 27 20 19 21 26 22 20 23
REMARK SMILES IDX 28 24 21 25 22 26 25 27 23 28 24 29
REMARK H PARENT 24 30
ROOT
ATOM      1  C   UNL     1       2.593  45.035  51.550  1.00  0.00     0.100 C 
ATOM      2  C   UNL     1       3.122  43.685  52.042  1.00  0.00     0.037 C 
ATOM      3  C   UNL     1       2.105  43.221  53.073  1.00  0.00     0.117 C 
ATOM      4  N   UNL     1       1.411  44.424  53.520  1.00  0.00    -0.368 N 
ATOM      5  C   UNL     1       1.776  45.584  52.718  1.00  0.00     0.130 C 
ENDROOT
BRANCH   1   6
ATOM      6  C   UNL     1       3.678  45.989  51.106  1.00  0.00     0.227 C 
ATOM      7  O   UNL     1       3.477  46.722  50.098  1.00  0.00    -0.274 OA
BRANCH   6   8
ATOM      8  N   UNL     1       4.955  46.051  51.779  1.00  0.00    -0.338 N 
ATOM      9  N   UNL     1       8.544  46.264  50.932  1.00  0.00    -0.301 NA
ATOM     10  C   UNL     1       8.234  44.915  50.441  1.00  0.00     0.086 C 
ATOM     11  C   UNL     1       7.399  46.667  51.760  1.00  0.00     0.079 C 
ATOM     12  C   UNL     1       6.709  44.756  50.507  1.00  0.00     0.042 C 
ATOM     13  C   UNL     1       6.199  46.113  50.985  1.00  0.00     0.103 C 
ATOM     14  C   UNL     1       7.480  46.107  53.215  1.00  0.00     0.023 C 
ATOM     15  C   UNL     1       6.127  45.939  53.927  1.00  0.00     0.023 C 
ATOM     16  C   UNL     1       4.969  46.555  53.156  1.00  0.00     0.120 C 
ATOM     17  C   UNL     1       9.868  46.377  51.564  1.00  0.00     0.105 C 
ENDBRANCH   6   8
ENDBRANCH   1   6
BRANCH   4  18
ATOM     18  C   UNL     1       0.441  44.436  54.598  1.00  0.00     0.073 A 
ATOM     19  C   UNL     1      -0.819  43.830  54.421  1.00  0.00     0.030 A 
ATOM     20  C   UNL     1       0.721  45.043  55.845  1.00  0.00     0.147 A 
ATOM     21  C   UNL     1      -1.771  43.834  55.444  1.00  0.00     0.014 A 
ATOM     22  C   UNL     1      -0.236  45.043  56.865  1.00  0.00     0.053 A 
ATOM     23  C   UNL     1      -1.489  44.442  56.675  1.00  0.00     0.026 A 
ATOM     24  F   UNL     1       1.920  45.620  56.102  1.00  0.00    -0.205 F 
BRANCH  23  25
ATOM     25  C   UNL     1      -2.495  44.445  57.757  1.00  0.00     0.204 A 
ATOM     26  N   UNL     1      -2.982  45.558  58.344  1.00  0.00    -0.108 NA
ATOM     27  N   UNL     1      -3.047  43.337  58.290  1.00  0.00    -0.134 NA
ATOM     28  N   UNL     1      -3.844  45.119  59.247  1.00  0.00    -0.050 NA
ATOM     29  N   UNL     1      -3.876  43.799  59.207  1.00  0.00    -0.177 N 
ATOM     30  H   UNL     1      -4.475  43.203  59.819  1.00  0.00     0.216 HD
ENDBRANCH  23  25
ENDBRANCH   4  18
TORSDOF 4
ENDMDL
MODEL 3
REMARK VINA RESULT:    -8.425      2.518      9.448
REMARK INTER + INTRA:         -10.927
REMARK INTER:                 -10.175
REMARK INTRA:                  -0.752
REMARK UNBOUND:                -0.532
REMARK SMILES CN1CC[C@@H]2[C@H]1CCCN2C(=O)[C@H]1CCN(c2ccc(-c3nn[nH]n3)cc2F)C1
REMARK SMILES IDX 13 1 14 2 15 3 16 4 29 5 11 6 12 7 10 8 2 9 3 10 6 11 4 12
REMARK SMILES IDX 5 13 7 14 8 15 9 16 1 17 17 18 18 19 27 20 19 21 26 22 20 23
REMARK SMILES IDX 28 24 21 25 22 26 25 27 23 28 24 29
REMARK H PARENT 24 30
ROOT
ATOM      1  C   UNL     1       0.615  43.679  54.125  1.00  0.00     0.100 C 
ATOM      2  C   UNL     1       0.957  42.879  52.865  1.00  0.00     0.037 C 
ATOM      3  C   UNL     1       2.465  43.021  52.712  1.00  0.00     0.117 C 
ATOM      4  N   UNL     1       2.831  44.222  53.454  1.00  0.00    -0.368 N 
ATOM      5  C   UNL     1       1.707  44.743  54.221  1.00  0.00     0.130 C 
ENDROOT
BRANCH   1   6
ATOM      6  C   UNL     1      -0.773  44.277  54.107  1.00  0.00     0.227 C 
ATOM      7  O   UNL     1      -1.281  44.618  53.002  1.00  0.00    -0.274 OA
BRANCH   6   8
ATOM      8  N   UNL     1      -1.514  44.510  55.325  1.00  0.00    -0.338 N 
ATOM      9  N   UNL     1      -2.185  47.262  57.697  1.00  0.00    -0.301 NA
ATOM     10  C   UNL     1      -0.754  47.038  57.946  1.00  0.00     0.086 C 
ATOM     11  C   UNL     1      -2.646  46.106  56.914  1.00  0.00     0.079 C 
ATOM     12  C   UNL     1      -0.260  46.072  56.861  1.00  0.00     0.042 C 
ATOM     13  C   UNL     1      -1.473  45.842  55.964  1.00  0.00     0.103 C 
ATOM     14  C   UNL     1      -2.983  44.870  57.806  1.00  0.00     0.023 C 
ATOM     15  C   UNL     1      -2.866  43.506  57.104  1.00  0.00     0.023 C 
ATOM     16  C   UNL     1      -2.652  43.627  55.602  1.00  0.00     0.120 C 
ATOM     17  C   UNL     1      -2.958  47.568  58.910  1.00  0.00     0.105 C 
ENDBRANCH   6   8
ENDBRANCH   1   6
BRANCH   4  18
ATOM     18  C   UNL     1       4.168  44.784  53.461  1.00  0.00     0.073 A 
ATOM     19  C   UNL     1       4.878  44.903  54.672  1.00  0.00     0.030 A 
ATOM     20  C   UNL     1       4.796  45.222  52.271  1.00  0.00     0.147 A 
ATOM     21  C   UNL     1       6.165  45.446  54.702  1.00  0.00     0.014 A 
ATOM     22  C   UNL     1       6.085  45.765  52.308  1.00  0.00     0.053 A 
ATOM     23  C   UNL     1       6.780  45.883  53.521  1.00  0.00     0.026 A 
ATOM     24  F   UNL     1       4.189  45.115  51.064  1.00  0.00    -0.205 F 
BRANCH  23  25
ATOM     25  C   UNL     1       8.142  46.457  53.552  1.00  0.00     0.204 A 
ATOM     26  N   UNL     1       8.661  47.137  54.596  1.00  0.00    -0.108 NA
ATOM     27  N   UNL     1       9.030  46.369  52.542  1.00  0.00    -0.134 NA
ATOM     28  N   UNL     1       9.883  47.468  54.213  1.00  0.00    -0.050 NA
ATOM     29  N   UNL     1      10.094  47.008  52.993  1.00  0.00    -0.177 N 
ATOM     30  H   UNL     1      10.981  47.133  52.458  1.00  0.00     0.216 HD
ENDBRANCH  23  25
ENDBRANCH   4  18
TORSDOF 4
ENDMDL
MODEL 4
REMARK VINA RESULT:    -8.255      2.472      9.299
REMARK INTER + INTRA:         -10.718
REMARK INTER:                 -10.180
REMARK INTRA:                  -0.538
REMARK UNBOUND:                -0.532
REMARK SMILES CN1CC[C@@H]2[C@H]1CCCN2C(=O)[C@H]1CCN(c2ccc(-c3nn[nH]n3)cc2F)C1
REMARK SMILES IDX 13 1 14 2 15 3 16 4 29 5 11 6 12 7 10 8 2 9 3 10 6 11 4 12
REMARK SMILES IDX 5 13 7 14 8 15 9 16 1 17 17 18 18 19 27 20 19 21 26 22 20 23
REMARK SMILES IDX 28 24 21 25 22 26 25 27 23 28 24 29
REMARK H PARENT 24 30
ROOT
ATOM      1  C   UNL     1       0.803  43.215  52.277  1.00  0.00     0.100 C 
ATOM      2  C   UNL     1       0.460  44.550  51.611  1.00  0.00     0.037 C 
ATOM      3  C   UNL     1       1.779  45.305  51.550  1.00  0.00     0.117 C 
ATOM      4  N   UNL     1       2.629  44.709  52.575  1.00  0.00    -0.368 N 
ATOM      5  C   UNL     1       2.022  43.515  53.148  1.00  0.00     0.130 C 
ENDROOT
BRANCH   1   6
ATOM      6  C   UNL     1      -0.338  42.618  53.068  1.00  0.00     0.227 C 
ATOM      7  O   UNL     1      -0.267  41.410  53.432  1.00  0.00    -0.274 OA
BRANCH   6   8
ATOM      8  N   UNL     1      -1.525  43.380  53.379  1.00  0.00    -0.338 N 
ATOM      9  N   UNL     1      -2.615  46.003  55.741  1.00  0.00    -0.301 NA
ATOM     10  C   UNL     1      -2.412  44.880  56.665  1.00  0.00     0.086 C 
ATOM     11  C   UNL     1      -2.598  45.424  54.390  1.00  0.00     0.079 C 
ATOM     12  C   UNL     1      -1.727  43.763  55.866  1.00  0.00     0.042 C 
ATOM     13  C   UNL     1      -1.497  44.364  54.481  1.00  0.00     0.103 C 
ATOM     14  C   UNL     1      -3.977  44.819  53.976  1.00  0.00     0.023 C 
ATOM     15  C   UNL     1      -3.910  43.700  52.923  1.00  0.00     0.023 C 
ATOM     16  C   UNL     1      -2.524  43.536  52.317  1.00  0.00     0.120 C 
ATOM     17  C   UNL     1      -3.780  46.840  56.069  1.00  0.00     0.105 C 
ENDBRANCH   6   8
ENDBRANCH   1   6
BRANCH   4  18
ATOM     18  C   UNL     1       3.938  45.223  52.931  1.00  0.00     0.073 A 
ATOM     19  C   UNL     1       4.913  45.421  51.934  1.00  0.00     0.030 A 
ATOM     20  C   UNL     1       4.273  45.542  54.267  1.00  0.00     0.147 A 
ATOM     21  C   UNL     1       6.182  45.911  52.254  1.00  0.00     0.014 A 
ATOM     22  C   UNL     1       5.545  46.032  54.581  1.00  0.00     0.053 A 
ATOM     23  C   UNL     1       6.510  46.220  53.581  1.00  0.00     0.026 A 
ATOM     24  F   UNL     1       3.381  45.406  55.278  1.00  0.00    -0.205 F 
BRANCH  23  25
ATOM     25  C   UNL     1       7.852  46.739  53.920  1.00  0.00     0.204 A 
ATOM     26  N   UNL     1       8.113  47.562  54.957  1.00  0.00    -0.108 NA
ATOM     27  N   UNL     1       8.976  46.454  53.233  1.00  0.00    -0.134 NA
ATOM     28  N   UNL     1       9.417  47.779  54.900  1.00  0.00    -0.050 NA
ATOM     29  N   UNL     1       9.921  47.118  53.874  1.00  0.00    -0.177 N 
ATOM     30  H   UNL     1      10.930  47.120  53.606  1.00  0.00     0.216 HD
ENDBRANCH  23  25
ENDBRANCH   4  18
TORSDOF 4
ENDMDL
MODEL 5
REMARK VINA RESULT:    -8.016      3.357      9.688
REMARK INTER + INTRA:         -10.423
REMARK INTER:                  -9.630
REMARK INTRA:                  -0.793
REMARK UNBOUND:                -0.532
REMARK SMILES CN1CC[C@@H]2[C@H]1CCCN2C(=O)[C@H]1CCN(c2ccc(-c3nn[nH]n3)cc2F)C1
REMARK SMILES IDX 13 1 14 2 15 3 16 4 29 5 11 6 12 7 10 8 2 9 3 10 6 11 4 12
REMARK SMILES IDX 5 13 7 14 8 15 9 16 1 17 17 18 18 19 27 20 19 21 26 22 20 23
REMARK SMILES IDX 28 24 21 25 22 26 25 27 23 28 24 29
REMARK H PARENT 24 30
ROOT
ATOM      1  C   UNL     1       0.013  44.989  54.501  1.00  0.00     0.100 C 
ATOM      2  C   UNL     1       0.459  44.815  55.955  1.00  0.00     0.037 C 
ATOM      3  C   UNL     1       1.896  45.316  55.983  1.00  0.00     0.117 C 
ATOM      4  N   UNL     1       2.375  45.232  54.609  1.00  0.00    -0.368 N 
ATOM      5  C   UNL     1       1.300  44.899  53.684  1.00  0.00     0.130 C 
ENDROOT
BRANCH   1   6
ATOM      6  C   UNL     1      -1.022  43.980  54.058  1.00  0.00     0.227 C 
ATOM      7  O   UNL     1      -1.186  42.929  54.738  1.00  0.00    -0.274 OA
BRANCH   6   8
ATOM      8  N   UNL     1      -1.796  44.167  52.853  1.00  0.00    -0.338 N 
ATOM      9  N   UNL     1      -3.135  46.932  50.800  1.00  0.00    -0.301 NA
ATOM     10  C   UNL     1      -3.945  47.086  52.016  1.00  0.00     0.086 C 
ATOM     11  C   UNL     1      -2.485  45.617  50.910  1.00  0.00     0.079 C 
ATOM     12  C   UNL     1      -3.345  46.149  53.072  1.00  0.00     0.042 C 
ATOM     13  C   UNL     1      -2.123  45.534  52.396  1.00  0.00     0.103 C 
ATOM     14  C   UNL     1      -3.413  44.446  50.455  1.00  0.00     0.023 C 
ATOM     15  C   UNL     1      -3.096  43.079  51.084  1.00  0.00     0.023 C 
ATOM     16  C   UNL     1      -1.795  43.075  51.874  1.00  0.00     0.120 C 
ATOM     17  C   UNL     1      -3.878  47.180  49.555  1.00  0.00     0.105 C 
ENDBRANCH   6   8
ENDBRANCH   1   6
BRANCH   4  18
ATOM     18  C   UNL     1       3.747  45.502  54.220  1.00  0.00     0.073 A 
ATOM     19  C   UNL     1       4.367  46.706  54.609  1.00  0.00     0.030 A 
ATOM     20  C   UNL     1       4.497  44.581  53.453  1.00  0.00     0.147 A 
ATOM     21  C   UNL     1       5.685  46.988  54.243  1.00  0.00     0.014 A 
ATOM     22  C   UNL     1       5.817  44.870  53.089  1.00  0.00     0.053 A 
ATOM     23  C   UNL     1       6.422  46.074  53.478  1.00  0.00     0.026 A 
ATOM     24  F   UNL     1       3.981  43.390  53.064  1.00  0.00    -0.205 F 
BRANCH  23  25
ATOM     25  C   UNL     1       7.816  46.372  53.090  1.00  0.00     0.204 A 
ATOM     26  N   UNL     1       8.279  46.349  51.823  1.00  0.00    -0.108 NA
ATOM     27  N   UNL     1       8.795  46.703  53.956  1.00  0.00    -0.134 NA
ATOM     28  N   UNL     1       9.559  46.671  51.920  1.00  0.00    -0.050 NA
ATOM     29  N   UNL     1       9.856  46.880  53.191  1.00  0.00    -0.177 N 
ATOM     30  H   UNL     1      10.802  47.148  53.541  1.00  0.00     0.216 HD
ENDBRANCH  23  25
ENDBRANCH   4  18
TORSDOF 4
ENDMDL
