MODEL 1
REMARK VINA RESULT:    -8.689      0.000      0.000
REMARK INTER + INTRA:         -11.231
REMARK INTER:                 -10.721
REMARK INTRA:                  -0.509
REMARK UNBOUND:                -0.509
REMARK SMILES O=C(c1ccc2cc(-c3ccccc3)[nH]c2c1)N1CC(NC2CCOCC2)C1
REMARK SMILES IDX 1 1 2 2 18 3 19 4 20 5 28 6 3 7 4 8 17 9 5 10 16 11 6 12
REMARK SMILES IDX 15 13 7 14 8 15 9 17 10 18 14 19 11 20 13 21 12 22 21 23
REMARK SMILES IDX 22 25 23 26 27 27 24 28 26 29 25 30
REMARK H PARENT 15 16 21 24
ROOT
ATOM      1  O   UNL     1      -0.616  43.758  50.780  1.00  0.00    -0.269 OA
ATOM      2  C   UNL     1       0.036  44.049  51.819  1.00  0.00     0.254 C 
ATOM      3  N   UNL     1      -0.679  44.353  53.019  1.00  0.00    -0.335 N 
ATOM      4  C   UNL     1      -2.099  44.404  53.419  1.00  0.00     0.140 C 
ATOM      5  C   UNL     1      -1.851  44.603  54.881  1.00  0.00     0.093 C 
ATOM      6  C   UNL     1      -0.412  44.554  54.458  1.00  0.00     0.140 C 
ENDROOT
BRANCH   2   7
ATOM      7  C   UNL     1       1.513  44.018  51.783  1.00  0.00     0.042 A 
ATOM      8  C   UNL     1       2.179  42.885  51.241  1.00  0.00     0.014 A 
ATOM      9  C   UNL     1       2.275  45.111  52.257  1.00  0.00     0.040 A 
ATOM     10  C   UNL     1       3.584  42.830  51.196  1.00  0.00     0.011 A 
ATOM     11  C   UNL     1       3.665  45.022  52.196  1.00  0.00     0.047 A 
ATOM     12  C   UNL     1       4.294  43.919  51.689  1.00  0.00     0.000 A 
ATOM     13  N   UNL     1       4.557  45.945  52.590  1.00  0.00    -0.355 N 
ATOM     14  C   UNL     1       5.650  44.143  51.765  1.00  0.00     0.037 A 
ATOM     15  C   UNL     1       5.779  45.415  52.331  1.00  0.00     0.046 A 
ATOM     16  H   UNL     1       4.338  46.867  53.026  1.00  0.00     0.167 HD
BRANCH  15  17
ATOM     17  C   UNL     1       7.063  46.104  52.617  1.00  0.00    -0.002 A 
ATOM     18  C   UNL     1       7.975  46.383  51.580  1.00  0.00     0.010 A 
ATOM     19  C   UNL     1       7.389  46.495  53.930  1.00  0.00     0.010 A 
ATOM     20  C   UNL     1       9.182  47.032  51.853  1.00  0.00     0.001 A 
ATOM     21  C   UNL     1       8.598  47.145  54.197  1.00  0.00     0.001 A 
ATOM     22  C   UNL     1       9.494  47.413  53.159  1.00  0.00     0.000 A 
ENDBRANCH  15  17
ENDBRANCH   2   7
BRANCH   5  23
ATOM     23  N   UNL     1      -2.300  43.448  55.681  1.00  0.00    -0.308 NA
ATOM     24  H   UNL     1      -1.519  43.031  56.240  1.00  0.00     0.123 HD
BRANCH  23  25
ATOM     25  C   UNL     1      -3.438  43.787  56.557  1.00  0.00     0.058 C 
ATOM     26  C   UNL     1      -3.821  42.559  57.413  1.00  0.00     0.047 C 
ATOM     27  C   UNL     1      -3.131  45.012  57.448  1.00  0.00     0.047 C 
ATOM     28  C   UNL     1      -3.259  42.683  58.838  1.00  0.00     0.161 C 
ATOM     29  C   UNL     1      -3.980  44.962  58.728  1.00  0.00     0.161 C 
ATOM     30  O   UNL     1      -3.743  43.820  59.545  1.00  0.00    -0.381 OA
ENDBRANCH  23  25
ENDBRANCH   5  23
TORSDOF 4
ENDMDL
MODEL 2
REMARK VINA RESULT:    -8.684      1.739      2.206
REMARK INTER + INTRA:         -11.224
REMARK INTER:                 -10.598
REMARK INTRA:                  -0.625
REMARK UNBOUND:                -0.509
REMARK SMILES O=C(c1ccc2cc(-c3ccccc3)[nH]c2c1)N1CC(NC2CCOCC2)C1
REMARK SMILES IDX 1 1 2 2 18 3 19 4 20 5 28 6 3 7 4 8 17 9 5 10 16 11 6 12
REMARK SMILES IDX 15 13 7 14 8 15 9 17 10 18 14 19 11 20 13 21 12 22 21 23
REMARK SMILES IDX 22 25 23 26 27 27 24 28 26 29 25 30
REMARK H PARENT 15 16 21 24
ROOT
ATOM      1  O   UNL     1       1.630  42.122  51.034  1.00  0.00    -0.269 OA
ATOM      2  C   UNL     1       1.485  43.218  51.642  1.00  0.00     0.254 C 
ATOM      3  N   UNL     1       0.269  43.456  52.356  1.00  0.00    -0.335 N 
ATOM      4  C   UNL     1      -0.967  42.695  52.619  1.00  0.00     0.140 C 
ATOM      5  C   UNL     1      -1.546  43.659  53.606  1.00  0.00     0.093 C 
ATOM      6  C   UNL     1      -0.286  44.424  53.323  1.00  0.00     0.140 C 
ENDROOT
BRANCH   2   7
ATOM      7  C   UNL     1       2.590  44.199  51.643  1.00  0.00     0.042 A 
ATOM      8  C   UNL     1       2.453  45.412  50.915  1.00  0.00     0.014 A 
ATOM      9  C   UNL     1       3.773  43.962  52.380  1.00  0.00     0.040 A 
ATOM     10  C   UNL     1       3.490  46.363  50.899  1.00  0.00     0.011 A 
ATOM     11  C   UNL     1       4.779  44.926  52.342  1.00  0.00     0.047 A 
ATOM     12  C   UNL     1       4.643  46.081  51.623  1.00  0.00     0.000 A 
ATOM     13  N   UNL     1       5.965  44.888  52.970  1.00  0.00    -0.355 N 
ATOM     14  C   UNL     1       5.795  46.815  51.794  1.00  0.00     0.037 A 
ATOM     15  C   UNL     1       6.598  46.043  52.638  1.00  0.00     0.046 A 
ATOM     16  H   UNL     1       6.322  44.111  53.567  1.00  0.00     0.167 HD
BRANCH  15  17
ATOM     17  C   UNL     1       7.954  46.416  53.116  1.00  0.00    -0.002 A 
ATOM     18  C   UNL     1       9.096  46.095  52.356  1.00  0.00     0.010 A 
ATOM     19  C   UNL     1       8.120  47.101  54.335  1.00  0.00     0.010 A 
ATOM     20  C   UNL     1      10.371  46.448  52.810  1.00  0.00     0.001 A 
ATOM     21  C   UNL     1       9.397  47.452  54.783  1.00  0.00     0.001 A 
ATOM     22  C   UNL     1      10.521  47.125  54.021  1.00  0.00     0.000 A 
ENDBRANCH  15  17
ENDBRANCH   2   7
BRANCH   5  23
ATOM     23  N   UNL     1      -1.629  43.082  54.961  1.00  0.00    -0.308 NA
ATOM     24  H   UNL     1      -0.682  42.933  55.383  1.00  0.00     0.123 HD
BRANCH  23  25
ATOM     25  C   UNL     1      -2.472  43.891  55.860  1.00  0.00     0.058 C 
ATOM     26  C   UNL     1      -1.614  44.455  57.014  1.00  0.00     0.047 C 
ATOM     27  C   UNL     1      -3.196  45.026  55.101  1.00  0.00     0.047 C 
ATOM     28  C   UNL     1      -1.245  45.925  56.762  1.00  0.00     0.161 C 
ATOM     29  C   UNL     1      -3.517  46.184  56.059  1.00  0.00     0.161 C 
ATOM     30  O   UNL     1      -2.373  46.786  56.656  1.00  0.00    -0.381 OA
ENDBRANCH  23  25
ENDBRANCH   5  23
TORSDOF 4
ENDMDL
MODEL 3
REMARK VINA RESULT:    -8.637      2.005      2.542
REMARK INTER + INTRA:         -11.166
REMARK INTER:                 -10.866
REMARK INTRA:                  -0.301
REMARK UNBOUND:                -0.509
REMARK SMILES O=C(c1ccc2cc(-c3ccccc3)[nH]c2c1)N1CC(NC2CCOCC2)C1
REMARK SMILES IDX 1 1 2 2 18 3 19 4 20 5 28 6 3 7 4 8 17 9 5 10 16 11 6 12
REMARK SMILES IDX 15 13 7 14 8 15 9 17 10 18 14 19 11 20 13 21 12 22 21 23
REMARK SMILES IDX 22 25 23 26 27 27 24 28 26 29 25 30
REMARK H PARENT 15 16 21 24
ROOT
ATOM      1  O   UNL     1       0.071  41.677  53.826  1.00  0.00    -0.269 OA
ATOM      2  C   UNL     1       0.446  42.880  53.795  1.00  0.00     0.254 C 
ATOM      3  N   UNL     1      -0.387  43.878  54.392  1.00  0.00    -0.335 N 
ATOM      4  C   UNL     1      -1.671  43.885  55.120  1.00  0.00     0.140 C 
ATOM      5  C   UNL     1      -1.625  45.326  55.519  1.00  0.00     0.093 C 
ATOM      6  C   UNL     1      -0.324  45.304  54.771  1.00  0.00     0.140 C 
ENDROOT
BRANCH   2   7
ATOM      7  C   UNL     1       1.752  43.220  53.192  1.00  0.00     0.042 A 
ATOM      8  C   UNL     1       2.118  42.650  51.943  1.00  0.00     0.014 A 
ATOM      9  C   UNL     1       2.633  44.125  53.827  1.00  0.00     0.040 A 
ATOM     10  C   UNL     1       3.355  42.956  51.347  1.00  0.00     0.011 A 
ATOM     11  C   UNL     1       3.849  44.406  53.208  1.00  0.00     0.047 A 
ATOM     12  C   UNL     1       4.199  43.837  52.015  1.00  0.00     0.000 A 
ATOM     13  N   UNL     1       4.813  45.232  53.647  1.00  0.00    -0.355 N 
ATOM     14  C   UNL     1       5.444  44.317  51.675  1.00  0.00     0.037 A 
ATOM     15  C   UNL     1       5.797  45.183  52.713  1.00  0.00     0.046 A 
ATOM     16  H   UNL     1       4.802  45.774  54.538  1.00  0.00     0.167 HD
BRANCH  15  17
ATOM     17  C   UNL     1       7.066  45.951  52.799  1.00  0.00    -0.002 A 
ATOM     18  C   UNL     1       7.596  46.321  54.050  1.00  0.00     0.010 A 
ATOM     19  C   UNL     1       7.762  46.318  51.631  1.00  0.00     0.010 A 
ATOM     20  C   UNL     1       8.791  47.044  54.128  1.00  0.00     0.001 A 
ATOM     21  C   UNL     1       8.957  47.040  51.715  1.00  0.00     0.001 A 
ATOM     22  C   UNL     1       9.470  47.403  52.962  1.00  0.00     0.000 A 
ENDBRANCH  15  17
ENDBRANCH   2   7
BRANCH   5  23
ATOM     23  N   UNL     1      -1.497  45.493  56.979  1.00  0.00    -0.308 NA
ATOM     24  H   UNL     1      -0.611  45.070  57.346  1.00  0.00     0.123 HD
BRANCH  23  25
ATOM     25  C   UNL     1      -1.603  46.905  57.390  1.00  0.00     0.058 C 
ATOM     26  C   UNL     1      -3.002  47.171  57.987  1.00  0.00     0.047 C 
ATOM     27  C   UNL     1      -0.489  47.297  58.387  1.00  0.00     0.047 C 
ATOM     28  C   UNL     1      -2.953  47.190  59.523  1.00  0.00     0.161 C 
ATOM     29  C   UNL     1      -0.951  48.474  59.261  1.00  0.00     0.161 C 
ATOM     30  O   UNL     1      -2.102  48.199  60.054  1.00  0.00    -0.381 OA
ENDBRANCH  23  25
ENDBRANCH   5  23
TORSDOF 4
ENDMDL
MODEL 4
REMARK VINA RESULT:    -8.356      3.250      9.329
REMARK INTER + INTRA:         -10.819
REMARK INTER:                 -10.436
REMARK INTRA:                  -0.382
REMARK UNBOUND:                -0.509
REMARK SMILES O=C(c1ccc2cc(-c3ccccc3)[nH]c2c1)N1CC(NC2CCOCC2)C1
REMARK SMILES IDX 1 1 2 2 18 3 19 4 20 5 28 6 3 7 4 8 17 9 5 10 16 11 6 12
REMARK SMILES IDX 15 13 7 14 8 15 9 17 10 18 14 19 11 20 13 21 12 22 21 23
REMARK SMILES IDX 22 25 23 26 27 27 24 28 26 29 25 30
REMARK H PARENT 15 16 21 24
ROOT
ATOM      1  O   UNL     1       3.112  42.454  50.832  1.00  0.00    -0.269 OA
ATOM      2  C   UNL     1       3.393  43.243  51.774  1.00  0.00     0.254 C 
ATOM      3  N   UNL     1       4.690  43.845  51.807  1.00  0.00    -0.335 N 
ATOM      4  C   UNL     1       5.892  43.811  50.952  1.00  0.00     0.140 C 
ATOM      5  C   UNL     1       6.634  44.894  51.670  1.00  0.00     0.093 C 
ATOM      6  C   UNL     1       5.407  44.913  52.533  1.00  0.00     0.140 C 
ENDROOT
BRANCH   2   7
ATOM      7  C   UNL     1       2.364  43.563  52.786  1.00  0.00     0.042 A 
ATOM      8  C   UNL     1       1.163  42.804  52.831  1.00  0.00     0.014 A 
ATOM      9  C   UNL     1       2.567  44.597  53.729  1.00  0.00     0.040 A 
ATOM     10  C   UNL     1       0.167  43.088  53.783  1.00  0.00     0.011 A 
ATOM     11  C   UNL     1       1.560  44.850  54.658  1.00  0.00     0.047 A 
ATOM     12  C   UNL     1       0.401  44.125  54.679  1.00  0.00     0.000 A 
ATOM     13  N   UNL     1       1.563  45.780  55.627  1.00  0.00    -0.355 N 
ATOM     14  C   UNL     1      -0.376  44.614  55.705  1.00  0.00     0.037 A 
ATOM     15  C   UNL     1       0.377  45.644  56.275  1.00  0.00     0.046 A 
ATOM     16  H   UNL     1       2.320  46.472  55.814  1.00  0.00     0.167 HD
BRANCH  15  17
ATOM     17  C   UNL     1      -0.042  46.483  57.426  1.00  0.00    -0.002 A 
ATOM     18  C   UNL     1      -1.376  46.920  57.548  1.00  0.00     0.010 A 
ATOM     19  C   UNL     1       0.886  46.852  58.419  1.00  0.00     0.010 A 
ATOM     20  C   UNL     1      -1.767  47.709  58.634  1.00  0.00     0.001 A 
ATOM     21  C   UNL     1       0.489  47.642  59.503  1.00  0.00     0.001 A 
ATOM     22  C   UNL     1      -0.836  48.070  59.610  1.00  0.00     0.000 A 
ENDBRANCH  15  17
ENDBRANCH   2   7
BRANCH   5  23
ATOM     23  N   UNL     1       6.817  46.091  50.828  1.00  0.00    -0.308 NA
ATOM     24  H   UNL     1       6.060  46.799  50.983  1.00  0.00     0.123 HD
BRANCH  23  25
ATOM     25  C   UNL     1       8.144  46.707  51.016  1.00  0.00     0.058 C 
ATOM     26  C   UNL     1       8.025  47.927  51.955  1.00  0.00     0.047 C 
ATOM     27  C   UNL     1       9.177  45.690  51.554  1.00  0.00     0.047 C 
ATOM     28  C   UNL     1       8.478  47.574  53.381  1.00  0.00     0.161 C 
ATOM     29  C   UNL     1      10.289  46.421  52.324  1.00  0.00     0.161 C 
ATOM     30  O   UNL     1       9.834  47.149  53.460  1.00  0.00    -0.381 OA
ENDBRANCH  23  25
ENDBRANCH   5  23
TORSDOF 4
ENDMDL
MODEL 5
REMARK VINA RESULT:    -8.192      3.197      5.548
REMARK INTER + INTRA:         -10.616
REMARK INTER:                  -9.942
REMARK INTRA:                  -0.674
REMARK UNBOUND:                -0.509
REMARK SMILES O=C(c1ccc2cc(-c3ccccc3)[nH]c2c1)N1CC(NC2CCOCC2)C1
REMARK SMILES IDX 1 1 2 2 18 3 19 4 20 5 28 6 3 7 4 8 17 9 5 10 16 11 6 12
REMARK SMILES IDX 15 13 7 14 8 15 9 17 10 18 14 19 11 20 13 21 12 22 21 23
REMARK SMILES IDX 22 25 23 26 27 27 24 28 26 29 25 30
REMARK H PARENT 15 16 21 24
ROOT
ATOM      1  O   UNL     1      -0.243  42.364  54.366  1.00  0.00    -0.269 OA
ATOM      2  C   UNL     1       0.219  43.192  53.535  1.00  0.00     0.254 C 
ATOM      3  N   UNL     1      -0.454  43.365  52.286  1.00  0.00    -0.335 N 
ATOM      4  C   UNL     1      -1.663  42.805  51.651  1.00  0.00     0.140 C 
ATOM      5  C   UNL     1      -1.668  43.725  50.471  1.00  0.00     0.093 C 
ATOM      6  C   UNL     1      -0.437  44.279  51.126  1.00  0.00     0.140 C 
ENDROOT
BRANCH   2   7
ATOM      7  C   UNL     1       1.408  43.995  53.894  1.00  0.00     0.042 A 
ATOM      8  C   UNL     1       1.414  44.737  55.106  1.00  0.00     0.014 A 
ATOM      9  C   UNL     1       2.550  44.014  53.061  1.00  0.00     0.040 A 
ATOM     10  C   UNL     1       2.532  45.510  55.470  1.00  0.00     0.011 A 
ATOM     11  C   UNL     1       3.639  44.790  53.454  1.00  0.00     0.047 A 
ATOM     12  C   UNL     1       3.627  45.514  54.613  1.00  0.00     0.000 A 
ATOM     13  N   UNL     1       4.807  44.938  52.807  1.00  0.00    -0.355 N 
ATOM     14  C   UNL     1       4.839  46.160  54.713  1.00  0.00     0.037 A 
ATOM     15  C   UNL     1       5.550  45.779  53.572  1.00  0.00     0.046 A 
ATOM     16  H   UNL     1       5.065  44.507  51.893  1.00  0.00     0.167 HD
BRANCH  15  17
ATOM     17  C   UNL     1       6.926  46.221  53.226  1.00  0.00    -0.002 A 
ATOM     18  C   UNL     1       7.420  46.071  51.916  1.00  0.00     0.010 A 
ATOM     19  C   UNL     1       7.758  46.801  54.203  1.00  0.00     0.010 A 
ATOM     20  C   UNL     1       8.715  46.489  51.595  1.00  0.00     0.001 A 
ATOM     21  C   UNL     1       9.052  47.217  53.876  1.00  0.00     0.001 A 
ATOM     22  C   UNL     1       9.530  47.060  52.573  1.00  0.00     0.000 A 
ENDBRANCH  15  17
ENDBRANCH   2   7
BRANCH   5  23
ATOM     23  N   UNL     1      -2.834  44.629  50.478  1.00  0.00    -0.308 NA
ATOM     24  H   UNL     1      -2.563  45.615  50.705  1.00  0.00     0.123 HD
BRANCH  23  25
ATOM     25  C   UNL     1      -3.585  44.579  49.210  1.00  0.00     0.058 C 
ATOM     26  C   UNL     1      -3.843  46.013  48.699  1.00  0.00     0.047 C 
ATOM     27  C   UNL     1      -2.855  43.731  48.144  1.00  0.00     0.047 C 
ATOM     28  C   UNL     1      -2.854  46.388  47.584  1.00  0.00     0.161 C 
ATOM     29  C   UNL     1      -3.262  44.189  46.734  1.00  0.00     0.161 C 
ATOM     30  O   UNL     1      -2.937  45.544  46.441  1.00  0.00    -0.381 OA
ENDBRANCH  23  25
ENDBRANCH   5  23
TORSDOF 4
ENDMDL
