MODEL 1
REMARK VINA RESULT:    -7.252      0.000      0.000
REMARK INTER + INTRA:         -10.771
REMARK INTER:                 -10.643
REMARK INTRA:                  -0.128
REMARK UNBOUND:                -0.128
REMARK SMILES CC[C@@H]1Cc2ccccc2CN1C(=O)[C@H]1CCc2nncn2CC1
REMARK SMILES IDX 15 1 13 2 14 3 12 4 3 5 4 6 5 7 11 8 6 9 10 10 7 11 9 12
REMARK SMILES IDX 8 13 2 14 1 15 16 16 24 18 23 19 22 20 21 21 18 22 20 23
REMARK SMILES IDX 19 24 17 25
REMARK H PARENT
REMARK Flexibility Score:   51.900
ROOT
ATOM      1  C   UNL     1       1.951  45.152  53.639  1.00  0.00     0.081 C 
ENDROOT
BRANCH   1   2
ATOM      2  C   UNL     1       3.037  46.002  53.017  1.00  0.00     0.226 C 
ATOM      3  O   UNL     1       2.770  47.190  52.686  1.00  0.00    -0.275 OA
BRANCH   2   4
ATOM      4  N   UNL     1       4.357  45.474  52.765  1.00  0.00    -0.335 N 
ATOM      5  C   UNL     1       4.765  45.054  51.411  1.00  0.00     0.089 C 
ATOM      6  C   UNL     1       5.811  46.051  50.891  1.00  0.00     0.061 C 
ATOM      7  C   UNL     1       6.896  46.325  51.904  1.00  0.00    -0.041 A 
ATOM      8  C   UNL     1       5.387  45.550  53.813  1.00  0.00     0.155 C 
ATOM      9  C   UNL     1       8.121  46.855  51.465  1.00  0.00     0.004 A 
ATOM     10  C   UNL     1       6.673  46.144  53.290  1.00  0.00    -0.025 A 
ATOM     11  C   UNL     1       9.125  47.169  52.383  1.00  0.00     0.000 A 
ATOM     12  C   UNL     1       7.695  46.456  54.200  1.00  0.00     0.006 A 
ATOM     13  C   UNL     1       8.914  46.968  53.748  1.00  0.00     0.000 A 
BRANCH   5  14
ATOM     14  C   UNL     1       5.315  43.609  51.400  1.00  0.00     0.022 C 
ATOM     15  C   UNL     1       5.999  43.258  50.080  1.00  0.00     0.006 C 
ENDBRANCH   5  14
ENDBRANCH   2   4
ENDBRANCH   1   2
BRANCH   1  16
ATOM     16  C   UNL     1       2.043  43.690  53.125  1.00  0.00     0.021 CG0
ATOM     17  G   UNL     1       0.963  42.743  53.678  1.00  0.00     0.000 G0
ENDBRANCH   1  16
BRANCH   1  18
ATOM     18  C   UNL     1       2.012  45.240  55.182  1.00  0.00     0.035 C 
BRANCH  18  19
ATOM     19  C   UNL     1       0.653  44.978  55.869  1.00  0.00     0.126 C 
BRANCH  19  20
ATOM     20  N   UNL     1      -0.374  44.413  54.983  1.00  0.00    -0.318 N 
ATOM     21  C   UNL     1      -1.682  44.727  54.985  1.00  0.00     0.225 A 
ATOM     22  C   UNL     1      -0.291  43.435  54.058  1.00  0.00     0.132 A 
ATOM     23  N   UNL     1      -2.363  43.987  54.088  1.00  0.00    -0.139 NA
ATOM     24  N   UNL     1      -1.491  43.178  53.505  1.00  0.00    -0.136 NA
BRANCH  22  25
ATOM     25  C   UNL     1       0.970  42.728  53.673  1.00  0.00     0.078 CG0
ATOM     26  G   UNL     1       2.036  43.695  53.131  1.00  0.00     0.000 G0
ENDBRANCH  22  25
ENDBRANCH  19  20
ENDBRANCH  18  19
ENDBRANCH   1  18
TORSDOF 3
ENDMDL
MODEL 2
REMARK VINA RESULT:    -7.149      1.371      1.857
REMARK INTER + INTRA:         -10.620
REMARK INTER:                 -10.578
REMARK INTRA:                  -0.042
REMARK UNBOUND:                -0.128
REMARK SMILES CC[C@@H]1Cc2ccccc2CN1C(=O)[C@H]1CCc2nncn2CC1
REMARK SMILES IDX 15 1 13 2 14 3 12 4 3 5 4 6 5 7 11 8 6 9 10 10 7 11 9 12
REMARK SMILES IDX 8 13 2 14 1 15 16 16 24 18 23 19 22 20 21 21 18 22 20 23
REMARK SMILES IDX 19 24 17 25
REMARK H PARENT
REMARK Flexibility Score:   51.900
ROOT
ATOM      1  C   UNL     1       2.413  45.168  53.951  1.00  0.00     0.081 C 
ENDROOT
BRANCH   1   2
ATOM      2  C   UNL     1       3.781  45.768  54.191  1.00  0.00     0.226 C 
ATOM      3  O   UNL     1       3.896  46.721  55.011  1.00  0.00    -0.275 OA
BRANCH   2   4
ATOM      4  N   UNL     1       4.946  45.300  53.479  1.00  0.00    -0.335 N 
ATOM      5  C   UNL     1       4.888  44.994  52.037  1.00  0.00     0.089 C 
ATOM      6  C   UNL     1       5.701  46.058  51.284  1.00  0.00     0.061 C 
ATOM      7  C   UNL     1       7.058  46.288  51.905  1.00  0.00    -0.041 A 
ATOM      8  C   UNL     1       6.263  45.329  54.134  1.00  0.00     0.155 C 
ATOM      9  C   UNL     1       8.068  46.885  51.133  1.00  0.00     0.004 A 
ATOM     10  C   UNL     1       7.303  45.998  53.269  1.00  0.00    -0.025 A 
ATOM     11  C   UNL     1       9.318  47.160  51.694  1.00  0.00     0.000 A 
ATOM     12  C   UNL     1       8.567  46.271  53.816  1.00  0.00     0.006 A 
ATOM     13  C   UNL     1       9.567  46.852  53.032  1.00  0.00     0.000 A 
BRANCH   5  14
ATOM     14  C   UNL     1       5.409  43.571  51.731  1.00  0.00     0.022 C 
ATOM     15  C   UNL     1       5.782  43.392  50.260  1.00  0.00     0.006 C 
ENDBRANCH   5  14
ENDBRANCH   2   4
ENDBRANCH   1   2
BRANCH   1  16
ATOM     16  C   UNL     1       1.690  44.906  55.299  1.00  0.00     0.021 CG0
ATOM     17  G   UNL     1       0.198  44.549  55.172  1.00  0.00     0.000 G0
ENDBRANCH   1  16
BRANCH   1  18
ATOM     18  C   UNL     1       1.587  46.068  53.003  1.00  0.00     0.035 C 
BRANCH  18  19
ATOM     19  C   UNL     1       0.599  45.282  52.111  1.00  0.00     0.126 C 
BRANCH  19  20
ATOM     20  N   UNL     1       0.137  44.015  52.692  1.00  0.00    -0.318 N 
ATOM     21  C   UNL     1      -0.254  42.924  52.008  1.00  0.00     0.225 A 
ATOM     22  C   UNL     1      -0.084  43.669  53.977  1.00  0.00     0.132 A 
ATOM     23  N   UNL     1      -0.675  41.951  52.838  1.00  0.00    -0.139 NA
ATOM     24  N   UNL     1      -0.567  42.417  54.073  1.00  0.00    -0.136 NA
BRANCH  22  25
ATOM     25  C   UNL     1       0.185  44.549  55.157  1.00  0.00     0.078 CG0
ATOM     26  G   UNL     1       1.678  44.894  55.296  1.00  0.00     0.000 G0
ENDBRANCH  22  25
ENDBRANCH  19  20
ENDBRANCH  18  19
ENDBRANCH   1  18
TORSDOF 3
ENDMDL
MODEL 3
REMARK VINA RESULT:    -6.966      2.058      2.977
REMARK INTER + INTRA:         -10.351
REMARK INTER:                 -10.270
REMARK INTRA:                  -0.081
REMARK UNBOUND:                -0.128
REMARK SMILES CC[C@@H]1Cc2ccccc2CN1C(=O)[C@H]1CCc2nncn2CC1
REMARK SMILES IDX 15 1 13 2 14 3 12 4 3 5 4 6 5 7 11 8 6 9 10 10 7 11 9 12
REMARK SMILES IDX 8 13 2 14 1 15 16 16 24 18 23 19 22 20 21 21 18 22 20 23
REMARK SMILES IDX 19 24 17 25
REMARK H PARENT
REMARK Flexibility Score:   51.900
ROOT
ATOM      1  C   UNL     1       2.909  44.230  52.609  1.00  0.00     0.081 C 
ENDROOT
BRANCH   1   2
ATOM      2  C   UNL     1       4.362  44.346  52.204  1.00  0.00     0.226 C 
ATOM      3  O   UNL     1       4.926  43.358  51.656  1.00  0.00    -0.275 OA
BRANCH   2   4
ATOM      4  N   UNL     1       5.124  45.545  52.462  1.00  0.00    -0.335 N 
ATOM      5  C   UNL     1       5.046  46.234  53.764  1.00  0.00     0.089 C 
ATOM      6  C   UNL     1       6.386  46.047  54.491  1.00  0.00     0.061 C 
ATOM      7  C   UNL     1       7.567  46.348  53.601  1.00  0.00    -0.041 A 
ATOM      8  C   UNL     1       6.156  45.974  51.506  1.00  0.00     0.155 C 
ATOM      9  C   UNL     1       8.809  46.639  54.191  1.00  0.00     0.004 A 
ATOM     10  C   UNL     1       7.472  46.254  52.192  1.00  0.00    -0.025 A 
ATOM     11  C   UNL     1       9.933  46.870  53.396  1.00  0.00     0.000 A 
ATOM     12  C   UNL     1       8.608  46.498  51.406  1.00  0.00     0.006 A 
ATOM     13  C   UNL     1       9.833  46.802  52.006  1.00  0.00     0.000 A 
BRANCH   5  14
ATOM     14  C   UNL     1       4.701  47.732  53.601  1.00  0.00     0.022 C 
ATOM     15  C   UNL     1       3.472  47.953  52.722  1.00  0.00     0.006 C 
ENDBRANCH   5  14
ENDBRANCH   2   4
ENDBRANCH   1   2
BRANCH   1  16
ATOM     16  C   UNL     1       2.019  45.127  51.707  1.00  0.00     0.021 CG0
ATOM     17  G   UNL     1       0.619  45.423  52.273  1.00  0.00     0.000 G0
ENDBRANCH   1  16
BRANCH   1  18
ATOM     18  C   UNL     1       2.461  42.750  52.593  1.00  0.00     0.035 C 
BRANCH  18  19
ATOM     19  C   UNL     1       1.131  42.500  53.340  1.00  0.00     0.126 C 
BRANCH  19  20
ATOM     20  N   UNL     1      -0.056  43.025  52.653  1.00  0.00    -0.318 N 
ATOM     21  C   UNL     1      -1.142  42.317  52.294  1.00  0.00     0.225 A 
ATOM     22  C   UNL     1      -0.310  44.254  52.159  1.00  0.00     0.132 A 
ATOM     23  N   UNL     1      -2.027  43.085  51.629  1.00  0.00    -0.139 NA
ATOM     24  N   UNL     1      -1.507  44.300  51.545  1.00  0.00    -0.136 NA
BRANCH  22  25
ATOM     25  C   UNL     1       0.605  45.431  52.285  1.00  0.00     0.078 CG0
ATOM     26  G   UNL     1       2.007  45.140  51.721  1.00  0.00     0.000 G0
ENDBRANCH  22  25
ENDBRANCH  19  20
ENDBRANCH  18  19
ENDBRANCH   1  18
TORSDOF 3
ENDMDL
MODEL 4
REMARK VINA RESULT:    -6.349      3.897      7.732
REMARK INTER + INTRA:          -9.446
REMARK INTER:                  -9.223
REMARK INTRA:                  -0.223
REMARK UNBOUND:                -0.128
REMARK SMILES CC[C@@H]1Cc2ccccc2CN1C(=O)[C@H]1CCc2nncn2CC1
REMARK SMILES IDX 15 1 13 2 14 3 12 4 3 5 4 6 5 7 11 8 6 9 10 10 7 11 9 12
REMARK SMILES IDX 8 13 2 14 1 15 16 16 24 18 23 19 22 20 21 21 18 22 20 23
REMARK SMILES IDX 19 24 17 25
REMARK H PARENT
REMARK Flexibility Score:   51.900
ROOT
ATOM      1  C   UNL     1       7.548  46.089  51.963  1.00  0.00     0.081 C 
ENDROOT
BRANCH   1   2
ATOM      2  C   UNL     1       6.472  45.197  51.383  1.00  0.00     0.226 C 
ATOM      3  O   UNL     1       6.574  44.816  50.183  1.00  0.00    -0.275 OA
BRANCH   2   4
ATOM      4  N   UNL     1       5.319  44.803  52.157  1.00  0.00    -0.335 N 
ATOM      5  C   UNL     1       4.740  45.701  53.173  1.00  0.00     0.089 C 
ATOM      6  C   UNL     1       3.375  46.190  52.664  1.00  0.00     0.061 C 
ATOM      7  C   UNL     1       2.519  45.061  52.146  1.00  0.00    -0.041 A 
ATOM      8  C   UNL     1       4.575  43.588  51.792  1.00  0.00     0.155 C 
ATOM      9  C   UNL     1       1.130  45.250  52.044  1.00  0.00     0.004 A 
ATOM     10  C   UNL     1       3.093  43.855  51.678  1.00  0.00    -0.025 A 
ATOM     11  C   UNL     1       0.316  44.243  51.519  1.00  0.00     0.000 A 
ATOM     12  C   UNL     1       2.261  42.849  51.161  1.00  0.00     0.006 A 
ATOM     13  C   UNL     1       0.880  43.045  51.080  1.00  0.00     0.000 A 
BRANCH   5  14
ATOM     14  C   UNL     1       4.607  45.003  54.547  1.00  0.00     0.022 C 
ATOM     15  C   UNL     1       5.840  45.210  55.425  1.00  0.00     0.006 C 
ENDBRANCH   5  14
ENDBRANCH   2   4
ENDBRANCH   1   2
BRANCH   1  16
ATOM     16  C   UNL     1       8.952  45.625  51.491  1.00  0.00     0.021 CG0
ATOM     17  G   UNL     1      10.128  46.407  52.101  1.00  0.00     0.000 G0
ENDBRANCH   1  16
BRANCH   1  18
ATOM     18  C   UNL     1       7.268  47.570  51.614  1.00  0.00     0.035 C 
BRANCH  18  19
ATOM     19  C   UNL     1       7.897  48.567  52.613  1.00  0.00     0.126 C 
BRANCH  19  20
ATOM     20  N   UNL     1       8.818  47.956  53.580  1.00  0.00    -0.318 N 
ATOM     21  C   UNL     1       8.904  48.253  54.889  1.00  0.00     0.225 A 
ATOM     22  C   UNL     1       9.810  47.060  53.399  1.00  0.00     0.132 A 
ATOM     23  N   UNL     1       9.891  47.555  55.484  1.00  0.00    -0.139 NA
ATOM     24  N   UNL     1      10.458  46.806  54.551  1.00  0.00    -0.136 NA
BRANCH  22  25
ATOM     25  C   UNL     1      10.147  46.411  52.094  1.00  0.00     0.078 CG0
ATOM     26  G   UNL     1       8.953  45.640  51.503  1.00  0.00     0.000 G0
ENDBRANCH  22  25
ENDBRANCH  19  20
ENDBRANCH  18  19
ENDBRANCH   1  18
TORSDOF 3
ENDMDL
MODEL 5
REMARK VINA RESULT:    -6.064      2.845      7.447
REMARK INTER + INTRA:          -9.027
REMARK INTER:                  -9.152
REMARK INTRA:                   0.125
REMARK UNBOUND:                -0.128
REMARK SMILES CC[C@@H]1Cc2ccccc2CN1C(=O)[C@H]1CCc2nncn2CC1
REMARK SMILES IDX 15 1 13 2 14 3 12 4 3 5 4 6 5 7 11 8 6 9 10 10 7 11 9 12
REMARK SMILES IDX 8 13 2 14 1 15 16 16 24 18 23 19 22 20 21 21 18 22 20 23
REMARK SMILES IDX 19 24 17 25
REMARK H PARENT
REMARK Flexibility Score:   51.900
ROOT
ATOM      1  C   UNL     1       5.400  45.390  53.020  1.00  0.00     0.081 C 
ENDROOT
BRANCH   1   2
ATOM      2  C   UNL     1       3.893  45.529  53.054  1.00  0.00     0.226 C 
ATOM      3  O   UNL     1       3.377  46.414  53.792  1.00  0.00    -0.275 OA
BRANCH   2   4
ATOM      4  N   UNL     1       3.037  44.654  52.290  1.00  0.00    -0.335 N 
ATOM      5  C   UNL     1       3.195  43.189  52.349  1.00  0.00     0.089 C 
ATOM      6  C   UNL     1       1.985  42.601  53.091  1.00  0.00     0.061 C 
ATOM      7  C   UNL     1       0.676  43.152  52.577  1.00  0.00    -0.041 A 
ATOM      8  C   UNL     1       1.853  45.202  51.610  1.00  0.00     0.155 C 
ATOM      9  C   UNL     1      -0.509  42.439  52.828  1.00  0.00     0.004 A 
ATOM     10  C   UNL     1       0.608  44.409  51.931  1.00  0.00    -0.025 A 
ATOM     11  C   UNL     1      -1.741  42.948  52.413  1.00  0.00     0.000 A 
ATOM     12  C   UNL     1      -0.637  44.903  51.511  1.00  0.00     0.006 A 
ATOM     13  C   UNL     1      -1.805  44.176  51.754  1.00  0.00     0.000 A 
BRANCH   5  14
ATOM     14  C   UNL     1       3.343  42.570  50.940  1.00  0.00     0.022 C 
ATOM     15  C   UNL     1       4.542  41.629  50.841  1.00  0.00     0.006 C 
ENDBRANCH   5  14
ENDBRANCH   2   4
ENDBRANCH   1   2
BRANCH   1  16
ATOM     16  C   UNL     1       6.011  46.347  51.962  1.00  0.00     0.021 CG0
ATOM     17  G   UNL     1       7.471  46.041  51.583  1.00  0.00     0.000 G0
ENDBRANCH   1  16
BRANCH   1  18
ATOM     18  C   UNL     1       5.994  45.612  54.430  1.00  0.00     0.035 C 
BRANCH  18  19
ATOM     19  C   UNL     1       6.808  46.919  54.557  1.00  0.00     0.126 C 
BRANCH  19  20
ATOM     20  N   UNL     1       8.116  46.885  53.890  1.00  0.00    -0.318 N 
ATOM     21  C   UNL     1       9.288  47.277  54.421  1.00  0.00     0.225 A 
ATOM     22  C   UNL     1       8.444  46.555  52.624  1.00  0.00     0.132 A 
ATOM     23  N   UNL     1      10.289  47.172  53.526  1.00  0.00    -0.139 NA
ATOM     24  N   UNL     1       9.761  46.718  52.399  1.00  0.00    -0.136 NA
BRANCH  22  25
ATOM     25  C   UNL     1       7.482  46.054  51.594  1.00  0.00     0.078 CG0
ATOM     26  G   UNL     1       6.020  46.354  51.971  1.00  0.00     0.000 G0
ENDBRANCH  22  25
ENDBRANCH  19  20
ENDBRANCH  18  19
ENDBRANCH   1  18
TORSDOF 3
ENDMDL
