MODEL 1
REMARK VINA RESULT:    -8.785      0.000      0.000
REMARK INTER + INTRA:         -12.042
REMARK INTER:                 -11.353
REMARK INTRA:                  -0.689
REMARK UNBOUND:                -0.689
REMARK SMILES COc1ccc2nc(NC(=O)N3CCC[C@@H](Nc4ccccc4)C3)sc2n1
REMARK SMILES IDX 9 1 10 2 11 3 8 5 3 6 4 7 27 8 5 9 26 10 6 11 25 12 7 13
REMARK SMILES IDX 2 14 1 15 12 16 13 17 24 18 14 19 16 20 15 21 17 22 18 24
REMARK SMILES IDX 19 25 23 26 20 27 22 28 21 29
REMARK H PARENT 9 4 17 23
ROOT
ATOM      1  N   UNL     1       1.826  44.750  54.987  1.00  0.00    -0.283 N 
ATOM      2  C   UNL     1       2.910  45.319  54.235  1.00  0.00     0.323 C 
ATOM      3  O   UNL     1       3.564  46.287  54.710  1.00  0.00    -0.248 OA
ATOM      4  H   UNL     1       1.561  43.757  54.803  1.00  0.00     0.174 HD
ENDROOT
BRANCH   1   5
ATOM      5  C   UNL     1       1.108  45.448  56.015  1.00  0.00     0.193 A 
ATOM      6  C   UNL     1      -1.227  47.597  59.457  1.00  0.00     0.214 A 
ATOM      7  C   UNL     1       0.111  47.754  59.882  1.00  0.00     0.071 A 
ATOM      8  N   UNL     1      -1.501  46.939  58.289  1.00  0.00    -0.201 NA
ATOM      9  C   UNL     1       1.159  47.234  59.107  1.00  0.00     0.037 A 
ATOM     10  C   UNL     1      -0.481  46.442  57.548  1.00  0.00     0.149 A 
ATOM     11  C   UNL     1       0.840  46.572  57.925  1.00  0.00     0.103 A 
ATOM     12  S   UNL     1      -0.586  45.602  56.103  1.00  0.00    -0.076 S 
ATOM     13  N   UNL     1       1.738  46.013  57.075  1.00  0.00    -0.218 NA
BRANCH   6  14
ATOM     14  O   UNL     1      -2.259  48.120  60.241  1.00  0.00    -0.481 OA
ATOM     15  C   UNL     1      -3.371  47.344  60.667  1.00  0.00     0.280 C 
ENDBRANCH   6  14
ENDBRANCH   1   5
BRANCH   2  16
ATOM     16  N   UNL     1       3.287  44.759  52.961  1.00  0.00    -0.322 N 
ATOM     17  C   UNL     1       2.575  45.119  51.729  1.00  0.00     0.121 C 
ATOM     18  C   UNL     1       4.559  44.046  52.799  1.00  0.00     0.146 C 
ATOM     19  C   UNL     1       3.486  45.975  50.842  1.00  0.00     0.024 C 
ATOM     20  C   UNL     1       5.532  44.898  51.963  1.00  0.00     0.098 C 
ATOM     21  C   UNL     1       4.856  45.306  50.633  1.00  0.00     0.028 C 
BRANCH  20  22
ATOM     22  N   UNL     1       5.971  46.082  52.718  1.00  0.00    -0.381 N 
ATOM     23  H   UNL     1       5.244  46.690  53.161  1.00  0.00     0.160 HD
BRANCH  22  24
ATOM     24  C   UNL     1       7.347  46.468  52.905  1.00  0.00     0.034 A 
ATOM     25  C   UNL     1       8.279  46.454  51.846  1.00  0.00     0.025 A 
ATOM     26  C   UNL     1       7.774  46.881  54.178  1.00  0.00     0.025 A 
ATOM     27  C   UNL     1       9.606  46.832  52.069  1.00  0.00     0.002 A 
ATOM     28  C   UNL     1       9.103  47.258  54.396  1.00  0.00     0.002 A 
ATOM     29  C   UNL     1      10.018  47.231  53.342  1.00  0.00     0.000 A 
ENDBRANCH  22  24
ENDBRANCH  20  22
ENDBRANCH   2  16
TORSDOF 5
ENDMDL
MODEL 2
REMARK VINA RESULT:    -8.775      4.207      7.671
REMARK INTER + INTRA:         -12.029
REMARK INTER:                 -11.909
REMARK INTRA:                  -0.120
REMARK UNBOUND:                -0.689
REMARK SMILES COc1ccc2nc(NC(=O)N3CCC[C@@H](Nc4ccccc4)C3)sc2n1
REMARK SMILES IDX 9 1 10 2 11 3 8 5 3 6 4 7 27 8 5 9 26 10 6 11 25 12 7 13
REMARK SMILES IDX 2 14 1 15 12 16 13 17 24 18 14 19 16 20 15 21 17 22 18 24
REMARK SMILES IDX 19 25 23 26 20 27 22 28 21 29
REMARK H PARENT 9 4 17 23
ROOT
ATOM      1  N   UNL     1       4.064  46.313  52.785  1.00  0.00    -0.283 N 
ATOM      2  C   UNL     1       3.095  45.694  53.646  1.00  0.00     0.323 C 
ATOM      3  O   UNL     1       3.251  45.732  54.897  1.00  0.00    -0.248 OA
ATOM      4  H   UNL     1       3.759  46.626  51.837  1.00  0.00     0.174 HD
ENDROOT
BRANCH   1   5
ATOM      5  C   UNL     1       5.424  46.573  53.163  1.00  0.00     0.193 A 
ATOM      6  C   UNL     1       9.879  47.264  54.426  1.00  0.00     0.214 A 
ATOM      7  C   UNL     1      10.027  46.852  53.083  1.00  0.00     0.071 A 
ATOM      8  N   UNL     1       8.631  47.356  54.980  1.00  0.00    -0.201 NA
ATOM      9  C   UNL     1       8.893  46.535  52.317  1.00  0.00     0.037 A 
ATOM     10  C   UNL     1       7.545  47.049  54.231  1.00  0.00     0.149 A 
ATOM     11  C   UNL     1       7.641  46.642  52.916  1.00  0.00     0.103 A 
ATOM     12  S   UNL     1       5.938  47.083  54.705  1.00  0.00    -0.076 S 
ATOM     13  N   UNL     1       6.459  46.367  52.311  1.00  0.00    -0.218 NA
BRANCH   6  14
ATOM     14  O   UNL     1      11.018  47.575  55.174  1.00  0.00    -0.481 OA
ATOM     15  C   UNL     1      11.034  47.551  56.596  1.00  0.00     0.280 C 
ENDBRANCH   6  14
ENDBRANCH   1   5
BRANCH   2  16
ATOM     16  N   UNL     1       1.918  45.072  53.092  1.00  0.00    -0.322 N 
ATOM     17  C   UNL     1       1.436  45.412  51.748  1.00  0.00     0.121 C 
ATOM     18  C   UNL     1       1.331  43.882  53.717  1.00  0.00     0.146 C 
ATOM     19  C   UNL     1       1.663  44.225  50.806  1.00  0.00     0.024 C 
ATOM     20  C   UNL     1       1.588  42.647  52.833  1.00  0.00     0.098 C 
ATOM     21  C   UNL     1       1.090  42.924  51.395  1.00  0.00     0.028 C 
BRANCH  20  22
ATOM     22  N   UNL     1       3.015  42.289  52.838  1.00  0.00    -0.381 N 
ATOM     23  H   UNL     1       3.469  42.057  53.750  1.00  0.00     0.160 HD
BRANCH  22  24
ATOM     24  C   UNL     1       3.846  42.226  51.661  1.00  0.00     0.034 A 
ATOM     25  C   UNL     1       3.694  41.212  50.692  1.00  0.00     0.025 A 
ATOM     26  C   UNL     1       4.831  43.209  51.467  1.00  0.00     0.025 A 
ATOM     27  C   UNL     1       4.523  41.184  49.566  1.00  0.00     0.002 A 
ATOM     28  C   UNL     1       5.657  43.175  50.339  1.00  0.00     0.002 A 
ATOM     29  C   UNL     1       5.504  42.162  49.391  1.00  0.00     0.000 A 
ENDBRANCH  22  24
ENDBRANCH  20  22
ENDBRANCH   2  16
TORSDOF 5
ENDMDL
MODEL 3
REMARK VINA RESULT:    -8.483      2.888      8.247
REMARK INTER + INTRA:         -11.651
REMARK INTER:                 -11.003
REMARK INTRA:                  -0.648
REMARK UNBOUND:                -0.689
REMARK SMILES COc1ccc2nc(NC(=O)N3CCC[C@@H](Nc4ccccc4)C3)sc2n1
REMARK SMILES IDX 9 1 10 2 11 3 8 5 3 6 4 7 27 8 5 9 26 10 6 11 25 12 7 13
REMARK SMILES IDX 2 14 1 15 12 16 13 17 24 18 14 19 16 20 15 21 17 22 18 24
REMARK SMILES IDX 19 25 23 26 20 27 22 28 21 29
REMARK H PARENT 9 4 17 23
ROOT
ATOM      1  N   UNL     1       4.037  45.449  51.765  1.00  0.00    -0.283 N 
ATOM      2  C   UNL     1       2.686  45.881  51.990  1.00  0.00     0.323 C 
ATOM      3  O   UNL     1       2.464  47.033  52.453  1.00  0.00    -0.248 OA
ATOM      4  H   UNL     1       4.209  44.709  51.049  1.00  0.00     0.174 HD
ENDROOT
BRANCH   1   5
ATOM      5  C   UNL     1       5.179  46.003  52.433  1.00  0.00     0.193 A 
ATOM      6  C   UNL     1       8.962  47.666  54.635  1.00  0.00     0.214 A 
ATOM      7  C   UNL     1       9.456  47.481  53.325  1.00  0.00     0.071 A 
ATOM      8  N   UNL     1       7.661  47.359  54.925  1.00  0.00    -0.201 NA
ATOM      9  C   UNL     1       8.613  46.980  52.321  1.00  0.00     0.037 A 
ATOM     10  C   UNL     1       6.855  46.877  53.948  1.00  0.00     0.149 A 
ATOM     11  C   UNL     1       7.295  46.679  52.655  1.00  0.00     0.103 A 
ATOM     12  S   UNL     1       5.246  46.430  54.081  1.00  0.00    -0.076 S 
ATOM     13  N   UNL     1       6.366  46.185  51.800  1.00  0.00    -0.218 NA
BRANCH   6  14
ATOM     14  O   UNL     1       9.815  48.166  55.623  1.00  0.00    -0.481 OA
ATOM     15  C   UNL     1      10.978  47.473  56.057  1.00  0.00     0.280 C 
ENDBRANCH   6  14
ENDBRANCH   1   5
BRANCH   2  16
ATOM     16  N   UNL     1       1.578  45.025  51.645  1.00  0.00    -0.322 N 
ATOM     17  C   UNL     1       1.789  43.740  50.969  1.00  0.00     0.121 C 
ATOM     18  C   UNL     1       0.243  45.260  52.204  1.00  0.00     0.146 C 
ATOM     19  C   UNL     1       1.476  42.594  51.938  1.00  0.00     0.024 C 
ATOM     20  C   UNL     1      -0.094  44.164  53.232  1.00  0.00     0.098 C 
ATOM     21  C   UNL     1       0.091  42.770  52.587  1.00  0.00     0.028 C 
BRANCH  20  22
ATOM     22  N   UNL     1       0.741  44.304  54.436  1.00  0.00    -0.381 N 
ATOM     23  H   UNL     1       1.660  43.807  54.467  1.00  0.00     0.160 HD
BRANCH  22  24
ATOM     24  C   UNL     1       0.385  45.094  55.589  1.00  0.00     0.034 A 
ATOM     25  C   UNL     1       1.355  45.585  56.487  1.00  0.00     0.025 A 
ATOM     26  C   UNL     1      -0.968  45.391  55.821  1.00  0.00     0.025 A 
ATOM     27  C   UNL     1       0.968  46.344  57.596  1.00  0.00     0.002 A 
ATOM     28  C   UNL     1      -1.349  46.151  56.932  1.00  0.00     0.002 A 
ATOM     29  C   UNL     1      -0.381  46.625  57.819  1.00  0.00     0.000 A 
ENDBRANCH  22  24
ENDBRANCH  20  22
ENDBRANCH   2  16
TORSDOF 5
ENDMDL
MODEL 4
REMARK VINA RESULT:    -8.282      4.208      6.137
REMARK INTER + INTRA:         -11.392
REMARK INTER:                 -10.504
REMARK INTRA:                  -0.888
REMARK UNBOUND:                -0.689
REMARK SMILES COc1ccc2nc(NC(=O)N3CCC[C@@H](Nc4ccccc4)C3)sc2n1
REMARK SMILES IDX 9 1 10 2 11 3 8 5 3 6 4 7 27 8 5 9 26 10 6 11 25 12 7 13
REMARK SMILES IDX 2 14 1 15 12 16 13 17 24 18 14 19 16 20 15 21 17 22 18 24
REMARK SMILES IDX 19 25 23 26 20 27 22 28 21 29
REMARK H PARENT 9 4 17 23
ROOT
ATOM      1  N   UNL     1       1.763  45.186  53.881  1.00  0.00    -0.283 N 
ATOM      2  C   UNL     1       2.583  46.290  53.466  1.00  0.00     0.323 C 
ATOM      3  O   UNL     1       2.145  47.113  52.617  1.00  0.00    -0.248 OA
ATOM      4  H   UNL     1       1.938  44.762  54.819  1.00  0.00     0.174 HD
ENDROOT
BRANCH   1   5
ATOM      5  C   UNL     1       0.680  44.653  53.104  1.00  0.00     0.193 A 
ATOM      6  C   UNL     1      -2.831  42.775  50.643  1.00  0.00     0.214 A 
ATOM      7  C   UNL     1      -3.487  43.132  51.841  1.00  0.00     0.071 A 
ATOM      8  N   UNL     1      -1.495  43.026  50.492  1.00  0.00    -0.201 NA
ATOM      9  C   UNL     1      -2.766  43.743  52.880  1.00  0.00     0.037 A 
ATOM     10  C   UNL     1      -0.810  43.618  51.500  1.00  0.00     0.149 A 
ATOM     11  C   UNL     1      -1.408  43.983  52.688  1.00  0.00     0.103 A 
ATOM     12  S   UNL     1       0.819  44.007  51.534  1.00  0.00    -0.076 S 
ATOM     13  N   UNL     1      -0.581  44.558  53.596  1.00  0.00    -0.218 NA
BRANCH   6  14
ATOM     14  O   UNL     1      -3.564  42.166  49.619  1.00  0.00    -0.481 OA
ATOM     15  C   UNL     1      -3.619  40.756  49.447  1.00  0.00     0.280 C 
ENDBRANCH   6  14
ENDBRANCH   1   5
BRANCH   2  16
ATOM     16  N   UNL     1       3.886  46.491  54.049  1.00  0.00    -0.322 N 
ATOM     17  C   UNL     1       4.429  45.558  55.042  1.00  0.00     0.121 C 
ATOM     18  C   UNL     1       4.828  47.456  53.471  1.00  0.00     0.146 C 
ATOM     19  C   UNL     1       5.590  44.770  54.425  1.00  0.00     0.024 C 
ATOM     20  C   UNL     1       5.985  46.708  52.784  1.00  0.00     0.098 C 
ATOM     21  C   UNL     1       6.624  45.710  53.778  1.00  0.00     0.028 C 
BRANCH  20  22
ATOM     22  N   UNL     1       5.514  46.019  51.572  1.00  0.00    -0.381 N 
ATOM     23  H   UNL     1       4.533  46.185  51.251  1.00  0.00     0.160 HD
BRANCH  22  24
ATOM     24  C   UNL     1       6.318  45.124  50.776  1.00  0.00     0.034 A 
ATOM     25  C   UNL     1       7.615  45.469  50.341  1.00  0.00     0.025 A 
ATOM     26  C   UNL     1       5.799  43.866  50.429  1.00  0.00     0.025 A 
ATOM     27  C   UNL     1       8.360  44.575  49.567  1.00  0.00     0.002 A 
ATOM     28  C   UNL     1       6.549  42.975  49.655  1.00  0.00     0.002 A 
ATOM     29  C   UNL     1       7.828  43.331  49.223  1.00  0.00     0.000 A 
ENDBRANCH  22  24
ENDBRANCH  20  22
ENDBRANCH   2  16
TORSDOF 5
ENDMDL
MODEL 5
REMARK VINA RESULT:    -8.195      2.963      4.803
REMARK INTER + INTRA:         -11.280
REMARK INTER:                 -10.363
REMARK INTRA:                  -0.916
REMARK UNBOUND:                -0.689
REMARK SMILES COc1ccc2nc(NC(=O)N3CCC[C@@H](Nc4ccccc4)C3)sc2n1
REMARK SMILES IDX 9 1 10 2 11 3 8 5 3 6 4 7 27 8 5 9 26 10 6 11 25 12 7 13
REMARK SMILES IDX 2 14 1 15 12 16 13 17 24 18 14 19 16 20 15 21 17 22 18 24
REMARK SMILES IDX 19 25 23 26 20 27 22 28 21 29
REMARK H PARENT 9 4 17 23
ROOT
ATOM      1  N   UNL     1       2.460  45.448  52.462  1.00  0.00    -0.283 N 
ATOM      2  C   UNL     1       3.848  45.291  52.796  1.00  0.00     0.323 C 
ATOM      3  O   UNL     1       4.198  44.409  53.626  1.00  0.00    -0.248 OA
ATOM      4  H   UNL     1       2.214  45.865  51.537  1.00  0.00     0.174 HD
ENDROOT
BRANCH   1   5
ATOM      5  C   UNL     1       1.379  45.026  53.306  1.00  0.00     0.193 A 
ATOM      6  C   UNL     1      -2.048  43.548  56.133  1.00  0.00     0.214 A 
ATOM      7  C   UNL     1      -1.410  44.512  56.944  1.00  0.00     0.071 A 
ATOM      8  N   UNL     1      -1.582  43.297  54.872  1.00  0.00    -0.201 NA
ATOM      9  C   UNL     1      -0.296  45.213  56.455  1.00  0.00     0.037 A 
ATOM     10  C   UNL     1      -0.507  43.980  54.410  1.00  0.00     0.149 A 
ATOM     11  C   UNL     1       0.148  44.931  55.166  1.00  0.00     0.103 A 
ATOM     12  S   UNL     1       0.232  43.830  52.914  1.00  0.00    -0.076 S 
ATOM     13  N   UNL     1       1.210  45.518  54.560  1.00  0.00    -0.218 NA
BRANCH   6  14
ATOM     14  O   UNL     1      -3.156  42.858  56.635  1.00  0.00    -0.481 OA
ATOM     15  C   UNL     1      -3.521  42.886  58.009  1.00  0.00     0.280 C 
ENDBRANCH   6  14
ENDBRANCH   1   5
BRANCH   2  16
ATOM     16  N   UNL     1       4.850  46.102  52.150  1.00  0.00    -0.322 N 
ATOM     17  C   UNL     1       5.815  46.886  52.929  1.00  0.00     0.121 C 
ATOM     18  C   UNL     1       5.130  45.952  50.718  1.00  0.00     0.146 C 
ATOM     19  C   UNL     1       7.211  46.272  52.784  1.00  0.00     0.024 C 
ATOM     20  C   UNL     1       6.502  45.280  50.522  1.00  0.00     0.098 C 
ATOM     21  C   UNL     1       7.583  46.063  51.305  1.00  0.00     0.028 C 
BRANCH  20  22
ATOM     22  N   UNL     1       6.458  43.872  50.946  1.00  0.00    -0.381 N 
ATOM     23  H   UNL     1       6.969  43.595  51.815  1.00  0.00     0.160 HD
BRANCH  22  24
ATOM     24  C   UNL     1       5.747  42.831  50.247  1.00  0.00     0.034 A 
ATOM     25  C   UNL     1       6.153  42.366  48.979  1.00  0.00     0.025 A 
ATOM     26  C   UNL     1       4.617  42.253  50.851  1.00  0.00     0.025 A 
ATOM     27  C   UNL     1       5.433  41.357  48.333  1.00  0.00     0.002 A 
ATOM     28  C   UNL     1       3.900  41.244  50.200  1.00  0.00     0.002 A 
ATOM     29  C   UNL     1       4.307  40.798  48.941  1.00  0.00     0.000 A 
ENDBRANCH  22  24
ENDBRANCH  20  22
ENDBRANCH   2  16
TORSDOF 5
ENDMDL
