ligand_61_conformer_4_docked
     RDKit          3D

 41 44  0  0  0  0  0  0  0  0999 V2000
    1.2950   43.4680   53.6940 O   0  0  0  0  0  0  0  0  0  0  0  0
    0.8370   44.5670   54.1100 C   0  0  0  0  0  0  0  0  0  0  0  0
    1.2710   45.7960   53.5010 N   0  0  0  0  0  0  0  0  0  0  0  0
    2.5030   45.9300   52.7710 C   0  0  0  0  0  0  0  0  0  0  0  0
    2.4900   45.8220   51.3730 C   0  0  0  0  0  0  0  0  0  0  0  0
    3.6700   45.9730   50.6430 C   0  0  0  0  0  0  0  0  0  0  0  0
    4.8730   46.2410   51.2990 C   0  0  0  0  0  0  0  0  0  0  0  0
    4.9070   46.3650   52.6990 C   0  0  0  0  0  0  0  0  0  0  0  0
    6.1850   46.6610   53.3850 C   0  0  0  0  0  0  0  0  0  0  0  0
    6.2900   47.0610   54.6730 N   0  0  0  0  0  0  0  0  0  0  0  0
    7.5640   47.2660   54.9820 N   0  0  0  0  0  0  0  0  0  0  0  0
    8.2840   46.9850   53.8820 C   0  0  0  0  0  0  0  0  0  0  0  0
    7.4630   46.6250   52.8550 C   0  0  0  0  0  0  0  0  0  0  0  0
    8.0010   46.3030   51.4920 C   0  0  0  0  0  0  0  0  0  0  0  0
    9.2800   46.9020   51.3090 O   0  0  0  0  0  0  0  0  0  0  0  0
   10.1720   46.5290   52.3560 C   0  0  0  0  0  0  0  0  0  0  0  0
    9.7550   47.1610   53.7030 C   0  0  0  0  0  0  0  0  0  0  0  0
    3.7120   46.2250   53.4260 C   0  0  0  0  0  0  0  0  0  0  0  0
   -0.1820   44.5710   55.1880 C   0  0  0  0  0  0  0  0  0  0  0  0
    0.0270   45.2790   56.3850 C   0  0  0  0  0  0  0  0  0  0  0  0
   -0.9160   45.2610   57.3660 N   0  0  0  0  0  0  0  0  0  0  0  0
   -2.0770   44.5700   57.2320 C   0  0  0  0  0  0  0  0  0  0  0  0
   -2.3280   43.8420   56.0650 C   0  0  0  0  0  0  0  0  0  0  0  0
   -3.5100   43.1230   55.9100 O   0  0  0  0  0  0  0  0  0  0  0  0
   -1.3740   43.8420   55.0450 C   0  0  0  0  0  0  0  0  0  0  0  0
    0.6060   46.6000   53.4880 H   0  0  0  0  0  0  0  0  0  0  0  0
    1.5448   45.6172   50.8489 H   0  0  0  0  0  0  0  0  0  0  0  0
    3.6521   45.8805   49.5470 H   0  0  0  0  0  0  0  0  0  0  0  0
    5.7994   46.3558   50.7171 H   0  0  0  0  0  0  0  0  0  0  0  0
    5.5030   47.1890   55.3480 H   0  0  0  0  0  0  0  0  0  0  0  0
    8.0934   45.2119   51.3873 H   0  0  0  0  0  0  0  0  0  0  0  0
    7.3099   46.6983   50.7330 H   0  0  0  0  0  0  0  0  0  0  0  0
   10.1667   45.4337   52.4576 H   0  0  0  0  0  0  0  0  0  0  0  0
   11.1782   46.8921   52.0997 H   0  0  0  0  0  0  0  0  0  0  0  0
   10.2896   46.6639   54.5258 H   0  0  0  0  0  0  0  0  0  0  0  0
   10.0065   48.2319   53.7071 H   0  0  0  0  0  0  0  0  0  0  0  0
    3.7227   46.3475   54.5191 H   0  0  0  0  0  0  0  0  0  0  0  0
    0.9564   45.8496   56.5289 H   0  0  0  0  0  0  0  0  0  0  0  0
   -2.8208   44.5829   58.0423 H   0  0  0  0  0  0  0  0  0  0  0  0
   -3.5930   42.1660   56.2350 H   0  0  0  0  0  0  0  0  0  0  0  0
   -1.5571   43.2680   54.1247 H   0  0  0  0  0  0  0  0  0  0  0  0
  1  2  2  0
  2  3  1  0
  3  4  1  0
  4  5  2  0
  5  6  1  0
  6  7  2  0
  7  8  1  0
  8  9  1  0
  9 10  1  0
 10 11  1  0
 11 12  2  0
 12 13  1  0
 13 14  1  0
 14 15  1  0
 15 16  1  0
 16 17  1  0
  8 18  2  0
  2 19  1  0
 19 20  2  0
 20 21  1  0
 21 22  2  0
 22 23  1  0
 23 24  1  0
 23 25  2  0
 18  4  1  0
 25 19  1  0
 13  9  2  0
 17 12  1  0
  3 26  1  0
  5 27  1  0
  6 28  1  0
  7 29  1  0
 10 30  1  0
 14 31  1  0
 14 32  1  0
 16 33  1  0
 16 34  1  0
 17 35  1  0
 17 36  1  0
 18 37  1  0
 20 38  1  0
 22 39  1  0
 24 40  1  0
 25 41  1  0
M  END
>  <meeko>  (1) 
{"is_sidechain": [false], "free_energy": -9.29, "intermolecular_energy": -11.191, "internal_energy": -0.218}

$$$$
ligand_61_conformer_4_docked
     RDKit          3D

 41 44  0  0  0  0  0  0  0  0999 V2000
    1.0250   45.6210   53.1120 O   0  0  0  0  0  0  0  0  0  0  0  0
    1.1920   44.8430   54.0900 C   0  0  0  0  0  0  0  0  0  0  0  0
    2.4360   44.1320   54.2300 N   0  0  0  0  0  0  0  0  0  0  0  0
    3.3340   43.8770   53.1370 C   0  0  0  0  0  0  0  0  0  0  0  0
    3.0420   42.8470   52.2320 C   0  0  0  0  0  0  0  0  0  0  0  0
    3.8870   42.5980   51.1490 C   0  0  0  0  0  0  0  0  0  0  0  0
    5.0280   43.3790   50.9550 C   0  0  0  0  0  0  0  0  0  0  0  0
    5.3350   44.4240   51.8430 C   0  0  0  0  0  0  0  0  0  0  0  0
    6.5400   45.2540   51.6220 C   0  0  0  0  0  0  0  0  0  0  0  0
    7.2020   45.3480   50.4450 N   0  0  0  0  0  0  0  0  0  0  0  0
    8.2500   46.1510   50.5780 N   0  0  0  0  0  0  0  0  0  0  0  0
    8.2550   46.5830   51.8510 C   0  0  0  0  0  0  0  0  0  0  0  0
    7.2180   46.0310   52.5450 C   0  0  0  0  0  0  0  0  0  0  0  0
    7.0130   46.3050   54.0050 C   0  0  0  0  0  0  0  0  0  0  0  0
    8.2330   46.7240   54.6080 O   0  0  0  0  0  0  0  0  0  0  0  0
    8.7890   47.8370   53.9110 C   0  0  0  0  0  0  0  0  0  0  0  0
    9.2940   47.4270   52.5090 C   0  0  0  0  0  0  0  0  0  0  0  0
    4.4710   44.6770   52.9230 C   0  0  0  0  0  0  0  0  0  0  0  0
    0.1220   44.7100   55.1080 C   0  0  0  0  0  0  0  0  0  0  0  0
    0.2890   45.2090   56.4120 C   0  0  0  0  0  0  0  0  0  0  0  0
   -0.7010   45.0680   57.3330 N   0  0  0  0  0  0  0  0  0  0  0  0
   -1.8730   44.4480   57.0380 C   0  0  0  0  0  0  0  0  0  0  0  0
   -2.0850   43.9250   55.7580 C   0  0  0  0  0  0  0  0  0  0  0  0
   -3.2770   43.2810   55.4370 O   0  0  0  0  0  0  0  0  0  0  0  0
   -1.0820   44.0550   54.7960 C   0  0  0  0  0  0  0  0  0  0  0  0
    2.7580   43.8910   55.1940 H   0  0  0  0  0  0  0  0  0  0  0  0
    2.1418   42.2314   52.3760 H   0  0  0  0  0  0  0  0  0  0  0  0
    3.6533   41.7843   50.4466 H   0  0  0  0  0  0  0  0  0  0  0  0
    5.6911   43.1749   50.1014 H   0  0  0  0  0  0  0  0  0  0  0  0
    6.9430   44.8780   49.5500 H   0  0  0  0  0  0  0  0  0  0  0  0
    6.2597   47.0979   54.1226 H   0  0  0  0  0  0  0  0  0  0  0  0
    6.6708   45.3823   54.4964 H   0  0  0  0  0  0  0  0  0  0  0  0
    8.0169   48.6127   53.8009 H   0  0  0  0  0  0  0  0  0  0  0  0
    9.6434   48.2173   54.4900 H   0  0  0  0  0  0  0  0  0  0  0  0
    9.4764   48.3274   51.9040 H   0  0  0  0  0  0  0  0  0  0  0  0
   10.2323   46.8603   52.6010 H   0  0  0  0  0  0  0  0  0  0  0  0
    4.6866   45.5100   53.6083 H   0  0  0  0  0  0  0  0  0  0  0  0
    1.2253   45.7160   56.6882 H   0  0  0  0  0  0  0  0  0  0  0  0
   -2.6555   44.3572   57.8057 H   0  0  0  0  0  0  0  0  0  0  0  0
   -3.2830   42.3850   54.9620 H   0  0  0  0  0  0  0  0  0  0  0  0
   -1.2346   43.6425   53.7878 H   0  0  0  0  0  0  0  0  0  0  0  0
  1  2  2  0
  2  3  1  0
  3  4  1  0
  4  5  2  0
  5  6  1  0
  6  7  2  0
  7  8  1  0
  8  9  1  0
  9 10  1  0
 10 11  1  0
 11 12  2  0
 12 13  1  0
 13 14  1  0
 14 15  1  0
 15 16  1  0
 16 17  1  0
  8 18  2  0
  2 19  1  0
 19 20  2  0
 20 21  1  0
 21 22  2  0
 22 23  1  0
 23 24  1  0
 23 25  2  0
 18  4  1  0
 25 19  1  0
 13  9  2  0
 17 12  1  0
  3 26  1  0
  5 27  1  0
  6 28  1  0
  7 29  1  0
 10 30  1  0
 14 31  1  0
 14 32  1  0
 16 33  1  0
 16 34  1  0
 17 35  1  0
 17 36  1  0
 18 37  1  0
 20 38  1  0
 22 39  1  0
 24 40  1  0
 25 41  1  0
M  END
>  <meeko>  (2) 
{"is_sidechain": [false], "free_energy": -9.124, "intermolecular_energy": -10.899, "internal_energy": -0.309}

$$$$
ligand_61_conformer_4_docked
     RDKit          3D

 41 44  0  0  0  0  0  0  0  0999 V2000
    6.1460   41.2630   49.8460 O   0  0  0  0  0  0  0  0  0  0  0  0
    6.0060   41.7820   48.7050 C   0  0  0  0  0  0  0  0  0  0  0  0
    6.8480   42.8810   48.3140 N   0  0  0  0  0  0  0  0  0  0  0  0
    7.5280   43.7340   49.2510 C   0  0  0  0  0  0  0  0  0  0  0  0
    8.9280   43.8080   49.2260 C   0  0  0  0  0  0  0  0  0  0  0  0
    9.6060   44.6490   50.1100 C   0  0  0  0  0  0  0  0  0  0  0  0
    8.8940   45.4300   51.0230 C   0  0  0  0  0  0  0  0  0  0  0  0
    7.4900   45.3800   51.0580 C   0  0  0  0  0  0  0  0  0  0  0  0
    6.7440   46.2210   52.0210 C   0  0  0  0  0  0  0  0  0  0  0  0
    7.0390   47.5100   52.3050 N   0  0  0  0  0  0  0  0  0  0  0  0
    6.2020   47.9760   53.2220 N   0  0  0  0  0  0  0  0  0  0  0  0
    5.3530   46.9780   53.5230 C   0  0  0  0  0  0  0  0  0  0  0  0
    5.6690   45.8560   52.8130 C   0  0  0  0  0  0  0  0  0  0  0  0
    4.9120   44.5740   52.9900 C   0  0  0  0  0  0  0  0  0  0  0  0
    4.2620   44.5510   54.2570 O   0  0  0  0  0  0  0  0  0  0  0  0
    3.4420   45.7030   54.4300 C   0  0  0  0  0  0  0  0  0  0  0  0
    4.2940   46.9840   54.5730 C   0  0  0  0  0  0  0  0  0  0  0  0
    6.8140   44.5410   50.1550 C   0  0  0  0  0  0  0  0  0  0  0  0
    5.0070   41.2180   47.7650 C   0  0  0  0  0  0  0  0  0  0  0  0
    3.9410   40.4240   48.2230 C   0  0  0  0  0  0  0  0  0  0  0  0
    3.0410   39.9080   47.3430 N   0  0  0  0  0  0  0  0  0  0  0  0
    3.1350   40.1330   46.0070 C   0  0  0  0  0  0  0  0  0  0  0  0
    4.1830   40.9080   45.4990 C   0  0  0  0  0  0  0  0  0  0  0  0
    4.3000   41.1460   44.1320 O   0  0  0  0  0  0  0  0  0  0  0  0
    5.1210   41.4460   46.3830 C   0  0  0  0  0  0  0  0  0  0  0  0
    7.0710   42.9930   47.3000 H   0  0  0  0  0  0  0  0  0  0  0  0
    9.4951   43.2000   48.5058 H   0  0  0  0  0  0  0  0  0  0  0  0
   10.7047   44.6968   50.0875 H   0  0  0  0  0  0  0  0  0  0  0  0
    9.4353   46.0880   51.7187 H   0  0  0  0  0  0  0  0  0  0  0  0
    7.8010   48.0800   51.8750 H   0  0  0  0  0  0  0  0  0  0  0  0
    4.1577   44.4859   52.1942 H   0  0  0  0  0  0  0  0  0  0  0  0
    5.6186   43.7326   52.9366 H   0  0  0  0  0  0  0  0  0  0  0  0
    2.7823   45.8075   53.5560 H   0  0  0  0  0  0  0  0  0  0  0  0
    2.8529   45.5741   55.3500 H   0  0  0  0  0  0  0  0  0  0  0  0
    3.6538   47.8696   54.4470 H   0  0  0  0  0  0  0  0  0  0  0  0
    4.7573   47.0147   55.5702 H   0  0  0  0  0  0  0  0  0  0  0  0
    5.7143   44.5154   50.1554 H   0  0  0  0  0  0  0  0  0  0  0  0
    3.8341   40.2189   49.2984 H   0  0  0  0  0  0  0  0  0  0  0  0
    2.3864   39.7055   45.3237 H   0  0  0  0  0  0  0  0  0  0  0  0
    3.7080   41.8210   43.6600 H   0  0  0  0  0  0  0  0  0  0  0  0
    5.9535   42.0515   45.9953 H   0  0  0  0  0  0  0  0  0  0  0  0
  1  2  2  0
  2  3  1  0
  3  4  1  0
  4  5  2  0
  5  6  1  0
  6  7  2  0
  7  8  1  0
  8  9  1  0
  9 10  1  0
 10 11  1  0
 11 12  2  0
 12 13  1  0
 13 14  1  0
 14 15  1  0
 15 16  1  0
 16 17  1  0
  8 18  2  0
  2 19  1  0
 19 20  2  0
 20 21  1  0
 21 22  2  0
 22 23  1  0
 23 24  1  0
 23 25  2  0
 18  4  1  0
 25 19  1  0
 13  9  2  0
 17 12  1  0
  3 26  1  0
  5 27  1  0
  6 28  1  0
  7 29  1  0
 10 30  1  0
 14 31  1  0
 14 32  1  0
 16 33  1  0
 16 34  1  0
 17 35  1  0
 17 36  1  0
 18 37  1  0
 20 38  1  0
 22 39  1  0
 24 40  1  0
 25 41  1  0
M  END
>  <meeko>  (3) 
{"is_sidechain": [false], "free_energy": -8.807, "intermolecular_energy": -10.348, "internal_energy": -0.48}

$$$$
ligand_61_conformer_4_docked
     RDKit          3D

 41 44  0  0  0  0  0  0  0  0999 V2000
    5.0880   46.8120   51.9970 O   0  0  0  0  0  0  0  0  0  0  0  0
    5.9370   45.9810   52.4220 C   0  0  0  0  0  0  0  0  0  0  0  0
    5.5690   44.5970   52.5640 N   0  0  0  0  0  0  0  0  0  0  0  0
    4.2110   44.1440   52.6950 C   0  0  0  0  0  0  0  0  0  0  0  0
    3.6940   43.2380   51.7580 C   0  0  0  0  0  0  0  0  0  0  0  0
    2.3850   42.7670   51.8800 C   0  0  0  0  0  0  0  0  0  0  0  0
    1.5830   43.1890   52.9420 C   0  0  0  0  0  0  0  0  0  0  0  0
    2.0840   44.0880   53.8980 C   0  0  0  0  0  0  0  0  0  0  0  0
    1.2290   44.5200   55.0270 C   0  0  0  0  0  0  0  0  0  0  0  0
    1.6900   45.0870   56.1660 N   0  0  0  0  0  0  0  0  0  0  0  0
    0.6800   45.3380   56.9890 N   0  0  0  0  0  0  0  0  0  0  0  0
   -0.4420   44.9380   56.3660 C   0  0  0  0  0  0  0  0  0  0  0  0
   -0.1440   44.4010   55.1480 C   0  0  0  0  0  0  0  0  0  0  0  0
   -1.2080   43.8290   54.2580 C   0  0  0  0  0  0  0  0  0  0  0  0
   -2.3540   43.4680   55.0230 O   0  0  0  0  0  0  0  0  0  0  0  0
   -2.8180   44.5710   55.7970 C   0  0  0  0  0  0  0  0  0  0  0  0
   -1.8240   44.9220   56.9270 C   0  0  0  0  0  0  0  0  0  0  0  0
    3.4070   44.5470   53.7760 C   0  0  0  0  0  0  0  0  0  0  0  0
    7.3160   46.4360   52.7220 C   0  0  0  0  0  0  0  0  0  0  0  0
    8.3830   46.1520   51.8520 C   0  0  0  0  0  0  0  0  0  0  0  0
    9.6420   46.5700   52.1500 N   0  0  0  0  0  0  0  0  0  0  0  0
    9.9170   47.2660   53.2840 C   0  0  0  0  0  0  0  0  0  0  0  0
    8.8930   47.5650   54.1870 C   0  0  0  0  0  0  0  0  0  0  0  0
    9.1540   48.2730   55.3570 O   0  0  0  0  0  0  0  0  0  0  0  0
    7.5920   47.1440   53.9040 C   0  0  0  0  0  0  0  0  0  0  0  0
    6.3160   43.8760   52.4500 H   0  0  0  0  0  0  0  0  0  0  0  0
    4.3227   42.8965   50.9225 H   0  0  0  0  0  0  0  0  0  0  0  0
    1.9846   42.0614   51.1371 H   0  0  0  0  0  0  0  0  0  0  0  0
    0.5523   42.8151   53.0307 H   0  0  0  0  0  0  0  0  0  0  0  0
    2.6860   45.3110   56.3870 H   0  0  0  0  0  0  0  0  0  0  0  0
   -1.4951   44.5802   53.5075 H   0  0  0  0  0  0  0  0  0  0  0  0
   -0.8129   42.9305   53.7615 H   0  0  0  0  0  0  0  0  0  0  0  0
   -2.9366   45.4451   55.1399 H   0  0  0  0  0  0  0  0  0  0  0  0
   -3.7795   44.2942   56.2541 H   0  0  0  0  0  0  0  0  0  0  0  0
   -2.0672   45.9128   57.3383 H   0  0  0  0  0  0  0  0  0  0  0  0
   -1.8921   44.1730   57.7297 H   0  0  0  0  0  0  0  0  0  0  0  0
    3.8180   45.2292   54.5347 H   0  0  0  0  0  0  0  0  0  0  0  0
    8.1984   45.5887   50.9254 H   0  0  0  0  0  0  0  0  0  0  0  0
   10.9461   47.5943   53.4915 H   0  0  0  0  0  0  0  0  0  0  0  0
    9.8220   47.9360   56.0420 H   0  0  0  0  0  0  0  0  0  0  0  0
    6.7788   47.3678   54.6102 H   0  0  0  0  0  0  0  0  0  0  0  0
  1  2  2  0
  2  3  1  0
  3  4  1  0
  4  5  2  0
  5  6  1  0
  6  7  2  0
  7  8  1  0
  8  9  1  0
  9 10  1  0
 10 11  1  0
 11 12  2  0
 12 13  1  0
 13 14  1  0
 14 15  1  0
 15 16  1  0
 16 17  1  0
  8 18  2  0
  2 19  1  0
 19 20  2  0
 20 21  1  0
 21 22  2  0
 22 23  1  0
 23 24  1  0
 23 25  2  0
 18  4  1  0
 25 19  1  0
 13  9  2  0
 17 12  1  0
  3 26  1  0
  5 27  1  0
  6 28  1  0
  7 29  1  0
 10 30  1  0
 14 31  1  0
 14 32  1  0
 16 33  1  0
 16 34  1  0
 17 35  1  0
 17 36  1  0
 18 37  1  0
 20 38  1  0
 22 39  1  0
 24 40  1  0
 25 41  1  0
M  END
>  <meeko>  (4) 
{"is_sidechain": [false], "free_energy": -8.718, "intermolecular_energy": -10.532, "internal_energy": -0.188}

$$$$
ligand_61_conformer_4_docked
     RDKit          3D

 41 44  0  0  0  0  0  0  0  0999 V2000
    1.4480   46.0590   53.0060 O   0  0  0  0  0  0  0  0  0  0  0  0
    1.7260   45.7490   54.1960 C   0  0  0  0  0  0  0  0  0  0  0  0
    3.0690   45.9220   54.6820 N   0  0  0  0  0  0  0  0  0  0  0  0
    4.2220   45.9900   53.8250 C   0  0  0  0  0  0  0  0  0  0  0  0
    5.1580   47.0190   54.0100 C   0  0  0  0  0  0  0  0  0  0  0  0
    6.2960   47.0900   53.2050 C   0  0  0  0  0  0  0  0  0  0  0  0
    6.5170   46.1320   52.2130 C   0  0  0  0  0  0  0  0  0  0  0  0
    5.5980   45.0860   52.0180 C   0  0  0  0  0  0  0  0  0  0  0  0
    5.8470   44.0690   50.9710 C   0  0  0  0  0  0  0  0  0  0  0  0
    6.9160   44.0660   50.1420 N   0  0  0  0  0  0  0  0  0  0  0  0
    6.8370   43.0390   49.3050 N   0  0  0  0  0  0  0  0  0  0  0  0
    5.7110   42.3710   49.6080 C   0  0  0  0  0  0  0  0  0  0  0  0
    5.0490   42.9920   50.6270 C   0  0  0  0  0  0  0  0  0  0  0  0
    3.7330   42.4840   51.1350 C   0  0  0  0  0  0  0  0  0  0  0  0
    3.0900   41.6910   50.1440 O   0  0  0  0  0  0  0  0  0  0  0  0
    3.9460   40.6440   49.6940 C   0  0  0  0  0  0  0  0  0  0  0  0
    5.1360   41.2020   48.8810 C   0  0  0  0  0  0  0  0  0  0  0  0
    4.4610   45.0140   52.8410 C   0  0  0  0  0  0  0  0  0  0  0  0
    0.6510   45.2580   55.0920 C   0  0  0  0  0  0  0  0  0  0  0  0
    0.7110   45.4610   56.4820 C   0  0  0  0  0  0  0  0  0  0  0  0
   -0.2800   44.9930   57.2880 N   0  0  0  0  0  0  0  0  0  0  0  0
   -1.3510   44.3210   56.7910 C   0  0  0  0  0  0  0  0  0  0  0  0
   -1.4530   44.0850   55.4160 C   0  0  0  0  0  0  0  0  0  0  0  0
   -2.5390   43.3930   54.8870 O   0  0  0  0  0  0  0  0  0  0  0  0
   -0.4460   44.5520   54.5690 C   0  0  0  0  0  0  0  0  0  0  0  0
    3.2030   46.1230   55.6970 H   0  0  0  0  0  0  0  0  0  0  0  0
    4.9940   47.7735   54.7935 H   0  0  0  0  0  0  0  0  0  0  0  0
    7.0215   47.9035   53.3524 H   0  0  0  0  0  0  0  0  0  0  0  0
    7.4149   46.1962   51.5809 H   0  0  0  0  0  0  0  0  0  0  0  0
    7.7030   44.7510   50.1440 H   0  0  0  0  0  0  0  0  0  0  0  0
    3.9032   41.8729   52.0336 H   0  0  0  0  0  0  0  0  0  0  0  0
    3.0893   43.3425   51.3772 H   0  0  0  0  0  0  0  0  0  0  0  0
    4.3331   40.0976   50.5667 H   0  0  0  0  0  0  0  0  0  0  0  0
    3.3639   39.9752   49.0430 H   0  0  0  0  0  0  0  0  0  0  0  0
    5.9042   40.4228   48.7684 H   0  0  0  0  0  0  0  0  0  0  0  0
    4.7926   41.5149   47.8839 H   0  0  0  0  0  0  0  0  0  0  0  0
    3.7497   44.1846   52.7140 H   0  0  0  0  0  0  0  0  0  0  0  0
    1.5635   46.0009   56.9199 H   0  0  0  0  0  0  0  0  0  0  0  0
   -2.1384   43.9623   57.4702 H   0  0  0  0  0  0  0  0  0  0  0  0
   -3.0540   43.7480   54.0890 H   0  0  0  0  0  0  0  0  0  0  0  0
   -0.5116   44.3664   53.4868 H   0  0  0  0  0  0  0  0  0  0  0  0
  1  2  2  0
  2  3  1  0
  3  4  1  0
  4  5  2  0
  5  6  1  0
  6  7  2  0
  7  8  1  0
  8  9  1  0
  9 10  1  0
 10 11  1  0
 11 12  2  0
 12 13  1  0
 13 14  1  0
 14 15  1  0
 15 16  1  0
 16 17  1  0
  8 18  2  0
  2 19  1  0
 19 20  2  0
 20 21  1  0
 21 22  2  0
 22 23  1  0
 23 24  1  0
 23 25  2  0
 18  4  1  0
 25 19  1  0
 13  9  2  0
 17 12  1  0
  3 26  1  0
  5 27  1  0
  6 28  1  0
  7 29  1  0
 10 30  1  0
 14 31  1  0
 14 32  1  0
 16 33  1  0
 16 34  1  0
 17 35  1  0
 17 36  1  0
 18 37  1  0
 20 38  1  0
 22 39  1  0
 24 40  1  0
 25 41  1  0
M  END
>  <meeko>  (5) 
{"is_sidechain": [false], "free_energy": -8.264, "intermolecular_energy": -10.021, "internal_energy": -0.152}

$$$$
