ligand_35_conformer_4_docked
     RDKit          3D

 41 43  0  0  0  0  0  0  0  0999 V2000
   10.1190   47.2480   54.3380 C   0  0  0  0  0  0  0  0  0  0  0  0
    9.2770   47.2950   53.1880 O   0  0  0  0  0  0  0  0  0  0  0  0
    7.9100   46.9840   53.1960 C   0  0  0  0  0  0  0  0  0  0  0  0
    7.1740   46.7860   52.0100 C   0  0  0  0  0  0  0  0  0  0  0  0
    5.8150   46.4620   52.0690 C   0  0  0  0  0  0  0  0  0  0  0  0
    5.1680   46.3350   53.3090 C   0  0  0  0  0  0  0  0  0  0  0  0
    3.7380   45.9700   53.3640 C   0  0  0  0  0  0  0  0  0  0  0  0
    3.2570   44.9220   54.0680 N   0  0  0  0  0  0  0  0  0  0  0  0
    1.9350   44.9670   53.8200 C   0  0  0  0  0  0  0  0  0  0  0  0
    0.9430   43.9750   54.3490 C   0  0  0  0  0  0  0  0  0  0  0  0
    1.0180   42.6490   53.5850 C   0  0  0  0  0  0  0  0  0  0  0  0
    2.2940   42.5020   52.8850 N   0  0  0  0  0  0  0  0  0  0  0  0
    2.3780   42.6340   51.4580 C   0  0  0  0  0  0  0  0  0  0  0  0
    1.3970   43.1060   50.8200 O   0  0  0  0  0  0  0  0  0  0  0  0
    3.6000   42.2350   50.7210 C   0  0  0  0  0  0  0  0  0  0  0  0
    3.6200   41.1000   49.8890 C   0  0  0  0  0  0  0  0  0  0  0  0
    4.7510   40.7660   49.2090 N   0  0  0  0  0  0  0  0  0  0  0  0
    5.8880   41.5010   49.3040 C   0  0  0  0  0  0  0  0  0  0  0  0
    5.9150   42.6420   50.1090 C   0  0  0  0  0  0  0  0  0  0  0  0
    7.0440   43.3840   50.2040 F   0  0  0  0  0  0  0  0  0  0  0  0
    4.7680   43.0110   50.8150 C   0  0  0  0  0  0  0  0  0  0  0  0
    1.6580   46.0220   52.9800 C   0  0  0  0  0  0  0  0  0  0  0  0
    2.7920   46.6220   52.7210 O   0  0  0  0  0  0  0  0  0  0  0  0
    5.9010   46.5450   54.4900 C   0  0  0  0  0  0  0  0  0  0  0  0
    7.2610   46.8640   54.4310 C   0  0  0  0  0  0  0  0  0  0  0  0
    9.5005   47.2825   55.2470 H   0  0  0  0  0  0  0  0  0  0  0  0
   10.7030   46.3159   54.3270 H   0  0  0  0  0  0  0  0  0  0  0  0
   10.8031   48.1094   54.3270 H   0  0  0  0  0  0  0  0  0  0  0  0
    7.6710   46.8868   51.0339 H   0  0  0  0  0  0  0  0  0  0  0  0
    5.2493   46.3057   51.1386 H   0  0  0  0  0  0  0  0  0  0  0  0
    1.1554   43.7883   55.4120 H   0  0  0  0  0  0  0  0  0  0  0  0
   -0.0666   44.3923   54.2206 H   0  0  0  0  0  0  0  0  0  0  0  0
    0.9045   41.8192   54.2982 H   0  0  0  0  0  0  0  0  0  0  0  0
    0.2118   42.6371   52.8367 H   0  0  0  0  0  0  0  0  0  0  0  0
    3.1640   42.3280   53.4340 H   0  0  0  0  0  0  0  0  0  0  0  0
    2.7172   40.4797   49.7877 H   0  0  0  0  0  0  0  0  0  0  0  0
    6.7873   41.1984   48.7476 H   0  0  0  0  0  0  0  0  0  0  0  0
    4.7787   43.9116   51.4465 H   0  0  0  0  0  0  0  0  0  0  0  0
    0.6671   46.3078   52.5974 H   0  0  0  0  0  0  0  0  0  0  0  0
    5.4017   46.4578   55.4663 H   0  0  0  0  0  0  0  0  0  0  0  0
    7.8255   47.0219   55.3618 H   0  0  0  0  0  0  0  0  0  0  0  0
  1  2  1  0
  2  3  1  0
  3  4  2  0
  4  5  1  0
  5  6  2  0
  6  7  1  0
  7  8  2  0
  8  9  1  0
  9 10  1  0
 10 11  1  0
 11 12  1  0
 12 13  1  0
 13 14  2  0
 13 15  1  0
 15 16  2  0
 16 17  1  0
 17 18  2  0
 18 19  1  0
 19 20  1  0
 19 21  2  0
  9 22  2  0
 22 23  1  0
  6 24  1  0
 24 25  2  0
 25  3  1  0
 23  7  1  0
 21 15  1  0
  1 26  1  0
  1 27  1  0
  1 28  1  0
  4 29  1  0
  5 30  1  0
 10 31  1  0
 10 32  1  0
 11 33  1  0
 11 34  1  0
 12 35  1  0
 16 36  1  0
 18 37  1  0
 21 38  1  0
 22 39  1  0
 24 40  1  0
 25 41  1  0
M  END
>  <meeko>  (1) 
{"is_sidechain": [false], "free_energy": -8.364, "intermolecular_energy": -11.297, "internal_energy": -1.302}

$$$$
ligand_35_conformer_4_docked
     RDKit          3D

 41 43  0  0  0  0  0  0  0  0999 V2000
    0.7290   45.0810   56.4790 C   0  0  0  0  0  0  0  0  0  0  0  0
    1.9140   45.6010   55.8820 O   0  0  0  0  0  0  0  0  0  0  0  0
    2.5890   45.0010   54.8090 C   0  0  0  0  0  0  0  0  0  0  0  0
    1.9370   44.1630   53.8810 C   0  0  0  0  0  0  0  0  0  0  0  0
    2.6490   43.6000   52.8170 C   0  0  0  0  0  0  0  0  0  0  0  0
    4.0210   43.8580   52.6650 C   0  0  0  0  0  0  0  0  0  0  0  0
    4.7620   43.2790   51.5260 C   0  0  0  0  0  0  0  0  0  0  0  0
    5.6170   43.9820   50.7510 N   0  0  0  0  0  0  0  0  0  0  0  0
    6.0370   43.0700   49.8550 C   0  0  0  0  0  0  0  0  0  0  0  0
    6.9850   43.3650   48.7320 C   0  0  0  0  0  0  0  0  0  0  0  0
    8.3580   43.7970   49.2590 C   0  0  0  0  0  0  0  0  0  0  0  0
    8.2550   44.9610   50.1380 N   0  0  0  0  0  0  0  0  0  0  0  0
    9.3540   45.3640   50.9690 C   0  0  0  0  0  0  0  0  0  0  0  0
   10.4940   44.8590   50.7780 O   0  0  0  0  0  0  0  0  0  0  0  0
    9.1760   46.3700   52.0430 C   0  0  0  0  0  0  0  0  0  0  0  0
    8.1630   47.3450   51.9780 C   0  0  0  0  0  0  0  0  0  0  0  0
    8.0110   48.2470   52.9850 N   0  0  0  0  0  0  0  0  0  0  0  0
    8.8170   48.2430   54.0770 C   0  0  0  0  0  0  0  0  0  0  0  0
    9.8290   47.2900   54.1930 C   0  0  0  0  0  0  0  0  0  0  0  0
   10.6350   47.2770   55.2830 F   0  0  0  0  0  0  0  0  0  0  0  0
   10.0070   46.3510   53.1760 C   0  0  0  0  0  0  0  0  0  0  0  0
    5.4290   41.8610   50.1050 C   0  0  0  0  0  0  0  0  0  0  0  0
    4.6510   42.0240   51.1460 O   0  0  0  0  0  0  0  0  0  0  0  0
    4.6710   44.6850   53.5980 C   0  0  0  0  0  0  0  0  0  0  0  0
    3.9580   45.2520   54.6590 C   0  0  0  0  0  0  0  0  0  0  0  0
    0.8219   45.1218   57.5743 H   0  0  0  0  0  0  0  0  0  0  0  0
   -0.1357   45.6824   56.1617 H   0  0  0  0  0  0  0  0  0  0  0  0
    0.5861   44.0375   56.1617 H   0  0  0  0  0  0  0  0  0  0  0  0
    0.8636   43.9512   53.9945 H   0  0  0  0  0  0  0  0  0  0  0  0
    2.1313   42.9513   52.0950 H   0  0  0  0  0  0  0  0  0  0  0  0
    7.1056   42.4602   48.1182 H   0  0  0  0  0  0  0  0  0  0  0  0
    6.5683   44.1891   48.1342 H   0  0  0  0  0  0  0  0  0  0  0  0
    8.8030   42.9631   49.8216 H   0  0  0  0  0  0  0  0  0  0  0  0
    8.9866   44.0700   48.3986 H   0  0  0  0  0  0  0  0  0  0  0  0
    7.3780   45.5270   50.1410 H   0  0  0  0  0  0  0  0  0  0  0  0
    7.4905   47.3779   51.1082 H   0  0  0  0  0  0  0  0  0  0  0  0
    8.6722   48.9911   54.8704 H   0  0  0  0  0  0  0  0  0  0  0  0
   10.8002   45.5937   53.2616 H   0  0  0  0  0  0  0  0  0  0  0  0
    5.5702   40.9302   49.5360 H   0  0  0  0  0  0  0  0  0  0  0  0
    5.7471   44.8873   53.4927 H   0  0  0  0  0  0  0  0  0  0  0  0
    4.4766   45.8999   55.3809 H   0  0  0  0  0  0  0  0  0  0  0  0
  1  2  1  0
  2  3  1  0
  3  4  2  0
  4  5  1  0
  5  6  2  0
  6  7  1  0
  7  8  2  0
  8  9  1  0
  9 10  1  0
 10 11  1  0
 11 12  1  0
 12 13  1  0
 13 14  2  0
 13 15  1  0
 15 16  2  0
 16 17  1  0
 17 18  2  0
 18 19  1  0
 19 20  1  0
 19 21  2  0
  9 22  2  0
 22 23  1  0
  6 24  1  0
 24 25  2  0
 25  3  1  0
 23  7  1  0
 21 15  1  0
  1 26  1  0
  1 27  1  0
  1 28  1  0
  4 29  1  0
  5 30  1  0
 10 31  1  0
 10 32  1  0
 11 33  1  0
 11 34  1  0
 12 35  1  0
 16 36  1  0
 18 37  1  0
 21 38  1  0
 22 39  1  0
 24 40  1  0
 25 41  1  0
M  END
>  <meeko>  (2) 
{"is_sidechain": [false], "free_energy": -8.091, "intermolecular_energy": -11.311, "internal_energy": -0.92}

$$$$
ligand_35_conformer_4_docked
     RDKit          3D

 41 43  0  0  0  0  0  0  0  0999 V2000
    0.8760   45.6240   56.7810 C   0  0  0  0  0  0  0  0  0  0  0  0
    0.3250   45.0480   55.5990 O   0  0  0  0  0  0  0  0  0  0  0  0
    1.0820   44.4290   54.5930 C   0  0  0  0  0  0  0  0  0  0  0  0
    2.3700   44.8760   54.2350 C   0  0  0  0  0  0  0  0  0  0  0  0
    3.0930   44.2160   53.2360 C   0  0  0  0  0  0  0  0  0  0  0  0
    2.5420   43.1050   52.5770 C   0  0  0  0  0  0  0  0  0  0  0  0
    3.3210   42.3990   51.5390 C   0  0  0  0  0  0  0  0  0  0  0  0
    4.6620   42.4960   51.4100 N   0  0  0  0  0  0  0  0  0  0  0  0
    4.9250   41.7100   50.3490 C   0  0  0  0  0  0  0  0  0  0  0  0
    6.2910   41.5090   49.7660 C   0  0  0  0  0  0  0  0  0  0  0  0
    6.7210   42.7130   48.9200 C   0  0  0  0  0  0  0  0  0  0  0  0
    6.7740   43.9390   49.7180 N   0  0  0  0  0  0  0  0  0  0  0  0
    8.0260   44.5720   50.0220 C   0  0  0  0  0  0  0  0  0  0  0  0
    9.0690   44.2100   49.4140 O   0  0  0  0  0  0  0  0  0  0  0  0
    8.1130   45.6520   51.0330 C   0  0  0  0  0  0  0  0  0  0  0  0
    6.9820   46.4000   51.4110 C   0  0  0  0  0  0  0  0  0  0  0  0
    7.0860   47.3750   52.3550 N   0  0  0  0  0  0  0  0  0  0  0  0
    8.2660   47.6620   52.9610 C   0  0  0  0  0  0  0  0  0  0  0  0
    9.4140   46.9420   52.6270 C   0  0  0  0  0  0  0  0  0  0  0  0
   10.5950   47.2200   53.2320 F   0  0  0  0  0  0  0  0  0  0  0  0
    9.3360   45.9340   51.6650 C   0  0  0  0  0  0  0  0  0  0  0  0
    3.7520   41.1730   49.8690 C   0  0  0  0  0  0  0  0  0  0  0  0
    2.7810   41.6150   50.6290 O   0  0  0  0  0  0  0  0  0  0  0  0
    1.2530   42.6680   52.9280 C   0  0  0  0  0  0  0  0  0  0  0  0
    0.5320   43.3260   53.9300 C   0  0  0  0  0  0  0  0  0  0  0  0
    0.4233   45.1508   57.6648 H   0  0  0  0  0  0  0  0  0  0  0  0
    1.9639   45.4620   56.7951 H   0  0  0  0  0  0  0  0  0  0  0  0
    0.6659   46.7037   56.7951 H   0  0  0  0  0  0  0  0  0  0  0  0
    2.8083   45.7475   54.7434 H   0  0  0  0  0  0  0  0  0  0  0  0
    4.0989   44.5692   52.9650 H   0  0  0  0  0  0  0  0  0  0  0  0
    7.0127   41.3708   50.5846 H   0  0  0  0  0  0  0  0  0  0  0  0
    6.2629   40.6218   49.1163 H   0  0  0  0  0  0  0  0  0  0  0  0
    7.7186   42.5166   48.5001 H   0  0  0  0  0  0  0  0  0  0  0  0
    5.9797   42.8544   48.1197 H   0  0  0  0  0  0  0  0  0  0  0  0
    5.8860   44.3770   50.0460 H   0  0  0  0  0  0  0  0  0  0  0  0
    6.0088   46.1954   50.9409 H   0  0  0  0  0  0  0  0  0  0  0  0
    8.3175   48.4614   53.7148 H   0  0  0  0  0  0  0  0  0  0  0  0
   10.2351   45.3581   51.4005 H   0  0  0  0  0  0  0  0  0  0  0  0
    3.6491   40.4977   49.0068 H   0  0  0  0  0  0  0  0  0  0  0  0
    0.8088   41.8040   52.4120 H   0  0  0  0  0  0  0  0  0  0  0  0
   -0.4748   42.9738   54.1988 H   0  0  0  0  0  0  0  0  0  0  0  0
  1  2  1  0
  2  3  1  0
  3  4  2  0
  4  5  1  0
  5  6  2  0
  6  7  1  0
  7  8  2  0
  8  9  1  0
  9 10  1  0
 10 11  1  0
 11 12  1  0
 12 13  1  0
 13 14  2  0
 13 15  1  0
 15 16  2  0
 16 17  1  0
 17 18  2  0
 18 19  1  0
 19 20  1  0
 19 21  2  0
  9 22  2  0
 22 23  1  0
  6 24  1  0
 24 25  2  0
 25  3  1  0
 23  7  1  0
 21 15  1  0
  1 26  1  0
  1 27  1  0
  1 28  1  0
  4 29  1  0
  5 30  1  0
 10 31  1  0
 10 32  1  0
 11 33  1  0
 11 34  1  0
 12 35  1  0
 16 36  1  0
 18 37  1  0
 21 38  1  0
 22 39  1  0
 24 40  1  0
 25 41  1  0
M  END
>  <meeko>  (3) 
{"is_sidechain": [false], "free_energy": -7.906, "intermolecular_energy": -11.032, "internal_energy": -0.95}

$$$$
ligand_35_conformer_4_docked
     RDKit          3D

 41 43  0  0  0  0  0  0  0  0999 V2000
   -0.3450   44.6020   54.5070 C   0  0  0  0  0  0  0  0  0  0  0  0
   -0.2550   43.7920   53.3360 O   0  0  0  0  0  0  0  0  0  0  0  0
    0.9460   43.4710   52.6860 C   0  0  0  0  0  0  0  0  0  0  0  0
    0.9770   42.8220   51.4360 C   0  0  0  0  0  0  0  0  0  0  0  0
    2.1990   42.5370   50.8200 C   0  0  0  0  0  0  0  0  0  0  0  0
    3.4080   42.8900   51.4420 C   0  0  0  0  0  0  0  0  0  0  0  0
    4.6950   42.6080   50.7740 C   0  0  0  0  0  0  0  0  0  0  0  0
    5.4730   43.5570   50.2100 N   0  0  0  0  0  0  0  0  0  0  0  0
    6.5120   42.8530   49.7250 C   0  0  0  0  0  0  0  0  0  0  0  0
    7.6540   43.4520   48.9590 C   0  0  0  0  0  0  0  0  0  0  0  0
    8.2530   44.6520   49.6990 C   0  0  0  0  0  0  0  0  0  0  0  0
    7.2370   45.3740   50.4660 N   0  0  0  0  0  0  0  0  0  0  0  0
    7.5650   46.0270   51.7020 C   0  0  0  0  0  0  0  0  0  0  0  0
    8.7750   46.1830   52.0200 O   0  0  0  0  0  0  0  0  0  0  0  0
    6.5060   46.5310   52.6070 C   0  0  0  0  0  0  0  0  0  0  0  0
    6.7860   46.8940   53.9380 C   0  0  0  0  0  0  0  0  0  0  0  0
    5.7980   47.3700   54.7440 N   0  0  0  0  0  0  0  0  0  0  0  0
    4.5220   47.5130   54.3040 C   0  0  0  0  0  0  0  0  0  0  0  0
    4.1960   47.1770   52.9890 C   0  0  0  0  0  0  0  0  0  0  0  0
    2.9250   47.3230   52.5410 F   0  0  0  0  0  0  0  0  0  0  0  0
    5.1900   46.6890   52.1390 C   0  0  0  0  0  0  0  0  0  0  0  0
    6.3340   41.5160   50.0000 C   0  0  0  0  0  0  0  0  0  0  0  0
    5.2040   41.4000   50.6520 O   0  0  0  0  0  0  0  0  0  0  0  0
    3.3740   43.5280   52.6940 C   0  0  0  0  0  0  0  0  0  0  0  0
    2.1520   43.8170   53.3080 C   0  0  0  0  0  0  0  0  0  0  0  0
   -0.2741   43.9642   55.4004 H   0  0  0  0  0  0  0  0  0  0  0  0
    0.4775   45.3324   54.5117 H   0  0  0  0  0  0  0  0  0  0  0  0
   -1.3078   45.1340   54.5117 H   0  0  0  0  0  0  0  0  0  0  0  0
    0.0356   42.5383   50.9427 H   0  0  0  0  0  0  0  0  0  0  0  0
    2.2140   42.0332   49.8422 H   0  0  0  0  0  0  0  0  0  0  0  0
    8.4343   42.6885   48.8240 H   0  0  0  0  0  0  0  0  0  0  0  0
    7.2753   43.7983   47.9860 H   0  0  0  0  0  0  0  0  0  0  0  0
    9.0325   44.2939   50.3876 H   0  0  0  0  0  0  0  0  0  0  0  0
    8.6746   45.3411   48.9524 H   0  0  0  0  0  0  0  0  0  0  0  0
    6.2640   45.4400   50.0950 H   0  0  0  0  0  0  0  0  0  0  0  0
    7.8092   46.7924   54.3289 H   0  0  0  0  0  0  0  0  0  0  0  0
    3.7451   47.8935   54.9834 H   0  0  0  0  0  0  0  0  0  0  0  0
    4.9426   46.4273   51.0996 H   0  0  0  0  0  0  0  0  0  0  0  0
    7.0144   40.6971   49.7235 H   0  0  0  0  0  0  0  0  0  0  0  0
    4.3150   43.8016   53.1937 H   0  0  0  0  0  0  0  0  0  0  0  0
    2.1376   44.3196   54.2864 H   0  0  0  0  0  0  0  0  0  0  0  0
  1  2  1  0
  2  3  1  0
  3  4  2  0
  4  5  1  0
  5  6  2  0
  6  7  1  0
  7  8  2  0
  8  9  1  0
  9 10  1  0
 10 11  1  0
 11 12  1  0
 12 13  1  0
 13 14  2  0
 13 15  1  0
 15 16  2  0
 16 17  1  0
 17 18  2  0
 18 19  1  0
 19 20  1  0
 19 21  2  0
  9 22  2  0
 22 23  1  0
  6 24  1  0
 24 25  2  0
 25  3  1  0
 23  7  1  0
 21 15  1  0
  1 26  1  0
  1 27  1  0
  1 28  1  0
  4 29  1  0
  5 30  1  0
 10 31  1  0
 10 32  1  0
 11 33  1  0
 11 34  1  0
 12 35  1  0
 16 36  1  0
 18 37  1  0
 21 38  1  0
 22 39  1  0
 24 40  1  0
 25 41  1  0
M  END
>  <meeko>  (4) 
{"is_sidechain": [false], "free_energy": -7.865, "intermolecular_energy": -10.918, "internal_energy": -1.008}

$$$$
ligand_35_conformer_4_docked
     RDKit          3D

 41 43  0  0  0  0  0  0  0  0999 V2000
   -1.2100   43.9150   53.4120 C   0  0  0  0  0  0  0  0  0  0  0  0
   -0.5330   44.6240   54.4460 O   0  0  0  0  0  0  0  0  0  0  0  0
    0.7970   45.0620   54.3660 C   0  0  0  0  0  0  0  0  0  0  0  0
    1.6940   44.9560   55.4480 C   0  0  0  0  0  0  0  0  0  0  0  0
    3.0160   45.3920   55.3140 C   0  0  0  0  0  0  0  0  0  0  0  0
    3.4630   45.9440   54.1030 C   0  0  0  0  0  0  0  0  0  0  0  0
    4.8670   46.3810   53.9600 C   0  0  0  0  0  0  0  0  0  0  0  0
    5.4010   46.8250   52.8020 N   0  0  0  0  0  0  0  0  0  0  0  0
    6.6770   47.0920   53.1370 C   0  0  0  0  0  0  0  0  0  0  0  0
    7.7170   47.5830   52.1750 C   0  0  0  0  0  0  0  0  0  0  0  0
    8.0980   46.4980   51.1620 C   0  0  0  0  0  0  0  0  0  0  0  0
    7.2460   45.3160   51.2950 N   0  0  0  0  0  0  0  0  0  0  0  0
    7.1150   44.3720   50.2210 C   0  0  0  0  0  0  0  0  0  0  0  0
    7.9090   44.4290   49.2430 O   0  0  0  0  0  0  0  0  0  0  0  0
    6.0670   43.3240   50.2450 C   0  0  0  0  0  0  0  0  0  0  0  0
    6.1090   42.2200   49.3720 C   0  0  0  0  0  0  0  0  0  0  0  0
    5.1440   41.2630   49.4270 N   0  0  0  0  0  0  0  0  0  0  0  0
    4.1170   41.3320   50.3120 C   0  0  0  0  0  0  0  0  0  0  0  0
    4.0360   42.4010   51.2050 C   0  0  0  0  0  0  0  0  0  0  0  0
    3.0170   42.4730   52.0950 F   0  0  0  0  0  0  0  0  0  0  0  0
    5.0150   43.3960   51.1740 C   0  0  0  0  0  0  0  0  0  0  0  0
    6.8770   46.8000   54.4670 C   0  0  0  0  0  0  0  0  0  0  0  0
    5.7390   46.3670   54.9470 O   0  0  0  0  0  0  0  0  0  0  0  0
    2.5630   46.0590   53.0280 C   0  0  0  0  0  0  0  0  0  0  0  0
    1.2430   45.6180   53.1610 C   0  0  0  0  0  0  0  0  0  0  0  0
   -1.9040   43.1882   53.8594 H   0  0  0  0  0  0  0  0  0  0  0  0
   -1.7739   44.6250   52.7891 H   0  0  0  0  0  0  0  0  0  0  0  0
   -0.4748   43.3845   52.7891 H   0  0  0  0  0  0  0  0  0  0  0  0
    1.3526   44.5284   56.4023 H   0  0  0  0  0  0  0  0  0  0  0  0
    3.7099   45.3019   56.1627 H   0  0  0  0  0  0  0  0  0  0  0  0
    7.3208   48.4548   51.6337 H   0  0  0  0  0  0  0  0  0  0  0  0
    8.6168   47.8545   52.7466 H   0  0  0  0  0  0  0  0  0  0  0  0
    7.9893   46.9042   50.1455 H   0  0  0  0  0  0  0  0  0  0  0  0
    9.1382   46.1966   51.3546 H   0  0  0  0  0  0  0  0  0  0  0  0
    6.7490   45.1390   52.1950 H   0  0  0  0  0  0  0  0  0  0  0  0
    6.9267   42.1310   48.6416 H   0  0  0  0  0  0  0  0  0  0  0  0
    3.3486   40.5450   50.3251 H   0  0  0  0  0  0  0  0  0  0  0  0
    4.9627   44.2388   51.8789 H   0  0  0  0  0  0  0  0  0  0  0  0
    7.8193   46.9102   55.0238 H   0  0  0  0  0  0  0  0  0  0  0  0
    2.8997   46.4984   52.0774 H   0  0  0  0  0  0  0  0  0  0  0  0
    0.5493   45.7086   52.3121 H   0  0  0  0  0  0  0  0  0  0  0  0
  1  2  1  0
  2  3  1  0
  3  4  2  0
  4  5  1  0
  5  6  2  0
  6  7  1  0
  7  8  2  0
  8  9  1  0
  9 10  1  0
 10 11  1  0
 11 12  1  0
 12 13  1  0
 13 14  2  0
 13 15  1  0
 15 16  2  0
 16 17  1  0
 17 18  2  0
 18 19  1  0
 19 20  1  0
 19 21  2  0
  9 22  2  0
 22 23  1  0
  6 24  1  0
 24 25  2  0
 25  3  1  0
 23  7  1  0
 21 15  1  0
  1 26  1  0
  1 27  1  0
  1 28  1  0
  4 29  1  0
  5 30  1  0
 10 31  1  0
 10 32  1  0
 11 33  1  0
 11 34  1  0
 12 35  1  0
 16 36  1  0
 18 37  1  0
 21 38  1  0
 22 39  1  0
 24 40  1  0
 25 41  1  0
M  END
>  <meeko>  (5) 
{"is_sidechain": [false], "free_energy": -7.702, "intermolecular_energy": -10.346, "internal_energy": -1.359}

$$$$
