ligand_40_conformer_3_docked
     RDKit          3D

 40 43  0  0  0  0  0  0  0  0999 V2000
    4.2000   44.8790   54.6650 O   0  0  0  0  0  0  0  0  0  0  0  0
    3.1800   45.0390   53.5740 S   0  0  0  0  0  0  0  0  0  0  0  0
    3.4920   46.2120   52.6880 O   0  0  0  0  0  0  0  0  0  0  0  0
    1.5470   45.1330   54.2240 C   0  0  0  0  0  0  0  0  0  0  0  0
    0.9840   43.7190   54.0520 C   0  0  0  0  0  0  0  0  0  0  0  0
    1.6660   43.0190   52.8560 C   0  0  0  0  0  0  0  0  0  0  0  0
    2.9980   43.5900   52.6680 N   0  0  0  0  0  0  0  0  0  0  0  0
    3.9760   43.0890   51.7290 C   0  0  0  0  0  0  0  0  0  0  0  0
    3.8720   41.7870   51.2030 C   0  0  0  0  0  0  0  0  0  0  0  0
    4.8140   41.3110   50.2880 C   0  0  0  0  0  0  0  0  0  0  0  0
    5.8720   42.1240   49.8810 C   0  0  0  0  0  0  0  0  0  0  0  0
    5.9980   43.4240   50.3910 C   0  0  0  0  0  0  0  0  0  0  0  0
    7.1230   44.3170   49.9390 C   0  0  0  0  0  0  0  0  0  0  0  0
    7.0390   45.6140   50.6070 N   0  0  0  0  0  0  0  0  0  0  0  0
    8.0130   46.0460   51.5690 C   0  0  0  0  0  0  0  0  0  0  0  0
    9.3490   46.0310   51.2750 N   0  0  0  0  0  0  0  0  0  0  0  0
   10.2890   46.4440   52.1830 C   0  0  0  0  0  0  0  0  0  0  0  0
    9.9120   46.8890   53.4200 N   0  0  0  0  0  0  0  0  0  0  0  0
    8.5900   46.9050   53.7150 C   0  0  0  0  0  0  0  0  0  0  0  0
    8.0320   47.3100   54.8680 N   0  0  0  0  0  0  0  0  0  0  0  0
    6.7050   47.1270   54.6290 C   0  0  0  0  0  0  0  0  0  0  0  0
    6.4370   46.6340   53.3940 N   0  0  0  0  0  0  0  0  0  0  0  0
    7.6460   46.5000   52.8340 C   0  0  0  0  0  0  0  0  0  0  0  0
    5.0500   43.9010   51.3090 C   0  0  0  0  0  0  0  0  0  0  0  0
    1.5672   45.4169   55.2865 H   0  0  0  0  0  0  0  0  0  0  0  0
    0.9362   45.8916   53.7126 H   0  0  0  0  0  0  0  0  0  0  0  0
    1.1706   43.1390   54.9679 H   0  0  0  0  0  0  0  0  0  0  0  0
   -0.0979   43.7823   53.8635 H   0  0  0  0  0  0  0  0  0  0  0  0
    1.7519   41.9414   53.0592 H   0  0  0  0  0  0  0  0  0  0  0  0
    1.0657   43.1677   51.9463 H   0  0  0  0  0  0  0  0  0  0  0  0
    3.0406   41.1382   51.5158 H   0  0  0  0  0  0  0  0  0  0  0  0
    4.7212   40.2910   49.8868 H   0  0  0  0  0  0  0  0  0  0  0  0
    6.6092   41.7443   49.1582 H   0  0  0  0  0  0  0  0  0  0  0  0
    8.0844   43.8430   50.1859 H   0  0  0  0  0  0  0  0  0  0  0  0
    7.0461   44.4680   48.8521 H   0  0  0  0  0  0  0  0  0  0  0  0
    6.2420   46.2420   50.3590 H   0  0  0  0  0  0  0  0  0  0  0  0
   11.3554   46.4173   51.9145 H   0  0  0  0  0  0  0  0  0  0  0  0
    5.9232   47.3572   55.3677 H   0  0  0  0  0  0  0  0  0  0  0  0
    5.5000   46.4170   52.9870 H   0  0  0  0  0  0  0  0  0  0  0  0
    5.1458   44.9222   51.7065 H   0  0  0  0  0  0  0  0  0  0  0  0
  1  2  2  0
  2  3  2  0
  2  4  1  0
  4  5  1  0
  5  6  1  0
  6  7  1  0
  7  8  1  0
  8  9  2  0
  9 10  1  0
 10 11  2  0
 11 12  1  0
 12 13  1  0
 13 14  1  0
 14 15  1  0
 15 16  2  0
 16 17  1  0
 17 18  2  0
 18 19  1  0
 19 20  1  0
 20 21  2  0
 21 22  1  0
 22 23  1  0
 12 24  2  0
  7  2  1  0
 24  8  1  0
 23 15  1  0
 23 19  2  0
  4 25  1  0
  4 26  1  0
  5 27  1  0
  5 28  1  0
  6 29  1  0
  6 30  1  0
  9 31  1  0
 10 32  1  0
 11 33  1  0
 13 34  1  0
 13 35  1  0
 14 36  1  0
 17 37  1  0
 21 38  1  0
 22 39  1  0
 24 40  1  0
M  END
>  <meeko>  (1) 
{"is_sidechain": [false], "free_energy": -8.945, "intermolecular_energy": -11.037, "internal_energy": -1.097}

$$$$
ligand_40_conformer_3_docked
     RDKit          3D

 40 43  0  0  0  0  0  0  0  0999 V2000
    4.8560   46.7400   52.5870 O   0  0  0  0  0  0  0  0  0  0  0  0
    6.2390   46.2300   52.8830 S   0  0  0  0  0  0  0  0  0  0  0  0
    6.2190   45.1320   53.9090 O   0  0  0  0  0  0  0  0  0  0  0  0
    7.3230   47.5350   53.3500 C   0  0  0  0  0  0  0  0  0  0  0  0
    8.1040   47.8600   52.0720 C   0  0  0  0  0  0  0  0  0  0  0  0
    8.1950   46.6070   51.1740 C   0  0  0  0  0  0  0  0  0  0  0  0
    7.0490   45.7430   51.4480 N   0  0  0  0  0  0  0  0  0  0  0  0
    6.7300   44.5480   50.7000 C   0  0  0  0  0  0  0  0  0  0  0  0
    7.5250   44.1450   49.6090 C   0  0  0  0  0  0  0  0  0  0  0  0
    7.2200   42.9830   48.8960 C   0  0  0  0  0  0  0  0  0  0  0  0
    6.1190   42.2050   49.2570 C   0  0  0  0  0  0  0  0  0  0  0  0
    5.3120   42.5850   50.3380 C   0  0  0  0  0  0  0  0  0  0  0  0
    4.1380   41.7390   50.7510 C   0  0  0  0  0  0  0  0  0  0  0  0
    3.6100   42.1960   52.0350 N   0  0  0  0  0  0  0  0  0  0  0  0
    2.5230   43.1280   52.1300 C   0  0  0  0  0  0  0  0  0  0  0  0
    1.5040   43.1190   51.2160 N   0  0  0  0  0  0  0  0  0  0  0  0
    0.4580   44.0010   51.2970 C   0  0  0  0  0  0  0  0  0  0  0  0
    0.4040   44.9230   52.3050 N   0  0  0  0  0  0  0  0  0  0  0  0
    1.4100   44.9360   53.2110 C   0  0  0  0  0  0  0  0  0  0  0  0
    1.5260   45.7600   54.2660 N   0  0  0  0  0  0  0  0  0  0  0  0
    2.6930   45.3440   54.8320 C   0  0  0  0  0  0  0  0  0  0  0  0
    3.2820   44.3160   54.1720 N   0  0  0  0  0  0  0  0  0  0  0  0
    2.4520   44.0760   53.1490 C   0  0  0  0  0  0  0  0  0  0  0  0
    5.6220   43.7520   51.0550 C   0  0  0  0  0  0  0  0  0  0  0  0
    6.7523   48.4116   53.6906 H   0  0  0  0  0  0  0  0  0  0  0  0
    7.9830   47.2529   54.1835 H   0  0  0  0  0  0  0  0  0  0  0  0
    7.5889   48.6633   51.5249 H   0  0  0  0  0  0  0  0  0  0  0  0
    9.1197   48.1840   52.3428 H   0  0  0  0  0  0  0  0  0  0  0  0
    8.1848   46.9093   50.1164 H   0  0  0  0  0  0  0  0  0  0  0  0
    9.1287   46.0650   51.3847 H   0  0  0  0  0  0  0  0  0  0  0  0
    8.3946   44.7514   49.3156 H   0  0  0  0  0  0  0  0  0  0  0  0
    7.8501   42.6801   48.0467 H   0  0  0  0  0  0  0  0  0  0  0  0
    5.8840   41.2912   48.6916 H   0  0  0  0  0  0  0  0  0  0  0  0
    3.3500   41.8142   49.9872 H   0  0  0  0  0  0  0  0  0  0  0  0
    4.4675   40.6943   50.8511 H   0  0  0  0  0  0  0  0  0  0  0  0
    4.0440   41.8160   52.9060 H   0  0  0  0  0  0  0  0  0  0  0  0
   -0.3442   43.9667   50.5452 H   0  0  0  0  0  0  0  0  0  0  0  0
    3.1177   45.7990   55.7390 H   0  0  0  0  0  0  0  0  0  0  0  0
    4.1740   43.8320   54.4180 H   0  0  0  0  0  0  0  0  0  0  0  0
    4.9913   44.0492   51.9058 H   0  0  0  0  0  0  0  0  0  0  0  0
  1  2  2  0
  2  3  2  0
  2  4  1  0
  4  5  1  0
  5  6  1  0
  6  7  1  0
  7  8  1  0
  8  9  2  0
  9 10  1  0
 10 11  2  0
 11 12  1  0
 12 13  1  0
 13 14  1  0
 14 15  1  0
 15 16  2  0
 16 17  1  0
 17 18  2  0
 18 19  1  0
 19 20  1  0
 20 21  2  0
 21 22  1  0
 22 23  1  0
 12 24  2  0
  7  2  1  0
 24  8  1  0
 23 15  1  0
 23 19  2  0
  4 25  1  0
  4 26  1  0
  5 27  1  0
  5 28  1  0
  6 29  1  0
  6 30  1  0
  9 31  1  0
 10 32  1  0
 11 33  1  0
 13 34  1  0
 13 35  1  0
 14 36  1  0
 17 37  1  0
 21 38  1  0
 22 39  1  0
 24 40  1  0
M  END
>  <meeko>  (2) 
{"is_sidechain": [false], "free_energy": -8.633, "intermolecular_energy": -10.631, "internal_energy": -1.117}

$$$$
ligand_40_conformer_3_docked
     RDKit          3D

 40 43  0  0  0  0  0  0  0  0999 V2000
    4.8980   46.8580   52.8410 O   0  0  0  0  0  0  0  0  0  0  0  0
    6.2280   46.1720   52.9870 S   0  0  0  0  0  0  0  0  0  0  0  0
    6.2260   45.1920   54.1270 O   0  0  0  0  0  0  0  0  0  0  0  0
    7.5420   47.3320   53.1310 C   0  0  0  0  0  0  0  0  0  0  0  0
    8.1410   47.4110   51.7230 C   0  0  0  0  0  0  0  0  0  0  0  0
    7.9100   46.0800   50.9750 C   0  0  0  0  0  0  0  0  0  0  0  0
    6.7170   45.4320   51.5150 N   0  0  0  0  0  0  0  0  0  0  0  0
    6.1190   44.2350   50.9680 C   0  0  0  0  0  0  0  0  0  0  0  0
    6.8390   43.4080   50.0840 C   0  0  0  0  0  0  0  0  0  0  0  0
    6.2610   42.2470   49.5660 C   0  0  0  0  0  0  0  0  0  0  0  0
    4.9590   41.8900   49.9210 C   0  0  0  0  0  0  0  0  0  0  0  0
    4.2220   42.6970   50.7990 C   0  0  0  0  0  0  0  0  0  0  0  0
    2.8270   42.3070   51.2080 C   0  0  0  0  0  0  0  0  0  0  0  0
    2.7150   42.2780   52.6640 N   0  0  0  0  0  0  0  0  0  0  0  0
    1.6860   42.9900   53.3690 C   0  0  0  0  0  0  0  0  0  0  0  0
    0.3720   42.6280   53.2530 N   0  0  0  0  0  0  0  0  0  0  0  0
   -0.6200   43.2960   53.9230 C   0  0  0  0  0  0  0  0  0  0  0  0
   -0.3180   44.3540   54.7350 N   0  0  0  0  0  0  0  0  0  0  0  0
    0.9820   44.7170   54.8520 C   0  0  0  0  0  0  0  0  0  0  0  0
    1.4680   45.7200   55.6010 N   0  0  0  0  0  0  0  0  0  0  0  0
    2.8060   45.6390   55.3620 C   0  0  0  0  0  0  0  0  0  0  0  0
    3.1470   44.6410   54.5090 N   0  0  0  0  0  0  0  0  0  0  0  0
    1.9750   44.0710   54.1980 C   0  0  0  0  0  0  0  0  0  0  0  0
    4.8050   43.8630   51.3200 C   0  0  0  0  0  0  0  0  0  0  0  0
    7.1605   48.3142   53.4468 H   0  0  0  0  0  0  0  0  0  0  0  0
    8.2844   47.0311   53.8848 H   0  0  0  0  0  0  0  0  0  0  0  0
    7.6593   48.2292   51.1676 H   0  0  0  0  0  0  0  0  0  0  0  0
    9.2221   47.5985   51.8007 H   0  0  0  0  0  0  0  0  0  0  0  0
    7.7680   46.2794   49.9026 H   0  0  0  0  0  0  0  0  0  0  0  0
    8.7822   45.4229   51.1075 H   0  0  0  0  0  0  0  0  0  0  0  0
    7.8662   43.6791   49.7989 H   0  0  0  0  0  0  0  0  0  0  0  0
    6.8342   41.6111   48.8753 H   0  0  0  0  0  0  0  0  0  0  0  0
    4.5102   40.9733   49.5108 H   0  0  0  0  0  0  0  0  0  0  0  0
    2.1123   43.0389   50.8036 H   0  0  0  0  0  0  0  0  0  0  0  0
    2.6050   41.3050   50.8121 H   0  0  0  0  0  0  0  0  0  0  0  0
    3.4090   41.7100   53.1980 H   0  0  0  0  0  0  0  0  0  0  0  0
   -1.6668   42.9786   53.8066 H   0  0  0  0  0  0  0  0  0  0  0  0
    3.5411   46.3188   55.8177 H   0  0  0  0  0  0  0  0  0  0  0  0
    4.1050   44.3860   54.1820 H   0  0  0  0  0  0  0  0  0  0  0  0
    4.2291   44.4950   52.0121 H   0  0  0  0  0  0  0  0  0  0  0  0
  1  2  2  0
  2  3  2  0
  2  4  1  0
  4  5  1  0
  5  6  1  0
  6  7  1  0
  7  8  1  0
  8  9  2  0
  9 10  1  0
 10 11  2  0
 11 12  1  0
 12 13  1  0
 13 14  1  0
 14 15  1  0
 15 16  2  0
 16 17  1  0
 17 18  2  0
 18 19  1  0
 19 20  1  0
 20 21  2  0
 21 22  1  0
 22 23  1  0
 12 24  2  0
  7  2  1  0
 24  8  1  0
 23 15  1  0
 23 19  2  0
  4 25  1  0
  4 26  1  0
  5 27  1  0
  5 28  1  0
  6 29  1  0
  6 30  1  0
  9 31  1  0
 10 32  1  0
 11 33  1  0
 13 34  1  0
 13 35  1  0
 14 36  1  0
 17 37  1  0
 21 38  1  0
 22 39  1  0
 24 40  1  0
M  END
>  <meeko>  (3) 
{"is_sidechain": [false], "free_energy": -8.418, "intermolecular_energy": -10.255, "internal_energy": -1.228}

$$$$
ligand_40_conformer_3_docked
     RDKit          3D

 40 43  0  0  0  0  0  0  0  0999 V2000
    3.8950   41.6450   52.3200 O   0  0  0  0  0  0  0  0  0  0  0  0
    4.0200   42.4130   51.0340 S   0  0  0  0  0  0  0  0  0  0  0  0
    2.7790   43.2080   50.7390 O   0  0  0  0  0  0  0  0  0  0  0  0
    4.4500   41.3600   49.6920 C   0  0  0  0  0  0  0  0  0  0  0  0
    5.9620   41.5430   49.5300 C   0  0  0  0  0  0  0  0  0  0  0  0
    6.3810   42.9460   50.0210 C   0  0  0  0  0  0  0  0  0  0  0  0
    5.4240   43.4020   51.0280 N   0  0  0  0  0  0  0  0  0  0  0  0
    5.5710   44.6120   51.8050 C   0  0  0  0  0  0  0  0  0  0  0  0
    6.4370   45.6400   51.3850 C   0  0  0  0  0  0  0  0  0  0  0  0
    6.5680   46.8120   52.1340 C   0  0  0  0  0  0  0  0  0  0  0  0
    5.8380   46.9790   53.3110 C   0  0  0  0  0  0  0  0  0  0  0  0
    4.9700   45.9690   53.7520 C   0  0  0  0  0  0  0  0  0  0  0  0
    4.1600   46.1510   55.0070 C   0  0  0  0  0  0  0  0  0  0  0  0
    3.4370   44.9220   55.3260 N   0  0  0  0  0  0  0  0  0  0  0  0
    2.0050   44.8750   55.4100 C   0  0  0  0  0  0  0  0  0  0  0  0
    1.3200   45.7050   56.2550 N   0  0  0  0  0  0  0  0  0  0  0  0
   -0.0480   45.6720   56.3430 C   0  0  0  0  0  0  0  0  0  0  0  0
   -0.7720   44.8000   55.5780 N   0  0  0  0  0  0  0  0  0  0  0  0
   -0.0980   43.9760   54.7410 C   0  0  0  0  0  0  0  0  0  0  0  0
   -0.6350   43.0630   53.9150 N   0  0  0  0  0  0  0  0  0  0  0  0
    0.4660   42.5340   53.3130 C   0  0  0  0  0  0  0  0  0  0  0  0
    1.6340   43.0810   53.7360 N   0  0  0  0  0  0  0  0  0  0  0  0
    1.2510   43.9910   54.6400 C   0  0  0  0  0  0  0  0  0  0  0  0
    4.8390   44.7940   52.9960 C   0  0  0  0  0  0  0  0  0  0  0  0
    4.2080   40.3129   49.9265 H   0  0  0  0  0  0  0  0  0  0  0  0
    3.8980   41.6070   48.7731 H   0  0  0  0  0  0  0  0  0  0  0  0
    6.4867   40.7785   50.1217 H   0  0  0  0  0  0  0  0  0  0  0  0
    6.2260   41.4392   48.4672 H   0  0  0  0  0  0  0  0  0  0  0  0
    7.3869   42.8970   50.4634 H   0  0  0  0  0  0  0  0  0  0  0  0
    6.3934   43.6482   49.1744 H   0  0  0  0  0  0  0  0  0  0  0  0
    7.0162   45.5189   50.4577 H   0  0  0  0  0  0  0  0  0  0  0  0
    7.2493   47.6061   51.7944 H   0  0  0  0  0  0  0  0  0  0  0  0
    5.9433   47.9052   53.8949 H   0  0  0  0  0  0  0  0  0  0  0  0
    4.8329   46.4029   55.8399 H   0  0  0  0  0  0  0  0  0  0  0  0
    3.4345   46.9628   54.8503 H   0  0  0  0  0  0  0  0  0  0  0  0
    3.9940   44.0540   55.4880 H   0  0  0  0  0  0  0  0  0  0  0  0
   -0.5670   46.3522   57.0343 H   0  0  0  0  0  0  0  0  0  0  0  0
    0.4137   41.7383   52.5553 H   0  0  0  0  0  0  0  0  0  0  0  0
    2.5980   42.8400   53.4180 H   0  0  0  0  0  0  0  0  0  0  0  0
    4.1550   44.0032   53.3378 H   0  0  0  0  0  0  0  0  0  0  0  0
  1  2  2  0
  2  3  2  0
  2  4  1  0
  4  5  1  0
  5  6  1  0
  6  7  1  0
  7  8  1  0
  8  9  2  0
  9 10  1  0
 10 11  2  0
 11 12  1  0
 12 13  1  0
 13 14  1  0
 14 15  1  0
 15 16  2  0
 16 17  1  0
 17 18  2  0
 18 19  1  0
 19 20  1  0
 20 21  2  0
 21 22  1  0
 22 23  1  0
 12 24  2  0
  7  2  1  0
 24  8  1  0
 23 15  1  0
 23 19  2  0
  4 25  1  0
  4 26  1  0
  5 27  1  0
  5 28  1  0
  6 29  1  0
  6 30  1  0
  9 31  1  0
 10 32  1  0
 11 33  1  0
 13 34  1  0
 13 35  1  0
 14 36  1  0
 17 37  1  0
 21 38  1  0
 22 39  1  0
 24 40  1  0
M  END
>  <meeko>  (4) 
{"is_sidechain": [false], "free_energy": -8.038, "intermolecular_energy": -9.75, "internal_energy": -1.264}

$$$$
ligand_40_conformer_3_docked
     RDKit          3D

 40 43  0  0  0  0  0  0  0  0999 V2000
    8.3240   48.7910   53.1750 O   0  0  0  0  0  0  0  0  0  0  0  0
    8.5950   47.3300   53.4030 S   0  0  0  0  0  0  0  0  0  0  0  0
    8.2330   46.9090   54.8000 O   0  0  0  0  0  0  0  0  0  0  0  0
   10.2570   46.9120   53.0090 C   0  0  0  0  0  0  0  0  0  0  0  0
   10.1780   46.3100   51.6030 C   0  0  0  0  0  0  0  0  0  0  0  0
    8.7880   45.6760   51.3750 C   0  0  0  0  0  0  0  0  0  0  0  0
    7.8120   46.3560   52.2230 N   0  0  0  0  0  0  0  0  0  0  0  0
    6.3870   46.1210   52.1780 C   0  0  0  0  0  0  0  0  0  0  0  0
    5.7560   45.7420   50.9770 C   0  0  0  0  0  0  0  0  0  0  0  0
    4.3790   45.5060   50.9400 C   0  0  0  0  0  0  0  0  0  0  0  0
    3.6110   45.6430   52.0970 C   0  0  0  0  0  0  0  0  0  0  0  0
    4.2150   46.0200   53.3040 C   0  0  0  0  0  0  0  0  0  0  0  0
    3.3990   46.1460   54.5620 C   0  0  0  0  0  0  0  0  0  0  0  0
    2.8820   44.8400   54.9640 N   0  0  0  0  0  0  0  0  0  0  0  0
    1.4760   44.5640   55.0510 C   0  0  0  0  0  0  0  0  0  0  0  0
    0.6990   45.1610   56.0060 N   0  0  0  0  0  0  0  0  0  0  0  0
   -0.6460   44.9090   56.0980 C   0  0  0  0  0  0  0  0  0  0  0  0
   -1.2520   44.0470   55.2280 N   0  0  0  0  0  0  0  0  0  0  0  0
   -0.4860   43.4530   54.2810 C   0  0  0  0  0  0  0  0  0  0  0  0
   -0.9020   42.5870   53.3430 N   0  0  0  0  0  0  0  0  0  0  0  0
    0.2480   42.3160   52.6680 C   0  0  0  0  0  0  0  0  0  0  0  0
    1.3320   42.9730   53.1520 N   0  0  0  0  0  0  0  0  0  0  0  0
    0.8420   43.6860   54.1740 C   0  0  0  0  0  0  0  0  0  0  0  0
    5.5990   46.2550   53.3390 C   0  0  0  0  0  0  0  0  0  0  0  0
   10.8947   47.8083   53.0129 H   0  0  0  0  0  0  0  0  0  0  0  0
   10.6973   46.2158   53.7380 H   0  0  0  0  0  0  0  0  0  0  0  0
   10.3432   47.1023   50.8581 H   0  0  0  0  0  0  0  0  0  0  0  0
   10.9497   45.5329   51.4999 H   0  0  0  0  0  0  0  0  0  0  0  0
    8.5004   45.7870   50.3191 H   0  0  0  0  0  0  0  0  0  0  0  0
    8.8205   44.6062   51.6289 H   0  0  0  0  0  0  0  0  0  0  0  0
    6.3527   45.6307   50.0596 H   0  0  0  0  0  0  0  0  0  0  0  0
    3.8988   45.2112   49.9953 H   0  0  0  0  0  0  0  0  0  0  0  0
    2.5279   45.4544   52.0615 H   0  0  0  0  0  0  0  0  0  0  0  0
    4.0320   46.5489   55.3663 H   0  0  0  0  0  0  0  0  0  0  0  0
    2.5529   46.8231   54.3733 H   0  0  0  0  0  0  0  0  0  0  0  0
    3.5720   44.0870   55.1850 H   0  0  0  0  0  0  0  0  0  0  0  0
   -1.2418   45.4048   56.8785 H   0  0  0  0  0  0  0  0  0  0  0  0
    0.2945   41.6287   51.8104 H   0  0  0  0  0  0  0  0  0  0  0  0
    2.3120   42.9270   52.7970 H   0  0  0  0  0  0  0  0  0  0  0  0
    6.0752   46.5480   54.2863 H   0  0  0  0  0  0  0  0  0  0  0  0
  1  2  2  0
  2  3  2  0
  2  4  1  0
  4  5  1  0
  5  6  1  0
  6  7  1  0
  7  8  1  0
  8  9  2  0
  9 10  1  0
 10 11  2  0
 11 12  1  0
 12 13  1  0
 13 14  1  0
 14 15  1  0
 15 16  2  0
 16 17  1  0
 17 18  2  0
 18 19  1  0
 19 20  1  0
 20 21  2  0
 21 22  1  0
 22 23  1  0
 12 24  2  0
  7  2  1  0
 24  8  1  0
 23 15  1  0
 23 19  2  0
  4 25  1  0
  4 26  1  0
  5 27  1  0
  5 28  1  0
  6 29  1  0
  6 30  1  0
  9 31  1  0
 10 32  1  0
 11 33  1  0
 13 34  1  0
 13 35  1  0
 14 36  1  0
 17 37  1  0
 21 38  1  0
 22 39  1  0
 24 40  1  0
M  END
>  <meeko>  (5) 
{"is_sidechain": [false], "free_energy": -7.84, "intermolecular_energy": -10.361, "internal_energy": -0.408}

$$$$
