MODEL 1
REMARK VINA RESULT:   -10.139      0.000      0.000
REMARK INTER + INTRA:         -13.126
REMARK INTER:                 -12.806
REMARK INTRA:                  -0.319
REMARK UNBOUND:                -0.319
REMARK SMILES Cc1cc(F)c2nc(O)cc(C(=O)N3CC[C@@H](Nc4ccccc4)C3)c2c1
REMARK SMILES IDX 12 1 13 2 11 3 2 4 3 5 27 6 4 7 26 8 6 9 7 10 10 11 8 12
REMARK SMILES IDX 1 13 5 14 9 15 14 17 15 18 25 19 16 20 17 21 18 22 19 24
REMARK SMILES IDX 20 25 24 26 21 27 23 28 22 29
REMARK H PARENT 9 16 18 23
ROOT
ATOM      1  C   UNL     1       5.220  45.993  51.436  1.00  0.00     0.254 C 
ATOM      2  O   UNL     1       4.401  46.277  50.521  1.00  0.00    -0.269 OA
ENDROOT
BRANCH   1   3
ATOM      3  C   UNL     1       6.588  45.566  51.070  1.00  0.00     0.054 A 
ATOM      4  C   UNL     1       8.827  47.392  53.466  1.00  0.00    -0.047 A 
ATOM      5  C   UNL     1      10.078  46.948  53.017  1.00  0.00     0.045 A 
ATOM      6  C   UNL     1       7.660  46.929  52.839  1.00  0.00     0.014 A 
ATOM      7  C   UNL     1      10.170  46.070  51.936  1.00  0.00     0.149 A 
ATOM      8  C   UNL     1       7.737  46.052  51.738  1.00  0.00     0.017 A 
ATOM      9  C   UNL     1       9.011  45.617  51.296  1.00  0.00     0.111 A 
ATOM     10  N   UNL     1       9.112  44.749  50.254  1.00  0.00    -0.210 NA
ATOM     11  C   UNL     1       6.742  44.673  50.001  1.00  0.00     0.082 A 
ATOM     12  C   UNL     1       8.021  44.270  49.605  1.00  0.00     0.212 A 
ATOM     13  C   UNL     1       8.732  48.296  54.659  1.00  0.00     0.044 C 
ATOM     14  F   UNL     1      11.391  45.650  51.516  1.00  0.00    -0.205 F 
BRANCH  12  15
ATOM     15  O   UNL     1       8.188  43.383  48.546  1.00  0.00    -0.493 OA
ATOM     16  H   UNL     1       8.953  42.718  48.527  1.00  0.00     0.295 HD
ENDBRANCH  12  15
ENDBRANCH   1   3
BRANCH   1  17
ATOM     17  N   UNL     1       4.806  46.056  52.810  1.00  0.00    -0.336 N 
ATOM     18  C   UNL     1       4.398  47.295  53.450  1.00  0.00     0.122 C 
ATOM     19  C   UNL     1       4.846  44.920  53.717  1.00  0.00     0.144 C 
ATOM     20  C   UNL     1       3.991  46.929  54.875  1.00  0.00     0.048 C 
ATOM     21  C   UNL     1       4.414  45.467  55.080  1.00  0.00     0.100 C 
BRANCH  21  22
ATOM     22  N   UNL     1       3.361  44.655  55.713  1.00  0.00    -0.380 N 
ATOM     23  H   UNL     1       3.696  43.945  56.403  1.00  0.00     0.160 HD
BRANCH  22  24
ATOM     24  C   UNL     1       1.937  44.716  55.465  1.00  0.00     0.034 A 
ATOM     25  C   UNL     1       1.110  45.325  56.425  1.00  0.00     0.025 A 
ATOM     26  C   UNL     1       1.340  44.186  54.300  1.00  0.00     0.025 A 
ATOM     27  C   UNL     1      -0.273  45.400  56.234  1.00  0.00     0.002 A 
ATOM     28  C   UNL     1      -0.043  44.261  54.115  1.00  0.00     0.002 A 
ATOM     29  C   UNL     1      -0.849  44.867  55.080  1.00  0.00     0.000 A 
ENDBRANCH  22  24
ENDBRANCH  21  22
ENDBRANCH   1  17
TORSDOF 5
ENDMDL
MODEL 2
REMARK VINA RESULT:    -9.852      3.250      6.814
REMARK INTER + INTRA:         -12.763
REMARK INTER:                 -12.072
REMARK INTRA:                  -0.691
REMARK UNBOUND:                -0.319
REMARK SMILES Cc1cc(F)c2nc(O)cc(C(=O)N3CC[C@@H](Nc4ccccc4)C3)c2c1
REMARK SMILES IDX 12 1 13 2 11 3 2 4 3 5 27 6 4 7 26 8 6 9 7 10 10 11 8 12
REMARK SMILES IDX 1 13 5 14 9 15 14 17 15 18 25 19 16 20 17 21 18 22 19 24
REMARK SMILES IDX 20 25 24 26 21 27 23 28 22 29
REMARK H PARENT 9 16 18 23
ROOT
ATOM      1  C   UNL     1       3.507  45.760  52.196  1.00  0.00     0.254 C 
ATOM      2  O   UNL     1       3.062  46.776  51.595  1.00  0.00    -0.269 OA
ENDROOT
BRANCH   1   3
ATOM      3  C   UNL     1       2.995  44.424  51.828  1.00  0.00     0.054 A 
ATOM      4  C   UNL     1       5.849  42.771  50.035  1.00  0.00    -0.047 A 
ATOM      5  C   UNL     1       5.254  41.545  49.708  1.00  0.00     0.045 A 
ATOM      6  C   UNL     1       5.115  43.729  50.753  1.00  0.00     0.014 A 
ATOM      7  C   UNL     1       3.931  41.283  50.068  1.00  0.00     0.149 A 
ATOM      8  C   UNL     1       3.774  43.484  51.112  1.00  0.00     0.017 A 
ATOM      9  C   UNL     1       3.189  42.240  50.769  1.00  0.00     0.111 A 
ATOM     10  N   UNL     1       1.906  41.968  51.128  1.00  0.00    -0.210 NA
ATOM     11  C   UNL     1       1.677  44.098  52.175  1.00  0.00     0.082 A 
ATOM     12  C   UNL     1       1.146  42.855  51.817  1.00  0.00     0.212 A 
ATOM     13  C   UNL     1       7.286  43.027  49.690  1.00  0.00     0.044 C 
ATOM     14  F   UNL     1       3.373  40.089  49.742  1.00  0.00    -0.205 F 
BRANCH  12  15
ATOM     15  O   UNL     1      -0.161  42.518  52.158  1.00  0.00    -0.493 OA
ATOM     16  H   UNL     1      -0.930  43.163  52.011  1.00  0.00     0.295 HD
ENDBRANCH  12  15
ENDBRANCH   1   3
BRANCH   1  17
ATOM     17  N   UNL     1       4.475  45.920  53.245  1.00  0.00    -0.336 N 
ATOM     18  C   UNL     1       4.692  44.915  54.272  1.00  0.00     0.122 C 
ATOM     19  C   UNL     1       5.256  47.131  53.444  1.00  0.00     0.144 C 
ATOM     20  C   UNL     1       5.823  45.439  55.153  1.00  0.00     0.048 C 
ATOM     21  C   UNL     1       6.070  46.890  54.717  1.00  0.00     0.100 C 
BRANCH  21  22
ATOM     22  N   UNL     1       7.500  47.196  54.548  1.00  0.00    -0.380 N 
ATOM     23  H   UNL     1       7.922  47.798  55.291  1.00  0.00     0.160 HD
BRANCH  22  24
ATOM     24  C   UNL     1       8.364  46.783  53.464  1.00  0.00     0.034 A 
ATOM     25  C   UNL     1       9.755  46.799  53.666  1.00  0.00     0.025 A 
ATOM     26  C   UNL     1       7.870  46.368  52.208  1.00  0.00     0.025 A 
ATOM     27  C   UNL     1      10.631  46.416  52.646  1.00  0.00     0.002 A 
ATOM     28  C   UNL     1       8.750  45.989  51.190  1.00  0.00     0.002 A 
ATOM     29  C   UNL     1      10.128  46.012  51.408  1.00  0.00     0.000 A 
ENDBRANCH  22  24
ENDBRANCH  21  22
ENDBRANCH   1  17
TORSDOF 5
ENDMDL
MODEL 3
REMARK VINA RESULT:    -9.778      2.324      3.856
REMARK INTER + INTRA:         -12.670
REMARK INTER:                 -12.992
REMARK INTRA:                   0.322
REMARK UNBOUND:                -0.319
REMARK SMILES Cc1cc(F)c2nc(O)cc(C(=O)N3CC[C@@H](Nc4ccccc4)C3)c2c1
REMARK SMILES IDX 12 1 13 2 11 3 2 4 3 5 27 6 4 7 26 8 6 9 7 10 10 11 8 12
REMARK SMILES IDX 1 13 5 14 9 15 14 17 15 18 25 19 16 20 17 21 18 22 19 24
REMARK SMILES IDX 20 25 24 26 21 27 23 28 22 29
REMARK H PARENT 9 16 18 23
ROOT
ATOM      1  C   UNL     1       5.826  45.114  51.145  1.00  0.00     0.254 C 
ATOM      2  O   UNL     1       6.407  45.364  50.054  1.00  0.00    -0.269 OA
ENDROOT
BRANCH   1   3
ATOM      3  C   UNL     1       6.116  45.957  52.324  1.00  0.00     0.054 A 
ATOM      4  C   UNL     1       9.846  46.379  52.297  1.00  0.00    -0.047 A 
ATOM      5  C   UNL     1      10.012  47.153  53.454  1.00  0.00     0.045 A 
ATOM      6  C   UNL     1       8.557  45.988  51.903  1.00  0.00     0.014 A 
ATOM      7  C   UNL     1       8.907  47.515  54.226  1.00  0.00     0.149 A 
ATOM      8  C   UNL     1       7.433  46.336  52.680  1.00  0.00     0.017 A 
ATOM      9  C   UNL     1       7.621  47.116  53.847  1.00  0.00     0.111 A 
ATOM     10  N   UNL     1       6.551  47.488  54.599  1.00  0.00    -0.210 NA
ATOM     11  C   UNL     1       5.045  46.364  53.131  1.00  0.00     0.082 A 
ATOM     12  C   UNL     1       5.282  47.137  54.271  1.00  0.00     0.212 A 
ATOM     13  C   UNL     1      11.031  46.035  51.444  1.00  0.00     0.044 C 
ATOM     14  F   UNL     1       9.089  48.267  55.342  1.00  0.00    -0.205 F 
BRANCH  12  15
ATOM     15  O   UNL     1       4.226  47.550  55.080  1.00  0.00    -0.493 OA
ATOM     16  H   UNL     1       4.235  48.451  55.544  1.00  0.00     0.295 HD
ENDBRANCH  12  15
ENDBRANCH   1   3
BRANCH   1  17
ATOM     17  N   UNL     1       4.923  44.000  51.234  1.00  0.00    -0.336 N 
ATOM     18  C   UNL     1       5.290  42.658  50.813  1.00  0.00     0.122 C 
ATOM     19  C   UNL     1       3.537  44.118  51.655  1.00  0.00     0.144 C 
ATOM     20  C   UNL     1       4.086  41.770  51.115  1.00  0.00     0.048 C 
ATOM     21  C   UNL     1       2.941  42.716  51.504  1.00  0.00     0.100 C 
BRANCH  21  22
ATOM     22  N   UNL     1       2.220  42.270  52.707  1.00  0.00    -0.380 N 
ATOM     23  H   UNL     1       2.401  41.282  52.998  1.00  0.00     0.160 HD
BRANCH  22  24
ATOM     24  C   UNL     1       1.280  43.031  53.500  1.00  0.00     0.034 A 
ATOM     25  C   UNL     1      -0.080  42.677  53.460  1.00  0.00     0.025 A 
ATOM     26  C   UNL     1       1.669  44.119  54.312  1.00  0.00     0.025 A 
ATOM     27  C   UNL     1      -1.027  43.388  54.203  1.00  0.00     0.002 A 
ATOM     28  C   UNL     1       0.718  44.829  55.051  1.00  0.00     0.002 A 
ATOM     29  C   UNL     1      -0.629  44.464  54.997  1.00  0.00     0.000 A 
ENDBRANCH  22  24
ENDBRANCH  21  22
ENDBRANCH   1  17
TORSDOF 5
ENDMDL
MODEL 4
REMARK VINA RESULT:    -9.368      2.475      4.083
REMARK INTER + INTRA:         -12.152
REMARK INTER:                 -12.048
REMARK INTRA:                  -0.103
REMARK UNBOUND:                -0.319
REMARK SMILES Cc1cc(F)c2nc(O)cc(C(=O)N3CC[C@@H](Nc4ccccc4)C3)c2c1
REMARK SMILES IDX 12 1 13 2 11 3 2 4 3 5 27 6 4 7 26 8 6 9 7 10 10 11 8 12
REMARK SMILES IDX 1 13 5 14 9 15 14 17 15 18 25 19 16 20 17 21 18 22 19 24
REMARK SMILES IDX 20 25 24 26 21 27 23 28 22 29
REMARK H PARENT 9 16 18 23
ROOT
ATOM      1  C   UNL     1       5.297  46.367  52.172  1.00  0.00     0.254 C 
ATOM      2  O   UNL     1       5.118  47.529  52.628  1.00  0.00    -0.269 OA
ENDROOT
BRANCH   1   3
ATOM      3  C   UNL     1       6.627  45.998  51.644  1.00  0.00     0.054 A 
ATOM      4  C   UNL     1       9.065  47.548  54.042  1.00  0.00    -0.047 A 
ATOM      5  C   UNL     1      10.272  47.171  53.439  1.00  0.00     0.045 A 
ATOM      6  C   UNL     1       7.848  47.152  53.465  1.00  0.00     0.014 A 
ATOM      7  C   UNL     1      10.271  46.428  52.258  1.00  0.00     0.149 A 
ATOM      8  C   UNL     1       7.830  46.412  52.265  1.00  0.00     0.017 A 
ATOM      9  C   UNL     1       9.062  46.044  51.668  1.00  0.00     0.111 A 
ATOM     10  N   UNL     1       9.073  45.306  50.527  1.00  0.00    -0.210 NA
ATOM     11  C   UNL     1       6.690  45.240  50.467  1.00  0.00     0.082 A 
ATOM     12  C   UNL     1       7.930  44.898  49.920  1.00  0.00     0.212 A 
ATOM     13  C   UNL     1       9.072  48.303  55.338  1.00  0.00     0.044 C 
ATOM     14  F   UNL     1      11.452  46.072  51.690  1.00  0.00    -0.205 F 
BRANCH  12  15
ATOM     15  O   UNL     1       8.005  44.144  48.752  1.00  0.00    -0.493 OA
ATOM     16  H   UNL     1       7.867  44.563  47.840  1.00  0.00     0.295 HD
ENDBRANCH  12  15
ENDBRANCH   1   3
BRANCH   1  17
ATOM     17  N   UNL     1       4.203  45.436  52.142  1.00  0.00    -0.336 N 
ATOM     18  C   UNL     1       2.891  45.784  51.622  1.00  0.00     0.122 C 
ATOM     19  C   UNL     1       4.266  44.100  52.713  1.00  0.00     0.144 C 
ATOM     20  C   UNL     1       2.041  44.520  51.722  1.00  0.00     0.048 C 
ATOM     21  C   UNL     1       2.863  43.514  52.541  1.00  0.00     0.100 C 
BRANCH  21  22
ATOM     22  N   UNL     1       2.875  42.170  51.940  1.00  0.00    -0.380 N 
ATOM     23  H   UNL     1       2.259  41.465  52.405  1.00  0.00     0.160 HD
BRANCH  22  24
ATOM     24  C   UNL     1       3.658  41.720  50.810  1.00  0.00     0.034 A 
ATOM     25  C   UNL     1       5.039  41.988  50.798  1.00  0.00     0.025 A 
ATOM     26  C   UNL     1       3.096  41.029  49.716  1.00  0.00     0.025 A 
ATOM     27  C   UNL     1       5.837  41.581  49.724  1.00  0.00     0.002 A 
ATOM     28  C   UNL     1       3.897  40.626  48.643  1.00  0.00     0.002 A 
ATOM     29  C   UNL     1       5.266  40.901  48.647  1.00  0.00     0.000 A 
ENDBRANCH  22  24
ENDBRANCH  21  22
ENDBRANCH   1  17
TORSDOF 5
ENDMDL
MODEL 5
REMARK VINA RESULT:    -9.182      3.518      7.996
REMARK INTER + INTRA:         -11.916
REMARK INTER:                 -11.438
REMARK INTRA:                  -0.478
REMARK UNBOUND:                -0.319
REMARK SMILES Cc1cc(F)c2nc(O)cc(C(=O)N3CC[C@@H](Nc4ccccc4)C3)c2c1
REMARK SMILES IDX 12 1 13 2 11 3 2 4 3 5 27 6 4 7 26 8 6 9 7 10 10 11 8 12
REMARK SMILES IDX 1 13 5 14 9 15 14 17 15 18 25 19 16 20 17 21 18 22 19 24
REMARK SMILES IDX 20 25 24 26 21 27 23 28 22 29
REMARK H PARENT 9 16 18 23
ROOT
ATOM      1  C   UNL     1       3.386  43.530  52.698  1.00  0.00     0.254 C 
ATOM      2  O   UNL     1       3.929  42.425  52.424  1.00  0.00    -0.269 OA
ENDROOT
BRANCH   1   3
ATOM      3  C   UNL     1       1.937  43.697  52.459  1.00  0.00     0.054 A 
ATOM      4  C   UNL     1       0.571  44.929  55.732  1.00  0.00    -0.047 A 
ATOM      5  C   UNL     1      -0.790  45.022  55.409  1.00  0.00     0.045 A 
ATOM      6  C   UNL     1       1.489  44.506  54.757  1.00  0.00     0.014 A 
ATOM      7  C   UNL     1      -1.239  44.671  54.134  1.00  0.00     0.149 A 
ATOM      8  C   UNL     1       1.048  44.137  53.470  1.00  0.00     0.017 A 
ATOM      9  C   UNL     1      -0.332  44.233  53.163  1.00  0.00     0.111 A 
ATOM     10  N   UNL     1      -0.779  43.910  51.921  1.00  0.00    -0.210 NA
ATOM     11  C   UNL     1       1.429  43.374  51.194  1.00  0.00     0.082 A 
ATOM     12  C   UNL     1       0.059  43.490  50.939  1.00  0.00     0.212 A 
ATOM     13  C   UNL     1       1.054  45.355  57.086  1.00  0.00     0.044 C 
ATOM     14  F   UNL     1      -2.561  44.768  53.841  1.00  0.00    -0.205 F 
BRANCH  12  15
ATOM     15  O   UNL     1      -0.458  43.174  49.686  1.00  0.00    -0.493 OA
ATOM     16  H   UNL     1      -1.457  43.101  49.528  1.00  0.00     0.295 HD
ENDBRANCH  12  15
ENDBRANCH   1   3
BRANCH   1  17
ATOM     17  N   UNL     1       4.185  44.612  53.202  1.00  0.00    -0.336 N 
ATOM     18  C   UNL     1       4.943  44.518  54.438  1.00  0.00     0.122 C 
ATOM     19  C   UNL     1       4.237  45.929  52.588  1.00  0.00     0.144 C 
ATOM     20  C   UNL     1       5.684  45.843  54.589  1.00  0.00     0.048 C 
ATOM     21  C   UNL     1       5.122  46.775  53.506  1.00  0.00     0.100 C 
BRANCH  21  22
ATOM     22  N   UNL     1       6.178  47.496  52.775  1.00  0.00    -0.380 N 
ATOM     23  H   UNL     1       5.862  48.344  52.252  1.00  0.00     0.160 HD
BRANCH  22  24
ATOM     24  C   UNL     1       7.578  47.146  52.683  1.00  0.00     0.034 A 
ATOM     25  C   UNL     1       8.014  46.399  51.574  1.00  0.00     0.025 A 
ATOM     26  C   UNL     1       8.526  47.517  53.660  1.00  0.00     0.025 A 
ATOM     27  C   UNL     1       9.356  46.029  51.444  1.00  0.00     0.002 A 
ATOM     28  C   UNL     1       9.866  47.143  53.527  1.00  0.00     0.002 A 
ATOM     29  C   UNL     1      10.281  46.400  52.421  1.00  0.00     0.000 A 
ENDBRANCH  22  24
ENDBRANCH  21  22
ENDBRANCH   1  17
TORSDOF 5
ENDMDL
