MODEL 1
REMARK VINA RESULT:    -7.950      0.000      0.000
REMARK INTER + INTRA:         -12.200
REMARK INTER:                 -10.739
REMARK INTRA:                  -1.461
REMARK UNBOUND:                -1.461
REMARK SMILES CN(C)C(=O)[C@H](NC(=O)Cc1csc(N2CCCNC2=O)n1)c1ccccc1
REMARK SMILES IDX 7 1 8 2 9 3 6 5 4 6 2 7 5 8 1 9 3 10 23 11 24 12 28 13 25 14
REMARK SMILES IDX 27 15 26 16 10 17 11 18 12 19 22 20 13 21 14 22 15 23 16 24
REMARK SMILES IDX 20 25 17 26 19 27 21 28 18 29
REMARK H PARENT 7 4 19 30
ROOT
ATOM      1  N   UNL     1       3.296  44.139  53.371  1.00  0.00    -0.340 N 
ATOM      2  C   UNL     1       2.649  44.595  54.568  1.00  0.00     0.226 C 
ATOM      3  O   UNL     1       1.522  44.134  54.899  1.00  0.00    -0.275 OA
ATOM      4  H   UNL     1       4.277  44.450  53.186  1.00  0.00     0.164 HD
ENDROOT
BRANCH   1   5
ATOM      5  C   UNL     1       2.642  43.229  52.426  1.00  0.00     0.202 C 
BRANCH   5   6
ATOM      6  C   UNL     1       1.512  43.950  51.718  1.00  0.00     0.249 C 
ATOM      7  N   UNL     1       0.148  43.473  51.788  1.00  0.00    -0.347 N 
ATOM      8  O   UNL     1       1.757  45.033  51.115  1.00  0.00    -0.272 OA
ATOM      9  C   UNL     1      -0.198  42.275  52.563  1.00  0.00     0.146 C 
ATOM     10  C   UNL     1      -0.913  44.248  51.134  1.00  0.00     0.146 C 
ENDBRANCH   5   6
BRANCH   5  11
ATOM     11  C   UNL     1       3.649  42.663  51.442  1.00  0.00    -0.016 A 
ATOM     12  C   UNL     1       4.924  43.244  51.290  1.00  0.00     0.006 A 
ATOM     13  C   UNL     1       3.293  41.577  50.621  1.00  0.00     0.006 A 
ATOM     14  C   UNL     1       5.827  42.732  50.352  1.00  0.00     0.000 A 
ATOM     15  C   UNL     1       4.201  41.070  49.685  1.00  0.00     0.000 A 
ATOM     16  C   UNL     1       5.468  41.642  49.555  1.00  0.00     0.000 A 
ENDBRANCH   5  11
ENDBRANCH   1   5
BRANCH   2  17
ATOM     17  C   UNL     1       3.312  45.621  55.440  1.00  0.00     0.157 C 
BRANCH  17  18
ATOM     18  C   UNL     1       4.220  46.487  54.620  1.00  0.00     0.063 A 
ATOM     19  C   UNL     1       3.801  47.673  54.021  1.00  0.00     0.093 A 
ATOM     20  N   UNL     1       5.514  46.139  54.371  1.00  0.00    -0.224 NA
ATOM     21  S   UNL     1       5.101  48.300  53.163  1.00  0.00    -0.105 S 
ATOM     22  C   UNL     1       6.141  47.041  53.582  1.00  0.00     0.193 A 
BRANCH  22  23
ATOM     23  N   UNL     1       7.515  46.916  53.149  1.00  0.00    -0.270 N 
ATOM     24  C   UNL     1       7.808  46.177  51.908  1.00  0.00     0.132 C 
ATOM     25  C   UNL     1       8.609  47.371  53.978  1.00  0.00     0.323 C 
ATOM     26  C   UNL     1       9.178  46.545  51.330  1.00  0.00     0.043 C 
ATOM     27  N   UNL     1       9.961  47.150  53.562  1.00  0.00    -0.338 N 
ATOM     28  O   UNL     1       8.395  47.988  55.056  1.00  0.00    -0.248 OA
ATOM     29  C   UNL     1      10.262  46.347  52.384  1.00  0.00     0.119 C 
ATOM     30  H   UNL     1      10.747  47.562  54.116  1.00  0.00     0.165 HD
ENDBRANCH  22  23
ENDBRANCH  17  18
ENDBRANCH   2  17
TORSDOF 6
ENDMDL
MODEL 2
REMARK VINA RESULT:    -7.743      2.420      7.333
REMARK INTER + INTRA:         -11.921
REMARK INTER:                 -10.754
REMARK INTRA:                  -1.167
REMARK UNBOUND:                -1.461
REMARK SMILES CN(C)C(=O)[C@H](NC(=O)Cc1csc(N2CCCNC2=O)n1)c1ccccc1
REMARK SMILES IDX 7 1 8 2 9 3 6 5 4 6 2 7 5 8 1 9 3 10 23 11 24 12 28 13 25 14
REMARK SMILES IDX 27 15 26 16 10 17 11 18 12 19 22 20 13 21 14 22 15 23 16 24
REMARK SMILES IDX 20 25 17 26 19 27 21 28 18 29
REMARK H PARENT 7 4 19 30
ROOT
ATOM      1  N   UNL     1       6.431  44.892  52.272  1.00  0.00    -0.340 N 
ATOM      2  C   UNL     1       6.515  44.948  50.841  1.00  0.00     0.226 C 
ATOM      3  O   UNL     1       6.609  46.060  50.251  1.00  0.00    -0.275 OA
ATOM      4  H   UNL     1       6.473  43.957  52.737  1.00  0.00     0.164 HD
ENDROOT
BRANCH   1   5
ATOM      5  C   UNL     1       6.327  46.099  53.098  1.00  0.00     0.202 C 
BRANCH   5   6
ATOM      6  C   UNL     1       5.399  45.840  54.269  1.00  0.00     0.249 C 
ATOM      7  N   UNL     1       4.041  46.338  54.284  1.00  0.00    -0.347 N 
ATOM      8  O   UNL     1       5.799  45.109  55.219  1.00  0.00    -0.272 OA
ATOM      9  C   UNL     1       3.501  47.104  53.154  1.00  0.00     0.146 C 
ATOM     10  C   UNL     1       3.171  46.001  55.417  1.00  0.00     0.146 C 
ENDBRANCH   5   6
BRANCH   5  11
ATOM     11  C   UNL     1       7.699  46.553  53.560  1.00  0.00    -0.016 A 
ATOM     12  C   UNL     1       7.842  47.512  54.583  1.00  0.00     0.006 A 
ATOM     13  C   UNL     1       8.852  46.058  52.924  1.00  0.00     0.006 A 
ATOM     14  C   UNL     1       9.114  47.946  54.971  1.00  0.00     0.000 A 
ATOM     15  C   UNL     1      10.121  46.498  53.317  1.00  0.00     0.000 A 
ATOM     16  C   UNL     1      10.253  47.435  54.344  1.00  0.00     0.000 A 
ENDBRANCH   5  11
ENDBRANCH   1   5
BRANCH   2  17
ATOM     17  C   UNL     1       6.496  43.684  50.033  1.00  0.00     0.157 C 
BRANCH  17  18
ATOM     18  C   UNL     1       5.262  42.890  50.344  1.00  0.00     0.063 A 
ATOM     19  C   UNL     1       5.057  41.594  49.878  1.00  0.00     0.093 A 
ATOM     20  N   UNL     1       4.236  43.413  51.071  1.00  0.00    -0.224 NA
ATOM     21  S   UNL     1       3.544  41.094  50.407  1.00  0.00    -0.105 S 
ATOM     22  C   UNL     1       3.209  42.543  51.202  1.00  0.00     0.193 A 
BRANCH  22  23
ATOM     23  N   UNL     1       1.986  42.839  51.913  1.00  0.00    -0.270 N 
ATOM     24  C   UNL     1       1.992  42.808  53.387  1.00  0.00     0.132 C 
ATOM     25  C   UNL     1       0.733  43.019  51.213  1.00  0.00     0.323 C 
ATOM     26  C   UNL     1       0.825  43.601  53.983  1.00  0.00     0.043 C 
ATOM     27  N   UNL     1      -0.477  43.220  51.953  1.00  0.00    -0.338 N 
ATOM     28  O   UNL     1       0.689  43.030  49.954  1.00  0.00    -0.248 OA
ATOM     29  C   UNL     1      -0.496  43.104  53.405  1.00  0.00     0.119 C 
ATOM     30  H   UNL     1      -1.363  43.442  51.444  1.00  0.00     0.165 HD
ENDBRANCH  22  23
ENDBRANCH  17  18
ENDBRANCH   2  17
TORSDOF 6
ENDMDL
MODEL 3
REMARK VINA RESULT:    -7.561      2.455      7.878
REMARK INTER + INTRA:         -11.675
REMARK INTER:                 -10.987
REMARK INTRA:                  -0.688
REMARK UNBOUND:                -1.461
REMARK SMILES CN(C)C(=O)[C@H](NC(=O)Cc1csc(N2CCCNC2=O)n1)c1ccccc1
REMARK SMILES IDX 7 1 8 2 9 3 6 5 4 6 2 7 5 8 1 9 3 10 23 11 24 12 28 13 25 14
REMARK SMILES IDX 27 15 26 16 10 17 11 18 12 19 22 20 13 21 14 22 15 23 16 24
REMARK SMILES IDX 20 25 17 26 19 27 21 28 18 29
REMARK H PARENT 7 4 19 30
ROOT
ATOM      1  N   UNL     1       4.901  46.230  52.611  1.00  0.00    -0.340 N 
ATOM      2  C   UNL     1       3.653  46.517  51.966  1.00  0.00     0.226 C 
ATOM      3  O   UNL     1       3.604  46.679  50.715  1.00  0.00    -0.275 OA
ATOM      4  H   UNL     1       4.892  45.985  53.628  1.00  0.00     0.164 HD
ENDROOT
BRANCH   1   5
ATOM      5  C   UNL     1       6.176  46.232  51.888  1.00  0.00     0.202 C 
BRANCH   5   6
ATOM      6  C   UNL     1       7.323  46.378  52.869  1.00  0.00     0.249 C 
ATOM      7  N   UNL     1       8.397  47.320  52.643  1.00  0.00    -0.347 N 
ATOM      8  O   UNL     1       7.300  45.714  53.943  1.00  0.00    -0.272 OA
ATOM      9  C   UNL     1       8.410  48.187  51.458  1.00  0.00     0.146 C 
ATOM     10  C   UNL     1       9.446  47.462  53.660  1.00  0.00     0.146 C 
ENDBRANCH   5   6
BRANCH   5  11
ATOM     11  C   UNL     1       6.317  44.978  51.044  1.00  0.00    -0.016 A 
ATOM     12  C   UNL     1       5.457  43.877  51.228  1.00  0.00     0.006 A 
ATOM     13  C   UNL     1       7.357  44.881  50.101  1.00  0.00     0.006 A 
ATOM     14  C   UNL     1       5.624  42.715  50.467  1.00  0.00     0.000 A 
ATOM     15  C   UNL     1       7.518  43.715  49.344  1.00  0.00     0.000 A 
ATOM     16  C   UNL     1       6.650  42.636  49.521  1.00  0.00     0.000 A 
ENDBRANCH   5  11
ENDBRANCH   1   5
BRANCH   2  17
ATOM     17  C   UNL     1       2.392  46.624  52.773  1.00  0.00     0.157 C 
BRANCH  17  18
ATOM     18  C   UNL     1       1.675  45.308  52.788  1.00  0.00     0.063 A 
ATOM     19  C   UNL     1       2.245  44.139  53.286  1.00  0.00     0.093 A 
ATOM     20  N   UNL     1       0.424  45.165  52.266  1.00  0.00    -0.224 NA
ATOM     21  S   UNL     1       1.136  42.897  53.070  1.00  0.00    -0.105 S 
ATOM     22  C   UNL     1      -0.020  43.890  52.350  1.00  0.00     0.193 A 
BRANCH  22  23
ATOM     23  N   UNL     1      -1.308  43.451  51.863  1.00  0.00    -0.270 N 
ATOM     24  C   UNL     1      -1.494  43.253  50.414  1.00  0.00     0.132 C 
ATOM     25  C   UNL     1      -2.449  43.345  52.745  1.00  0.00     0.323 C 
ATOM     26  C   UNL     1      -2.687  42.343  50.107  1.00  0.00     0.043 C 
ATOM     27  N   UNL     1      -3.733  42.995  52.215  1.00  0.00    -0.338 N 
ATOM     28  O   UNL     1      -2.330  43.528  53.986  1.00  0.00    -0.248 OA
ATOM     29  C   UNL     1      -3.946  42.883  50.777  1.00  0.00     0.119 C 
ATOM     30  H   UNL     1      -4.533  42.828  52.866  1.00  0.00     0.165 HD
ENDBRANCH  22  23
ENDBRANCH  17  18
ENDBRANCH   2  17
TORSDOF 6
ENDMDL
MODEL 4
REMARK VINA RESULT:    -7.521      2.649      7.205
REMARK INTER + INTRA:         -11.620
REMARK INTER:                 -10.228
REMARK INTRA:                  -1.392
REMARK UNBOUND:                -1.461
REMARK SMILES CN(C)C(=O)[C@H](NC(=O)Cc1csc(N2CCCNC2=O)n1)c1ccccc1
REMARK SMILES IDX 7 1 8 2 9 3 6 5 4 6 2 7 5 8 1 9 3 10 23 11 24 12 28 13 25 14
REMARK SMILES IDX 27 15 26 16 10 17 11 18 12 19 22 20 13 21 14 22 15 23 16 24
REMARK SMILES IDX 20 25 17 26 19 27 21 28 18 29
REMARK H PARENT 7 4 19 30
ROOT
ATOM      1  N   UNL     1       3.378  44.328  53.883  1.00  0.00    -0.340 N 
ATOM      2  C   UNL     1       2.629  45.281  54.651  1.00  0.00     0.226 C 
ATOM      3  O   UNL     1       2.793  46.519  54.467  1.00  0.00    -0.275 OA
ATOM      4  H   UNL     1       3.137  43.315  53.974  1.00  0.00     0.164 HD
ENDROOT
BRANCH   1   5
ATOM      5  C   UNL     1       4.440  44.731  52.956  1.00  0.00     0.202 C 
BRANCH   5   6
ATOM      6  C   UNL     1       5.693  45.085  53.733  1.00  0.00     0.249 C 
ATOM      7  N   UNL     1       6.458  46.276  53.434  1.00  0.00    -0.347 N 
ATOM      8  O   UNL     1       6.034  44.362  54.711  1.00  0.00    -0.272 OA
ATOM      9  C   UNL     1       6.040  47.200  52.372  1.00  0.00     0.146 C 
ATOM     10  C   UNL     1       7.626  46.599  54.262  1.00  0.00     0.146 C 
ENDBRANCH   5   6
BRANCH   5  11
ATOM     11  C   UNL     1       4.703  43.640  51.935  1.00  0.00    -0.016 A 
ATOM     12  C   UNL     1       5.728  43.771  50.977  1.00  0.00     0.006 A 
ATOM     13  C   UNL     1       3.878  42.500  51.899  1.00  0.00     0.006 A 
ATOM     14  C   UNL     1       5.934  42.771  50.021  1.00  0.00     0.000 A 
ATOM     15  C   UNL     1       4.090  41.505  50.938  1.00  0.00     0.000 A 
ATOM     16  C   UNL     1       5.119  41.636  50.005  1.00  0.00     0.000 A 
ENDBRANCH   5  11
ENDBRANCH   1   5
BRANCH   2  17
ATOM     17  C   UNL     1       1.638  44.812  55.677  1.00  0.00     0.157 C 
BRANCH  17  18
ATOM     18  C   UNL     1       0.273  44.705  55.066  1.00  0.00     0.063 A 
ATOM     19  C   UNL     1      -0.901  44.842  55.804  1.00  0.00     0.093 A 
ATOM     20  N   UNL     1       0.097  44.420  53.746  1.00  0.00    -0.224 NA
ATOM     21  S   UNL     1      -2.192  44.604  54.758  1.00  0.00    -0.105 S 
ATOM     22  C   UNL     1      -1.212  44.334  53.413  1.00  0.00     0.193 A 
BRANCH  22  23
ATOM     23  N   UNL     1      -1.688  44.030  52.083  1.00  0.00    -0.270 N 
ATOM     24  C   UNL     1      -1.648  42.634  51.612  1.00  0.00     0.132 C 
ATOM     25  C   UNL     1      -2.062  45.079  51.160  1.00  0.00     0.323 C 
ATOM     26  C   UNL     1      -2.608  42.395  50.442  1.00  0.00     0.043 C 
ATOM     27  N   UNL     1      -2.443  44.750  49.820  1.00  0.00    -0.338 N 
ATOM     28  O   UNL     1      -2.087  46.285  51.524  1.00  0.00    -0.248 OA
ATOM     29  C   UNL     1      -2.323  43.386  49.319  1.00  0.00     0.119 C 
ATOM     30  H   UNL     1      -2.802  45.499  49.185  1.00  0.00     0.165 HD
ENDBRANCH  22  23
ENDBRANCH  17  18
ENDBRANCH   2  17
TORSDOF 6
ENDMDL
MODEL 5
REMARK VINA RESULT:    -7.466      3.212      6.701
REMARK INTER + INTRA:         -11.546
REMARK INTER:                 -10.970
REMARK INTRA:                  -0.576
REMARK UNBOUND:                -1.461
REMARK SMILES CN(C)C(=O)[C@H](NC(=O)Cc1csc(N2CCCNC2=O)n1)c1ccccc1
REMARK SMILES IDX 7 1 8 2 9 3 6 5 4 6 2 7 5 8 1 9 3 10 23 11 24 12 28 13 25 14
REMARK SMILES IDX 27 15 26 16 10 17 11 18 12 19 22 20 13 21 14 22 15 23 16 24
REMARK SMILES IDX 20 25 17 26 19 27 21 28 18 29
REMARK H PARENT 7 4 19 30
ROOT
ATOM      1  N   UNL     1       3.675  43.784  51.953  1.00  0.00    -0.340 N 
ATOM      2  C   UNL     1       2.289  43.770  51.579  1.00  0.00     0.226 C 
ATOM      3  O   UNL     1       1.815  44.689  50.854  1.00  0.00    -0.275 OA
ATOM      4  H   UNL     1       4.064  42.952  52.452  1.00  0.00     0.164 HD
ENDROOT
BRANCH   1   5
ATOM      5  C   UNL     1       4.563  44.904  51.626  1.00  0.00     0.202 C 
BRANCH   5   6
ATOM      6  C   UNL     1       4.982  45.614  52.898  1.00  0.00     0.249 C 
ATOM      7  N   UNL     1       4.367  46.857  53.309  1.00  0.00    -0.347 N 
ATOM      8  O   UNL     1       5.836  45.069  53.653  1.00  0.00    -0.272 OA
ATOM      9  C   UNL     1       3.296  47.474  52.515  1.00  0.00     0.146 C 
ATOM     10  C   UNL     1       4.770  47.465  54.583  1.00  0.00     0.146 C 
ENDBRANCH   5   6
BRANCH   5  11
ATOM     11  C   UNL     1       5.763  44.423  50.832  1.00  0.00    -0.016 A 
ATOM     12  C   UNL     1       6.852  45.277  50.568  1.00  0.00     0.006 A 
ATOM     13  C   UNL     1       5.772  43.122  50.295  1.00  0.00     0.006 A 
ATOM     14  C   UNL     1       7.933  44.828  49.803  1.00  0.00     0.000 A 
ATOM     15  C   UNL     1       6.858  42.680  49.531  1.00  0.00     0.000 A 
ATOM     16  C   UNL     1       7.940  43.529  49.290  1.00  0.00     0.000 A 
ENDBRANCH   5  11
ENDBRANCH   1   5
BRANCH   2  17
ATOM     17  C   UNL     1       1.393  42.660  52.043  1.00  0.00     0.157 C 
BRANCH  17  18
ATOM     18  C   UNL     1       0.271  43.212  52.870  1.00  0.00     0.063 A 
ATOM     19  C   UNL     1      -1.071  43.041  52.539  1.00  0.00     0.093 A 
ATOM     20  N   UNL     1       0.501  43.962  53.984  1.00  0.00    -0.224 NA
ATOM     21  S   UNL     1      -1.988  43.851  53.688  1.00  0.00    -0.105 S 
ATOM     22  C   UNL     1      -0.647  44.389  54.556  1.00  0.00     0.193 A 
BRANCH  22  23
ATOM     23  N   UNL     1      -0.700  45.213  55.743  1.00  0.00    -0.270 N 
ATOM     24  C   UNL     1      -1.976  45.849  56.115  1.00  0.00     0.132 C 
ATOM     25  C   UNL     1       0.498  45.542  56.484  1.00  0.00     0.323 C 
ATOM     26  C   UNL     1      -2.009  46.251  57.592  1.00  0.00     0.043 C 
ATOM     27  N   UNL     1       0.426  46.435  57.601  1.00  0.00    -0.338 N 
ATOM     28  O   UNL     1       1.610  45.032  56.180  1.00  0.00    -0.248 OA
ATOM     29  C   UNL     1      -0.811  47.135  57.922  1.00  0.00     0.119 C 
ATOM     30  H   UNL     1       1.274  46.596  58.190  1.00  0.00     0.165 HD
ENDBRANCH  22  23
ENDBRANCH  17  18
ENDBRANCH   2  17
TORSDOF 6
ENDMDL
