ligand_99_conformer_1_docked
     RDKit          3D

 47 48  0  0  0  0  0  0  0  0999 V2000
   10.2560   46.1760   51.1550 C   0  0  0  0  0  0  0  0  0  0  0  0
    9.3950   46.5050   52.3470 C   0  0  0  0  0  0  0  0  0  0  0  0
    9.9920   47.1100   53.4640 C   0  0  0  0  0  0  0  0  0  0  0  0
    9.2350   47.4330   54.5870 C   0  0  0  0  0  0  0  0  0  0  0  0
    7.8670   47.1750   54.6050 C   0  0  0  0  0  0  0  0  0  0  0  0
    7.2380   46.5790   53.5020 C   0  0  0  0  0  0  0  0  0  0  0  0
    5.8090   46.3950   53.5410 N   0  0  0  0  0  0  0  0  0  0  0  0
    4.9470   47.5500   53.2810 C   0  0  0  0  0  0  0  0  0  0  0  0
    5.2200   45.1710   54.0330 C   0  0  0  0  0  0  0  0  0  0  0  0
    5.6670   44.6470   55.0890 O   0  0  0  0  0  0  0  0  0  0  0  0
    4.1170   44.4880   53.3280 C   0  0  0  0  0  0  0  0  0  0  0  0
    4.2150   43.6460   52.2390 C   0  0  0  0  0  0  0  0  0  0  0  0
    2.9140   43.2760   51.9700 C   0  0  0  0  0  0  0  0  0  0  0  0
    2.5310   42.3700   50.8380 C   0  0  0  0  0  0  0  0  0  0  0  0
    2.0800   43.9060   52.8450 N   0  0  0  0  0  0  0  0  0  0  0  0
    0.6090   43.7790   53.0070 C   0  0  0  0  0  0  0  0  0  0  0  0
    0.1190   44.7460   54.1120 C   0  0  0  0  0  0  0  0  0  0  0  0
   -0.1370   44.1440   51.7050 C   0  0  0  0  0  0  0  0  0  0  0  0
    0.2620   42.3420   53.4360 C   0  0  0  0  0  0  0  0  0  0  0  0
    2.8250   44.6290   53.6720 N   0  0  0  0  0  0  0  0  0  0  0  0
    8.0110   46.1870   52.3780 C   0  0  0  0  0  0  0  0  0  0  0  0
    7.3630   45.4690   51.2170 C   0  0  0  0  0  0  0  0  0  0  0  0
   11.2319   45.8031   51.4993 H   0  0  0  0  0  0  0  0  0  0  0  0
    9.7617   45.4034   50.5477 H   0  0  0  0  0  0  0  0  0  0  0  0
   10.4029   47.0813   50.5477 H   0  0  0  0  0  0  0  0  0  0  0  0
   11.0694   47.3313   53.4520 H   0  0  0  0  0  0  0  0  0  0  0  0
    9.7186   47.8928   55.4615 H   0  0  0  0  0  0  0  0  0  0  0  0
    7.2739   47.4410   55.4924 H   0  0  0  0  0  0  0  0  0  0  0  0
    4.6211   47.9867   54.2365 H   0  0  0  0  0  0  0  0  0  0  0  0
    5.5060   48.3026   52.7056 H   0  0  0  0  0  0  0  0  0  0  0  0
    4.0665   47.2282   52.7056 H   0  0  0  0  0  0  0  0  0  0  0  0
    5.1265   43.3389   51.7052 H   0  0  0  0  0  0  0  0  0  0  0  0
    2.1325   41.4274   51.2415 H   0  0  0  0  0  0  0  0  0  0  0  0
    1.7625   42.8587   50.2211 H   0  0  0  0  0  0  0  0  0  0  0  0
    3.4170   42.1593   50.2211 H   0  0  0  0  0  0  0  0  0  0  0  0
    0.3376   44.3147   55.1000 H   0  0  0  0  0  0  0  0  0  0  0  0
    0.6368   45.7112   54.0106 H   0  0  0  0  0  0  0  0  0  0  0  0
   -0.9655   44.8993   54.0106 H   0  0  0  0  0  0  0  0  0  0  0  0
   -1.0995   44.6149   51.9536 H   0  0  0  0  0  0  0  0  0  0  0  0
    0.4733   44.8453   51.1170 H   0  0  0  0  0  0  0  0  0  0  0  0
   -0.3162   43.2318   51.1170 H   0  0  0  0  0  0  0  0  0  0  0  0
    0.2472   42.2807   54.5342 H   0  0  0  0  0  0  0  0  0  0  0  0
   -0.7276   42.0700   53.0402 H   0  0  0  0  0  0  0  0  0  0  0  0
    1.0185   41.6484   53.0402 H   0  0  0  0  0  0  0  0  0  0  0  0
    6.6719   44.7032   51.5991 H   0  0  0  0  0  0  0  0  0  0  0  0
    6.8059   46.1923   50.6034 H   0  0  0  0  0  0  0  0  0  0  0  0
    8.1394   44.9888   50.6034 H   0  0  0  0  0  0  0  0  0  0  0  0
  1  2  1  0
  2  3  2  0
  3  4  1  0
  4  5  2  0
  5  6  1  0
  6  7  1  0
  7  8  1  0
  7  9  1  0
  9 10  2  0
  9 11  1  0
 11 12  1  0
 12 13  2  0
 13 14  1  0
 13 15  1  0
 15 16  1  0
 16 17  1  0
 16 18  1  0
 16 19  1  0
 15 20  1  0
  6 21  2  0
 21 22  1  0
 21  2  1  0
 20 11  2  0
  1 23  1  0
  1 24  1  0
  1 25  1  0
  3 26  1  0
  4 27  1  0
  5 28  1  0
  8 29  1  0
  8 30  1  0
  8 31  1  0
 12 32  1  0
 14 33  1  0
 14 34  1  0
 14 35  1  0
 17 36  1  0
 17 37  1  0
 17 38  1  0
 18 39  1  0
 18 40  1  0
 18 41  1  0
 19 42  1  0
 19 43  1  0
 19 44  1  0
 22 45  1  0
 22 46  1  0
 22 47  1  0
M  END
>  <meeko>  (1) 
{"is_sidechain": [false], "free_energy": -8.225, "intermolecular_energy": -10.148, "internal_energy": -0.542}

$$$$
ligand_99_conformer_1_docked
     RDKit          3D

 47 48  0  0  0  0  0  0  0  0999 V2000
   10.0580   46.1490   51.1840 C   0  0  0  0  0  0  0  0  0  0  0  0
    9.2360   46.5190   52.3920 C   0  0  0  0  0  0  0  0  0  0  0  0
    9.8730   47.1490   53.4730 C   0  0  0  0  0  0  0  0  0  0  0  0
    9.1530   47.5110   54.6090 C   0  0  0  0  0  0  0  0  0  0  0  0
    7.7840   47.2670   54.6750 C   0  0  0  0  0  0  0  0  0  0  0  0
    7.1160   46.6470   53.6090 C   0  0  0  0  0  0  0  0  0  0  0  0
    5.6880   46.4790   53.6960 N   0  0  0  0  0  0  0  0  0  0  0  0
    4.8250   47.5720   53.2430 C   0  0  0  0  0  0  0  0  0  0  0  0
    5.1020   45.3650   54.4060 C   0  0  0  0  0  0  0  0  0  0  0  0
    5.8240   44.6630   55.1640 O   0  0  0  0  0  0  0  0  0  0  0  0
    3.6800   44.9970   54.2600 C   0  0  0  0  0  0  0  0  0  0  0  0
    2.6500   45.2770   55.1340 C   0  0  0  0  0  0  0  0  0  0  0  0
    1.5330   44.7260   54.5400 C   0  0  0  0  0  0  0  0  0  0  0  0
    0.1660   44.7690   55.1550 C   0  0  0  0  0  0  0  0  0  0  0  0
    1.9000   44.1130   53.3800 N   0  0  0  0  0  0  0  0  0  0  0  0
    1.0580   43.4450   52.3550 C   0  0  0  0  0  0  0  0  0  0  0  0
    0.1830   42.3580   53.0240 C   0  0  0  0  0  0  0  0  0  0  0  0
    0.1070   44.4460   51.6640 C   0  0  0  0  0  0  0  0  0  0  0  0
    1.9620   42.7620   51.3140 C   0  0  0  0  0  0  0  0  0  0  0  0
    3.2050   44.2960   53.2150 N   0  0  0  0  0  0  0  0  0  0  0  0
    7.8510   46.2170   52.4740 C   0  0  0  0  0  0  0  0  0  0  0  0
    7.1620   45.4730   51.3530 C   0  0  0  0  0  0  0  0  0  0  0  0
   11.0159   45.7178   51.5104 H   0  0  0  0  0  0  0  0  0  0  0  0
    9.5103   45.4106   50.5800 H   0  0  0  0  0  0  0  0  0  0  0  0
   10.2477   47.0486   50.5800 H   0  0  0  0  0  0  0  0  0  0  0  0
   10.9516   47.3588   53.4222 H   0  0  0  0  0  0  0  0  0  0  0  0
    9.6668   47.9904   55.4553 H   0  0  0  0  0  0  0  0  0  0  0  0
    7.2206   47.5634   55.5721 H   0  0  0  0  0  0  0  0  0  0  0  0
    4.4101   48.0974   54.1158 H   0  0  0  0  0  0  0  0  0  0  0  0
    5.4132   48.2763   52.6365 H   0  0  0  0  0  0  0  0  0  0  0  0
    4.0034   47.1632   52.6365 H   0  0  0  0  0  0  0  0  0  0  0  0
    2.7065   45.8181   56.0900 H   0  0  0  0  0  0  0  0  0  0  0  0
    0.2569   44.7661   56.2512 H   0  0  0  0  0  0  0  0  0  0  0  0
   -0.3526   45.6839   54.8324 H   0  0  0  0  0  0  0  0  0  0  0  0
   -0.4090   43.8885   54.8324 H   0  0  0  0  0  0  0  0  0  0  0  0
    0.2568   42.4497   54.1177 H   0  0  0  0  0  0  0  0  0  0  0  0
   -0.8645   42.4890   52.7149 H   0  0  0  0  0  0  0  0  0  0  0  0
    0.5347   41.3626   52.7149 H   0  0  0  0  0  0  0  0  0  0  0  0
   -0.4385   45.0202   52.4273 H   0  0  0  0  0  0  0  0  0  0  0  0
    0.6921   45.1341   51.0362 H   0  0  0  0  0  0  0  0  0  0  0  0
   -0.6101   43.8969   51.0362 H   0  0  0  0  0  0  0  0  0  0  0  0
    2.7373   42.1763   51.8296 H   0  0  0  0  0  0  0  0  0  0  0  0
    1.3561   42.0941   50.6841 H   0  0  0  0  0  0  0  0  0  0  0  0
    2.4389   43.5273   50.6841 H   0  0  0  0  0  0  0  0  0  0  0  0
    6.4723   44.7282   51.7768 H   0  0  0  0  0  0  0  0  0  0  0  0
    6.5972   46.1849   50.7332 H   0  0  0  0  0  0  0  0  0  0  0  0
    7.9151   44.9644   50.7332 H   0  0  0  0  0  0  0  0  0  0  0  0
  1  2  1  0
  2  3  2  0
  3  4  1  0
  4  5  2  0
  5  6  1  0
  6  7  1  0
  7  8  1  0
  7  9  1  0
  9 10  2  0
  9 11  1  0
 11 12  1  0
 12 13  2  0
 13 14  1  0
 13 15  1  0
 15 16  1  0
 16 17  1  0
 16 18  1  0
 16 19  1  0
 15 20  1  0
  6 21  2  0
 21 22  1  0
 21  2  1  0
 20 11  2  0
  1 23  1  0
  1 24  1  0
  1 25  1  0
  3 26  1  0
  4 27  1  0
  5 28  1  0
  8 29  1  0
  8 30  1  0
  8 31  1  0
 12 32  1  0
 14 33  1  0
 14 34  1  0
 14 35  1  0
 17 36  1  0
 17 37  1  0
 17 38  1  0
 18 39  1  0
 18 40  1  0
 18 41  1  0
 19 42  1  0
 19 43  1  0
 19 44  1  0
 22 45  1  0
 22 46  1  0
 22 47  1  0
M  END
>  <meeko>  (2) 
{"is_sidechain": [false], "free_energy": -7.987, "intermolecular_energy": -10.04, "internal_energy": -0.357}

$$$$
ligand_99_conformer_1_docked
     RDKit          3D

 47 48  0  0  0  0  0  0  0  0999 V2000
   -0.1180   42.0970   52.9480 C   0  0  0  0  0  0  0  0  0  0  0  0
    0.4010   43.2880   53.7120 C   0  0  0  0  0  0  0  0  0  0  0  0
   -0.4550   43.9290   54.6230 C   0  0  0  0  0  0  0  0  0  0  0  0
   -0.0170   45.0320   55.3520 C   0  0  0  0  0  0  0  0  0  0  0  0
    1.2850   45.5000   55.1980 C   0  0  0  0  0  0  0  0  0  0  0  0
    2.1660   44.8770   54.3020 C   0  0  0  0  0  0  0  0  0  0  0  0
    3.5240   45.3550   54.2280 N   0  0  0  0  0  0  0  0  0  0  0  0
    4.4440   45.0230   55.3190 C   0  0  0  0  0  0  0  0  0  0  0  0
    3.9310   46.3160   53.2290 C   0  0  0  0  0  0  0  0  0  0  0  0
    3.1530   47.2590   52.9210 O   0  0  0  0  0  0  0  0  0  0  0  0
    5.2280   46.2240   52.5290 C   0  0  0  0  0  0  0  0  0  0  0  0
    5.5340   45.4430   51.4340 C   0  0  0  0  0  0  0  0  0  0  0  0
    6.8580   45.7220   51.1690 C   0  0  0  0  0  0  0  0  0  0  0  0
    7.6320   45.0740   50.0590 C   0  0  0  0  0  0  0  0  0  0  0  0
    7.3230   46.6050   52.0960 N   0  0  0  0  0  0  0  0  0  0  0  0
    8.6520   47.2610   52.1950 C   0  0  0  0  0  0  0  0  0  0  0  0
    8.8440   47.8450   53.6150 C   0  0  0  0  0  0  0  0  0  0  0  0
    9.7990   46.2550   51.9480 C   0  0  0  0  0  0  0  0  0  0  0  0
    8.7300   48.4180   51.1830 C   0  0  0  0  0  0  0  0  0  0  0  0
    6.3190   46.9110   52.9090 N   0  0  0  0  0  0  0  0  0  0  0  0
    1.7120   43.7930   53.5080 C   0  0  0  0  0  0  0  0  0  0  0  0
    2.6230   43.1630   52.4790 C   0  0  0  0  0  0  0  0  0  0  0  0
   -0.4543   41.3253   53.6561 H   0  0  0  0  0  0  0  0  0  0  0  0
   -0.9626   42.4070   52.3151 H   0  0  0  0  0  0  0  0  0  0  0  0
    0.6841   41.6894   52.3151 H   0  0  0  0  0  0  0  0  0  0  0  0
   -1.4806   43.5564   54.7619 H   0  0  0  0  0  0  0  0  0  0  0  0
   -0.7016   45.5346   56.0511 H   0  0  0  0  0  0  0  0  0  0  0  0
    1.6259   46.3661   55.7842 H   0  0  0  0  0  0  0  0  0  0  0  0
    3.9479   45.2020   56.2843 H   0  0  0  0  0  0  0  0  0  0  0  0
    4.7325   43.9640   55.2459 H   0  0  0  0  0  0  0  0  0  0  0  0
    5.3423   45.6537   55.2459 H   0  0  0  0  0  0  0  0  0  0  0  0
    4.8703   44.7522   50.8933 H   0  0  0  0  0  0  0  0  0  0  0  0
    8.4095   44.4231   50.4855 H   0  0  0  0  0  0  0  0  0  0  0  0
    6.9505   44.4732   49.4388 H   0  0  0  0  0  0  0  0  0  0  0  0
    8.1036   45.8506   49.4388 H   0  0  0  0  0  0  0  0  0  0  0  0
    8.5923   47.0793   54.3635 H   0  0  0  0  0  0  0  0  0  0  0  0
    9.8913   48.1549   53.7455 H   0  0  0  0  0  0  0  0  0  0  0  0
    8.1849   48.7160   53.7455 H   0  0  0  0  0  0  0  0  0  0  0  0
   10.1957   45.9070   52.9132 H   0  0  0  0  0  0  0  0  0  0  0  0
    9.4166   45.3957   51.3775 H   0  0  0  0  0  0  0  0  0  0  0  0
   10.6010   46.7462   51.3775 H   0  0  0  0  0  0  0  0  0  0  0  0
    8.7944   49.3740   51.7233 H   0  0  0  0  0  0  0  0  0  0  0  0
    9.6218   48.2930   50.5512 H   0  0  0  0  0  0  0  0  0  0  0  0
    7.8295   48.4139   50.5512 H   0  0  0  0  0  0  0  0  0  0  0  0
    3.4245   42.6087   52.9892 H   0  0  0  0  0  0  0  0  0  0  0  0
    2.0428   42.4722   51.8495 H   0  0  0  0  0  0  0  0  0  0  0  0
    3.0645   43.9497   51.8495 H   0  0  0  0  0  0  0  0  0  0  0  0
  1  2  1  0
  2  3  2  0
  3  4  1  0
  4  5  2  0
  5  6  1  0
  6  7  1  0
  7  8  1  0
  7  9  1  0
  9 10  2  0
  9 11  1  0
 11 12  1  0
 12 13  2  0
 13 14  1  0
 13 15  1  0
 15 16  1  0
 16 17  1  0
 16 18  1  0
 16 19  1  0
 15 20  1  0
  6 21  2  0
 21 22  1  0
 21  2  1  0
 20 11  2  0
  1 23  1  0
  1 24  1  0
  1 25  1  0
  3 26  1  0
  4 27  1  0
  5 28  1  0
  8 29  1  0
  8 30  1  0
  8 31  1  0
 12 32  1  0
 14 33  1  0
 14 34  1  0
 14 35  1  0
 17 36  1  0
 17 37  1  0
 17 38  1  0
 18 39  1  0
 18 40  1  0
 18 41  1  0
 19 42  1  0
 19 43  1  0
 19 44  1  0
 22 45  1  0
 22 46  1  0
 22 47  1  0
M  END
>  <meeko>  (3) 
{"is_sidechain": [false], "free_energy": -7.916, "intermolecular_energy": -9.898, "internal_energy": -0.41}

$$$$
ligand_99_conformer_1_docked
     RDKit          3D

 47 48  0  0  0  0  0  0  0  0999 V2000
    9.7410   46.9100   51.8570 C   0  0  0  0  0  0  0  0  0  0  0  0
    8.3620   46.3030   51.8830 C   0  0  0  0  0  0  0  0  0  0  0  0
    7.8650   45.7100   50.7110 C   0  0  0  0  0  0  0  0  0  0  0  0
    6.5970   45.1350   50.6890 C   0  0  0  0  0  0  0  0  0  0  0  0
    5.8140   45.1240   51.8410 C   0  0  0  0  0  0  0  0  0  0  0  0
    6.2860   45.7000   53.0300 C   0  0  0  0  0  0  0  0  0  0  0  0
    5.4680   45.6030   54.2120 N   0  0  0  0  0  0  0  0  0  0  0  0
    5.7600   44.5440   55.1810 C   0  0  0  0  0  0  0  0  0  0  0  0
    4.2560   46.3770   54.3560 C   0  0  0  0  0  0  0  0  0  0  0  0
    4.3320   47.6170   54.5660 O   0  0  0  0  0  0  0  0  0  0  0  0
    2.9160   45.7620   54.2890 C   0  0  0  0  0  0  0  0  0  0  0  0
    1.9920   45.6550   55.3080 C   0  0  0  0  0  0  0  0  0  0  0  0
    0.9160   45.0110   54.7340 C   0  0  0  0  0  0  0  0  0  0  0  0
   -0.3320   44.6570   55.4870 C   0  0  0  0  0  0  0  0  0  0  0  0
    1.2110   44.7170   53.4370 N   0  0  0  0  0  0  0  0  0  0  0  0
    0.3590   44.0970   52.3900 C   0  0  0  0  0  0  0  0  0  0  0  0
    1.1750   43.9210   51.0870 C   0  0  0  0  0  0  0  0  0  0  0  0
   -0.1390   42.7000   52.8190 C   0  0  0  0  0  0  0  0  0  0  0  0
   -0.8360   45.0200   52.0890 C   0  0  0  0  0  0  0  0  0  0  0  0
    2.4240   45.1900   53.1750 N   0  0  0  0  0  0  0  0  0  0  0  0
    7.5490   46.3450   53.0460 C   0  0  0  0  0  0  0  0  0  0  0  0
    8.0360   47.0430   54.2950 C   0  0  0  0  0  0  0  0  0  0  0  0
   10.0929   47.0649   52.8876 H   0  0  0  0  0  0  0  0  0  0  0  0
   10.4302   46.2321   51.3322 H   0  0  0  0  0  0  0  0  0  0  0  0
    9.7065   47.8761   51.3322 H   0  0  0  0  0  0  0  0  0  0  0  0
    8.4835   45.6996   49.8014 H   0  0  0  0  0  0  0  0  0  0  0  0
    6.2128   44.6885   49.7600 H   0  0  0  0  0  0  0  0  0  0  0  0
    4.8170   44.6597   51.8183 H   0  0  0  0  0  0  0  0  0  0  0  0
    5.6507   44.9403   56.2013 H   0  0  0  0  0  0  0  0  0  0  0  0
    5.0584   43.7095   55.0347 H   0  0  0  0  0  0  0  0  0  0  0  0
    6.7901   44.1870   55.0347 H   0  0  0  0  0  0  0  0  0  0  0  0
    2.0913   46.0051   56.3461 H   0  0  0  0  0  0  0  0  0  0  0  0
   -0.1362   44.7125   56.5680 H   0  0  0  0  0  0  0  0  0  0  0  0
   -1.1326   45.3635   55.2226 H   0  0  0  0  0  0  0  0  0  0  0  0
   -0.6424   43.6354   55.2226 H   0  0  0  0  0  0  0  0  0  0  0  0
    2.2220   43.6952   51.3377 H   0  0  0  0  0  0  0  0  0  0  0  0
    0.7522   43.0934   50.4985 H   0  0  0  0  0  0  0  0  0  0  0  0
    1.1309   44.8493   50.4985 H   0  0  0  0  0  0  0  0  0  0  0  0
   -0.1605   42.6397   53.9171 H   0  0  0  0  0  0  0  0  0  0  0  0
   -1.1517   42.5341   52.4228 H   0  0  0  0  0  0  0  0  0  0  0  0
    0.5403   41.9309   52.4228 H   0  0  0  0  0  0  0  0  0  0  0  0
   -1.2810   45.3637   53.0344 H   0  0  0  0  0  0  0  0  0  0  0  0
   -0.4913   45.8887   51.5088 H   0  0  0  0  0  0  0  0  0  0  0  0
   -1.5894   44.4670   51.5088 H   0  0  0  0  0  0  0  0  0  0  0  0
    7.6638   46.5095   55.1820 H   0  0  0  0  0  0  0  0  0  0  0  0
    9.1359   47.0498   54.3060 H   0  0  0  0  0  0  0  0  0  0  0  0
    7.6628   48.0777   54.3060 H   0  0  0  0  0  0  0  0  0  0  0  0
  1  2  1  0
  2  3  2  0
  3  4  1  0
  4  5  2  0
  5  6  1  0
  6  7  1  0
  7  8  1  0
  7  9  1  0
  9 10  2  0
  9 11  1  0
 11 12  1  0
 12 13  2  0
 13 14  1  0
 13 15  1  0
 15 16  1  0
 16 17  1  0
 16 18  1  0
 16 19  1  0
 15 20  1  0
  6 21  2  0
 21 22  1  0
 21  2  1  0
 20 11  2  0
  1 23  1  0
  1 24  1  0
  1 25  1  0
  3 26  1  0
  4 27  1  0
  5 28  1  0
  8 29  1  0
  8 30  1  0
  8 31  1  0
 12 32  1  0
 14 33  1  0
 14 34  1  0
 14 35  1  0
 17 36  1  0
 17 37  1  0
 17 38  1  0
 18 39  1  0
 18 40  1  0
 18 41  1  0
 19 42  1  0
 19 43  1  0
 19 44  1  0
 22 45  1  0
 22 46  1  0
 22 47  1  0
M  END
>  <meeko>  (4) 
{"is_sidechain": [false], "free_energy": -7.865, "intermolecular_energy": -9.653, "internal_energy": -0.593}

$$$$
ligand_99_conformer_1_docked
     RDKit          3D

 47 48  0  0  0  0  0  0  0  0999 V2000
    0.5790   45.3010   57.1980 C   0  0  0  0  0  0  0  0  0  0  0  0
    0.6610   45.0930   55.7070 C   0  0  0  0  0  0  0  0  0  0  0  0
   -0.4700   44.6070   55.0310 C   0  0  0  0  0  0  0  0  0  0  0  0
   -0.4400   44.4020   53.6540 C   0  0  0  0  0  0  0  0  0  0  0  0
    0.7110   44.6970   52.9280 C   0  0  0  0  0  0  0  0  0  0  0  0
    1.8540   45.1920   53.5720 C   0  0  0  0  0  0  0  0  0  0  0  0
    2.9970   45.5470   52.7690 N   0  0  0  0  0  0  0  0  0  0  0  0
    2.9590   46.8010   52.0120 C   0  0  0  0  0  0  0  0  0  0  0  0
    4.0700   44.6100   52.5290 C   0  0  0  0  0  0  0  0  0  0  0  0
    3.8730   43.3790   52.7180 O   0  0  0  0  0  0  0  0  0  0  0  0
    5.4110   45.0430   52.0880 C   0  0  0  0  0  0  0  0  0  0  0  0
    6.0420   44.7300   50.9020 C   0  0  0  0  0  0  0  0  0  0  0  0
    7.2580   45.3780   50.9760 C   0  0  0  0  0  0  0  0  0  0  0  0
    8.3000   45.3010   49.9010 C   0  0  0  0  0  0  0  0  0  0  0  0
    7.3520   46.0160   52.1760 N   0  0  0  0  0  0  0  0  0  0  0  0
    8.4260   46.9000   52.6960 C   0  0  0  0  0  0  0  0  0  0  0  0
    8.1960   47.1760   54.2010 C   0  0  0  0  0  0  0  0  0  0  0  0
    9.8170   46.2450   52.5510 C   0  0  0  0  0  0  0  0  0  0  0  0
    8.3890   48.2460   51.9480 C   0  0  0  0  0  0  0  0  0  0  0  0
    6.2180   45.8140   52.8370 N   0  0  0  0  0  0  0  0  0  0  0  0
    1.8560   45.3440   54.9830 C   0  0  0  0  0  0  0  0  0  0  0  0
    3.1060   45.7970   55.7020 C   0  0  0  0  0  0  0  0  0  0  0  0
    0.9352   44.3974   57.7144 H   0  0  0  0  0  0  0  0  0  0  0  0
    1.2065   46.1581   57.4837 H   0  0  0  0  0  0  0  0  0  0  0  0
   -0.4646   45.4993   57.4837 H   0  0  0  0  0  0  0  0  0  0  0  0
   -1.3884   44.3861   55.5947 H   0  0  0  0  0  0  0  0  0  0  0  0
   -1.3275   44.0061   53.1386 H   0  0  0  0  0  0  0  0  0  0  0  0
    0.7237   44.5403   51.8393 H   0  0  0  0  0  0  0  0  0  0  0  0
    2.9333   47.6503   52.7105 H   0  0  0  0  0  0  0  0  0  0  0  0
    3.8553   46.8742   51.3786 H   0  0  0  0  0  0  0  0  0  0  0  0
    2.0599   46.8198   51.3786 H   0  0  0  0  0  0  0  0  0  0  0  0
    5.6613   44.1042   50.0814 H   0  0  0  0  0  0  0  0  0  0  0  0
    9.2965   45.2274   50.3609 H   0  0  0  0  0  0  0  0  0  0  0  0
    8.1178   44.4139   49.2767 H   0  0  0  0  0  0  0  0  0  0  0  0
    8.2502   46.2053   49.2767 H   0  0  0  0  0  0  0  0  0  0  0  0
    8.7873   46.4665   54.7984 H   0  0  0  0  0  0  0  0  0  0  0  0
    8.5086   48.2039   54.4372 H   0  0  0  0  0  0  0  0  0  0  0  0
    7.1286   47.0539   54.4372 H   0  0  0  0  0  0  0  0  0  0  0  0
   10.2354   46.0480   53.5491 H   0  0  0  0  0  0  0  0  0  0  0  0
    9.7206   45.2977   52.0003 H   0  0  0  0  0  0  0  0  0  0  0  0
   10.4858   46.9228   52.0003 H   0  0  0  0  0  0  0  0  0  0  0  0
    8.3664   49.0698   52.6765 H   0  0  0  0  0  0  0  0  0  0  0  0
    9.2849   48.3394   51.3166 H   0  0  0  0  0  0  0  0  0  0  0  0
    7.4893   48.2900   51.3166 H   0  0  0  0  0  0  0  0  0  0  0  0
    2.9454   45.7388   56.7887 H   0  0  0  0  0  0  0  0  0  0  0  0
    3.9471   45.1465   55.4203 H   0  0  0  0  0  0  0  0  0  0  0  0
    3.3351   46.8353   55.4203 H   0  0  0  0  0  0  0  0  0  0  0  0
  1  2  1  0
  2  3  2  0
  3  4  1  0
  4  5  2  0
  5  6  1  0
  6  7  1  0
  7  8  1  0
  7  9  1  0
  9 10  2  0
  9 11  1  0
 11 12  1  0
 12 13  2  0
 13 14  1  0
 13 15  1  0
 15 16  1  0
 16 17  1  0
 16 18  1  0
 16 19  1  0
 15 20  1  0
  6 21  2  0
 21 22  1  0
 21  2  1  0
 20 11  2  0
  1 23  1  0
  1 24  1  0
  1 25  1  0
  3 26  1  0
  4 27  1  0
  5 28  1  0
  8 29  1  0
  8 30  1  0
  8 31  1  0
 12 32  1  0
 14 33  1  0
 14 34  1  0
 14 35  1  0
 17 36  1  0
 17 37  1  0
 17 38  1  0
 18 39  1  0
 18 40  1  0
 18 41  1  0
 19 42  1  0
 19 43  1  0
 19 44  1  0
 22 45  1  0
 22 46  1  0
 22 47  1  0
M  END
>  <meeko>  (5) 
{"is_sidechain": [false], "free_energy": -7.636, "intermolecular_energy": -9.561, "internal_energy": -0.403}

$$$$
