MODEL 1
REMARK VINA RESULT:    -9.347      0.000      0.000
REMARK INTER + INTRA:         -12.584
REMARK INTER:                 -11.807
REMARK INTRA:                  -0.777
REMARK UNBOUND:                -0.777
REMARK SMILES Cc1c[nH]c2ncc(C(=O)N[C@H]3[C@@H]4CN(C(=O)c5ccc6nc(N)n(C)c6c5)C[C@@H]43)cc12
REMARK SMILES IDX 12 1 13 2 14 3 15 4 29 5 30 6 11 7 9 8 10 9 8 11 2 12 3 13
REMARK SMILES IDX 32 14 4 15 31 16 5 17 6 18 7 19 1 20 16 22 17 23 18 24 19 25
REMARK SMILES IDX 28 26 20 27 27 28 21 29 25 30 22 31 23 32 26 33 24 34
REMARK H PARENT 11 10 4 21 24 35 24 36
ROOT
ATOM      1  C   UNL     1       2.657  44.516  53.193  1.00  0.00     0.093 C 
ATOM      2  C   UNL     1       1.575  44.502  52.122  1.00  0.00     0.038 C 
ATOM      3  C   UNL     1       0.207  45.014  52.549  1.00  0.00     0.126 C 
ATOM      4  N   UNL     1      -0.251  44.120  53.599  1.00  0.00    -0.338 N 
ATOM      5  C   UNL     1       0.666  43.018  53.852  1.00  0.00     0.126 C 
ATOM      6  C   UNL     1       1.860  43.243  52.935  1.00  0.00     0.038 C 
ENDROOT
BRANCH   1   7
ATOM      7  N   UNL     1       4.009  44.492  52.638  1.00  0.00    -0.349 N 
ATOM      8  C   UNL     1       4.757  45.707  52.482  1.00  0.00     0.253 C 
ATOM      9  O   UNL     1       4.195  46.813  52.719  1.00  0.00    -0.269 OA
ATOM     10  H   UNL     1       4.401  43.589  52.292  1.00  0.00     0.164 HD
BRANCH   8  11
ATOM     11  C   UNL     1       6.171  45.697  52.034  1.00  0.00     0.058 A 
ATOM     12  C   UNL     1       9.725  46.514  52.901  1.00  0.00    -0.024 A 
ATOM     13  C   UNL     1      10.670  46.278  51.905  1.00  0.00     0.088 A 
ATOM     14  C   UNL     1       8.513  46.128  52.366  1.00  0.00     0.022 A 
ATOM     15  N   UNL     1      10.078  45.751  50.807  1.00  0.00    -0.346 N 
ATOM     16  C   UNL     1       7.215  46.171  52.867  1.00  0.00     0.027 A 
ATOM     17  C   UNL     1       8.771  45.668  51.109  1.00  0.00     0.137 A 
ATOM     18  N   UNL     1       7.790  45.226  50.287  1.00  0.00    -0.238 NA
ATOM     19  C   UNL     1       6.498  45.231  50.729  1.00  0.00     0.127 A 
ATOM     20  C   UNL     1       9.968  47.142  54.235  1.00  0.00     0.047 C 
ATOM     21  H   UNL     1      10.540  45.480  49.910  1.00  0.00     0.167 HD
ENDBRANCH   8  11
ENDBRANCH   1   7
BRANCH   4  22
ATOM     22  C   UNL     1      -1.572  44.195  54.156  1.00  0.00     0.253 C 
ATOM     23  O   UNL     1      -2.474  43.433  53.713  1.00  0.00    -0.269 OA
BRANCH  22  24
ATOM     24  C   UNL     1      -1.894  45.145  55.241  1.00  0.00     0.042 A 
ATOM     25  C   UNL     1      -3.202  45.685  55.348  1.00  0.00     0.016 A 
ATOM     26  C   UNL     1      -0.891  45.560  56.146  1.00  0.00     0.042 A 
ATOM     27  C   UNL     1      -3.518  46.610  56.359  1.00  0.00     0.031 A 
ATOM     28  C   UNL     1      -1.243  46.472  57.143  1.00  0.00     0.070 A 
ATOM     29  C   UNL     1      -2.508  46.979  57.242  1.00  0.00     0.091 A 
ATOM     30  N   UNL     1      -0.479  47.020  58.105  1.00  0.00    -0.314 N 
ATOM     31  N   UNL     1      -2.587  47.871  58.246  1.00  0.00    -0.213 NA
ATOM     32  C   UNL     1      -1.322  47.872  58.744  1.00  0.00     0.200 A 
ATOM     33  C   UNL     1       0.952  46.834  58.338  1.00  0.00     0.153 C 
BRANCH  32  34
ATOM     34  N   UNL     1      -0.925  48.729  59.817  1.00  0.00    -0.369 N 
ATOM     35  H   UNL     1       0.062  49.050  59.922  1.00  0.00     0.159 HD
ATOM     36  H   UNL     1      -1.640  49.085  60.487  1.00  0.00     0.159 HD
ENDBRANCH  32  34
ENDBRANCH  22  24
ENDBRANCH   4  22
TORSDOF 5
ENDMDL
MODEL 2
REMARK VINA RESULT:    -8.565      3.875      6.297
REMARK INTER + INTRA:         -11.595
REMARK INTER:                 -10.912
REMARK INTRA:                  -0.683
REMARK UNBOUND:                -0.777
REMARK SMILES Cc1c[nH]c2ncc(C(=O)N[C@H]3[C@@H]4CN(C(=O)c5ccc6nc(N)n(C)c6c5)C[C@@H]43)cc12
REMARK SMILES IDX 12 1 13 2 14 3 15 4 29 5 30 6 11 7 9 8 10 9 8 11 2 12 3 13
REMARK SMILES IDX 32 14 4 15 31 16 5 17 6 18 7 19 1 20 16 22 17 23 18 24 19 25
REMARK SMILES IDX 28 26 20 27 27 28 21 29 25 30 22 31 23 32 26 33 24 34
REMARK H PARENT 11 10 4 21 24 35 24 36
ROOT
ATOM      1  C   UNL     1       2.289  44.674  52.967  1.00  0.00     0.093 C 
ATOM      2  C   UNL     1       2.154  43.183  52.693  1.00  0.00     0.038 C 
ATOM      3  C   UNL     1       1.048  42.779  51.729  1.00  0.00     0.126 C 
ATOM      4  N   UNL     1      -0.200  43.191  52.349  1.00  0.00    -0.338 N 
ATOM      5  C   UNL     1      -0.018  43.767  53.673  1.00  0.00     0.126 C 
ATOM      6  C   UNL     1       1.484  43.796  53.918  1.00  0.00     0.038 C 
ENDROOT
BRANCH   1   7
ATOM      7  N   UNL     1       3.608  45.044  53.475  1.00  0.00    -0.349 N 
ATOM      8  C   UNL     1       4.534  45.767  52.648  1.00  0.00     0.253 C 
ATOM      9  O   UNL     1       4.244  45.980  51.438  1.00  0.00    -0.269 OA
ATOM     10  H   UNL     1       3.899  44.718  54.423  1.00  0.00     0.164 HD
BRANCH   8  11
ATOM     11  C   UNL     1       5.830  46.257  53.178  1.00  0.00     0.058 A 
ATOM     12  C   UNL     1       9.530  46.500  52.635  1.00  0.00    -0.024 A 
ATOM     13  C   UNL     1      10.261  47.110  53.653  1.00  0.00     0.088 A 
ATOM     14  C   UNL     1       8.214  46.541  53.045  1.00  0.00     0.022 A 
ATOM     15  N   UNL     1       9.436  47.530  54.640  1.00  0.00    -0.346 N 
ATOM     16  C   UNL     1       7.042  46.052  52.474  1.00  0.00     0.027 A 
ATOM     17  C   UNL     1       8.200  47.176  54.251  1.00  0.00     0.137 A 
ATOM     18  N   UNL     1       7.058  47.369  54.953  1.00  0.00    -0.238 NA
ATOM     19  C   UNL     1       5.875  46.923  54.436  1.00  0.00     0.127 A 
ATOM     20  C   UNL     1      10.077  45.855  51.403  1.00  0.00     0.047 C 
ATOM     21  H   UNL     1       9.708  48.014  55.526  1.00  0.00     0.167 HD
ENDBRANCH   8  11
ENDBRANCH   1   7
BRANCH   4  22
ATOM     22  C   UNL     1      -1.484  42.849  51.804  1.00  0.00     0.253 C 
ATOM     23  O   UNL     1      -2.125  41.880  52.294  1.00  0.00    -0.269 OA
BRANCH  22  24
ATOM     24  C   UNL     1      -2.068  43.612  50.682  1.00  0.00     0.042 A 
ATOM     25  C   UNL     1      -2.632  44.894  50.912  1.00  0.00     0.016 A 
ATOM     26  C   UNL     1      -2.115  43.051  49.386  1.00  0.00     0.042 A 
ATOM     27  C   UNL     1      -3.215  45.623  49.860  1.00  0.00     0.031 A 
ATOM     28  C   UNL     1      -2.693  43.807  48.364  1.00  0.00     0.070 A 
ATOM     29  C   UNL     1      -3.225  45.044  48.595  1.00  0.00     0.091 A 
ATOM     30  N   UNL     1      -2.863  43.496  47.066  1.00  0.00    -0.314 N 
ATOM     31  N   UNL     1      -3.764  45.549  47.470  1.00  0.00    -0.213 NA
ATOM     32  C   UNL     1      -3.527  44.567  46.560  1.00  0.00     0.200 A 
ATOM     33  C   UNL     1      -2.521  42.250  46.382  1.00  0.00     0.153 C 
BRANCH  32  34
ATOM     34  N   UNL     1      -3.980  44.656  45.207  1.00  0.00    -0.369 N 
ATOM     35  H   UNL     1      -3.314  44.616  44.405  1.00  0.00     0.159 HD
ATOM     36  H   UNL     1      -5.001  44.716  45.005  1.00  0.00     0.159 HD
ENDBRANCH  32  34
ENDBRANCH  22  24
ENDBRANCH   4  22
TORSDOF 5
ENDMDL
MODEL 3
REMARK VINA RESULT:    -8.549      2.143      3.184
REMARK INTER + INTRA:         -11.575
REMARK INTER:                 -11.081
REMARK INTRA:                  -0.494
REMARK UNBOUND:                -0.777
REMARK SMILES Cc1c[nH]c2ncc(C(=O)N[C@H]3[C@@H]4CN(C(=O)c5ccc6nc(N)n(C)c6c5)C[C@@H]43)cc12
REMARK SMILES IDX 12 1 13 2 14 3 15 4 29 5 30 6 11 7 9 8 10 9 8 11 2 12 3 13
REMARK SMILES IDX 32 14 4 15 31 16 5 17 6 18 7 19 1 20 16 22 17 23 18 24 19 25
REMARK SMILES IDX 28 26 20 27 27 28 21 29 25 30 22 31 23 32 26 33 24 34
REMARK H PARENT 11 10 4 21 24 35 24 36
ROOT
ATOM      1  C   UNL     1       1.863  45.511  54.356  1.00  0.00     0.093 C 
ATOM      2  C   UNL     1       0.943  44.305  54.482  1.00  0.00     0.038 C 
ATOM      3  C   UNL     1      -0.532  44.609  54.696  1.00  0.00     0.126 C 
ATOM      4  N   UNL     1      -0.620  45.318  55.962  1.00  0.00    -0.338 N 
ATOM      5  C   UNL     1       0.664  45.444  56.637  1.00  0.00     0.126 C 
ATOM      6  C   UNL     1       1.694  44.821  55.704  1.00  0.00     0.038 C 
ENDROOT
BRANCH   1   7
ATOM      7  N   UNL     1       3.124  45.201  53.685  1.00  0.00    -0.349 N 
ATOM      8  C   UNL     1       3.373  45.663  52.348  1.00  0.00     0.253 C 
ATOM      9  O   UNL     1       2.448  46.241  51.712  1.00  0.00    -0.269 OA
ATOM     10  H   UNL     1       3.815  44.581  54.161  1.00  0.00     0.164 HD
BRANCH   8  11
ATOM     11  C   UNL     1       4.688  45.463  51.691  1.00  0.00     0.058 A 
ATOM     12  C   UNL     1       6.780  43.248  49.509  1.00  0.00    -0.024 A 
ATOM     13  C   UNL     1       8.093  43.662  49.293  1.00  0.00     0.088 A 
ATOM     14  C   UNL     1       6.211  44.214  50.312  1.00  0.00     0.022 A 
ATOM     15  N   UNL     1       8.325  44.840  49.917  1.00  0.00    -0.346 N 
ATOM     16  C   UNL     1       4.949  44.324  50.890  1.00  0.00     0.027 A 
ATOM     17  C   UNL     1       7.171  45.157  50.528  1.00  0.00     0.137 A 
ATOM     18  N   UNL     1       6.953  46.246  51.302  1.00  0.00    -0.238 NA
ATOM     19  C   UNL     1       5.729  46.415  51.884  1.00  0.00     0.127 A 
ATOM     20  C   UNL     1       6.155  41.975  49.040  1.00  0.00     0.047 C 
ATOM     21  H   UNL     1       9.220  45.381  49.931  1.00  0.00     0.167 HD
ENDBRANCH   8  11
ENDBRANCH   1   7
BRANCH   4  22
ATOM     22  C   UNL     1      -1.874  45.648  56.577  1.00  0.00     0.253 C 
ATOM     23  O   UNL     1      -2.794  44.786  56.607  1.00  0.00    -0.269 OA
BRANCH  22  24
ATOM     24  C   UNL     1      -2.107  46.977  57.179  1.00  0.00     0.042 A 
ATOM     25  C   UNL     1      -2.946  47.916  56.526  1.00  0.00     0.016 A 
ATOM     26  C   UNL     1      -1.455  47.339  58.381  1.00  0.00     0.042 A 
ATOM     27  C   UNL     1      -3.157  49.195  57.073  1.00  0.00     0.031 A 
ATOM     28  C   UNL     1      -1.696  48.613  58.899  1.00  0.00     0.070 A 
ATOM     29  C   UNL     1      -2.513  49.507  58.266  1.00  0.00     0.091 A 
ATOM     30  N   UNL     1      -1.197  49.190  60.007  1.00  0.00    -0.314 N 
ATOM     31  N   UNL     1      -2.547  50.676  58.931  1.00  0.00    -0.213 NA
ATOM     32  C   UNL     1      -1.723  50.443  59.986  1.00  0.00     0.200 A 
ATOM     33  C   UNL     1      -0.225  48.644  60.952  1.00  0.00     0.153 C 
BRANCH  32  34
ATOM     34  N   UNL     1      -1.418  51.450  60.953  1.00  0.00    -0.369 N 
ATOM     35  H   UNL     1      -2.050  52.265  61.109  1.00  0.00     0.159 HD
ATOM     36  H   UNL     1      -0.572  51.352  61.554  1.00  0.00     0.159 HD
ENDBRANCH  32  34
ENDBRANCH  22  24
ENDBRANCH   4  22
TORSDOF 5
ENDMDL
MODEL 4
REMARK VINA RESULT:    -8.240      6.516      9.559
REMARK INTER + INTRA:         -11.186
REMARK INTER:                 -11.384
REMARK INTRA:                   0.199
REMARK UNBOUND:                -0.777
REMARK SMILES Cc1c[nH]c2ncc(C(=O)N[C@H]3[C@@H]4CN(C(=O)c5ccc6nc(N)n(C)c6c5)C[C@@H]43)cc12
REMARK SMILES IDX 12 1 13 2 14 3 15 4 29 5 30 6 11 7 9 8 10 9 8 11 2 12 3 13
REMARK SMILES IDX 32 14 4 15 31 16 5 17 6 18 7 19 1 20 16 22 17 23 18 24 19 25
REMARK SMILES IDX 28 26 20 27 27 28 21 29 25 30 22 31 23 32 26 33 24 34
REMARK H PARENT 11 10 4 21 24 35 24 36
ROOT
ATOM      1  C   UNL     1       4.622  41.268  48.562  1.00  0.00     0.093 C 
ATOM      2  C   UNL     1       4.790  41.193  50.073  1.00  0.00     0.038 C 
ATOM      3  C   UNL     1       4.688  42.514  50.822  1.00  0.00     0.126 C 
ATOM      4  N   UNL     1       5.778  43.342  50.335  1.00  0.00    -0.338 N 
ATOM      5  C   UNL     1       6.635  42.655  49.380  1.00  0.00     0.126 C 
ATOM      6  C   UNL     1       6.018  41.278  49.173  1.00  0.00     0.038 C 
ENDROOT
BRANCH   1   7
ATOM      7  N   UNL     1       4.245  39.989  47.965  1.00  0.00    -0.349 N 
ATOM      8  C   UNL     1       3.188  39.917  46.996  1.00  0.00     0.253 C 
ATOM      9  O   UNL     1       2.506  40.951  46.749  1.00  0.00    -0.269 OA
ATOM     10  H   UNL     1       4.706  39.115  48.301  1.00  0.00     0.164 HD
BRANCH   8  11
ATOM     11  C   UNL     1       2.866  38.653  46.290  1.00  0.00     0.058 A 
ATOM     12  C   UNL     1       1.001  35.404  46.401  1.00  0.00    -0.024 A 
ATOM     13  C   UNL     1       1.188  34.551  45.316  1.00  0.00     0.088 A 
ATOM     14  C   UNL     1       1.761  36.524  46.132  1.00  0.00     0.022 A 
ATOM     15  N   UNL     1       2.010  35.120  44.404  1.00  0.00    -0.346 N 
ATOM     16  C   UNL     1       2.007  37.684  46.862  1.00  0.00     0.027 A 
ATOM     17  C   UNL     1       2.345  36.316  44.918  1.00  0.00     0.137 A 
ATOM     18  N   UNL     1       3.184  37.218  44.357  1.00  0.00    -0.238 NA
ATOM     19  C   UNL     1       3.451  38.381  45.021  1.00  0.00     0.127 A 
ATOM     20  C   UNL     1       0.212  35.119  47.638  1.00  0.00     0.047 C 
ATOM     21  H   UNL     1       2.329  34.709  43.497  1.00  0.00     0.167 HD
ENDBRANCH   8  11
ENDBRANCH   1   7
BRANCH   4  22
ATOM     22  C   UNL     1       6.099  44.616  50.913  1.00  0.00     0.253 C 
ATOM     23  O   UNL     1       6.922  45.371  50.328  1.00  0.00    -0.269 OA
BRANCH  22  24
ATOM     24  C   UNL     1       5.480  45.062  52.179  1.00  0.00     0.042 A 
ATOM     25  C   UNL     1       6.198  45.908  53.063  1.00  0.00     0.016 A 
ATOM     26  C   UNL     1       4.190  44.608  52.540  1.00  0.00     0.042 A 
ATOM     27  C   UNL     1       5.633  46.320  54.283  1.00  0.00     0.031 A 
ATOM     28  C   UNL     1       3.657  45.045  53.754  1.00  0.00     0.070 A 
ATOM     29  C   UNL     1       4.355  45.867  54.594  1.00  0.00     0.091 A 
ATOM     30  N   UNL     1       2.472  44.753  54.319  1.00  0.00    -0.314 N 
ATOM     31  N   UNL     1       3.654  46.107  55.717  1.00  0.00    -0.213 NA
ATOM     32  C   UNL     1       2.511  45.401  55.512  1.00  0.00     0.200 A 
ATOM     33  C   UNL     1       1.431  43.854  53.823  1.00  0.00     0.153 C 
BRANCH  32  34
ATOM     34  N   UNL     1       1.473  45.328  56.492  1.00  0.00    -0.369 N 
ATOM     35  H   UNL     1       0.590  44.803  56.312  1.00  0.00     0.159 HD
ATOM     36  H   UNL     1       1.612  45.767  57.427  1.00  0.00     0.159 HD
ENDBRANCH  32  34
ENDBRANCH  22  24
ENDBRANCH   4  22
TORSDOF 5
ENDMDL
MODEL 5
REMARK VINA RESULT:    -8.129      6.446      9.104
REMARK INTER + INTRA:         -11.045
REMARK INTER:                 -10.642
REMARK INTRA:                  -0.403
REMARK UNBOUND:                -0.777
REMARK SMILES Cc1c[nH]c2ncc(C(=O)N[C@H]3[C@@H]4CN(C(=O)c5ccc6nc(N)n(C)c6c5)C[C@@H]43)cc12
REMARK SMILES IDX 12 1 13 2 14 3 15 4 29 5 30 6 11 7 9 8 10 9 8 11 2 12 3 13
REMARK SMILES IDX 32 14 4 15 31 16 5 17 6 18 7 19 1 20 16 22 17 23 18 24 19 25
REMARK SMILES IDX 28 26 20 27 27 28 21 29 25 30 22 31 23 32 26 33 24 34
REMARK H PARENT 11 10 4 21 24 35 24 36
ROOT
ATOM      1  C   UNL     1       5.765  42.333  47.894  1.00  0.00     0.093 C 
ATOM      2  C   UNL     1       5.758  41.854  49.339  1.00  0.00     0.038 C 
ATOM      3  C   UNL     1       5.400  42.899  50.386  1.00  0.00     0.126 C 
ATOM      4  N   UNL     1       6.428  43.923  50.304  1.00  0.00    -0.338 N 
ATOM      5  C   UNL     1       7.473  43.609  49.342  1.00  0.00     0.126 C 
ATOM      6  C   UNL     1       7.065  42.295  48.689  1.00  0.00     0.038 C 
ENDROOT
BRANCH   1   7
ATOM      7  N   UNL     1       5.628  41.242  46.931  1.00  0.00    -0.349 N 
ATOM      8  C   UNL     1       5.291  41.514  45.562  1.00  0.00     0.253 C 
ATOM      9  O   UNL     1       5.000  42.695  45.220  1.00  0.00    -0.269 OA
ATOM     10  H   UNL     1       5.709  40.256  47.263  1.00  0.00     0.164 HD
BRANCH   8  11
ATOM     11  C   UNL     1       5.262  40.438  44.541  1.00  0.00     0.058 A 
ATOM     12  C   UNL     1       7.256  38.352  42.149  1.00  0.00    -0.024 A 
ATOM     13  C   UNL     1       6.532  37.461  41.360  1.00  0.00     0.088 A 
ATOM     14  C   UNL     1       6.327  38.985  42.948  1.00  0.00     0.022 A 
ATOM     15  N   UNL     1       5.215  37.522  41.666  1.00  0.00    -0.346 N 
ATOM     16  C   UNL     1       6.445  39.998  43.897  1.00  0.00     0.027 A 
ATOM     17  C   UNL     1       5.113  38.451  42.632  1.00  0.00     0.137 A 
ATOM     18  N   UNL     1       3.966  38.867  43.219  1.00  0.00    -0.238 NA
ATOM     19  C   UNL     1       4.022  39.848  44.168  1.00  0.00     0.127 A 
ATOM     20  C   UNL     1       8.724  38.625  42.075  1.00  0.00     0.047 C 
ATOM     21  H   UNL     1       4.440  36.972  41.232  1.00  0.00     0.167 HD
ENDBRANCH   8  11
ENDBRANCH   1   7
BRANCH   4  22
ATOM     22  C   UNL     1       6.513  45.009  51.240  1.00  0.00     0.253 C 
ATOM     23  O   UNL     1       7.396  45.894  51.080  1.00  0.00    -0.269 OA
BRANCH  22  24
ATOM     24  C   UNL     1       5.583  45.110  52.384  1.00  0.00     0.042 A 
ATOM     25  C   UNL     1       6.067  44.958  53.709  1.00  0.00     0.016 A 
ATOM     26  C   UNL     1       4.201  45.308  52.163  1.00  0.00     0.042 A 
ATOM     27  C   UNL     1       5.191  45.026  54.807  1.00  0.00     0.031 A 
ATOM     28  C   UNL     1       3.362  45.380  53.277  1.00  0.00     0.070 A 
ATOM     29  C   UNL     1       3.840  45.240  54.550  1.00  0.00     0.091 A 
ATOM     30  N   UNL     1       2.029  45.552  53.331  1.00  0.00    -0.314 N 
ATOM     31  N   UNL     1       2.838  45.298  55.445  1.00  0.00    -0.213 NA
ATOM     32  C   UNL     1       1.746  45.482  54.658  1.00  0.00     0.200 A 
ATOM     33  C   UNL     1       1.087  45.669  52.220  1.00  0.00     0.153 C 
BRANCH  32  34
ATOM     34  N   UNL     1       0.422  45.554  55.193  1.00  0.00    -0.369 N 
ATOM     35  H   UNL     1      -0.153  46.421  55.111  1.00  0.00     0.159 HD
ATOM     36  H   UNL     1      -0.004  44.712  55.636  1.00  0.00     0.159 HD
ENDBRANCH  32  34
ENDBRANCH  22  24
ENDBRANCH   4  22
TORSDOF 5
ENDMDL
