MODEL 1
REMARK VINA RESULT:    -8.119      0.000      0.000
REMARK INTER + INTRA:         -11.563
REMARK INTER:                 -10.966
REMARK INTRA:                  -0.597
REMARK UNBOUND:                -0.597
REMARK SMILES O=C(Nc1ccc(OC(F)F)cc1)c1ccc(Nc2ncccn2)cc1
REMARK SMILES IDX 4 1 5 2 6 3 7 4 12 5 13 6 3 7 1 8 2 9 14 11 15 12 26 13
REMARK SMILES IDX 16 14 25 15 17 16 18 17 19 19 20 20 24 21 21 22 23 23 22 24
REMARK SMILES IDX 8 25 9 26 10 27 11 28
REMARK H PARENT 3 10 18 18
ROOT
ATOM      1  C   UNL     1       6.795  45.735  51.900  1.00  0.00     0.041 A 
ATOM      2  C   UNL     1       7.814  46.640  51.552  1.00  0.00     0.030 A 
ATOM      3  C   UNL     1       8.459  47.393  52.538  1.00  0.00     0.049 A 
ATOM      4  C   UNL     1       8.104  47.244  53.892  1.00  0.00     0.126 A 
ATOM      5  C   UNL     1       7.103  46.330  54.237  1.00  0.00     0.049 A 
ATOM      6  C   UNL     1       6.458  45.576  53.252  1.00  0.00     0.030 A 
ENDROOT
BRANCH   1   7
ATOM      7  N   UNL     1       6.133  44.933  50.907  1.00  0.00    -0.322 N 
ATOM      8  O   UNL     1       8.041  43.936  50.003  1.00  0.00    -0.269 OA
ATOM      9  C   UNL     1       6.787  43.907  50.142  1.00  0.00     0.255 C 
ATOM     10  H   UNL     1       5.153  45.188  50.648  1.00  0.00     0.170 HD
BRANCH   9  11
ATOM     11  C   UNL     1       6.004  42.842  49.471  1.00  0.00     0.040 A 
ATOM     12  C   UNL     1       6.182  42.564  48.104  1.00  0.00     0.016 A 
ATOM     13  C   UNL     1       5.053  42.100  50.195  1.00  0.00     0.016 A 
ATOM     14  C   UNL     1       5.433  41.563  47.480  1.00  0.00     0.027 A 
ATOM     15  C   UNL     1       4.304  41.099  49.568  1.00  0.00     0.027 A 
ATOM     16  C   UNL     1       4.477  40.835  48.200  1.00  0.00     0.041 A 
BRANCH  16  17
ATOM     17  N   UNL     1       3.737  39.795  47.538  1.00  0.00    -0.324 N 
ATOM     18  H   UNL     1       3.661  38.867  48.014  1.00  0.00     0.170 HD
BRANCH  17  19
ATOM     19  C   UNL     1       3.188  39.909  46.218  1.00  0.00     0.227 A 
ATOM     20  N   UNL     1       3.611  39.094  45.212  1.00  0.00    -0.221 NA
ATOM     21  N   UNL     1       2.195  40.809  45.980  1.00  0.00    -0.221 NA
ATOM     22  C   UNL     1       3.073  39.179  43.968  1.00  0.00     0.117 A 
ATOM     23  C   UNL     1       1.632  40.924  44.750  1.00  0.00     0.117 A 
ATOM     24  C   UNL     1       2.065  40.106  43.708  1.00  0.00     0.040 A 
ENDBRANCH  17  19
ENDBRANCH  16  17
ENDBRANCH   9  11
ENDBRANCH   1   7
BRANCH   4  25
ATOM     25  O   UNL     1       8.718  47.978  54.919  1.00  0.00    -0.435 OA
BRANCH  25  26
ATOM     26  C   UNL     1      10.101  47.904  55.254  1.00  0.00     0.542 C 
ATOM     27  F   UNL     1      10.557  46.609  55.095  1.00  0.00    -0.167 F 
ATOM     28  F   UNL     1      10.265  48.279  56.575  1.00  0.00    -0.167 F 
ENDBRANCH  25  26
ENDBRANCH   4  25
TORSDOF 6
ENDMDL
MODEL 2
REMARK VINA RESULT:    -8.019      4.798      5.421
REMARK INTER + INTRA:         -11.429
REMARK INTER:                 -10.581
REMARK INTRA:                  -0.848
REMARK UNBOUND:                -0.597
REMARK SMILES O=C(Nc1ccc(OC(F)F)cc1)c1ccc(Nc2ncccn2)cc1
REMARK SMILES IDX 4 1 5 2 6 3 7 4 12 5 13 6 3 7 1 8 2 9 14 11 15 12 26 13
REMARK SMILES IDX 16 14 25 15 17 16 18 17 19 19 20 20 24 21 21 22 23 23 22 24
REMARK SMILES IDX 8 25 9 26 10 27 11 28
REMARK H PARENT 3 10 18 18
ROOT
ATOM      1  C   UNL     1       5.291  45.708  51.468  1.00  0.00     0.041 A 
ATOM      2  C   UNL     1       6.431  45.361  50.720  1.00  0.00     0.030 A 
ATOM      3  C   UNL     1       7.660  45.975  50.978  1.00  0.00     0.049 A 
ATOM      4  C   UNL     1       7.773  46.939  51.997  1.00  0.00     0.126 A 
ATOM      5  C   UNL     1       6.642  47.269  52.751  1.00  0.00     0.049 A 
ATOM      6  C   UNL     1       5.413  46.655  52.495  1.00  0.00     0.030 A 
ENDROOT
BRANCH   1   7
ATOM      7  N   UNL     1       4.022  45.073  51.238  1.00  0.00    -0.322 N 
ATOM      8  O   UNL     1       4.273  43.330  52.771  1.00  0.00    -0.269 OA
ATOM      9  C   UNL     1       3.491  44.024  52.065  1.00  0.00     0.255 C 
ATOM     10  H   UNL     1       3.511  45.309  50.357  1.00  0.00     0.170 HD
BRANCH   9  11
ATOM     11  C   UNL     1       2.041  43.712  52.060  1.00  0.00     0.040 A 
ATOM     12  C   UNL     1       1.162  44.366  51.180  1.00  0.00     0.016 A 
ATOM     13  C   UNL     1       1.520  42.760  52.955  1.00  0.00     0.016 A 
ATOM     14  C   UNL     1      -0.203  44.070  51.189  1.00  0.00     0.027 A 
ATOM     15  C   UNL     1       0.153  42.465  52.963  1.00  0.00     0.027 A 
ATOM     16  C   UNL     1      -0.723  43.132  52.091  1.00  0.00     0.041 A 
BRANCH  16  17
ATOM     17  N   UNL     1      -2.128  42.828  52.063  1.00  0.00    -0.324 N 
ATOM     18  H   UNL     1      -2.742  43.279  52.779  1.00  0.00     0.170 HD
BRANCH  17  19
ATOM     19  C   UNL     1      -2.728  41.862  51.189  1.00  0.00     0.227 A 
ATOM     20  N   UNL     1      -2.949  42.148  49.877  1.00  0.00    -0.221 NA
ATOM     21  N   UNL     1      -3.035  40.624  51.668  1.00  0.00    -0.221 NA
ATOM     22  C   UNL     1      -3.491  41.226  49.039  1.00  0.00     0.117 A 
ATOM     23  C   UNL     1      -3.577  39.676  50.862  1.00  0.00     0.117 A 
ATOM     24  C   UNL     1      -3.821  39.960  49.519  1.00  0.00     0.040 A 
ENDBRANCH  17  19
ENDBRANCH  16  17
ENDBRANCH   9  11
ENDBRANCH   1   7
BRANCH   4  25
ATOM     25  O   UNL     1       8.983  47.588  52.293  1.00  0.00    -0.435 OA
BRANCH  25  26
ATOM     26  C   UNL     1       9.927  47.142  53.262  1.00  0.00     0.542 C 
ATOM     27  F   UNL     1       9.753  45.792  53.504  1.00  0.00    -0.167 F 
ATOM     28  F   UNL     1       9.728  47.839  54.439  1.00  0.00    -0.167 F 
ENDBRANCH  25  26
ENDBRANCH   4  25
TORSDOF 6
ENDMDL
MODEL 3
REMARK VINA RESULT:    -7.989      1.863      2.757
REMARK INTER + INTRA:         -11.388
REMARK INTER:                 -10.650
REMARK INTRA:                  -0.739
REMARK UNBOUND:                -0.597
REMARK SMILES O=C(Nc1ccc(OC(F)F)cc1)c1ccc(Nc2ncccn2)cc1
REMARK SMILES IDX 4 1 5 2 6 3 7 4 12 5 13 6 3 7 1 8 2 9 14 11 15 12 26 13
REMARK SMILES IDX 16 14 25 15 17 16 18 17 19 19 20 20 24 21 21 22 23 23 22 24
REMARK SMILES IDX 8 25 9 26 10 27 11 28
REMARK H PARENT 3 10 18 18
ROOT
ATOM      1  C   UNL     1       7.996  44.321  49.694  1.00  0.00     0.041 A 
ATOM      2  C   UNL     1       7.280  45.303  50.402  1.00  0.00     0.030 A 
ATOM      3  C   UNL     1       7.935  46.137  51.313  1.00  0.00     0.049 A 
ATOM      4  C   UNL     1       9.321  46.013  51.521  1.00  0.00     0.126 A 
ATOM      5  C   UNL     1      10.034  45.048  50.802  1.00  0.00     0.049 A 
ATOM      6  C   UNL     1       9.380  44.214  49.891  1.00  0.00     0.030 A 
ENDROOT
BRANCH   1   7
ATOM      7  N   UNL     1       7.349  43.467  48.735  1.00  0.00    -0.322 N 
ATOM      8  O   UNL     1       6.876  41.695  50.180  1.00  0.00    -0.269 OA
ATOM      9  C   UNL     1       6.630  42.272  49.085  1.00  0.00     0.255 C 
ATOM     10  H   UNL     1       7.507  43.664  47.721  1.00  0.00     0.170 HD
BRANCH   9  11
ATOM     11  C   UNL     1       5.639  41.680  48.155  1.00  0.00     0.040 A 
ATOM     12  C   UNL     1       5.716  41.915  46.771  1.00  0.00     0.016 A 
ATOM     13  C   UNL     1       4.592  40.881  48.650  1.00  0.00     0.016 A 
ATOM     14  C   UNL     1       4.773  41.357  45.903  1.00  0.00     0.027 A 
ATOM     15  C   UNL     1       3.650  40.325  47.781  1.00  0.00     0.027 A 
ATOM     16  C   UNL     1       3.723  40.573  46.400  1.00  0.00     0.041 A 
BRANCH  16  17
ATOM     17  N   UNL     1       2.780  39.993  45.483  1.00  0.00    -0.324 N 
ATOM     18  H   UNL     1       2.934  39.005  45.179  1.00  0.00     0.170 HD
BRANCH  17  19
ATOM     19  C   UNL     1       1.701  40.714  44.870  1.00  0.00     0.227 A 
ATOM     20  N   UNL     1       1.042  41.694  45.547  1.00  0.00    -0.221 NA
ATOM     21  N   UNL     1       1.366  40.448  43.578  1.00  0.00    -0.221 NA
ATOM     22  C   UNL     1       0.039  42.399  44.961  1.00  0.00     0.117 A 
ATOM     23  C   UNL     1       0.370  41.130  42.957  1.00  0.00     0.117 A 
ATOM     24  C   UNL     1      -0.322  42.128  43.642  1.00  0.00     0.040 A 
ENDBRANCH  17  19
ENDBRANCH  16  17
ENDBRANCH   9  11
ENDBRANCH   1   7
BRANCH   4  25
ATOM     25  O   UNL     1      10.025  46.823  52.426  1.00  0.00    -0.435 OA
BRANCH  25  26
ATOM     26  C   UNL     1       9.544  47.217  53.708  1.00  0.00     0.542 C 
ATOM     27  F   UNL     1       8.915  48.445  53.618  1.00  0.00    -0.167 F 
ATOM     28  F   UNL     1      10.612  47.320  54.579  1.00  0.00    -0.167 F 
ENDBRANCH  25  26
ENDBRANCH   4  25
TORSDOF 6
ENDMDL
MODEL 4
REMARK VINA RESULT:    -7.836      6.339      8.103
REMARK INTER + INTRA:         -11.182
REMARK INTER:                 -10.374
REMARK INTRA:                  -0.808
REMARK UNBOUND:                -0.597
REMARK SMILES O=C(Nc1ccc(OC(F)F)cc1)c1ccc(Nc2ncccn2)cc1
REMARK SMILES IDX 4 1 5 2 6 3 7 4 12 5 13 6 3 7 1 8 2 9 14 11 15 12 26 13
REMARK SMILES IDX 16 14 25 15 17 16 18 17 19 19 20 20 24 21 21 22 23 23 22 24
REMARK SMILES IDX 8 25 9 26 10 27 11 28
REMARK H PARENT 3 10 18 18
ROOT
ATOM      1  C   UNL     1       5.206  46.012  51.718  1.00  0.00     0.041 A 
ATOM      2  C   UNL     1       6.053  45.412  50.770  1.00  0.00     0.030 A 
ATOM      3  C   UNL     1       7.408  45.755  50.714  1.00  0.00     0.049 A 
ATOM      4  C   UNL     1       7.941  46.695  51.615  1.00  0.00     0.126 A 
ATOM      5  C   UNL     1       7.100  47.277  52.569  1.00  0.00     0.049 A 
ATOM      6  C   UNL     1       5.746  46.935  52.626  1.00  0.00     0.030 A 
ENDROOT
BRANCH   1   7
ATOM      7  N   UNL     1       3.815  45.660  51.811  1.00  0.00    -0.322 N 
ATOM      8  O   UNL     1       4.086  43.679  53.017  1.00  0.00    -0.269 OA
ATOM      9  C   UNL     1       3.312  44.604  52.647  1.00  0.00     0.255 C 
ATOM     10  H   UNL     1       3.150  46.120  51.149  1.00  0.00     0.170 HD
BRANCH   9  11
ATOM     11  C   UNL     1       1.883  44.561  53.040  1.00  0.00     0.040 A 
ATOM     12  C   UNL     1       1.500  44.172  54.336  1.00  0.00     0.016 A 
ATOM     13  C   UNL     1       0.883  44.895  52.109  1.00  0.00     0.016 A 
ATOM     14  C   UNL     1       0.150  44.128  54.693  1.00  0.00     0.027 A 
ATOM     15  C   UNL     1      -0.468  44.850  52.469  1.00  0.00     0.027 A 
ATOM     16  C   UNL     1      -0.845  44.448  53.761  1.00  0.00     0.041 A 
BRANCH  16  17
ATOM     17  N   UNL     1      -2.226  44.417  54.162  1.00  0.00    -0.324 N 
ATOM     18  H   UNL     1      -2.954  44.579  53.430  1.00  0.00     0.170 HD
BRANCH  17  19
ATOM     19  C   UNL     1      -2.669  44.287  55.520  1.00  0.00     0.227 A 
ATOM     20  N   UNL     1      -2.878  43.061  56.073  1.00  0.00    -0.221 NA
ATOM     21  N   UNL     1      -2.835  45.405  56.280  1.00  0.00    -0.221 NA
ATOM     22  C   UNL     1      -3.270  42.933  57.368  1.00  0.00     0.117 A 
ATOM     23  C   UNL     1      -3.225  45.318  57.578  1.00  0.00     0.117 A 
ATOM     24  C   UNL     1      -3.456  44.069  58.153  1.00  0.00     0.040 A 
ENDBRANCH  17  19
ENDBRANCH  16  17
ENDBRANCH   9  11
ENDBRANCH   1   7
BRANCH   4  25
ATOM     25  O   UNL     1       9.292  47.076  51.598  1.00  0.00    -0.435 OA
BRANCH  25  26
ATOM     26  C   UNL     1      10.249  46.716  52.590  1.00  0.00     0.542 C 
ATOM     27  F   UNL     1       9.944  45.473  53.112  1.00  0.00    -0.167 F 
ATOM     28  F   UNL     1      10.217  47.651  53.608  1.00  0.00    -0.167 F 
ENDBRANCH  25  26
ENDBRANCH   4  25
TORSDOF 6
ENDMDL
MODEL 5
REMARK VINA RESULT:    -7.509      7.147      9.766
REMARK INTER + INTRA:         -10.740
REMARK INTER:                  -9.920
REMARK INTRA:                  -0.819
REMARK UNBOUND:                -0.597
REMARK SMILES O=C(Nc1ccc(OC(F)F)cc1)c1ccc(Nc2ncccn2)cc1
REMARK SMILES IDX 4 1 5 2 6 3 7 4 12 5 13 6 3 7 1 8 2 9 14 11 15 12 26 13
REMARK SMILES IDX 16 14 25 15 17 16 18 17 19 19 20 20 24 21 21 22 23 23 22 24
REMARK SMILES IDX 8 25 9 26 10 27 11 28
REMARK H PARENT 3 10 18 18
ROOT
ATOM      1  C   UNL     1       4.616  45.987  53.334  1.00  0.00     0.041 A 
ATOM      2  C   UNL     1       5.688  45.989  54.245  1.00  0.00     0.030 A 
ATOM      3  C   UNL     1       7.008  46.005  53.783  1.00  0.00     0.049 A 
ATOM      4  C   UNL     1       7.279  46.031  52.402  1.00  0.00     0.126 A 
ATOM      5  C   UNL     1       6.210  46.047  51.500  1.00  0.00     0.049 A 
ATOM      6  C   UNL     1       4.890  46.033  51.960  1.00  0.00     0.030 A 
ENDROOT
BRANCH   1   7
ATOM      7  N   UNL     1       3.251  45.994  53.784  1.00  0.00    -0.322 N 
ATOM      8  O   UNL     1       2.754  43.769  53.279  1.00  0.00    -0.269 OA
ATOM      9  C   UNL     1       2.449  44.810  53.925  1.00  0.00     0.255 C 
ATOM     10  H   UNL     1       2.782  46.921  53.906  1.00  0.00     0.170 HD
BRANCH   9  11
ATOM     11  C   UNL     1       1.237  44.808  54.780  1.00  0.00     0.040 A 
ATOM     12  C   UNL     1      -0.005  44.383  54.275  1.00  0.00     0.016 A 
ATOM     13  C   UNL     1       1.311  45.251  56.113  1.00  0.00     0.016 A 
ATOM     14  C   UNL     1      -1.142  44.393  55.087  1.00  0.00     0.027 A 
ATOM     15  C   UNL     1       0.172  45.260  56.923  1.00  0.00     0.027 A 
ATOM     16  C   UNL     1      -1.069  44.847  56.410  1.00  0.00     0.041 A 
BRANCH  16  17
ATOM     17  N   UNL     1      -2.249  44.825  57.230  1.00  0.00    -0.324 N 
ATOM     18  H   UNL     1      -2.779  43.927  57.305  1.00  0.00     0.170 HD
BRANCH  17  19
ATOM     19  C   UNL     1      -2.813  45.981  57.866  1.00  0.00     0.227 A 
ATOM     20  N   UNL     1      -3.203  45.942  59.170  1.00  0.00    -0.221 NA
ATOM     21  N   UNL     1      -2.913  47.147  57.170  1.00  0.00    -0.221 NA
ATOM     22  C   UNL     1      -3.710  47.042  59.784  1.00  0.00     0.117 A 
ATOM     23  C   UNL     1      -3.414  48.268  57.748  1.00  0.00     0.117 A 
ATOM     24  C   UNL     1      -3.829  48.239  59.078  1.00  0.00     0.040 A 
ENDBRANCH  17  19
ENDBRANCH  16  17
ENDBRANCH   9  11
ENDBRANCH   1   7
BRANCH   4  25
ATOM     25  O   UNL     1       8.585  46.044  51.888  1.00  0.00    -0.435 OA
BRANCH  25  26
ATOM     26  C   UNL     1       9.429  47.191  51.844  1.00  0.00     0.542 C 
ATOM     27  F   UNL     1      10.242  47.221  52.962  1.00  0.00    -0.167 F 
ATOM     28  F   UNL     1       8.643  48.329  51.829  1.00  0.00    -0.167 F 
ENDBRANCH  25  26
ENDBRANCH   4  25
TORSDOF 6
ENDMDL
