MODEL 1
REMARK VINA RESULT:    -8.944      0.000      0.000
REMARK INTER + INTRA:         -10.878
REMARK INTER:                 -10.513
REMARK INTRA:                  -0.365
REMARK UNBOUND:                -0.365
REMARK SMILES N#Cc1ccsc1S(=O)(=O)Nc1cccc2c1NC(=O)C2
REMARK SMILES IDX 11 1 8 3 9 4 10 5 7 6 1 7 2 8 3 9 4 10 5 11 6 12 12 13 13 14
REMARK SMILES IDX 17 15 14 16 18 17 16 18 15 19 19 20 21 21 20 22
REMARK H PARENT 11 2 18 23
ROOT
ATOM      1  N   UNL     1       6.244  45.967  51.148  1.00  0.00    -0.277 N 
ATOM      2  H   UNL     1       5.823  46.663  50.497  1.00  0.00     0.180 HD
ENDROOT
BRANCH   1   3
ATOM      3  S   UNL     1       5.130  44.980  52.042  1.00  0.00     0.272 S 
ATOM      4  O   UNL     1       3.818  45.703  52.162  1.00  0.00    -0.200 OA
ATOM      5  O   UNL     1       5.685  44.735  53.416  1.00  0.00    -0.200 OA
BRANCH   3   6
ATOM      6  C   UNL     1       4.916  43.433  51.234  1.00  0.00     0.158 A 
ATOM      7  N   UNL     1       1.935  42.879  53.114  1.00  0.00    -0.192 NA
ATOM      8  C   UNL     1       2.804  42.720  52.366  1.00  0.00     0.101 C 
ATOM      9  C   UNL     1       3.884  42.521  51.436  1.00  0.00     0.083 A 
ATOM     10  C   UNL     1       4.000  41.370  50.646  1.00  0.00     0.032 A 
ATOM     11  C   UNL     1       5.122  41.370  49.828  1.00  0.00     0.068 A 
ATOM     12  S   UNL     1       5.969  42.801  50.088  1.00  0.00    -0.129 S 
ENDBRANCH   3   6
ENDBRANCH   1   3
BRANCH   1  13
ATOM     13  C   UNL     1       7.676  45.900  51.298  1.00  0.00     0.073 A 
ATOM     14  C   UNL     1       8.494  45.206  50.375  1.00  0.00     0.029 A 
ATOM     15  C   UNL     1       8.316  46.531  52.379  1.00  0.00     0.069 A 
ATOM     16  C   UNL     1       9.889  45.155  50.546  1.00  0.00     0.003 A 
ATOM     17  N   UNL     1       7.702  47.266  53.427  1.00  0.00    -0.324 N 
ATOM     18  C   UNL     1       9.687  46.477  52.540  1.00  0.00    -0.013 A 
ATOM     19  C   UNL     1      10.496  45.793  51.636  1.00  0.00     0.006 A 
ATOM     20  C   UNL     1       8.778  47.677  54.263  1.00  0.00     0.228 C 
ATOM     21  C   UNL     1      10.113  47.214  53.769  1.00  0.00     0.138 C 
ATOM     22  O   UNL     1       8.609  48.356  55.309  1.00  0.00    -0.274 OA
ATOM     23  H   UNL     1       6.688  47.455  53.584  1.00  0.00     0.170 HD
ENDBRANCH   1  13
TORSDOF 3
ENDMDL
MODEL 2
REMARK VINA RESULT:    -8.762      2.022      6.529
REMARK INTER + INTRA:         -10.664
REMARK INTER:                 -10.230
REMARK INTRA:                  -0.434
REMARK UNBOUND:                -0.365
REMARK SMILES N#Cc1ccsc1S(=O)(=O)Nc1cccc2c1NC(=O)C2
REMARK SMILES IDX 11 1 8 3 9 4 10 5 7 6 1 7 2 8 3 9 4 10 5 11 6 12 12 13 13 14
REMARK SMILES IDX 17 15 14 16 18 17 16 18 15 19 19 20 21 21 20 22
REMARK H PARENT 11 2 18 23
ROOT
ATOM      1  N   UNL     1       5.237  46.015  51.853  1.00  0.00    -0.277 N 
ATOM      2  H   UNL     1       5.303  46.524  50.946  1.00  0.00     0.180 HD
ENDROOT
BRANCH   1   3
ATOM      3  S   UNL     1       6.316  46.540  53.108  1.00  0.00     0.272 S 
ATOM      4  O   UNL     1       6.100  45.692  54.331  1.00  0.00    -0.200 OA
ATOM      5  O   UNL     1       6.020  47.974  53.442  1.00  0.00    -0.200 OA
BRANCH   3   6
ATOM      6  C   UNL     1       7.982  46.420  52.556  1.00  0.00     0.158 A 
ATOM      7  N   UNL     1       9.043  48.304  55.393  1.00  0.00    -0.192 NA
ATOM      8  C   UNL     1       9.072  47.701  54.406  1.00  0.00     0.101 C 
ATOM      9  C   UNL     1       9.107  46.952  53.177  1.00  0.00     0.083 A 
ATOM     10  C   UNL     1      10.297  46.697  52.482  1.00  0.00     0.032 A 
ATOM     11  C   UNL     1      10.110  45.970  51.313  1.00  0.00     0.068 A 
ATOM     12  S   UNL     1       8.467  45.647  51.146  1.00  0.00    -0.129 S 
ENDBRANCH   3   6
ENDBRANCH   1   3
BRANCH   1  13
ATOM     13  C   UNL     1       4.319  44.914  51.993  1.00  0.00     0.073 A 
ATOM     14  C   UNL     1       3.104  45.037  52.708  1.00  0.00     0.029 A 
ATOM     15  C   UNL     1       4.602  43.664  51.414  1.00  0.00     0.069 A 
ATOM     16  C   UNL     1       2.226  43.944  52.831  1.00  0.00     0.003 A 
ATOM     17  N   UNL     1       5.757  43.307  50.670  1.00  0.00    -0.324 N 
ATOM     18  C   UNL     1       3.735  42.595  51.538  1.00  0.00    -0.013 A 
ATOM     19  C   UNL     1       2.540  42.711  52.243  1.00  0.00     0.006 A 
ATOM     20  C   UNL     1       5.562  41.939  50.328  1.00  0.00     0.228 C 
ATOM     21  C   UNL     1       4.272  41.385  50.846  1.00  0.00     0.138 C 
ATOM     22  O   UNL     1       6.399  41.276  49.661  1.00  0.00    -0.274 OA
ATOM     23  H   UNL     1       6.588  43.892  50.436  1.00  0.00     0.170 HD
ENDBRANCH   1  13
TORSDOF 3
ENDMDL
MODEL 3
REMARK VINA RESULT:    -8.758      2.215      3.706
REMARK INTER + INTRA:         -10.659
REMARK INTER:                  -9.871
REMARK INTRA:                  -0.788
REMARK UNBOUND:                -0.365
REMARK SMILES N#Cc1ccsc1S(=O)(=O)Nc1cccc2c1NC(=O)C2
REMARK SMILES IDX 11 1 8 3 9 4 10 5 7 6 1 7 2 8 3 9 4 10 5 11 6 12 12 13 13 14
REMARK SMILES IDX 17 15 14 16 18 17 16 18 15 19 19 20 21 21 20 22
REMARK H PARENT 11 2 18 23
ROOT
ATOM      1  N   UNL     1       5.968  46.824  52.276  1.00  0.00    -0.277 N 
ATOM      2  H   UNL     1       5.522  47.359  51.500  1.00  0.00     0.180 HD
ENDROOT
BRANCH   1   3
ATOM      3  S   UNL     1       4.891  46.141  53.454  1.00  0.00     0.272 S 
ATOM      4  O   UNL     1       4.546  47.190  54.474  1.00  0.00    -0.200 OA
ATOM      5  O   UNL     1       5.577  44.993  54.139  1.00  0.00    -0.200 OA
BRANCH   3   6
ATOM      6  C   UNL     1       3.439  45.541  52.664  1.00  0.00     0.158 A 
ATOM      7  N   UNL     1       5.405  43.141  50.903  1.00  0.00    -0.192 NA
ATOM      8  C   UNL     1       4.493  43.750  51.275  1.00  0.00     0.101 C 
ATOM      9  C   UNL     1       3.360  44.507  51.736  1.00  0.00     0.083 A 
ATOM     10  C   UNL     1       2.057  44.272  51.278  1.00  0.00     0.032 A 
ATOM     11  C   UNL     1       1.111  45.122  51.838  1.00  0.00     0.068 A 
ATOM     12  S   UNL     1       1.897  46.164  52.901  1.00  0.00    -0.129 S 
ENDBRANCH   3   6
ENDBRANCH   1   3
BRANCH   1  13
ATOM     13  C   UNL     1       7.404  46.728  52.349  1.00  0.00     0.073 A 
ATOM     14  C   UNL     1       8.153  47.424  53.327  1.00  0.00     0.029 A 
ATOM     15  C   UNL     1       8.117  45.926  51.441  1.00  0.00     0.069 A 
ATOM     16  C   UNL     1       9.555  47.313  53.374  1.00  0.00     0.003 A 
ATOM     17  N   UNL     1       7.582  45.155  50.376  1.00  0.00    -0.324 N 
ATOM     18  C   UNL     1       9.494  45.821  51.493  1.00  0.00    -0.013 A 
ATOM     19  C   UNL     1      10.235  46.507  52.451  1.00  0.00     0.006 A 
ATOM     20  C   UNL     1       8.713  44.551  49.757  1.00  0.00     0.228 C 
ATOM     21  C   UNL     1      10.006  44.922  50.415  1.00  0.00     0.138 C 
ATOM     22  O   UNL     1       8.621  43.789  48.760  1.00  0.00    -0.274 OA
ATOM     23  H   UNL     1       6.587  45.057  50.077  1.00  0.00     0.170 HD
ENDBRANCH   1  13
TORSDOF 3
ENDMDL
MODEL 4
REMARK VINA RESULT:    -8.726      1.928      2.764
REMARK INTER + INTRA:         -10.621
REMARK INTER:                  -9.991
REMARK INTRA:                  -0.630
REMARK UNBOUND:                -0.365
REMARK SMILES N#Cc1ccsc1S(=O)(=O)Nc1cccc2c1NC(=O)C2
REMARK SMILES IDX 11 1 8 3 9 4 10 5 7 6 1 7 2 8 3 9 4 10 5 11 6 12 12 13 13 14
REMARK SMILES IDX 17 15 14 16 18 17 16 18 15 19 19 20 21 21 20 22
REMARK H PARENT 11 2 18 23
ROOT
ATOM      1  N   UNL     1       5.197  46.145  52.489  1.00  0.00    -0.277 N 
ATOM      2  H   UNL     1       4.477  46.628  51.911  1.00  0.00     0.180 HD
ENDROOT
BRANCH   1   3
ATOM      3  S   UNL     1       4.665  45.531  54.023  1.00  0.00     0.272 S 
ATOM      4  O   UNL     1       4.543  46.672  54.994  1.00  0.00    -0.200 OA
ATOM      5  O   UNL     1       5.678  44.550  54.539  1.00  0.00    -0.200 OA
BRANCH   3   6
ATOM      6  C   UNL     1       3.122  44.706  53.838  1.00  0.00     0.158 A 
ATOM      7  N   UNL     1       4.508  42.738  51.205  1.00  0.00    -0.192 NA
ATOM      8  C   UNL     1       3.755  43.166  51.972  1.00  0.00     0.101 C 
ATOM      9  C   UNL     1       2.819  43.699  52.927  1.00  0.00     0.083 A 
ATOM     10  C   UNL     1       1.495  43.251  53.017  1.00  0.00     0.032 A 
ATOM     11  C   UNL     1       0.754  43.905  53.993  1.00  0.00     0.068 A 
ATOM     12  S   UNL     1       1.746  45.041  54.741  1.00  0.00    -0.129 S 
ENDBRANCH   3   6
ENDBRANCH   1   3
BRANCH   1  13
ATOM     13  C   UNL     1       6.556  46.058  52.017  1.00  0.00     0.073 A 
ATOM     14  C   UNL     1       6.889  45.408  50.806  1.00  0.00     0.029 A 
ATOM     15  C   UNL     1       7.609  46.628  52.754  1.00  0.00     0.069 A 
ATOM     16  C   UNL     1       8.225  45.336  50.370  1.00  0.00     0.003 A 
ATOM     17  N   UNL     1       7.516  47.312  53.994  1.00  0.00    -0.324 N 
ATOM     18  C   UNL     1       8.919  46.555  52.319  1.00  0.00    -0.013 A 
ATOM     19  C   UNL     1       9.252  45.912  51.129  1.00  0.00     0.006 A 
ATOM     20  C   UNL     1       8.855  47.670  54.316  1.00  0.00     0.228 C 
ATOM     21  C   UNL     1       9.844  47.223  53.284  1.00  0.00     0.138 C 
ATOM     22  O   UNL     1       9.162  48.296  55.364  1.00  0.00    -0.274 OA
ATOM     23  H   UNL     1       6.668  47.500  54.573  1.00  0.00     0.170 HD
ENDBRANCH   1  13
TORSDOF 3
ENDMDL
MODEL 5
REMARK VINA RESULT:    -8.707      2.453      3.456
REMARK INTER + INTRA:         -10.600
REMARK INTER:                 -10.014
REMARK INTRA:                  -0.586
REMARK UNBOUND:                -0.365
REMARK SMILES N#Cc1ccsc1S(=O)(=O)Nc1cccc2c1NC(=O)C2
REMARK SMILES IDX 11 1 8 3 9 4 10 5 7 6 1 7 2 8 3 9 4 10 5 11 6 12 12 13 13 14
REMARK SMILES IDX 17 15 14 16 18 17 16 18 15 19 19 20 21 21 20 22
REMARK H PARENT 11 2 18 23
ROOT
ATOM      1  N   UNL     1       5.249  46.383  52.174  1.00  0.00    -0.277 N 
ATOM      2  H   UNL     1       4.938  47.310  52.535  1.00  0.00     0.180 HD
ENDROOT
BRANCH   1   3
ATOM      3  S   UNL     1       4.033  45.147  52.082  1.00  0.00     0.272 S 
ATOM      4  O   UNL     1       4.701  43.802  52.017  1.00  0.00    -0.200 OA
ATOM      5  O   UNL     1       3.217  45.354  50.838  1.00  0.00    -0.200 OA
BRANCH   3   6
ATOM      6  C   UNL     1       2.970  45.245  53.480  1.00  0.00     0.158 A 
ATOM      7  N   UNL     1       5.817  45.252  55.628  1.00  0.00    -0.192 NA
ATOM      8  C   UNL     1       4.718  45.270  55.267  1.00  0.00     0.101 C 
ATOM      9  C   UNL     1       3.351  45.293  54.817  1.00  0.00     0.083 A 
ATOM     10  C   UNL     1       2.266  45.355  55.700  1.00  0.00     0.032 A 
ATOM     11  C   UNL     1       1.032  45.352  55.063  1.00  0.00     0.068 A 
ATOM     12  S   UNL     1       1.292  45.270  53.402  1.00  0.00    -0.129 S 
ENDBRANCH   3   6
ENDBRANCH   1   3
BRANCH   1  13
ATOM     13  C   UNL     1       6.633  46.175  51.831  1.00  0.00     0.073 A 
ATOM     14  C   UNL     1       7.018  45.474  50.663  1.00  0.00     0.029 A 
ATOM     15  C   UNL     1       7.660  46.671  52.653  1.00  0.00     0.069 A 
ATOM     16  C   UNL     1       8.377  45.284  50.352  1.00  0.00     0.003 A 
ATOM     17  N   UNL     1       7.513  47.386  53.870  1.00  0.00    -0.324 N 
ATOM     18  C   UNL     1       8.993  46.481  52.341  1.00  0.00    -0.013 A 
ATOM     19  C   UNL     1       9.376  45.789  51.195  1.00  0.00     0.006 A 
ATOM     20  C   UNL     1       8.843  47.638  54.309  1.00  0.00     0.228 C 
ATOM     21  C   UNL     1       9.879  47.090  53.378  1.00  0.00     0.138 C 
ATOM     22  O   UNL     1       9.106  48.258  55.373  1.00  0.00    -0.274 OA
ATOM     23  H   UNL     1       6.635  47.655  54.367  1.00  0.00     0.170 HD
ENDBRANCH   1  13
TORSDOF 3
ENDMDL
