MODEL 1
REMARK VINA RESULT:    -8.542      0.000      0.000
REMARK INTER + INTRA:         -11.702
REMARK INTER:                 -11.039
REMARK INTRA:                  -0.663
REMARK UNBOUND:                -0.663
REMARK SMILES O=C(Nc1cccc(CCO)c1)c1c[nH]c2ncnc(O)c12
REMARK SMILES IDX 4 1 5 2 6 3 7 4 8 5 12 6 3 7 1 8 2 9 13 11 14 12 22 13 15 14
REMARK SMILES IDX 20 15 16 16 19 17 17 18 18 19 21 21 9 23 10 24 11 25
REMARK H PARENT 3 10 15 20 21 22 11 26
ROOT
ATOM      1  C   UNL     1       7.177  46.483  52.409  1.00  0.00     0.041 A 
ATOM      2  C   UNL     1       8.145  46.052  51.486  1.00  0.00     0.026 A 
ATOM      3  C   UNL     1       9.500  46.300  51.718  1.00  0.00     0.002 A 
ATOM      4  C   UNL     1       9.902  46.989  52.864  1.00  0.00     0.004 A 
ATOM      5  C   UNL     1       8.947  47.439  53.789  1.00  0.00    -0.044 A 
ATOM      6  C   UNL     1       7.585  47.198  53.546  1.00  0.00     0.030 A 
ENDROOT
BRANCH   1   7
ATOM      7  N   UNL     1       5.775  46.271  52.182  1.00  0.00    -0.322 N 
ATOM      8  O   UNL     1       5.559  44.372  53.544  1.00  0.00    -0.269 OA
ATOM      9  C   UNL     1       5.002  45.237  52.815  1.00  0.00     0.258 C 
ATOM     10  H   UNL     1       5.275  46.958  51.575  1.00  0.00     0.170 HD
BRANCH   9  11
ATOM     11  C   UNL     1       3.550  45.155  52.600  1.00  0.00     0.072 A 
ATOM     12  C   UNL     1       2.913  45.141  51.360  1.00  0.00     0.099 A 
ATOM     13  C   UNL     1       2.534  45.084  53.541  1.00  0.00     0.093 A 
ATOM     14  N   UNL     1       1.570  45.091  51.516  1.00  0.00    -0.345 N 
ATOM     15  C   UNL     1       2.506  44.964  54.930  1.00  0.00     0.224 A 
ATOM     16  C   UNL     1       1.361  45.057  52.841  1.00  0.00     0.145 A 
ATOM     17  N   UNL     1       1.287  44.883  55.540  1.00  0.00    -0.201 NA
ATOM     18  N   UNL     1       0.156  44.965  53.454  1.00  0.00    -0.218 NA
ATOM     19  C   UNL     1       0.124  44.892  54.817  1.00  0.00     0.228 A 
ATOM     20  H   UNL     1       0.849  45.070  50.762  1.00  0.00     0.167 HD
BRANCH  15  21
ATOM     21  O   UNL     1       3.674  44.898  55.682  1.00  0.00    -0.493 OA
ATOM     22  H   UNL     1       4.276  45.707  55.781  1.00  0.00     0.295 HD
ENDBRANCH  15  21
ENDBRANCH   9  11
ENDBRANCH   1   7
BRANCH   5  23
ATOM     23  C   UNL     1       9.378  48.220  55.003  1.00  0.00     0.063 C 
BRANCH  23  24
ATOM     24  C   UNL     1      10.545  47.537  55.717  1.00  0.00     0.161 C 
BRANCH  24  25
ATOM     25  O   UNL     1      10.627  47.985  57.042  1.00  0.00    -0.396 OA
ATOM     26  H   UNL     1      10.179  47.294  57.594  1.00  0.00     0.210 HD
ENDBRANCH  24  25
ENDBRANCH  23  24
ENDBRANCH   5  23
TORSDOF 6
ENDMDL
MODEL 2
REMARK VINA RESULT:    -8.373      1.385      2.146
REMARK INTER + INTRA:         -11.483
REMARK INTER:                 -10.841
REMARK INTRA:                  -0.642
REMARK UNBOUND:                -0.663
REMARK SMILES O=C(Nc1cccc(CCO)c1)c1c[nH]c2ncnc(O)c12
REMARK SMILES IDX 4 1 5 2 6 3 7 4 8 5 12 6 3 7 1 8 2 9 13 11 14 12 22 13 15 14
REMARK SMILES IDX 20 15 16 16 19 17 17 18 18 19 21 21 9 23 10 24 11 25
REMARK H PARENT 3 10 15 20 21 22 11 26
ROOT
ATOM      1  C   UNL     1       7.188  46.599  52.437  1.00  0.00     0.041 A 
ATOM      2  C   UNL     1       8.133  46.086  51.531  1.00  0.00     0.026 A 
ATOM      3  C   UNL     1       9.499  46.251  51.770  1.00  0.00     0.002 A 
ATOM      4  C   UNL     1       9.936  46.937  52.905  1.00  0.00     0.004 A 
ATOM      5  C   UNL     1       9.006  47.468  53.812  1.00  0.00    -0.044 A 
ATOM      6  C   UNL     1       7.634  47.310  53.562  1.00  0.00     0.030 A 
ENDROOT
BRANCH   1   7
ATOM      7  N   UNL     1       5.777  46.473  52.202  1.00  0.00    -0.322 N 
ATOM      8  O   UNL     1       5.431  44.613  53.589  1.00  0.00    -0.269 OA
ATOM      9  C   UNL     1       4.935  45.500  52.843  1.00  0.00     0.258 C 
ATOM     10  H   UNL     1       5.326  47.182  51.581  1.00  0.00     0.170 HD
BRANCH   9  11
ATOM     11  C   UNL     1       3.483  45.507  52.618  1.00  0.00     0.072 A 
ATOM     12  C   UNL     1       2.609  46.525  52.997  1.00  0.00     0.099 A 
ATOM     13  C   UNL     1       2.691  44.543  52.014  1.00  0.00     0.093 A 
ATOM     14  N   UNL     1       1.335  46.205  52.671  1.00  0.00    -0.345 N 
ATOM     15  C   UNL     1       2.959  43.347  51.347  1.00  0.00     0.224 A 
ATOM     16  C   UNL     1       1.406  45.003  52.078  1.00  0.00     0.145 A 
ATOM     17  N   UNL     1       1.902  42.653  50.832  1.00  0.00    -0.201 NA
ATOM     18  N   UNL     1       0.365  44.312  51.554  1.00  0.00    -0.218 NA
ATOM     19  C   UNL     1       0.619  43.120  50.939  1.00  0.00     0.228 A 
ATOM     20  H   UNL     1       0.480  46.779  52.835  1.00  0.00     0.167 HD
BRANCH  15  21
ATOM     21  O   UNL     1       4.257  42.880  51.178  1.00  0.00    -0.493 OA
ATOM     22  H   UNL     1       4.442  41.892  51.051  1.00  0.00     0.295 HD
ENDBRANCH  15  21
ENDBRANCH   9  11
ENDBRANCH   1   7
BRANCH   5  23
ATOM     23  C   UNL     1       9.478  48.245  55.013  1.00  0.00     0.063 C 
BRANCH  23  24
ATOM     24  C   UNL     1      10.591  47.502  55.753  1.00  0.00     0.161 C 
BRANCH  24  25
ATOM     25  O   UNL     1      10.681  47.963  57.074  1.00  0.00    -0.396 OA
ATOM     26  H   UNL     1      11.644  48.134  57.239  1.00  0.00     0.210 HD
ENDBRANCH  24  25
ENDBRANCH  23  24
ENDBRANCH   5  23
TORSDOF 6
ENDMDL
MODEL 3
REMARK VINA RESULT:    -8.041      1.633      2.494
REMARK INTER + INTRA:         -11.056
REMARK INTER:                 -10.325
REMARK INTRA:                  -0.731
REMARK UNBOUND:                -0.663
REMARK SMILES O=C(Nc1cccc(CCO)c1)c1c[nH]c2ncnc(O)c12
REMARK SMILES IDX 4 1 5 2 6 3 7 4 8 5 12 6 3 7 1 8 2 9 13 11 14 12 22 13 15 14
REMARK SMILES IDX 20 15 16 16 19 17 17 18 18 19 21 21 9 23 10 24 11 25
REMARK H PARENT 3 10 15 20 21 22 11 26
ROOT
ATOM      1  C   UNL     1       7.206  46.843  52.987  1.00  0.00     0.041 A 
ATOM      2  C   UNL     1       7.563  47.382  54.235  1.00  0.00     0.026 A 
ATOM      3  C   UNL     1       8.909  47.548  54.572  1.00  0.00     0.002 A 
ATOM      4  C   UNL     1       9.909  47.167  53.674  1.00  0.00     0.004 A 
ATOM      5  C   UNL     1       9.570  46.615  52.430  1.00  0.00    -0.044 A 
ATOM      6  C   UNL     1       8.216  46.440  52.100  1.00  0.00     0.030 A 
ENDROOT
BRANCH   1   7
ATOM      7  N   UNL     1       5.831  46.632  52.626  1.00  0.00    -0.322 N 
ATOM      8  O   UNL     1       5.643  44.469  53.516  1.00  0.00    -0.269 OA
ATOM      9  C   UNL     1       5.081  45.452  52.962  1.00  0.00     0.258 C 
ATOM     10  H   UNL     1       5.330  47.417  52.155  1.00  0.00     0.170 HD
BRANCH   9  11
ATOM     11  C   UNL     1       3.651  45.362  52.638  1.00  0.00     0.072 A 
ATOM     12  C   UNL     1       3.101  45.445  51.360  1.00  0.00     0.099 A 
ATOM     13  C   UNL     1       2.574  45.191  53.495  1.00  0.00     0.093 A 
ATOM     14  N   UNL     1       1.752  45.356  51.415  1.00  0.00    -0.345 N 
ATOM     15  C   UNL     1       2.453  44.950  54.863  1.00  0.00     0.224 A 
ATOM     16  C   UNL     1       1.454  45.203  52.714  1.00  0.00     0.145 A 
ATOM     17  N   UNL     1       1.197  44.793  55.376  1.00  0.00    -0.201 NA
ATOM     18  N   UNL     1       0.212  45.036  53.229  1.00  0.00    -0.218 NA
ATOM     19  C   UNL     1       0.087  44.843  54.576  1.00  0.00     0.228 A 
ATOM     20  H   UNL     1       1.086  45.387  50.612  1.00  0.00     0.167 HD
BRANCH  15  21
ATOM     21  O   UNL     1       3.568  44.839  55.688  1.00  0.00    -0.493 OA
ATOM     22  H   UNL     1       4.478  45.156  55.376  1.00  0.00     0.295 HD
ENDBRANCH  15  21
ENDBRANCH   9  11
ENDBRANCH   1   7
BRANCH   5  23
ATOM     23  C   UNL     1      10.649  46.166  51.480  1.00  0.00     0.063 C 
BRANCH  23  24
ATOM     24  C   UNL     1      10.647  44.646  51.315  1.00  0.00     0.161 C 
BRANCH  24  25
ATOM     25  O   UNL     1      10.238  44.303  50.019  1.00  0.00    -0.396 OA
ATOM     26  H   UNL     1      10.133  43.317  50.016  1.00  0.00     0.210 HD
ENDBRANCH  24  25
ENDBRANCH  23  24
ENDBRANCH   5  23
TORSDOF 6
ENDMDL
MODEL 4
REMARK VINA RESULT:    -7.981      3.093      4.663
REMARK INTER + INTRA:         -10.977
REMARK INTER:                 -10.240
REMARK INTRA:                  -0.737
REMARK UNBOUND:                -0.663
REMARK SMILES O=C(Nc1cccc(CCO)c1)c1c[nH]c2ncnc(O)c12
REMARK SMILES IDX 4 1 5 2 6 3 7 4 8 5 12 6 3 7 1 8 2 9 13 11 14 12 22 13 15 14
REMARK SMILES IDX 20 15 16 16 19 17 17 18 18 19 21 21 9 23 10 24 11 25
REMARK H PARENT 3 10 15 20 21 22 11 26
ROOT
ATOM      1  C   UNL     1       5.732  44.956  52.093  1.00  0.00     0.041 A 
ATOM      2  C   UNL     1       6.745  45.927  52.028  1.00  0.00     0.026 A 
ATOM      3  C   UNL     1       7.674  45.908  50.984  1.00  0.00     0.002 A 
ATOM      4  C   UNL     1       7.608  44.914  50.005  1.00  0.00     0.004 A 
ATOM      5  C   UNL     1       6.611  43.929  50.063  1.00  0.00    -0.044 A 
ATOM      6  C   UNL     1       5.687  43.946  51.120  1.00  0.00     0.030 A 
ENDROOT
BRANCH   1   7
ATOM      7  N   UNL     1       4.783  44.932  53.172  1.00  0.00    -0.322 N 
ATOM      8  O   UNL     1       3.353  46.584  52.318  1.00  0.00    -0.269 OA
ATOM      9  C   UNL     1       3.584  45.724  53.210  1.00  0.00     0.258 C 
ATOM     10  H   UNL     1       4.942  44.240  53.938  1.00  0.00     0.170 HD
BRANCH   9  11
ATOM     11  C   UNL     1       2.619  45.562  54.307  1.00  0.00     0.072 A 
ATOM     12  C   UNL     1       2.899  45.721  55.663  1.00  0.00     0.099 A 
ATOM     13  C   UNL     1       1.277  45.222  54.241  1.00  0.00     0.093 A 
ATOM     14  N   UNL     1       1.798  45.469  56.409  1.00  0.00    -0.345 N 
ATOM     15  C   UNL     1       0.376  45.026  53.194  1.00  0.00     0.224 A 
ATOM     16  C   UNL     1       0.829  45.169  55.531  1.00  0.00     0.145 A 
ATOM     17  N   UNL     1      -0.918  44.728  53.512  1.00  0.00    -0.201 NA
ATOM     18  N   UNL     1      -0.460  44.884  55.837  1.00  0.00    -0.218 NA
ATOM     19  C   UNL     1      -1.335  44.648  54.814  1.00  0.00     0.228 A 
ATOM     20  H   UNL     1       1.718  45.513  57.448  1.00  0.00     0.167 HD
BRANCH  15  21
ATOM     21  O   UNL     1       0.762  45.155  51.864  1.00  0.00    -0.493 OA
ATOM     22  H   UNL     1       1.708  44.937  51.574  1.00  0.00     0.295 HD
ENDBRANCH  15  21
ENDBRANCH   9  11
ENDBRANCH   1   7
BRANCH   5  23
ATOM     23  C   UNL     1       6.567  42.833  49.030  1.00  0.00     0.063 C 
BRANCH  23  24
ATOM     24  C   UNL     1       6.168  41.496  49.655  1.00  0.00     0.161 C 
BRANCH  24  25
ATOM     25  O   UNL     1       7.311  40.802  50.076  1.00  0.00    -0.396 OA
ATOM     26  H   UNL     1       7.792  41.414  50.691  1.00  0.00     0.210 HD
ENDBRANCH  24  25
ENDBRANCH  23  24
ENDBRANCH   5  23
TORSDOF 6
ENDMDL
MODEL 5
REMARK VINA RESULT:    -7.940      2.382      6.959
REMARK INTER + INTRA:         -10.925
REMARK INTER:                 -10.119
REMARK INTRA:                  -0.806
REMARK UNBOUND:                -0.663
REMARK SMILES O=C(Nc1cccc(CCO)c1)c1c[nH]c2ncnc(O)c12
REMARK SMILES IDX 4 1 5 2 6 3 7 4 8 5 12 6 3 7 1 8 2 9 13 11 14 12 22 13 15 14
REMARK SMILES IDX 20 15 16 16 19 17 17 18 18 19 21 21 9 23 10 24 11 25
REMARK H PARENT 3 10 15 20 21 22 11 26
ROOT
ATOM      1  C   UNL     1       3.315  44.381  53.408  1.00  0.00     0.041 A 
ATOM      2  C   UNL     1       2.667  43.320  52.754  1.00  0.00     0.026 A 
ATOM      3  C   UNL     1       1.332  43.024  53.043  1.00  0.00     0.002 A 
ATOM      4  C   UNL     1       0.636  43.775  53.993  1.00  0.00     0.004 A 
ATOM      5  C   UNL     1       1.273  44.829  54.666  1.00  0.00    -0.044 A 
ATOM      6  C   UNL     1       2.618  45.115  54.380  1.00  0.00     0.030 A 
ENDROOT
BRANCH   1   7
ATOM      7  N   UNL     1       4.696  44.688  53.155  1.00  0.00    -0.322 N 
ATOM      8  O   UNL     1       4.337  46.046  51.276  1.00  0.00    -0.269 OA
ATOM      9  C   UNL     1       5.149  45.568  52.113  1.00  0.00     0.258 C 
ATOM     10  H   UNL     1       5.404  44.303  53.819  1.00  0.00     0.170 HD
BRANCH   9  11
ATOM     11  C   UNL     1       6.575  45.904  51.989  1.00  0.00     0.072 A 
ATOM     12  C   UNL     1       7.371  45.661  50.871  1.00  0.00     0.099 A 
ATOM     13  C   UNL     1       7.412  46.502  52.919  1.00  0.00     0.093 A 
ATOM     14  N   UNL     1       8.643  46.062  51.097  1.00  0.00    -0.345 N 
ATOM     15  C   UNL     1       7.214  47.065  54.179  1.00  0.00     0.224 A 
ATOM     16  C   UNL     1       8.647  46.567  52.340  1.00  0.00     0.145 A 
ATOM     17  N   UNL     1       8.294  47.613  54.811  1.00  0.00    -0.201 NA
ATOM     18  N   UNL     1       9.711  47.122  52.969  1.00  0.00    -0.218 NA
ATOM     19  C   UNL     1       9.531  47.636  54.222  1.00  0.00     0.228 A 
ATOM     20  H   UNL     1       9.449  46.003  50.436  1.00  0.00     0.167 HD
BRANCH  15  21
ATOM     21  O   UNL     1       5.958  47.103  54.775  1.00  0.00    -0.493 OA
ATOM     22  H   UNL     1       5.225  47.696  54.404  1.00  0.00     0.295 HD
ENDBRANCH  15  21
ENDBRANCH   9  11
ENDBRANCH   1   7
BRANCH   5  23
ATOM     23  C   UNL     1       0.535  45.611  55.721  1.00  0.00     0.063 C 
BRANCH  23  24
ATOM     24  C   UNL     1       0.991  45.214  57.126  1.00  0.00     0.161 C 
BRANCH  24  25
ATOM     25  O   UNL     1       1.690  46.272  57.722  1.00  0.00    -0.396 OA
ATOM     26  H   UNL     1       1.362  47.099  57.283  1.00  0.00     0.210 HD
ENDBRANCH  24  25
ENDBRANCH  23  24
ENDBRANCH   5  23
TORSDOF 6
ENDMDL
