ligand_93_conformer_5_docked
     RDKit          3D

 55 59  0  0  0  0  0  0  0  0999 V2000
   -3.2730   43.4390   56.4450 C   0  0  0  0  0  0  0  0  0  0  0  0
   -2.8170   44.8420   56.3510 N   0  0  0  0  0  0  0  0  0  0  0  0
   -1.4290   44.9410   56.8220 C   0  0  0  0  0  0  0  0  0  0  0  0
   -0.5210   44.6600   55.6290 C   0  0  0  0  0  0  0  0  0  0  0  0
   -1.3680   44.9600   54.3800 C   0  0  2  0  0  0  0  0  0  0  0  0
   -2.7410   45.3580   54.9650 C   0  0  1  0  0  0  0  0  0  0  0  0
   -3.9800   45.0820   54.0720 C   0  0  0  0  0  0  0  0  0  0  0  0
   -3.8830   43.7980   53.2430 C   0  0  0  0  0  0  0  0  0  0  0  0
   -2.5550   43.7440   52.5050 C   0  0  0  0  0  0  0  0  0  0  0  0
   -1.4480   43.8010   53.4660 N   0  0  0  0  0  0  0  0  0  0  0  0
   -0.2610   43.0490   53.1530 C   0  0  0  0  0  0  0  0  0  0  0  0
   -0.1670   41.8440   53.5180 O   0  0  0  0  0  0  0  0  0  0  0  0
    0.8390   43.6770   52.3370 C   0  0  2  0  0  0  0  0  0  0  0  0
    1.6140   42.6520   51.5010 C   0  0  0  0  0  0  0  0  0  0  0  0
    3.0190   43.2280   51.3730 C   0  0  0  0  0  0  0  0  0  0  0  0
    3.1410   44.1950   52.4590 N   0  0  0  0  0  0  0  0  0  0  0  0
    4.3830   44.8200   52.8350 C   0  0  0  0  0  0  0  0  0  0  0  0
    4.9540   44.5540   54.0900 C   0  0  0  0  0  0  0  0  0  0  0  0
    6.1630   45.1530   54.4610 C   0  0  0  0  0  0  0  0  0  0  0  0
    6.8190   46.0360   53.5880 C   0  0  0  0  0  0  0  0  0  0  0  0
    8.0860   46.6860   53.9840 C   0  0  0  0  0  0  0  0  0  0  0  0
    8.1910   47.6480   54.9260 N   0  0  0  0  0  0  0  0  0  0  0  0
    9.4770   47.9580   54.9520 N   0  0  0  0  0  0  0  0  0  0  0  0
   10.1200   47.2190   54.0630 N   0  0  0  0  0  0  0  0  0  0  0  0
    9.2860   46.4080   53.4350 N   0  0  0  0  0  0  0  0  0  0  0  0
    6.2460   46.3070   52.3340 C   0  0  0  0  0  0  0  0  0  0  0  0
    5.0410   45.7050   51.9580 C   0  0  0  0  0  0  0  0  0  0  0  0
    4.5050   46.0160   50.7510 F   0  0  0  0  0  0  0  0  0  0  0  0
    1.8970   44.3780   53.1880 C   0  0  0  0  0  0  0  0  0  0  0  0
   -3.3657   43.1537   57.5033 H   0  0  0  0  0  0  0  0  0  0  0  0
   -4.2505   43.3373   55.9508 H   0  0  0  0  0  0  0  0  0  0  0  0
   -2.5421   42.7820   55.9508 H   0  0  0  0  0  0  0  0  0  0  0  0
   -1.2355   45.9512   57.2120 H   0  0  0  0  0  0  0  0  0  0  0  0
   -1.2412   44.2199   57.6312 H   0  0  0  0  0  0  0  0  0  0  0  0
    0.3636   45.3132   55.6583 H   0  0  0  0  0  0  0  0  0  0  0  0
   -0.1566   43.6221   55.6322 H   0  0  0  0  0  0  0  0  0  0  0  0
   -0.9366   45.7528   53.7512 H   0  0  0  0  0  0  0  0  0  0  0  0
   -2.7960   46.4563   54.9905 H   0  0  0  0  0  0  0  0  0  0  0  0
   -4.8640   45.0068   54.7223 H   0  0  0  0  0  0  0  0  0  0  0  0
   -4.0463   45.9154   53.3572 H   0  0  0  0  0  0  0  0  0  0  0  0
   -3.9621   42.9280   53.9114 H   0  0  0  0  0  0  0  0  0  0  0  0
   -4.7011   43.7848   52.5078 H   0  0  0  0  0  0  0  0  0  0  0  0
   -2.4935   42.8066   51.9327 H   0  0  0  0  0  0  0  0  0  0  0  0
   -2.4855   44.6023   51.8206 H   0  0  0  0  0  0  0  0  0  0  0  0
    0.3017   44.3966   51.7018 H   0  0  0  0  0  0  0  0  0  0  0  0
    1.6406   41.6779   52.0113 H   0  0  0  0  0  0  0  0  0  0  0  0
    1.1467   42.4813   50.5199 H   0  0  0  0  0  0  0  0  0  0  0  0
    3.7720   42.4332   51.4788 H   0  0  0  0  0  0  0  0  0  0  0  0
    3.1826   43.6936   50.3899 H   0  0  0  0  0  0  0  0  0  0  0  0
    4.4473   43.8698   54.7865 H   0  0  0  0  0  0  0  0  0  0  0  0
    6.6030   44.9305   55.4443 H   0  0  0  0  0  0  0  0  0  0  0  0
   11.1470   47.2680   53.8820 H   0  0  0  0  0  0  0  0  0  0  0  0
    6.7494   46.9984   51.6423 H   0  0  0  0  0  0  0  0  0  0  0  0
    1.9605   43.9169   54.1847 H   0  0  0  0  0  0  0  0  0  0  0  0
    1.6628   45.4406   53.3494 H   0  0  0  0  0  0  0  0  0  0  0  0
  1  2  1  0
  2  3  1  0
  3  4  1  0
  4  5  1  0
  5  6  1  0
  6  7  1  0
  7  8  1  0
  8  9  1  0
  9 10  1  0
 10 11  1  0
 11 12  2  0
 11 13  1  0
 13 14  1  0
 14 15  1  0
 15 16  1  0
 16 17  1  0
 17 18  2  0
 18 19  1  0
 19 20  2  0
 20 21  1  0
 21 22  1  0
 22 23  2  0
 23 24  1  0
 24 25  1  0
 20 26  1  0
 26 27  2  0
 27 28  1  0
 16 29  1  0
  6  2  1  0
 29 13  1  0
 10  5  1  0
 27 17  1  0
 25 21  2  0
  1 30  1  0
  1 31  1  0
  1 32  1  0
  3 33  1  0
  3 34  1  0
  4 35  1  0
  4 36  1  0
  5 37  1  6
  6 38  1  1
  7 39  1  0
  7 40  1  0
  8 41  1  0
  8 42  1  0
  9 43  1  0
  9 44  1  0
 13 45  1  6
 14 46  1  0
 14 47  1  0
 15 48  1  0
 15 49  1  0
 18 50  1  0
 19 51  1  0
 24 52  1  0
 26 53  1  0
 29 54  1  0
 29 55  1  0
M  END
>  <meeko>  (1) 
{"is_sidechain": [false], "free_energy": -8.625, "intermolecular_energy": -10.642, "internal_energy": -0.675}

$$$$
ligand_93_conformer_5_docked
     RDKit          3D

 55 59  0  0  0  0  0  0  0  0999 V2000
   -2.7960   45.9920   51.1230 C   0  0  0  0  0  0  0  0  0  0  0  0
   -3.7100   44.8310   51.0760 N   0  0  0  0  0  0  0  0  0  0  0  0
   -3.1990   43.8400   50.1200 C   0  0  0  0  0  0  0  0  0  0  0  0
   -2.2320   42.9340   50.8750 C   0  0  0  0  0  0  0  0  0  0  0  0
   -2.6220   43.0510   52.3580 C   0  0  2  0  0  0  0  0  0  0  0  0
   -3.7820   44.0710   52.3440 C   0  0  1  0  0  0  0  0  0  0  0  0
   -3.9750   44.9180   53.6300 C   0  0  0  0  0  0  0  0  0  0  0  0
   -2.6670   45.3080   54.3270 C   0  0  0  0  0  0  0  0  0  0  0  0
   -1.7810   44.0860   54.5090 C   0  0  0  0  0  0  0  0  0  0  0  0
   -1.4890   43.4830   53.2040 N   0  0  0  0  0  0  0  0  0  0  0  0
   -0.1910   42.8860   53.0260 C   0  0  0  0  0  0  0  0  0  0  0  0
    0.0360   41.7310   53.4830 O   0  0  0  0  0  0  0  0  0  0  0  0
    0.8730   43.6100   52.2420 C   0  0  2  0  0  0  0  0  0  0  0  0
    1.6500   42.6790   51.3040 C   0  0  0  0  0  0  0  0  0  0  0  0
    3.0380   43.2990   51.1930 C   0  0  0  0  0  0  0  0  0  0  0  0
    3.1650   44.1730   52.3550 N   0  0  0  0  0  0  0  0  0  0  0  0
    4.4010   44.7940   52.7540 C   0  0  0  0  0  0  0  0  0  0  0  0
    4.9440   44.5330   54.0230 C   0  0  0  0  0  0  0  0  0  0  0  0
    6.1470   45.1280   54.4170 C   0  0  0  0  0  0  0  0  0  0  0  0
    6.8250   46.0040   53.5540 C   0  0  0  0  0  0  0  0  0  0  0  0
    8.0860   46.6510   53.9740 C   0  0  0  0  0  0  0  0  0  0  0  0
    8.1750   47.6140   54.9160 N   0  0  0  0  0  0  0  0  0  0  0  0
    9.4620   47.9210   54.9680 N   0  0  0  0  0  0  0  0  0  0  0  0
   10.1200   47.1780   54.0920 N   0  0  0  0  0  0  0  0  0  0  0  0
    9.2960   46.3680   53.4500 N   0  0  0  0  0  0  0  0  0  0  0  0
    6.2800   46.2710   52.2870 C   0  0  0  0  0  0  0  0  0  0  0  0
    5.0820   45.6730   51.8880 C   0  0  0  0  0  0  0  0  0  0  0  0
    4.5720   45.9800   50.6690 F   0  0  0  0  0  0  0  0  0  0  0  0
    1.9360   44.2610   53.1260 C   0  0  0  0  0  0  0  0  0  0  0  0
   -2.5897   46.2540   52.1712 H   0  0  0  0  0  0  0  0  0  0  0  0
   -1.8534   45.7373   50.6164 H   0  0  0  0  0  0  0  0  0  0  0  0
   -3.2648   46.8485   50.6164 H   0  0  0  0  0  0  0  0  0  0  0  0
   -4.0309   43.2461   49.7134 H   0  0  0  0  0  0  0  0  0  0  0  0
   -2.6906   44.3366   49.2804 H   0  0  0  0  0  0  0  0  0  0  0  0
   -2.3347   41.8937   50.5325 H   0  0  0  0  0  0  0  0  0  0  0  0
   -1.1855   43.2280   50.7065 H   0  0  0  0  0  0  0  0  0  0  0  0
   -2.9177   42.0876   52.7990 H   0  0  0  0  0  0  0  0  0  0  0  0
   -4.7288   43.5116   52.3706 H   0  0  0  0  0  0  0  0  0  0  0  0
   -4.5097   45.8402   53.3588 H   0  0  0  0  0  0  0  0  0  0  0  0
   -4.5371   44.2926   54.3392 H   0  0  0  0  0  0  0  0  0  0  0  0
   -2.1373   46.0522   53.7142 H   0  0  0  0  0  0  0  0  0  0  0  0
   -2.9006   45.7308   55.3153 H   0  0  0  0  0  0  0  0  0  0  0  0
   -0.8390   44.3868   54.9909 H   0  0  0  0  0  0  0  0  0  0  0  0
   -2.3026   43.3508   55.1394 H   0  0  0  0  0  0  0  0  0  0  0  0
    0.3041   44.3683   51.6840 H   0  0  0  0  0  0  0  0  0  0  0  0
    1.7119   41.6662   51.7287 H   0  0  0  0  0  0  0  0  0  0  0  0
    1.1622   42.5801   50.3231 H   0  0  0  0  0  0  0  0  0  0  0  0
    3.8116   42.5173   51.2128 H   0  0  0  0  0  0  0  0  0  0  0  0
    3.1659   43.8505   50.2499 H   0  0  0  0  0  0  0  0  0  0  0  0
    4.4190   43.8553   54.7123 H   0  0  0  0  0  0  0  0  0  0  0  0
    6.5651   44.9080   55.4104 H   0  0  0  0  0  0  0  0  0  0  0  0
   11.1510   47.2230   53.9320 H   0  0  0  0  0  0  0  0  0  0  0  0
    6.8011   46.9570   51.6030 H   0  0  0  0  0  0  0  0  0  0  0  0
    2.0354   43.7171   54.0769 H   0  0  0  0  0  0  0  0  0  0  0  0
    1.6817   45.2994   53.3848 H   0  0  0  0  0  0  0  0  0  0  0  0
  1  2  1  0
  2  3  1  0
  3  4  1  0
  4  5  1  0
  5  6  1  0
  6  7  1  0
  7  8  1  0
  8  9  1  0
  9 10  1  0
 10 11  1  0
 11 12  2  0
 11 13  1  0
 13 14  1  0
 14 15  1  0
 15 16  1  0
 16 17  1  0
 17 18  2  0
 18 19  1  0
 19 20  2  0
 20 21  1  0
 21 22  1  0
 22 23  2  0
 23 24  1  0
 24 25  1  0
 20 26  1  0
 26 27  2  0
 27 28  1  0
 16 29  1  0
  6  2  1  0
 29 13  1  0
 10  5  1  0
 27 17  1  0
 25 21  2  0
  1 30  1  0
  1 31  1  0
  1 32  1  0
  3 33  1  0
  3 34  1  0
  4 35  1  0
  4 36  1  0
  5 37  1  1
  6 38  1  6
  7 39  1  0
  7 40  1  0
  8 41  1  0
  8 42  1  0
  9 43  1  0
  9 44  1  0
 13 45  1  6
 14 46  1  0
 14 47  1  0
 15 48  1  0
 15 49  1  0
 18 50  1  0
 19 51  1  0
 24 52  1  0
 26 53  1  0
 29 54  1  0
 29 55  1  0
M  END
>  <meeko>  (2) 
{"is_sidechain": [false], "free_energy": -8.441, "intermolecular_energy": -10.337, "internal_energy": -0.753}

$$$$
ligand_93_conformer_5_docked
     RDKit          3D

 55 59  0  0  0  0  0  0  0  0999 V2000
    5.2780   47.5550   54.5790 C   0  0  0  0  0  0  0  0  0  0  0  0
    6.2090   46.5520   55.1360 N   0  0  0  0  0  0  0  0  0  0  0  0
    5.4660   45.3380   55.5000 C   0  0  0  0  0  0  0  0  0  0  0  0
    5.3990   44.4540   54.2590 C   0  0  0  0  0  0  0  0  0  0  0  0
    6.5710   44.8970   53.3670 C   0  0  2  0  0  0  0  0  0  0  0  0
    7.2100   46.0560   54.1650 C   0  0  1  0  0  0  0  0  0  0  0  0
    7.9450   47.1430   53.3360 C   0  0  0  0  0  0  0  0  0  0  0  0
    7.2870   47.4590   51.9900 C   0  0  0  0  0  0  0  0  0  0  0  0
    7.0040   46.1750   51.2260 C   0  0  0  0  0  0  0  0  0  0  0  0
    6.1260   45.3070   52.0180 N   0  0  0  0  0  0  0  0  0  0  0  0
    5.1690   44.5040   51.3020 C   0  0  0  0  0  0  0  0  0  0  0  0
    5.5550   43.4840   50.6680 O   0  0  0  0  0  0  0  0  0  0  0  0
    3.7010   44.8440   51.3640 C   0  0  2  0  0  0  0  0  0  0  0  0
    3.4510   46.3430   51.5600 C   0  0  0  0  0  0  0  0  0  0  0  0
    2.1300   46.4260   52.3160 C   0  0  0  0  0  0  0  0  0  0  0  0
    1.9490   45.1130   52.9260 N   0  0  0  0  0  0  0  0  0  0  0  0
    0.9320   44.8190   53.9020 C   0  0  0  0  0  0  0  0  0  0  0  0
   -0.2420   44.1510   53.5180 C   0  0  0  0  0  0  0  0  0  0  0  0
   -1.2320   43.8570   54.4630 C   0  0  0  0  0  0  0  0  0  0  0  0
   -1.0710   44.2350   55.8060 C   0  0  0  0  0  0  0  0  0  0  0  0
   -2.1240   43.9440   56.8010 C   0  0  0  0  0  0  0  0  0  0  0  0
   -2.4430   44.7510   57.8370 N   0  0  0  0  0  0  0  0  0  0  0  0
   -3.4080   44.1140   58.4790 N   0  0  0  0  0  0  0  0  0  0  0  0
   -3.6590   42.9710   57.8620 N   0  0  0  0  0  0  0  0  0  0  0  0
   -2.8770   42.8260   56.8060 N   0  0  0  0  0  0  0  0  0  0  0  0
    0.1000   44.9080   56.1890 C   0  0  0  0  0  0  0  0  0  0  0  0
    1.0940   45.1980   55.2500 C   0  0  0  0  0  0  0  0  0  0  0  0
    2.1970   45.8770   55.6540 F   0  0  0  0  0  0  0  0  0  0  0  0
    2.9730   44.1630   52.5220 C   0  0  0  0  0  0  0  0  0  0  0  0
    4.7810   48.0905   55.4013 H   0  0  0  0  0  0  0  0  0  0  0  0
    5.8382   48.2717   53.9605 H   0  0  0  0  0  0  0  0  0  0  0  0
    4.5217   47.0496   53.9605 H   0  0  0  0  0  0  0  0  0  0  0  0
    5.9864   44.8080   56.3113 H   0  0  0  0  0  0  0  0  0  0  0  0
    4.4548   45.5923   55.8503 H   0  0  0  0  0  0  0  0  0  0  0  0
    5.5074   43.3951   54.5364 H   0  0  0  0  0  0  0  0  0  0  0  0
    4.4341   44.5553   53.7406 H   0  0  0  0  0  0  0  0  0  0  0  0
    7.2847   44.0847   53.1649 H   0  0  0  0  0  0  0  0  0  0  0  0
    8.0731   45.6561   54.7175 H   0  0  0  0  0  0  0  0  0  0  0  0
    7.9755   48.0680   53.9305 H   0  0  0  0  0  0  0  0  0  0  0  0
    8.9463   46.7462   53.1124 H   0  0  0  0  0  0  0  0  0  0  0  0
    6.3414   47.9930   52.1649 H   0  0  0  0  0  0  0  0  0  0  0  0
    7.9694   48.0852   51.3966 H   0  0  0  0  0  0  0  0  0  0  0  0
    6.5127   46.4185   50.2724 H   0  0  0  0  0  0  0  0  0  0  0  0
    7.9521   45.6519   51.0324 H   0  0  0  0  0  0  0  0  0  0  0  0
    3.3180   44.4916   50.3949 H   0  0  0  0  0  0  0  0  0  0  0  0
    4.2624   46.7968   52.1480 H   0  0  0  0  0  0  0  0  0  0  0  0
    3.4148   46.8848   50.6034 H   0  0  0  0  0  0  0  0  0  0  0  0
    2.1778   47.2064   53.0897 H   0  0  0  0  0  0  0  0  0  0  0  0
    1.2937   46.6865   51.6506 H   0  0  0  0  0  0  0  0  0  0  0  0
   -0.3846   43.8568   52.4677 H   0  0  0  0  0  0  0  0  0  0  0  0
   -2.1433   43.3257   54.1512 H   0  0  0  0  0  0  0  0  0  0  0  0
   -4.3780   42.2770   58.1660 H   0  0  0  0  0  0  0  0  0  0  0  0
    0.2366   45.2099   57.2379 H   0  0  0  0  0  0  0  0  0  0  0  0
    3.6664   43.9640   53.3524 H   0  0  0  0  0  0  0  0  0  0  0  0
    2.5470   43.1915   52.2311 H   0  0  0  0  0  0  0  0  0  0  0  0
  1  2  1  0
  2  3  1  0
  3  4  1  0
  4  5  1  0
  5  6  1  0
  6  7  1  0
  7  8  1  0
  8  9  1  0
  9 10  1  0
 10 11  1  0
 11 12  2  0
 11 13  1  0
 13 14  1  0
 14 15  1  0
 15 16  1  0
 16 17  1  0
 17 18  2  0
 18 19  1  0
 19 20  2  0
 20 21  1  0
 21 22  1  0
 22 23  2  0
 23 24  1  0
 24 25  1  0
 20 26  1  0
 26 27  2  0
 27 28  1  0
 16 29  1  0
  6  2  1  0
 29 13  1  0
 10  5  1  0
 27 17  1  0
 25 21  2  0
  1 30  1  0
  1 31  1  0
  1 32  1  0
  3 33  1  0
  3 34  1  0
  4 35  1  0
  4 36  1  0
  5 37  1  6
  6 38  1  1
  7 39  1  0
  7 40  1  0
  8 41  1  0
  8 42  1  0
  9 43  1  0
  9 44  1  0
 13 45  1  6
 14 46  1  0
 14 47  1  0
 15 48  1  0
 15 49  1  0
 18 50  1  0
 19 51  1  0
 24 52  1  0
 26 53  1  0
 29 54  1  0
 29 55  1  0
M  END
>  <meeko>  (3) 
{"is_sidechain": [false], "free_energy": -8.42, "intermolecular_energy": -10.357, "internal_energy": -0.707}

$$$$
ligand_93_conformer_5_docked
     RDKit          3D

 55 59  0  0  0  0  0  0  0  0999 V2000
    9.4910   46.0680   53.5750 C   0  0  0  0  0  0  0  0  0  0  0  0
    9.8860   46.6700   52.2830 N   0  0  0  0  0  0  0  0  0  0  0  0
   10.3020   45.6120   51.3540 C   0  0  0  0  0  0  0  0  0  0  0  0
    9.0500   45.1170   50.6370 C   0  0  0  0  0  0  0  0  0  0  0  0
    8.0290   46.2630   50.7400 C   0  0  2  0  0  0  0  0  0  0  0  0
    8.7770   47.3350   51.5640 C   0  0  1  0  0  0  0  0  0  0  0  0
    7.8980   48.2920   52.4130 C   0  0  0  0  0  0  0  0  0  0  0  0
    6.6600   47.6300   53.0270 C   0  0  0  0  0  0  0  0  0  0  0  0
    5.8950   46.8540   51.9660 C   0  0  0  0  0  0  0  0  0  0  0  0
    6.7640   45.8320   51.3730 N   0  0  0  0  0  0  0  0  0  0  0  0
    6.1520   44.5890   50.9820 C   0  0  0  0  0  0  0  0  0  0  0  0
    6.3470   44.1310   49.8220 O   0  0  0  0  0  0  0  0  0  0  0  0
    5.3320   43.8040   51.9750 C   0  0  2  0  0  0  0  0  0  0  0  0
    4.3620   42.8290   51.2980 C   0  0  0  0  0  0  0  0  0  0  0  0
    3.1880   42.7100   52.2630 C   0  0  0  0  0  0  0  0  0  0  0  0
    3.2650   43.8910   53.1160 N   0  0  0  0  0  0  0  0  0  0  0  0
    2.2250   44.2840   54.0310 C   0  0  0  0  0  0  0  0  0  0  0  0
    0.8840   43.9760   53.7480 C   0  0  0  0  0  0  0  0  0  0  0  0
   -0.1320   44.3500   54.6350 C   0  0  0  0  0  0  0  0  0  0  0  0
    0.1730   45.0470   55.8160 C   0  0  0  0  0  0  0  0  0  0  0  0
   -0.8990   45.4610   56.7440 C   0  0  0  0  0  0  0  0  0  0  0  0
   -1.8120   44.6230   57.2830 N   0  0  0  0  0  0  0  0  0  0  0  0
   -2.5840   45.3970   58.0290 N   0  0  0  0  0  0  0  0  0  0  0  0
   -2.1600   46.6470   57.9410 N   0  0  0  0  0  0  0  0  0  0  0  0
   -1.1060   46.7310   57.1480 N   0  0  0  0  0  0  0  0  0  0  0  0
    1.5130   45.3600   56.0960 C   0  0  0  0  0  0  0  0  0  0  0  0
    2.5310   44.9830   55.2160 C   0  0  0  0  0  0  0  0  0  0  0  0
    3.8100   45.3310   55.5070 F   0  0  0  0  0  0  0  0  0  0  0  0
    4.4560   44.6860   52.8640 C   0  0  0  0  0  0  0  0  0  0  0  0
    9.8901   46.6762   54.4001 H   0  0  0  0  0  0  0  0  0  0  0  0
    8.3937   46.0328   53.6429 H   0  0  0  0  0  0  0  0  0  0  0  0
    9.8955   45.0473   53.6429 H   0  0  0  0  0  0  0  0  0  0  0  0
   11.0197   46.0137   50.6235 H   0  0  0  0  0  0  0  0  0  0  0  0
   10.7904   44.7888   51.8961 H   0  0  0  0  0  0  0  0  0  0  0  0
    9.2739   44.8967   49.5828 H   0  0  0  0  0  0  0  0  0  0  0  0
    8.6653   44.1897   51.0865 H   0  0  0  0  0  0  0  0  0  0  0  0
    7.7079   46.6394   49.7576 H   0  0  0  0  0  0  0  0  0  0  0  0
    9.1981   48.0722   50.8646 H   0  0  0  0  0  0  0  0  0  0  0  0
    8.5154   48.6935   53.2301 H   0  0  0  0  0  0  0  0  0  0  0  0
    7.5325   49.0737   51.7308 H   0  0  0  0  0  0  0  0  0  0  0  0
    6.9750   46.9406   53.8242 H   0  0  0  0  0  0  0  0  0  0  0  0
    6.0050   48.4109   53.4408 H   0  0  0  0  0  0  0  0  0  0  0  0
    5.0225   46.3682   52.4272 H   0  0  0  0  0  0  0  0  0  0  0  0
    5.5615   47.5471   51.1797 H   0  0  0  0  0  0  0  0  0  0  0  0
    6.0914   43.2748   52.5693 H   0  0  0  0  0  0  0  0  0  0  0  0
    4.0273   43.2267   50.3286 H   0  0  0  0  0  0  0  0  0  0  0  0
    4.8299   41.8548   51.0931 H   0  0  0  0  0  0  0  0  0  0  0  0
    2.2365   42.6954   51.7112 H   0  0  0  0  0  0  0  0  0  0  0  0
    3.2328   41.7797   52.8482 H   0  0  0  0  0  0  0  0  0  0  0  0
    0.6307   43.4372   52.8230 H   0  0  0  0  0  0  0  0  0  0  0  0
   -1.1775   44.0962   54.4056 H   0  0  0  0  0  0  0  0  0  0  0  0
   -2.5970   47.4570   58.4340 H   0  0  0  0  0  0  0  0  0  0  0  0
    1.7637   45.9071   57.0168 H   0  0  0  0  0  0  0  0  0  0  0  0
    4.1956   45.6210   52.3463 H   0  0  0  0  0  0  0  0  0  0  0  0
    4.9667   44.9759   53.7941 H   0  0  0  0  0  0  0  0  0  0  0  0
  1  2  1  0
  2  3  1  0
  3  4  1  0
  4  5  1  0
  5  6  1  0
  6  7  1  0
  7  8  1  0
  8  9  1  0
  9 10  1  0
 10 11  1  0
 11 12  2  0
 11 13  1  0
 13 14  1  0
 14 15  1  0
 15 16  1  0
 16 17  1  0
 17 18  2  0
 18 19  1  0
 19 20  2  0
 20 21  1  0
 21 22  1  0
 22 23  2  0
 23 24  1  0
 24 25  1  0
 20 26  1  0
 26 27  2  0
 27 28  1  0
 16 29  1  0
  6  2  1  0
 29 13  1  0
 10  5  1  0
 27 17  1  0
 25 21  2  0
  1 30  1  0
  1 31  1  0
  1 32  1  0
  3 33  1  0
  3 34  1  0
  4 35  1  0
  4 36  1  0
  5 37  1  6
  6 38  1  6
  7 39  1  0
  7 40  1  0
  8 41  1  0
  8 42  1  0
  9 43  1  0
  9 44  1  0
 13 45  1  1
 14 46  1  0
 14 47  1  0
 15 48  1  0
 15 49  1  0
 18 50  1  0
 19 51  1  0
 24 52  1  0
 26 53  1  0
 29 54  1  0
 29 55  1  0
M  END
>  <meeko>  (4) 
{"is_sidechain": [false], "free_energy": -7.956, "intermolecular_energy": -11.119, "internal_energy": 0.627}

$$$$
ligand_93_conformer_5_docked
     RDKit          3D

 55 59  0  0  0  0  0  0  0  0999 V2000
    3.1890   44.0520   53.8290 C   0  0  0  0  0  0  0  0  0  0  0  0
    3.4110   45.3230   54.5510 N   0  0  0  0  0  0  0  0  0  0  0  0
    4.7130   45.2840   55.2290 C   0  0  0  0  0  0  0  0  0  0  0  0
    5.7600   45.7720   54.2320 C   0  0  0  0  0  0  0  0  0  0  0  0
    4.9920   46.6120   53.1980 C   0  0  2  0  0  0  0  0  0  0  0  0
    3.5250   46.5050   53.6680 C   0  0  1  0  0  0  0  0  0  0  0  0
    2.4350   46.6360   52.5690 C   0  0  0  0  0  0  0  0  0  0  0  0
    2.8200   46.0110   51.2250 C   0  0  0  0  0  0  0  0  0  0  0  0
    4.2000   46.4850   50.7980 C   0  0  0  0  0  0  0  0  0  0  0  0
    5.1900   46.1210   51.8180 N   0  0  0  0  0  0  0  0  0  0  0  0
    6.5100   45.7680   51.3630 C   0  0  0  0  0  0  0  0  0  0  0  0
    7.4380   46.6230   51.4060 O   0  0  0  0  0  0  0  0  0  0  0  0
    6.7980   44.3640   50.8970 C   0  0  2  0  0  0  0  0  0  0  0  0
    7.7710   44.3230   49.7130 C   0  0  0  0  0  0  0  0  0  0  0  0
    7.3910   43.0700   48.9330 C   0  0  0  0  0  0  0  0  0  0  0  0
    6.0280   42.7550   49.3470 N   0  0  0  0  0  0  0  0  0  0  0  0
    5.2050   41.7670   48.6980 C   0  0  0  0  0  0  0  0  0  0  0  0
    5.2260   41.6410   47.2990 C   0  0  0  0  0  0  0  0  0  0  0  0
    4.4340   40.6800   46.6610 C   0  0  0  0  0  0  0  0  0  0  0  0
    3.5980   39.8340   47.4090 C   0  0  0  0  0  0  0  0  0  0  0  0
    2.7450   38.8320   46.7380 C   0  0  0  0  0  0  0  0  0  0  0  0
    3.0710   37.5310   46.5810 N   0  0  0  0  0  0  0  0  0  0  0  0
    2.0520   37.0030   45.9210 N   0  0  0  0  0  0  0  0  0  0  0  0
    1.1530   37.9440   45.6870 N   0  0  0  0  0  0  0  0  0  0  0  0
    1.5470   39.1050   46.1830 N   0  0  0  0  0  0  0  0  0  0  0  0
    3.5720   39.9640   48.8080 C   0  0  0  0  0  0  0  0  0  0  0  0
    4.3670   40.9190   49.4480 C   0  0  0  0  0  0  0  0  0  0  0  0
    4.2900   41.0340   50.7980 F   0  0  0  0  0  0  0  0  0  0  0  0
    5.5530   43.6210   50.4140 C   0  0  0  0  0  0  0  0  0  0  0  0
    3.0468   43.2379   54.5550 H   0  0  0  0  0  0  0  0  0  0  0  0
    2.2928   44.1408   53.1974 H   0  0  0  0  0  0  0  0  0  0  0  0
    4.0623   43.8317   53.1974 H   0  0  0  0  0  0  0  0  0  0  0  0
    4.6979   45.9415   56.1107 H   0  0  0  0  0  0  0  0  0  0  0  0
    4.9446   44.2635   55.5679 H   0  0  0  0  0  0  0  0  0  0  0  0
    6.5161   46.3879   54.7408 H   0  0  0  0  0  0  0  0  0  0  0  0
    6.2915   44.9331   53.7589 H   0  0  0  0  0  0  0  0  0  0  0  0
    5.3402   47.6543   53.1506 H   0  0  0  0  0  0  0  0  0  0  0  0
    3.2853   47.4078   54.2489 H   0  0  0  0  0  0  0  0  0  0  0  0
    1.5205   46.1424   52.9296 H   0  0  0  0  0  0  0  0  0  0  0  0
    2.2958   47.7122   52.3887 H   0  0  0  0  0  0  0  0  0  0  0  0
    2.8270   44.9154   51.3231 H   0  0  0  0  0  0  0  0  0  0  0  0
    2.0859   46.3169   50.4651 H   0  0  0  0  0  0  0  0  0  0  0  0
    4.4692   46.0109   49.8426 H   0  0  0  0  0  0  0  0  0  0  0  0
    4.1870   47.5785   50.6794 H   0  0  0  0  0  0  0  0  0  0  0  0
    7.2236   43.8839   51.7905 H   0  0  0  0  0  0  0  0  0  0  0  0
    7.6545   45.2190   49.0857 H   0  0  0  0  0  0  0  0  0  0  0  0
    8.8206   44.3027   50.0414 H   0  0  0  0  0  0  0  0  0  0  0  0
    7.4296   43.2637   47.8509 H   0  0  0  0  0  0  0  0  0  0  0  0
    8.0822   42.2380   49.1331 H   0  0  0  0  0  0  0  0  0  0  0  0
    5.8697   42.3026   46.7008 H   0  0  0  0  0  0  0  0  0  0  0  0
    4.4661   40.5861   45.5655 H   0  0  0  0  0  0  0  0  0  0  0  0
    0.2520   37.7920   45.1810 H   0  0  0  0  0  0  0  0  0  0  0  0
    2.9204   39.3086   49.4045 H   0  0  0  0  0  0  0  0  0  0  0  0
    4.8024   44.3292   50.0331 H   0  0  0  0  0  0  0  0  0  0  0  0
    5.0671   43.0553   51.2227 H   0  0  0  0  0  0  0  0  0  0  0  0
  1  2  1  0
  2  3  1  0
  3  4  1  0
  4  5  1  0
  5  6  1  0
  6  7  1  0
  7  8  1  0
  8  9  1  0
  9 10  1  0
 10 11  1  0
 11 12  2  0
 11 13  1  0
 13 14  1  0
 14 15  1  0
 15 16  1  0
 16 17  1  0
 17 18  2  0
 18 19  1  0
 19 20  2  0
 20 21  1  0
 21 22  1  0
 22 23  2  0
 23 24  1  0
 24 25  1  0
 20 26  1  0
 26 27  2  0
 27 28  1  0
 16 29  1  0
  6  2  1  0
 29 13  1  0
 10  5  1  0
 27 17  1  0
 25 21  2  0
  1 30  1  0
  1 31  1  0
  1 32  1  0
  3 33  1  0
  3 34  1  0
  4 35  1  0
  4 36  1  0
  5 37  1  6
  6 38  1  1
  7 39  1  0
  7 40  1  0
  8 41  1  0
  8 42  1  0
  9 43  1  0
  9 44  1  0
 13 45  1  1
 14 46  1  0
 14 47  1  0
 15 48  1  0
 15 49  1  0
 18 50  1  0
 19 51  1  0
 24 52  1  0
 26 53  1  0
 29 54  1  0
 29 55  1  0
M  END
>  <meeko>  (5) 
{"is_sidechain": [false], "free_energy": -7.779, "intermolecular_energy": -9.817, "internal_energy": -0.456}

$$$$
