ligand_25_conformer_5_docked
     RDKit          3D

 34 35  0  0  0  0  0  0  0  0999 V2000
   10.0890   47.7120   54.9990 N   0  0  0  0  0  0  0  0  0  0  0  0
    9.0130   47.1850   54.2230 C   0  0  0  0  0  0  0  0  0  0  0  0
    9.2430   46.6840   52.9390 C   0  0  0  0  0  0  0  0  0  0  0  0
    8.1750   46.1730   52.1990 C   0  0  0  0  0  0  0  0  0  0  0  0
    6.8790   46.1680   52.7400 C   0  0  0  0  0  0  0  0  0  0  0  0
    5.7280   45.6260   51.9780 C   0  0  0  0  0  0  0  0  0  0  0  0
    5.5110   46.0360   50.8050 O   0  0  0  0  0  0  0  0  0  0  0  0
    4.8850   44.6060   52.5420 N   0  0  0  0  0  0  0  0  0  0  0  0
    3.5660   44.3080   52.0490 C   0  0  0  0  0  0  0  0  0  0  0  0
    2.5340   45.2600   52.1430 C   0  0  0  0  0  0  0  0  0  0  0  0
    1.2500   44.9600   51.6870 C   0  0  0  0  0  0  0  0  0  0  0  0
    0.9760   43.7050   51.1420 C   0  0  0  0  0  0  0  0  0  0  0  0
   -0.6420   43.3330   50.5750 Cl  0  0  0  0  0  0  0  0  0  0  0  0
    1.9850   42.7440   51.0570 C   0  0  0  0  0  0  0  0  0  0  0  0
    3.2900   43.0340   51.5080 C   0  0  0  0  0  0  0  0  0  0  0  0
    4.3360   42.0960   51.4420 O   0  0  0  0  0  0  0  0  0  0  0  0
    4.6590   41.2670   50.3230 C   0  0  0  0  0  0  0  0  0  0  0  0
    5.9460   41.7360   49.6450 C   0  0  0  0  0  0  0  0  0  0  0  0
    7.0270   41.0540   50.1730 F   0  0  0  0  0  0  0  0  0  0  0  0
    5.8720   41.4780   48.2880 F   0  0  0  0  0  0  0  0  0  0  0  0
    6.1320   43.0930   49.8330 F   0  0  0  0  0  0  0  0  0  0  0  0
    6.6980   46.6730   54.0400 C   0  0  0  0  0  0  0  0  0  0  0  0
    7.7550   47.1650   54.7390 N   0  0  0  0  0  0  0  0  0  0  0  0
   11.0110   47.2230   55.0220 H   0  0  0  0  0  0  0  0  0  0  0  0
    9.9730   48.5920   55.5520 H   0  0  0  0  0  0  0  0  0  0  0  0
   10.2577   46.6921   52.5145 H   0  0  0  0  0  0  0  0  0  0  0  0
    8.3492   45.7731   51.1892 H   0  0  0  0  0  0  0  0  0  0  0  0
    5.2910   43.9840   53.2750 H   0  0  0  0  0  0  0  0  0  0  0  0
    2.7412   46.2483   52.5793 H   0  0  0  0  0  0  0  0  0  0  0  0
    0.4523   45.7141   51.7572 H   0  0  0  0  0  0  0  0  0  0  0  0
    1.7609   41.7531   50.6352 H   0  0  0  0  0  0  0  0  0  0  0  0
    4.7921   40.2315   50.6694 H   0  0  0  0  0  0  0  0  0  0  0  0
    3.8375   41.3279   49.5940 H   0  0  0  0  0  0  0  0  0  0  0  0
    5.6959   46.6699   54.4936 H   0  0  0  0  0  0  0  0  0  0  0  0
  1  2  1  0
  2  3  2  0
  3  4  1  0
  4  5  2  0
  5  6  1  0
  6  7  2  0
  6  8  1  0
  8  9  1  0
  9 10  2  0
 10 11  1  0
 11 12  2  0
 12 13  1  0
 12 14  1  0
 14 15  2  0
 15 16  1  0
 16 17  1  0
 17 18  1  0
 18 19  1  0
 18 20  1  0
 18 21  1  0
  5 22  1  0
 22 23  2  0
 23  2  1  0
 15  9  1  0
  1 24  1  0
  1 25  1  0
  3 26  1  0
  4 27  1  0
  8 28  1  0
 10 29  1  0
 11 30  1  0
 14 31  1  0
 17 32  1  0
 17 33  1  0
 22 34  1  0
M  END
>  <meeko>  (1) 
{"is_sidechain": [false], "free_energy": -8.103, "intermolecular_energy": -10.708, "internal_energy": -0.837}

$$$$
ligand_25_conformer_5_docked
     RDKit          3D

 34 35  0  0  0  0  0  0  0  0999 V2000
   -0.9900   44.8070   56.7400 N   0  0  0  0  0  0  0  0  0  0  0  0
    0.0700   45.0030   55.8030 C   0  0  0  0  0  0  0  0  0  0  0  0
    1.3610   45.3050   56.2450 C   0  0  0  0  0  0  0  0  0  0  0  0
    2.3810   45.4930   55.3100 C   0  0  0  0  0  0  0  0  0  0  0  0
    2.1090   45.3840   53.9360 C   0  0  0  0  0  0  0  0  0  0  0  0
    3.1750   45.5710   52.9230 C   0  0  0  0  0  0  0  0  0  0  0  0
    2.9480   46.2870   51.9090 O   0  0  0  0  0  0  0  0  0  0  0  0
    4.4760   44.9870   53.1030 N   0  0  0  0  0  0  0  0  0  0  0  0
    5.4160   44.7990   52.0290 C   0  0  0  0  0  0  0  0  0  0  0  0
    5.3000   43.6980   51.1610 C   0  0  0  0  0  0  0  0  0  0  0  0
    6.2260   43.5040   50.1350 C   0  0  0  0  0  0  0  0  0  0  0  0
    7.2840   44.3980   49.9690 C   0  0  0  0  0  0  0  0  0  0  0  0
    8.4480   44.1470   48.6810 Cl  0  0  0  0  0  0  0  0  0  0  0  0
    7.4220   45.4870   50.8340 C   0  0  0  0  0  0  0  0  0  0  0  0
    6.4900   45.7000   51.8710 C   0  0  0  0  0  0  0  0  0  0  0  0
    6.5910   46.7820   52.7630 O   0  0  0  0  0  0  0  0  0  0  0  0
    7.5480   46.9250   53.8160 C   0  0  0  0  0  0  0  0  0  0  0  0
    8.7050   47.8270   53.3880 C   0  0  0  0  0  0  0  0  0  0  0  0
    8.2630   48.7410   52.4490 F   0  0  0  0  0  0  0  0  0  0  0  0
    9.1850   48.5120   54.4900 F   0  0  0  0  0  0  0  0  0  0  0  0
    9.7330   47.0800   52.8440 F   0  0  0  0  0  0  0  0  0  0  0  0
    0.7970   45.0670   53.5400 C   0  0  0  0  0  0  0  0  0  0  0  0
   -0.1780   44.8900   54.4710 N   0  0  0  0  0  0  0  0  0  0  0  0
   -1.7900   44.1780   56.5050 H   0  0  0  0  0  0  0  0  0  0  0  0
   -0.9800   45.2840   57.6700 H   0  0  0  0  0  0  0  0  0  0  0  0
    1.5720   45.3939   57.3209 H   0  0  0  0  0  0  0  0  0  0  0  0
    3.4005   45.7271   55.6503 H   0  0  0  0  0  0  0  0  0  0  0  0
    4.7920   44.7860   54.0780 H   0  0  0  0  0  0  0  0  0  0  0  0
    4.4731   42.9845   51.2920 H   0  0  0  0  0  0  0  0  0  0  0  0
    6.1214   42.6448   49.4561 H   0  0  0  0  0  0  0  0  0  0  0  0
    8.2638   46.1832   50.7051 H   0  0  0  0  0  0  0  0  0  0  0  0
    7.0534   47.3669   54.6936 H   0  0  0  0  0  0  0  0  0  0  0  0
    7.9511   45.9309   54.0596 H   0  0  0  0  0  0  0  0  0  0  0  0
    0.5585   44.9617   52.4713 H   0  0  0  0  0  0  0  0  0  0  0  0
  1  2  1  0
  2  3  2  0
  3  4  1  0
  4  5  2  0
  5  6  1  0
  6  7  2  0
  6  8  1  0
  8  9  1  0
  9 10  2  0
 10 11  1  0
 11 12  2  0
 12 13  1  0
 12 14  1  0
 14 15  2  0
 15 16  1  0
 16 17  1  0
 17 18  1  0
 18 19  1  0
 18 20  1  0
 18 21  1  0
  5 22  1  0
 22 23  2  0
 23  2  1  0
 15  9  1  0
  1 24  1  0
  1 25  1  0
  3 26  1  0
  4 27  1  0
  8 28  1  0
 10 29  1  0
 11 30  1  0
 14 31  1  0
 17 32  1  0
 17 33  1  0
 22 34  1  0
M  END
>  <meeko>  (2) 
{"is_sidechain": [false], "free_energy": -8.045, "intermolecular_energy": -10.64, "internal_energy": -0.828}

$$$$
ligand_25_conformer_5_docked
     RDKit          3D

 34 35  0  0  0  0  0  0  0  0999 V2000
   -2.0830   44.7130   53.2110 N   0  0  0  0  0  0  0  0  0  0  0  0
   -0.6650   44.6520   53.0550 C   0  0  0  0  0  0  0  0  0  0  0  0
    0.0680   43.6140   53.6380 C   0  0  0  0  0  0  0  0  0  0  0  0
    1.4550   43.5750   53.4720 C   0  0  0  0  0  0  0  0  0  0  0  0
    2.1060   44.5750   52.7300 C   0  0  0  0  0  0  0  0  0  0  0  0
    3.5750   44.5530   52.5330 C   0  0  0  0  0  0  0  0  0  0  0  0
    4.2700   43.6890   53.1350 O   0  0  0  0  0  0  0  0  0  0  0  0
    4.2130   45.4730   51.6310 N   0  0  0  0  0  0  0  0  0  0  0  0
    5.6210   45.7710   51.6670 C   0  0  0  0  0  0  0  0  0  0  0  0
    6.1150   46.7890   52.5030 C   0  0  0  0  0  0  0  0  0  0  0  0
    7.4770   47.0930   52.5190 C   0  0  0  0  0  0  0  0  0  0  0  0
    8.3600   46.3950   51.6940 C   0  0  0  0  0  0  0  0  0  0  0  0
   10.0700   46.7850   51.7150 Cl  0  0  0  0  0  0  0  0  0  0  0  0
    7.8810   45.3930   50.8460 C   0  0  0  0  0  0  0  0  0  0  0  0
    6.5080   45.0700   50.8240 C   0  0  0  0  0  0  0  0  0  0  0  0
    5.9840   44.0700   49.9850 O   0  0  0  0  0  0  0  0  0  0  0  0
    6.7220   43.0180   49.3610 C   0  0  0  0  0  0  0  0  0  0  0  0
    6.2120   41.6480   49.8060 C   0  0  0  0  0  0  0  0  0  0  0  0
    5.5620   41.0260   48.7550 F   0  0  0  0  0  0  0  0  0  0  0  0
    7.2810   40.8640   50.1990 F   0  0  0  0  0  0  0  0  0  0  0  0
    5.3360   41.7740   50.8680 F   0  0  0  0  0  0  0  0  0  0  0  0
    1.3250   45.5920   52.1550 C   0  0  0  0  0  0  0  0  0  0  0  0
   -0.0230   45.6070   52.3320 N   0  0  0  0  0  0  0  0  0  0  0  0
   -2.5590   45.6340   53.3310 H   0  0  0  0  0  0  0  0  0  0  0  0
   -2.6620   43.8440   53.2040 H   0  0  0  0  0  0  0  0  0  0  0  0
   -0.4428   42.8346   54.2225 H   0  0  0  0  0  0  0  0  0  0  0  0
    2.0387   42.7592   53.9234 H   0  0  0  0  0  0  0  0  0  0  0  0
    3.6450   45.8630   50.8460 H   0  0  0  0  0  0  0  0  0  0  0  0
    5.4228   47.3494   53.1486 H   0  0  0  0  0  0  0  0  0  0  0  0
    7.8552   47.8842   53.1831 H   0  0  0  0  0  0  0  0  0  0  0  0
    8.5797   44.8521   50.1908 H   0  0  0  0  0  0  0  0  0  0  0  0
    6.6160   43.1034   48.2695 H   0  0  0  0  0  0  0  0  0  0  0  0
    7.7778   43.1100   49.6557 H   0  0  0  0  0  0  0  0  0  0  0  0
    1.8070   46.3804   51.5583 H   0  0  0  0  0  0  0  0  0  0  0  0
  1  2  1  0
  2  3  2  0
  3  4  1  0
  4  5  2  0
  5  6  1  0
  6  7  2  0
  6  8  1  0
  8  9  1  0
  9 10  2  0
 10 11  1  0
 11 12  2  0
 12 13  1  0
 12 14  1  0
 14 15  2  0
 15 16  1  0
 16 17  1  0
 17 18  1  0
 18 19  1  0
 18 20  1  0
 18 21  1  0
  5 22  1  0
 22 23  2  0
 23  2  1  0
 15  9  1  0
  1 24  1  0
  1 25  1  0
  3 26  1  0
  4 27  1  0
  8 28  1  0
 10 29  1  0
 11 30  1  0
 14 31  1  0
 17 32  1  0
 17 33  1  0
 22 34  1  0
M  END
>  <meeko>  (3) 
{"is_sidechain": [false], "free_energy": -7.795, "intermolecular_energy": -10.333, "internal_energy": -0.805}

$$$$
ligand_25_conformer_5_docked
     RDKit          3D

 34 35  0  0  0  0  0  0  0  0999 V2000
    6.8390   41.2150   49.4920 N   0  0  0  0  0  0  0  0  0  0  0  0
    5.7840   41.8920   50.1770 C   0  0  0  0  0  0  0  0  0  0  0  0
    5.8670   43.2650   50.4260 C   0  0  0  0  0  0  0  0  0  0  0  0
    4.8230   43.9060   51.0970 C   0  0  0  0  0  0  0  0  0  0  0  0
    3.7020   43.1740   51.5230 C   0  0  0  0  0  0  0  0  0  0  0  0
    2.5770   43.8310   52.2310 C   0  0  0  0  0  0  0  0  0  0  0  0
    2.0340   44.8490   51.7230 O   0  0  0  0  0  0  0  0  0  0  0  0
    2.0690   43.2960   53.4650 N   0  0  0  0  0  0  0  0  0  0  0  0
    1.2670   44.0560   54.3870 C   0  0  0  0  0  0  0  0  0  0  0  0
   -0.1380   44.0000   54.3290 C   0  0  0  0  0  0  0  0  0  0  0  0
   -0.9140   44.7560   55.2080 C   0  0  0  0  0  0  0  0  0  0  0  0
   -0.3010   45.5860   56.1460 C   0  0  0  0  0  0  0  0  0  0  0  0
   -1.2830   46.5380   57.2450 Cl  0  0  0  0  0  0  0  0  0  0  0  0
    1.0930   45.6660   56.2060 C   0  0  0  0  0  0  0  0  0  0  0  0
    1.8910   44.9020   55.3280 C   0  0  0  0  0  0  0  0  0  0  0  0
    3.2960   44.9530   55.3530 O   0  0  0  0  0  0  0  0  0  0  0  0
    4.1140   46.0080   54.8430 C   0  0  0  0  0  0  0  0  0  0  0  0
    5.5970   45.6660   54.9720 C   0  0  0  0  0  0  0  0  0  0  0  0
    5.8090   44.9350   56.1270 F   0  0  0  0  0  0  0  0  0  0  0  0
    5.9920   44.9090   53.8840 F   0  0  0  0  0  0  0  0  0  0  0  0
    6.3630   46.8160   55.0180 F   0  0  0  0  0  0  0  0  0  0  0  0
    3.6600   41.7970   51.2400 C   0  0  0  0  0  0  0  0  0  0  0  0
    4.6890   41.1980   50.5860 N   0  0  0  0  0  0  0  0  0  0  0  0
    7.2480   40.3420   49.8910 H   0  0  0  0  0  0  0  0  0  0  0  0
    7.2120   41.5790   48.5870 H   0  0  0  0  0  0  0  0  0  0  0  0
    6.7474   43.8361   50.0962 H   0  0  0  0  0  0  0  0  0  0  0  0
    4.8787   44.9871   51.2925 H   0  0  0  0  0  0  0  0  0  0  0  0
    2.2020   42.2770   53.6490 H   0  0  0  0  0  0  0  0  0  0  0  0
   -0.6282   43.3551   53.5848 H   0  0  0  0  0  0  0  0  0  0  0  0
   -2.0114   44.6972   55.1610 H   0  0  0  0  0  0  0  0  0  0  0  0
    1.5712   46.3287   56.9423 H   0  0  0  0  0  0  0  0  0  0  0  0
    3.8733   46.1681   53.7817 H   0  0  0  0  0  0  0  0  0  0  0  0
    3.9136   46.9185   55.4267 H   0  0  0  0  0  0  0  0  0  0  0  0
    2.7887   41.2015   51.5501 H   0  0  0  0  0  0  0  0  0  0  0  0
  1  2  1  0
  2  3  2  0
  3  4  1  0
  4  5  2  0
  5  6  1  0
  6  7  2  0
  6  8  1  0
  8  9  1  0
  9 10  2  0
 10 11  1  0
 11 12  2  0
 12 13  1  0
 12 14  1  0
 14 15  2  0
 15 16  1  0
 16 17  1  0
 17 18  1  0
 18 19  1  0
 18 20  1  0
 18 21  1  0
  5 22  1  0
 22 23  2  0
 23  2  1  0
 15  9  1  0
  1 24  1  0
  1 25  1  0
  3 26  1  0
  4 27  1  0
  8 28  1  0
 10 29  1  0
 11 30  1  0
 14 31  1  0
 17 32  1  0
 17 33  1  0
 22 34  1  0
M  END
>  <meeko>  (4) 
{"is_sidechain": [false], "free_energy": -7.688, "intermolecular_energy": -10.123, "internal_energy": -0.873}

$$$$
ligand_25_conformer_5_docked
     RDKit          3D

 34 35  0  0  0  0  0  0  0  0999 V2000
    9.8900   47.3750   53.5390 N   0  0  0  0  0  0  0  0  0  0  0  0
    8.4830   47.1340   53.4810 C   0  0  0  0  0  0  0  0  0  0  0  0
    7.8540   46.8970   52.2550 C   0  0  0  0  0  0  0  0  0  0  0  0
    6.4780   46.6650   52.2230 C   0  0  0  0  0  0  0  0  0  0  0  0
    5.7320   46.6750   53.4130 C   0  0  0  0  0  0  0  0  0  0  0  0
    4.2700   46.4240   53.4070 C   0  0  0  0  0  0  0  0  0  0  0  0
    3.4820   47.3560   53.0870 O   0  0  0  0  0  0  0  0  0  0  0  0
    3.7430   45.1230   53.7180 N   0  0  0  0  0  0  0  0  0  0  0  0
    2.3750   44.8940   54.1020 C   0  0  0  0  0  0  0  0  0  0  0  0
    1.9550   45.1180   55.4260 C   0  0  0  0  0  0  0  0  0  0  0  0
    0.6340   44.8730   55.8020 C   0  0  0  0  0  0  0  0  0  0  0  0
   -0.2810   44.3890   54.8670 C   0  0  0  0  0  0  0  0  0  0  0  0
   -1.9390   44.0770   55.3460 Cl  0  0  0  0  0  0  0  0  0  0  0  0
    0.1250   44.1440   53.5520 C   0  0  0  0  0  0  0  0  0  0  0  0
    1.4550   44.3940   53.1560 C   0  0  0  0  0  0  0  0  0  0  0  0
    1.9060   44.1620   51.8440 O   0  0  0  0  0  0  0  0  0  0  0  0
    2.0870   42.8860   51.2250 C   0  0  0  0  0  0  0  0  0  0  0  0
    3.5360   42.4180   51.3470 C   0  0  0  0  0  0  0  0  0  0  0  0
    3.7460   41.3280   50.5210 F   0  0  0  0  0  0  0  0  0  0  0  0
    4.3850   43.4400   50.9630 F   0  0  0  0  0  0  0  0  0  0  0  0
    3.8280   42.0610   52.6500 F   0  0  0  0  0  0  0  0  0  0  0  0
    6.4100   46.9070   54.6220 C   0  0  0  0  0  0  0  0  0  0  0  0
    7.7510   47.1320   54.6260 N   0  0  0  0  0  0  0  0  0  0  0  0
   10.5470   46.5970   53.7710 H   0  0  0  0  0  0  0  0  0  0  0  0
   10.2810   48.3250   53.3490 H   0  0  0  0  0  0  0  0  0  0  0  0
    8.4388   46.8934   51.3233 H   0  0  0  0  0  0  0  0  0  0  0  0
    5.9763   46.4738   51.2629 H   0  0  0  0  0  0  0  0  0  0  0  0
    4.3570   44.2940   53.5560 H   0  0  0  0  0  0  0  0  0  0  0  0
    2.6742   45.4894   56.1709 H   0  0  0  0  0  0  0  0  0  0  0  0
    0.3136   45.0618   56.8372 H   0  0  0  0  0  0  0  0  0  0  0  0
   -0.5982   43.7534   52.8210 H   0  0  0  0  0  0  0  0  0  0  0  0
    1.4298   42.1523   51.7147 H   0  0  0  0  0  0  0  0  0  0  0  0
    1.8369   42.9761   50.1576 H   0  0  0  0  0  0  0  0  0  0  0  0
    5.8527   46.9066   55.5704 H   0  0  0  0  0  0  0  0  0  0  0  0
  1  2  1  0
  2  3  2  0
  3  4  1  0
  4  5  2  0
  5  6  1  0
  6  7  2  0
  6  8  1  0
  8  9  1  0
  9 10  2  0
 10 11  1  0
 11 12  2  0
 12 13  1  0
 12 14  1  0
 14 15  2  0
 15 16  1  0
 16 17  1  0
 17 18  1  0
 18 19  1  0
 18 20  1  0
 18 21  1  0
  5 22  1  0
 22 23  2  0
 23  2  1  0
 15  9  1  0
  1 24  1  0
  1 25  1  0
  3 26  1  0
  4 27  1  0
  8 28  1  0
 10 29  1  0
 11 30  1  0
 14 31  1  0
 17 32  1  0
 17 33  1  0
 22 34  1  0
M  END
>  <meeko>  (5) 
{"is_sidechain": [false], "free_energy": -7.461, "intermolecular_energy": -9.705, "internal_energy": -0.993}

$$$$
