ligand_61_conformer_5_docked
     RDKit          3D

 41 44  0  0  0  0  0  0  0  0999 V2000
    1.0630   45.3810   52.7710 O   0  0  0  0  0  0  0  0  0  0  0  0
    1.4110   44.8410   53.8560 C   0  0  0  0  0  0  0  0  0  0  0  0
    2.4110   43.8080   53.8500 N   0  0  0  0  0  0  0  0  0  0  0  0
    3.3890   43.6520   52.8080 C   0  0  0  0  0  0  0  0  0  0  0  0
    3.2440   42.6130   51.8780 C   0  0  0  0  0  0  0  0  0  0  0  0
    4.1880   42.4350   50.8640 C   0  0  0  0  0  0  0  0  0  0  0  0
    5.2950   43.2800   50.7800 C   0  0  0  0  0  0  0  0  0  0  0  0
    5.4790   44.3070   51.7210 C   0  0  0  0  0  0  0  0  0  0  0  0
    6.6670   45.1880   51.6310 C   0  0  0  0  0  0  0  0  0  0  0  0
    7.4360   45.3230   50.5260 N   0  0  0  0  0  0  0  0  0  0  0  0
    8.4340   46.1630   50.7670 N   0  0  0  0  0  0  0  0  0  0  0  0
    8.2960   46.5790   52.0410 C   0  0  0  0  0  0  0  0  0  0  0  0
    7.2190   45.9770   52.6240 C   0  0  0  0  0  0  0  0  0  0  0  0
    6.8640   46.2220   54.0590 C   0  0  0  0  0  0  0  0  0  0  0  0
    8.0030   46.6790   54.7820 O   0  0  0  0  0  0  0  0  0  0  0  0
    8.5790   47.8220   54.1550 C   0  0  0  0  0  0  0  0  0  0  0  0
    9.2340   47.4520   52.8050 C   0  0  0  0  0  0  0  0  0  0  0  0
    4.5190   44.4880   52.7320 C   0  0  0  0  0  0  0  0  0  0  0  0
    0.7470   45.2480   55.1180 C   0  0  0  0  0  0  0  0  0  0  0  0
   -0.6540   45.2100   55.2310 C   0  0  0  0  0  0  0  0  0  0  0  0
   -1.2620   45.5890   56.3870 N   0  0  0  0  0  0  0  0  0  0  0  0
   -0.5520   46.0200   57.4620 C   0  0  0  0  0  0  0  0  0  0  0  0
    0.8430   46.0880   57.3970 C   0  0  0  0  0  0  0  0  0  0  0  0
    1.5890   46.5360   58.4850 O   0  0  0  0  0  0  0  0  0  0  0  0
    1.4910   45.7010   56.2210 C   0  0  0  0  0  0  0  0  0  0  0  0
    2.3540   43.0650   54.5840 H   0  0  0  0  0  0  0  0  0  0  0  0
    2.3815   41.9338   51.9473 H   0  0  0  0  0  0  0  0  0  0  0  0
    4.0583   41.6264   50.1296 H   0  0  0  0  0  0  0  0  0  0  0  0
    6.0284   43.1413   49.9720 H   0  0  0  0  0  0  0  0  0  0  0  0
    7.2850   44.8560   49.6050 H   0  0  0  0  0  0  0  0  0  0  0  0
    6.0721   46.9837   54.1114 H   0  0  0  0  0  0  0  0  0  0  0  0
    6.5129   45.2799   54.5052 H   0  0  0  0  0  0  0  0  0  0  0  0
    7.7910   48.5688   53.9781 H   0  0  0  0  0  0  0  0  0  0  0  0
    9.3571   48.2268   54.8189 H   0  0  0  0  0  0  0  0  0  0  0  0
    9.4391   48.3671   52.2301 H   0  0  0  0  0  0  0  0  0  0  0  0
   10.1808   46.9205   52.9813 H   0  0  0  0  0  0  0  0  0  0  0  0
    4.6523   45.2914   53.4715 H   0  0  0  0  0  0  0  0  0  0  0  0
   -1.2621   44.8716   54.3791 H   0  0  0  0  0  0  0  0  0  0  0  0
   -1.0747   46.3155   58.3837 H   0  0  0  0  0  0  0  0  0  0  0  0
    1.4960   46.1100   59.4000 H   0  0  0  0  0  0  0  0  0  0  0  0
    2.5881   45.7511   56.1583 H   0  0  0  0  0  0  0  0  0  0  0  0
  1  2  2  0
  2  3  1  0
  3  4  1  0
  4  5  2  0
  5  6  1  0
  6  7  2  0
  7  8  1  0
  8  9  1  0
  9 10  1  0
 10 11  1  0
 11 12  2  0
 12 13  1  0
 13 14  1  0
 14 15  1  0
 15 16  1  0
 16 17  1  0
  8 18  2  0
  2 19  1  0
 19 20  2  0
 20 21  1  0
 21 22  2  0
 22 23  1  0
 23 24  1  0
 23 25  2  0
 18  4  1  0
 25 19  1  0
 13  9  2  0
 17 12  1  0
  3 26  1  0
  5 27  1  0
  6 28  1  0
  7 29  1  0
 10 30  1  0
 14 31  1  0
 14 32  1  0
 16 33  1  0
 16 34  1  0
 17 35  1  0
 17 36  1  0
 18 37  1  0
 20 38  1  0
 22 39  1  0
 24 40  1  0
 25 41  1  0
M  END
>  <meeko>  (1) 
{"is_sidechain": [false], "free_energy": -9.036, "intermolecular_energy": -10.885, "internal_energy": -0.37}

$$$$
ligand_61_conformer_5_docked
     RDKit          3D

 41 44  0  0  0  0  0  0  0  0999 V2000
    2.1690   44.5280   55.3740 O   0  0  0  0  0  0  0  0  0  0  0  0
    1.1640   45.0320   54.8040 C   0  0  0  0  0  0  0  0  0  0  0  0
    1.3490   46.0010   53.7580 N   0  0  0  0  0  0  0  0  0  0  0  0
    2.5490   46.1090   52.9740 C   0  0  0  0  0  0  0  0  0  0  0  0
    2.4850   45.9100   51.5880 C   0  0  0  0  0  0  0  0  0  0  0  0
    3.6400   45.9990   50.8070 C   0  0  0  0  0  0  0  0  0  0  0  0
    4.8720   46.2690   51.4050 C   0  0  0  0  0  0  0  0  0  0  0  0
    4.9660   46.4380   52.7960 C   0  0  0  0  0  0  0  0  0  0  0  0
    6.2810   46.7080   53.4210 C   0  0  0  0  0  0  0  0  0  0  0  0
    6.4500   47.1210   54.6980 N   0  0  0  0  0  0  0  0  0  0  0  0
    7.7400   47.2980   54.9520 N   0  0  0  0  0  0  0  0  0  0  0  0
    8.4070   46.9850   53.8250 C   0  0  0  0  0  0  0  0  0  0  0  0
    7.5330   46.6330   52.8380 C   0  0  0  0  0  0  0  0  0  0  0  0
    8.0060   46.2850   51.4580 C   0  0  0  0  0  0  0  0  0  0  0  0
    9.2900   46.8500   51.2150 O   0  0  0  0  0  0  0  0  0  0  0  0
   10.2160   46.4660   52.2270 C   0  0  0  0  0  0  0  0  0  0  0  0
    9.8720   47.1240   53.5830 C   0  0  0  0  0  0  0  0  0  0  0  0
    3.7980   46.3590   53.5750 C   0  0  0  0  0  0  0  0  0  0  0  0
   -0.1970   44.6520   55.2550 C   0  0  0  0  0  0  0  0  0  0  0  0
   -1.0000   43.8090   54.4670 C   0  0  0  0  0  0  0  0  0  0  0  0
   -2.2500   43.4670   54.8800 N   0  0  0  0  0  0  0  0  0  0  0  0
   -2.7690   43.9240   56.0490 C   0  0  0  0  0  0  0  0  0  0  0  0
   -2.0150   44.7740   56.8640 C   0  0  0  0  0  0  0  0  0  0  0  0
   -2.5320   45.2620   58.0620 O   0  0  0  0  0  0  0  0  0  0  0  0
   -0.7270   45.1390   56.4620 C   0  0  0  0  0  0  0  0  0  0  0  0
    0.6160   46.7370   53.6350 H   0  0  0  0  0  0  0  0  0  0  0  0
    1.5196   45.6824   51.1124 H   0  0  0  0  0  0  0  0  0  0  0  0
    3.5783   45.8559   49.7181 H   0  0  0  0  0  0  0  0  0  0  0  0
    5.7753   46.3500   50.7826 H   0  0  0  0  0  0  0  0  0  0  0  0
    5.6960   47.2760   55.4030 H   0  0  0  0  0  0  0  0  0  0  0  0
    8.0675   45.1910   51.3613 H   0  0  0  0  0  0  0  0  0  0  0  0
    7.2937   46.6905   50.7244 H   0  0  0  0  0  0  0  0  0  0  0  0
   10.1877   45.3724   52.3421 H   0  0  0  0  0  0  0  0  0  0  0  0
   11.2193   46.7999   51.9240 H   0  0  0  0  0  0  0  0  0  0  0  0
   10.4292   46.6239   54.3889 H   0  0  0  0  0  0  0  0  0  0  0  0
   10.1489   48.1884   53.5636 H   0  0  0  0  0  0  0  0  0  0  0  0
    3.8604   46.4938   54.6649 H   0  0  0  0  0  0  0  0  0  0  0  0
   -0.6153   43.4239   53.5112 H   0  0  0  0  0  0  0  0  0  0  0  0
   -3.7826   43.6254   56.3547 H   0  0  0  0  0  0  0  0  0  0  0  0
   -3.5230   45.2090   58.2700 H   0  0  0  0  0  0  0  0  0  0  0  0
   -0.1258   45.8102   57.0930 H   0  0  0  0  0  0  0  0  0  0  0  0
  1  2  2  0
  2  3  1  0
  3  4  1  0
  4  5  2  0
  5  6  1  0
  6  7  2  0
  7  8  1  0
  8  9  1  0
  9 10  1  0
 10 11  1  0
 11 12  2  0
 12 13  1  0
 13 14  1  0
 14 15  1  0
 15 16  1  0
 16 17  1  0
  8 18  2  0
  2 19  1  0
 19 20  2  0
 20 21  1  0
 21 22  2  0
 22 23  1  0
 23 24  1  0
 23 25  2  0
 18  4  1  0
 25 19  1  0
 13  9  2  0
 17 12  1  0
  3 26  1  0
  5 27  1  0
  6 28  1  0
  7 29  1  0
 10 30  1  0
 14 31  1  0
 14 32  1  0
 16 33  1  0
 16 34  1  0
 17 35  1  0
 17 36  1  0
 18 37  1  0
 20 38  1  0
 22 39  1  0
 24 40  1  0
 25 41  1  0
M  END
>  <meeko>  (2) 
{"is_sidechain": [false], "free_energy": -8.953, "intermolecular_energy": -11.24, "internal_energy": 0.085}

$$$$
ligand_61_conformer_5_docked
     RDKit          3D

 41 44  0  0  0  0  0  0  0  0999 V2000
    2.7930   44.9040   55.5500 O   0  0  0  0  0  0  0  0  0  0  0  0
    1.7100   44.8360   54.9080 C   0  0  0  0  0  0  0  0  0  0  0  0
    1.7360   44.7600   53.4730 N   0  0  0  0  0  0  0  0  0  0  0  0
    2.8630   44.2800   52.7210 C   0  0  0  0  0  0  0  0  0  0  0  0
    2.8090   43.0050   52.1390 C   0  0  0  0  0  0  0  0  0  0  0  0
    3.8960   42.5130   51.4130 C   0  0  0  0  0  0  0  0  0  0  0  0
    5.0540   43.2800   51.2760 C   0  0  0  0  0  0  0  0  0  0  0  0
    5.1430   44.5460   51.8780 C   0  0  0  0  0  0  0  0  0  0  0  0
    6.3830   45.3450   51.7390 C   0  0  0  0  0  0  0  0  0  0  0  0
    7.1030   45.4450   50.5980 N   0  0  0  0  0  0  0  0  0  0  0  0
    8.1680   46.2110   50.7990 N   0  0  0  0  0  0  0  0  0  0  0  0
    8.1230   46.6150   52.0820 C   0  0  0  0  0  0  0  0  0  0  0  0
    7.0380   46.0780   52.7120 C   0  0  0  0  0  0  0  0  0  0  0  0
    6.7730   46.3240   54.1670 C   0  0  0  0  0  0  0  0  0  0  0  0
    7.9750   46.6910   54.8360 O   0  0  0  0  0  0  0  0  0  0  0  0
    8.5970   47.8010   54.1950 C   0  0  0  0  0  0  0  0  0  0  0  0
    9.1560   47.4090   52.8090 C   0  0  0  0  0  0  0  0  0  0  0  0
    4.0410   45.0400   52.5980 C   0  0  0  0  0  0  0  0  0  0  0  0
    0.4220   44.8870   55.6430 C   0  0  0  0  0  0  0  0  0  0  0  0
    0.2970   45.6630   56.8100 C   0  0  0  0  0  0  0  0  0  0  0  0
   -0.8820   45.7030   57.4850 N   0  0  0  0  0  0  0  0  0  0  0  0
   -1.9700   45.0020   57.0720 C   0  0  0  0  0  0  0  0  0  0  0  0
   -1.8940   44.2070   55.9240 C   0  0  0  0  0  0  0  0  0  0  0  0
   -2.9950   43.4730   55.4880 O   0  0  0  0  0  0  0  0  0  0  0  0
   -0.6930   44.1510   55.2110 C   0  0  0  0  0  0  0  0  0  0  0  0
    0.9370   45.1770   52.9440 H   0  0  0  0  0  0  0  0  0  0  0  0
    1.9052   42.3889   52.2550 H   0  0  0  0  0  0  0  0  0  0  0  0
    3.8393   41.5179   50.9477 H   0  0  0  0  0  0  0  0  0  0  0  0
    5.9019   42.8908   50.6932 H   0  0  0  0  0  0  0  0  0  0  0  0
    6.8740   45.0040   49.6800 H   0  0  0  0  0  0  0  0  0  0  0  0
    6.0388   47.1367   54.2692 H   0  0  0  0  0  0  0  0  0  0  0  0
    6.3810   45.4010   54.6190 H   0  0  0  0  0  0  0  0  0  0  0  0
    7.8551   48.6032   54.0682 H   0  0  0  0  0  0  0  0  0  0  0  0
    9.4339   48.1400   54.8233 H   0  0  0  0  0  0  0  0  0  0  0  0
    9.3952   48.3172   52.2363 H   0  0  0  0  0  0  0  0  0  0  0  0
   10.0710   46.8106   52.9302 H   0  0  0  0  0  0  0  0  0  0  0  0
    4.1003   46.0316   53.0704 H   0  0  0  0  0  0  0  0  0  0  0  0
    1.1580   46.2403   57.1780 H   0  0  0  0  0  0  0  0  0  0  0  0
   -2.9101   45.0597   57.6402 H   0  0  0  0  0  0  0  0  0  0  0  0
   -3.9420   43.7940   55.6530 H   0  0  0  0  0  0  0  0  0  0  0  0
   -0.6211   43.5276   54.3075 H   0  0  0  0  0  0  0  0  0  0  0  0
  1  2  2  0
  2  3  1  0
  3  4  1  0
  4  5  2  0
  5  6  1  0
  6  7  2  0
  7  8  1  0
  8  9  1  0
  9 10  1  0
 10 11  1  0
 11 12  2  0
 12 13  1  0
 13 14  1  0
 14 15  1  0
 15 16  1  0
 16 17  1  0
  8 18  2  0
  2 19  1  0
 19 20  2  0
 20 21  1  0
 21 22  2  0
 22 23  1  0
 23 24  1  0
 23 25  2  0
 18  4  1  0
 25 19  1  0
 13  9  2  0
 17 12  1  0
  3 26  1  0
  5 27  1  0
  6 28  1  0
  7 29  1  0
 10 30  1  0
 14 31  1  0
 14 32  1  0
 16 33  1  0
 16 34  1  0
 17 35  1  0
 17 36  1  0
 18 37  1  0
 20 38  1  0
 22 39  1  0
 24 40  1  0
 25 41  1  0
M  END
>  <meeko>  (3) 
{"is_sidechain": [false], "free_energy": -8.75, "intermolecular_energy": -10.535, "internal_energy": -0.375}

$$$$
ligand_61_conformer_5_docked
     RDKit          3D

 41 44  0  0  0  0  0  0  0  0999 V2000
    5.3560   46.6470   51.9450 O   0  0  0  0  0  0  0  0  0  0  0  0
    6.0690   45.9060   52.6740 C   0  0  0  0  0  0  0  0  0  0  0  0
    5.5210   44.6880   53.2050 N   0  0  0  0  0  0  0  0  0  0  0  0
    4.4100   43.9910   52.6170 C   0  0  0  0  0  0  0  0  0  0  0  0
    4.5860   43.3210   51.3970 C   0  0  0  0  0  0  0  0  0  0  0  0
    3.5190   42.6470   50.8010 C   0  0  0  0  0  0  0  0  0  0  0  0
    2.2610   42.6480   51.4070 C   0  0  0  0  0  0  0  0  0  0  0  0
    2.0530   43.3400   52.6110 C   0  0  0  0  0  0  0  0  0  0  0  0
    0.7100   43.3480   53.2360 C   0  0  0  0  0  0  0  0  0  0  0  0
   -0.3830   42.7500   52.7080 N   0  0  0  0  0  0  0  0  0  0  0  0
   -1.4350   42.9550   53.4890 N   0  0  0  0  0  0  0  0  0  0  0  0
   -1.0090   43.6850   54.5360 C   0  0  0  0  0  0  0  0  0  0  0  0
    0.3190   43.9720   54.4070 C   0  0  0  0  0  0  0  0  0  0  0  0
    1.0410   44.8180   55.4120 C   0  0  0  0  0  0  0  0  0  0  0  0
    0.1200   45.6360   56.1270 O   0  0  0  0  0  0  0  0  0  0  0  0
   -0.9130   44.8490   56.7120 C   0  0  0  0  0  0  0  0  0  0  0  0
   -1.8460   44.2540   55.6330 C   0  0  0  0  0  0  0  0  0  0  0  0
    3.1340   44.0080   53.2120 C   0  0  0  0  0  0  0  0  0  0  0  0
    7.4500   46.3290   53.0140 C   0  0  0  0  0  0  0  0  0  0  0  0
    7.7150   46.9910   54.2260 C   0  0  0  0  0  0  0  0  0  0  0  0
    8.9810   47.3830   54.5320 N   0  0  0  0  0  0  0  0  0  0  0  0
   10.0240   47.1620   53.6910 C   0  0  0  0  0  0  0  0  0  0  0  0
    9.8110   46.5170   52.4680 C   0  0  0  0  0  0  0  0  0  0  0  0
   10.8650   46.2890   51.5860 O   0  0  0  0  0  0  0  0  0  0  0  0
    8.5190   46.1030   52.1310 C   0  0  0  0  0  0  0  0  0  0  0  0
    5.8760   44.3500   54.1290 H   0  0  0  0  0  0  0  0  0  0  0  0
    5.5709   43.3269   50.9072 H   0  0  0  0  0  0  0  0  0  0  0  0
    3.6695   42.1134   49.8510 H   0  0  0  0  0  0  0  0  0  0  0  0
    1.4280   42.1035   50.9384 H   0  0  0  0  0  0  0  0  0  0  0  0
   -0.4190   42.1960   51.8240 H   0  0  0  0  0  0  0  0  0  0  0  0
    1.5716   44.1652   56.1207 H   0  0  0  0  0  0  0  0  0  0  0  0
    1.7572   45.4650   54.8844 H   0  0  0  0  0  0  0  0  0  0  0  0
   -0.4571   44.0274   57.2839 H   0  0  0  0  0  0  0  0  0  0  0  0
   -1.5118   45.4961   57.3698 H   0  0  0  0  0  0  0  0  0  0  0  0
   -2.4648   43.4598   56.0761 H   0  0  0  0  0  0  0  0  0  0  0  0
   -2.5041   45.0393   55.2328 H   0  0  0  0  0  0  0  0  0  0  0  0
    2.9814   44.5497   54.1571 H   0  0  0  0  0  0  0  0  0  0  0  0
    6.8944   47.1928   54.9301 H   0  0  0  0  0  0  0  0  0  0  0  0
   11.0359   47.4900   53.9712 H   0  0  0  0  0  0  0  0  0  0  0  0
   11.7840   46.6840   51.7480 H   0  0  0  0  0  0  0  0  0  0  0  0
    8.3387   45.5982   51.1705 H   0  0  0  0  0  0  0  0  0  0  0  0
  1  2  2  0
  2  3  1  0
  3  4  1  0
  4  5  2  0
  5  6  1  0
  6  7  2  0
  7  8  1  0
  8  9  1  0
  9 10  1  0
 10 11  1  0
 11 12  2  0
 12 13  1  0
 13 14  1  0
 14 15  1  0
 15 16  1  0
 16 17  1  0
  8 18  2  0
  2 19  1  0
 19 20  2  0
 20 21  1  0
 21 22  2  0
 22 23  1  0
 23 24  1  0
 23 25  2  0
 18  4  1  0
 25 19  1  0
 13  9  2  0
 17 12  1  0
  3 26  1  0
  5 27  1  0
  6 28  1  0
  7 29  1  0
 10 30  1  0
 14 31  1  0
 14 32  1  0
 16 33  1  0
 16 34  1  0
 17 35  1  0
 17 36  1  0
 18 37  1  0
 20 38  1  0
 22 39  1  0
 24 40  1  0
 25 41  1  0
M  END
>  <meeko>  (4) 
{"is_sidechain": [false], "free_energy": -8.514, "intermolecular_energy": -10.391, "internal_energy": -0.235}

$$$$
ligand_61_conformer_5_docked
     RDKit          3D

 41 44  0  0  0  0  0  0  0  0999 V2000
    2.7440   45.7900   52.0810 O   0  0  0  0  0  0  0  0  0  0  0  0
    3.3790   44.7710   52.4670 C   0  0  0  0  0  0  0  0  0  0  0  0
    3.1310   44.2300   53.7750 N   0  0  0  0  0  0  0  0  0  0  0  0
    1.9100   44.4390   54.5060 C   0  0  0  0  0  0  0  0  0  0  0  0
    0.7220   43.8600   54.0390 C   0  0  0  0  0  0  0  0  0  0  0  0
   -0.4780   44.0580   54.7260 C   0  0  0  0  0  0  0  0  0  0  0  0
   -0.5070   44.8490   55.8750 C   0  0  0  0  0  0  0  0  0  0  0  0
    0.6650   45.4660   56.3430 C   0  0  0  0  0  0  0  0  0  0  0  0
    0.6200   46.3170   57.5540 C   0  0  0  0  0  0  0  0  0  0  0  0
    1.6030   46.3780   58.4820 N   0  0  0  0  0  0  0  0  0  0  0  0
    1.2560   47.2100   59.4560 N   0  0  0  0  0  0  0  0  0  0  0  0
    0.0400   47.6940   59.1430 C   0  0  0  0  0  0  0  0  0  0  0  0
   -0.4050   47.1460   57.9760 C   0  0  0  0  0  0  0  0  0  0  0  0
   -1.7570   47.4740   57.4190 C   0  0  0  0  0  0  0  0  0  0  0  0
   -2.6190   47.9450   58.4500 O   0  0  0  0  0  0  0  0  0  0  0  0
   -2.0300   49.0410   59.1450 C   0  0  0  0  0  0  0  0  0  0  0  0
   -0.8120   48.5870   59.9820 C   0  0  0  0  0  0  0  0  0  0  0  0
    1.8720   45.2540   55.6530 C   0  0  0  0  0  0  0  0  0  0  0  0
    4.4090   44.1750   51.5810 C   0  0  0  0  0  0  0  0  0  0  0  0
    4.2780   42.8510   51.1260 C   0  0  0  0  0  0  0  0  0  0  0  0
    5.2270   42.3050   50.3190 N   0  0  0  0  0  0  0  0  0  0  0  0
    6.3270   43.0020   49.9310 C   0  0  0  0  0  0  0  0  0  0  0  0
    6.5090   44.3180   50.3660 C   0  0  0  0  0  0  0  0  0  0  0  0
    7.6340   45.0480   49.9870 O   0  0  0  0  0  0  0  0  0  0  0  0
    5.5470   44.9030   51.1940 C   0  0  0  0  0  0  0  0  0  0  0  0
    3.9200   43.7530   54.2670 H   0  0  0  0  0  0  0  0  0  0  0  0
    0.7347   43.2462   53.1263 H   0  0  0  0  0  0  0  0  0  0  0  0
   -1.4031   43.5888   54.3600 H   0  0  0  0  0  0  0  0  0  0  0  0
   -1.4533   44.9903   56.4177 H   0  0  0  0  0  0  0  0  0  0  0  0
    2.5110   45.8660   58.4560 H   0  0  0  0  0  0  0  0  0  0  0  0
   -1.6525   48.2535   56.6499 H   0  0  0  0  0  0  0  0  0  0  0  0
   -2.1915   46.5641   56.9793 H   0  0  0  0  0  0  0  0  0  0  0  0
   -1.7014   49.7940   58.4136 H   0  0  0  0  0  0  0  0  0  0  0  0
   -2.7820   49.4634   59.8277 H   0  0  0  0  0  0  0  0  0  0  0  0
   -0.2300   49.4662   60.2954 H   0  0  0  0  0  0  0  0  0  0  0  0
   -1.1533   48.0463   60.8770 H   0  0  0  0  0  0  0  0  0  0  0  0
    2.7959   45.7300   56.0134 H   0  0  0  0  0  0  0  0  0  0  0  0
    3.4037   42.2538   51.4242 H   0  0  0  0  0  0  0  0  0  0  0  0
    7.0738   42.5310   49.2750 H   0  0  0  0  0  0  0  0  0  0  0  0
    7.8670   45.1910   49.0110 H   0  0  0  0  0  0  0  0  0  0  0  0
    5.6811   45.9371   51.5441 H   0  0  0  0  0  0  0  0  0  0  0  0
  1  2  2  0
  2  3  1  0
  3  4  1  0
  4  5  2  0
  5  6  1  0
  6  7  2  0
  7  8  1  0
  8  9  1  0
  9 10  1  0
 10 11  1  0
 11 12  2  0
 12 13  1  0
 13 14  1  0
 14 15  1  0
 15 16  1  0
 16 17  1  0
  8 18  2  0
  2 19  1  0
 19 20  2  0
 20 21  1  0
 21 22  2  0
 22 23  1  0
 23 24  1  0
 23 25  2  0
 18  4  1  0
 25 19  1  0
 13  9  2  0
 17 12  1  0
  3 26  1  0
  5 27  1  0
  6 28  1  0
  7 29  1  0
 10 30  1  0
 14 31  1  0
 14 32  1  0
 16 33  1  0
 16 34  1  0
 17 35  1  0
 17 36  1  0
 18 37  1  0
 20 38  1  0
 22 39  1  0
 24 40  1  0
 25 41  1  0
M  END
>  <meeko>  (5) 
{"is_sidechain": [false], "free_energy": -8.348, "intermolecular_energy": -10.104, "internal_energy": -0.323}

$$$$
