ligand_12_conformer_5_docked
     RDKit          3D

 48 51  0  0  0  0  0  0  0  0999 V2000
   10.9470   47.5320   56.1690 C   0  0  0  0  0  0  0  0  0  0  0  0
   10.5020   47.9190   54.8760 O   0  0  0  0  0  0  0  0  0  0  0  0
    9.3820   47.3530   54.2600 C   0  0  0  0  0  0  0  0  0  0  0  0
    9.4430   47.0180   52.8900 C   0  0  0  0  0  0  0  0  0  0  0  0
    8.3270   46.4470   52.2570 C   0  0  0  0  0  0  0  0  0  0  0  0
    7.1790   46.2280   53.0150 C   0  0  0  0  0  0  0  0  0  0  0  0
    6.0250   45.6910   52.5450 N   0  0  0  0  0  0  0  0  0  0  0  0
    5.0990   45.6060   53.5340 C   0  0  0  0  0  0  0  0  0  0  0  0
    3.7740   45.1120   53.2930 N   0  0  0  0  0  0  0  0  0  0  0  0
    2.7150   45.8830   52.7030 C   0  0  0  0  0  0  0  0  0  0  0  0
    2.7590   47.1430   52.7340 O   0  0  0  0  0  0  0  0  0  0  0  0
    1.5650   45.2300   52.1340 N   0  0  0  0  0  0  0  0  0  0  0  0
    0.2700   45.3100   52.8260 C   0  0  0  0  0  0  0  0  0  0  0  0
   -0.7370   44.3050   52.2440 C   0  0  0  0  0  0  0  0  0  0  0  0
   -0.0500   42.9540   52.0050 C   0  0  0  0  0  0  0  0  0  0  0  0
    1.1550   43.0570   51.0220 C   0  0  2  0  0  0  0  0  0  0  0  0
    2.2640   42.1920   51.4570 N   0  0  0  0  0  0  0  0  0  0  0  0
    3.4840   41.9890   50.7140 C   0  0  0  0  0  0  0  0  0  0  0  0
    4.6610   42.7170   50.9890 C   0  0  0  0  0  0  0  0  0  0  0  0
    5.8250   42.4830   50.2490 C   0  0  0  0  0  0  0  0  0  0  0  0
    5.8300   41.5290   49.2300 C   0  0  0  0  0  0  0  0  0  0  0  0
    4.6710   40.8050   48.9470 C   0  0  0  0  0  0  0  0  0  0  0  0
    3.5050   41.0340   49.6830 C   0  0  0  0  0  0  0  0  0  0  0  0
    1.6520   44.5120   50.8570 C   0  0  0  0  0  0  0  0  0  0  0  0
    5.6710   46.2110   55.0190 S   0  0  0  0  0  0  0  0  0  0  0  0
    7.1650   46.5700   54.3500 C   0  0  0  0  0  0  0  0  0  0  0  0
    8.2350   47.1230   54.9710 N   0  0  0  0  0  0  0  0  0  0  0  0
   10.3498   48.0513   56.9330 H   0  0  0  0  0  0  0  0  0  0  0  0
   10.8284   46.4448   56.2874 H   0  0  0  0  0  0  0  0  0  0  0  0
   12.0072   47.8003   56.2874 H   0  0  0  0  0  0  0  0  0  0  0  0
   10.3643   47.2041   52.3185 H   0  0  0  0  0  0  0  0  0  0  0  0
    8.3586   46.1797   51.1904 H   0  0  0  0  0  0  0  0  0  0  0  0
    3.5640   44.1360   53.6020 H   0  0  0  0  0  0  0  0  0  0  0  0
    0.4198   45.0899   53.8933 H   0  0  0  0  0  0  0  0  0  0  0  0
   -0.1339   46.3242   52.6908 H   0  0  0  0  0  0  0  0  0  0  0  0
   -1.5685   44.1709   52.9516 H   0  0  0  0  0  0  0  0  0  0  0  0
   -1.1202   44.6900   51.2875 H   0  0  0  0  0  0  0  0  0  0  0  0
    0.3142   42.5691   52.9690 H   0  0  0  0  0  0  0  0  0  0  0  0
   -0.7917   42.2799   51.5516 H   0  0  0  0  0  0  0  0  0  0  0  0
    0.7942   42.7133   50.0414 H   0  0  0  0  0  0  0  0  0  0  0  0
    2.1940   41.7200   52.3870 H   0  0  0  0  0  0  0  0  0  0  0  0
    4.6634   43.4720   51.7889 H   0  0  0  0  0  0  0  0  0  0  0  0
    6.7394   43.0527   50.4709 H   0  0  0  0  0  0  0  0  0  0  0  0
    6.7471   41.3480   48.6503 H   0  0  0  0  0  0  0  0  0  0  0  0
    4.6751   40.0533   48.1439 H   0  0  0  0  0  0  0  0  0  0  0  0
    2.5946   40.4610   49.4530 H   0  0  0  0  0  0  0  0  0  0  0  0
    2.6983   44.5014   50.5177 H   0  0  0  0  0  0  0  0  0  0  0  0
    1.0197   45.0233   50.1162 H   0  0  0  0  0  0  0  0  0  0  0  0
  1  2  1  0
  2  3  1  0
  3  4  2  0
  4  5  1  0
  5  6  2  0
  6  7  1  0
  7  8  2  0
  8  9  1  0
  9 10  1  0
 10 11  2  0
 10 12  1  0
 12 13  1  0
 13 14  1  0
 14 15  1  0
 15 16  1  0
 16 17  1  0
 17 18  1  0
 18 19  2  0
 19 20  1  0
 20 21  2  0
 21 22  1  0
 22 23  2  0
 16 24  1  0
  8 25  1  0
 25 26  1  0
 26 27  2  0
 27  3  1  0
 26  6  1  0
 24 12  1  0
 23 18  1  0
  1 28  1  0
  1 29  1  0
  1 30  1  0
  4 31  1  0
  5 32  1  0
  9 33  1  0
 13 34  1  0
 13 35  1  0
 14 36  1  0
 14 37  1  0
 15 38  1  0
 15 39  1  0
 16 40  1  6
 17 41  1  0
 19 42  1  0
 20 43  1  0
 21 44  1  0
 22 45  1  0
 23 46  1  0
 24 47  1  0
 24 48  1  0
M  END
>  <meeko>  (1) 
{"is_sidechain": [false], "free_energy": -8.777, "intermolecular_energy": -11.343, "internal_energy": -0.884}

$$$$
ligand_12_conformer_5_docked
     RDKit          3D

 48 51  0  0  0  0  0  0  0  0999 V2000
   -3.7300   45.9100   58.5780 C   0  0  0  0  0  0  0  0  0  0  0  0
   -2.9740   44.7470   58.2630 O   0  0  0  0  0  0  0  0  0  0  0  0
   -2.1600   44.6580   57.1300 C   0  0  0  0  0  0  0  0  0  0  0  0
   -2.7230   44.2300   55.9090 C   0  0  0  0  0  0  0  0  0  0  0  0
   -1.9190   44.1350   54.7610 C   0  0  0  0  0  0  0  0  0  0  0  0
   -0.5720   44.4740   54.8690 C   0  0  0  0  0  0  0  0  0  0  0  0
    0.3280   44.4300   53.8550 N   0  0  0  0  0  0  0  0  0  0  0  0
    1.5540   44.8240   54.2830 C   0  0  0  0  0  0  0  0  0  0  0  0
    2.6960   44.8290   53.4170 N   0  0  0  0  0  0  0  0  0  0  0  0
    3.0630   43.7420   52.5510 C   0  0  0  0  0  0  0  0  0  0  0  0
    2.6470   42.5750   52.7910 O   0  0  0  0  0  0  0  0  0  0  0  0
    3.9580   43.9590   51.4450 N   0  0  0  0  0  0  0  0  0  0  0  0
    4.7000   42.8230   50.8790 C   0  0  0  0  0  0  0  0  0  0  0  0
    5.8190   43.2980   49.9390 C   0  0  0  0  0  0  0  0  0  0  0  0
    6.5560   44.4910   50.5630 C   0  0  0  0  0  0  0  0  0  0  0  0
    5.6130   45.7000   50.8450 C   0  0  2  0  0  0  0  0  0  0  0  0
    5.9580   46.3510   52.1190 N   0  0  0  0  0  0  0  0  0  0  0  0
    7.3040   46.6350   52.5540 C   0  0  0  0  0  0  0  0  0  0  0  0
    8.3950   46.6560   51.6590 C   0  0  0  0  0  0  0  0  0  0  0  0
    9.6830   46.9440   52.1220 C   0  0  0  0  0  0  0  0  0  0  0  0
    9.9000   47.2110   53.4750 C   0  0  0  0  0  0  0  0  0  0  0  0
    8.8300   47.1890   54.3700 C   0  0  0  0  0  0  0  0  0  0  0  0
    7.5410   46.9020   53.9140 C   0  0  0  0  0  0  0  0  0  0  0  0
    4.1210   45.2900   50.8470 C   0  0  0  0  0  0  0  0  0  0  0  0
    1.5690   45.2220   55.9390 S   0  0  0  0  0  0  0  0  0  0  0  0
   -0.0660   44.8880   56.0830 C   0  0  0  0  0  0  0  0  0  0  0  0
   -0.8320   44.9810   57.1980 N   0  0  0  0  0  0  0  0  0  0  0  0
   -3.7997   46.0172   59.6705 H   0  0  0  0  0  0  0  0  0  0  0  0
   -3.2344   46.7956   58.1535 H   0  0  0  0  0  0  0  0  0  0  0  0
   -4.7405   45.8166   58.1535 H   0  0  0  0  0  0  0  0  0  0  0  0
   -3.7907   43.9709   55.8561 H   0  0  0  0  0  0  0  0  0  0  0  0
   -2.3419   43.8016   53.8018 H   0  0  0  0  0  0  0  0  0  0  0  0
    3.3180   45.6680   53.4500 H   0  0  0  0  0  0  0  0  0  0  0  0
    5.1447   42.2411   51.6998 H   0  0  0  0  0  0  0  0  0  0  0  0
    3.9987   42.2054   50.2987 H   0  0  0  0  0  0  0  0  0  0  0  0
    6.5306   42.4754   49.7746 H   0  0  0  0  0  0  0  0  0  0  0  0
    5.3785   43.6068   48.9795 H   0  0  0  0  0  0  0  0  0  0  0  0
    7.0077   44.1680   51.5126 H   0  0  0  0  0  0  0  0  0  0  0  0
    7.3177   44.8246   49.8429 H   0  0  0  0  0  0  0  0  0  0  0  0
    5.7626   46.4161   50.0236 H   0  0  0  0  0  0  0  0  0  0  0  0
    5.1840   46.6720   52.7430 H   0  0  0  0  0  0  0  0  0  0  0  0
    8.2316   46.4448   50.5919 H   0  0  0  0  0  0  0  0  0  0  0  0
   10.5278   46.9602   51.4177 H   0  0  0  0  0  0  0  0  0  0  0  0
   10.9141   47.4386   53.8352 H   0  0  0  0  0  0  0  0  0  0  0  0
    9.0015   47.3979   55.4363 H   0  0  0  0  0  0  0  0  0  0  0  0
    6.7029   46.8847   54.6262 H   0  0  0  0  0  0  0  0  0  0  0  0
    3.5443   46.0228   51.4304 H   0  0  0  0  0  0  0  0  0  0  0  0
    3.7565   45.2627   49.8095 H   0  0  0  0  0  0  0  0  0  0  0  0
  1  2  1  0
  2  3  1  0
  3  4  2  0
  4  5  1  0
  5  6  2  0
  6  7  1  0
  7  8  2  0
  8  9  1  0
  9 10  1  0
 10 11  2  0
 10 12  1  0
 12 13  1  0
 13 14  1  0
 14 15  1  0
 15 16  1  0
 16 17  1  0
 17 18  1  0
 18 19  2  0
 19 20  1  0
 20 21  2  0
 21 22  1  0
 22 23  2  0
 16 24  1  0
  8 25  1  0
 25 26  1  0
 26 27  2  0
 27  3  1  0
 26  6  1  0
 24 12  1  0
 23 18  1  0
  1 28  1  0
  1 29  1  0
  1 30  1  0
  4 31  1  0
  5 32  1  0
  9 33  1  0
 13 34  1  0
 13 35  1  0
 14 36  1  0
 14 37  1  0
 15 38  1  0
 15 39  1  0
 16 40  1  6
 17 41  1  0
 19 42  1  0
 20 43  1  0
 21 44  1  0
 22 45  1  0
 23 46  1  0
 24 47  1  0
 24 48  1  0
M  END
>  <meeko>  (2) 
{"is_sidechain": [false], "free_energy": -8.534, "intermolecular_energy": -11.736, "internal_energy": -0.177}

$$$$
ligand_12_conformer_5_docked
     RDKit          3D

 48 51  0  0  0  0  0  0  0  0999 V2000
   -2.1500   48.5080   60.2840 C   0  0  0  0  0  0  0  0  0  0  0  0
   -2.1700   47.2500   59.6220 O   0  0  0  0  0  0  0  0  0  0  0  0
   -1.1740   46.8510   58.7260 C   0  0  0  0  0  0  0  0  0  0  0  0
    0.1760   47.1410   59.0210 C   0  0  0  0  0  0  0  0  0  0  0  0
    1.1890   46.7460   58.1320 C   0  0  0  0  0  0  0  0  0  0  0  0
    0.8210   46.0680   56.9720 C   0  0  0  0  0  0  0  0  0  0  0  0
    1.6810   45.6280   56.0200 N   0  0  0  0  0  0  0  0  0  0  0  0
    1.0100   45.0030   55.0190 C   0  0  0  0  0  0  0  0  0  0  0  0
    1.6820   44.4810   53.8650 N   0  0  0  0  0  0  0  0  0  0  0  0
    2.1030   45.2730   52.7430 C   0  0  0  0  0  0  0  0  0  0  0  0
    1.5600   46.3890   52.5180 O   0  0  0  0  0  0  0  0  0  0  0  0
    3.0990   44.7750   51.8300 N   0  0  0  0  0  0  0  0  0  0  0  0
    3.3710   43.3310   51.7720 C   0  0  0  0  0  0  0  0  0  0  0  0
    4.6600   43.0370   50.9880 C   0  0  0  0  0  0  0  0  0  0  0  0
    5.7570   44.0330   51.3880 C   0  0  0  0  0  0  0  0  0  0  0  0
    5.3520   45.5140   51.1180 C   0  0  2  0  0  0  0  0  0  0  0  0
    5.8220   46.3940   52.2010 N   0  0  0  0  0  0  0  0  0  0  0  0
    7.2100   46.6350   52.5150 C   0  0  0  0  0  0  0  0  0  0  0  0
    8.2250   46.5680   51.5370 C   0  0  0  0  0  0  0  0  0  0  0  0
    9.5570   46.8160   51.8830 C   0  0  0  0  0  0  0  0  0  0  0  0
    9.8930   47.1310   53.2010 C   0  0  0  0  0  0  0  0  0  0  0  0
    8.8990   47.1970   54.1780 C   0  0  0  0  0  0  0  0  0  0  0  0
    7.5660   46.9500   53.8380 C   0  0  0  0  0  0  0  0  0  0  0  0
    3.8260   45.6780   50.9290 C   0  0  0  0  0  0  0  0  0  0  0  0
   -0.6740   44.9930   55.2700 S   0  0  0  0  0  0  0  0  0  0  0  0
   -0.5100   45.8050   56.7260 C   0  0  0  0  0  0  0  0  0  0  0  0
   -1.4960   46.1840   57.5750 N   0  0  0  0  0  0  0  0  0  0  0  0
   -2.1525   48.3496   61.3725 H   0  0  0  0  0  0  0  0  0  0  0  0
   -1.2430   49.0596   59.9958 H   0  0  0  0  0  0  0  0  0  0  0  0
   -3.0390   49.0882   59.9958 H   0  0  0  0  0  0  0  0  0  0  0  0
    0.4342   47.6761   59.9467 H   0  0  0  0  0  0  0  0  0  0  0  0
    2.2453   46.9662   58.3461 H   0  0  0  0  0  0  0  0  0  0  0  0
    1.8390   43.4490   53.8300 H   0  0  0  0  0  0  0  0  0  0  0  0
    3.4787   42.9452   52.7965 H   0  0  0  0  0  0  0  0  0  0  0  0
    2.5319   42.8398   51.2576 H   0  0  0  0  0  0  0  0  0  0  0  0
    4.9973   42.0143   51.2121 H   0  0  0  0  0  0  0  0  0  0  0  0
    4.4580   43.1359   49.9112 H   0  0  0  0  0  0  0  0  0  0  0  0
    5.9649   43.9151   52.4617 H   0  0  0  0  0  0  0  0  0  0  0  0
    6.6441   43.8141   50.7756 H   0  0  0  0  0  0  0  0  0  0  0  0
    5.8399   45.8087   50.1772 H   0  0  0  0  0  0  0  0  0  0  0  0
    5.1140   46.9190   52.7620 H   0  0  0  0  0  0  0  0  0  0  0  0
    7.9671   46.3194   50.4970 H   0  0  0  0  0  0  0  0  0  0  0  0
   10.3423   46.7628   51.1146 H   0  0  0  0  0  0  0  0  0  0  0  0
   10.9416   47.3272   53.4693 H   0  0  0  0  0  0  0  0  0  0  0  0
    9.1647   47.4436   55.2166 H   0  0  0  0  0  0  0  0  0  0  0  0
    6.7876   47.0026   54.6135 H   0  0  0  0  0  0  0  0  0  0  0  0
    3.5428   46.7174   51.1515 H   0  0  0  0  0  0  0  0  0  0  0  0
    3.5664   45.4299   49.8893 H   0  0  0  0  0  0  0  0  0  0  0  0
  1  2  1  0
  2  3  1  0
  3  4  2  0
  4  5  1  0
  5  6  2  0
  6  7  1  0
  7  8  2  0
  8  9  1  0
  9 10  1  0
 10 11  2  0
 10 12  1  0
 12 13  1  0
 13 14  1  0
 14 15  1  0
 15 16  1  0
 16 17  1  0
 17 18  1  0
 18 19  2  0
 19 20  1  0
 20 21  2  0
 21 22  1  0
 22 23  2  0
 16 24  1  0
  8 25  1  0
 25 26  1  0
 26 27  2  0
 27  3  1  0
 26  6  1  0
 24 12  1  0
 23 18  1  0
  1 28  1  0
  1 29  1  0
  1 30  1  0
  4 31  1  0
  5 32  1  0
  9 33  1  0
 13 34  1  0
 13 35  1  0
 14 36  1  0
 14 37  1  0
 15 38  1  0
 15 39  1  0
 16 40  1  6
 17 41  1  0
 19 42  1  0
 20 43  1  0
 21 44  1  0
 22 45  1  0
 23 46  1  0
 24 47  1  0
 24 48  1  0
M  END
>  <meeko>  (3) 
{"is_sidechain": [false], "free_energy": -8.162, "intermolecular_energy": -10.771, "internal_energy": -0.661}

$$$$
ligand_12_conformer_5_docked
     RDKit          3D

 48 51  0  0  0  0  0  0  0  0999 V2000
   -3.9800   43.8850   57.6180 C   0  0  0  0  0  0  0  0  0  0  0  0
   -3.2860   43.3320   56.5070 O   0  0  0  0  0  0  0  0  0  0  0  0
   -2.0070   43.7520   56.1290 C   0  0  0  0  0  0  0  0  0  0  0  0
   -1.2810   44.6080   56.9840 C   0  0  0  0  0  0  0  0  0  0  0  0
    0.0050   45.0380   56.6190 C   0  0  0  0  0  0  0  0  0  0  0  0
    0.5290   44.5970   55.4060 C   0  0  0  0  0  0  0  0  0  0  0  0
    1.7500   44.9280   54.9170 N   0  0  0  0  0  0  0  0  0  0  0  0
    1.9640   44.3320   53.7160 C   0  0  0  0  0  0  0  0  0  0  0  0
    3.1640   44.5510   52.9620 N   0  0  0  0  0  0  0  0  0  0  0  0
    3.7910   43.5620   52.1290 C   0  0  0  0  0  0  0  0  0  0  0  0
    3.5620   42.3370   52.3220 O   0  0  0  0  0  0  0  0  0  0  0  0
    4.7340   43.9540   51.1150 N   0  0  0  0  0  0  0  0  0  0  0  0
    5.6050   42.9400   50.5040 C   0  0  0  0  0  0  0  0  0  0  0  0
    6.7380   43.5890   49.6940 C   0  0  0  0  0  0  0  0  0  0  0  0
    7.3280   44.7720   50.4730 C   0  0  0  0  0  0  0  0  0  0  0  0
    6.2690   45.8700   50.7940 C   0  0  2  0  0  0  0  0  0  0  0  0
    6.4750   46.4210   52.1440 N   0  0  0  0  0  0  0  0  0  0  0  0
    7.7660   46.6770   52.7350 C   0  0  0  0  0  0  0  0  0  0  0  0
    7.9110   47.0620   54.0850 C   0  0  0  0  0  0  0  0  0  0  0  0
    9.1830   47.2930   54.6210 C   0  0  0  0  0  0  0  0  0  0  0  0
   10.3180   47.1470   53.8220 C   0  0  0  0  0  0  0  0  0  0  0  0
   10.1870   46.7710   52.4850 C   0  0  0  0  0  0  0  0  0  0  0  0
    8.9200   46.5390   51.9440 C   0  0  0  0  0  0  0  0  0  0  0  0
    4.8210   45.3450   50.6520 C   0  0  0  0  0  0  0  0  0  0  0  0
    0.6380   43.3910   53.2100 S   0  0  0  0  0  0  0  0  0  0  0  0
   -0.2170   43.7600   54.6030 C   0  0  0  0  0  0  0  0  0  0  0  0
   -1.4600   43.3400   54.9440 N   0  0  0  0  0  0  0  0  0  0  0  0
   -3.5252   43.5226   58.5517 H   0  0  0  0  0  0  0  0  0  0  0  0
   -3.9161   44.9825   57.5809 H   0  0  0  0  0  0  0  0  0  0  0  0
   -5.0355   43.5777   57.5809 H   0  0  0  0  0  0  0  0  0  0  0  0
   -1.7221   44.9383   57.9360 H   0  0  0  0  0  0  0  0  0  0  0  0
    0.5837   45.7059   57.2741 H   0  0  0  0  0  0  0  0  0  0  0  0
    3.6250   45.4830   53.0590 H   0  0  0  0  0  0  0  0  0  0  0  0
    6.0436   42.3190   51.2989 H   0  0  0  0  0  0  0  0  0  0  0  0
    4.9977   42.3279   49.8210 H   0  0  0  0  0  0  0  0  0  0  0  0
    7.5266   42.8446   49.5094 H   0  0  0  0  0  0  0  0  0  0  0  0
    6.3359   43.9514   48.7364 H   0  0  0  0  0  0  0  0  0  0  0  0
    7.7443   44.3973   51.4197 H   0  0  0  0  0  0  0  0  0  0  0  0
    8.1023   45.2321   49.8416 H   0  0  0  0  0  0  0  0  0  0  0  0
    6.4089   46.6712   50.0533 H   0  0  0  0  0  0  0  0  0  0  0  0
    5.6370   46.6900   52.7080 H   0  0  0  0  0  0  0  0  0  0  0  0
    7.0200   47.1811   54.7190 H   0  0  0  0  0  0  0  0  0  0  0  0
    9.2885   47.5904   55.6748 H   0  0  0  0  0  0  0  0  0  0  0  0
   11.3163   47.3285   54.2467 H   0  0  0  0  0  0  0  0  0  0  0  0
   11.0822   46.6571   51.8561 H   0  0  0  0  0  0  0  0  0  0  0  0
    8.8244   46.2453   50.8882 H   0  0  0  0  0  0  0  0  0  0  0  0
    4.1475   45.9709   51.2558 H   0  0  0  0  0  0  0  0  0  0  0  0
    4.5278   45.3879   49.5927 H   0  0  0  0  0  0  0  0  0  0  0  0
  1  2  1  0
  2  3  1  0
  3  4  2  0
  4  5  1  0
  5  6  2  0
  6  7  1  0
  7  8  2  0
  8  9  1  0
  9 10  1  0
 10 11  2  0
 10 12  1  0
 12 13  1  0
 13 14  1  0
 14 15  1  0
 15 16  1  0
 16 17  1  0
 17 18  1  0
 18 19  2  0
 19 20  1  0
 20 21  2  0
 21 22  1  0
 22 23  2  0
 16 24  1  0
  8 25  1  0
 25 26  1  0
 26 27  2  0
 27  3  1  0
 26  6  1  0
 24 12  1  0
 23 18  1  0
  1 28  1  0
  1 29  1  0
  1 30  1  0
  4 31  1  0
  5 32  1  0
  9 33  1  0
 13 34  1  0
 13 35  1  0
 14 36  1  0
 14 37  1  0
 15 38  1  0
 15 39  1  0
 16 40  1  6
 17 41  1  0
 19 42  1  0
 20 43  1  0
 21 44  1  0
 22 45  1  0
 23 46  1  0
 24 47  1  0
 24 48  1  0
M  END
>  <meeko>  (4) 
{"is_sidechain": [false], "free_energy": -8.159, "intermolecular_energy": -11.665, "internal_energy": 0.236}

$$$$
ligand_12_conformer_5_docked
     RDKit          3D

 48 51  0  0  0  0  0  0  0  0999 V2000
   -3.3830   44.1460   54.8520 C   0  0  0  0  0  0  0  0  0  0  0  0
   -2.1520   43.4410   54.9330 O   0  0  0  0  0  0  0  0  0  0  0  0
   -0.9280   44.0800   55.1540 C   0  0  0  0  0  0  0  0  0  0  0  0
   -0.6580   44.6350   56.4230 C   0  0  0  0  0  0  0  0  0  0  0  0
    0.5670   45.2790   56.6610 C   0  0  0  0  0  0  0  0  0  0  0  0
    1.4900   45.3480   55.6200 C   0  0  0  0  0  0  0  0  0  0  0  0
    2.7080   45.9390   55.6950 N   0  0  0  0  0  0  0  0  0  0  0  0
    3.3670   45.8330   54.5130 C   0  0  0  0  0  0  0  0  0  0  0  0
    4.6630   46.4120   54.3110 N   0  0  0  0  0  0  0  0  0  0  0  0
    5.9040   45.7360   54.5690 C   0  0  0  0  0  0  0  0  0  0  0  0
    5.9350   44.7540   55.3600 O   0  0  0  0  0  0  0  0  0  0  0  0
    7.1300   46.2100   53.9830 N   0  0  0  0  0  0  0  0  0  0  0  0
    7.6270   47.5500   54.3260 C   0  0  0  0  0  0  0  0  0  0  0  0
    8.7510   47.9910   53.3760 C   0  0  0  0  0  0  0  0  0  0  0  0
    8.3860   47.6300   51.9300 C   0  0  0  0  0  0  0  0  0  0  0  0
    8.1540   46.1010   51.7310 C   0  0  2  0  0  0  0  0  0  0  0  0
    7.0290   45.8550   50.8140 N   0  0  0  0  0  0  0  0  0  0  0  0
    6.4710   44.5540   50.5340 C   0  0  0  0  0  0  0  0  0  0  0  0
    5.2700   44.1090   51.1260 C   0  0  0  0  0  0  0  0  0  0  0  0
    4.7590   42.8430   50.8210 C   0  0  0  0  0  0  0  0  0  0  0  0
    5.4360   42.0090   49.9300 C   0  0  0  0  0  0  0  0  0  0  0  0
    6.6270   42.4360   49.3420 C   0  0  0  0  0  0  0  0  0  0  0  0
    7.1420   43.7000   49.6420 C   0  0  0  0  0  0  0  0  0  0  0  0
    7.9150   45.3680   53.0710 C   0  0  0  0  0  0  0  0  0  0  0  0
    2.4530   45.0210   53.3280 S   0  0  0  0  0  0  0  0  0  0  0  0
    1.1830   44.7910   54.3960 C   0  0  0  0  0  0  0  0  0  0  0  0
    0.0040   44.1690   54.1540 N   0  0  0  0  0  0  0  0  0  0  0  0
   -3.7520   44.3573   55.8665 H   0  0  0  0  0  0  0  0  0  0  0  0
   -3.2287   45.0926   54.3134 H   0  0  0  0  0  0  0  0  0  0  0  0
   -4.1214   43.5339   54.3134 H   0  0  0  0  0  0  0  0  0  0  0  0
   -1.4069   44.5632   57.2255 H   0  0  0  0  0  0  0  0  0  0  0  0
    0.7919   45.7177   57.6443 H   0  0  0  0  0  0  0  0  0  0  0  0
    4.6970   47.4050   53.9880 H   0  0  0  0  0  0  0  0  0  0  0  0
    6.7969   48.2683   54.2561 H   0  0  0  0  0  0  0  0  0  0  0  0
    8.0306   47.5183   55.3488 H   0  0  0  0  0  0  0  0  0  0  0  0
    8.8899   49.0793   53.4560 H   0  0  0  0  0  0  0  0  0  0  0  0
    9.6822   47.4753   53.6535 H   0  0  0  0  0  0  0  0  0  0  0  0
    7.4643   48.1643   51.6560 H   0  0  0  0  0  0  0  0  0  0  0  0
    9.2319   47.9233   51.2910 H   0  0  0  0  0  0  0  0  0  0  0  0
    9.0749   45.6952   51.2868 H   0  0  0  0  0  0  0  0  0  0  0  0
    6.5660   46.6740   50.3590 H   0  0  0  0  0  0  0  0  0  0  0  0
    4.7329   44.7608   51.8308 H   0  0  0  0  0  0  0  0  0  0  0  0
    3.8209   42.5039   51.2847 H   0  0  0  0  0  0  0  0  0  0  0  0
    5.0305   41.0147   49.6913 H   0  0  0  0  0  0  0  0  0  0  0  0
    7.1611   41.7771   48.6416 H   0  0  0  0  0  0  0  0  0  0  0  0
    8.0819   44.0298   49.1753 H   0  0  0  0  0  0  0  0  0  0  0  0
    7.3680   44.4330   52.8800 H   0  0  0  0  0  0  0  0  0  0  0  0
    8.8875   45.1491   53.5360 H   0  0  0  0  0  0  0  0  0  0  0  0
  1  2  1  0
  2  3  1  0
  3  4  2  0
  4  5  1  0
  5  6  2  0
  6  7  1  0
  7  8  2  0
  8  9  1  0
  9 10  1  0
 10 11  2  0
 10 12  1  0
 12 13  1  0
 13 14  1  0
 14 15  1  0
 15 16  1  0
 16 17  1  0
 17 18  1  0
 18 19  2  0
 19 20  1  0
 20 21  2  0
 21 22  1  0
 22 23  2  0
 16 24  1  0
  8 25  1  0
 25 26  1  0
 26 27  2  0
 27  3  1  0
 26  6  1  0
 24 12  1  0
 23 18  1  0
  1 28  1  0
  1 29  1  0
  1 30  1  0
  4 31  1  0
  5 32  1  0
  9 33  1  0
 13 34  1  0
 13 35  1  0
 14 36  1  0
 14 37  1  0
 15 38  1  0
 15 39  1  0
 16 40  1  6
 17 41  1  0
 19 42  1  0
 20 43  1  0
 21 44  1  0
 22 45  1  0
 23 46  1  0
 24 47  1  0
 24 48  1  0
M  END
>  <meeko>  (5) 
{"is_sidechain": [false], "free_energy": -8.072, "intermolecular_energy": -10.482, "internal_energy": -0.833}

$$$$
