ligand_34_conformer_3_docked
     RDKit          3D

 48 51  0  0  0  0  0  0  0  0999 V2000
    0.8810   44.6020   56.4890 C   0  0  0  0  0  0  0  0  0  0  0  0
    1.1810   44.7650   54.9900 C   0  0  0  0  0  0  0  0  0  0  0  0
   -0.1380   44.7100   54.1940 C   0  0  0  0  0  0  0  0  0  0  0  0
    2.0110   43.6970   54.6000 O   0  0  0  0  0  0  0  0  0  0  0  0
    1.9120   46.1050   54.7400 C   0  0  0  0  0  0  0  0  0  0  0  0
    3.1670   46.1020   55.3800 O   0  0  0  0  0  0  0  0  0  0  0  0
    4.0950   46.3690   54.4250 N   0  0  0  0  0  0  0  0  0  0  0  0
    5.1420   45.4340   54.1470 C   0  0  0  0  0  0  0  0  0  0  0  0
    5.0390   44.2420   54.5440 O   0  0  0  0  0  0  0  0  0  0  0  0
    6.3240   45.8430   53.3650 C   0  0  0  0  0  0  0  0  0  0  0  0
    7.3550   46.5810   53.9860 C   0  0  0  0  0  0  0  0  0  0  0  0
    8.5600   46.8740   53.2790 C   0  0  0  0  0  0  0  0  0  0  0  0
    9.7200   47.6410   53.8790 C   0  0  0  0  0  0  0  0  0  0  0  0
   10.3310   47.0930   55.1610 C   0  0  0  0  0  0  0  0  0  0  0  0
    9.4810   48.3570   55.2010 C   0  0  0  0  0  0  0  0  0  0  0  0
    8.7050   46.4340   51.9920 N   0  0  0  0  0  0  0  0  0  0  0  0
    7.7000   45.7500   51.3990 C   0  0  0  0  0  0  0  0  0  0  0  0
    7.6890   45.2780   50.1800 O   0  0  0  0  0  0  0  0  0  0  0  0
    6.5430   44.7010   49.9370 N   0  0  0  0  0  0  0  0  0  0  0  0
    5.7830   44.8120   51.0550 C   0  0  0  0  0  0  0  0  0  0  0  0
    4.3740   44.3860   51.1090 C   0  0  0  0  0  0  0  0  0  0  0  0
    4.0580   43.0200   51.1900 C   0  0  0  0  0  0  0  0  0  0  0  0
    2.7230   42.6100   51.2530 C   0  0  0  0  0  0  0  0  0  0  0  0
    1.6960   43.5560   51.2170 C   0  0  0  0  0  0  0  0  0  0  0  0
    2.0020   44.9150   51.1050 C   0  0  0  0  0  0  0  0  0  0  0  0
    3.3360   45.3310   51.0410 C   0  0  0  0  0  0  0  0  0  0  0  0
    6.5240   45.4720   52.0290 C   0  0  0  0  0  0  0  0  0  0  0  0
    1.6980   45.0459   57.0768 H   0  0  0  0  0  0  0  0  0  0  0  0
   -0.0636   45.1109   56.7314 H   0  0  0  0  0  0  0  0  0  0  0  0
    0.7940   43.5326   56.7314 H   0  0  0  0  0  0  0  0  0  0  0  0
   -0.9868   44.6746   54.8928 H   0  0  0  0  0  0  0  0  0  0  0  0
   -0.2216   45.6054   53.5606 H   0  0  0  0  0  0  0  0  0  0  0  0
   -0.1468   43.8107   53.5606 H   0  0  0  0  0  0  0  0  0  0  0  0
    2.2480   43.8250   53.6440 H   0  0  0  0  0  0  0  0  0  0  0  0
    2.0562   46.2438   53.6584 H   0  0  0  0  0  0  0  0  0  0  0  0
    1.3040   46.9266   55.1466 H   0  0  0  0  0  0  0  0  0  0  0  0
    4.1110   47.3160   53.9840 H   0  0  0  0  0  0  0  0  0  0  0  0
    7.2290   46.9323   55.0208 H   0  0  0  0  0  0  0  0  0  0  0  0
   10.1106   47.9377   52.8944 H   0  0  0  0  0  0  0  0  0  0  0  0
    9.9481   46.1586   55.5972 H   0  0  0  0  0  0  0  0  0  0  0  0
   11.3477   46.8285   55.4872 H   0  0  0  0  0  0  0  0  0  0  0  0
    8.4844   48.3352   55.6661 H   0  0  0  0  0  0  0  0  0  0  0  0
    9.6297   49.3833   55.5680 H   0  0  0  0  0  0  0  0  0  0  0  0
    4.8632   42.2706   51.2039 H   0  0  0  0  0  0  0  0  0  0  0  0
    2.4808   41.5398   51.3311 H   0  0  0  0  0  0  0  0  0  0  0  0
    0.6467   43.2314   51.2768 H   0  0  0  0  0  0  0  0  0  0  0  0
    1.1925   45.6588   51.0671 H   0  0  0  0  0  0  0  0  0  0  0  0
    3.5731   46.4001   50.9372 H   0  0  0  0  0  0  0  0  0  0  0  0
  1  2  1  0
  2  3  1  0
  2  4  1  0
  2  5  1  0
  5  6  1  0
  6  7  1  0
  7  8  1  0
  8  9  2  0
  8 10  1  0
 10 11  2  0
 11 12  1  0
 12 13  1  0
 13 14  1  0
 14 15  1  0
 12 16  2  0
 16 17  1  0
 17 18  1  0
 18 19  1  0
 19 20  2  0
 20 21  1  0
 21 22  2  0
 22 23  1  0
 23 24  2  0
 24 25  1  0
 25 26  2  0
 20 27  1  0
 27 10  1  0
 15 13  1  0
 27 17  2  0
 26 21  1  0
  1 28  1  0
  1 29  1  0
  1 30  1  0
  3 31  1  0
  3 32  1  0
  3 33  1  0
  4 34  1  0
  5 35  1  0
  5 36  1  0
  7 37  1  0
 11 38  1  0
 13 39  1  0
 14 40  1  0
 14 41  1  0
 15 42  1  0
 15 43  1  0
 22 44  1  0
 23 45  1  0
 24 46  1  0
 25 47  1  0
 26 48  1  0
M  END
>  <meeko>  (1) 
{"is_sidechain": [false], "free_energy": -8.419, "intermolecular_energy": -11.618, "internal_energy": -1.969}

$$$$
ligand_34_conformer_3_docked
     RDKit          3D

 48 51  0  0  0  0  0  0  0  0999 V2000
    5.3910   41.1430   48.0940 C   0  0  0  0  0  0  0  0  0  0  0  0
    6.0150   41.6410   49.4080 C   0  0  0  0  0  0  0  0  0  0  0  0
    6.5630   43.0680   49.2070 C   0  0  0  0  0  0  0  0  0  0  0  0
    7.0730   40.7720   49.7370 O   0  0  0  0  0  0  0  0  0  0  0  0
    4.9590   41.6180   50.5360 C   0  0  0  0  0  0  0  0  0  0  0  0
    4.1710   42.7850   50.4910 O   0  0  0  0  0  0  0  0  0  0  0  0
    4.6520   43.6210   51.4470 N   0  0  0  0  0  0  0  0  0  0  0  0
    4.7810   45.0230   51.1890 C   0  0  0  0  0  0  0  0  0  0  0  0
    4.1700   45.5400   50.2160 O   0  0  0  0  0  0  0  0  0  0  0  0
    5.5930   45.8760   52.0770 C   0  0  0  0  0  0  0  0  0  0  0  0
    6.9600   46.0850   51.7930 C   0  0  0  0  0  0  0  0  0  0  0  0
    7.7260   47.0060   52.5670 C   0  0  0  0  0  0  0  0  0  0  0  0
    9.1910   47.3010   52.3150 C   0  0  0  0  0  0  0  0  0  0  0  0
   10.1150   46.1120   52.0920 C   0  0  0  0  0  0  0  0  0  0  0  0
   10.1850   46.8980   53.3960 C   0  0  0  0  0  0  0  0  0  0  0  0
    7.1240   47.6850   53.5900 N   0  0  0  0  0  0  0  0  0  0  0  0
    5.8190   47.4590   53.8700 C   0  0  0  0  0  0  0  0  0  0  0  0
    5.1140   48.0210   54.8160 O   0  0  0  0  0  0  0  0  0  0  0  0
    3.9000   47.5380   54.8110 N   0  0  0  0  0  0  0  0  0  0  0  0
    3.8270   46.6210   53.8150 C   0  0  0  0  0  0  0  0  0  0  0  0
    2.6410   45.7770   53.5910 C   0  0  0  0  0  0  0  0  0  0  0  0
    1.7050   46.1300   52.6060 C   0  0  0  0  0  0  0  0  0  0  0  0
    0.5830   45.3270   52.3810 C   0  0  0  0  0  0  0  0  0  0  0  0
    0.3790   44.1770   53.1480 C   0  0  0  0  0  0  0  0  0  0  0  0
    1.2900   43.8360   54.1520 C   0  0  0  0  0  0  0  0  0  0  0  0
    2.4140   44.6370   54.3800 C   0  0  0  0  0  0  0  0  0  0  0  0
    5.0590   46.5680   53.1720 C   0  0  0  0  0  0  0  0  0  0  0  0
    4.5494   40.4714   48.3192 H   0  0  0  0  0  0  0  0  0  0  0  0
    5.0283   42.0027   47.5114 H   0  0  0  0  0  0  0  0  0  0  0  0
    6.1488   40.5987   47.5114 H   0  0  0  0  0  0  0  0  0  0  0  0
    6.7418   43.5336   50.1874 H   0  0  0  0  0  0  0  0  0  0  0  0
    7.5075   43.0223   48.6451 H   0  0  0  0  0  0  0  0  0  0  0  0
    5.8306   43.6662   48.6451 H   0  0  0  0  0  0  0  0  0  0  0  0
    6.9030   40.4110   50.6470 H   0  0  0  0  0  0  0  0  0  0  0  0
    4.3116   40.7377   50.4093 H   0  0  0  0  0  0  0  0  0  0  0  0
    5.4733   41.5704   51.5072 H   0  0  0  0  0  0  0  0  0  0  0  0
    5.0430   43.2150   52.3270 H   0  0  0  0  0  0  0  0  0  0  0  0
    7.4374   45.5339   50.9694 H   0  0  0  0  0  0  0  0  0  0  0  0
    8.9715   48.2301   51.7685 H   0  0  0  0  0  0  0  0  0  0  0  0
    9.7059   45.0909   52.0865 H   0  0  0  0  0  0  0  0  0  0  0  0
   10.8406   45.8254   51.3165 H   0  0  0  0  0  0  0  0  0  0  0  0
    9.8263   46.4444   54.3317 H   0  0  0  0  0  0  0  0  0  0  0  0
   10.9818   47.4139   53.9518 H   0  0  0  0  0  0  0  0  0  0  0  0
    1.8550   47.0417   52.0091 H   0  0  0  0  0  0  0  0  0  0  0  0
   -0.1404   45.6009   51.5989 H   0  0  0  0  0  0  0  0  0  0  0  0
   -0.4983   43.5401   52.9618 H   0  0  0  0  0  0  0  0  0  0  0  0
    1.1229   42.9369   54.7633 H   0  0  0  0  0  0  0  0  0  0  0  0
    3.1222   44.3735   55.1794 H   0  0  0  0  0  0  0  0  0  0  0  0
  1  2  1  0
  2  3  1  0
  2  4  1  0
  2  5  1  0
  5  6  1  0
  6  7  1  0
  7  8  1  0
  8  9  2  0
  8 10  1  0
 10 11  2  0
 11 12  1  0
 12 13  1  0
 13 14  1  0
 14 15  1  0
 12 16  2  0
 16 17  1  0
 17 18  1  0
 18 19  1  0
 19 20  2  0
 20 21  1  0
 21 22  2  0
 22 23  1  0
 23 24  2  0
 24 25  1  0
 25 26  2  0
 20 27  1  0
 27 10  1  0
 15 13  1  0
 27 17  2  0
 26 21  1  0
  1 28  1  0
  1 29  1  0
  1 30  1  0
  3 31  1  0
  3 32  1  0
  3 33  1  0
  4 34  1  0
  5 35  1  0
  5 36  1  0
  7 37  1  0
 11 38  1  0
 13 39  1  0
 14 40  1  0
 14 41  1  0
 15 42  1  0
 15 43  1  0
 22 44  1  0
 23 45  1  0
 24 46  1  0
 25 47  1  0
 26 48  1  0
M  END
>  <meeko>  (2) 
{"is_sidechain": [false], "free_energy": -8.287, "intermolecular_energy": -12.588, "internal_energy": -0.817}

$$$$
ligand_34_conformer_3_docked
     RDKit          3D

 48 51  0  0  0  0  0  0  0  0999 V2000
    9.1500   46.2970   53.0470 C   0  0  0  0  0  0  0  0  0  0  0  0
    8.2770   47.5610   53.1110 C   0  0  0  0  0  0  0  0  0  0  0  0
    8.3750   48.3200   51.7720 C   0  0  0  0  0  0  0  0  0  0  0  0
    8.7730   48.3730   54.1490 O   0  0  0  0  0  0  0  0  0  0  0  0
    6.8110   47.1770   53.4130 C   0  0  0  0  0  0  0  0  0  0  0  0
    6.7160   46.5720   54.6810 O   0  0  0  0  0  0  0  0  0  0  0  0
    5.3940   46.3840   54.9300 N   0  0  0  0  0  0  0  0  0  0  0  0
    4.7500   45.1610   54.5600 C   0  0  0  0  0  0  0  0  0  0  0  0
    5.4440   44.1430   54.2970 O   0  0  0  0  0  0  0  0  0  0  0  0
    3.2790   45.0710   54.5210 C   0  0  0  0  0  0  0  0  0  0  0  0
    2.5380   45.1520   55.7210 C   0  0  0  0  0  0  0  0  0  0  0  0
    1.1130   45.1940   55.6890 C   0  0  0  0  0  0  0  0  0  0  0  0
    0.2470   45.3010   56.9270 C   0  0  0  0  0  0  0  0  0  0  0  0
   -1.1720   44.7560   56.8360 C   0  0  0  0  0  0  0  0  0  0  0  0
   -0.9340   46.2610   56.8780 C   0  0  0  0  0  0  0  0  0  0  0  0
    0.4690   45.1520   54.4830 N   0  0  0  0  0  0  0  0  0  0  0  0
    1.1870   45.0490   53.3410 C   0  0  0  0  0  0  0  0  0  0  0  0
    0.7150   44.9900   52.1230 O   0  0  0  0  0  0  0  0  0  0  0  0
    1.6970   44.8620   51.2720 N   0  0  0  0  0  0  0  0  0  0  0  0
    2.8540   44.8370   51.9800 C   0  0  0  0  0  0  0  0  0  0  0  0
    4.1640   44.5760   51.3610 C   0  0  0  0  0  0  0  0  0  0  0  0
    4.9990   45.6490   51.0110 C   0  0  0  0  0  0  0  0  0  0  0  0
    6.2490   45.4080   50.4330 C   0  0  0  0  0  0  0  0  0  0  0  0
    6.6670   44.0980   50.1850 C   0  0  0  0  0  0  0  0  0  0  0  0
    5.8280   43.0260   50.5030 C   0  0  0  0  0  0  0  0  0  0  0  0
    4.5760   43.2620   51.0810 C   0  0  0  0  0  0  0  0  0  0  0  0
    2.5480   44.9800   53.3290 C   0  0  0  0  0  0  0  0  0  0  0  0
    9.3827   45.9600   54.0679 H   0  0  0  0  0  0  0  0  0  0  0  0
    8.6069   45.5029   52.5136 H   0  0  0  0  0  0  0  0  0  0  0  0
   10.0849   46.5237   52.5136 H   0  0  0  0  0  0  0  0  0  0  0  0
    8.5136   49.3934   51.9683 H   0  0  0  0  0  0  0  0  0  0  0  0
    9.2314   47.9389   51.1963 H   0  0  0  0  0  0  0  0  0  0  0  0
    7.4499   48.1690   51.1963 H   0  0  0  0  0  0  0  0  0  0  0  0
    8.0060   48.8580   54.5530 H   0  0  0  0  0  0  0  0  0  0  0  0
    6.1875   48.0830   53.3955 H   0  0  0  0  0  0  0  0  0  0  0  0
    6.4628   46.4654   52.6498 H   0  0  0  0  0  0  0  0  0  0  0  0
    4.8250   47.1880   55.2800 H   0  0  0  0  0  0  0  0  0  0  0  0
    3.0638   45.1829   56.6867 H   0  0  0  0  0  0  0  0  0  0  0  0
    1.0975   45.1498   57.6080 H   0  0  0  0  0  0  0  0  0  0  0  0
   -1.5199   44.2798   55.9075 H   0  0  0  0  0  0  0  0  0  0  0  0
   -1.7722   44.0465   57.4246 H   0  0  0  0  0  0  0  0  0  0  0  0
   -1.1101   46.8711   55.9798 H   0  0  0  0  0  0  0  0  0  0  0  0
   -1.2912   47.0878   57.5094 H   0  0  0  0  0  0  0  0  0  0  0  0
    4.6687   46.6825   51.1921 H   0  0  0  0  0  0  0  0  0  0  0  0
    6.9050   46.2518   50.1728 H   0  0  0  0  0  0  0  0  0  0  0  0
    7.6553   43.9104   49.7400 H   0  0  0  0  0  0  0  0  0  0  0  0
    6.1528   41.9951   50.2984 H   0  0  0  0  0  0  0  0  0  0  0  0
    3.9125   42.4169   51.3169 H   0  0  0  0  0  0  0  0  0  0  0  0
  1  2  1  0
  2  3  1  0
  2  4  1  0
  2  5  1  0
  5  6  1  0
  6  7  1  0
  7  8  1  0
  8  9  2  0
  8 10  1  0
 10 11  2  0
 11 12  1  0
 12 13  1  0
 13 14  1  0
 14 15  1  0
 12 16  2  0
 16 17  1  0
 17 18  1  0
 18 19  1  0
 19 20  2  0
 20 21  1  0
 21 22  2  0
 22 23  1  0
 23 24  2  0
 24 25  1  0
 25 26  2  0
 20 27  1  0
 27 10  1  0
 15 13  1  0
 27 17  2  0
 26 21  1  0
  1 28  1  0
  1 29  1  0
  1 30  1  0
  3 31  1  0
  3 32  1  0
  3 33  1  0
  4 34  1  0
  5 35  1  0
  5 36  1  0
  7 37  1  0
 11 38  1  0
 13 39  1  0
 14 40  1  0
 14 41  1  0
 15 42  1  0
 15 43  1  0
 22 44  1  0
 23 45  1  0
 24 46  1  0
 25 47  1  0
 26 48  1  0
M  END
>  <meeko>  (3) 
{"is_sidechain": [false], "free_energy": -8.159, "intermolecular_energy": -12.057, "internal_energy": -1.171}

$$$$
ligand_34_conformer_3_docked
     RDKit          3D

 48 51  0  0  0  0  0  0  0  0999 V2000
    1.0960   46.1970   56.9200 C   0  0  0  0  0  0  0  0  0  0  0  0
    1.1120   45.1600   55.7850 C   0  0  0  0  0  0  0  0  0  0  0  0
   -0.2500   44.4400   55.7300 C   0  0  0  0  0  0  0  0  0  0  0  0
    2.1260   44.2260   56.0710 O   0  0  0  0  0  0  0  0  0  0  0  0
    1.4160   45.8550   54.4380 C   0  0  0  0  0  0  0  0  0  0  0  0
    2.5590   46.6700   54.5570 O   0  0  0  0  0  0  0  0  0  0  0  0
    3.3620   46.3760   53.5020 N   0  0  0  0  0  0  0  0  0  0  0  0
    4.5570   45.6100   53.6880 C   0  0  0  0  0  0  0  0  0  0  0  0
    4.7140   44.9430   54.7450 O   0  0  0  0  0  0  0  0  0  0  0  0
    5.5890   45.5650   52.6360 C   0  0  0  0  0  0  0  0  0  0  0  0
    6.7290   46.3930   52.7340 C   0  0  0  0  0  0  0  0  0  0  0  0
    7.7950   46.2700   51.7940 C   0  0  0  0  0  0  0  0  0  0  0  0
    9.0580   47.1050   51.8410 C   0  0  0  0  0  0  0  0  0  0  0  0
   10.3860   46.3610   51.8480 C   0  0  0  0  0  0  0  0  0  0  0  0
    9.8900   47.0480   53.1150 C   0  0  0  0  0  0  0  0  0  0  0  0
    7.7010   45.3430   50.7940 N   0  0  0  0  0  0  0  0  0  0  0  0
    6.5940   44.5710   50.6940 C   0  0  0  0  0  0  0  0  0  0  0  0
    6.3580   43.6550   49.7920 O   0  0  0  0  0  0  0  0  0  0  0  0
    5.1760   43.1350   49.9860 N   0  0  0  0  0  0  0  0  0  0  0  0
    4.6280   43.7510   51.0620 C   0  0  0  0  0  0  0  0  0  0  0  0
    3.2430   43.5100   51.5010 C   0  0  0  0  0  0  0  0  0  0  0  0
    2.1810   44.1720   50.8630 C   0  0  0  0  0  0  0  0  0  0  0  0
    0.8630   43.9390   51.2680 C   0  0  0  0  0  0  0  0  0  0  0  0
    0.5970   43.0590   52.3210 C   0  0  0  0  0  0  0  0  0  0  0  0
    1.6510   42.4210   52.9810 C   0  0  0  0  0  0  0  0  0  0  0  0
    2.9710   42.6520   52.5800 C   0  0  0  0  0  0  0  0  0  0  0  0
    5.5430   44.6750   51.5550 C   0  0  0  0  0  0  0  0  0  0  0  0
    1.1040   45.6788   57.8903 H   0  0  0  0  0  0  0  0  0  0  0  0
    1.9843   46.8409   56.8409 H   0  0  0  0  0  0  0  0  0  0  0  0
    0.1882   46.8132   56.8409 H   0  0  0  0  0  0  0  0  0  0  0  0
   -0.6067   44.2515   56.7533 H   0  0  0  0  0  0  0  0  0  0  0  0
   -0.9773   45.0714   55.1987 H   0  0  0  0  0  0  0  0  0  0  0  0
   -0.1378   43.4834   55.1987 H   0  0  0  0  0  0  0  0  0  0  0  0
    2.4740   43.8760   55.2090 H   0  0  0  0  0  0  0  0  0  0  0  0
    1.5935   45.0908   53.6670 H   0  0  0  0  0  0  0  0  0  0  0  0
    0.5569   46.4814   54.1559 H   0  0  0  0  0  0  0  0  0  0  0  0
    3.1660   46.8190   52.5760 H   0  0  0  0  0  0  0  0  0  0  0  0
    6.7954   47.1379   53.5407 H   0  0  0  0  0  0  0  0  0  0  0  0
    8.6201   47.9115   51.2345 H   0  0  0  0  0  0  0  0  0  0  0  0
   10.4016   45.2628   51.7878 H   0  0  0  0  0  0  0  0  0  0  0  0
   11.3066   46.4068   51.2476 H   0  0  0  0  0  0  0  0  0  0  0  0
    9.5474   46.4457   53.9693 H   0  0  0  0  0  0  0  0  0  0  0  0
   10.3040   47.7952   53.8081 H   0  0  0  0  0  0  0  0  0  0  0  0
    2.3866   44.8755   50.0427 H   0  0  0  0  0  0  0  0  0  0  0  0
    0.0335   44.4495   50.7567 H   0  0  0  0  0  0  0  0  0  0  0  0
   -0.4414   42.8687   52.6301 H   0  0  0  0  0  0  0  0  0  0  0  0
    1.4423   41.7366   53.8165 H   0  0  0  0  0  0  0  0  0  0  0  0
    3.7992   42.1602   53.1113 H   0  0  0  0  0  0  0  0  0  0  0  0
  1  2  1  0
  2  3  1  0
  2  4  1  0
  2  5  1  0
  5  6  1  0
  6  7  1  0
  7  8  1  0
  8  9  2  0
  8 10  1  0
 10 11  2  0
 11 12  1  0
 12 13  1  0
 13 14  1  0
 14 15  1  0
 12 16  2  0
 16 17  1  0
 17 18  1  0
 18 19  1  0
 19 20  2  0
 20 21  1  0
 21 22  2  0
 22 23  1  0
 23 24  2  0
 24 25  1  0
 25 26  2  0
 20 27  1  0
 27 10  1  0
 15 13  1  0
 27 17  2  0
 26 21  1  0
  1 28  1  0
  1 29  1  0
  1 30  1  0
  3 31  1  0
  3 32  1  0
  3 33  1  0
  4 34  1  0
  5 35  1  0
  5 36  1  0
  7 37  1  0
 11 38  1  0
 13 39  1  0
 14 40  1  0
 14 41  1  0
 15 42  1  0
 15 43  1  0
 22 44  1  0
 23 45  1  0
 24 46  1  0
 25 47  1  0
 26 48  1  0
M  END
>  <meeko>  (4) 
{"is_sidechain": [false], "free_energy": -7.921, "intermolecular_energy": -11.02, "internal_energy": -1.88}

$$$$
ligand_34_conformer_3_docked
     RDKit          3D

 48 51  0  0  0  0  0  0  0  0999 V2000
    2.3300   46.3180   53.8480 C   0  0  0  0  0  0  0  0  0  0  0  0
    2.8260   45.4710   55.0320 C   0  0  0  0  0  0  0  0  0  0  0  0
    1.6640   44.6110   55.5670 C   0  0  0  0  0  0  0  0  0  0  0  0
    3.2610   46.3540   56.0390 O   0  0  0  0  0  0  0  0  0  0  0  0
    4.0050   44.5770   54.5850 C   0  0  0  0  0  0  0  0  0  0  0  0
    5.1390   45.3660   54.3100 O   0  0  0  0  0  0  0  0  0  0  0  0
    5.8470   44.7170   53.3510 N   0  0  0  0  0  0  0  0  0  0  0  0
    5.5440   44.9110   51.9660 C   0  0  0  0  0  0  0  0  0  0  0  0
    4.8500   45.9000   51.6090 O   0  0  0  0  0  0  0  0  0  0  0  0
    6.0690   43.9830   50.9470 C   0  0  0  0  0  0  0  0  0  0  0  0
    5.2970   42.8720   50.5440 C   0  0  0  0  0  0  0  0  0  0  0  0
    5.7340   42.0390   49.4710 C   0  0  0  0  0  0  0  0  0  0  0  0
    4.9560   40.8420   48.9660 C   0  0  0  0  0  0  0  0  0  0  0  0
    3.8320   41.1080   47.9730 C   0  0  0  0  0  0  0  0  0  0  0  0
    3.5040   40.7100   49.4070 C   0  0  0  0  0  0  0  0  0  0  0  0
    6.9110   42.3260   48.8370 N   0  0  0  0  0  0  0  0  0  0  0  0
    7.6560   43.3780   49.2480 C   0  0  0  0  0  0  0  0  0  0  0  0
    8.8000   43.7690   48.7500 O   0  0  0  0  0  0  0  0  0  0  0  0
    9.2450   44.8000   49.4160 N   0  0  0  0  0  0  0  0  0  0  0  0
    8.3430   45.0820   50.3880 C   0  0  0  0  0  0  0  0  0  0  0  0
    8.5740   46.1080   51.4190 C   0  0  0  0  0  0  0  0  0  0  0  0
    7.9010   47.3380   51.3450 C   0  0  0  0  0  0  0  0  0  0  0  0
    8.1070   48.3120   52.3270 C   0  0  0  0  0  0  0  0  0  0  0  0
    8.9980   48.0730   53.3760 C   0  0  0  0  0  0  0  0  0  0  0  0
    9.6950   46.8640   53.4390 C   0  0  0  0  0  0  0  0  0  0  0  0
    9.4920   45.8860   52.4590 C   0  0  0  0  0  0  0  0  0  0  0  0
    7.2870   44.1830   50.2850 C   0  0  0  0  0  0  0  0  0  0  0  0
    1.8083   47.2089   54.2276 H   0  0  0  0  0  0  0  0  0  0  0  0
    3.1885   46.6293   53.2348 H   0  0  0  0  0  0  0  0  0  0  0  0
    1.6384   45.7216   53.2348 H   0  0  0  0  0  0  0  0  0  0  0  0
    1.6769   44.6206   56.6669 H   0  0  0  0  0  0  0  0  0  0  0  0
    0.7086   45.0213   55.2080 H   0  0  0  0  0  0  0  0  0  0  0  0
    1.7772   43.5774   55.2080 H   0  0  0  0  0  0  0  0  0  0  0  0
    2.5010   46.9470   56.2770 H   0  0  0  0  0  0  0  0  0  0  0  0
    4.2447   43.8642   55.3877 H   0  0  0  0  0  0  0  0  0  0  0  0
    3.7169   44.0339   53.6729 H   0  0  0  0  0  0  0  0  0  0  0  0
    6.5320   43.9800   53.6360 H   0  0  0  0  0  0  0  0  0  0  0  0
    4.3523   42.6469   51.0605 H   0  0  0  0  0  0  0  0  0  0  0  0
    5.8375   40.1843   48.9876 H   0  0  0  0  0  0  0  0  0  0  0  0
    3.6342   42.1336   47.6279 H   0  0  0  0  0  0  0  0  0  0  0  0
    3.5653   40.7218   46.9781 H   0  0  0  0  0  0  0  0  0  0  0  0
    3.0694   41.4482   50.0970 H   0  0  0  0  0  0  0  0  0  0  0  0
    2.9025   39.9175   49.8761 H   0  0  0  0  0  0  0  0  0  0  0  0
    7.2099   47.5360   50.5124 H   0  0  0  0  0  0  0  0  0  0  0  0
    7.5663   49.2684   52.2733 H   0  0  0  0  0  0  0  0  0  0  0  0
    9.1508   48.8369   54.1526 H   0  0  0  0  0  0  0  0  0  0  0  0
   10.4041   46.6806   54.2597 H   0  0  0  0  0  0  0  0  0  0  0  0
   10.0528   44.9407   52.5031 H   0  0  0  0  0  0  0  0  0  0  0  0
  1  2  1  0
  2  3  1  0
  2  4  1  0
  2  5  1  0
  5  6  1  0
  6  7  1  0
  7  8  1  0
  8  9  2  0
  8 10  1  0
 10 11  2  0
 11 12  1  0
 12 13  1  0
 13 14  1  0
 14 15  1  0
 12 16  2  0
 16 17  1  0
 17 18  1  0
 18 19  1  0
 19 20  2  0
 20 21  1  0
 21 22  2  0
 22 23  1  0
 23 24  2  0
 24 25  1  0
 25 26  2  0
 20 27  1  0
 27 10  1  0
 15 13  1  0
 27 17  2  0
 26 21  1  0
  1 28  1  0
  1 29  1  0
  1 30  1  0
  3 31  1  0
  3 32  1  0
  3 33  1  0
  4 34  1  0
  5 35  1  0
  5 36  1  0
  7 37  1  0
 11 38  1  0
 13 39  1  0
 14 40  1  0
 14 41  1  0
 15 42  1  0
 15 43  1  0
 22 44  1  0
 23 45  1  0
 24 46  1  0
 25 47  1  0
 26 48  1  0
M  END
>  <meeko>  (5) 
{"is_sidechain": [false], "free_energy": -7.699, "intermolecular_energy": -11.423, "internal_energy": -1.171}

$$$$
