ligand_98_conformer_2_docked
     RDKit          3D

 49 51  0  0  0  0  0  0  0  0999 V2000
   10.3530   45.9760   51.6960 C   0  0  0  0  0  0  0  0  0  0  0  0
    9.2720   46.0860   52.7820 C   0  0  1  0  0  0  0  0  0  0  0  0
    9.9140   46.2910   54.0230 O   0  0  0  0  0  0  0  0  0  0  0  0
    9.5470   47.5670   54.4790 C   0  0  0  0  0  0  0  0  0  0  0  0
    8.1820   47.8820   53.9240 C   0  0  0  0  0  0  0  0  0  0  0  0
    8.1870   47.1890   52.5670 C   0  0  1  0  0  0  0  0  0  0  0  0
    8.5190   48.2290   51.4680 C   0  0  0  0  0  0  0  0  0  0  0  0
    6.8590   46.5960   52.2960 N   0  0  0  0  0  0  0  0  0  0  0  0
    6.5500   45.7860   51.1490 C   0  0  0  0  0  0  0  0  0  0  0  0
    7.4270   45.5500   50.2770 O   0  0  0  0  0  0  0  0  0  0  0  0
    5.1850   45.1540   51.0130 C   0  0  0  0  0  0  0  0  0  0  0  0
    5.0240   43.9400   51.9650 C   0  0  0  0  0  0  0  0  0  0  0  0
    4.2810   44.3000   53.2570 C   0  0  0  0  0  0  0  0  0  0  0  0
    2.9720   44.9040   52.9590 N   0  0  0  0  0  0  0  0  0  0  0  0
    1.9130   44.8500   53.9410 C   0  0  0  0  0  0  0  0  0  0  0  0
    0.6930   44.2210   53.6290 C   0  0  0  0  0  0  0  0  0  0  0  0
   -0.3330   44.1500   54.5750 C   0  0  0  0  0  0  0  0  0  0  0  0
   -0.1590   44.7100   55.8440 C   0  0  0  0  0  0  0  0  0  0  0  0
   -1.2170   44.6360   56.8180 C   0  0  0  0  0  0  0  0  0  0  0  0
   -2.0670   44.5750   57.6000 N   0  0  0  0  0  0  0  0  0  0  0  0
    1.0450   45.3450   56.1640 C   0  0  0  0  0  0  0  0  0  0  0  0
    2.0770   45.4180   55.2210 C   0  0  0  0  0  0  0  0  0  0  0  0
    3.2160   46.0740   55.5530 F   0  0  0  0  0  0  0  0  0  0  0  0
    2.7730   45.6210   51.6880 C   0  0  0  0  0  0  0  0  0  0  0  0
    4.0900   46.2290   51.2050 C   0  0  0  0  0  0  0  0  0  0  0  0
   11.3404   45.8755   52.1703 H   0  0  0  0  0  0  0  0  0  0  0  0
   10.1554   45.0933   51.0700 H   0  0  0  0  0  0  0  0  0  0  0  0
   10.3372   46.8804   51.0700 H   0  0  0  0  0  0  0  0  0  0  0  0
    8.7101   45.1412   52.7405 H   0  0  0  0  0  0  0  0  0  0  0  0
    9.5147   47.5760   55.5785 H   0  0  0  0  0  0  0  0  0  0  0  0
   10.2787   48.3180   54.1463 H   0  0  0  0  0  0  0  0  0  0  0  0
    7.3903   47.4761   54.5709 H   0  0  0  0  0  0  0  0  0  0  0  0
    7.9839   48.9618   53.8552 H   0  0  0  0  0  0  0  0  0  0  0  0
    8.8213   49.1761   51.9388 H   0  0  0  0  0  0  0  0  0  0  0  0
    9.3413   47.8516   50.8424 H   0  0  0  0  0  0  0  0  0  0  0  0
    7.6301   48.3978   50.8424 H   0  0  0  0  0  0  0  0  0  0  0  0
    6.0770   46.7810   52.9650 H   0  0  0  0  0  0  0  0  0  0  0  0
    5.0722   44.7479   49.9970 H   0  0  0  0  0  0  0  0  0  0  0  0
    4.4603   43.1538   51.4415 H   0  0  0  0  0  0  0  0  0  0  0  0
    6.0318   43.5985   52.2437 H   0  0  0  0  0  0  0  0  0  0  0  0
    4.1295   43.3871   53.8517 H   0  0  0  0  0  0  0  0  0  0  0  0
    4.8846   45.0283   53.8184 H   0  0  0  0  0  0  0  0  0  0  0  0
    0.5459   43.7814   52.6315 H   0  0  0  0  0  0  0  0  0  0  0  0
   -1.2802   43.6521   54.3204 H   0  0  0  0  0  0  0  0  0  0  0  0
    1.1818   45.7891   57.1610 H   0  0  0  0  0  0  0  0  0  0  0  0
    2.3996   44.9170   50.9297 H   0  0  0  0  0  0  0  0  0  0  0  0
    2.0442   46.4297   51.8458 H   0  0  0  0  0  0  0  0  0  0  0  0
    3.9166   46.7356   50.2441 H   0  0  0  0  0  0  0  0  0  0  0  0
    4.4389   46.9384   51.9699 H   0  0  0  0  0  0  0  0  0  0  0  0
  1  2  1  0
  2  3  1  0
  3  4  1  0
  4  5  1  0
  5  6  1  0
  6  7  1  0
  6  8  1  6
  8  9  1  0
  9 10  2  0
  9 11  1  0
 11 12  1  0
 12 13  1  0
 13 14  1  0
 14 15  1  0
 15 16  2  0
 16 17  1  0
 17 18  2  0
 18 19  1  0
 19 20  3  0
 18 21  1  0
 21 22  2  0
 22 23  1  0
 14 24  1  0
 24 25  1  0
  6  2  1  0
 25 11  1  0
 22 15  1  0
  1 26  1  0
  1 27  1  0
  1 28  1  0
  2 29  1  1
  4 30  1  0
  4 31  1  0
  5 32  1  0
  5 33  1  0
  7 34  1  0
  7 35  1  0
  7 36  1  0
  8 37  1  0
 11 38  1  0
 12 39  1  0
 12 40  1  0
 13 41  1  0
 13 42  1  0
 16 43  1  0
 17 44  1  0
 21 45  1  0
 24 46  1  0
 24 47  1  0
 25 48  1  0
 25 49  1  0
M  END
>  <meeko>  (1) 
{"is_sidechain": [false], "free_energy": -9.575, "intermolecular_energy": -11.255, "internal_energy": -0.252}

$$$$
ligand_98_conformer_2_docked
     RDKit          3D

 49 51  0  0  0  0  0  0  0  0999 V2000
   10.4900   46.1690   51.6120 C   0  0  0  0  0  0  0  0  0  0  0  0
    9.4510   46.0850   52.7410 C   0  0  1  0  0  0  0  0  0  0  0  0
   10.1190   46.2640   53.9710 O   0  0  0  0  0  0  0  0  0  0  0  0
    9.6450   47.4580   54.5360 C   0  0  0  0  0  0  0  0  0  0  0  0
    8.2320   47.6690   54.0550 C   0  0  0  0  0  0  0  0  0  0  0  0
    8.2500   47.0810   52.6490 C   0  0  1  0  0  0  0  0  0  0  0  0
    8.4280   48.2280   51.6230 C   0  0  0  0  0  0  0  0  0  0  0  0
    6.9800   46.3740   52.3790 N   0  0  0  0  0  0  0  0  0  0  0  0
    5.6800   46.8700   52.7450 C   0  0  0  0  0  0  0  0  0  0  0  0
    5.5620   47.9660   53.3550 O   0  0  0  0  0  0  0  0  0  0  0  0
    4.4380   46.1120   52.3430 C   0  0  0  0  0  0  0  0  0  0  0  0
    4.3340   44.7560   53.0910 C   0  0  0  0  0  0  0  0  0  0  0  0
    3.4050   44.8260   54.3090 C   0  0  0  0  0  0  0  0  0  0  0  0
    2.0700   45.3110   53.9240 N   0  0  0  0  0  0  0  0  0  0  0  0
    0.9220   44.9840   54.7380 C   0  0  0  0  0  0  0  0  0  0  0  0
   -0.1420   44.2410   54.1930 C   0  0  0  0  0  0  0  0  0  0  0  0
   -1.2510   43.9070   54.9750 C   0  0  0  0  0  0  0  0  0  0  0  0
   -1.3160   44.3140   56.3120 C   0  0  0  0  0  0  0  0  0  0  0  0
   -2.4600   43.9690   57.1160 C   0  0  0  0  0  0  0  0  0  0  0  0
   -3.3780   43.6900   57.7630 N   0  0  0  0  0  0  0  0  0  0  0  0
   -0.2700   45.0590   56.8630 C   0  0  0  0  0  0  0  0  0  0  0  0
    0.8440   45.3950   56.0850 C   0  0  0  0  0  0  0  0  0  0  0  0
    1.8220   46.1510   56.6420 F   0  0  0  0  0  0  0  0  0  0  0  0
    1.9230   46.1850   52.7470 C   0  0  0  0  0  0  0  0  0  0  0  0
    3.1930   47.0090   52.5330 C   0  0  0  0  0  0  0  0  0  0  0  0
   11.4974   46.2504   52.0461 H   0  0  0  0  0  0  0  0  0  0  0  0
   10.4306   45.2631   50.9908 H   0  0  0  0  0  0  0  0  0  0  0  0
   10.2858   47.0536   50.9908 H   0  0  0  0  0  0  0  0  0  0  0  0
    8.9885   45.0915   52.6463 H   0  0  0  0  0  0  0  0  0  0  0  0
    9.6591   47.3837   55.6334 H   0  0  0  0  0  0  0  0  0  0  0  0
   10.2821   48.3032   54.2364 H   0  0  0  0  0  0  0  0  0  0  0  0
    7.5138   47.1366   54.6958 H   0  0  0  0  0  0  0  0  0  0  0  0
    7.9224   48.7243   54.0768 H   0  0  0  0  0  0  0  0  0  0  0  0
    8.5755   49.1782   52.1572 H   0  0  0  0  0  0  0  0  0  0  0  0
    9.3050   48.0224   50.9916 H   0  0  0  0  0  0  0  0  0  0  0  0
    7.5299   48.2978   50.9916 H   0  0  0  0  0  0  0  0  0  0  0  0
    7.0100   45.4430   51.9040 H   0  0  0  0  0  0  0  0  0  0  0  0
    4.4986   45.8562   51.2749 H   0  0  0  0  0  0  0  0  0  0  0  0
    3.9459   43.9980   52.3946 H   0  0  0  0  0  0  0  0  0  0  0  0
    5.3398   44.4963   53.4528 H   0  0  0  0  0  0  0  0  0  0  0  0
    3.3106   43.8219   54.7481 H   0  0  0  0  0  0  0  0  0  0  0  0
    3.8359   45.5260   55.0399 H   0  0  0  0  0  0  0  0  0  0  0  0
   -0.1002   43.9202   53.1416 H   0  0  0  0  0  0  0  0  0  0  0  0
   -2.0745   43.3229   54.5384 H   0  0  0  0  0  0  0  0  0  0  0  0
   -0.3223   45.3829   57.9129 H   0  0  0  0  0  0  0  0  0  0  0  0
    1.7383   45.5660   51.8567 H   0  0  0  0  0  0  0  0  0  0  0  0
    1.0778   46.8690   52.9138 H   0  0  0  0  0  0  0  0  0  0  0  0
    3.0647   47.6336   51.6366 H   0  0  0  0  0  0  0  0  0  0  0  0
    3.3525   47.6277   53.4284 H   0  0  0  0  0  0  0  0  0  0  0  0
  1  2  1  0
  2  3  1  0
  3  4  1  0
  4  5  1  0
  5  6  1  0
  6  7  1  0
  6  8  1  6
  8  9  1  0
  9 10  2  0
  9 11  1  0
 11 12  1  0
 12 13  1  0
 13 14  1  0
 14 15  1  0
 15 16  2  0
 16 17  1  0
 17 18  2  0
 18 19  1  0
 19 20  3  0
 18 21  1  0
 21 22  2  0
 22 23  1  0
 14 24  1  0
 24 25  1  0
  6  2  1  0
 25 11  1  0
 22 15  1  0
  1 26  1  0
  1 27  1  0
  1 28  1  0
  2 29  1  1
  4 30  1  0
  4 31  1  0
  5 32  1  0
  5 33  1  0
  7 34  1  0
  7 35  1  0
  7 36  1  0
  8 37  1  0
 11 38  1  0
 12 39  1  0
 12 40  1  0
 13 41  1  0
 13 42  1  0
 16 43  1  0
 17 44  1  0
 21 45  1  0
 24 46  1  0
 24 47  1  0
 25 48  1  0
 25 49  1  0
M  END
>  <meeko>  (2) 
{"is_sidechain": [false], "free_energy": -8.852, "intermolecular_energy": -10.679, "internal_energy": 0.022}

$$$$
ligand_98_conformer_2_docked
     RDKit          3D

 49 51  0  0  0  0  0  0  0  0999 V2000
   -1.5380   43.6040   53.8740 C   0  0  0  0  0  0  0  0  0  0  0  0
   -1.1320   42.9060   52.5670 C   0  0  1  0  0  0  0  0  0  0  0  0
   -1.9970   41.8090   52.3650 O   0  0  0  0  0  0  0  0  0  0  0  0
   -2.7420   42.0710   51.2050 C   0  0  0  0  0  0  0  0  0  0  0  0
   -1.9060   42.9440   50.3050 C   0  0  0  0  0  0  0  0  0  0  0  0
   -1.1130   43.7990   51.2850 C   0  0  1  0  0  0  0  0  0  0  0  0
   -1.8080   45.1750   51.4350 C   0  0  0  0  0  0  0  0  0  0  0  0
    0.2650   43.9980   50.7850 N   0  0  0  0  0  0  0  0  0  0  0  0
    1.2510   44.8270   51.4250 C   0  0  0  0  0  0  0  0  0  0  0  0
    0.9670   45.4630   52.4740 O   0  0  0  0  0  0  0  0  0  0  0  0
    2.6570   44.8910   50.8800 C   0  0  0  0  0  0  0  0  0  0  0  0
    3.1740   46.3530   50.8130 C   0  0  0  0  0  0  0  0  0  0  0  0
    4.0560   46.7200   52.0120 C   0  0  0  0  0  0  0  0  0  0  0  0
    5.1790   45.7780   52.1460 N   0  0  0  0  0  0  0  0  0  0  0  0
    6.3830   46.1850   52.8320 C   0  0  0  0  0  0  0  0  0  0  0  0
    6.3360   46.5310   54.1960 C   0  0  0  0  0  0  0  0  0  0  0  0
    7.4960   46.9130   54.8740 C   0  0  0  0  0  0  0  0  0  0  0  0
    8.7210   46.9590   54.2000 C   0  0  0  0  0  0  0  0  0  0  0  0
    9.9160   47.3530   54.9010 C   0  0  0  0  0  0  0  0  0  0  0  0
   10.8760   47.6670   55.4650 N   0  0  0  0  0  0  0  0  0  0  0  0
    8.7800   46.6250   52.8450 C   0  0  0  0  0  0  0  0  0  0  0  0
    7.6220   46.2410   52.1600 C   0  0  0  0  0  0  0  0  0  0  0  0
    7.7100   45.9610   50.8360 F   0  0  0  0  0  0  0  0  0  0  0  0
    5.0390   44.4020   51.6390 C   0  0  0  0  0  0  0  0  0  0  0  0
    3.5780   43.9560   51.6980 C   0  0  0  0  0  0  0  0  0  0  0  0
   -1.1913   43.0079   54.7310 H   0  0  0  0  0  0  0  0  0  0  0  0
   -1.0803   44.6035   53.9134 H   0  0  0  0  0  0  0  0  0  0  0  0
   -2.6331   43.7003   53.9134 H   0  0  0  0  0  0  0  0  0  0  0  0
   -0.0831   42.6044   52.7039 H   0  0  0  0  0  0  0  0  0  0  0  0
   -2.9811   41.1271   50.6932 H   0  0  0  0  0  0  0  0  0  0  0  0
   -3.6848   42.5764   51.4611 H   0  0  0  0  0  0  0  0  0  0  0  0
   -1.2352   42.3369   49.6793 H   0  0  0  0  0  0  0  0  0  0  0  0
   -2.5077   43.5397   49.6028 H   0  0  0  0  0  0  0  0  0  0  0  0
   -1.9272   45.4111   52.5027 H   0  0  0  0  0  0  0  0  0  0  0  0
   -1.1935   45.9505   50.9544 H   0  0  0  0  0  0  0  0  0  0  0  0
   -2.7969   45.1407   50.9544 H   0  0  0  0  0  0  0  0  0  0  0  0
    0.5540   43.5230   49.8990 H   0  0  0  0  0  0  0  0  0  0  0  0
    2.6606   44.5293   49.8412 H   0  0  0  0  0  0  0  0  0  0  0  0
    3.7619   46.4773   49.8916 H   0  0  0  0  0  0  0  0  0  0  0  0
    2.2979   47.0180   50.8269 H   0  0  0  0  0  0  0  0  0  0  0  0
    4.4531   47.7358   51.8694 H   0  0  0  0  0  0  0  0  0  0  0  0
    3.4453   46.6709   52.9256 H   0  0  0  0  0  0  0  0  0  0  0  0
    5.3765   46.5002   54.7330 H   0  0  0  0  0  0  0  0  0  0  0  0
    7.4461   47.1783   55.9404 H   0  0  0  0  0  0  0  0  0  0  0  0
    9.7423   46.6641   52.3135 H   0  0  0  0  0  0  0  0  0  0  0  0
    5.3876   44.3631   50.5964 H   0  0  0  0  0  0  0  0  0  0  0  0
    5.6422   43.7287   52.2658 H   0  0  0  0  0  0  0  0  0  0  0  0
    3.5006   42.9365   51.2924 H   0  0  0  0  0  0  0  0  0  0  0  0
    3.2529   43.9902   52.7483 H   0  0  0  0  0  0  0  0  0  0  0  0
  1  2  1  0
  2  3  1  0
  3  4  1  0
  4  5  1  0
  5  6  1  0
  6  7  1  0
  6  8  1  6
  8  9  1  0
  9 10  2  0
  9 11  1  0
 11 12  1  0
 12 13  1  0
 13 14  1  0
 14 15  1  0
 15 16  2  0
 16 17  1  0
 17 18  2  0
 18 19  1  0
 19 20  3  0
 18 21  1  0
 21 22  2  0
 22 23  1  0
 14 24  1  0
 24 25  1  0
  6  2  1  0
 25 11  1  0
 22 15  1  0
  1 26  1  0
  1 27  1  0
  1 28  1  0
  2 29  1  1
  4 30  1  0
  4 31  1  0
  5 32  1  0
  5 33  1  0
  7 34  1  0
  7 35  1  0
  7 36  1  0
  8 37  1  0
 11 38  1  0
 12 39  1  0
 12 40  1  0
 13 41  1  0
 13 42  1  0
 16 43  1  0
 17 44  1  0
 21 45  1  0
 24 46  1  0
 24 47  1  0
 25 48  1  0
 25 49  1  0
M  END
>  <meeko>  (3) 
{"is_sidechain": [false], "free_energy": -8.023, "intermolecular_energy": -9.516, "internal_energy": -0.166}

$$$$
ligand_98_conformer_2_docked
     RDKit          3D

 49 51  0  0  0  0  0  0  0  0999 V2000
   -1.3890   46.8080   56.8550 C   0  0  0  0  0  0  0  0  0  0  0  0
   -0.9880   45.3490   56.5930 C   0  0  1  0  0  0  0  0  0  0  0  0
   -1.4350   44.5660   57.6790 O   0  0  0  0  0  0  0  0  0  0  0  0
   -2.4060   43.6810   57.1860 C   0  0  0  0  0  0  0  0  0  0  0  0
   -2.0900   43.4060   55.7390 C   0  0  0  0  0  0  0  0  0  0  0  0
   -1.4950   44.7230   55.2540 C   0  0  1  0  0  0  0  0  0  0  0  0
   -2.5920   45.5360   54.5250 C   0  0  0  0  0  0  0  0  0  0  0  0
   -0.3770   44.4610   54.3220 N   0  0  0  0  0  0  0  0  0  0  0  0
   -0.4410   43.5460   53.2130 C   0  0  0  0  0  0  0  0  0  0  0  0
   -1.4900   42.8850   52.9890 O   0  0  0  0  0  0  0  0  0  0  0  0
    0.7280   43.4190   52.2670 C   0  0  0  0  0  0  0  0  0  0  0  0
    1.1050   44.7890   51.6420 C   0  0  0  0  0  0  0  0  0  0  0  0
    2.2820   45.4590   52.3610 C   0  0  0  0  0  0  0  0  0  0  0  0
    3.4510   44.5660   52.4000 N   0  0  0  0  0  0  0  0  0  0  0  0
    4.7770   45.1220   52.5420 C   0  0  0  0  0  0  0  0  0  0  0  0
    5.3860   45.1800   53.8110 C   0  0  0  0  0  0  0  0  0  0  0  0
    6.6730   45.7020   53.9590 C   0  0  0  0  0  0  0  0  0  0  0  0
    7.3710   46.1790   52.8440 C   0  0  0  0  0  0  0  0  0  0  0  0
    8.6980   46.7160   52.9990 C   0  0  0  0  0  0  0  0  0  0  0  0
    9.7650   47.1460   53.1230 N   0  0  0  0  0  0  0  0  0  0  0  0
    6.7750   46.1340   51.5810 C   0  0  0  0  0  0  0  0  0  0  0  0
    5.4870   45.6120   51.4250 C   0  0  0  0  0  0  0  0  0  0  0  0
    4.9250   45.6190   50.1920 F   0  0  0  0  0  0  0  0  0  0  0  0
    3.2550   43.1070   52.3620 C   0  0  0  0  0  0  0  0  0  0  0  0
    1.9110   42.7320   52.9880 C   0  0  0  0  0  0  0  0  0  0  0  0
   -1.4379   46.9857   57.9394 H   0  0  0  0  0  0  0  0  0  0  0  0
   -0.6422   47.4797   56.4066 H   0  0  0  0  0  0  0  0  0  0  0  0
   -2.3742   47.0037   56.4066 H   0  0  0  0  0  0  0  0  0  0  0  0
    0.1073   45.3553   56.4921 H   0  0  0  0  0  0  0  0  0  0  0  0
   -2.3813   42.7423   57.7589 H   0  0  0  0  0  0  0  0  0  0  0  0
   -3.4095   44.1211   57.2821 H   0  0  0  0  0  0  0  0  0  0  0  0
   -1.3629   42.5861   55.6433 H   0  0  0  0  0  0  0  0  0  0  0  0
   -2.9697   43.0912   55.1584 H   0  0  0  0  0  0  0  0  0  0  0  0
   -3.2443   46.0194   55.2672 H   0  0  0  0  0  0  0  0  0  0  0  0
   -2.1209   46.3048   53.8949 H   0  0  0  0  0  0  0  0  0  0  0  0
   -3.1904   44.8616   53.8949 H   0  0  0  0  0  0  0  0  0  0  0  0
    0.5330   44.9530   54.4720 H   0  0  0  0  0  0  0  0  0  0  0  0
    0.4418   42.7781   51.4200 H   0  0  0  0  0  0  0  0  0  0  0  0
    1.3784   44.6326   50.5881 H   0  0  0  0  0  0  0  0  0  0  0  0
    0.2327   45.4521   51.7397 H   0  0  0  0  0  0  0  0  0  0  0  0
    2.5517   46.3822   51.8271 H   0  0  0  0  0  0  0  0  0  0  0  0
    1.9792   45.6867   53.3937 H   0  0  0  0  0  0  0  0  0  0  0  0
    4.8429   44.8108   54.6935 H   0  0  0  0  0  0  0  0  0  0  0  0
    7.1391   45.7382   54.9547 H   0  0  0  0  0  0  0  0  0  0  0  0
    7.3220   46.5113   50.7044 H   0  0  0  0  0  0  0  0  0  0  0  0
    3.2754   42.7659   51.3164 H   0  0  0  0  0  0  0  0  0  0  0  0
    4.0614   42.6241   52.9335 H   0  0  0  0  0  0  0  0  0  0  0  0
    1.7811   41.6415   52.9250 H   0  0  0  0  0  0  0  0  0  0  0  0
    1.9158   43.0707   54.0346 H   0  0  0  0  0  0  0  0  0  0  0  0
  1  2  1  0
  2  3  1  0
  3  4  1  0
  4  5  1  0
  5  6  1  0
  6  7  1  0
  6  8  1  6
  8  9  1  0
  9 10  2  0
  9 11  1  0
 11 12  1  0
 12 13  1  0
 13 14  1  0
 14 15  1  0
 15 16  2  0
 16 17  1  0
 17 18  2  0
 18 19  1  0
 19 20  3  0
 18 21  1  0
 21 22  2  0
 22 23  1  0
 14 24  1  0
 24 25  1  0
  6  2  1  0
 25 11  1  0
 22 15  1  0
  1 26  1  0
  1 27  1  0
  1 28  1  0
  2 29  1  6
  4 30  1  0
  4 31  1  0
  5 32  1  0
  5 33  1  0
  7 34  1  0
  7 35  1  0
  7 36  1  0
  8 37  1  0
 11 38  1  0
 12 39  1  0
 12 40  1  0
 13 41  1  0
 13 42  1  0
 16 43  1  0
 17 44  1  0
 21 45  1  0
 24 46  1  0
 24 47  1  0
 25 48  1  0
 25 49  1  0
M  END
>  <meeko>  (4) 
{"is_sidechain": [false], "free_energy": -7.767, "intermolecular_energy": -9.225, "internal_energy": -0.156}

$$$$
ligand_98_conformer_2_docked
     RDKit          3D

 49 51  0  0  0  0  0  0  0  0999 V2000
   -3.9800   45.2680   55.8350 C   0  0  0  0  0  0  0  0  0  0  0  0
   -2.7300   46.1590   55.7680 C   0  0  1  0  0  0  0  0  0  0  0  0
   -2.9810   47.3280   56.5190 O   0  0  0  0  0  0  0  0  0  0  0  0
   -2.0950   47.3250   57.6080 C   0  0  0  0  0  0  0  0  0  0  0  0
   -0.8560   46.5730   57.1950 C   0  0  0  0  0  0  0  0  0  0  0  0
   -1.3930   45.5080   56.2460 C   0  0  1  0  0  0  0  0  0  0  0  0
   -1.5520   44.1760   57.0190 C   0  0  0  0  0  0  0  0  0  0  0  0
   -0.4530   45.3130   55.1210 N   0  0  0  0  0  0  0  0  0  0  0  0
   -0.5320   44.2320   54.1740 C   0  0  0  0  0  0  0  0  0  0  0  0
   -1.4310   43.3560   54.2780 O   0  0  0  0  0  0  0  0  0  0  0  0
    0.4250   44.1750   53.0080 C   0  0  0  0  0  0  0  0  0  0  0  0
    0.8880   45.5940   52.5830 C   0  0  0  0  0  0  0  0  0  0  0  0
    2.2570   45.9640   53.1650 C   0  0  0  0  0  0  0  0  0  0  0  0
    3.2700   44.9580   52.8050 N   0  0  0  0  0  0  0  0  0  0  0  0
    4.6680   45.3190   52.7810 C   0  0  0  0  0  0  0  0  0  0  0  0
    5.2820   45.6870   51.5680 C   0  0  0  0  0  0  0  0  0  0  0  0
    6.6300   46.0520   51.5350 C   0  0  0  0  0  0  0  0  0  0  0  0
    7.3880   46.0510   52.7110 C   0  0  0  0  0  0  0  0  0  0  0  0
    8.7770   46.4280   52.6740 C   0  0  0  0  0  0  0  0  0  0  0  0
    9.8930   46.7320   52.6450 N   0  0  0  0  0  0  0  0  0  0  0  0
    6.7930   45.6810   53.9200 C   0  0  0  0  0  0  0  0  0  0  0  0
    5.4430   45.3150   53.9610 C   0  0  0  0  0  0  0  0  0  0  0  0
    4.9090   44.9250   55.1440 F   0  0  0  0  0  0  0  0  0  0  0  0
    2.8550   43.5690   52.5410 C   0  0  0  0  0  0  0  0  0  0  0  0
    1.5980   43.2250   53.3410 C   0  0  0  0  0  0  0  0  0  0  0  0
   -4.2415   45.0816   56.8871 H   0  0  0  0  0  0  0  0  0  0  0  0
   -4.8180   45.7736   55.3329 H   0  0  0  0  0  0  0  0  0  0  0  0
   -3.7754   44.3109   55.3329 H   0  0  0  0  0  0  0  0  0  0  0  0
   -2.5660   46.3635   54.6997 H   0  0  0  0  0  0  0  0  0  0  0  0
   -1.8322   48.3582   57.8789 H   0  0  0  0  0  0  0  0  0  0  0  0
   -2.5618   46.8446   58.4805 H   0  0  0  0  0  0  0  0  0  0  0  0
   -0.1451   47.2367   56.6810 H   0  0  0  0  0  0  0  0  0  0  0  0
   -0.3039   46.1511   58.0478 H   0  0  0  0  0  0  0  0  0  0  0  0
   -1.5283   44.3747   58.1006 H   0  0  0  0  0  0  0  0  0  0  0  0
   -2.5122   43.7099   56.7528 H   0  0  0  0  0  0  0  0  0  0  0  0
   -0.7285   43.4970   56.7528 H   0  0  0  0  0  0  0  0  0  0  0  0
    0.3370   45.9880   54.9980 H   0  0  0  0  0  0  0  0  0  0  0  0
   -0.0946   43.7607   52.1314 H   0  0  0  0  0  0  0  0  0  0  0  0
    0.9498   45.6308   51.4854 H   0  0  0  0  0  0  0  0  0  0  0  0
    0.1539   46.3153   52.9714 H   0  0  0  0  0  0  0  0  0  0  0  0
    2.5645   46.9428   52.7682 H   0  0  0  0  0  0  0  0  0  0  0  0
    2.1741   46.0028   54.2612 H   0  0  0  0  0  0  0  0  0  0  0  0
    4.6946   45.6870   50.6380 H   0  0  0  0  0  0  0  0  0  0  0  0
    7.0968   46.3410   50.5818 H   0  0  0  0  0  0  0  0  0  0  0  0
    7.3891   45.6774   54.8445 H   0  0  0  0  0  0  0  0  0  0  0  0
    2.6445   43.4517   51.4677 H   0  0  0  0  0  0  0  0  0  0  0  0
    3.6666   42.8912   52.8442 H   0  0  0  0  0  0  0  0  0  0  0  0
    1.2979   42.1932   53.1056 H   0  0  0  0  0  0  0  0  0  0  0  0
    1.8333   43.3354   54.4099 H   0  0  0  0  0  0  0  0  0  0  0  0
  1  2  1  0
  2  3  1  0
  3  4  1  0
  4  5  1  0
  5  6  1  0
  6  7  1  0
  6  8  1  6
  8  9  1  0
  9 10  2  0
  9 11  1  0
 11 12  1  0
 12 13  1  0
 13 14  1  0
 14 15  1  0
 15 16  2  0
 16 17  1  0
 17 18  2  0
 18 19  1  0
 19 20  3  0
 18 21  1  0
 21 22  2  0
 22 23  1  0
 14 24  1  0
 24 25  1  0
  6  2  1  0
 25 11  1  0
 22 15  1  0
  1 26  1  0
  1 27  1  0
  1 28  1  0
  2 29  1  6
  4 30  1  0
  4 31  1  0
  5 32  1  0
  5 33  1  0
  7 34  1  0
  7 35  1  0
  7 36  1  0
  8 37  1  0
 11 38  1  0
 12 39  1  0
 12 40  1  0
 13 41  1  0
 13 42  1  0
 16 43  1  0
 17 44  1  0
 21 45  1  0
 24 46  1  0
 24 47  1  0
 25 48  1  0
 25 49  1  0
M  END
>  <meeko>  (5) 
{"is_sidechain": [false], "free_energy": -7.637, "intermolecular_energy": -9.0, "internal_energy": -0.229}

$$$$
