MODEL 1
REMARK VINA RESULT:    -9.404      0.000      0.000
REMARK INTER + INTRA:         -14.116
REMARK INTER:                 -13.803
REMARK INTRA:                  -0.313
REMARK UNBOUND:                -0.313
REMARK SMILES CCN(C1CCCCC1)S(=O)(=O)CCNC(=O)Nc1ccn(-c2cccc(F)c2C#N)n1
REMARK SMILES IDX 13 1 10 2 11 3 12 4 3 5 2 6 1 7 4 8 5 9 9 10 6 11 8 12 7 13
REMARK SMILES IDX 14 14 15 15 16 16 17 17 18 18 19 21 20 22 32 23 21 24 22 25
REMARK SMILES IDX 23 26 24 27 29 28 25 29 27 30 30 31 26 32 31 33 28 34
REMARK H PARENT 15 19 18 20
ROOT
ATOM      1  C   UNL     1       3.978  45.805  53.013  1.00  0.00     0.175 C 
ENDROOT
BRANCH   1   2
ATOM      2  S   UNL     1       5.533  45.881  53.897  1.00  0.00     0.216 S 
ATOM      3  O   UNL     1       5.405  46.939  54.960  1.00  0.00    -0.212 OA
ATOM      4  O   UNL     1       5.777  44.567  54.588  1.00  0.00    -0.212 OA
BRANCH   2   5
ATOM      5  N   UNL     1       6.837  46.251  52.760  1.00  0.00    -0.199 NA
BRANCH   5   6
ATOM      6  C   UNL     1       6.314  46.154  51.375  1.00  0.00     0.099 C 
ATOM      7  C   UNL     1       6.802  44.866  50.711  1.00  0.00     0.022 C 
ENDBRANCH   5   6
BRANCH   5   8
ATOM      8  C   UNL     1       7.496  47.561  53.071  1.00  0.00     0.073 C 
ATOM      9  C   UNL     1       8.377  48.098  51.908  1.00  0.00     0.020 C 
ATOM     10  C   UNL     1       8.456  47.459  54.296  1.00  0.00     0.020 C 
ATOM     11  C   UNL     1       9.429  47.062  51.462  1.00  0.00     0.002 C 
ATOM     12  C   UNL     1       9.832  46.819  53.977  1.00  0.00     0.002 C 
ATOM     13  C   UNL     1       9.884  46.130  52.604  1.00  0.00     0.000 C 
ENDBRANCH   5   8
ENDBRANCH   2   5
ENDBRANCH   1   2
BRANCH   1  14
ATOM     14  C   UNL     1       3.048  44.756  53.624  1.00  0.00     0.135 C 
BRANCH  14  15
ATOM     15  N   UNL     1       3.428  43.420  53.169  1.00  0.00    -0.337 N 
ATOM     16  C   UNL     1       3.702  43.124  51.793  1.00  0.00     0.320 C 
ATOM     17  O   UNL     1       3.459  43.986  50.904  1.00  0.00    -0.248 OA
ATOM     18  N   UNL     1       4.290  41.865  51.443  1.00  0.00    -0.291 N 
ATOM     19  H   UNL     1       3.503  42.651  53.874  1.00  0.00     0.165 HD
ATOM     20  H   UNL     1       4.689  41.275  52.209  1.00  0.00     0.173 HD
BRANCH  18  21
ATOM     21  C   UNL     1       4.502  41.439  50.092  1.00  0.00     0.156 A 
ATOM     22  C   UNL     1       5.637  41.654  49.329  1.00  0.00     0.069 A 
ATOM     23  N   UNL     1       3.575  40.769  49.377  1.00  0.00    -0.150 NA
ATOM     24  C   UNL     1       5.340  41.063  48.117  1.00  0.00     0.117 A 
ATOM     25  N   UNL     1       4.092  40.549  48.178  1.00  0.00    -0.237 N 
BRANCH  25  26
ATOM     26  C   UNL     1       3.438  39.761  47.167  1.00  0.00     0.085 A 
ATOM     27  C   UNL     1       2.708  38.625  47.562  1.00  0.00     0.030 A 
ATOM     28  C   UNL     1       3.520  40.084  45.793  1.00  0.00     0.113 A 
ATOM     29  C   UNL     1       2.088  37.811  46.613  1.00  0.00     0.005 A 
ATOM     30  C   UNL     1       2.893  39.258  44.844  1.00  0.00     0.143 A 
ATOM     31  C   UNL     1       4.183  41.284  45.340  1.00  0.00     0.105 C 
ATOM     32  C   UNL     1       2.184  38.125  45.256  1.00  0.00     0.041 A 
ATOM     33  N   UNL     1       4.713  42.246  44.974  1.00  0.00    -0.192 NA
ATOM     34  F   UNL     1       2.957  39.555  43.519  1.00  0.00    -0.205 F 
ENDBRANCH  25  26
ENDBRANCH  18  21
ENDBRANCH  14  15
ENDBRANCH   1  14
TORSDOF 8
ENDMDL
MODEL 2
REMARK VINA RESULT:    -9.037      6.191     10.334
REMARK INTER + INTRA:         -13.577
REMARK INTER:                 -12.642
REMARK INTRA:                  -0.935
REMARK UNBOUND:                -0.313
REMARK SMILES CCN(C1CCCCC1)S(=O)(=O)CCNC(=O)Nc1ccn(-c2cccc(F)c2C#N)n1
REMARK SMILES IDX 13 1 10 2 11 3 12 4 3 5 2 6 1 7 4 8 5 9 9 10 6 11 8 12 7 13
REMARK SMILES IDX 14 14 15 15 16 16 17 17 18 18 19 21 20 22 32 23 21 24 22 25
REMARK SMILES IDX 23 26 24 27 29 28 25 29 27 30 30 31 26 32 31 33 28 34
REMARK H PARENT 15 19 18 20
ROOT
ATOM      1  C   UNL     1       4.099  45.229  52.266  1.00  0.00     0.175 C 
ENDROOT
BRANCH   1   2
ATOM      2  S   UNL     1       5.463  45.559  53.378  1.00  0.00     0.216 S 
ATOM      3  O   UNL     1       5.014  46.614  54.354  1.00  0.00    -0.212 OA
ATOM      4  O   UNL     1       5.775  44.314  54.163  1.00  0.00    -0.212 OA
BRANCH   2   5
ATOM      5  N   UNL     1       6.868  46.088  52.443  1.00  0.00    -0.199 NA
BRANCH   5   6
ATOM      6  C   UNL     1       6.532  46.044  50.998  1.00  0.00     0.099 C 
ATOM      7  C   UNL     1       7.175  44.823  50.340  1.00  0.00     0.022 C 
ENDBRANCH   5   6
BRANCH   5   8
ATOM      8  C   UNL     1       7.381  47.418  52.908  1.00  0.00     0.073 C 
ATOM      9  C   UNL     1       8.363  48.084  51.904  1.00  0.00     0.020 C 
ATOM     10  C   UNL     1       8.180  47.303  54.243  1.00  0.00     0.020 C 
ATOM     11  C   UNL     1       9.537  47.151  51.546  1.00  0.00     0.002 C 
ATOM     12  C   UNL     1       9.630  46.778  54.076  1.00  0.00     0.002 C 
ATOM     13  C   UNL     1       9.910  46.182  52.687  1.00  0.00     0.000 C 
ENDBRANCH   5   8
ENDBRANCH   2   5
ENDBRANCH   1   2
BRANCH   1  14
ATOM     14  C   UNL     1       3.207  44.109  52.804  1.00  0.00     0.135 C 
BRANCH  14  15
ATOM     15  N   UNL     1       2.982  44.289  54.236  1.00  0.00    -0.337 N 
ATOM     16  C   UNL     1       1.775  44.860  54.759  1.00  0.00     0.320 C 
ATOM     17  O   UNL     1       0.932  45.378  53.975  1.00  0.00    -0.248 OA
ATOM     18  N   UNL     1       1.514  44.799  56.167  1.00  0.00    -0.291 N 
ATOM     19  H   UNL     1       3.728  43.991  54.904  1.00  0.00     0.165 HD
ATOM     20  H   UNL     1       2.109  44.168  56.753  1.00  0.00     0.173 HD
BRANCH  18  21
ATOM     21  C   UNL     1       0.392  45.431  56.793  1.00  0.00     0.156 A 
ATOM     22  C   UNL     1      -0.922  44.997  56.759  1.00  0.00     0.069 A 
ATOM     23  N   UNL     1       0.490  46.576  57.498  1.00  0.00    -0.150 NA
ATOM     24  C   UNL     1      -1.605  45.943  57.496  1.00  0.00     0.117 A 
ATOM     25  N   UNL     1      -0.728  46.881  57.918  1.00  0.00    -0.237 N 
BRANCH  25  26
ATOM     26  C   UNL     1      -1.009  47.983  58.799  1.00  0.00     0.085 A 
ATOM     27  C   UNL     1      -0.297  48.081  60.008  1.00  0.00     0.030 A 
ATOM     28  C   UNL     1      -1.985  48.959  58.493  1.00  0.00     0.113 A 
ATOM     29  C   UNL     1      -0.562  49.112  60.910  1.00  0.00     0.005 A 
ATOM     30  C   UNL     1      -2.245  49.995  59.408  1.00  0.00     0.143 A 
ATOM     31  C   UNL     1      -2.683  48.957  57.230  1.00  0.00     0.105 C 
ATOM     32  C   UNL     1      -1.538  50.066  60.612  1.00  0.00     0.041 A 
ATOM     33  N   UNL     1      -3.244  48.958  56.216  1.00  0.00    -0.192 NA
ATOM     34  F   UNL     1      -3.177  50.945  59.130  1.00  0.00    -0.205 F 
ENDBRANCH  25  26
ENDBRANCH  18  21
ENDBRANCH  14  15
ENDBRANCH   1  14
TORSDOF 8
ENDMDL
MODEL 3
REMARK VINA RESULT:    -8.914      4.770      5.858
REMARK INTER + INTRA:         -13.396
REMARK INTER:                 -12.066
REMARK INTRA:                  -1.330
REMARK UNBOUND:                -0.313
REMARK SMILES CCN(C1CCCCC1)S(=O)(=O)CCNC(=O)Nc1ccn(-c2cccc(F)c2C#N)n1
REMARK SMILES IDX 13 1 10 2 11 3 12 4 3 5 2 6 1 7 4 8 5 9 9 10 6 11 8 12 7 13
REMARK SMILES IDX 14 14 15 15 16 16 17 17 18 18 19 21 20 22 32 23 21 24 22 25
REMARK SMILES IDX 23 26 24 27 29 28 25 29 27 30 30 31 26 32 31 33 28 34
REMARK H PARENT 15 19 18 20
ROOT
ATOM      1  C   UNL     1       4.565  46.531  54.166  1.00  0.00     0.175 C 
ENDROOT
BRANCH   1   2
ATOM      2  S   UNL     1       5.595  45.241  53.473  1.00  0.00     0.216 S 
ATOM      3  O   UNL     1       6.142  44.428  54.616  1.00  0.00    -0.212 OA
ATOM      4  O   UNL     1       4.747  44.328  52.630  1.00  0.00    -0.212 OA
BRANCH   2   5
ATOM      5  N   UNL     1       6.888  45.972  52.513  1.00  0.00    -0.199 NA
BRANCH   5   6
ATOM      6  C   UNL     1       6.474  46.001  51.088  1.00  0.00     0.099 C 
ATOM      7  C   UNL     1       7.119  44.844  50.324  1.00  0.00     0.022 C 
ENDBRANCH   5   6
BRANCH   5   8
ATOM      8  C   UNL     1       7.299  47.309  53.053  1.00  0.00     0.073 C 
ATOM      9  C   UNL     1       8.174  48.130  52.065  1.00  0.00     0.020 C 
ATOM     10  C   UNL     1       8.161  47.177  54.347  1.00  0.00     0.020 C 
ATOM     11  C   UNL     1       9.411  47.335  51.599  1.00  0.00     0.002 C 
ATOM     12  C   UNL     1       9.644  46.800  54.090  1.00  0.00     0.002 C 
ATOM     13  C   UNL     1       9.916  46.329  52.653  1.00  0.00     0.000 C 
ENDBRANCH   5   8
ENDBRANCH   2   5
ENDBRANCH   1   2
BRANCH   1  14
ATOM     14  C   UNL     1       3.773  46.019  55.369  1.00  0.00     0.135 C 
BRANCH  14  15
ATOM     15  N   UNL     1       3.034  44.811  55.008  1.00  0.00    -0.337 N 
ATOM     16  C   UNL     1       1.773  44.855  54.329  1.00  0.00     0.320 C 
ATOM     17  O   UNL     1       1.183  45.959  54.167  1.00  0.00    -0.248 OA
ATOM     18  N   UNL     1       1.211  43.648  53.798  1.00  0.00    -0.291 N 
ATOM     19  H   UNL     1       3.441  43.880  55.256  1.00  0.00     0.165 HD
ATOM     20  H   UNL     1       1.822  42.800  53.743  1.00  0.00     0.173 HD
BRANCH  18  21
ATOM     21  C   UNL     1      -0.088  43.576  53.199  1.00  0.00     0.156 A 
ATOM     22  C   UNL     1      -1.285  43.341  53.855  1.00  0.00     0.069 A 
ATOM     23  N   UNL     1      -0.298  43.715  51.875  1.00  0.00    -0.150 NA
ATOM     24  C   UNL     1      -2.227  43.360  52.846  1.00  0.00     0.117 A 
ATOM     25  N   UNL     1      -1.598  43.580  51.669  1.00  0.00    -0.237 N 
BRANCH  25  26
ATOM     26  C   UNL     1      -2.222  43.775  50.387  1.00  0.00     0.085 A 
ATOM     27  C   UNL     1      -2.255  42.700  49.480  1.00  0.00     0.030 A 
ATOM     28  C   UNL     1      -2.787  45.014  50.007  1.00  0.00     0.113 A 
ATOM     29  C   UNL     1      -2.816  42.855  48.212  1.00  0.00     0.005 A 
ATOM     30  C   UNL     1      -3.351  45.161  48.728  1.00  0.00     0.143 A 
ATOM     31  C   UNL     1      -2.857  46.124  50.929  1.00  0.00     0.105 C 
ATOM     32  C   UNL     1      -3.359  44.084  47.835  1.00  0.00     0.041 A 
ATOM     33  N   UNL     1      -2.916  47.015  51.666  1.00  0.00    -0.192 NA
ATOM     34  F   UNL     1      -3.902  46.343  48.346  1.00  0.00    -0.205 F 
ENDBRANCH  25  26
ENDBRANCH  18  21
ENDBRANCH  14  15
ENDBRANCH   1  14
TORSDOF 8
ENDMDL
MODEL 4
REMARK VINA RESULT:    -8.434      5.131      8.681
REMARK INTER + INTRA:         -12.691
REMARK INTER:                 -11.732
REMARK INTRA:                  -0.959
REMARK UNBOUND:                -0.313
REMARK SMILES CCN(C1CCCCC1)S(=O)(=O)CCNC(=O)Nc1ccn(-c2cccc(F)c2C#N)n1
REMARK SMILES IDX 13 1 10 2 11 3 12 4 3 5 2 6 1 7 4 8 5 9 9 10 6 11 8 12 7 13
REMARK SMILES IDX 14 14 15 15 16 16 17 17 18 18 19 21 20 22 32 23 21 24 22 25
REMARK SMILES IDX 23 26 24 27 29 28 25 29 27 30 30 31 26 32 31 33 28 34
REMARK H PARENT 15 19 18 20
ROOT
ATOM      1  C   UNL     1       5.587  43.204  50.967  1.00  0.00     0.175 C 
ENDROOT
BRANCH   1   2
ATOM      2  S   UNL     1       5.676  44.782  51.809  1.00  0.00     0.216 S 
ATOM      3  O   UNL     1       4.519  45.621  51.335  1.00  0.00    -0.212 OA
ATOM      4  O   UNL     1       5.507  44.566  53.288  1.00  0.00    -0.212 OA
BRANCH   2   5
ATOM      5  N   UNL     1       7.230  45.550  51.454  1.00  0.00    -0.199 NA
BRANCH   5   6
ATOM      6  C   UNL     1       7.560  45.334  50.023  1.00  0.00     0.099 C 
ATOM      7  C   UNL     1       8.712  44.338  49.888  1.00  0.00     0.022 C 
ENDBRANCH   5   6
BRANCH   5   8
ATOM      8  C   UNL     1       7.251  46.990  51.872  1.00  0.00     0.073 C 
ATOM      9  C   UNL     1       8.585  47.711  51.530  1.00  0.00     0.020 C 
ATOM     10  C   UNL     1       7.084  47.154  53.415  1.00  0.00     0.020 C 
ATOM     11  C   UNL     1       9.804  46.965  52.109  1.00  0.00     0.002 C 
ATOM     12  C   UNL     1       8.374  46.876  54.230  1.00  0.00     0.002 C 
ATOM     13  C   UNL     1       9.483  46.199  53.409  1.00  0.00     0.000 C 
ENDBRANCH   5   8
ENDBRANCH   2   5
ENDBRANCH   1   2
BRANCH   1  14
ATOM     14  C   UNL     1       4.141  42.720  50.856  1.00  0.00     0.135 C 
BRANCH  14  15
ATOM     15  N   UNL     1       3.525  42.664  52.180  1.00  0.00    -0.337 N 
ATOM     16  C   UNL     1       2.209  43.171  52.439  1.00  0.00     0.320 C 
ATOM     17  O   UNL     1       1.604  43.834  51.552  1.00  0.00    -0.248 OA
ATOM     18  N   UNL     1       1.573  42.882  53.690  1.00  0.00    -0.291 N 
ATOM     19  H   UNL     1       4.066  42.239  52.968  1.00  0.00     0.165 HD
ATOM     20  H   UNL     1       1.996  42.147  54.303  1.00  0.00     0.173 HD
BRANCH  18  21
ATOM     21  C   UNL     1       0.308  43.430  54.080  1.00  0.00     0.156 A 
ATOM     22  C   UNL     1      -0.902  43.249  53.433  1.00  0.00     0.069 A 
ATOM     23  N   UNL     1       0.151  44.231  55.153  1.00  0.00    -0.150 NA
ATOM     24  C   UNL     1      -1.797  43.979  54.189  1.00  0.00     0.117 A 
ATOM     25  N   UNL     1      -1.129  44.562  55.209  1.00  0.00    -0.237 N 
BRANCH  25  26
ATOM     26  C   UNL     1      -1.704  45.323  56.287  1.00  0.00     0.085 A 
ATOM     27  C   UNL     1      -1.421  46.699  56.369  1.00  0.00     0.030 A 
ATOM     28  C   UNL     1      -2.528  44.729  57.270  1.00  0.00     0.113 A 
ATOM     29  C   UNL     1      -1.926  47.469  57.417  1.00  0.00     0.005 A 
ATOM     30  C   UNL     1      -3.034  45.513  58.322  1.00  0.00     0.143 A 
ATOM     31  C   UNL     1      -2.921  43.343  57.186  1.00  0.00     0.105 C 
ATOM     32  C   UNL     1      -2.728  46.876  58.395  1.00  0.00     0.041 A 
ATOM     33  N   UNL     1      -3.238  42.231  57.121  1.00  0.00    -0.192 NA
ATOM     34  F   UNL     1      -3.832  44.961  59.274  1.00  0.00    -0.205 F 
ENDBRANCH  25  26
ENDBRANCH  18  21
ENDBRANCH  14  15
ENDBRANCH   1  14
TORSDOF 8
ENDMDL
MODEL 5
REMARK VINA RESULT:    -8.336      5.190      9.370
REMARK INTER + INTRA:         -12.548
REMARK INTER:                 -12.111
REMARK INTRA:                  -0.437
REMARK UNBOUND:                -0.313
REMARK SMILES CCN(C1CCCCC1)S(=O)(=O)CCNC(=O)Nc1ccn(-c2cccc(F)c2C#N)n1
REMARK SMILES IDX 13 1 10 2 11 3 12 4 3 5 2 6 1 7 4 8 5 9 9 10 6 11 8 12 7 13
REMARK SMILES IDX 14 14 15 15 16 16 17 17 18 18 19 21 20 22 32 23 21 24 22 25
REMARK SMILES IDX 23 26 24 27 29 28 25 29 27 30 30 31 26 32 31 33 28 34
REMARK H PARENT 15 19 18 20
ROOT
ATOM      1  C   UNL     1      -0.326  43.040  53.523  1.00  0.00     0.175 C 
ENDROOT
BRANCH   1   2
ATOM      2  S   UNL     1      -0.619  44.797  53.701  1.00  0.00     0.216 S 
ATOM      3  O   UNL     1       0.686  45.443  54.087  1.00  0.00    -0.212 OA
ATOM      4  O   UNL     1      -1.035  45.369  52.373  1.00  0.00    -0.212 OA
BRANCH   2   5
ATOM      5  N   UNL     1      -1.867  45.064  54.925  1.00  0.00    -0.199 NA
BRANCH   5   6
ATOM      6  C   UNL     1      -3.175  44.611  54.388  1.00  0.00     0.099 C 
ATOM      7  C   UNL     1      -3.937  45.790  53.781  1.00  0.00     0.022 C 
ENDBRANCH   5   6
BRANCH   5   8
ATOM      8  C   UNL     1      -1.503  44.444  56.241  1.00  0.00     0.073 C 
ATOM      9  C   UNL     1      -2.576  44.667  57.344  1.00  0.00     0.020 C 
ATOM     10  C   UNL     1      -0.187  45.044  56.826  1.00  0.00     0.020 C 
ATOM     11  C   UNL     1      -2.907  46.162  57.528  1.00  0.00     0.002 C 
ATOM     12  C   UNL     1      -0.362  46.429  57.502  1.00  0.00     0.002 C 
ATOM     13  C   UNL     1      -1.717  47.089  57.204  1.00  0.00     0.000 C 
ENDBRANCH   5   8
ENDBRANCH   2   5
ENDBRANCH   1   2
BRANCH   1  14
ATOM     14  C   UNL     1       0.127  42.698  52.102  1.00  0.00     0.135 C 
BRANCH  14  15
ATOM     15  N   UNL     1       1.571  42.476  52.074  1.00  0.00    -0.337 N 
ATOM     16  C   UNL     1       2.505  43.528  51.800  1.00  0.00     0.320 C 
ATOM     17  O   UNL     1       2.090  44.655  51.411  1.00  0.00    -0.248 OA
ATOM     18  N   UNL     1       3.905  43.305  52.012  1.00  0.00    -0.291 N 
ATOM     19  H   UNL     1       1.935  41.514  52.260  1.00  0.00     0.165 HD
ATOM     20  H   UNL     1       4.195  42.454  52.548  1.00  0.00     0.173 HD
BRANCH  18  21
ATOM     21  C   UNL     1       4.920  44.256  51.668  1.00  0.00     0.156 A 
ATOM     22  C   UNL     1       4.999  44.986  50.494  1.00  0.00     0.069 A 
ATOM     23  N   UNL     1       5.962  44.545  52.472  1.00  0.00    -0.150 NA
ATOM     24  C   UNL     1       6.145  45.739  50.647  1.00  0.00     0.117 A 
ATOM     25  N   UNL     1       6.703  45.444  51.843  1.00  0.00    -0.237 N 
BRANCH  25  26
ATOM     26  C   UNL     1       7.849  46.081  52.436  1.00  0.00     0.085 A 
ATOM     27  C   UNL     1       9.108  45.903  51.834  1.00  0.00     0.030 A 
ATOM     28  C   UNL     1       7.750  46.864  53.608  1.00  0.00     0.113 A 
ATOM     29  C   UNL     1      10.252  46.472  52.394  1.00  0.00     0.005 A 
ATOM     30  C   UNL     1       8.908  47.433  54.166  1.00  0.00     0.143 A 
ATOM     31  C   UNL     1       6.473  47.150  54.218  1.00  0.00     0.105 C 
ATOM     32  C   UNL     1      10.153  47.232  53.562  1.00  0.00     0.041 A 
ATOM     33  N   UNL     1       5.450  47.382  54.708  1.00  0.00    -0.192 NA
ATOM     34  F   UNL     1       8.833  48.193  55.291  1.00  0.00    -0.205 F 
ENDBRANCH  25  26
ENDBRANCH  18  21
ENDBRANCH  14  15
ENDBRANCH   1  14
TORSDOF 8
ENDMDL
