ligand_27_conformer_5_docked
     RDKit          3D

 46 47  0  0  0  0  0  0  0  0999 V2000
   -1.2730   44.5050   56.8270 C   0  0  0  0  0  0  0  0  0  0  0  0
   -1.6320   44.5840   55.3480 C   0  0  0  0  0  0  0  0  0  0  0  0
   -1.5020   43.3050   54.7300 O   0  0  0  0  0  0  0  0  0  0  0  0
   -0.4170   42.9440   53.9230 C   0  0  0  0  0  0  0  0  0  0  0  0
   -0.3260   41.7740   53.4640 O   0  0  0  0  0  0  0  0  0  0  0  0
    0.6150   43.9540   53.6120 C   0  0  0  0  0  0  0  0  0  0  0  0
    1.8460   44.0220   54.2410 C   0  0  0  0  0  0  0  0  0  0  0  0
    2.4960   45.1020   53.6820 C   0  0  0  0  0  0  0  0  0  0  0  0
    4.0780   45.7000   54.1480 S   0  0  0  0  0  0  0  0  0  0  0  0
    4.9750   44.5570   54.5290 O   0  0  0  0  0  0  0  0  0  0  0  0
    3.9200   46.6200   55.3250 O   0  0  0  0  0  0  0  0  0  0  0  0
    4.7830   46.5690   52.8240 N   0  0  0  0  0  0  0  0  0  0  0  0
    5.6830   45.9460   51.8910 C   0  0  0  0  0  0  0  0  0  0  0  0
    5.2770   44.7920   51.1960 C   0  0  0  0  0  0  0  0  0  0  0  0
    6.1310   44.1680   50.2870 C   0  0  0  0  0  0  0  0  0  0  0  0
    7.4060   44.6820   50.0610 C   0  0  0  0  0  0  0  0  0  0  0  0
    8.2360   44.0720   49.1780 F   0  0  0  0  0  0  0  0  0  0  0  0
    7.8310   45.8240   50.7430 C   0  0  0  0  0  0  0  0  0  0  0  0
    6.9810   46.4710   51.6590 C   0  0  0  0  0  0  0  0  0  0  0  0
    7.4870   47.7160   52.3490 C   0  0  0  0  0  0  0  0  0  0  0  0
    8.3750   47.3040   53.8460 S   0  0  0  0  0  0  0  0  0  0  0  0
    9.8470   46.3660   53.4930 C   0  0  0  0  0  0  0  0  0  0  0  0
    8.7580   48.5660   54.5670 O   0  0  0  0  0  0  0  0  0  0  0  0
    7.4800   46.4860   54.7330 O   0  0  0  0  0  0  0  0  0  0  0  0
    1.6540   45.6570   52.7420 C   0  0  0  0  0  0  0  0  0  0  0  0
    0.5060   44.9520   52.6990 N   0  0  0  0  0  0  0  0  0  0  0  0
   -0.6300   45.2510   51.8300 C   0  0  0  0  0  0  0  0  0  0  0  0
   -2.1696   44.7023   57.4330 H   0  0  0  0  0  0  0  0  0  0  0  0
   -0.8882   43.5007   57.0578 H   0  0  0  0  0  0  0  0  0  0  0  0
   -0.5021   45.2550   57.0578 H   0  0  0  0  0  0  0  0  0  0  0  0
   -2.6710   44.9305   55.2464 H   0  0  0  0  0  0  0  0  0  0  0  0
   -0.9458   45.2876   54.8540 H   0  0  0  0  0  0  0  0  0  0  0  0
    2.2275   43.3521   55.0257 H   0  0  0  0  0  0  0  0  0  0  0  0
    4.4420   47.5410   52.6610 H   0  0  0  0  0  0  0  0  0  0  0  0
    4.2736   44.3768   51.3718 H   0  0  0  0  0  0  0  0  0  0  0  0
    5.7975   43.2690   49.7479 H   0  0  0  0  0  0  0  0  0  0  0  0
    8.8405   46.2219   50.5624 H   0  0  0  0  0  0  0  0  0  0  0  0
    8.1613   48.2558   51.6679 H   0  0  0  0  0  0  0  0  0  0  0  0
    6.6241   48.3441   52.6153 H   0  0  0  0  0  0  0  0  0  0  0  0
   10.3235   46.0624   54.4368 H   0  0  0  0  0  0  0  0  0  0  0  0
    9.5807   45.4707   52.9121 H   0  0  0  0  0  0  0  0  0  0  0  0
   10.5461   46.9855   52.9121 H   0  0  0  0  0  0  0  0  0  0  0  0
    1.8832   46.5375   52.1238 H   0  0  0  0  0  0  0  0  0  0  0  0
   -1.5115   45.4830   52.4457 H   0  0  0  0  0  0  0  0  0  0  0  0
   -0.3882   46.1161   51.1951 H   0  0  0  0  0  0  0  0  0  0  0  0
   -0.8454   44.3790   51.1951 H   0  0  0  0  0  0  0  0  0  0  0  0
  1  2  1  0
  2  3  1  0
  3  4  1  0
  4  5  2  0
  4  6  1  0
  6  7  2  0
  7  8  1  0
  8  9  1  0
  9 10  2  0
  9 11  2  0
  9 12  1  0
 12 13  1  0
 13 14  2  0
 14 15  1  0
 15 16  2  0
 16 17  1  0
 16 18  1  0
 18 19  2  0
 19 20  1  0
 20 21  1  0
 21 22  1  0
 21 23  2  0
 21 24  2  0
  8 25  2  0
 25 26  1  0
 26 27  1  0
 26  6  1  0
 19 13  1  0
  1 28  1  0
  1 29  1  0
  1 30  1  0
  2 31  1  0
  2 32  1  0
  7 33  1  0
 12 34  1  0
 14 35  1  0
 15 36  1  0
 18 37  1  0
 20 38  1  0
 20 39  1  0
 22 40  1  0
 22 41  1  0
 22 42  1  0
 25 43  1  0
 27 44  1  0
 27 45  1  0
 27 46  1  0
M  END
>  <meeko>  (1) 
{"is_sidechain": [false], "free_energy": -7.928, "intermolecular_energy": -11.636, "internal_energy": -1.049}

$$$$
ligand_27_conformer_5_docked
     RDKit          3D

 46 47  0  0  0  0  0  0  0  0999 V2000
   -2.2070   44.5130   50.4780 C   0  0  0  0  0  0  0  0  0  0  0  0
   -2.3730   43.5890   51.6790 C   0  0  0  0  0  0  0  0  0  0  0  0
   -1.2860   42.6680   51.7580 O   0  0  0  0  0  0  0  0  0  0  0  0
   -0.3470   42.6690   52.7960 C   0  0  0  0  0  0  0  0  0  0  0  0
   -0.1850   41.6440   53.5100 O   0  0  0  0  0  0  0  0  0  0  0  0
    0.4570   43.8850   53.0370 C   0  0  0  0  0  0  0  0  0  0  0  0
    1.4160   44.3640   52.1610 C   0  0  0  0  0  0  0  0  0  0  0  0
    1.9410   45.4910   52.7560 C   0  0  0  0  0  0  0  0  0  0  0  0
    3.2480   46.4730   52.1190 S   0  0  0  0  0  0  0  0  0  0  0  0
    3.1660   47.8680   52.6700 O   0  0  0  0  0  0  0  0  0  0  0  0
    3.1300   46.5230   50.6220 O   0  0  0  0  0  0  0  0  0  0  0  0
    4.7700   45.7690   52.5570 N   0  0  0  0  0  0  0  0  0  0  0  0
    5.6580   45.1940   51.5820 C   0  0  0  0  0  0  0  0  0  0  0  0
    5.3370   43.9570   50.9940 C   0  0  0  0  0  0  0  0  0  0  0  0
    6.1820   43.3770   50.0470 C   0  0  0  0  0  0  0  0  0  0  0  0
    7.3600   44.0190   49.6750 C   0  0  0  0  0  0  0  0  0  0  0  0
    8.1800   43.4520   48.7560 F   0  0  0  0  0  0  0  0  0  0  0  0
    7.6980   45.2460   50.2490 C   0  0  0  0  0  0  0  0  0  0  0  0
    6.8570   45.8500   51.2010 C   0  0  0  0  0  0  0  0  0  0  0  0
    7.2640   47.1890   51.7700 C   0  0  0  0  0  0  0  0  0  0  0  0
    8.2240   46.9860   53.2650 S   0  0  0  0  0  0  0  0  0  0  0  0
    9.8270   46.2910   52.9210 C   0  0  0  0  0  0  0  0  0  0  0  0
    8.4010   48.3210   53.9340 O   0  0  0  0  0  0  0  0  0  0  0  0
    7.4860   46.0660   54.1970 O   0  0  0  0  0  0  0  0  0  0  0  0
    1.3000   45.6640   53.9640 C   0  0  0  0  0  0  0  0  0  0  0  0
    0.3900   44.6830   54.1320 N   0  0  0  0  0  0  0  0  0  0  0  0
   -0.4740   44.5300   55.3000 C   0  0  0  0  0  0  0  0  0  0  0  0
   -2.0226   45.5395   50.8278 H   0  0  0  0  0  0  0  0  0  0  0  0
   -1.3553   44.1743   49.8698 H   0  0  0  0  0  0  0  0  0  0  0  0
   -3.1233   44.4920   49.8698 H   0  0  0  0  0  0  0  0  0  0  0  0
   -2.4029   44.1926   52.5981 H   0  0  0  0  0  0  0  0  0  0  0  0
   -3.3095   43.0234   51.5646 H   0  0  0  0  0  0  0  0  0  0  0  0
    1.7006   43.9336   51.1895 H   0  0  0  0  0  0  0  0  0  0  0  0
    5.0730   45.8760   53.5500 H   0  0  0  0  0  0  0  0  0  0  0  0
    4.4097   43.4413   51.2839 H   0  0  0  0  0  0  0  0  0  0  0  0
    5.9168   42.4106   49.5935 H   0  0  0  0  0  0  0  0  0  0  0  0
    8.6323   45.7458   49.9535 H   0  0  0  0  0  0  0  0  0  0  0  0
    7.8682   47.7276   51.0251 H   0  0  0  0  0  0  0  0  0  0  0  0
    6.3541   47.7575   52.0127 H   0  0  0  0  0  0  0  0  0  0  0  0
   10.3409   46.0682   53.8677 H   0  0  0  0  0  0  0  0  0  0  0  0
    9.7079   45.3637   52.3414 H   0  0  0  0  0  0  0  0  0  0  0  0
   10.4224   47.0118   52.3414 H   0  0  0  0  0  0  0  0  0  0  0  0
    1.4996   46.4755   54.6793 H   0  0  0  0  0  0  0  0  0  0  0  0
    0.1256   44.6362   56.2161 H   0  0  0  0  0  0  0  0  0  0  0  0
   -1.2557   45.3037   55.2817 H   0  0  0  0  0  0  0  0  0  0  0  0
   -0.9425   43.5349   55.2817 H   0  0  0  0  0  0  0  0  0  0  0  0
  1  2  1  0
  2  3  1  0
  3  4  1  0
  4  5  2  0
  4  6  1  0
  6  7  2  0
  7  8  1  0
  8  9  1  0
  9 10  2  0
  9 11  2  0
  9 12  1  0
 12 13  1  0
 13 14  2  0
 14 15  1  0
 15 16  2  0
 16 17  1  0
 16 18  1  0
 18 19  2  0
 19 20  1  0
 20 21  1  0
 21 22  1  0
 21 23  2  0
 21 24  2  0
  8 25  2  0
 25 26  1  0
 26 27  1  0
 26  6  1  0
 19 13  1  0
  1 28  1  0
  1 29  1  0
  1 30  1  0
  2 31  1  0
  2 32  1  0
  7 33  1  0
 12 34  1  0
 14 35  1  0
 15 36  1  0
 18 37  1  0
 20 38  1  0
 20 39  1  0
 22 40  1  0
 22 41  1  0
 22 42  1  0
 25 43  1  0
 27 44  1  0
 27 45  1  0
 27 46  1  0
M  END
>  <meeko>  (2) 
{"is_sidechain": [false], "free_energy": -7.876, "intermolecular_energy": -11.464, "internal_energy": -1.144}

$$$$
ligand_27_conformer_5_docked
     RDKit          3D

 46 47  0  0  0  0  0  0  0  0999 V2000
   11.1240   47.4890   56.4010 C   0  0  0  0  0  0  0  0  0  0  0  0
   10.0610   47.6940   55.3280 C   0  0  0  0  0  0  0  0  0  0  0  0
   10.5290   47.2290   54.0620 O   0  0  0  0  0  0  0  0  0  0  0  0
    9.7320   46.5160   53.1590 C   0  0  0  0  0  0  0  0  0  0  0  0
   10.2570   45.7040   52.3510 O   0  0  0  0  0  0  0  0  0  0  0  0
    8.2700   46.7220   53.1720 C   0  0  0  0  0  0  0  0  0  0  0  0
    7.3750   45.8730   53.7990 C   0  0  0  0  0  0  0  0  0  0  0  0
    6.1240   46.4020   53.5640 C   0  0  0  0  0  0  0  0  0  0  0  0
    4.6000   45.6980   54.0720 S   0  0  0  0  0  0  0  0  0  0  0  0
    3.7690   46.7220   54.7930 O   0  0  0  0  0  0  0  0  0  0  0  0
    4.8820   44.5480   54.9970 O   0  0  0  0  0  0  0  0  0  0  0  0
    3.7330   45.1260   52.6850 N   0  0  0  0  0  0  0  0  0  0  0  0
    4.2350   44.0670   51.8510 C   0  0  0  0  0  0  0  0  0  0  0  0
    5.4000   44.2730   51.0900 C   0  0  0  0  0  0  0  0  0  0  0  0
    5.9060   43.2630   50.2720 C   0  0  0  0  0  0  0  0  0  0  0  0
    5.2560   42.0330   50.1970 C   0  0  0  0  0  0  0  0  0  0  0  0
    5.7490   41.0530   49.4000 F   0  0  0  0  0  0  0  0  0  0  0  0
    4.0970   41.8090   50.9410 C   0  0  0  0  0  0  0  0  0  0  0  0
    3.5740   42.8130   51.7770 C   0  0  0  0  0  0  0  0  0  0  0  0
    2.3290   42.5050   52.5750 C   0  0  0  0  0  0  0  0  0  0  0  0
    0.8740   43.1740   51.7810 S   0  0  0  0  0  0  0  0  0  0  0  0
   -0.6110   42.3980   52.3820 C   0  0  0  0  0  0  0  0  0  0  0  0
    0.7940   44.6530   52.0430 O   0  0  0  0  0  0  0  0  0  0  0  0
    0.9780   42.9440   50.3000 O   0  0  0  0  0  0  0  0  0  0  0  0
    6.2880   47.5420   52.8060 C   0  0  0  0  0  0  0  0  0  0  0  0
    7.6010   47.7380   52.5710 N   0  0  0  0  0  0  0  0  0  0  0  0
    8.1590   48.8400   51.7900 C   0  0  0  0  0  0  0  0  0  0  0  0
   10.6629   47.5779   57.3957 H   0  0  0  0  0  0  0  0  0  0  0  0
   11.5681   46.4887   56.2908 H   0  0  0  0  0  0  0  0  0  0  0  0
   11.9082   48.2525   56.2908 H   0  0  0  0  0  0  0  0  0  0  0  0
    9.1547   47.1359   55.6056 H   0  0  0  0  0  0  0  0  0  0  0  0
    9.8375   48.7683   55.2508 H   0  0  0  0  0  0  0  0  0  0  0  0
    7.6131   44.9624   54.3684 H   0  0  0  0  0  0  0  0  0  0  0  0
    2.7730   45.5060   52.5370 H   0  0  0  0  0  0  0  0  0  0  0  0
    5.9180   45.2421   51.1407 H   0  0  0  0  0  0  0  0  0  0  0  0
    6.8198   43.4379   49.6851 H   0  0  0  0  0  0  0  0  0  0  0  0
    3.5865   40.8370   50.8733 H   0  0  0  0  0  0  0  0  0  0  0  0
    2.2201   41.4140   52.6641 H   0  0  0  0  0  0  0  0  0  0  0  0
    2.4280   42.9661   53.5688 H   0  0  0  0  0  0  0  0  0  0  0  0
   -0.6065   42.4003   53.4820 H   0  0  0  0  0  0  0  0  0  0  0  0
   -1.4880   42.9531   52.0177 H   0  0  0  0  0  0  0  0  0  0  0  0
   -0.6561   41.3611   52.0177 H   0  0  0  0  0  0  0  0  0  0  0  0
    5.4744   48.1904   52.4487 H   0  0  0  0  0  0  0  0  0  0  0  0
    8.5494   49.6109   52.4706 H   0  0  0  0  0  0  0  0  0  0  0  0
    8.9751   48.4635   51.1558 H   0  0  0  0  0  0  0  0  0  0  0  0
    7.3725   49.2750   51.1558 H   0  0  0  0  0  0  0  0  0  0  0  0
  1  2  1  0
  2  3  1  0
  3  4  1  0
  4  5  2  0
  4  6  1  0
  6  7  2  0
  7  8  1  0
  8  9  1  0
  9 10  2  0
  9 11  2  0
  9 12  1  0
 12 13  1  0
 13 14  2  0
 14 15  1  0
 15 16  2  0
 16 17  1  0
 16 18  1  0
 18 19  2  0
 19 20  1  0
 20 21  1  0
 21 22  1  0
 21 23  2  0
 21 24  2  0
  8 25  2  0
 25 26  1  0
 26 27  1  0
 26  6  1  0
 19 13  1  0
  1 28  1  0
  1 29  1  0
  1 30  1  0
  2 31  1  0
  2 32  1  0
  7 33  1  0
 12 34  1  0
 14 35  1  0
 15 36  1  0
 18 37  1  0
 20 38  1  0
 20 39  1  0
 22 40  1  0
 22 41  1  0
 22 42  1  0
 25 43  1  0
 27 44  1  0
 27 45  1  0
 27 46  1  0
M  END
>  <meeko>  (3) 
{"is_sidechain": [false], "free_energy": -7.802, "intermolecular_energy": -11.342, "internal_energy": -1.158}

$$$$
ligand_27_conformer_5_docked
     RDKit          3D

 46 47  0  0  0  0  0  0  0  0999 V2000
   -0.8650   43.5570   50.6990 C   0  0  0  0  0  0  0  0  0  0  0  0
   -1.3910   44.3550   51.8860 C   0  0  0  0  0  0  0  0  0  0  0  0
   -1.4600   43.5350   53.0520 O   0  0  0  0  0  0  0  0  0  0  0  0
   -0.3350   42.9840   53.6760 C   0  0  0  0  0  0  0  0  0  0  0  0
   -0.2270   41.7350   53.8080 O   0  0  0  0  0  0  0  0  0  0  0  0
    0.7260   43.8840   54.1700 C   0  0  0  0  0  0  0  0  0  0  0  0
    1.9760   44.0000   53.5860 C   0  0  0  0  0  0  0  0  0  0  0  0
    2.6650   44.9180   54.3490 C   0  0  0  0  0  0  0  0  0  0  0  0
    4.3330   45.4070   54.1070 S   0  0  0  0  0  0  0  0  0  0  0  0
    5.2540   44.2420   54.3340 O   0  0  0  0  0  0  0  0  0  0  0  0
    4.6640   46.4990   55.0850 O   0  0  0  0  0  0  0  0  0  0  0  0
    4.5360   45.9960   52.4900 N   0  0  0  0  0  0  0  0  0  0  0  0
    5.5880   45.5240   51.6290 C   0  0  0  0  0  0  0  0  0  0  0  0
    5.3680   44.3980   50.8150 C   0  0  0  0  0  0  0  0  0  0  0  0
    6.3710   43.9200   49.9720 C   0  0  0  0  0  0  0  0  0  0  0  0
    7.6110   44.5540   49.9310 C   0  0  0  0  0  0  0  0  0  0  0  0
    8.5850   44.0860   49.1130 F   0  0  0  0  0  0  0  0  0  0  0  0
    7.8510   45.6710   50.7340 C   0  0  0  0  0  0  0  0  0  0  0  0
    6.8500   46.1720   51.5850 C   0  0  0  0  0  0  0  0  0  0  0  0
    7.1600   47.3970   52.4130 C   0  0  0  0  0  0  0  0  0  0  0  0
    8.2070   46.9850   53.8020 S   0  0  0  0  0  0  0  0  0  0  0  0
    9.9310   47.1550   53.3920 C   0  0  0  0  0  0  0  0  0  0  0  0
    7.8860   47.8910   54.9590 O   0  0  0  0  0  0  0  0  0  0  0  0
    7.9410   45.5630   54.2070 O   0  0  0  0  0  0  0  0  0  0  0  0
    1.8300   45.3300   55.3650 C   0  0  0  0  0  0  0  0  0  0  0  0
    0.6440   44.6990   55.2520 N   0  0  0  0  0  0  0  0  0  0  0  0
   -0.4890   44.8720   56.1590 C   0  0  0  0  0  0  0  0  0  0  0  0
   -0.2939   42.6906   51.0638 H   0  0  0  0  0  0  0  0  0  0  0  0
   -1.7106   43.2079   50.0882 H   0  0  0  0  0  0  0  0  0  0  0  0
   -0.2108   44.1965   50.0882 H   0  0  0  0  0  0  0  0  0  0  0  0
   -0.7166   45.2022   52.0793 H   0  0  0  0  0  0  0  0  0  0  0  0
   -2.4014   44.7192   51.6485 H   0  0  0  0  0  0  0  0  0  0  0  0
    2.3437   43.4686   52.6958 H   0  0  0  0  0  0  0  0  0  0  0  0
    3.7950   46.6300   52.1200 H   0  0  0  0  0  0  0  0  0  0  0  0
    4.3935   43.8886   50.8437 H   0  0  0  0  0  0  0  0  0  0  0  0
    6.1827   43.0408   49.3383 H   0  0  0  0  0  0  0  0  0  0  0  0
    8.8337   46.1642   50.7004 H   0  0  0  0  0  0  0  0  0  0  0  0
    7.6745   48.1367   51.7820 H   0  0  0  0  0  0  0  0  0  0  0  0
    6.2148   47.8081   52.7971 H   0  0  0  0  0  0  0  0  0  0  0  0
   10.5238   47.2135   54.3168 H   0  0  0  0  0  0  0  0  0  0  0  0
   10.2554   46.2845   52.8029 H   0  0  0  0  0  0  0  0  0  0  0  0
   10.0791   48.0721   52.8029 H   0  0  0  0  0  0  0  0  0  0  0  0
    2.0905   46.0596   56.1460 H   0  0  0  0  0  0  0  0  0  0  0  0
   -0.1370   44.8183   57.1998 H   0  0  0  0  0  0  0  0  0  0  0  0
   -0.9558   45.8518   55.9799 H   0  0  0  0  0  0  0  0  0  0  0  0
   -1.2269   44.0761   55.9799 H   0  0  0  0  0  0  0  0  0  0  0  0
  1  2  1  0
  2  3  1  0
  3  4  1  0
  4  5  2  0
  4  6  1  0
  6  7  2  0
  7  8  1  0
  8  9  1  0
  9 10  2  0
  9 11  2  0
  9 12  1  0
 12 13  1  0
 13 14  2  0
 14 15  1  0
 15 16  2  0
 16 17  1  0
 16 18  1  0
 18 19  2  0
 19 20  1  0
 20 21  1  0
 21 22  1  0
 21 23  2  0
 21 24  2  0
  8 25  2  0
 25 26  1  0
 26 27  1  0
 26  6  1  0
 19 13  1  0
  1 28  1  0
  1 29  1  0
  1 30  1  0
  2 31  1  0
  2 32  1  0
  7 33  1  0
 12 34  1  0
 14 35  1  0
 15 36  1  0
 18 37  1  0
 20 38  1  0
 20 39  1  0
 22 40  1  0
 22 41  1  0
 22 42  1  0
 25 43  1  0
 27 44  1  0
 27 45  1  0
 27 46  1  0
M  END
>  <meeko>  (4) 
{"is_sidechain": [false], "free_energy": -7.616, "intermolecular_energy": -11.012, "internal_energy": -1.215}

$$$$
ligand_27_conformer_5_docked
     RDKit          3D

 46 47  0  0  0  0  0  0  0  0999 V2000
   10.0490   47.2660   54.7400 C   0  0  0  0  0  0  0  0  0  0  0  0
    9.7870   46.4930   53.4520 C   0  0  0  0  0  0  0  0  0  0  0  0
    9.3900   47.3780   52.4060 O   0  0  0  0  0  0  0  0  0  0  0  0
    8.1180   47.9580   52.3270 C   0  0  0  0  0  0  0  0  0  0  0  0
    7.9930   49.2070   52.2220 O   0  0  0  0  0  0  0  0  0  0  0  0
    6.9270   47.0850   52.3590 C   0  0  0  0  0  0  0  0  0  0  0  0
    5.8810   47.2360   53.2530 C   0  0  0  0  0  0  0  0  0  0  0  0
    4.9910   46.2240   52.9660 C   0  0  0  0  0  0  0  0  0  0  0  0
    3.5040   45.8890   53.8350 S   0  0  0  0  0  0  0  0  0  0  0  0
    2.3620   46.6540   53.2260 O   0  0  0  0  0  0  0  0  0  0  0  0
    3.6750   46.3100   55.2670 O   0  0  0  0  0  0  0  0  0  0  0  0
    3.1610   44.1920   53.7660 N   0  0  0  0  0  0  0  0  0  0  0  0
    1.9060   43.6820   53.2810 C   0  0  0  0  0  0  0  0  0  0  0  0
    0.8390   43.4920   54.1790 C   0  0  0  0  0  0  0  0  0  0  0  0
   -0.3880   42.9980   53.7340 C   0  0  0  0  0  0  0  0  0  0  0  0
   -0.5680   42.6810   52.3900 C   0  0  0  0  0  0  0  0  0  0  0  0
   -1.7600   42.1990   51.9610 F   0  0  0  0  0  0  0  0  0  0  0  0
    0.4800   42.8590   51.4840 C   0  0  0  0  0  0  0  0  0  0  0  0
    1.7220   43.3620   51.9110 C   0  0  0  0  0  0  0  0  0  0  0  0
    2.8100   43.5550   50.8810 C   0  0  0  0  0  0  0  0  0  0  0  0
    3.8490   42.1050   50.7660 S   0  0  0  0  0  0  0  0  0  0  0  0
    5.4050   42.4790   49.9850 C   0  0  0  0  0  0  0  0  0  0  0  0
    4.1090   41.5620   52.1430 O   0  0  0  0  0  0  0  0  0  0  0  0
    3.1380   41.0590   49.9540 O   0  0  0  0  0  0  0  0  0  0  0  0
    5.5110   45.4910   51.9210 C   0  0  0  0  0  0  0  0  0  0  0  0
    6.6940   46.0220   51.5490 N   0  0  0  0  0  0  0  0  0  0  0  0
    7.5460   45.5050   50.4810 C   0  0  0  0  0  0  0  0  0  0  0  0
    9.8308   46.6222   55.6048 H   0  0  0  0  0  0  0  0  0  0  0  0
   11.1032   47.5784   54.7722 H   0  0  0  0  0  0  0  0  0  0  0  0
    9.4020   48.1550   54.7722 H   0  0  0  0  0  0  0  0  0  0  0  0
   10.7062   45.9685   53.1521 H   0  0  0  0  0  0  0  0  0  0  0  0
    8.9771   45.7705   53.6311 H   0  0  0  0  0  0  0  0  0  0  0  0
    5.7809   48.0057   54.0324 H   0  0  0  0  0  0  0  0  0  0  0  0
    3.9460   43.5410   53.9880 H   0  0  0  0  0  0  0  0  0  0  0  0
    0.9737   43.7355   55.2432 H   0  0  0  0  0  0  0  0  0  0  0  0
   -1.2146   42.8588   54.4463 H   0  0  0  0  0  0  0  0  0  0  0  0
    0.3323   42.6029   50.4245 H   0  0  0  0  0  0  0  0  0  0  0  0
    2.3478   43.7448   49.9010 H   0  0  0  0  0  0  0  0  0  0  0  0
    3.4330   44.4089   51.1856 H   0  0  0  0  0  0  0  0  0  0  0  0
    6.1676   42.6623   50.7562 H   0  0  0  0  0  0  0  0  0  0  0  0
    5.7142   41.6296   49.3582 H   0  0  0  0  0  0  0  0  0  0  0  0
    5.2944   43.3761   49.3582 H   0  0  0  0  0  0  0  0  0  0  0  0
    5.0360   44.6112   51.4624 H   0  0  0  0  0  0  0  0  0  0  0  0
    8.4081   44.9819   50.9205 H   0  0  0  0  0  0  0  0  0  0  0  0
    6.9698   44.8041   49.8591 H   0  0  0  0  0  0  0  0  0  0  0  0
    7.9017   46.3397   49.8591 H   0  0  0  0  0  0  0  0  0  0  0  0
  1  2  1  0
  2  3  1  0
  3  4  1  0
  4  5  2  0
  4  6  1  0
  6  7  2  0
  7  8  1  0
  8  9  1  0
  9 10  2  0
  9 11  2  0
  9 12  1  0
 12 13  1  0
 13 14  2  0
 14 15  1  0
 15 16  2  0
 16 17  1  0
 16 18  1  0
 18 19  2  0
 19 20  1  0
 20 21  1  0
 21 22  1  0
 21 23  2  0
 21 24  2  0
  8 25  2  0
 25 26  1  0
 26 27  1  0
 26  6  1  0
 19 13  1  0
  1 28  1  0
  1 29  1  0
  1 30  1  0
  2 31  1  0
  2 32  1  0
  7 33  1  0
 12 34  1  0
 14 35  1  0
 15 36  1  0
 18 37  1  0
 20 38  1  0
 20 39  1  0
 22 40  1  0
 22 41  1  0
 22 42  1  0
 25 43  1  0
 27 44  1  0
 27 45  1  0
 27 46  1  0
M  END
>  <meeko>  (5) 
{"is_sidechain": [false], "free_energy": -7.595, "intermolecular_energy": -11.005, "internal_energy": -1.19}

$$$$
