MODEL 1
REMARK VINA RESULT:    -8.728      0.000      0.000
REMARK INTER + INTRA:         -11.816
REMARK INTER:                 -11.279
REMARK INTRA:                  -0.537
REMARK UNBOUND:                -0.537
REMARK SMILES CC(=O)Nc1ccc(CNC(=O)C2CCN(c3cnccn3)CC2)cc1
REMARK SMILES IDX 9 1 8 2 5 3 6 4 26 5 7 6 25 7 4 8 2 9 3 10 1 11 10 13 11 14
REMARK SMILES IDX 12 15 13 17 14 18 24 19 15 20 23 21 16 22 17 23 18 24 22 25
REMARK SMILES IDX 19 26 21 27 20 28
REMARK H PARENT 4 12 10 16
ROOT
ATOM      1  C   UNL     1       5.559  45.709  50.513  1.00  0.00     0.151 C 
ENDROOT
BRANCH   1   2
ATOM      2  C   UNL     1       6.683  45.971  51.475  1.00  0.00    -0.029 A 
ATOM      3  C   UNL     1       8.794  46.415  53.290  1.00  0.00     0.041 A 
ATOM      4  C   UNL     1       7.510  46.080  53.758  1.00  0.00     0.026 A 
ATOM      5  C   UNL     1       9.018  46.490  51.907  1.00  0.00     0.026 A 
ATOM      6  C   UNL     1       6.464  45.863  52.857  1.00  0.00     0.008 A 
ATOM      7  C   UNL     1       7.970  46.276  51.007  1.00  0.00     0.008 A 
BRANCH   3   8
ATOM      8  N   UNL     1       9.893  46.620  54.195  1.00  0.00    -0.326 N 
ATOM      9  C   UNL     1       9.900  47.601  55.242  1.00  0.00     0.221 C 
ATOM     10  O   UNL     1       9.021  48.504  55.285  1.00  0.00    -0.275 OA
ATOM     11  C   UNL     1      11.007  47.607  56.246  1.00  0.00     0.114 C 
ATOM     12  H   UNL     1      10.775  46.085  54.027  1.00  0.00     0.169 HD
ENDBRANCH   3   8
ENDBRANCH   1   2
BRANCH   1  13
ATOM     13  N   UNL     1       4.637  44.722  51.071  1.00  0.00    -0.352 N 
ATOM     14  C   UNL     1       3.219  44.939  51.127  1.00  0.00     0.223 C 
ATOM     15  O   UNL     1       2.742  46.056  50.790  1.00  0.00    -0.275 OA
ATOM     16  H   UNL     1       5.030  43.826  51.437  1.00  0.00     0.163 HD
BRANCH  14  17
ATOM     17  C   UNL     1       2.317  43.843  51.650  1.00  0.00     0.082 C 
ATOM     18  C   UNL     1       0.814  44.153  51.480  1.00  0.00     0.035 C 
ATOM     19  C   UNL     1       2.650  43.489  53.109  1.00  0.00     0.035 C 
ATOM     20  C   UNL     1       0.275  45.159  52.510  1.00  0.00     0.119 C 
ATOM     21  C   UNL     1       2.153  44.560  54.081  1.00  0.00     0.119 C 
ATOM     22  N   UNL     1       0.723  44.816  53.866  1.00  0.00    -0.355 N 
BRANCH  22  23
ATOM     23  C   UNL     1      -0.145  44.993  55.005  1.00  0.00     0.147 A 
ATOM     24  C   UNL     1       0.347  45.436  56.245  1.00  0.00     0.157 A 
ATOM     25  N   UNL     1      -1.475  44.720  54.891  1.00  0.00    -0.236 NA
ATOM     26  N   UNL     1      -0.508  45.590  57.290  1.00  0.00    -0.259 NA
ATOM     27  C   UNL     1      -2.326  44.876  55.937  1.00  0.00     0.133 A 
ATOM     28  C   UNL     1      -1.833  45.323  57.161  1.00  0.00     0.131 A 
ENDBRANCH  22  23
ENDBRANCH  14  17
ENDBRANCH   1  13
TORSDOF 5
ENDMDL
MODEL 2
REMARK VINA RESULT:    -8.453      4.952      9.152
REMARK INTER + INTRA:         -11.461
REMARK INTER:                 -10.878
REMARK INTRA:                  -0.583
REMARK UNBOUND:                -0.537
REMARK SMILES CC(=O)Nc1ccc(CNC(=O)C2CCN(c3cnccn3)CC2)cc1
REMARK SMILES IDX 9 1 8 2 5 3 6 4 26 5 7 6 25 7 4 8 2 9 3 10 1 11 10 13 11 14
REMARK SMILES IDX 12 15 13 17 14 18 24 19 15 20 23 21 16 22 17 23 18 24 22 25
REMARK SMILES IDX 19 26 21 27 20 28
REMARK H PARENT 4 12 10 16
ROOT
ATOM      1  C   UNL     1       5.426  41.435  49.796  1.00  0.00     0.151 C 
ENDROOT
BRANCH   1   2
ATOM      2  C   UNL     1       5.013  41.218  48.368  1.00  0.00    -0.029 A 
ATOM      3  C   UNL     1       4.202  40.842  45.695  1.00  0.00     0.041 A 
ATOM      4  C   UNL     1       3.444  40.306  46.752  1.00  0.00     0.026 A 
ATOM      5  C   UNL     1       5.347  41.597  45.990  1.00  0.00     0.026 A 
ATOM      6  C   UNL     1       3.849  40.491  48.076  1.00  0.00     0.008 A 
ATOM      7  C   UNL     1       5.753  41.779  47.315  1.00  0.00     0.008 A 
BRANCH   3   8
ATOM      8  N   UNL     1       3.794  40.687  44.324  1.00  0.00    -0.326 N 
ATOM      9  C   UNL     1       4.171  39.579  43.494  1.00  0.00     0.221 C 
ATOM     10  O   UNL     1       5.079  38.782  43.856  1.00  0.00    -0.275 OA
ATOM     11  C   UNL     1       3.543  39.412  42.149  1.00  0.00     0.114 C 
ATOM     12  H   UNL     1       3.265  41.469  43.877  1.00  0.00     0.169 HD
ENDBRANCH   3   8
ENDBRANCH   1   2
BRANCH   1  13
ATOM     13  N   UNL     1       5.190  42.824  50.185  1.00  0.00    -0.352 N 
ATOM     14  C   UNL     1       4.246  43.189  51.202  1.00  0.00     0.223 C 
ATOM     15  O   UNL     1       3.505  42.308  51.715  1.00  0.00    -0.275 OA
ATOM     16  H   UNL     1       5.735  43.574  49.702  1.00  0.00     0.163 HD
BRANCH  14  17
ATOM     17  C   UNL     1       4.107  44.641  51.605  1.00  0.00     0.082 C 
ATOM     18  C   UNL     1       5.022  45.591  50.802  1.00  0.00     0.035 C 
ATOM     19  C   UNL     1       4.308  44.825  53.119  1.00  0.00     0.035 C 
ATOM     20  C   UNL     1       6.491  45.552  51.251  1.00  0.00     0.119 C 
ATOM     21  C   UNL     1       5.781  44.705  53.515  1.00  0.00     0.119 C 
ATOM     22  N   UNL     1       6.598  45.624  52.714  1.00  0.00    -0.355 N 
BRANCH  22  23
ATOM     23  C   UNL     1       7.661  46.366  53.348  1.00  0.00     0.147 A 
ATOM     24  C   UNL     1       7.428  47.159  54.486  1.00  0.00     0.157 A 
ATOM     25  N   UNL     1       8.922  46.312  52.838  1.00  0.00    -0.236 NA
ATOM     26  N   UNL     1       8.460  47.839  55.051  1.00  0.00    -0.259 NA
ATOM     27  C   UNL     1       9.951  46.992  53.406  1.00  0.00     0.133 A 
ATOM     28  C   UNL     1       9.715  47.770  54.538  1.00  0.00     0.131 A 
ENDBRANCH  22  23
ENDBRANCH  14  17
ENDBRANCH   1  13
TORSDOF 5
ENDMDL
MODEL 3
REMARK VINA RESULT:    -8.270      3.397      6.351
REMARK INTER + INTRA:         -11.225
REMARK INTER:                 -10.464
REMARK INTRA:                  -0.760
REMARK UNBOUND:                -0.537
REMARK SMILES CC(=O)Nc1ccc(CNC(=O)C2CCN(c3cnccn3)CC2)cc1
REMARK SMILES IDX 9 1 8 2 5 3 6 4 26 5 7 6 25 7 4 8 2 9 3 10 1 11 10 13 11 14
REMARK SMILES IDX 12 15 13 17 14 18 24 19 15 20 23 21 16 22 17 23 18 24 22 25
REMARK SMILES IDX 19 26 21 27 20 28
REMARK H PARENT 4 12 10 16
ROOT
ATOM      1  C   UNL     1       6.435  44.504  50.763  1.00  0.00     0.151 C 
ENDROOT
BRANCH   1   2
ATOM      2  C   UNL     1       5.775  43.281  50.190  1.00  0.00    -0.029 A 
ATOM      3  C   UNL     1       4.573  40.962  49.131  1.00  0.00     0.041 A 
ATOM      4  C   UNL     1       5.709  41.521  48.516  1.00  0.00     0.026 A 
ATOM      5  C   UNL     1       4.069  41.553  50.299  1.00  0.00     0.026 A 
ATOM      6  C   UNL     1       6.301  42.672  49.041  1.00  0.00     0.008 A 
ATOM      7  C   UNL     1       4.660  42.708  50.821  1.00  0.00     0.008 A 
BRANCH   3   8
ATOM      8  N   UNL     1       3.959  39.764  48.625  1.00  0.00    -0.326 N 
ATOM      9  C   UNL     1       3.216  39.697  47.399  1.00  0.00     0.221 C 
ATOM     10  O   UNL     1       2.864  40.750  46.801  1.00  0.00    -0.275 OA
ATOM     11  C   UNL     1       2.781  38.371  46.866  1.00  0.00     0.114 C 
ATOM     12  H   UNL     1       3.977  38.910  49.227  1.00  0.00     0.169 HD
ENDBRANCH   3   8
ENDBRANCH   1   2
BRANCH   1  13
ATOM     13  N   UNL     1       5.428  45.422  51.290  1.00  0.00    -0.352 N 
ATOM     14  C   UNL     1       5.573  46.078  52.558  1.00  0.00     0.223 C 
ATOM     15  O   UNL     1       6.542  45.785  53.309  1.00  0.00    -0.275 OA
ATOM     16  H   UNL     1       4.574  45.605  50.716  1.00  0.00     0.163 HD
BRANCH  14  17
ATOM     17  C   UNL     1       4.526  47.073  53.007  1.00  0.00     0.082 C 
ATOM     18  C   UNL     1       4.420  47.201  54.543  1.00  0.00     0.035 C 
ATOM     19  C   UNL     1       3.155  46.768  52.380  1.00  0.00     0.035 C 
ATOM     20  C   UNL     1       3.671  46.034  55.205  1.00  0.00     0.119 C 
ATOM     21  C   UNL     1       2.489  45.554  53.032  1.00  0.00     0.119 C 
ATOM     22  N   UNL     1       2.426  45.732  54.487  1.00  0.00    -0.355 N 
BRANCH  22  23
ATOM     23  C   UNL     1       1.231  45.344  55.198  1.00  0.00     0.147 A 
ATOM     24  C   UNL     1       1.154  45.415  56.600  1.00  0.00     0.157 A 
ATOM     25  N   UNL     1       0.149  44.891  54.507  1.00  0.00    -0.236 NA
ATOM     26  N   UNL     1       0.008  45.041  57.228  1.00  0.00    -0.259 NA
ATOM     27  C   UNL     1      -0.995  44.519  55.138  1.00  0.00     0.133 A 
ATOM     28  C   UNL     1      -1.068  44.599  56.527  1.00  0.00     0.131 A 
ENDBRANCH  22  23
ENDBRANCH  14  17
ENDBRANCH   1  13
TORSDOF 5
ENDMDL
MODEL 4
REMARK VINA RESULT:    -8.162      3.617      8.089
REMARK INTER + INTRA:         -11.086
REMARK INTER:                 -11.143
REMARK INTRA:                   0.057
REMARK UNBOUND:                -0.537
REMARK SMILES CC(=O)Nc1ccc(CNC(=O)C2CCN(c3cnccn3)CC2)cc1
REMARK SMILES IDX 9 1 8 2 5 3 6 4 26 5 7 6 25 7 4 8 2 9 3 10 1 11 10 13 11 14
REMARK SMILES IDX 12 15 13 17 14 18 24 19 15 20 23 21 16 22 17 23 18 24 22 25
REMARK SMILES IDX 19 26 21 27 20 28
REMARK H PARENT 4 12 10 16
ROOT
ATOM      1  C   UNL     1       3.768  42.281  52.223  1.00  0.00     0.151 C 
ENDROOT
BRANCH   1   2
ATOM      2  C   UNL     1       4.307  41.981  50.853  1.00  0.00    -0.029 A 
ATOM      3  C   UNL     1       5.280  41.441  48.263  1.00  0.00     0.041 A 
ATOM      4  C   UNL     1       4.135  40.782  48.746  1.00  0.00     0.026 A 
ATOM      5  C   UNL     1       5.909  42.398  49.073  1.00  0.00     0.026 A 
ATOM      6  C   UNL     1       3.656  41.048  50.031  1.00  0.00     0.008 A 
ATOM      7  C   UNL     1       5.431  42.661  50.360  1.00  0.00     0.008 A 
BRANCH   3   8
ATOM      8  N   UNL     1       5.780  41.203  46.936  1.00  0.00    -0.326 N 
ATOM      9  C   UNL     1       4.959  41.182  45.758  1.00  0.00     0.221 C 
ATOM     10  O   UNL     1       3.702  41.147  45.850  1.00  0.00    -0.275 OA
ATOM     11  C   UNL     1       5.598  41.116  44.409  1.00  0.00     0.114 C 
ATOM     12  H   UNL     1       6.786  40.941  46.829  1.00  0.00     0.169 HD
ENDBRANCH   3   8
ENDBRANCH   1   2
BRANCH   1  13
ATOM     13  N   UNL     1       4.054  43.668  52.585  1.00  0.00    -0.352 N 
ATOM     14  C   UNL     1       3.027  44.585  52.989  1.00  0.00     0.223 C 
ATOM     15  O   UNL     1       1.817  44.237  52.932  1.00  0.00    -0.275 OA
ATOM     16  H   UNL     1       5.046  43.996  52.551  1.00  0.00     0.163 HD
BRANCH  14  17
ATOM     17  C   UNL     1       3.404  45.985  53.422  1.00  0.00     0.082 C 
ATOM     18  C   UNL     1       4.202  46.763  52.353  1.00  0.00     0.035 C 
ATOM     19  C   UNL     1       4.145  45.975  54.770  1.00  0.00     0.035 C 
ATOM     20  C   UNL     1       5.676  46.339  52.258  1.00  0.00     0.119 C 
ATOM     21  C   UNL     1       5.584  45.476  54.624  1.00  0.00     0.119 C 
ATOM     22  N   UNL     1       6.286  46.248  53.592  1.00  0.00    -0.355 N 
BRANCH  22  23
ATOM     23  C   UNL     1       7.651  46.657  53.816  1.00  0.00     0.147 A 
ATOM     24  C   UNL     1       8.700  46.199  52.999  1.00  0.00     0.157 A 
ATOM     25  N   UNL     1       7.946  47.499  54.844  1.00  0.00    -0.236 NA
ATOM     26  N   UNL     1       9.971  46.612  53.246  1.00  0.00    -0.259 NA
ATOM     27  C   UNL     1       9.217  47.910  55.087  1.00  0.00     0.133 A 
ATOM     28  C   UNL     1      10.251  47.459  54.269  1.00  0.00     0.131 A 
ENDBRANCH  22  23
ENDBRANCH  14  17
ENDBRANCH   1  13
TORSDOF 5
ENDMDL
MODEL 5
REMARK VINA RESULT:    -7.923      2.989      5.964
REMARK INTER + INTRA:         -10.776
REMARK INTER:                 -10.792
REMARK INTRA:                   0.015
REMARK UNBOUND:                -0.537
REMARK SMILES CC(=O)Nc1ccc(CNC(=O)C2CCN(c3cnccn3)CC2)cc1
REMARK SMILES IDX 9 1 8 2 5 3 6 4 26 5 7 6 25 7 4 8 2 9 3 10 1 11 10 13 11 14
REMARK SMILES IDX 12 15 13 17 14 18 24 19 15 20 23 21 16 22 17 23 18 24 22 25
REMARK SMILES IDX 19 26 21 27 20 28
REMARK H PARENT 4 12 10 16
ROOT
ATOM      1  C   UNL     1       7.502  45.554  51.220  1.00  0.00     0.151 C 
ENDROOT
BRANCH   1   2
ATOM      2  C   UNL     1       6.926  44.406  50.439  1.00  0.00    -0.029 A 
ATOM      3  C   UNL     1       5.880  42.225  48.992  1.00  0.00     0.041 A 
ATOM      4  C   UNL     1       7.120  42.787  48.637  1.00  0.00     0.026 A 
ATOM      5  C   UNL     1       5.189  42.742  50.099  1.00  0.00     0.026 A 
ATOM      6  C   UNL     1       7.635  43.870  49.353  1.00  0.00     0.008 A 
ATOM      7  C   UNL     1       5.704  43.828  50.813  1.00  0.00     0.008 A 
BRANCH   3   8
ATOM      8  N   UNL     1       5.338  41.096  48.287  1.00  0.00    -0.326 N 
ATOM      9  C   UNL     1       4.017  40.574  48.497  1.00  0.00     0.221 C 
ATOM     10  O   UNL     1       3.330  40.942  49.488  1.00  0.00    -0.275 OA
ATOM     11  C   UNL     1       3.481  39.521  47.583  1.00  0.00     0.114 C 
ATOM     12  H   UNL     1       5.971  40.566  47.646  1.00  0.00     0.169 HD
ENDBRANCH   3   8
ENDBRANCH   1   2
BRANCH   1  13
ATOM     13  N   UNL     1       6.869  45.638  52.534  1.00  0.00    -0.352 N 
ATOM     14  C   UNL     1       6.624  46.890  53.192  1.00  0.00     0.223 C 
ATOM     15  O   UNL     1       7.060  47.960  52.687  1.00  0.00    -0.275 OA
ATOM     16  H   UNL     1       6.582  44.750  53.005  1.00  0.00     0.163 HD
BRANCH  14  17
ATOM     17  C   UNL     1       5.896  46.907  54.518  1.00  0.00     0.082 C 
ATOM     18  C   UNL     1       5.696  45.501  55.126  1.00  0.00     0.035 C 
ATOM     19  C   UNL     1       4.560  47.662  54.416  1.00  0.00     0.035 C 
ATOM     20  C   UNL     1       4.569  44.698  54.457  1.00  0.00     0.119 C 
ATOM     21  C   UNL     1       3.499  46.843  53.679  1.00  0.00     0.119 C 
ATOM     22  N   UNL     1       3.361  45.519  54.297  1.00  0.00    -0.355 N 
BRANCH  22  23
ATOM     23  C   UNL     1       2.046  44.952  54.475  1.00  0.00     0.147 A 
ATOM     24  C   UNL     1       1.586  43.893  53.673  1.00  0.00     0.157 A 
ATOM     25  N   UNL     1       1.218  45.450  55.435  1.00  0.00    -0.236 NA
ATOM     26  N   UNL     1       0.341  43.388  53.878  1.00  0.00    -0.259 NA
ATOM     27  C   UNL     1      -0.025  44.943  55.637  1.00  0.00     0.133 A 
ATOM     28  C   UNL     1      -0.472  43.888  54.844  1.00  0.00     0.131 A 
ENDBRANCH  22  23
ENDBRANCH  14  17
ENDBRANCH   1  13
TORSDOF 5
ENDMDL
