ligand_17_conformer_4_docked
     RDKit          3D

 40 42  0  0  0  0  0  0  0  0999 V2000
    4.7740   47.9830   53.7460 O   0  0  0  0  0  0  0  0  0  0  0  0
    4.5820   46.7720   53.4490 C   0  0  0  0  0  0  0  0  0  0  0  0
    5.5930   46.0470   52.7290 N   0  0  0  0  0  0  0  0  0  0  0  0
    6.9810   46.4280   52.7010 C   0  0  0  0  0  0  0  0  0  0  0  0
    7.5590   46.9970   51.5530 C   0  0  0  0  0  0  0  0  0  0  0  0
    8.9020   47.3800   51.5570 C   0  0  0  0  0  0  0  0  0  0  0  0
    9.6760   47.2120   52.7070 C   0  0  0  0  0  0  0  0  0  0  0  0
    9.1150   46.6680   53.8670 C   0  0  0  0  0  0  0  0  0  0  0  0
    9.9340   46.5290   54.9990 O   0  0  0  0  0  0  0  0  0  0  0  0
   10.6540   47.5920   55.6160 C   0  0  0  0  0  0  0  0  0  0  0  0
    9.7750   48.6120   55.9230 F   0  0  0  0  0  0  0  0  0  0  0  0
   11.2490   47.1450   56.7820 F   0  0  0  0  0  0  0  0  0  0  0  0
    7.7600   46.2820   53.8600 C   0  0  0  0  0  0  0  0  0  0  0  0
    3.2920   46.1290   53.8010 C   0  0  0  0  0  0  0  0  0  0  0  0
    2.4210   45.6610   52.8020 C   0  0  0  0  0  0  0  0  0  0  0  0
    1.2080   45.0600   53.1440 C   0  0  0  0  0  0  0  0  0  0  0  0
    0.8540   44.9050   54.4860 C   0  0  0  0  0  0  0  0  0  0  0  0
    1.7250   45.3340   55.5010 C   0  0  0  0  0  0  0  0  0  0  0  0
    1.3730   45.2060   56.8890 N   0  0  0  0  0  0  0  0  0  0  0  0
    0.6720   46.2070   57.6400 C   0  0  0  0  0  0  0  0  0  0  0  0
    1.2480   46.7360   58.7530 N   0  0  0  0  0  0  0  0  0  0  0  0
    0.6000   47.6650   59.5050 C   0  0  0  0  0  0  0  0  0  0  0  0
   -0.6790   48.0830   59.1420 C   0  0  0  0  0  0  0  0  0  0  0  0
   -1.2630   47.5240   58.0070 C   0  0  0  0  0  0  0  0  0  0  0  0
   -0.5830   46.5970   57.2820 N   0  0  0  0  0  0  0  0  0  0  0  0
    2.9310   45.9590   55.1510 C   0  0  0  0  0  0  0  0  0  0  0  0
    5.2870   45.2700   52.1010 H   0  0  0  0  0  0  0  0  0  0  0  0
    6.9510   47.1412   50.6477 H   0  0  0  0  0  0  0  0  0  0  0  0
    9.3512   47.8151   50.6520 H   0  0  0  0  0  0  0  0  0  0  0  0
   10.7349   47.5097   52.7006 H   0  0  0  0  0  0  0  0  0  0  0  0
   11.4309   47.9531   54.9261 H   0  0  0  0  0  0  0  0  0  0  0  0
    7.3082   45.8624   54.7709 H   0  0  0  0  0  0  0  0  0  0  0  0
    2.6971   45.7690   51.7427 H   0  0  0  0  0  0  0  0  0  0  0  0
    0.5289   44.7074   52.3537 H   0  0  0  0  0  0  0  0  0  0  0  0
   -0.1102   44.4454   54.7490 H   0  0  0  0  0  0  0  0  0  0  0  0
    1.5670   44.2940   57.3640 H   0  0  0  0  0  0  0  0  0  0  0  0
    1.0844   48.0860   60.3984 H   0  0  0  0  0  0  0  0  0  0  0  0
   -1.2150   48.8366   59.7376 H   0  0  0  0  0  0  0  0  0  0  0  0
   -2.2727   47.8325   57.6983 H   0  0  0  0  0  0  0  0  0  0  0  0
    3.6039   46.3212   55.9422 H   0  0  0  0  0  0  0  0  0  0  0  0
  1  2  2  0
  2  3  1  0
  3  4  1  0
  4  5  2  0
  5  6  1  0
  6  7  2  0
  7  8  1  0
  8  9  1  0
  9 10  1  0
 10 11  1  0
 10 12  1  0
  8 13  2  0
  2 14  1  0
 14 15  2  0
 15 16  1  0
 16 17  2  0
 17 18  1  0
 18 19  1  0
 19 20  1  0
 20 21  2  0
 21 22  1  0
 22 23  2  0
 23 24  1  0
 24 25  2  0
 18 26  2  0
 13  4  1  0
 26 14  1  0
 25 20  1  0
  3 27  1  0
  5 28  1  0
  6 29  1  0
  7 30  1  0
 10 31  1  0
 13 32  1  0
 15 33  1  0
 16 34  1  0
 17 35  1  0
 19 36  1  0
 22 37  1  0
 23 38  1  0
 24 39  1  0
 26 40  1  0
M  END
>  <meeko>  (1) 
{"is_sidechain": [false], "free_energy": -9.008, "intermolecular_energy": -12.168, "internal_energy": -0.802}

$$$$
ligand_17_conformer_4_docked
     RDKit          3D

 40 42  0  0  0  0  0  0  0  0999 V2000
    2.3440   45.8740   52.3480 O   0  0  0  0  0  0  0  0  0  0  0  0
    2.9660   44.8280   52.6840 C   0  0  0  0  0  0  0  0  0  0  0  0
    2.6440   44.1770   53.9250 N   0  0  0  0  0  0  0  0  0  0  0  0
    1.3880   44.3380   54.6080 C   0  0  0  0  0  0  0  0  0  0  0  0
    0.1910   43.8390   54.0650 C   0  0  0  0  0  0  0  0  0  0  0  0
   -1.0120   43.9870   54.7580 C   0  0  0  0  0  0  0  0  0  0  0  0
   -1.0330   44.6200   56.0020 C   0  0  0  0  0  0  0  0  0  0  0  0
    0.1500   45.1040   56.5710 C   0  0  0  0  0  0  0  0  0  0  0  0
    0.0760   45.7240   57.8290 O   0  0  0  0  0  0  0  0  0  0  0  0
    0.8160   46.8800   58.2090 C   0  0  0  0  0  0  0  0  0  0  0  0
   -0.0590   47.8450   58.6660 F   0  0  0  0  0  0  0  0  0  0  0  0
    1.7030   46.5610   59.2220 F   0  0  0  0  0  0  0  0  0  0  0  0
    1.3630   44.9530   55.8690 C   0  0  0  0  0  0  0  0  0  0  0  0
    4.0580   44.3170   51.8190 C   0  0  0  0  0  0  0  0  0  0  0  0
    4.0410   42.9960   51.3410 C   0  0  0  0  0  0  0  0  0  0  0  0
    5.0750   42.5240   50.5290 C   0  0  0  0  0  0  0  0  0  0  0  0
    6.1300   43.3670   50.1730 C   0  0  0  0  0  0  0  0  0  0  0  0
    6.1480   44.7010   50.6110 C   0  0  0  0  0  0  0  0  0  0  0  0
    7.2340   45.5820   50.2750 N   0  0  0  0  0  0  0  0  0  0  0  0
    8.1480   46.1350   51.2320 C   0  0  0  0  0  0  0  0  0  0  0  0
    9.4370   45.6980   51.2580 N   0  0  0  0  0  0  0  0  0  0  0  0
   10.3230   46.1800   52.1690 C   0  0  0  0  0  0  0  0  0  0  0  0
    9.9130   47.1290   53.1020 C   0  0  0  0  0  0  0  0  0  0  0  0
    8.5870   47.5590   53.0740 C   0  0  0  0  0  0  0  0  0  0  0  0
    7.7310   47.0530   52.1470 N   0  0  0  0  0  0  0  0  0  0  0  0
    5.1200   45.1620   51.4460 C   0  0  0  0  0  0  0  0  0  0  0  0
    3.4020   43.6500   54.4150 H   0  0  0  0  0  0  0  0  0  0  0  0
    0.2023   43.3298   53.0900 H   0  0  0  0  0  0  0  0  0  0  0  0
   -1.9464   43.6035   54.3223 H   0  0  0  0  0  0  0  0  0  0  0  0
   -1.9859   44.7391   56.5384 H   0  0  0  0  0  0  0  0  0  0  0  0
    1.3756   47.2548   57.3393 H   0  0  0  0  0  0  0  0  0  0  0  0
    2.2992   45.3209   56.3141 H   0  0  0  0  0  0  0  0  0  0  0  0
    3.2080   42.3290   51.6079 H   0  0  0  0  0  0  0  0  0  0  0  0
    5.0582   41.4848   50.1688 H   0  0  0  0  0  0  0  0  0  0  0  0
    6.9498   42.9846   49.5472 H   0  0  0  0  0  0  0  0  0  0  0  0
    7.4220   45.7690   49.2640 H   0  0  0  0  0  0  0  0  0  0  0  0
   11.3627   45.8209   52.1693 H   0  0  0  0  0  0  0  0  0  0  0  0
   10.6190   47.5302   53.8440 H   0  0  0  0  0  0  0  0  0  0  0  0
    8.2343   48.3060   53.8004 H   0  0  0  0  0  0  0  0  0  0  0  0
    5.1439   46.1982   51.8145 H   0  0  0  0  0  0  0  0  0  0  0  0
  1  2  2  0
  2  3  1  0
  3  4  1  0
  4  5  2  0
  5  6  1  0
  6  7  2  0
  7  8  1  0
  8  9  1  0
  9 10  1  0
 10 11  1  0
 10 12  1  0
  8 13  2  0
  2 14  1  0
 14 15  2  0
 15 16  1  0
 16 17  2  0
 17 18  1  0
 18 19  1  0
 19 20  1  0
 20 21  2  0
 21 22  1  0
 22 23  2  0
 23 24  1  0
 24 25  2  0
 18 26  2  0
 13  4  1  0
 26 14  1  0
 25 20  1  0
  3 27  1  0
  5 28  1  0
  6 29  1  0
  7 30  1  0
 10 31  1  0
 13 32  1  0
 15 33  1  0
 16 34  1  0
 17 35  1  0
 19 36  1  0
 22 37  1  0
 23 38  1  0
 24 39  1  0
 26 40  1  0
M  END
>  <meeko>  (2) 
{"is_sidechain": [false], "free_energy": -8.792, "intermolecular_energy": -12.072, "internal_energy": -0.607}

$$$$
ligand_17_conformer_4_docked
     RDKit          3D

 40 42  0  0  0  0  0  0  0  0999 V2000
    3.2760   46.8170   51.9740 O   0  0  0  0  0  0  0  0  0  0  0  0
    3.3970   45.7910   52.6980 C   0  0  0  0  0  0  0  0  0  0  0  0
    4.6160   45.0300   52.6560 N   0  0  0  0  0  0  0  0  0  0  0  0
    5.8750   45.5640   52.2080 C   0  0  0  0  0  0  0  0  0  0  0  0
    6.4170   45.2110   50.9600 C   0  0  0  0  0  0  0  0  0  0  0  0
    7.6290   45.7590   50.5370 C   0  0  0  0  0  0  0  0  0  0  0  0
    8.3060   46.6740   51.3470 C   0  0  0  0  0  0  0  0  0  0  0  0
    7.7730   47.0560   52.5830 C   0  0  0  0  0  0  0  0  0  0  0  0
    8.4890   47.9860   53.3540 O   0  0  0  0  0  0  0  0  0  0  0  0
    9.1490   47.6870   54.5810 C   0  0  0  0  0  0  0  0  0  0  0  0
   10.4560   47.3310   54.3150 F   0  0  0  0  0  0  0  0  0  0  0  0
    9.1440   48.8000   55.4030 F   0  0  0  0  0  0  0  0  0  0  0  0
    6.5500   46.5000   53.0070 C   0  0  0  0  0  0  0  0  0  0  0  0
    2.2590   45.3560   53.5440 C   0  0  0  0  0  0  0  0  0  0  0  0
    1.1330   44.7350   52.9760 C   0  0  0  0  0  0  0  0  0  0  0  0
    0.0660   44.3320   53.7810 C   0  0  0  0  0  0  0  0  0  0  0  0
    0.1130   44.5290   55.1630 C   0  0  0  0  0  0  0  0  0  0  0  0
    1.2420   45.1170   55.7550 C   0  0  0  0  0  0  0  0  0  0  0  0
    1.3060   45.3510   57.1720 N   0  0  0  0  0  0  0  0  0  0  0  0
    0.5660   46.3740   57.8550 C   0  0  0  0  0  0  0  0  0  0  0  0
    1.0340   46.8640   59.0350 N   0  0  0  0  0  0  0  0  0  0  0  0
    0.3450   47.8120   59.7220 C   0  0  0  0  0  0  0  0  0  0  0  0
   -0.8660   48.2900   59.2240 C   0  0  0  0  0  0  0  0  0  0  0  0
   -1.3400   47.7700   58.0210 C   0  0  0  0  0  0  0  0  0  0  0  0
   -0.6220   46.8220   57.3630 N   0  0  0  0  0  0  0  0  0  0  0  0
    2.3010   45.5420   54.9390 C   0  0  0  0  0  0  0  0  0  0  0  0
    4.5620   44.0050   52.8510 H   0  0  0  0  0  0  0  0  0  0  0  0
    5.8831   44.4991   50.3133 H   0  0  0  0  0  0  0  0  0  0  0  0
    8.0521   45.4698   49.5637 H   0  0  0  0  0  0  0  0  0  0  0  0
    9.2642   47.0969   51.0109 H   0  0  0  0  0  0  0  0  0  0  0  0
    8.6246   46.8607   55.0832 H   0  0  0  0  0  0  0  0  0  0  0  0
    6.1200   46.8022   53.9733 H   0  0  0  0  0  0  0  0  0  0  0  0
    1.0924   44.5655   51.8899 H   0  0  0  0  0  0  0  0  0  0  0  0
   -0.8154   43.8574   53.3250 H   0  0  0  0  0  0  0  0  0  0  0  0
   -0.7375   44.2224   55.7896 H   0  0  0  0  0  0  0  0  0  0  0  0
    1.8610   44.6850   57.7570 H   0  0  0  0  0  0  0  0  0  0  0  0
    0.7424   48.2021   60.6706 H   0  0  0  0  0  0  0  0  0  0  0  0
   -1.4340   49.0593   59.7676 H   0  0  0  0  0  0  0  0  0  0  0  0
   -2.2938   48.1263   57.6047 H   0  0  0  0  0  0  0  0  0  0  0  0
    3.1763   46.0273   55.3954 H   0  0  0  0  0  0  0  0  0  0  0  0
  1  2  2  0
  2  3  1  0
  3  4  1  0
  4  5  2  0
  5  6  1  0
  6  7  2  0
  7  8  1  0
  8  9  1  0
  9 10  1  0
 10 11  1  0
 10 12  1  0
  8 13  2  0
  2 14  1  0
 14 15  2  0
 15 16  1  0
 16 17  2  0
 17 18  1  0
 18 19  1  0
 19 20  1  0
 20 21  2  0
 21 22  1  0
 22 23  2  0
 23 24  1  0
 24 25  2  0
 18 26  2  0
 13  4  1  0
 26 14  1  0
 25 20  1  0
  3 27  1  0
  5 28  1  0
  6 29  1  0
  7 30  1  0
 10 31  1  0
 13 32  1  0
 15 33  1  0
 16 34  1  0
 17 35  1  0
 19 36  1  0
 22 37  1  0
 23 38  1  0
 24 39  1  0
 26 40  1  0
M  END
>  <meeko>  (3) 
{"is_sidechain": [false], "free_energy": -8.752, "intermolecular_energy": -12.027, "internal_energy": -0.598}

$$$$
ligand_17_conformer_4_docked
     RDKit          3D

 40 42  0  0  0  0  0  0  0  0999 V2000
    3.8890   41.9080   52.1010 O   0  0  0  0  0  0  0  0  0  0  0  0
    3.9370   42.9710   51.4220 C   0  0  0  0  0  0  0  0  0  0  0  0
    2.7450   43.7520   51.2370 N   0  0  0  0  0  0  0  0  0  0  0  0
    1.6020   43.6840   52.1100 C   0  0  0  0  0  0  0  0  0  0  0  0
    0.6270   42.6830   51.9620 C   0  0  0  0  0  0  0  0  0  0  0  0
   -0.4600   42.6240   52.8360 C   0  0  0  0  0  0  0  0  0  0  0  0
   -0.5790   43.5530   53.8720 C   0  0  0  0  0  0  0  0  0  0  0  0
    0.3920   44.5440   54.0510 C   0  0  0  0  0  0  0  0  0  0  0  0
    0.2300   45.4470   55.1140 O   0  0  0  0  0  0  0  0  0  0  0  0
    0.7910   45.2830   56.4120 C   0  0  0  0  0  0  0  0  0  0  0  0
   -0.1240   44.6390   57.2210 F   0  0  0  0  0  0  0  0  0  0  0  0
    1.9400   44.5160   56.3360 F   0  0  0  0  0  0  0  0  0  0  0  0
    1.4880   44.6010   53.1670 C   0  0  0  0  0  0  0  0  0  0  0  0
    5.2140   43.3710   50.7810 C   0  0  0  0  0  0  0  0  0  0  0  0
    5.8740   42.5100   49.8870 C   0  0  0  0  0  0  0  0  0  0  0  0
    7.0770   42.8950   49.2920 C   0  0  0  0  0  0  0  0  0  0  0  0
    7.6300   44.1470   49.5690 C   0  0  0  0  0  0  0  0  0  0  0  0
    6.9700   45.0360   50.4330 C   0  0  0  0  0  0  0  0  0  0  0  0
    7.5290   46.3220   50.7510 N   0  0  0  0  0  0  0  0  0  0  0  0
    8.2420   46.6140   51.9620 C   0  0  0  0  0  0  0  0  0  0  0  0
    9.6000   46.5280   51.9770 N   0  0  0  0  0  0  0  0  0  0  0  0
   10.3050   46.7700   53.1130 C   0  0  0  0  0  0  0  0  0  0  0  0
    9.6360   47.1020   54.2890 C   0  0  0  0  0  0  0  0  0  0  0  0
    8.2440   47.1730   54.2630 C   0  0  0  0  0  0  0  0  0  0  0  0
    7.5750   46.9240   53.1070 N   0  0  0  0  0  0  0  0  0  0  0  0
    5.7740   44.6350   51.0470 C   0  0  0  0  0  0  0  0  0  0  0  0
    2.6550   44.3120   50.3590 H   0  0  0  0  0  0  0  0  0  0  0  0
    0.7207   41.9426   51.1539 H   0  0  0  0  0  0  0  0  0  0  0  0
   -1.2248   41.8437   52.7083 H   0  0  0  0  0  0  0  0  0  0  0  0
   -1.4423   43.5051   54.5520 H   0  0  0  0  0  0  0  0  0  0  0  0
    1.0379   46.2711   56.8275 H   0  0  0  0  0  0  0  0  0  0  0  0
    2.2612   45.3709   53.3064 H   0  0  0  0  0  0  0  0  0  0  0  0
    5.4398   41.5264   49.6547 H   0  0  0  0  0  0  0  0  0  0  0  0
    7.5912   42.2094   48.6023 H   0  0  0  0  0  0  0  0  0  0  0  0
    8.5859   44.4379   49.1089 H   0  0  0  0  0  0  0  0  0  0  0  0
    7.4870   47.0710   50.0230 H   0  0  0  0  0  0  0  0  0  0  0  0
   11.4030   46.7038   53.1041 H   0  0  0  0  0  0  0  0  0  0  0  0
   10.1929   47.3033   55.2160 H   0  0  0  0  0  0  0  0  0  0  0  0
    7.6883   47.4302   55.1768 H   0  0  0  0  0  0  0  0  0  0  0  0
    5.2671   45.3171   51.7454 H   0  0  0  0  0  0  0  0  0  0  0  0
  1  2  2  0
  2  3  1  0
  3  4  1  0
  4  5  2  0
  5  6  1  0
  6  7  2  0
  7  8  1  0
  8  9  1  0
  9 10  1  0
 10 11  1  0
 10 12  1  0
  8 13  2  0
  2 14  1  0
 14 15  2  0
 15 16  1  0
 16 17  2  0
 17 18  1  0
 18 19  1  0
 19 20  1  0
 20 21  2  0
 21 22  1  0
 22 23  2  0
 23 24  1  0
 24 25  2  0
 18 26  2  0
 13  4  1  0
 26 14  1  0
 25 20  1  0
  3 27  1  0
  5 28  1  0
  6 29  1  0
  7 30  1  0
 10 31  1  0
 13 32  1  0
 15 33  1  0
 16 34  1  0
 17 35  1  0
 19 36  1  0
 22 37  1  0
 23 38  1  0
 24 39  1  0
 26 40  1  0
M  END
>  <meeko>  (4) 
{"is_sidechain": [false], "free_energy": -8.448, "intermolecular_energy": -11.355, "internal_energy": -0.859}

$$$$
ligand_17_conformer_4_docked
     RDKit          3D

 40 42  0  0  0  0  0  0  0  0999 V2000
    2.3540   45.8280   52.4720 O   0  0  0  0  0  0  0  0  0  0  0  0
    2.9330   44.7480   52.7710 C   0  0  0  0  0  0  0  0  0  0  0  0
    2.5690   44.0550   53.9770 N   0  0  0  0  0  0  0  0  0  0  0  0
    1.3080   44.2320   54.6490 C   0  0  0  0  0  0  0  0  0  0  0  0
    1.2180   44.9370   55.8620 C   0  0  0  0  0  0  0  0  0  0  0  0
   -0.0190   45.1150   56.4830 C   0  0  0  0  0  0  0  0  0  0  0  0
   -1.1790   44.6040   55.8970 C   0  0  0  0  0  0  0  0  0  0  0  0
   -1.1150   43.9190   54.6780 C   0  0  0  0  0  0  0  0  0  0  0  0
   -2.3120   43.4340   54.1270 O   0  0  0  0  0  0  0  0  0  0  0  0
   -2.9740   43.9980   52.9990 C   0  0  0  0  0  0  0  0  0  0  0  0
   -2.6820   45.3460   52.9320 F   0  0  0  0  0  0  0  0  0  0  0  0
   -2.5330   43.3850   51.8390 F   0  0  0  0  0  0  0  0  0  0  0  0
    0.1350   43.7410   54.0540 C   0  0  0  0  0  0  0  0  0  0  0  0
    4.0190   44.2360   51.9000 C   0  0  0  0  0  0  0  0  0  0  0  0
    4.0110   42.9070   51.4410 C   0  0  0  0  0  0  0  0  0  0  0  0
    5.0400   42.4340   50.6240 C   0  0  0  0  0  0  0  0  0  0  0  0
    6.0810   43.2830   50.2420 C   0  0  0  0  0  0  0  0  0  0  0  0
    6.0910   44.6230   50.6600 C   0  0  0  0  0  0  0  0  0  0  0  0
    7.1630   45.5110   50.2990 N   0  0  0  0  0  0  0  0  0  0  0  0
    8.0940   46.0730   51.2340 C   0  0  0  0  0  0  0  0  0  0  0  0
    9.3770   45.6200   51.2560 N   0  0  0  0  0  0  0  0  0  0  0  0
   10.2780   46.1100   52.1480 C   0  0  0  0  0  0  0  0  0  0  0  0
    9.8900   47.0850   53.0640 C   0  0  0  0  0  0  0  0  0  0  0  0
    8.5690   47.5300   53.0400 C   0  0  0  0  0  0  0  0  0  0  0  0
    7.6980   47.0160   52.1330 N   0  0  0  0  0  0  0  0  0  0  0  0
    5.0680   45.0860   51.5010 C   0  0  0  0  0  0  0  0  0  0  0  0
    3.3000   43.4810   54.4540 H   0  0  0  0  0  0  0  0  0  0  0  0
    2.1269   45.3502   56.3237 H   0  0  0  0  0  0  0  0  0  0  0  0
   -0.0805   45.6594   57.4369 H   0  0  0  0  0  0  0  0  0  0  0  0
   -2.1494   44.7407   56.3966 H   0  0  0  0  0  0  0  0  0  0  0  0
   -4.0589   43.8482   53.1022 H   0  0  0  0  0  0  0  0  0  0  0  0
    0.1928   43.2122   53.0912 H   0  0  0  0  0  0  0  0  0  0  0  0
    3.1884   42.2352   51.7275 H   0  0  0  0  0  0  0  0  0  0  0  0
    5.0306   41.3892   50.2802 H   0  0  0  0  0  0  0  0  0  0  0  0
    6.8965   42.9000   49.6109 H   0  0  0  0  0  0  0  0  0  0  0  0
    7.3270   45.6950   49.2830 H   0  0  0  0  0  0  0  0  0  0  0  0
   11.3128   45.7369   52.1465 H   0  0  0  0  0  0  0  0  0  0  0  0
   10.6089   47.4942   53.7891 H   0  0  0  0  0  0  0  0  0  0  0  0
    8.2326   48.2960   53.7542 H   0  0  0  0  0  0  0  0  0  0  0  0
    5.0857   46.1278   51.8536 H   0  0  0  0  0  0  0  0  0  0  0  0
  1  2  2  0
  2  3  1  0
  3  4  1  0
  4  5  2  0
  5  6  1  0
  6  7  2  0
  7  8  1  0
  8  9  1  0
  9 10  1  0
 10 11  1  0
 10 12  1  0
  8 13  2  0
  2 14  1  0
 14 15  2  0
 15 16  1  0
 16 17  2  0
 17 18  1  0
 18 19  1  0
 19 20  1  0
 20 21  2  0
 21 22  1  0
 22 23  2  0
 23 24  1  0
 24 25  2  0
 18 26  2  0
 13  4  1  0
 26 14  1  0
 25 20  1  0
  3 27  1  0
  5 28  1  0
  6 29  1  0
  7 30  1  0
 10 31  1  0
 13 32  1  0
 15 33  1  0
 16 34  1  0
 17 35  1  0
 19 36  1  0
 22 37  1  0
 23 38  1  0
 24 39  1  0
 26 40  1  0
M  END
>  <meeko>  (5) 
{"is_sidechain": [false], "free_energy": -8.234, "intermolecular_energy": -11.137, "internal_energy": -0.788}

$$$$
