MODEL 1
REMARK VINA RESULT:    -8.251      0.000      0.000
REMARK INTER + INTRA:         -12.716
REMARK INTER:                 -11.627
REMARK INTRA:                  -1.089
REMARK UNBOUND:                -1.089
REMARK SMILES CCCn1nc(NCc2nc(CC3CC3)no2)c2ccccc21
REMARK SMILES IDX 7 1 6 3 4 4 5 5 23 6 22 7 18 8 21 9 19 10 20 11 3 12 2 13
REMARK SMILES IDX 1 14 8 15 9 16 10 17 17 18 11 19 16 20 12 21 13 22 14 23
REMARK SMILES IDX 15 24
REMARK H PARENT 7 2
ROOT
ATOM      1  N   UNL     1       5.092  47.515  53.770  1.00  0.00    -0.359 N 
ATOM      2  H   UNL     1       4.705  48.475  53.625  1.00  0.00     0.162 HD
ENDROOT
BRANCH   1   3
ATOM      3  C   UNL     1       6.207  47.080  52.981  1.00  0.00     0.156 A 
ATOM      4  N   UNL     1       7.323  46.155  51.370  1.00  0.00    -0.263 N 
ATOM      5  N   UNL     1       6.097  46.457  51.784  1.00  0.00    -0.154 NA
ATOM      6  C   UNL     1       8.211  46.558  52.306  1.00  0.00     0.070 A 
ATOM      7  C   UNL     1       9.596  46.391  52.335  1.00  0.00     0.029 A 
ATOM      8  C   UNL     1       7.537  47.156  53.338  1.00  0.00     0.044 A 
ATOM      9  C   UNL     1      10.287  46.871  53.464  1.00  0.00     0.002 A 
ATOM     10  C   UNL     1       8.189  47.634  54.472  1.00  0.00     0.014 A 
ATOM     11  C   UNL     1       9.588  47.490  54.527  1.00  0.00     0.001 A 
BRANCH   4  12
ATOM     12  C   UNL     1       7.595  45.394  50.152  1.00  0.00     0.145 C 
BRANCH  12  13
ATOM     13  C   UNL     1       6.639  44.203  50.057  1.00  0.00     0.020 C 
ATOM     14  C   UNL     1       7.261  43.051  49.274  1.00  0.00     0.006 C 
ENDBRANCH  12  13
ENDBRANCH   4  12
ENDBRANCH   1   3
BRANCH   1  15
ATOM     15  C   UNL     1       4.472  46.649  54.767  1.00  0.00     0.215 C 
BRANCH  15  16
ATOM     16  C   UNL     1       3.515  45.706  54.107  1.00  0.00     0.245 A 
ATOM     17  N   UNL     1       3.883  44.551  53.517  1.00  0.00    -0.195 NA
ATOM     18  O   UNL     1       2.219  45.891  54.053  1.00  0.00    -0.337 OA
ATOM     19  C   UNL     1       2.684  44.078  53.110  1.00  0.00     0.172 A 
ATOM     20  N   UNL     1       1.661  44.892  53.440  1.00  0.00    -0.062 NA
BRANCH  19  21
ATOM     21  C   UNL     1       2.505  42.771  52.406  1.00  0.00     0.084 C 
BRANCH  21  22
ATOM     22  C   UNL     1       3.452  42.691  51.204  1.00  0.00    -0.003 C 
ATOM     23  C   UNL     1       3.208  41.509  50.278  1.00  0.00     0.004 C 
ATOM     24  C   UNL     1       4.420  41.518  51.197  1.00  0.00     0.004 C 
ENDBRANCH  21  22
ENDBRANCH  19  21
ENDBRANCH  15  16
ENDBRANCH   1  15
TORSDOF 7
ENDMDL
MODEL 2
REMARK VINA RESULT:    -8.213      1.769      5.316
REMARK INTER + INTRA:         -12.662
REMARK INTER:                 -11.738
REMARK INTRA:                  -0.925
REMARK UNBOUND:                -1.089
REMARK SMILES CCCn1nc(NCc2nc(CC3CC3)no2)c2ccccc21
REMARK SMILES IDX 7 1 6 3 4 4 5 5 23 6 22 7 18 8 21 9 19 10 20 11 3 12 2 13
REMARK SMILES IDX 1 14 8 15 9 16 10 17 17 18 11 19 16 20 12 21 13 22 14 23
REMARK SMILES IDX 15 24
REMARK H PARENT 7 2
ROOT
ATOM      1  N   UNL     1       4.119  45.922  51.929  1.00  0.00    -0.359 N 
ATOM      2  H   UNL     1       3.715  46.669  51.320  1.00  0.00     0.162 HD
ENDROOT
BRANCH   1   3
ATOM      3  C   UNL     1       4.569  44.698  51.334  1.00  0.00     0.156 A 
ATOM      4  N   UNL     1       4.637  42.598  50.802  1.00  0.00    -0.263 N 
ATOM      5  N   UNL     1       3.908  43.520  51.422  1.00  0.00    -0.154 NA
ATOM      6  C   UNL     1       5.769  43.175  50.343  1.00  0.00     0.070 A 
ATOM      7  C   UNL     1       6.856  42.586  49.695  1.00  0.00     0.029 A 
ATOM      8  C   UNL     1       5.755  44.508  50.656  1.00  0.00     0.044 A 
ATOM      9  C   UNL     1       7.943  43.416  49.361  1.00  0.00     0.002 A 
ATOM     10  C   UNL     1       6.816  45.355  50.346  1.00  0.00     0.014 A 
ATOM     11  C   UNL     1       7.924  44.793  49.683  1.00  0.00     0.001 A 
BRANCH   4  12
ATOM     12  C   UNL     1       4.281  41.181  50.769  1.00  0.00     0.145 C 
BRANCH  12  13
ATOM     13  C   UNL     1       3.304  40.915  49.620  1.00  0.00     0.020 C 
ATOM     14  C   UNL     1       4.038  40.478  48.356  1.00  0.00     0.006 C 
ENDBRANCH  12  13
ENDBRANCH   4  12
ENDBRANCH   1   3
BRANCH   1  15
ATOM     15  C   UNL     1       4.201  46.153  53.368  1.00  0.00     0.215 C 
BRANCH  15  16
ATOM     16  C   UNL     1       5.564  46.650  53.732  1.00  0.00     0.245 A 
ATOM     17  N   UNL     1       6.433  47.182  52.850  1.00  0.00    -0.195 NA
ATOM     18  O   UNL     1       6.049  46.642  54.950  1.00  0.00    -0.337 OA
ATOM     19  C   UNL     1       7.472  47.483  53.660  1.00  0.00     0.172 A 
ATOM     20  N   UNL     1       7.240  47.158  54.949  1.00  0.00    -0.062 NA
BRANCH  19  21
ATOM     21  C   UNL     1       8.728  48.142  53.188  1.00  0.00     0.084 C 
BRANCH  21  22
ATOM     22  C   UNL     1       9.895  47.153  53.258  1.00  0.00    -0.003 C 
ATOM     23  C   UNL     1      10.290  46.537  51.924  1.00  0.00     0.004 C 
ATOM     24  C   UNL     1       9.555  45.701  52.961  1.00  0.00     0.004 C 
ENDBRANCH  21  22
ENDBRANCH  19  21
ENDBRANCH  15  16
ENDBRANCH   1  15
TORSDOF 7
ENDMDL
MODEL 3
REMARK VINA RESULT:    -8.196      1.518      3.477
REMARK INTER + INTRA:         -12.639
REMARK INTER:                 -11.853
REMARK INTRA:                  -0.785
REMARK UNBOUND:                -1.089
REMARK SMILES CCCn1nc(NCc2nc(CC3CC3)no2)c2ccccc21
REMARK SMILES IDX 7 1 6 3 4 4 5 5 23 6 22 7 18 8 21 9 19 10 20 11 3 12 2 13
REMARK SMILES IDX 1 14 8 15 9 16 10 17 17 18 11 19 16 20 12 21 13 22 14 23
REMARK SMILES IDX 15 24
REMARK H PARENT 7 2
ROOT
ATOM      1  N   UNL     1       4.529  46.496  53.689  1.00  0.00    -0.359 N 
ATOM      2  H   UNL     1       3.886  47.219  53.294  1.00  0.00     0.162 HD
ENDROOT
BRANCH   1   3
ATOM      3  C   UNL     1       5.946  46.675  53.571  1.00  0.00     0.156 A 
ATOM      4  N   UNL     1       7.955  47.359  54.013  1.00  0.00    -0.263 N 
ATOM      5  N   UNL     1       6.706  47.348  54.467  1.00  0.00    -0.154 NA
ATOM      6  C   UNL     1       7.991  46.721  52.823  1.00  0.00     0.070 A 
ATOM      7  C   UNL     1       9.066  46.547  51.949  1.00  0.00     0.029 A 
ATOM      8  C   UNL     1       6.735  46.268  52.516  1.00  0.00     0.044 A 
ATOM      9  C   UNL     1       8.818  45.876  50.736  1.00  0.00     0.002 A 
ATOM     10  C   UNL     1       6.455  45.608  51.322  1.00  0.00     0.014 A 
ATOM     11  C   UNL     1       7.520  45.408  50.424  1.00  0.00     0.001 A 
BRANCH   4  12
ATOM     12  C   UNL     1       9.045  48.073  54.676  1.00  0.00     0.145 C 
BRANCH  12  13
ATOM     13  C   UNL     1      10.192  47.106  54.982  1.00  0.00     0.020 C 
ATOM     14  C   UNL     1      10.991  47.559  56.200  1.00  0.00     0.006 C 
ENDBRANCH  12  13
ENDBRANCH   4  12
ENDBRANCH   1   3
BRANCH   1  15
ATOM     15  C   UNL     1       3.954  45.323  54.340  1.00  0.00     0.215 C 
BRANCH  15  16
ATOM     16  C   UNL     1       3.598  44.290  53.317  1.00  0.00     0.245 A 
ATOM     17  N   UNL     1       4.497  43.489  52.711  1.00  0.00    -0.195 NA
ATOM     18  O   UNL     1       2.374  44.038  52.921  1.00  0.00    -0.337 OA
ATOM     19  C   UNL     1       3.690  42.748  51.921  1.00  0.00     0.172 A 
ATOM     20  N   UNL     1       2.388  43.076  52.050  1.00  0.00    -0.062 NA
BRANCH  19  21
ATOM     21  C   UNL     1       4.180  41.652  51.030  1.00  0.00     0.084 C 
BRANCH  21  22
ATOM     22  C   UNL     1       5.199  42.208  50.030  1.00  0.00    -0.003 C 
ATOM     23  C   UNL     1       5.557  41.263  48.893  1.00  0.00     0.004 C 
ATOM     24  C   UNL     1       6.555  41.520  50.011  1.00  0.00     0.004 C 
ENDBRANCH  21  22
ENDBRANCH  19  21
ENDBRANCH  15  16
ENDBRANCH   1  15
TORSDOF 7
ENDMDL
MODEL 4
REMARK VINA RESULT:    -8.032      1.708      3.517
REMARK INTER + INTRA:         -12.408
REMARK INTER:                 -11.323
REMARK INTRA:                  -1.085
REMARK UNBOUND:                -1.089
REMARK SMILES CCCn1nc(NCc2nc(CC3CC3)no2)c2ccccc21
REMARK SMILES IDX 7 1 6 3 4 4 5 5 23 6 22 7 18 8 21 9 19 10 20 11 3 12 2 13
REMARK SMILES IDX 1 14 8 15 9 16 10 17 17 18 11 19 16 20 12 21 13 22 14 23
REMARK SMILES IDX 15 24
REMARK H PARENT 7 2
ROOT
ATOM      1  N   UNL     1       4.390  47.229  53.805  1.00  0.00    -0.359 N 
ATOM      2  H   UNL     1       3.802  48.045  53.522  1.00  0.00     0.162 HD
ENDROOT
BRANCH   1   3
ATOM      3  C   UNL     1       5.548  46.895  53.030  1.00  0.00     0.156 A 
ATOM      4  N   UNL     1       7.532  47.040  52.170  1.00  0.00    -0.263 N 
ATOM      5  N   UNL     1       6.702  47.603  53.041  1.00  0.00    -0.154 NA
ATOM      6  C   UNL     1       6.907  45.994  51.587  1.00  0.00     0.070 A 
ATOM      7  C   UNL     1       7.360  45.153  50.569  1.00  0.00     0.029 A 
ATOM      8  C   UNL     1       5.649  45.869  52.114  1.00  0.00     0.044 A 
ATOM      9  C   UNL     1       6.480  44.158  50.104  1.00  0.00     0.002 A 
ATOM     10  C   UNL     1       4.751  44.900  51.673  1.00  0.00     0.014 A 
ATOM     11  C   UNL     1       5.182  44.030  50.654  1.00  0.00     0.001 A 
BRANCH   4  12
ATOM     12  C   UNL     1       8.848  47.586  51.845  1.00  0.00     0.145 C 
BRANCH  12  13
ATOM     13  C   UNL     1       9.936  46.791  52.572  1.00  0.00     0.020 C 
ATOM     14  C   UNL     1       9.997  47.155  54.053  1.00  0.00     0.006 C 
ENDBRANCH  12  13
ENDBRANCH   4  12
ENDBRANCH   1   3
BRANCH   1  15
ATOM     15  C   UNL     1       3.999  46.453  54.978  1.00  0.00     0.215 C 
BRANCH  15  16
ATOM     16  C   UNL     1       2.707  45.744  54.719  1.00  0.00     0.245 A 
ATOM     17  N   UNL     1       1.946  45.940  53.624  1.00  0.00    -0.195 NA
ATOM     18  O   UNL     1       2.191  44.841  55.517  1.00  0.00    -0.337 OA
ATOM     19  C   UNL     1       0.936  45.073  53.854  1.00  0.00     0.172 A 
ATOM     20  N   UNL     1       1.083  44.394  55.009  1.00  0.00    -0.062 NA
BRANCH  19  21
ATOM     21  C   UNL     1      -0.203  44.858  52.909  1.00  0.00     0.084 C 
BRANCH  21  22
ATOM     22  C   UNL     1       0.333  44.518  51.514  1.00  0.00    -0.003 C 
ATOM     23  C   UNL     1      -0.310  43.302  50.864  1.00  0.00     0.004 C 
ATOM     24  C   UNL     1       1.111  43.216  51.400  1.00  0.00     0.004 C 
ENDBRANCH  21  22
ENDBRANCH  19  21
ENDBRANCH  15  16
ENDBRANCH   1  15
TORSDOF 7
ENDMDL
MODEL 5
REMARK VINA RESULT:    -8.007      1.804      5.864
REMARK INTER + INTRA:         -12.373
REMARK INTER:                 -11.178
REMARK INTRA:                  -1.194
REMARK UNBOUND:                -1.089
REMARK SMILES CCCn1nc(NCc2nc(CC3CC3)no2)c2ccccc21
REMARK SMILES IDX 7 1 6 3 4 4 5 5 23 6 22 7 18 8 21 9 19 10 20 11 3 12 2 13
REMARK SMILES IDX 1 14 8 15 9 16 10 17 17 18 11 19 16 20 12 21 13 22 14 23
REMARK SMILES IDX 15 24
REMARK H PARENT 7 2
ROOT
ATOM      1  N   UNL     1       3.687  47.070  52.069  1.00  0.00    -0.359 N 
ATOM      2  H   UNL     1       3.598  47.769  51.297  1.00  0.00     0.162 HD
ENDROOT
BRANCH   1   3
ATOM      3  C   UNL     1       3.480  45.680  51.785  1.00  0.00     0.156 A 
ATOM      4  N   UNL     1       2.540  43.728  51.753  1.00  0.00    -0.263 N 
ATOM      5  N   UNL     1       2.364  44.992  52.121  1.00  0.00    -0.154 NA
ATOM      6  C   UNL     1       3.770  43.601  51.208  1.00  0.00     0.070 A 
ATOM      7  C   UNL     1       4.413  42.451  50.746  1.00  0.00     0.029 A 
ATOM      8  C   UNL     1       4.390  44.821  51.206  1.00  0.00     0.044 A 
ATOM      9  C   UNL     1       5.728  42.590  50.263  1.00  0.00     0.002 A 
ATOM     10  C   UNL     1       5.693  44.992  50.742  1.00  0.00     0.014 A 
ATOM     11  C   UNL     1       6.365  43.853  50.259  1.00  0.00     0.001 A 
BRANCH   4  12
ATOM     12  C   UNL     1       1.575  42.667  52.036  1.00  0.00     0.145 C 
BRANCH  12  13
ATOM     13  C   UNL     1       1.233  42.657  53.528  1.00  0.00     0.020 C 
ATOM     14  C   UNL     1      -0.222  43.051  53.767  1.00  0.00     0.006 C 
ENDBRANCH  12  13
ENDBRANCH   4  12
ENDBRANCH   1   3
BRANCH   1  15
ATOM     15  C   UNL     1       4.011  47.541  53.412  1.00  0.00     0.215 C 
BRANCH  15  16
ATOM     16  C   UNL     1       5.442  47.242  53.731  1.00  0.00     0.245 A 
ATOM     17  N   UNL     1       6.489  47.780  53.073  1.00  0.00    -0.195 NA
ATOM     18  O   UNL     1       5.830  46.447  54.698  1.00  0.00    -0.337 OA
ATOM     19  C   UNL     1       7.524  47.224  53.739  1.00  0.00     0.172 A 
ATOM     20  N   UNL     1       7.127  46.411  54.739  1.00  0.00    -0.062 NA
BRANCH  19  21
ATOM     21  C   UNL     1       8.959  47.512  53.430  1.00  0.00     0.084 C 
BRANCH  21  22
ATOM     22  C   UNL     1       9.654  46.237  52.943  1.00  0.00    -0.003 C 
ATOM     23  C   UNL     1      10.607  46.437  51.774  1.00  0.00     0.004 C 
ATOM     24  C   UNL     1       9.265  45.756  51.554  1.00  0.00     0.004 C 
ENDBRANCH  21  22
ENDBRANCH  19  21
ENDBRANCH  15  16
ENDBRANCH   1  15
TORSDOF 7
ENDMDL
