ligand_0_conformer_5_docked
     RDKit          3D

 45 48  0  0  0  0  0  0  0  0999 V2000
    7.3140   42.5910   49.4690 C   0  0  0  0  0  0  0  0  0  0  0  0
    6.5280   41.4830   49.7950 C   0  0  0  0  0  0  0  0  0  0  0  0
    5.3200   41.6580   50.4800 C   0  0  0  0  0  0  0  0  0  0  0  0
    4.8820   42.9450   50.8310 C   0  0  0  0  0  0  0  0  0  0  0  0
    3.6330   43.1000   51.5240 N   0  0  0  0  0  0  0  0  0  0  0  0
    3.4990   43.8030   52.7680 C   0  0  0  0  0  0  0  0  0  0  0  0
    4.5950   44.3680   53.3720 N   0  0  0  0  0  0  0  0  0  0  0  0
    4.4940   45.0850   54.5290 C   0  0  0  0  0  0  0  0  0  0  0  0
    5.6180   45.6510   55.1400 O   0  0  0  0  0  0  0  0  0  0  0  0
    6.2440   46.8470   54.6700 C   0  0  0  0  0  0  0  0  0  0  0  0
    7.4330   46.5360   53.7420 C   0  0  0  0  0  0  0  0  0  0  0  0
    8.7720   46.9140   54.4260 C   0  0  0  0  0  0  0  0  0  0  0  0
    9.9180   47.1870   53.4290 C   0  0  0  0  0  0  0  0  0  0  0  0
    9.7220   46.4320   52.1110 C   0  0  0  0  0  0  0  0  0  0  0  0
    8.4140   46.8480   51.4080 C   0  0  0  0  0  0  0  0  0  0  0  0
    7.2890   47.2510   52.3860 C   0  0  0  0  0  0  0  0  0  0  0  0
    3.2290   45.2290   55.0760 C   0  0  0  0  0  0  0  0  0  0  0  0
    2.8360   45.8700   56.1820 N   0  0  0  0  0  0  0  0  0  0  0  0
    1.4940   45.6700   56.2080 C   0  0  0  0  0  0  0  0  0  0  0  0
    1.0300   44.9290   55.1640 N   0  0  0  0  0  0  0  0  0  0  0  0
    2.1550   44.6700   54.4760 C   0  0  0  0  0  0  0  0  0  0  0  0
    2.2570   43.9600   53.3260 N   0  0  0  0  0  0  0  0  0  0  0  0
    5.6960   44.0520   50.5240 C   0  0  0  0  0  0  0  0  0  0  0  0
    6.9010   43.8730   49.8370 C   0  0  0  0  0  0  0  0  0  0  0  0
    8.2585   42.4534   48.9222 H   0  0  0  0  0  0  0  0  0  0  0  0
    6.8587   40.4724   49.5132 H   0  0  0  0  0  0  0  0  0  0  0  0
    4.7100   40.7818   50.7450 H   0  0  0  0  0  0  0  0  0  0  0  0
    2.7550   42.8340   51.0240 H   0  0  0  0  0  0  0  0  0  0  0  0
    5.5044   47.4431   54.1154 H   0  0  0  0  0  0  0  0  0  0  0  0
    6.6225   47.4028   55.5405 H   0  0  0  0  0  0  0  0  0  0  0  0
    7.4353   45.4532   53.5480 H   0  0  0  0  0  0  0  0  0  0  0  0
    8.6114   47.8203   55.0283 H   0  0  0  0  0  0  0  0  0  0  0  0
    9.0757   46.0531   55.0397 H   0  0  0  0  0  0  0  0  0  0  0  0
    9.9562   48.2659   53.2182 H   0  0  0  0  0  0  0  0  0  0  0  0
   10.8562   46.8379   53.8850 H   0  0  0  0  0  0  0  0  0  0  0  0
   10.5701   46.6499   51.4452 H   0  0  0  0  0  0  0  0  0  0  0  0
    9.6652   45.3566   52.3355 H   0  0  0  0  0  0  0  0  0  0  0  0
    8.6286   47.7048   50.7524 H   0  0  0  0  0  0  0  0  0  0  0  0
    8.0560   45.9721   50.8471 H   0  0  0  0  0  0  0  0  0  0  0  0
    7.3307   48.3380   52.5495 H   0  0  0  0  0  0  0  0  0  0  0  0
    6.3262   46.9568   51.9427 H   0  0  0  0  0  0  0  0  0  0  0  0
    3.4200   46.4020   56.8650 H   0  0  0  0  0  0  0  0  0  0  0  0
    0.8418   46.0693   56.9987 H   0  0  0  0  0  0  0  0  0  0  0  0
    5.3828   45.0623   50.8259 H   0  0  0  0  0  0  0  0  0  0  0  0
    7.5245   44.7438   49.5861 H   0  0  0  0  0  0  0  0  0  0  0  0
  1  2  2  0
  2  3  1  0
  3  4  2  0
  4  5  1  0
  5  6  1  0
  6  7  2  0
  7  8  1  0
  8  9  1  0
  9 10  1  0
 10 11  1  0
 11 12  1  0
 12 13  1  0
 13 14  1  0
 14 15  1  0
 15 16  1  0
  8 17  2  0
 17 18  1  0
 18 19  1  0
 19 20  2  0
 20 21  1  0
 21 22  2  0
  4 23  1  0
 23 24  2  0
 24  1  1  0
 22  6  1  0
 16 11  1  0
 21 17  1  0
  1 25  1  0
  2 26  1  0
  3 27  1  0
  5 28  1  0
 10 29  1  0
 10 30  1  0
 11 31  1  0
 12 32  1  0
 12 33  1  0
 13 34  1  0
 13 35  1  0
 14 36  1  0
 14 37  1  0
 15 38  1  0
 15 39  1  0
 16 40  1  0
 16 41  1  0
 18 42  1  0
 19 43  1  0
 23 44  1  0
 24 45  1  0
M  END
>  <meeko>  (1) 
{"is_sidechain": [false], "free_energy": -9.725, "intermolecular_energy": -12.568, "internal_energy": -0.761}

$$$$
ligand_0_conformer_5_docked
     RDKit          3D

 45 48  0  0  0  0  0  0  0  0999 V2000
    9.6930   47.0540   51.9980 C   0  0  0  0  0  0  0  0  0  0  0  0
    9.7310   46.2660   53.1520 C   0  0  0  0  0  0  0  0  0  0  0  0
    8.6530   46.2730   54.0430 C   0  0  0  0  0  0  0  0  0  0  0  0
    7.5200   47.0590   53.7790 C   0  0  0  0  0  0  0  0  0  0  0  0
    6.4190   47.0430   54.7030 N   0  0  0  0  0  0  0  0  0  0  0  0
    5.2470   46.2340   54.5260 C   0  0  0  0  0  0  0  0  0  0  0  0
    5.2430   45.2000   53.6240 N   0  0  0  0  0  0  0  0  0  0  0  0
    4.1620   44.3800   53.4670 C   0  0  0  0  0  0  0  0  0  0  0  0
    4.1650   43.3330   52.5390 O   0  0  0  0  0  0  0  0  0  0  0  0
    4.2990   43.5380   51.1310 C   0  0  0  0  0  0  0  0  0  0  0  0
    5.7780   43.6010   50.7050 C   0  0  0  0  0  0  0  0  0  0  0  0
    6.2500   45.0730   50.5890 C   0  0  0  0  0  0  0  0  0  0  0  0
    7.4620   45.2590   49.6530 C   0  0  0  0  0  0  0  0  0  0  0  0
    8.3200   43.9920   49.5680 C   0  0  0  0  0  0  0  0  0  0  0  0
    7.5150   42.7980   49.0190 C   0  0  0  0  0  0  0  0  0  0  0  0
    6.0160   42.8420   49.3870 C   0  0  0  0  0  0  0  0  0  0  0  0
    3.0580   44.6290   54.2660 C   0  0  0  0  0  0  0  0  0  0  0  0
    1.8810   43.9990   54.3300 N   0  0  0  0  0  0  0  0  0  0  0  0
    1.2030   44.6830   55.2870 C   0  0  0  0  0  0  0  0  0  0  0  0
    1.9080   45.7170   55.8250 N   0  0  0  0  0  0  0  0  0  0  0  0
    3.0690   45.6500   55.1530 C   0  0  0  0  0  0  0  0  0  0  0  0
    4.1440   46.4610   55.3080 N   0  0  0  0  0  0  0  0  0  0  0  0
    7.5030   47.8730   52.6300 C   0  0  0  0  0  0  0  0  0  0  0  0
    8.5820   47.8600   51.7410 C   0  0  0  0  0  0  0  0  0  0  0  0
   10.5374   47.0392   51.2931 H   0  0  0  0  0  0  0  0  0  0  0  0
   10.6107   45.6391   53.3597 H   0  0  0  0  0  0  0  0  0  0  0  0
    8.6930   45.6596   54.9552 H   0  0  0  0  0  0  0  0  0  0  0  0
    6.5440   47.5130   55.6280 H   0  0  0  0  0  0  0  0  0  0  0  0
    3.8101   42.7072   50.6012 H   0  0  0  0  0  0  0  0  0  0  0  0
    3.8267   44.4984   50.8768 H   0  0  0  0  0  0  0  0  0  0  0  0
    6.3751   43.1057   51.4849 H   0  0  0  0  0  0  0  0  0  0  0  0
    5.4157   45.6766   50.2023 H   0  0  0  0  0  0  0  0  0  0  0  0
    6.5653   45.3916   51.5935 H   0  0  0  0  0  0  0  0  0  0  0  0
    7.0979   45.5099   48.6458 H   0  0  0  0  0  0  0  0  0  0  0  0
    8.0871   46.0664   50.0620 H   0  0  0  0  0  0  0  0  0  0  0  0
    9.1742   44.1833   48.9018 H   0  0  0  0  0  0  0  0  0  0  0  0
    8.6621   43.7392   50.5824 H   0  0  0  0  0  0  0  0  0  0  0  0
    7.6040   42.7932   47.9226 H   0  0  0  0  0  0  0  0  0  0  0  0
    7.9331   41.8892   49.4765 H   0  0  0  0  0  0  0  0  0  0  0  0
    5.4650   43.3468   48.5798 H   0  0  0  0  0  0  0  0  0  0  0  0
    5.6631   41.8082   49.5168 H   0  0  0  0  0  0  0  0  0  0  0  0
    1.5560   43.1740   53.7790 H   0  0  0  0  0  0  0  0  0  0  0  0
    0.1799   44.4262   55.5988 H   0  0  0  0  0  0  0  0  0  0  0  0
    6.6372   48.5217   52.4311 H   0  0  0  0  0  0  0  0  0  0  0  0
    8.5557   48.4862   50.8370 H   0  0  0  0  0  0  0  0  0  0  0  0
  1  2  2  0
  2  3  1  0
  3  4  2  0
  4  5  1  0
  5  6  1  0
  6  7  2  0
  7  8  1  0
  8  9  1  0
  9 10  1  0
 10 11  1  0
 11 12  1  0
 12 13  1  0
 13 14  1  0
 14 15  1  0
 15 16  1  0
  8 17  2  0
 17 18  1  0
 18 19  1  0
 19 20  2  0
 20 21  1  0
 21 22  2  0
  4 23  1  0
 23 24  2  0
 24  1  1  0
 22  6  1  0
 16 11  1  0
 21 17  1  0
  1 25  1  0
  2 26  1  0
  3 27  1  0
  5 28  1  0
 10 29  1  0
 10 30  1  0
 11 31  1  0
 12 32  1  0
 12 33  1  0
 13 34  1  0
 13 35  1  0
 14 36  1  0
 14 37  1  0
 15 38  1  0
 15 39  1  0
 16 40  1  0
 16 41  1  0
 18 42  1  0
 19 43  1  0
 23 44  1  0
 24 45  1  0
M  END
>  <meeko>  (2) 
{"is_sidechain": [false], "free_energy": -9.185, "intermolecular_energy": -11.604, "internal_energy": -1.026}

$$$$
ligand_0_conformer_5_docked
     RDKit          3D

 45 48  0  0  0  0  0  0  0  0999 V2000
    1.4000   44.7610   52.9220 C   0  0  0  0  0  0  0  0  0  0  0  0
    2.1380   44.5840   54.0960 C   0  0  0  0  0  0  0  0  0  0  0  0
    3.1770   45.4660   54.4100 C   0  0  0  0  0  0  0  0  0  0  0  0
    3.4770   46.5420   53.5600 C   0  0  0  0  0  0  0  0  0  0  0  0
    4.5420   47.4410   53.9090 N   0  0  0  0  0  0  0  0  0  0  0  0
    5.9310   47.1450   53.7000 C   0  0  0  0  0  0  0  0  0  0  0  0
    6.3490   46.5520   52.5350 N   0  0  0  0  0  0  0  0  0  0  0  0
    7.6680   46.3030   52.2830 C   0  0  0  0  0  0  0  0  0  0  0  0
    8.0840   45.6910   51.0950 O   0  0  0  0  0  0  0  0  0  0  0  0
    7.1770   45.2740   50.0730 C   0  0  0  0  0  0  0  0  0  0  0  0
    6.5010   43.9350   50.4270 C   0  0  0  0  0  0  0  0  0  0  0  0
    6.7330   42.8930   49.3030 C   0  0  0  0  0  0  0  0  0  0  0  0
    5.6700   41.7750   49.2720 C   0  0  0  0  0  0  0  0  0  0  0  0
    5.0440   41.5400   50.6500 C   0  0  0  0  0  0  0  0  0  0  0  0
    4.3400   42.8070   51.1750 C   0  0  0  0  0  0  0  0  0  0  0  0
    4.9970   44.1200   50.7020 C   0  0  0  0  0  0  0  0  0  0  0  0
    8.5810   46.6810   53.2540 C   0  0  0  0  0  0  0  0  0  0  0  0
    9.9120   46.5660   53.2780 N   0  0  0  0  0  0  0  0  0  0  0  0
   10.2590   47.1040   54.4740 C   0  0  0  0  0  0  0  0  0  0  0  0
    9.1990   47.5520   55.2020 N   0  0  0  0  0  0  0  0  0  0  0  0
    8.1610   47.2650   54.3990 C   0  0  0  0  0  0  0  0  0  0  0  0
    6.8520   47.5130   54.6460 N   0  0  0  0  0  0  0  0  0  0  0  0
    2.7480   46.6940   52.3660 C   0  0  0  0  0  0  0  0  0  0  0  0
    1.7080   45.8120   52.0560 C   0  0  0  0  0  0  0  0  0  0  0  0
    0.5768   44.0724   52.6806 H   0  0  0  0  0  0  0  0  0  0  0  0
    1.9013   43.7503   54.7734 H   0  0  0  0  0  0  0  0  0  0  0  0
    3.7628   45.3155   55.3288 H   0  0  0  0  0  0  0  0  0  0  0  0
    4.2940   48.4200   54.1760 H   0  0  0  0  0  0  0  0  0  0  0  0
    6.4011   46.0437   49.9483 H   0  0  0  0  0  0  0  0  0  0  0  0
    7.7468   45.1365   49.1422 H   0  0  0  0  0  0  0  0  0  0  0  0
    6.9633   43.5579   51.3512 H   0  0  0  0  0  0  0  0  0  0  0  0
    6.7173   43.4154   48.3351 H   0  0  0  0  0  0  0  0  0  0  0  0
    7.7024   42.4127   49.5018 H   0  0  0  0  0  0  0  0  0  0  0  0
    4.8764   42.0590   48.5652 H   0  0  0  0  0  0  0  0  0  0  0  0
    6.1655   40.8436   48.9607 H   0  0  0  0  0  0  0  0  0  0  0  0
    4.3067   40.7272   50.5736 H   0  0  0  0  0  0  0  0  0  0  0  0
    5.8475   41.2755   51.3532 H   0  0  0  0  0  0  0  0  0  0  0  0
    3.2968   42.7949   50.8262 H   0  0  0  0  0  0  0  0  0  0  0  0
    4.4148   42.7861   52.2723 H   0  0  0  0  0  0  0  0  0  0  0  0
    4.5034   44.4531   49.7771 H   0  0  0  0  0  0  0  0  0  0  0  0
    4.8829   44.8685   51.5000 H   0  0  0  0  0  0  0  0  0  0  0  0
   10.5410   46.1600   52.5490 H   0  0  0  0  0  0  0  0  0  0  0  0
   11.2999   47.1720   54.8232 H   0  0  0  0  0  0  0  0  0  0  0  0
    2.9975   47.5109   51.6729 H   0  0  0  0  0  0  0  0  0  0  0  0
    1.1318   45.9464   51.1287 H   0  0  0  0  0  0  0  0  0  0  0  0
  1  2  2  0
  2  3  1  0
  3  4  2  0
  4  5  1  0
  5  6  1  0
  6  7  2  0
  7  8  1  0
  8  9  1  0
  9 10  1  0
 10 11  1  0
 11 12  1  0
 12 13  1  0
 13 14  1  0
 14 15  1  0
 15 16  1  0
  8 17  2  0
 17 18  1  0
 18 19  1  0
 19 20  2  0
 20 21  1  0
 21 22  2  0
  4 23  1  0
 23 24  2  0
 24  1  1  0
 22  6  1  0
 16 11  1  0
 21 17  1  0
  1 25  1  0
  2 26  1  0
  3 27  1  0
  5 28  1  0
 10 29  1  0
 10 30  1  0
 11 31  1  0
 12 32  1  0
 12 33  1  0
 13 34  1  0
 13 35  1  0
 14 36  1  0
 14 37  1  0
 15 38  1  0
 15 39  1  0
 16 40  1  0
 16 41  1  0
 18 42  1  0
 19 43  1  0
 23 44  1  0
 24 45  1  0
M  END
>  <meeko>  (3) 
{"is_sidechain": [false], "free_energy": -9.141, "intermolecular_energy": -11.443, "internal_energy": -1.131}

$$$$
ligand_0_conformer_5_docked
     RDKit          3D

 45 48  0  0  0  0  0  0  0  0999 V2000
   -1.1800   44.2750   53.6600 C   0  0  0  0  0  0  0  0  0  0  0  0
   -1.0410   43.3330   52.6370 C   0  0  0  0  0  0  0  0  0  0  0  0
    0.1870   42.6930   52.4360 C   0  0  0  0  0  0  0  0  0  0  0  0
    1.2810   42.9790   53.2670 C   0  0  0  0  0  0  0  0  0  0  0  0
    2.5290   42.3010   53.0480 N   0  0  0  0  0  0  0  0  0  0  0  0
    3.5740   42.8130   52.2070 C   0  0  0  0  0  0  0  0  0  0  0  0
    3.9310   44.1370   52.2670 N   0  0  0  0  0  0  0  0  0  0  0  0
    4.9530   44.6450   51.5170 C   0  0  0  0  0  0  0  0  0  0  0  0
    5.3040   45.9980   51.5790 O   0  0  0  0  0  0  0  0  0  0  0  0
    5.7710   46.6290   52.7730 C   0  0  0  0  0  0  0  0  0  0  0  0
    7.2980   46.4910   52.9270 C   0  0  0  0  0  0  0  0  0  0  0  0
    7.7760   47.1620   54.2390 C   0  0  0  0  0  0  0  0  0  0  0  0
    9.2610   47.5830   54.2100 C   0  0  0  0  0  0  0  0  0  0  0  0
   10.0820   46.7180   53.2490 C   0  0  0  0  0  0  0  0  0  0  0  0
    9.5620   46.8290   51.8020 C   0  0  0  0  0  0  0  0  0  0  0  0
    8.0410   47.0740   51.7100 C   0  0  0  0  0  0  0  0  0  0  0  0
    5.6290   43.7640   50.6890 C   0  0  0  0  0  0  0  0  0  0  0  0
    6.6550   43.9760   49.8590 N   0  0  0  0  0  0  0  0  0  0  0  0
    6.8890   42.7530   49.3190 C   0  0  0  0  0  0  0  0  0  0  0  0
    6.0510   41.7820   49.7770 N   0  0  0  0  0  0  0  0  0  0  0  0
    5.2720   42.4610   50.6360 C   0  0  0  0  0  0  0  0  0  0  0  0
    4.2580   41.9590   51.3830 N   0  0  0  0  0  0  0  0  0  0  0  0
    1.1400   43.9520   54.2750 C   0  0  0  0  0  0  0  0  0  0  0  0
   -0.0900   44.5880   54.4740 C   0  0  0  0  0  0  0  0  0  0  0  0
   -2.1486   44.7699   53.8238 H   0  0  0  0  0  0  0  0  0  0  0  0
   -1.8976   43.0945   51.9894 H   0  0  0  0  0  0  0  0  0  0  0  0
    0.2954   41.9614   51.6218 H   0  0  0  0  0  0  0  0  0  0  0  0
    2.7580   41.4810   53.6540 H   0  0  0  0  0  0  0  0  0  0  0  0
    5.5108   47.6972   52.7376 H   0  0  0  0  0  0  0  0  0  0  0  0
    5.2924   46.1366   53.6324 H   0  0  0  0  0  0  0  0  0  0  0  0
    7.5362   45.4183   52.9783 H   0  0  0  0  0  0  0  0  0  0  0  0
    7.1633   48.0585   54.4148 H   0  0  0  0  0  0  0  0  0  0  0  0
    7.6664   46.4177   55.0415 H   0  0  0  0  0  0  0  0  0  0  0  0
    9.3267   48.6327   53.8878 H   0  0  0  0  0  0  0  0  0  0  0  0
    9.6720   47.4519   55.2219 H   0  0  0  0  0  0  0  0  0  0  0  0
   11.1307   47.0487   53.2780 H   0  0  0  0  0  0  0  0  0  0  0  0
    9.9925   45.6690   53.5677 H   0  0  0  0  0  0  0  0  0  0  0  0
   10.0795   47.6654   51.3095 H   0  0  0  0  0  0  0  0  0  0  0  0
    9.7641   45.8654   51.3114 H   0  0  0  0  0  0  0  0  0  0  0  0
    7.8561   48.1574   51.6643 H   0  0  0  0  0  0  0  0  0  0  0  0
    7.6659   46.5729   50.8055 H   0  0  0  0  0  0  0  0  0  0  0  0
    7.1610   44.8700   49.6680 H   0  0  0  0  0  0  0  0  0  0  0  0
    7.6817   42.5637   48.5802 H   0  0  0  0  0  0  0  0  0  0  0  0
    2.0005   44.2131   54.9085 H   0  0  0  0  0  0  0  0  0  0  0  0
   -0.1984   45.3360   55.2732 H   0  0  0  0  0  0  0  0  0  0  0  0
  1  2  2  0
  2  3  1  0
  3  4  2  0
  4  5  1  0
  5  6  1  0
  6  7  2  0
  7  8  1  0
  8  9  1  0
  9 10  1  0
 10 11  1  0
 11 12  1  0
 12 13  1  0
 13 14  1  0
 14 15  1  0
 15 16  1  0
  8 17  2  0
 17 18  1  0
 18 19  1  0
 19 20  2  0
 20 21  1  0
 21 22  2  0
  4 23  1  0
 23 24  2  0
 24  1  1  0
 22  6  1  0
 16 11  1  0
 21 17  1  0
  1 25  1  0
  2 26  1  0
  3 27  1  0
  5 28  1  0
 10 29  1  0
 10 30  1  0
 11 31  1  0
 12 32  1  0
 12 33  1  0
 13 34  1  0
 13 35  1  0
 14 36  1  0
 14 37  1  0
 15 38  1  0
 15 39  1  0
 16 40  1  0
 16 41  1  0
 18 42  1  0
 19 43  1  0
 23 44  1  0
 24 45  1  0
M  END
>  <meeko>  (4) 
{"is_sidechain": [false], "free_energy": -9.018, "intermolecular_energy": -11.741, "internal_energy": -0.674}

$$$$
ligand_0_conformer_5_docked
     RDKit          3D

 45 48  0  0  0  0  0  0  0  0999 V2000
    4.2410   41.0640   45.5300 C   0  0  0  0  0  0  0  0  0  0  0  0
    5.3680   41.7830   45.9370 C   0  0  0  0  0  0  0  0  0  0  0  0
    5.7200   41.8280   47.2910 C   0  0  0  0  0  0  0  0  0  0  0  0
    4.9540   41.1410   48.2470 C   0  0  0  0  0  0  0  0  0  0  0  0
    5.3410   41.1930   49.6300 N   0  0  0  0  0  0  0  0  0  0  0  0
    4.7350   42.0690   50.5910 C   0  0  0  0  0  0  0  0  0  0  0  0
    5.4610   43.0830   51.1650 N   0  0  0  0  0  0  0  0  0  0  0  0
    4.9020   43.9650   52.0450 C   0  0  0  0  0  0  0  0  0  0  0  0
    5.6530   44.9900   52.6310 O   0  0  0  0  0  0  0  0  0  0  0  0
    5.9440   46.2210   51.9670 C   0  0  0  0  0  0  0  0  0  0  0  0
    7.3240   46.7720   52.3760 C   0  0  0  0  0  0  0  0  0  0  0  0
    8.4420   46.1340   51.5130 C   0  0  0  0  0  0  0  0  0  0  0  0
    9.8300   46.1590   52.1870 C   0  0  0  0  0  0  0  0  0  0  0  0
    9.9630   47.3150   53.1830 C   0  0  0  0  0  0  0  0  0  0  0  0
    8.9210   47.2100   54.3150 C   0  0  0  0  0  0  0  0  0  0  0  0
    7.5960   46.5530   53.8750 C   0  0  0  0  0  0  0  0  0  0  0  0
    3.5570   43.8020   52.3360 C   0  0  0  0  0  0  0  0  0  0  0  0
    2.7590   44.5060   53.1450 N   0  0  0  0  0  0  0  0  0  0  0  0
    1.5570   43.8850   53.0280 C   0  0  0  0  0  0  0  0  0  0  0  0
    1.5700   42.8210   52.1790 N   0  0  0  0  0  0  0  0  0  0  0  0
    2.8490   42.8020   51.7660 C   0  0  0  0  0  0  0  0  0  0  0  0
    3.4050   41.9290   50.8920 N   0  0  0  0  0  0  0  0  0  0  0  0
    3.8040   40.4450   47.8300 C   0  0  0  0  0  0  0  0  0  0  0  0
    3.4570   40.4000   46.4760 C   0  0  0  0  0  0  0  0  0  0  0  0
    3.9713   41.0210   44.4644 H   0  0  0  0  0  0  0  0  0  0  0  0
    5.9792   42.3142   45.1925 H   0  0  0  0  0  0  0  0  0  0  0  0
    6.6015   42.4046   47.6081 H   0  0  0  0  0  0  0  0  0  0  0  0
    5.9780   40.4480   49.9920 H   0  0  0  0  0  0  0  0  0  0  0  0
    5.9348   46.0516   50.8802 H   0  0  0  0  0  0  0  0  0  0  0  0
    5.1795   46.9574   52.2555 H   0  0  0  0  0  0  0  0  0  0  0  0
    7.3208   47.8571   52.1954 H   0  0  0  0  0  0  0  0  0  0  0  0
    8.1716   45.0870   51.3116 H   0  0  0  0  0  0  0  0  0  0  0  0
    8.5191   46.7297   50.5915 H   0  0  0  0  0  0  0  0  0  0  0  0
    9.9823   45.2100   52.7219 H   0  0  0  0  0  0  0  0  0  0  0  0
   10.5870   46.2985   51.4012 H   0  0  0  0  0  0  0  0  0  0  0  0
   10.9712   47.2937   53.6224 H   0  0  0  0  0  0  0  0  0  0  0  0
    9.7907   48.2573   52.6423 H   0  0  0  0  0  0  0  0  0  0  0  0
    9.3524   46.6109   55.1305 H   0  0  0  0  0  0  0  0  0  0  0  0
    8.6831   48.2364   54.6311 H   0  0  0  0  0  0  0  0  0  0  0  0
    7.6504   45.4724   54.0736 H   0  0  0  0  0  0  0  0  0  0  0  0
    6.7769   47.0169   54.4441 H   0  0  0  0  0  0  0  0  0  0  0  0
    2.9980   45.3380   53.7290 H   0  0  0  0  0  0  0  0  0  0  0  0
    0.6566   44.2114   53.5690 H   0  0  0  0  0  0  0  0  0  0  0  0
    3.1746   39.9336   48.5732 H   0  0  0  0  0  0  0  0  0  0  0  0
    2.5655   39.8409   46.1557 H   0  0  0  0  0  0  0  0  0  0  0  0
  1  2  2  0
  2  3  1  0
  3  4  2  0
  4  5  1  0
  5  6  1  0
  6  7  2  0
  7  8  1  0
  8  9  1  0
  9 10  1  0
 10 11  1  0
 11 12  1  0
 12 13  1  0
 13 14  1  0
 14 15  1  0
 15 16  1  0
  8 17  2  0
 17 18  1  0
 18 19  1  0
 19 20  2  0
 20 21  1  0
 21 22  2  0
  4 23  1  0
 23 24  2  0
 24  1  1  0
 22  6  1  0
 16 11  1  0
 21 17  1  0
  1 25  1  0
  2 26  1  0
  3 27  1  0
  5 28  1  0
 10 29  1  0
 10 30  1  0
 11 31  1  0
 12 32  1  0
 12 33  1  0
 13 34  1  0
 13 35  1  0
 14 36  1  0
 14 37  1  0
 15 38  1  0
 15 39  1  0
 16 40  1  0
 16 41  1  0
 18 42  1  0
 19 43  1  0
 23 44  1  0
 24 45  1  0
M  END
>  <meeko>  (5) 
{"is_sidechain": [false], "free_energy": -8.47, "intermolecular_energy": -11.141, "internal_energy": -0.567}

$$$$
