ligand_37_conformer_2_docked
     RDKit          3D

 44 46  0  0  0  0  0  0  0  0999 V2000
   11.0720   47.5430   56.4300 C   0  0  0  0  0  0  0  0  0  0  0  0
    9.8670   48.0200   55.8420 O   0  0  0  0  0  0  0  0  0  0  0  0
    9.3110   47.4450   54.6960 C   0  0  0  0  0  0  0  0  0  0  0  0
   10.0770   47.3380   53.5350 C   0  0  0  0  0  0  0  0  0  0  0  0
    9.5000   46.7530   52.4090 C   0  0  0  0  0  0  0  0  0  0  0  0
    8.2230   46.2950   52.4620 N   0  0  0  0  0  0  0  0  0  0  0  0
    7.4810   46.4000   53.5990 C   0  0  0  0  0  0  0  0  0  0  0  0
    6.1210   45.9130   53.6360 N   0  0  0  0  0  0  0  0  0  0  0  0
    5.6210   45.2580   54.8470 C   0  0  0  0  0  0  0  0  0  0  0  0
    5.3320   45.8350   52.4320 C   0  0  0  0  0  0  0  0  0  0  0  0
    4.5350   46.7730   52.1530 O   0  0  0  0  0  0  0  0  0  0  0  0
    5.4370   44.6780   51.5100 C   0  0  0  0  0  0  0  0  0  0  0  0
    4.5700   43.5820   51.6510 C   0  0  0  0  0  0  0  0  0  0  0  0
    4.7040   42.4650   50.8220 C   0  0  0  0  0  0  0  0  0  0  0  0
    5.7020   42.4220   49.8430 C   0  0  0  0  0  0  0  0  0  0  0  0
    5.8090   41.2730   49.0440 O   0  0  0  0  0  0  0  0  0  0  0  0
    5.0530   41.0190   47.8930 C   0  0  0  0  0  0  0  0  0  0  0  0
    5.4260   41.6170   46.6880 C   0  0  0  0  0  0  0  0  0  0  0  0
    4.6620   41.3910   45.5410 C   0  0  0  0  0  0  0  0  0  0  0  0
    3.5330   40.5590   45.5980 C   0  0  0  0  0  0  0  0  0  0  0  0
    2.6870   40.3520   44.3670 C   0  0  0  0  0  0  0  0  0  0  0  0
    3.5120   40.1380   43.2790 F   0  0  0  0  0  0  0  0  0  0  0  0
    1.8690   39.2490   44.5360 F   0  0  0  0  0  0  0  0  0  0  0  0
    1.8870   41.4520   44.1150 F   0  0  0  0  0  0  0  0  0  0  0  0
    3.1800   39.9970   46.8360 C   0  0  0  0  0  0  0  0  0  0  0  0
    3.9380   40.2370   47.9380 N   0  0  0  0  0  0  0  0  0  0  0  0
    6.5370   43.5390   49.6640 C   0  0  0  0  0  0  0  0  0  0  0  0
    6.4050   44.6580   50.4920 C   0  0  0  0  0  0  0  0  0  0  0  0
    8.0330   46.9830   54.7000 N   0  0  0  0  0  0  0  0  0  0  0  0
   10.9840   47.5778   57.5259 H   0  0  0  0  0  0  0  0  0  0  0  0
   11.2511   46.5061   56.1093 H   0  0  0  0  0  0  0  0  0  0  0  0
   11.9123   48.1763   56.1093 H   0  0  0  0  0  0  0  0  0  0  0  0
   11.1129   47.7070   53.5087 H   0  0  0  0  0  0  0  0  0  0  0  0
   10.0789   46.6625   51.4781 H   0  0  0  0  0  0  0  0  0  0  0  0
    6.0161   45.7756   55.7336 H   0  0  0  0  0  0  0  0  0  0  0  0
    4.5218   45.2982   54.8584 H   0  0  0  0  0  0  0  0  0  0  0  0
    5.9496   44.2083   54.8584 H   0  0  0  0  0  0  0  0  0  0  0  0
    3.7816   43.6030   52.4178 H   0  0  0  0  0  0  0  0  0  0  0  0
    4.0189   41.6125   50.9404 H   0  0  0  0  0  0  0  0  0  0  0  0
    6.3159   42.2620   46.6422 H   0  0  0  0  0  0  0  0  0  0  0  0
    4.9458   41.8663   44.5904 H   0  0  0  0  0  0  0  0  0  0  0  0
    2.2865   39.3601   46.9137 H   0  0  0  0  0  0  0  0  0  0  0  0
    7.2974   43.5325   48.8692 H   0  0  0  0  0  0  0  0  0  0  0  0
    7.0627   45.5275   50.3455 H   0  0  0  0  0  0  0  0  0  0  0  0
  1  2  1  0
  2  3  1  0
  3  4  2  0
  4  5  1  0
  5  6  2  0
  6  7  1  0
  7  8  1  0
  8  9  1  0
  8 10  1  0
 10 11  2  0
 10 12  1  0
 12 13  2  0
 13 14  1  0
 14 15  2  0
 15 16  1  0
 16 17  1  0
 17 18  2  0
 18 19  1  0
 19 20  2  0
 20 21  1  0
 21 22  1  0
 21 23  1  0
 21 24  1  0
 20 25  1  0
 25 26  2  0
 15 27  1  0
 27 28  2  0
  7 29  2  0
 29  3  1  0
 28 12  1  0
 26 17  1  0
  1 30  1  0
  1 31  1  0
  1 32  1  0
  4 33  1  0
  5 34  1  0
  9 35  1  0
  9 36  1  0
  9 37  1  0
 13 38  1  0
 14 39  1  0
 18 40  1  0
 19 41  1  0
 25 42  1  0
 27 43  1  0
 28 44  1  0
M  END
>  <meeko>  (1) 
{"is_sidechain": [false], "free_energy": -9.032, "intermolecular_energy": -12.728, "internal_energy": -0.551}

$$$$
ligand_37_conformer_2_docked
     RDKit          3D

 44 46  0  0  0  0  0  0  0  0999 V2000
   10.2420   45.2230   51.0220 C   0  0  0  0  0  0  0  0  0  0  0  0
   10.5560   46.0290   52.1510 O   0  0  0  0  0  0  0  0  0  0  0  0
    9.5830   46.4750   53.0500 C   0  0  0  0  0  0  0  0  0  0  0  0
    9.9090   47.4470   53.9960 C   0  0  0  0  0  0  0  0  0  0  0  0
    8.9170   47.8780   54.8750 C   0  0  0  0  0  0  0  0  0  0  0  0
    7.6640   47.3610   54.7920 N   0  0  0  0  0  0  0  0  0  0  0  0
    7.3520   46.4150   53.8630 C   0  0  0  0  0  0  0  0  0  0  0  0
    6.0150   45.8700   53.7930 N   0  0  0  0  0  0  0  0  0  0  0  0
    5.4820   45.1160   54.9310 C   0  0  0  0  0  0  0  0  0  0  0  0
    5.2940   45.8390   52.5440 C   0  0  0  0  0  0  0  0  0  0  0  0
    4.5270   46.7960   52.2500 O   0  0  0  0  0  0  0  0  0  0  0  0
    5.4370   44.7080   51.5960 C   0  0  0  0  0  0  0  0  0  0  0  0
    4.5690   43.6060   51.6750 C   0  0  0  0  0  0  0  0  0  0  0  0
    4.7360   42.5120   50.8210 C   0  0  0  0  0  0  0  0  0  0  0  0
    5.7700   42.4980   49.8790 C   0  0  0  0  0  0  0  0  0  0  0  0
    5.9100   41.3720   49.0530 O   0  0  0  0  0  0  0  0  0  0  0  0
    5.1330   41.1020   47.9200 C   0  0  0  0  0  0  0  0  0  0  0  0
    5.4810   41.6840   46.7010 C   0  0  0  0  0  0  0  0  0  0  0  0
    4.6960   41.4420   45.5720 C   0  0  0  0  0  0  0  0  0  0  0  0
    3.5690   40.6100   45.6620 C   0  0  0  0  0  0  0  0  0  0  0  0
    2.7000   40.3850   44.4500 C   0  0  0  0  0  0  0  0  0  0  0  0
    1.8320   39.3390   44.7000 F   0  0  0  0  0  0  0  0  0  0  0  0
    1.9660   41.5260   44.1770 F   0  0  0  0  0  0  0  0  0  0  0  0
    3.4600   40.0800   43.3350 F   0  0  0  0  0  0  0  0  0  0  0  0
    3.2400   40.0640   46.9140 C   0  0  0  0  0  0  0  0  0  0  0  0
    4.0190   40.3190   47.9980 N   0  0  0  0  0  0  0  0  0  0  0  0
    6.6070   43.6220   49.7610 C   0  0  0  0  0  0  0  0  0  0  0  0
    6.4420   44.7170   50.6140 C   0  0  0  0  0  0  0  0  0  0  0  0
    8.3190   45.9770   53.0100 N   0  0  0  0  0  0  0  0  0  0  0  0
    9.8622   44.2481   51.3617 H   0  0  0  0  0  0  0  0  0  0  0  0
    9.4736   45.7248   50.4156 H   0  0  0  0  0  0  0  0  0  0  0  0
   11.1473   45.0727   50.4156 H   0  0  0  0  0  0  0  0  0  0  0  0
   10.9257   47.8637   54.0470 H   0  0  0  0  0  0  0  0  0  0  0  0
    9.1491   48.6373   55.6363 H   0  0  0  0  0  0  0  0  0  0  0  0
    5.8135   45.5850   55.8692 H   0  0  0  0  0  0  0  0  0  0  0  0
    4.3828   45.1170   54.8890 H   0  0  0  0  0  0  0  0  0  0  0  0
    5.8496   44.0801   54.8890 H   0  0  0  0  0  0  0  0  0  0  0  0
    3.7534   43.6041   52.4131 H   0  0  0  0  0  0  0  0  0  0  0  0
    4.0491   41.6556   50.8903 H   0  0  0  0  0  0  0  0  0  0  0  0
    6.3686   42.3298   46.6296 H   0  0  0  0  0  0  0  0  0  0  0  0
    4.9613   41.9044   44.6098 H   0  0  0  0  0  0  0  0  0  0  0  0
    2.3486   39.4278   47.0172 H   0  0  0  0  0  0  0  0  0  0  0  0
    7.3952   43.6395   48.9939 H   0  0  0  0  0  0  0  0  0  0  0  0
    7.1028   45.5909   50.5159 H   0  0  0  0  0  0  0  0  0  0  0  0
  1  2  1  0
  2  3  1  0
  3  4  2  0
  4  5  1  0
  5  6  2  0
  6  7  1  0
  7  8  1  0
  8  9  1  0
  8 10  1  0
 10 11  2  0
 10 12  1  0
 12 13  2  0
 13 14  1  0
 14 15  2  0
 15 16  1  0
 16 17  1  0
 17 18  2  0
 18 19  1  0
 19 20  2  0
 20 21  1  0
 21 22  1  0
 21 23  1  0
 21 24  1  0
 20 25  1  0
 25 26  2  0
 15 27  1  0
 27 28  2  0
  7 29  2  0
 29  3  1  0
 28 12  1  0
 26 17  1  0
  1 30  1  0
  1 31  1  0
  1 32  1  0
  4 33  1  0
  5 34  1  0
  9 35  1  0
  9 36  1  0
  9 37  1  0
 13 38  1  0
 14 39  1  0
 18 40  1  0
 19 41  1  0
 25 42  1  0
 27 43  1  0
 28 44  1  0
M  END
>  <meeko>  (2) 
{"is_sidechain": [false], "free_energy": -8.882, "intermolecular_energy": -12.253, "internal_energy": -0.815}

$$$$
ligand_37_conformer_2_docked
     RDKit          3D

 44 46  0  0  0  0  0  0  0  0999 V2000
    0.8740   46.0570   57.5800 C   0  0  0  0  0  0  0  0  0  0  0  0
   -0.5480   46.0640   57.5670 O   0  0  0  0  0  0  0  0  0  0  0  0
   -1.2970   45.1610   56.8070 C   0  0  0  0  0  0  0  0  0  0  0  0
   -2.5050   44.6730   57.3050 C   0  0  0  0  0  0  0  0  0  0  0  0
   -3.2350   43.7800   56.5230 C   0  0  0  0  0  0  0  0  0  0  0  0
   -2.7700   43.4100   55.3010 N   0  0  0  0  0  0  0  0  0  0  0  0
   -1.5910   43.8930   54.8200 C   0  0  0  0  0  0  0  0  0  0  0  0
   -1.1070   43.4830   53.5210 N   0  0  0  0  0  0  0  0  0  0  0  0
   -2.0350   43.4350   52.3880 C   0  0  0  0  0  0  0  0  0  0  0  0
    0.1980   42.8890   53.3720 C   0  0  0  0  0  0  0  0  0  0  0  0
    0.4000   41.7240   53.8120 O   0  0  0  0  0  0  0  0  0  0  0  0
    1.3090   43.6160   52.7120 C   0  0  0  0  0  0  0  0  0  0  0  0
    1.1950   44.9900   52.4460 C   0  0  0  0  0  0  0  0  0  0  0  0
    2.2160   45.6670   51.7720 C   0  0  0  0  0  0  0  0  0  0  0  0
    3.3620   44.9850   51.3510 C   0  0  0  0  0  0  0  0  0  0  0  0
    4.3540   45.7010   50.6630 O   0  0  0  0  0  0  0  0  0  0  0  0
    5.6340   45.9820   51.1570 C   0  0  0  0  0  0  0  0  0  0  0  0
    6.7450   45.4250   50.5230 C   0  0  0  0  0  0  0  0  0  0  0  0
    8.0230   45.6770   51.0250 C   0  0  0  0  0  0  0  0  0  0  0  0
    8.1900   46.4940   52.1540 C   0  0  0  0  0  0  0  0  0  0  0  0
    9.5680   46.7300   52.7170 C   0  0  0  0  0  0  0  0  0  0  0  0
    9.8980   45.6890   53.5650 F   0  0  0  0  0  0  0  0  0  0  0  0
   10.4950   46.7860   51.6910 F   0  0  0  0  0  0  0  0  0  0  0  0
    9.6270   47.9190   53.4220 F   0  0  0  0  0  0  0  0  0  0  0  0
    7.0430   47.0140   52.7760 C   0  0  0  0  0  0  0  0  0  0  0  0
    5.8090   46.7500   52.2700 N   0  0  0  0  0  0  0  0  0  0  0  0
    3.5030   43.6210   51.6620 C   0  0  0  0  0  0  0  0  0  0  0  0
    2.4830   42.9420   52.3360 C   0  0  0  0  0  0  0  0  0  0  0  0
   -0.8650   44.7550   55.5840 N   0  0  0  0  0  0  0  0  0  0  0  0
    1.2312   46.0552   58.6204 H   0  0  0  0  0  0  0  0  0  0  0  0
    1.2410   45.1570   57.0648 H   0  0  0  0  0  0  0  0  0  0  0  0
    1.2498   46.9533   57.0648 H   0  0  0  0  0  0  0  0  0  0  0  0
   -2.8733   44.9861   58.2931 H   0  0  0  0  0  0  0  0  0  0  0  0
   -4.1876   43.3747   56.8949 H   0  0  0  0  0  0  0  0  0  0  0  0
   -3.0680   43.3816   52.7622 H   0  0  0  0  0  0  0  0  0  0  0  0
   -1.9132   44.3406   51.7757 H   0  0  0  0  0  0  0  0  0  0  0  0
   -1.8204   42.5468   51.7757 H   0  0  0  0  0  0  0  0  0  0  0  0
    0.2972   45.5370   52.7697 H   0  0  0  0  0  0  0  0  0  0  0  0
    2.1171   46.7440   51.5714 H   0  0  0  0  0  0  0  0  0  0  0  0
    6.6148   44.7914   49.6333 H   0  0  0  0  0  0  0  0  0  0  0  0
    8.9020   45.2338   50.5342 H   0  0  0  0  0  0  0  0  0  0  0  0
    7.1436   47.6376   53.6765 H   0  0  0  0  0  0  0  0  0  0  0  0
    4.4197   43.0856   51.3739 H   0  0  0  0  0  0  0  0  0  0  0  0
    2.6005   41.8743   52.5731 H   0  0  0  0  0  0  0  0  0  0  0  0
  1  2  1  0
  2  3  1  0
  3  4  2  0
  4  5  1  0
  5  6  2  0
  6  7  1  0
  7  8  1  0
  8  9  1  0
  8 10  1  0
 10 11  2  0
 10 12  1  0
 12 13  2  0
 13 14  1  0
 14 15  2  0
 15 16  1  0
 16 17  1  0
 17 18  2  0
 18 19  1  0
 19 20  2  0
 20 21  1  0
 21 22  1  0
 21 23  1  0
 21 24  1  0
 20 25  1  0
 25 26  2  0
 15 27  1  0
 27 28  2  0
  7 29  2  0
 29  3  1  0
 28 12  1  0
 26 17  1  0
  1 30  1  0
  1 31  1  0
  1 32  1  0
  4 33  1  0
  5 34  1  0
  9 35  1  0
  9 36  1  0
  9 37  1  0
 13 38  1  0
 14 39  1  0
 18 40  1  0
 19 41  1  0
 25 42  1  0
 27 43  1  0
 28 44  1  0
M  END
>  <meeko>  (3) 
{"is_sidechain": [false], "free_energy": -8.863, "intermolecular_energy": -12.098, "internal_energy": -0.943}

$$$$
ligand_37_conformer_2_docked
     RDKit          3D

 44 46  0  0  0  0  0  0  0  0999 V2000
    4.1720   43.3940   51.9610 C   0  0  0  0  0  0  0  0  0  0  0  0
    4.7390   43.4030   50.6560 O   0  0  0  0  0  0  0  0  0  0  0  0
    6.0250   43.8870   50.3990 C   0  0  0  0  0  0  0  0  0  0  0  0
    6.7800   43.3270   49.3690 C   0  0  0  0  0  0  0  0  0  0  0  0
    8.0570   43.8340   49.1290 C   0  0  0  0  0  0  0  0  0  0  0  0
    8.5340   44.8560   49.8850 N   0  0  0  0  0  0  0  0  0  0  0  0
    7.7900   45.4000   50.8870 C   0  0  0  0  0  0  0  0  0  0  0  0
    8.3160   46.4830   51.6870 N   0  0  0  0  0  0  0  0  0  0  0  0
    9.7540   46.5450   51.9600 C   0  0  0  0  0  0  0  0  0  0  0  0
    7.4340   47.3550   52.4210 C   0  0  0  0  0  0  0  0  0  0  0  0
    7.5680   48.6050   52.3110 O   0  0  0  0  0  0  0  0  0  0  0  0
    6.3710   46.8170   53.3030 C   0  0  0  0  0  0  0  0  0  0  0  0
    6.6870   45.8840   54.3040 C   0  0  0  0  0  0  0  0  0  0  0  0
    5.6790   45.3300   55.0990 C   0  0  0  0  0  0  0  0  0  0  0  0
    4.3430   45.6960   54.9080 C   0  0  0  0  0  0  0  0  0  0  0  0
    3.3630   45.1030   55.7190 O   0  0  0  0  0  0  0  0  0  0  0  0
    2.0260   44.9080   55.3540 C   0  0  0  0  0  0  0  0  0  0  0  0
    1.0160   45.4460   56.1530 C   0  0  0  0  0  0  0  0  0  0  0  0
   -0.3210   45.2330   55.8110 C   0  0  0  0  0  0  0  0  0  0  0  0
   -0.6470   44.4910   54.6660 C   0  0  0  0  0  0  0  0  0  0  0  0
   -2.0920   44.2270   54.3240 C   0  0  0  0  0  0  0  0  0  0  0  0
   -2.6940   45.4120   53.9480 F   0  0  0  0  0  0  0  0  0  0  0  0
   -2.1730   43.3270   53.2760 F   0  0  0  0  0  0  0  0  0  0  0  0
   -2.7750   43.6990   55.4050 F   0  0  0  0  0  0  0  0  0  0  0  0
    0.4000   43.9460   53.9040 C   0  0  0  0  0  0  0  0  0  0  0  0
    1.6930   44.1650   54.2600 N   0  0  0  0  0  0  0  0  0  0  0  0
    4.0290   46.6700   53.9440 C   0  0  0  0  0  0  0  0  0  0  0  0
    5.0350   47.2240   53.1470 C   0  0  0  0  0  0  0  0  0  0  0  0
    6.5470   44.9010   51.1370 N   0  0  0  0  0  0  0  0  0  0  0  0
    4.9769   43.4068   52.7106 H   0  0  0  0  0  0  0  0  0  0  0  0
    3.5361   44.2822   52.0906 H   0  0  0  0  0  0  0  0  0  0  0  0
    3.5646   42.4861   52.0906 H   0  0  0  0  0  0  0  0  0  0  0  0
    6.3777   42.5042   48.7597 H   0  0  0  0  0  0  0  0  0  0  0  0
    8.6773   43.4061   48.3277 H   0  0  0  0  0  0  0  0  0  0  0  0
    9.9208   46.5522   53.0473 H   0  0  0  0  0  0  0  0  0  0  0  0
   10.2491   45.6674   51.5189 H   0  0  0  0  0  0  0  0  0  0  0  0
   10.1718   47.4620   51.5189 H   0  0  0  0  0  0  0  0  0  0  0  0
    7.7341   45.5872   54.4636 H   0  0  0  0  0  0  0  0  0  0  0  0
    5.9389   44.6008   55.8805 H   0  0  0  0  0  0  0  0  0  0  0  0
    1.2716   46.0342   57.0467 H   0  0  0  0  0  0  0  0  0  0  0  0
   -1.1211   45.6483   56.4414 H   0  0  0  0  0  0  0  0  0  0  0  0
    0.1720   43.3393   53.0152 H   0  0  0  0  0  0  0  0  0  0  0  0
    2.9867   46.9977   53.8163 H   0  0  0  0  0  0  0  0  0  0  0  0
    4.7793   47.9831   52.3931 H   0  0  0  0  0  0  0  0  0  0  0  0
  1  2  1  0
  2  3  1  0
  3  4  2  0
  4  5  1  0
  5  6  2  0
  6  7  1  0
  7  8  1  0
  8  9  1  0
  8 10  1  0
 10 11  2  0
 10 12  1  0
 12 13  2  0
 13 14  1  0
 14 15  2  0
 15 16  1  0
 16 17  1  0
 17 18  2  0
 18 19  1  0
 19 20  2  0
 20 21  1  0
 21 22  1  0
 21 23  1  0
 21 24  1  0
 20 25  1  0
 25 26  2  0
 15 27  1  0
 27 28  2  0
  7 29  2  0
 29  3  1  0
 28 12  1  0
 26 17  1  0
  1 30  1  0
  1 31  1  0
  1 32  1  0
  4 33  1  0
  5 34  1  0
  9 35  1  0
  9 36  1  0
  9 37  1  0
 13 38  1  0
 14 39  1  0
 18 40  1  0
 19 41  1  0
 25 42  1  0
 27 43  1  0
 28 44  1  0
M  END
>  <meeko>  (4) 
{"is_sidechain": [false], "free_energy": -8.18, "intermolecular_energy": -11.617, "internal_energy": -0.462}

$$$$
ligand_37_conformer_2_docked
     RDKit          3D

 44 46  0  0  0  0  0  0  0  0999 V2000
   -3.3840   41.0740   48.8650 C   0  0  0  0  0  0  0  0  0  0  0  0
   -2.4290   42.1280   48.8120 O   0  0  0  0  0  0  0  0  0  0  0  0
   -2.3770   43.1430   49.7710 C   0  0  0  0  0  0  0  0  0  0  0  0
   -2.9330   44.3910   49.4880 C   0  0  0  0  0  0  0  0  0  0  0  0
   -2.8740   45.3830   50.4660 C   0  0  0  0  0  0  0  0  0  0  0  0
   -2.2930   45.1190   51.6650 N   0  0  0  0  0  0  0  0  0  0  0  0
   -1.7560   43.8980   51.9360 C   0  0  0  0  0  0  0  0  0  0  0  0
   -1.1350   43.6370   53.2160 N   0  0  0  0  0  0  0  0  0  0  0  0
   -1.7620   44.1460   54.4380 C   0  0  0  0  0  0  0  0  0  0  0  0
    0.2030   43.1080   53.2930 C   0  0  0  0  0  0  0  0  0  0  0  0
    0.4050   42.0230   53.9050 O   0  0  0  0  0  0  0  0  0  0  0  0
    1.3510   43.8090   52.6680 C   0  0  0  0  0  0  0  0  0  0  0  0
    1.3040   45.1980   52.4640 C   0  0  0  0  0  0  0  0  0  0  0  0
    2.3590   45.8530   51.8220 C   0  0  0  0  0  0  0  0  0  0  0  0
    3.4730   45.1370   51.3740 C   0  0  0  0  0  0  0  0  0  0  0  0
    4.5010   45.8340   50.7210 O   0  0  0  0  0  0  0  0  0  0  0  0
    5.7810   46.0580   51.2430 C   0  0  0  0  0  0  0  0  0  0  0  0
    6.8940   45.6060   50.5340 C   0  0  0  0  0  0  0  0  0  0  0  0
    8.1730   45.8020   51.0600 C   0  0  0  0  0  0  0  0  0  0  0  0
    8.3370   46.4570   52.2900 C   0  0  0  0  0  0  0  0  0  0  0  0
    9.7160   46.6280   52.8750 C   0  0  0  0  0  0  0  0  0  0  0  0
   10.6510   46.5780   51.8590 F   0  0  0  0  0  0  0  0  0  0  0  0
    9.8100   47.8520   53.5140 F   0  0  0  0  0  0  0  0  0  0  0  0
    9.9990   45.6340   53.7950 F   0  0  0  0  0  0  0  0  0  0  0  0
    7.1880   46.8730   52.9830 C   0  0  0  0  0  0  0  0  0  0  0  0
    5.9550   46.6680   52.4500 N   0  0  0  0  0  0  0  0  0  0  0  0
    3.5470   43.7550   51.6240 C   0  0  0  0  0  0  0  0  0  0  0  0
    2.4930   43.0970   52.2660 C   0  0  0  0  0  0  0  0  0  0  0  0
   -1.7960   42.9280   50.9810 N   0  0  0  0  0  0  0  0  0  0  0  0
   -3.6041   40.8311   49.9150 H   0  0  0  0  0  0  0  0  0  0  0  0
   -4.3086   41.3912   48.3605 H   0  0  0  0  0  0  0  0  0  0  0  0
   -2.9774   40.1851   48.3605 H   0  0  0  0  0  0  0  0  0  0  0  0
   -3.4072   44.5879   48.5152 H   0  0  0  0  0  0  0  0  0  0  0  0
   -3.2976   46.3784   50.2668 H   0  0  0  0  0  0  0  0  0  0  0  0
   -1.2472   43.7281   55.3157 H   0  0  0  0  0  0  0  0  0  0  0  0
   -1.6888   45.2434   54.4580 H   0  0  0  0  0  0  0  0  0  0  0  0
   -2.8209   43.8488   54.4580 H   0  0  0  0  0  0  0  0  0  0  0  0
    0.4329   45.7731   52.8111 H   0  0  0  0  0  0  0  0  0  0  0  0
    2.3122   46.9412   51.6680 H   0  0  0  0  0  0  0  0  0  0  0  0
    6.7652   45.0984   49.5667 H   0  0  0  0  0  0  0  0  0  0  0  0
    9.0540   45.4419   50.5085 H   0  0  0  0  0  0  0  0  0  0  0  0
    7.2868   47.3667   53.9610 H   0  0  0  0  0  0  0  0  0  0  0  0
    4.4377   43.1892   51.3133 H   0  0  0  0  0  0  0  0  0  0  0  0
    2.5588   42.0157   52.4572 H   0  0  0  0  0  0  0  0  0  0  0  0
  1  2  1  0
  2  3  1  0
  3  4  2  0
  4  5  1  0
  5  6  2  0
  6  7  1  0
  7  8  1  0
  8  9  1  0
  8 10  1  0
 10 11  2  0
 10 12  1  0
 12 13  2  0
 13 14  1  0
 14 15  2  0
 15 16  1  0
 16 17  1  0
 17 18  2  0
 18 19  1  0
 19 20  2  0
 20 21  1  0
 21 22  1  0
 21 23  1  0
 21 24  1  0
 20 25  1  0
 25 26  2  0
 15 27  1  0
 27 28  2  0
  7 29  2  0
 29  3  1  0
 28 12  1  0
 26 17  1  0
  1 30  1  0
  1 31  1  0
  1 32  1  0
  4 33  1  0
  5 34  1  0
  9 35  1  0
  9 36  1  0
  9 37  1  0
 13 38  1  0
 14 39  1  0
 18 40  1  0
 19 41  1  0
 25 42  1  0
 27 43  1  0
 28 44  1  0
M  END
>  <meeko>  (5) 
{"is_sidechain": [false], "free_energy": -8.155, "intermolecular_energy": -11.202, "internal_energy": -0.841}

$$$$
