ligand_10_conformer_1_docked
     RDKit          3D

 50 53  0  0  0  0  0  0  0  0999 V2000
   -3.5340   42.4380   59.0310 C   0  0  0  0  0  0  0  0  0  0  0  0
   -3.3630   43.5720   58.0650 C   0  0  0  0  0  0  0  0  0  0  0  0
   -3.7830   44.8660   58.4100 C   0  0  0  0  0  0  0  0  0  0  0  0
   -3.6690   45.9090   57.4870 C   0  0  0  0  0  0  0  0  0  0  0  0
   -3.1360   45.6660   56.2180 C   0  0  0  0  0  0  0  0  0  0  0  0
   -2.7100   44.3820   55.8580 C   0  0  0  0  0  0  0  0  0  0  0  0
   -2.2070   44.1800   54.5620 O   0  0  0  0  0  0  0  0  0  0  0  0
   -0.9330   44.5570   54.1100 C   0  0  0  0  0  0  0  0  0  0  0  0
    0.1950   44.5430   54.9430 C   0  0  0  0  0  0  0  0  0  0  0  0
    1.4390   44.9350   54.4440 C   0  0  0  0  0  0  0  0  0  0  0  0
    1.5490   45.3500   53.1070 C   0  0  0  0  0  0  0  0  0  0  0  0
    2.8480   45.7690   52.5380 C   0  0  0  0  0  0  0  0  0  0  0  0
    2.9220   46.8300   51.8610 O   0  0  0  0  0  0  0  0  0  0  0  0
    4.0320   44.9910   52.7920 N   0  0  0  0  0  0  0  0  0  0  0  0
    5.2610   45.1230   52.0550 C   0  0  0  0  0  0  0  0  0  0  0  0
    5.4260   44.4020   50.8640 C   0  0  0  0  0  0  0  0  0  0  0  0
    6.5950   44.5350   50.1110 C   0  0  0  0  0  0  0  0  0  0  0  0
    7.6040   45.4040   50.5300 C   0  0  0  0  0  0  0  0  0  0  0  0
    7.4460   46.1630   51.7000 C   0  0  0  0  0  0  0  0  0  0  0  0
    8.5490   47.0980   52.1470 C   0  0  2  0  0  0  0  0  0  0  0  0
    9.8060   46.3310   52.6250 C   0  0  0  0  0  0  0  0  0  0  0  0
   10.2550   46.9930   53.9360 C   0  0  0  0  0  0  0  0  0  0  0  0
    9.1120   47.8610   54.2820 C   0  0  0  0  0  0  0  0  0  0  0  0
    9.0280   48.5210   55.3500 O   0  0  0  0  0  0  0  0  0  0  0  0
    8.1250   47.9070   53.2750 N   0  0  0  0  0  0  0  0  0  0  0  0
    6.2720   46.0140   52.4620 C   0  0  0  0  0  0  0  0  0  0  0  0
    0.4330   45.3780   52.3290 N   0  0  0  0  0  0  0  0  0  0  0  0
   -0.7880   45.0060   52.7950 C   0  0  0  0  0  0  0  0  0  0  0  0
   -2.8510   43.3290   56.7790 C   0  0  0  0  0  0  0  0  0  0  0  0
   -3.4762   42.8214   60.0604 H   0  0  0  0  0  0  0  0  0  0  0  0
   -4.5137   41.9643   58.8706 H   0  0  0  0  0  0  0  0  0  0  0  0
   -2.7375   41.6964   58.8706 H   0  0  0  0  0  0  0  0  0  0  0  0
   -4.2025   45.0594   59.4083 H   0  0  0  0  0  0  0  0  0  0  0  0
   -3.9991   46.9223   57.7595 H   0  0  0  0  0  0  0  0  0  0  0  0
   -3.0505   46.4911   55.4956 H   0  0  0  0  0  0  0  0  0  0  0  0
    0.0998   44.2228   55.9910 H   0  0  0  0  0  0  0  0  0  0  0  0
    2.3265   44.9188   55.0937 H   0  0  0  0  0  0  0  0  0  0  0  0
    4.0270   44.3390   53.6100 H   0  0  0  0  0  0  0  0  0  0  0  0
    4.6289   43.7265   50.5199 H   0  0  0  0  0  0  0  0  0  0  0  0
    6.7208   43.9536   49.1857 H   0  0  0  0  0  0  0  0  0  0  0  0
    8.5280   45.4944   49.9400 H   0  0  0  0  0  0  0  0  0  0  0  0
    8.7815   47.7164   51.2675 H   0  0  0  0  0  0  0  0  0  0  0  0
    9.5610   45.2729   52.7991 H   0  0  0  0  0  0  0  0  0  0  0  0
   10.6041   46.3691   51.8689 H   0  0  0  0  0  0  0  0  0  0  0  0
   10.4301   46.2401   54.7187 H   0  0  0  0  0  0  0  0  0  0  0  0
   11.2023   47.5438   53.8397 H   0  0  0  0  0  0  0  0  0  0  0  0
    7.2970   48.5420   53.2830 H   0  0  0  0  0  0  0  0  0  0  0  0
    6.1433   46.5994   53.3844 H   0  0  0  0  0  0  0  0  0  0  0  0
   -1.6658   45.0586   52.1342 H   0  0  0  0  0  0  0  0  0  0  0  0
   -2.5587   42.3084   56.4911 H   0  0  0  0  0  0  0  0  0  0  0  0
  1  2  1  0
  2  3  2  0
  3  4  1  0
  4  5  2  0
  5  6  1  0
  6  7  1  0
  7  8  1  0
  8  9  2  0
  9 10  1  0
 10 11  2  0
 11 12  1  0
 12 13  2  0
 12 14  1  0
 14 15  1  0
 15 16  2  0
 16 17  1  0
 17 18  2  0
 18 19  1  0
 19 20  1  0
 20 21  1  0
 21 22  1  0
 22 23  1  0
 23 24  2  0
 23 25  1  0
 19 26  2  0
 11 27  1  0
 27 28  2  0
  6 29  2  0
 29  2  1  0
 28  8  1  0
 26 15  1  0
 25 20  1  0
  1 30  1  0
  1 31  1  0
  1 32  1  0
  3 33  1  0
  4 34  1  0
  5 35  1  0
  9 36  1  0
 10 37  1  0
 14 38  1  0
 16 39  1  0
 17 40  1  0
 18 41  1  0
 20 42  1  6
 21 43  1  0
 21 44  1  0
 22 45  1  0
 22 46  1  0
 25 47  1  0
 26 48  1  0
 28 49  1  0
 29 50  1  0
M  END
>  <meeko>  (1) 
{"is_sidechain": [false], "free_energy": -9.444, "intermolecular_energy": -12.204, "internal_energy": -0.93}

$$$$
ligand_10_conformer_1_docked
     RDKit          3D

 50 53  0  0  0  0  0  0  0  0999 V2000
   -3.5420   47.5680   56.4880 C   0  0  0  0  0  0  0  0  0  0  0  0
   -3.1930   46.1100   56.4800 C   0  0  0  0  0  0  0  0  0  0  0  0
   -3.2240   45.3670   57.6700 C   0  0  0  0  0  0  0  0  0  0  0  0
   -2.8480   44.0220   57.6660 C   0  0  0  0  0  0  0  0  0  0  0  0
   -2.4420   43.4110   56.4750 C   0  0  0  0  0  0  0  0  0  0  0  0
   -2.4080   44.1370   55.2780 C   0  0  0  0  0  0  0  0  0  0  0  0
   -1.9650   43.4900   54.1130 O   0  0  0  0  0  0  0  0  0  0  0  0
   -0.6440   43.4670   53.6410 C   0  0  0  0  0  0  0  0  0  0  0  0
    0.3950   44.1630   54.2770 C   0  0  0  0  0  0  0  0  0  0  0  0
    1.6910   44.1130   53.7610 C   0  0  0  0  0  0  0  0  0  0  0  0
    1.9440   43.3680   52.5980 C   0  0  0  0  0  0  0  0  0  0  0  0
    3.3040   43.2850   52.0210 C   0  0  0  0  0  0  0  0  0  0  0  0
    3.9840   42.2340   52.1740 O   0  0  0  0  0  0  0  0  0  0  0  0
    3.8320   44.3820   51.2540 N   0  0  0  0  0  0  0  0  0  0  0  0
    5.2220   44.5380   50.9160 C   0  0  0  0  0  0  0  0  0  0  0  0
    5.8090   43.6470   50.0070 C   0  0  0  0  0  0  0  0  0  0  0  0
    7.1480   43.7940   49.6350 C   0  0  0  0  0  0  0  0  0  0  0  0
    7.9090   44.8430   50.1540 C   0  0  0  0  0  0  0  0  0  0  0  0
    7.3320   45.7680   51.0390 C   0  0  0  0  0  0  0  0  0  0  0  0
    8.1690   46.8980   51.5990 C   0  0  2  0  0  0  0  0  0  0  0  0
    9.6070   46.4420   51.9480 C   0  0  0  0  0  0  0  0  0  0  0  0
    9.9290   47.0210   53.3330 C   0  0  0  0  0  0  0  0  0  0  0  0
    8.6160   47.4950   53.8130 C   0  0  0  0  0  0  0  0  0  0  0  0
    8.4130   47.9590   54.9650 O   0  0  0  0  0  0  0  0  0  0  0  0
    7.6030   47.4050   52.8360 N   0  0  0  0  0  0  0  0  0  0  0  0
    5.9870   45.6060   51.4210 C   0  0  0  0  0  0  0  0  0  0  0  0
    0.9140   42.7230   51.9870 N   0  0  0  0  0  0  0  0  0  0  0  0
   -0.3570   42.7630   52.4690 C   0  0  0  0  0  0  0  0  0  0  0  0
   -2.7600   45.4980   55.2910 C   0  0  0  0  0  0  0  0  0  0  0  0
   -3.6261   47.9192   57.5270 H   0  0  0  0  0  0  0  0  0  0  0  0
   -2.7545   48.1364   55.9714 H   0  0  0  0  0  0  0  0  0  0  0  0
   -4.5015   47.7182   55.9714 H   0  0  0  0  0  0  0  0  0  0  0  0
   -3.5450   45.8447   58.6074 H   0  0  0  0  0  0  0  0  0  0  0  0
   -2.8711   43.4424   58.6006 H   0  0  0  0  0  0  0  0  0  0  0  0
   -2.1469   42.3513   56.4787 H   0  0  0  0  0  0  0  0  0  0  0  0
    0.1878   44.7494   55.1843 H   0  0  0  0  0  0  0  0  0  0  0  0
    2.5080   44.6532   54.2617 H   0  0  0  0  0  0  0  0  0  0  0  0
    3.1560   45.0720   50.8540 H   0  0  0  0  0  0  0  0  0  0  0  0
    5.2115   42.8263   49.5835 H   0  0  0  0  0  0  0  0  0  0  0  0
    7.6034   43.0814   48.9316 H   0  0  0  0  0  0  0  0  0  0  0  0
    8.9663   44.9455   49.8682 H   0  0  0  0  0  0  0  0  0  0  0  0
    8.1847   47.6670   50.8126 H   0  0  0  0  0  0  0  0  0  0  0  0
    9.6606   45.3436   51.9744 H   0  0  0  0  0  0  0  0  0  0  0  0
   10.3275   46.7934   51.1948 H   0  0  0  0  0  0  0  0  0  0  0  0
   10.3367   46.2466   53.9994 H   0  0  0  0  0  0  0  0  0  0  0  0
   10.6899   47.8148   53.3028 H   0  0  0  0  0  0  0  0  0  0  0  0
    6.6370   47.7860   52.9440 H   0  0  0  0  0  0  0  0  0  0  0  0
    5.5295   46.3208   52.1208 H   0  0  0  0  0  0  0  0  0  0  0  0
   -1.1625   42.2388   51.9338 H   0  0  0  0  0  0  0  0  0  0  0  0
   -2.6962   46.0878   54.3647 H   0  0  0  0  0  0  0  0  0  0  0  0
  1  2  1  0
  2  3  2  0
  3  4  1  0
  4  5  2  0
  5  6  1  0
  6  7  1  0
  7  8  1  0
  8  9  2  0
  9 10  1  0
 10 11  2  0
 11 12  1  0
 12 13  2  0
 12 14  1  0
 14 15  1  0
 15 16  2  0
 16 17  1  0
 17 18  2  0
 18 19  1  0
 19 20  1  0
 20 21  1  0
 21 22  1  0
 22 23  1  0
 23 24  2  0
 23 25  1  0
 19 26  2  0
 11 27  1  0
 27 28  2  0
  6 29  2  0
 29  2  1  0
 28  8  1  0
 26 15  1  0
 25 20  1  0
  1 30  1  0
  1 31  1  0
  1 32  1  0
  3 33  1  0
  4 34  1  0
  5 35  1  0
  9 36  1  0
 10 37  1  0
 14 38  1  0
 16 39  1  0
 17 40  1  0
 18 41  1  0
 20 42  1  6
 21 43  1  0
 21 44  1  0
 22 45  1  0
 22 46  1  0
 25 47  1  0
 26 48  1  0
 28 49  1  0
 29 50  1  0
M  END
>  <meeko>  (2) 
{"is_sidechain": [false], "free_energy": -9.381, "intermolecular_energy": -12.323, "internal_energy": -0.73}

$$$$
ligand_10_conformer_1_docked
     RDKit          3D

 50 53  0  0  0  0  0  0  0  0999 V2000
   -1.6030   50.1180   59.7850 C   0  0  0  0  0  0  0  0  0  0  0  0
   -2.0680   49.1220   58.7660 C   0  0  0  0  0  0  0  0  0  0  0  0
   -3.2380   49.3580   58.0260 C   0  0  0  0  0  0  0  0  0  0  0  0
   -3.6950   48.4040   57.1150 C   0  0  0  0  0  0  0  0  0  0  0  0
   -2.9870   47.2110   56.9350 C   0  0  0  0  0  0  0  0  0  0  0  0
   -1.8170   46.9610   57.6610 C   0  0  0  0  0  0  0  0  0  0  0  0
   -1.1550   45.7370   57.4680 O   0  0  0  0  0  0  0  0  0  0  0  0
   -0.2170   45.4640   56.4610 C   0  0  0  0  0  0  0  0  0  0  0  0
   -0.5760   44.8840   55.2360 C   0  0  0  0  0  0  0  0  0  0  0  0
    0.4000   44.6260   54.2700 C   0  0  0  0  0  0  0  0  0  0  0  0
    1.7410   44.9440   54.5390 C   0  0  0  0  0  0  0  0  0  0  0  0
    2.8030   44.6920   53.5420 C   0  0  0  0  0  0  0  0  0  0  0  0
    3.0590   43.5090   53.1860 O   0  0  0  0  0  0  0  0  0  0  0  0
    3.5140   45.7930   52.9490 N   0  0  0  0  0  0  0  0  0  0  0  0
    4.7470   45.6620   52.2190 C   0  0  0  0  0  0  0  0  0  0  0  0
    4.8010   44.7990   51.1170 C   0  0  0  0  0  0  0  0  0  0  0  0
    5.9750   44.6760   50.3690 C   0  0  0  0  0  0  0  0  0  0  0  0
    7.1030   45.4280   50.7060 C   0  0  0  0  0  0  0  0  0  0  0  0
    7.0610   46.3260   51.7840 C   0  0  0  0  0  0  0  0  0  0  0  0
    8.2910   47.1310   52.1430 C   0  0  2  0  0  0  0  0  0  0  0  0
    9.4950   46.2280   52.5030 C   0  0  0  0  0  0  0  0  0  0  0  0
   10.1220   46.8160   53.7760 C   0  0  0  0  0  0  0  0  0  0  0  0
    9.1110   47.7930   54.2280 C   0  0  0  0  0  0  0  0  0  0  0  0
    9.1880   48.4380   55.3050 O   0  0  0  0  0  0  0  0  0  0  0  0
    8.0520   47.9600   53.3110 N   0  0  0  0  0  0  0  0  0  0  0  0
    5.8800   46.4340   52.5420 C   0  0  0  0  0  0  0  0  0  0  0  0
    2.0640   45.4820   55.7460 N   0  0  0  0  0  0  0  0  0  0  0  0
    1.1320   45.7370   56.7020 C   0  0  0  0  0  0  0  0  0  0  0  0
   -1.3750   47.9110   58.5980 C   0  0  0  0  0  0  0  0  0  0  0  0
   -1.7875   49.7228   60.7948 H   0  0  0  0  0  0  0  0  0  0  0  0
   -0.5263   50.3011   59.6540 H   0  0  0  0  0  0  0  0  0  0  0  0
   -2.1539   51.0610   59.6540 H   0  0  0  0  0  0  0  0  0  0  0  0
   -3.7953   50.2962   58.1644 H   0  0  0  0  0  0  0  0  0  0  0  0
   -4.6128   48.5906   56.5381 H   0  0  0  0  0  0  0  0  0  0  0  0
   -3.3531   46.4629   56.2165 H   0  0  0  0  0  0  0  0  0  0  0  0
   -1.6277   44.6317   55.0351 H   0  0  0  0  0  0  0  0  0  0  0  0
    0.1199   44.1770   53.3057 H   0  0  0  0  0  0  0  0  0  0  0  0
    3.0720   46.7410   52.9860 H   0  0  0  0  0  0  0  0  0  0  0  0
    3.9124   44.2136   50.8382 H   0  0  0  0  0  0  0  0  0  0  0  0
    6.0109   43.9858   49.5133 H   0  0  0  0  0  0  0  0  0  0  0  0
    8.0292   45.3158   50.1234 H   0  0  0  0  0  0  0  0  0  0  0  0
    8.5130   47.7374   51.2525 H   0  0  0  0  0  0  0  0  0  0  0  0
    9.1548   45.1985   52.6885 H   0  0  0  0  0  0  0  0  0  0  0  0
   10.2251   46.1953   51.6809 H   0  0  0  0  0  0  0  0  0  0  0  0
   10.2827   46.0351   54.5338 H   0  0  0  0  0  0  0  0  0  0  0  0
   11.1105   47.2662   53.6024 H   0  0  0  0  0  0  0  0  0  0  0  0
    7.3000   48.6770   53.3960 H   0  0  0  0  0  0  0  0  0  0  0  0
    5.8414   47.1278   53.3947 H   0  0  0  0  0  0  0  0  0  0  0  0
    1.4410   46.1600   57.6693 H   0  0  0  0  0  0  0  0  0  0  0  0
   -0.4804   47.7051   59.2040 H   0  0  0  0  0  0  0  0  0  0  0  0
  1  2  1  0
  2  3  2  0
  3  4  1  0
  4  5  2  0
  5  6  1  0
  6  7  1  0
  7  8  1  0
  8  9  2  0
  9 10  1  0
 10 11  2  0
 11 12  1  0
 12 13  2  0
 12 14  1  0
 14 15  1  0
 15 16  2  0
 16 17  1  0
 17 18  2  0
 18 19  1  0
 19 20  1  0
 20 21  1  0
 21 22  1  0
 22 23  1  0
 23 24  2  0
 23 25  1  0
 19 26  2  0
 11 27  1  0
 27 28  2  0
  6 29  2  0
 29  2  1  0
 28  8  1  0
 26 15  1  0
 25 20  1  0
  1 30  1  0
  1 31  1  0
  1 32  1  0
  3 33  1  0
  4 34  1  0
  5 35  1  0
  9 36  1  0
 10 37  1  0
 14 38  1  0
 16 39  1  0
 17 40  1  0
 18 41  1  0
 20 42  1  6
 21 43  1  0
 21 44  1  0
 22 45  1  0
 22 46  1  0
 25 47  1  0
 26 48  1  0
 28 49  1  0
 29 50  1  0
M  END
>  <meeko>  (3) 
{"is_sidechain": [false], "free_energy": -9.008, "intermolecular_energy": -12.021, "internal_energy": -0.55}

$$$$
ligand_10_conformer_1_docked
     RDKit          3D

 50 53  0  0  0  0  0  0  0  0999 V2000
   10.6000   47.3550   55.4260 C   0  0  0  0  0  0  0  0  0  0  0  0
    9.7360   47.2120   54.2100 C   0  0  0  0  0  0  0  0  0  0  0  0
   10.2800   46.7340   53.0060 C   0  0  0  0  0  0  0  0  0  0  0  0
    9.4840   46.6520   51.8620 C   0  0  0  0  0  0  0  0  0  0  0  0
    8.1410   47.0420   51.9120 C   0  0  0  0  0  0  0  0  0  0  0  0
    7.5820   47.5180   53.1040 C   0  0  0  0  0  0  0  0  0  0  0  0
    6.2380   47.9260   53.1000 O   0  0  0  0  0  0  0  0  0  0  0  0
    5.1360   47.1130   53.4020 C   0  0  0  0  0  0  0  0  0  0  0  0
    5.2720   45.8490   53.9940 C   0  0  0  0  0  0  0  0  0  0  0  0
    4.1400   45.0770   54.2670 C   0  0  0  0  0  0  0  0  0  0  0  0
    2.8690   45.5730   53.9370 C   0  0  0  0  0  0  0  0  0  0  0  0
    1.6450   44.7900   54.2140 C   0  0  0  0  0  0  0  0  0  0  0  0
    1.6110   43.5610   53.9310 O   0  0  0  0  0  0  0  0  0  0  0  0
    0.5130   45.4170   54.8420 N   0  0  0  0  0  0  0  0  0  0  0  0
   -0.8100   44.8510   54.8770 C   0  0  0  0  0  0  0  0  0  0  0  0
   -1.3650   44.4850   56.1120 C   0  0  0  0  0  0  0  0  0  0  0  0
   -2.6590   43.9630   56.1800 C   0  0  0  0  0  0  0  0  0  0  0  0
   -3.4190   43.8180   55.0180 C   0  0  0  0  0  0  0  0  0  0  0  0
   -2.8970   44.2100   53.7750 C   0  0  0  0  0  0  0  0  0  0  0  0
   -3.7280   44.0430   52.5220 C   0  0  2  0  0  0  0  0  0  0  0  0
   -3.5330   42.6500   51.8740 C   0  0  0  0  0  0  0  0  0  0  0  0
   -3.3530   42.8860   50.3670 C   0  0  0  0  0  0  0  0  0  0  0  0
   -3.1580   44.3460   50.2770 C   0  0  0  0  0  0  0  0  0  0  0  0
   -2.8770   44.9540   49.2110 O   0  0  0  0  0  0  0  0  0  0  0  0
   -3.3470   45.0090   51.5070 N   0  0  0  0  0  0  0  0  0  0  0  0
   -1.5880   44.7220   53.7110 C   0  0  0  0  0  0  0  0  0  0  0  0
    2.7670   46.7910   53.3410 N   0  0  0  0  0  0  0  0  0  0  0  0
    3.8550   47.5570   53.0620 C   0  0  0  0  0  0  0  0  0  0  0  0
    8.3940   47.6260   54.2470 C   0  0  0  0  0  0  0  0  0  0  0  0
    9.9811   47.2526   56.3296 H   0  0  0  0  0  0  0  0  0  0  0  0
   11.3732   46.5726   55.4205 H   0  0  0  0  0  0  0  0  0  0  0  0
   11.0799   48.3448   55.4205 H   0  0  0  0  0  0  0  0  0  0  0  0
   11.3346   46.4239   52.9647 H   0  0  0  0  0  0  0  0  0  0  0  0
    9.9132   46.2803   50.9199 H   0  0  0  0  0  0  0  0  0  0  0  0
    7.5193   46.9740   51.0071 H   0  0  0  0  0  0  0  0  0  0  0  0
    6.2719   45.4646   54.2439 H   0  0  0  0  0  0  0  0  0  0  0  0
    4.2440   44.0879   54.7370 H   0  0  0  0  0  0  0  0  0  0  0  0
    0.6720   46.3060   55.3700 H   0  0  0  0  0  0  0  0  0  0  0  0
   -0.7773   44.6099   57.0334 H   0  0  0  0  0  0  0  0  0  0  0  0
   -3.0802   43.6655   57.1516 H   0  0  0  0  0  0  0  0  0  0  0  0
   -4.4324   43.3943   55.0766 H   0  0  0  0  0  0  0  0  0  0  0  0
   -4.7709   44.1807   52.8436 H   0  0  0  0  0  0  0  0  0  0  0  0
   -2.6406   42.1597   52.2903 H   0  0  0  0  0  0  0  0  0  0  0  0
   -4.3957   41.9970   52.0721 H   0  0  0  0  0  0  0  0  0  0  0  0
   -2.4740   42.3461   49.9851 H   0  0  0  0  0  0  0  0  0  0  0  0
   -4.2030   42.5259   49.7687 H   0  0  0  0  0  0  0  0  0  0  0  0
   -3.3590   46.0450   51.6290 H   0  0  0  0  0  0  0  0  0  0  0  0
   -1.1684   45.0245   52.7402 H   0  0  0  0  0  0  0  0  0  0  0  0
    3.7266   48.5306   52.5664 H   0  0  0  0  0  0  0  0  0  0  0  0
    7.9753   48.0377   55.1771 H   0  0  0  0  0  0  0  0  0  0  0  0
  1  2  1  0
  2  3  2  0
  3  4  1  0
  4  5  2  0
  5  6  1  0
  6  7  1  0
  7  8  1  0
  8  9  2  0
  9 10  1  0
 10 11  2  0
 11 12  1  0
 12 13  2  0
 12 14  1  0
 14 15  1  0
 15 16  2  0
 16 17  1  0
 17 18  2  0
 18 19  1  0
 19 20  1  0
 20 21  1  0
 21 22  1  0
 22 23  1  0
 23 24  2  0
 23 25  1  0
 19 26  2  0
 11 27  1  0
 27 28  2  0
  6 29  2  0
 29  2  1  0
 28  8  1  0
 26 15  1  0
 25 20  1  0
  1 30  1  0
  1 31  1  0
  1 32  1  0
  3 33  1  0
  4 34  1  0
  5 35  1  0
  9 36  1  0
 10 37  1  0
 14 38  1  0
 16 39  1  0
 17 40  1  0
 18 41  1  0
 20 42  1  1
 21 43  1  0
 21 44  1  0
 22 45  1  0
 22 46  1  0
 25 47  1  0
 26 48  1  0
 28 49  1  0
 29 50  1  0
M  END
>  <meeko>  (4) 
{"is_sidechain": [false], "free_energy": -8.895, "intermolecular_energy": -11.516, "internal_energy": -0.91}

$$$$
ligand_10_conformer_1_docked
     RDKit          3D

 50 53  0  0  0  0  0  0  0  0999 V2000
    8.9730   48.0500   54.5780 C   0  0  0  0  0  0  0  0  0  0  0  0
    9.0110   47.1800   53.3580 C   0  0  0  0  0  0  0  0  0  0  0  0
   10.2410   46.7730   52.8170 C   0  0  0  0  0  0  0  0  0  0  0  0
   10.2720   46.0040   51.6500 C   0  0  0  0  0  0  0  0  0  0  0  0
    9.0790   45.6370   51.0200 C   0  0  0  0  0  0  0  0  0  0  0  0
    7.8440   46.0320   51.5490 C   0  0  0  0  0  0  0  0  0  0  0  0
    6.6730   45.6640   50.8660 O   0  0  0  0  0  0  0  0  0  0  0  0
    5.4000   45.5280   51.4390 C   0  0  0  0  0  0  0  0  0  0  0  0
    5.1640   44.7320   52.5690 C   0  0  0  0  0  0  0  0  0  0  0  0
    3.8740   44.6250   53.0950 C   0  0  0  0  0  0  0  0  0  0  0  0
    2.8180   45.3150   52.4800 C   0  0  0  0  0  0  0  0  0  0  0  0
    1.4390   45.2330   53.0090 C   0  0  0  0  0  0  0  0  0  0  0  0
    0.4860   45.7330   52.3500 O   0  0  0  0  0  0  0  0  0  0  0  0
    1.1790   44.5490   54.2480 N   0  0  0  0  0  0  0  0  0  0  0  0
   -0.0420   44.6700   54.9980 C   0  0  0  0  0  0  0  0  0  0  0  0
   -1.0360   43.6920   54.8510 C   0  0  0  0  0  0  0  0  0  0  0  0
   -2.2190   43.7660   55.5910 C   0  0  0  0  0  0  0  0  0  0  0  0
   -2.4140   44.8080   56.4990 C   0  0  0  0  0  0  0  0  0  0  0  0
   -1.4180   45.7790   56.6900 C   0  0  0  0  0  0  0  0  0  0  0  0
   -1.6430   46.9070   57.6730 C   0  0  2  0  0  0  0  0  0  0  0  0
   -2.9510   46.7250   58.4810 C   0  0  0  0  0  0  0  0  0  0  0  0
   -3.6600   48.0870   58.4850 C   0  0  0  0  0  0  0  0  0  0  0  0
   -2.9120   48.8580   57.4730 C   0  0  0  0  0  0  0  0  0  0  0  0
   -3.2310   50.0150   57.0910 O   0  0  0  0  0  0  0  0  0  0  0  0
   -1.7730   48.1810   56.9890 N   0  0  0  0  0  0  0  0  0  0  0  0
   -0.2350   45.7080   55.9310 C   0  0  0  0  0  0  0  0  0  0  0  0
    3.0700   46.0600   51.3700 N   0  0  0  0  0  0  0  0  0  0  0  0
    4.3160   46.1740   50.8380 C   0  0  0  0  0  0  0  0  0  0  0  0
    7.8170   46.8290   52.7070 C   0  0  0  0  0  0  0  0  0  0  0  0
    9.0005   47.4195   55.4790 H   0  0  0  0  0  0  0  0  0  0  0  0
    9.8426   48.7237   54.5752 H   0  0  0  0  0  0  0  0  0  0  0  0
    8.0480   48.6453   54.5752 H   0  0  0  0  0  0  0  0  0  0  0  0
   11.1808   47.0594   53.3117 H   0  0  0  0  0  0  0  0  0  0  0  0
   11.2366   45.6871   51.2267 H   0  0  0  0  0  0  0  0  0  0  0  0
    9.1108   45.0330   50.1012 H   0  0  0  0  0  0  0  0  0  0  0  0
    5.9963   44.1906   53.0424 H   0  0  0  0  0  0  0  0  0  0  0  0
    3.6876   44.0048   53.9842 H   0  0  0  0  0  0  0  0  0  0  0  0
    1.8910   43.8640   54.5900 H   0  0  0  0  0  0  0  0  0  0  0  0
   -0.8833   42.8601   54.1477 H   0  0  0  0  0  0  0  0  0  0  0  0
   -2.9984   43.0013   55.4576 H   0  0  0  0  0  0  0  0  0  0  0  0
   -3.3533   44.8688   57.0682 H   0  0  0  0  0  0  0  0  0  0  0  0
   -0.7683   46.8909   58.3398 H   0  0  0  0  0  0  0  0  0  0  0  0
   -3.5891   45.9668   58.0036 H   0  0  0  0  0  0  0  0  0  0  0  0
   -2.7392   46.3861   59.5058 H   0  0  0  0  0  0  0  0  0  0  0  0
   -4.7172   47.9825   58.1996 H   0  0  0  0  0  0  0  0  0  0  0  0
   -3.6678   48.5670   59.4747 H   0  0  0  0  0  0  0  0  0  0  0  0
   -1.0590   48.5970   56.3520 H   0  0  0  0  0  0  0  0  0  0  0  0
    0.5464   46.4701   56.0675 H   0  0  0  0  0  0  0  0  0  0  0  0
    4.4716   46.7769   49.9312 H   0  0  0  0  0  0  0  0  0  0  0  0
    6.8539   47.1801   53.1059 H   0  0  0  0  0  0  0  0  0  0  0  0
  1  2  1  0
  2  3  2  0
  3  4  1  0
  4  5  2  0
  5  6  1  0
  6  7  1  0
  7  8  1  0
  8  9  2  0
  9 10  1  0
 10 11  2  0
 11 12  1  0
 12 13  2  0
 12 14  1  0
 14 15  1  0
 15 16  2  0
 16 17  1  0
 17 18  2  0
 18 19  1  0
 19 20  1  0
 20 21  1  0
 21 22  1  0
 22 23  1  0
 23 24  2  0
 23 25  1  0
 19 26  2  0
 11 27  1  0
 27 28  2  0
  6 29  2  0
 29  2  1  0
 28  8  1  0
 26 15  1  0
 25 20  1  0
  1 30  1  0
  1 31  1  0
  1 32  1  0
  3 33  1  0
  4 34  1  0
  5 35  1  0
  9 36  1  0
 10 37  1  0
 14 38  1  0
 16 39  1  0
 17 40  1  0
 18 41  1  0
 20 42  1  1
 21 43  1  0
 21 44  1  0
 22 45  1  0
 22 46  1  0
 25 47  1  0
 26 48  1  0
 28 49  1  0
 29 50  1  0
M  END
>  <meeko>  (5) 
{"is_sidechain": [false], "free_energy": -8.876, "intermolecular_energy": -11.588, "internal_energy": -0.814}

$$$$
