ligand_54_conformer_2_docked
     RDKit          3D

 43 45  0  0  0  0  0  0  0  0999 V2000
    5.3540   44.0910   51.3580 C   0  0  0  0  0  0  0  0  0  0  0  0
    5.0880   45.8830   51.1870 S   0  0  0  0  0  0  0  0  0  0  0  0
    6.5020   46.3150   52.2150 C   0  0  0  0  0  0  0  0  0  0  0  0
    7.7830   46.2200   51.6530 C   0  0  0  0  0  0  0  0  0  0  0  0
    8.9240   46.4670   52.4290 C   0  0  0  0  0  0  0  0  0  0  0  0
   10.2890   46.3960   51.8110 C   0  0  0  0  0  0  0  0  0  0  0  0
    8.7770   46.8370   53.7730 C   0  0  0  0  0  0  0  0  0  0  0  0
    7.5040   46.9380   54.3390 C   0  0  0  0  0  0  0  0  0  0  0  0
    6.3570   46.6950   53.5680 C   0  0  0  0  0  0  0  0  0  0  0  0
    5.0340   46.8270   54.2060 C   0  0  0  0  0  0  0  0  0  0  0  0
    4.6040   47.9780   54.4890 O   0  0  0  0  0  0  0  0  0  0  0  0
    4.2380   45.6650   54.4850 N   0  0  0  0  0  0  0  0  0  0  0  0
    2.9520   45.7370   55.1110 C   0  0  0  0  0  0  0  0  0  0  0  0
    2.7690   45.8190   56.4360 N   0  0  0  0  0  0  0  0  0  0  0  0
    1.4650   45.8710   56.6540 N   0  0  0  0  0  0  0  0  0  0  0  0
    0.7960   45.8080   55.5090 N   0  0  0  0  0  0  0  0  0  0  0  0
    1.7040   45.7230   54.5160 C   0  0  0  0  0  0  0  0  0  0  0  0
    1.3790   45.4890   53.0920 C   0  0  0  0  0  0  0  0  0  0  0  0
    1.7170   46.3590   52.2440 O   0  0  0  0  0  0  0  0  0  0  0  0
    0.6970   44.3020   52.6450 N   0  0  0  0  0  0  0  0  0  0  0  0
    0.2930   44.1150   51.2610 C   0  0  0  0  0  0  0  0  0  0  0  0
   -0.6570   42.9260   51.2610 C   0  0  0  0  0  0  0  0  0  0  0  0
   -0.4420   42.2160   52.5940 C   0  0  0  0  0  0  0  0  0  0  0  0
    0.2240   43.2340   53.5120 C   0  0  0  0  0  0  0  0  0  0  0  0
    5.3933   43.8263   52.4250 H   0  0  0  0  0  0  0  0  0  0  0  0
    4.5263   43.5498   50.8762 H   0  0  0  0  0  0  0  0  0  0  0  0
    6.3032   43.8136   50.8762 H   0  0  0  0  0  0  0  0  0  0  0  0
    7.8938   45.9490   50.5927 H   0  0  0  0  0  0  0  0  0  0  0  0
   11.0493   46.3565   52.6049 H   0  0  0  0  0  0  0  0  0  0  0  0
   10.3627   45.4928   51.1874 H   0  0  0  0  0  0  0  0  0  0  0  0
   10.4560   47.2867   51.1874 H   0  0  0  0  0  0  0  0  0  0  0  0
    9.6670   47.0485   54.3839 H   0  0  0  0  0  0  0  0  0  0  0  0
    7.3996   47.2107   55.3995 H   0  0  0  0  0  0  0  0  0  0  0  0
    4.6560   44.7180   54.3490 H   0  0  0  0  0  0  0  0  0  0  0  0
    3.5030   45.8510   57.1780 H   0  0  0  0  0  0  0  0  0  0  0  0
   -0.2190   45.0139   50.8871 H   0  0  0  0  0  0  0  0  0  0  0  0
    1.1601   43.9393   50.6073 H   0  0  0  0  0  0  0  0  0  0  0  0
   -1.6986   43.2690   51.1743 H   0  0  0  0  0  0  0  0  0  0  0  0
   -0.4627   42.2551   50.4112 H   0  0  0  0  0  0  0  0  0  0  0  0
   -1.4060   41.8950   53.0155 H   0  0  0  0  0  0  0  0  0  0  0  0
    0.1788   41.3158   52.4745 H   0  0  0  0  0  0  0  0  0  0  0  0
   -0.5018   43.6252   54.2402 H   0  0  0  0  0  0  0  0  0  0  0  0
    1.0480   42.7835   54.0848 H   0  0  0  0  0  0  0  0  0  0  0  0
  1  2  1  0
  2  3  1  0
  3  4  2  0
  4  5  1  0
  5  6  1  0
  5  7  2  0
  7  8  1  0
  8  9  2  0
  9 10  1  0
 10 11  2  0
 10 12  1  0
 12 13  1  0
 13 14  1  0
 14 15  1  0
 15 16  2  0
 16 17  1  0
 17 18  1  0
 18 19  2  0
 18 20  1  0
 20 21  1  0
 21 22  1  0
 22 23  1  0
 23 24  1  0
  9  3  1  0
 17 13  2  0
 24 20  1  0
  1 25  1  0
  1 26  1  0
  1 27  1  0
  4 28  1  0
  6 29  1  0
  6 30  1  0
  6 31  1  0
  7 32  1  0
  8 33  1  0
 12 34  1  0
 14 35  1  0
 21 36  1  0
 21 37  1  0
 22 38  1  0
 22 39  1  0
 23 40  1  0
 23 41  1  0
 24 42  1  0
 24 43  1  0
M  END
>  <meeko>  (1) 
{"is_sidechain": [false], "free_energy": -8.592, "intermolecular_energy": -10.602, "internal_energy": -0.727}

$$$$
ligand_54_conformer_2_docked
     RDKit          3D

 43 45  0  0  0  0  0  0  0  0999 V2000
    4.9700   46.5420   54.9770 C   0  0  0  0  0  0  0  0  0  0  0  0
    4.5430   47.5660   53.5340 S   0  0  0  0  0  0  0  0  0  0  0  0
    5.6950   46.7190   52.4390 C   0  0  0  0  0  0  0  0  0  0  0  0
    7.0660   46.9560   52.6080 C   0  0  0  0  0  0  0  0  0  0  0  0
    8.0030   46.3860   51.7350 C   0  0  0  0  0  0  0  0  0  0  0  0
    9.4700   46.6180   51.9440 C   0  0  0  0  0  0  0  0  0  0  0  0
    7.5620   45.5520   50.7000 C   0  0  0  0  0  0  0  0  0  0  0  0
    6.1970   45.3060   50.5270 C   0  0  0  0  0  0  0  0  0  0  0  0
    5.2540   45.8710   51.3980 C   0  0  0  0  0  0  0  0  0  0  0  0
    3.8260   45.5730   51.1840 C   0  0  0  0  0  0  0  0  0  0  0  0
    3.1390   46.3490   50.4670 O   0  0  0  0  0  0  0  0  0  0  0  0
    3.2280   44.4040   51.7680 N   0  0  0  0  0  0  0  0  0  0  0  0
    1.8450   44.0740   51.6000 C   0  0  0  0  0  0  0  0  0  0  0  0
    1.3370   43.5230   50.4890 N   0  0  0  0  0  0  0  0  0  0  0  0
    0.0390   43.3550   50.6870 N   0  0  0  0  0  0  0  0  0  0  0  0
   -0.3120   43.7960   51.8890 N   0  0  0  0  0  0  0  0  0  0  0  0
    0.8030   44.2570   52.4910 C   0  0  0  0  0  0  0  0  0  0  0  0
    0.8310   44.9680   53.7870 C   0  0  0  0  0  0  0  0  0  0  0  0
    1.7460   45.8110   53.9960 O   0  0  0  0  0  0  0  0  0  0  0  0
   -0.1540   44.7340   54.8130 N   0  0  0  0  0  0  0  0  0  0  0  0
   -0.0740   45.3620   56.1220 C   0  0  0  0  0  0  0  0  0  0  0  0
   -1.0800   44.6290   56.9980 C   0  0  0  0  0  0  0  0  0  0  0  0
   -1.9980   43.8740   56.0420 C   0  0  0  0  0  0  0  0  0  0  0  0
   -1.2440   43.7750   54.7220 C   0  0  0  0  0  0  0  0  0  0  0  0
    4.7396   47.0946   55.8998 H   0  0  0  0  0  0  0  0  0  0  0  0
    4.3853   45.6106   54.9516 H   0  0  0  0  0  0  0  0  0  0  0  0
    6.0432   46.3020   54.9516 H   0  0  0  0  0  0  0  0  0  0  0  0
    7.4102   47.5957   53.4340 H   0  0  0  0  0  0  0  0  0  0  0  0
    9.6859   46.6521   53.0221 H   0  0  0  0  0  0  0  0  0  0  0  0
   10.0403   45.7989   51.4816 H   0  0  0  0  0  0  0  0  0  0  0  0
    9.7597   47.5731   51.4816 H   0  0  0  0  0  0  0  0  0  0  0  0
    8.2926   45.0888   50.0206 H   0  0  0  0  0  0  0  0  0  0  0  0
    5.8594   44.6636   49.7004 H   0  0  0  0  0  0  0  0  0  0  0  0
    3.7800   43.8370   52.4480 H   0  0  0  0  0  0  0  0  0  0  0  0
    1.8510   43.2550   49.6220 H   0  0  0  0  0  0  0  0  0  0  0  0
    0.9403   45.2582   56.5349 H   0  0  0  0  0  0  0  0  0  0  0  0
   -0.2941   46.4384   56.0679 H   0  0  0  0  0  0  0  0  0  0  0  0
   -0.5630   43.9254   57.6671 H   0  0  0  0  0  0  0  0  0  0  0  0
   -1.6455   45.3270   57.6329 H   0  0  0  0  0  0  0  0  0  0  0  0
   -2.2145   42.8694   56.4342 H   0  0  0  0  0  0  0  0  0  0  0  0
   -2.9608   44.3911   55.9170 H   0  0  0  0  0  0  0  0  0  0  0  0
   -0.8484   42.7581   54.5826 H   0  0  0  0  0  0  0  0  0  0  0  0
   -1.8998   43.9888   53.8651 H   0  0  0  0  0  0  0  0  0  0  0  0
  1  2  1  0
  2  3  1  0
  3  4  2  0
  4  5  1  0
  5  6  1  0
  5  7  2  0
  7  8  1  0
  8  9  2  0
  9 10  1  0
 10 11  2  0
 10 12  1  0
 12 13  1  0
 13 14  1  0
 14 15  1  0
 15 16  2  0
 16 17  1  0
 17 18  1  0
 18 19  2  0
 18 20  1  0
 20 21  1  0
 21 22  1  0
 22 23  1  0
 23 24  1  0
  9  3  1  0
 17 13  2  0
 24 20  1  0
  1 25  1  0
  1 26  1  0
  1 27  1  0
  4 28  1  0
  6 29  1  0
  6 30  1  0
  6 31  1  0
  7 32  1  0
  8 33  1  0
 12 34  1  0
 14 35  1  0
 21 36  1  0
 21 37  1  0
 22 38  1  0
 22 39  1  0
 23 40  1  0
 23 41  1  0
 24 42  1  0
 24 43  1  0
M  END
>  <meeko>  (2) 
{"is_sidechain": [false], "free_energy": -8.205, "intermolecular_energy": -10.274, "internal_energy": -0.576}

$$$$
ligand_54_conformer_2_docked
     RDKit          3D

 43 45  0  0  0  0  0  0  0  0999 V2000
    4.7750   41.2310   50.2590 C   0  0  0  0  0  0  0  0  0  0  0  0
    3.7710   42.5010   51.0900 S   0  0  0  0  0  0  0  0  0  0  0  0
    5.0490   43.7640   50.9710 C   0  0  0  0  0  0  0  0  0  0  0  0
    6.1500   43.5160   50.1390 C   0  0  0  0  0  0  0  0  0  0  0  0
    7.2130   44.4280   50.0680 C   0  0  0  0  0  0  0  0  0  0  0  0
    8.3700   44.1700   49.1510 C   0  0  0  0  0  0  0  0  0  0  0  0
    7.1560   45.6100   50.8190 C   0  0  0  0  0  0  0  0  0  0  0  0
    6.0610   45.8680   51.6460 C   0  0  0  0  0  0  0  0  0  0  0  0
    4.9930   44.9610   51.7200 C   0  0  0  0  0  0  0  0  0  0  0  0
    3.8520   45.2820   52.5970 C   0  0  0  0  0  0  0  0  0  0  0  0
    3.0240   46.1580   52.2280 O   0  0  0  0  0  0  0  0  0  0  0  0
    3.6730   44.5940   53.8450 N   0  0  0  0  0  0  0  0  0  0  0  0
    2.5890   44.8740   54.7380 C   0  0  0  0  0  0  0  0  0  0  0  0
    2.7030   45.6290   55.8390 N   0  0  0  0  0  0  0  0  0  0  0  0
    1.5110   45.6750   56.4140 N   0  0  0  0  0  0  0  0  0  0  0  0
    0.6320   44.9560   55.7260 N   0  0  0  0  0  0  0  0  0  0  0  0
    1.2790   44.4380   54.6630 C   0  0  0  0  0  0  0  0  0  0  0  0
    0.7010   43.4580   53.7180 C   0  0  0  0  0  0  0  0  0  0  0  0
    1.0880   42.2590   53.7770 O   0  0  0  0  0  0  0  0  0  0  0  0
   -0.2900   43.8270   52.7390 N   0  0  0  0  0  0  0  0  0  0  0  0
   -0.7890   42.8870   51.7490 C   0  0  0  0  0  0  0  0  0  0  0  0
   -1.5490   43.7210   50.7270 C   0  0  0  0  0  0  0  0  0  0  0  0
   -1.8060   45.0690   51.3940 C   0  0  0  0  0  0  0  0  0  0  0  0
   -0.8050   45.1720   52.5390 C   0  0  0  0  0  0  0  0  0  0  0  0
    5.2710   40.6036   51.0142 H   0  0  0  0  0  0  0  0  0  0  0  0
    4.1259   40.6039   49.6302 H   0  0  0  0  0  0  0  0  0  0  0  0
    5.5350   41.7179   49.6302 H   0  0  0  0  0  0  0  0  0  0  0  0
    6.1803   42.5967   49.5358 H   0  0  0  0  0  0  0  0  0  0  0  0
    9.2724   43.9688   49.7470 H   0  0  0  0  0  0  0  0  0  0  0  0
    8.1479   43.2993   48.5165 H   0  0  0  0  0  0  0  0  0  0  0  0
    8.5389   45.0525   48.5165 H   0  0  0  0  0  0  0  0  0  0  0  0
    7.9781   46.3381   50.7566 H   0  0  0  0  0  0  0  0  0  0  0  0
    6.0354   46.7904   52.2448 H   0  0  0  0  0  0  0  0  0  0  0  0
    4.4270   43.9570   54.1860 H   0  0  0  0  0  0  0  0  0  0  0  0
    3.5570   46.1130   56.1910 H   0  0  0  0  0  0  0  0  0  0  0  0
    0.0472   42.3596   51.2666 H   0  0  0  0  0  0  0  0  0  0  0  0
   -1.4345   42.1231   52.2070 H   0  0  0  0  0  0  0  0  0  0  0  0
   -0.9457   43.8535   49.8168 H   0  0  0  0  0  0  0  0  0  0  0  0
   -2.4884   43.2337   50.4268 H   0  0  0  0  0  0  0  0  0  0  0  0
   -1.6491   45.8867   50.6751 H   0  0  0  0  0  0  0  0  0  0  0  0
   -2.8414   45.1466   51.7573 H   0  0  0  0  0  0  0  0  0  0  0  0
    0.0118   45.8590   52.2727 H   0  0  0  0  0  0  0  0  0  0  0  0
   -1.2749   45.5650   53.4527 H   0  0  0  0  0  0  0  0  0  0  0  0
  1  2  1  0
  2  3  1  0
  3  4  2  0
  4  5  1  0
  5  6  1  0
  5  7  2  0
  7  8  1  0
  8  9  2  0
  9 10  1  0
 10 11  2  0
 10 12  1  0
 12 13  1  0
 13 14  1  0
 14 15  1  0
 15 16  2  0
 16 17  1  0
 17 18  1  0
 18 19  2  0
 18 20  1  0
 20 21  1  0
 21 22  1  0
 22 23  1  0
 23 24  1  0
  9  3  1  0
 17 13  2  0
 24 20  1  0
  1 25  1  0
  1 26  1  0
  1 27  1  0
  4 28  1  0
  6 29  1  0
  6 30  1  0
  6 31  1  0
  7 32  1  0
  8 33  1  0
 12 34  1  0
 14 35  1  0
 21 36  1  0
 21 37  1  0
 22 38  1  0
 22 39  1  0
 23 40  1  0
 23 41  1  0
 24 42  1  0
 24 43  1  0
M  END
>  <meeko>  (3) 
{"is_sidechain": [false], "free_energy": -8.141, "intermolecular_energy": -9.964, "internal_energy": -0.807}

$$$$
ligand_54_conformer_2_docked
     RDKit          3D

 43 45  0  0  0  0  0  0  0  0999 V2000
    3.9790   47.4060   53.4530 C   0  0  0  0  0  0  0  0  0  0  0  0
    4.6540   45.9250   54.2680 S   0  0  0  0  0  0  0  0  0  0  0  0
    6.3050   46.1520   53.5830 C   0  0  0  0  0  0  0  0  0  0  0  0
    7.2330   46.8940   54.3260 C   0  0  0  0  0  0  0  0  0  0  0  0
    8.5070   47.1680   53.8080 C   0  0  0  0  0  0  0  0  0  0  0  0
    9.5060   47.9340   54.6240 C   0  0  0  0  0  0  0  0  0  0  0  0
    8.8590   46.6720   52.5460 C   0  0  0  0  0  0  0  0  0  0  0  0
    7.9410   45.9280   51.8010 C   0  0  0  0  0  0  0  0  0  0  0  0
    6.6660   45.6470   52.3140 C   0  0  0  0  0  0  0  0  0  0  0  0
    5.7350   44.8460   51.4970 C   0  0  0  0  0  0  0  0  0  0  0  0
    5.4290   45.2510   50.3430 O   0  0  0  0  0  0  0  0  0  0  0  0
    5.1980   43.6120   51.9990 N   0  0  0  0  0  0  0  0  0  0  0  0
    4.2840   42.8020   51.2520 C   0  0  0  0  0  0  0  0  0  0  0  0
    4.6490   41.7290   50.5370 N   0  0  0  0  0  0  0  0  0  0  0  0
    3.5540   41.2280   49.9870 N   0  0  0  0  0  0  0  0  0  0  0  0
    2.4920   41.9560   50.3120 N   0  0  0  0  0  0  0  0  0  0  0  0
    2.9180   42.9560   51.1090 C   0  0  0  0  0  0  0  0  0  0  0  0
    2.0760   44.0790   51.5780 C   0  0  0  0  0  0  0  0  0  0  0  0
    2.2860   45.2300   51.1070 O   0  0  0  0  0  0  0  0  0  0  0  0
    1.0270   43.8980   52.5490 N   0  0  0  0  0  0  0  0  0  0  0  0
    0.2630   45.0160   53.0800 C   0  0  0  0  0  0  0  0  0  0  0  0
   -0.4970   44.4670   54.2790 C   0  0  0  0  0  0  0  0  0  0  0  0
   -0.4580   42.9480   54.1430 C   0  0  0  0  0  0  0  0  0  0  0  0
    0.6940   42.6390   53.1950 C   0  0  0  0  0  0  0  0  0  0  0  0
    3.6504   48.1269   54.2162 H   0  0  0  0  0  0  0  0  0  0  0  0
    4.7566   47.8656   52.8252 H   0  0  0  0  0  0  0  0  0  0  0  0
    3.1221   47.1206   52.8252 H   0  0  0  0  0  0  0  0  0  0  0  0
    6.9596   47.2649   55.3248 H   0  0  0  0  0  0  0  0  0  0  0  0
    9.3025   47.7780   55.6937 H   0  0  0  0  0  0  0  0  0  0  0  0
   10.5205   47.5801   54.3883 H   0  0  0  0  0  0  0  0  0  0  0  0
    9.4275   49.0056   54.3883 H   0  0  0  0  0  0  0  0  0  0  0  0
    9.8622   46.8692   52.1402 H   0  0  0  0  0  0  0  0  0  0  0  0
    8.2204   45.5592   50.8031 H   0  0  0  0  0  0  0  0  0  0  0  0
    5.3720   43.3510   52.9950 H   0  0  0  0  0  0  0  0  0  0  0  0
    5.6080   41.3340   50.4290 H   0  0  0  0  0  0  0  0  0  0  0  0
    0.9375   45.8267   53.3926 H   0  0  0  0  0  0  0  0  0  0  0  0
   -0.4192   45.4347   52.3255 H   0  0  0  0  0  0  0  0  0  0  0  0
   -0.0110   44.7794   55.2151 H   0  0  0  0  0  0  0  0  0  0  0  0
   -1.5306   44.8423   54.3067 H   0  0  0  0  0  0  0  0  0  0  0  0
   -0.2816   42.4812   55.1233 H   0  0  0  0  0  0  0  0  0  0  0  0
   -1.4109   42.5539   53.7600 H   0  0  0  0  0  0  0  0  0  0  0  0
    1.5592   42.2563   53.7562 H   0  0  0  0  0  0  0  0  0  0  0  0
    0.4168   41.8689   52.4601 H   0  0  0  0  0  0  0  0  0  0  0  0
  1  2  1  0
  2  3  1  0
  3  4  2  0
  4  5  1  0
  5  6  1  0
  5  7  2  0
  7  8  1  0
  8  9  2  0
  9 10  1  0
 10 11  2  0
 10 12  1  0
 12 13  1  0
 13 14  1  0
 14 15  1  0
 15 16  2  0
 16 17  1  0
 17 18  1  0
 18 19  2  0
 18 20  1  0
 20 21  1  0
 21 22  1  0
 22 23  1  0
 23 24  1  0
  9  3  1  0
 17 13  2  0
 24 20  1  0
  1 25  1  0
  1 26  1  0
  1 27  1  0
  4 28  1  0
  6 29  1  0
  6 30  1  0
  6 31  1  0
  7 32  1  0
  8 33  1  0
 12 34  1  0
 14 35  1  0
 21 36  1  0
 21 37  1  0
 22 38  1  0
 22 39  1  0
 23 40  1  0
 23 41  1  0
 24 42  1  0
 24 43  1  0
M  END
>  <meeko>  (4) 
{"is_sidechain": [false], "free_energy": -8.075, "intermolecular_energy": -9.964, "internal_energy": -0.726}

$$$$
ligand_54_conformer_2_docked
     RDKit          3D

 43 45  0  0  0  0  0  0  0  0999 V2000
    8.3280   47.8330   52.0100 C   0  0  0  0  0  0  0  0  0  0  0  0
    6.7140   47.3870   52.7220 S   0  0  0  0  0  0  0  0  0  0  0  0
    6.5340   45.9140   51.7000 C   0  0  0  0  0  0  0  0  0  0  0  0
    7.5860   45.5720   50.8400 C   0  0  0  0  0  0  0  0  0  0  0  0
    7.4700   44.4820   49.9660 C   0  0  0  0  0  0  0  0  0  0  0  0
    8.6140   44.1030   49.0740 C   0  0  0  0  0  0  0  0  0  0  0  0
    6.2970   43.7160   49.9730 C   0  0  0  0  0  0  0  0  0  0  0  0
    5.2450   44.0470   50.8300 C   0  0  0  0  0  0  0  0  0  0  0  0
    5.3550   45.1340   51.7100 C   0  0  0  0  0  0  0  0  0  0  0  0
    4.2240   45.4380   52.6060 C   0  0  0  0  0  0  0  0  0  0  0  0
    3.4660   46.4070   52.3280 O   0  0  0  0  0  0  0  0  0  0  0  0
    3.9750   44.6320   53.7670 N   0  0  0  0  0  0  0  0  0  0  0  0
    2.8970   44.8890   54.6740 C   0  0  0  0  0  0  0  0  0  0  0  0
    3.0260   45.5890   55.8090 N   0  0  0  0  0  0  0  0  0  0  0  0
    1.8360   45.6290   56.3890 N   0  0  0  0  0  0  0  0  0  0  0  0
    0.9430   44.9590   55.6690 N   0  0  0  0  0  0  0  0  0  0  0  0
    1.5790   44.4800   54.5820 C   0  0  0  0  0  0  0  0  0  0  0  0
    0.9820   43.5550   53.5930 C   0  0  0  0  0  0  0  0  0  0  0  0
    1.4210   42.3740   53.5270 O   0  0  0  0  0  0  0  0  0  0  0  0
   -0.0830   43.9580   52.7110 N   0  0  0  0  0  0  0  0  0  0  0  0
   -0.6050   43.0810   51.6760 C   0  0  0  0  0  0  0  0  0  0  0  0
   -1.4620   43.9610   50.7770 C   0  0  0  0  0  0  0  0  0  0  0  0
   -1.7310   45.2360   51.5700 C   0  0  0  0  0  0  0  0  0  0  0  0
   -0.6640   45.2900   52.6570 C   0  0  0  0  0  0  0  0  0  0  0  0
    9.0444   48.0310   52.8209 H   0  0  0  0  0  0  0  0  0  0  0  0
    8.6969   47.0031   51.3893 H   0  0  0  0  0  0  0  0  0  0  0  0
    8.2184   48.7345   51.3893 H   0  0  0  0  0  0  0  0  0  0  0  0
    8.5125   46.1649   50.8507 H   0  0  0  0  0  0  0  0  0  0  0  0
    9.4795   43.8163   49.6895 H   0  0  0  0  0  0  0  0  0  0  0  0
    8.3185   43.2548   48.4391 H   0  0  0  0  0  0  0  0  0  0  0  0
    8.8834   44.9599   48.4391 H   0  0  0  0  0  0  0  0  0  0  0  0
    6.2041   42.8503   49.3008 H   0  0  0  0  0  0  0  0  0  0  0  0
    4.3214   43.4497   50.8148 H   0  0  0  0  0  0  0  0  0  0  0  0
    4.6750   43.9070   54.0420 H   0  0  0  0  0  0  0  0  0  0  0  0
    3.8890   46.0410   56.1820 H   0  0  0  0  0  0  0  0  0  0  0  0
    0.2196   42.6347   51.1009 H   0  0  0  0  0  0  0  0  0  0  0  0
   -1.1879   42.2525   52.1047 H   0  0  0  0  0  0  0  0  0  0  0  0
   -0.9240   44.1958   49.8467 H   0  0  0  0  0  0  0  0  0  0  0  0
   -2.3981   43.4574   50.4940 H   0  0  0  0  0  0  0  0  0  0  0  0
   -1.6539   46.1164   50.9151 H   0  0  0  0  0  0  0  0  0  0  0  0
   -2.7435   45.2360   52.0000 H   0  0  0  0  0  0  0  0  0  0  0  0
    0.1056   46.0331   52.4012 H   0  0  0  0  0  0  0  0  0  0  0  0
   -1.0902   45.5846   53.6273 H   0  0  0  0  0  0  0  0  0  0  0  0
  1  2  1  0
  2  3  1  0
  3  4  2  0
  4  5  1  0
  5  6  1  0
  5  7  2  0
  7  8  1  0
  8  9  2  0
  9 10  1  0
 10 11  2  0
 10 12  1  0
 12 13  1  0
 13 14  1  0
 14 15  1  0
 15 16  2  0
 16 17  1  0
 17 18  1  0
 18 19  2  0
 18 20  1  0
 20 21  1  0
 21 22  1  0
 22 23  1  0
 23 24  1  0
  9  3  1  0
 17 13  2  0
 24 20  1  0
  1 25  1  0
  1 26  1  0
  1 27  1  0
  4 28  1  0
  6 29  1  0
  6 30  1  0
  6 31  1  0
  7 32  1  0
  8 33  1  0
 12 34  1  0
 14 35  1  0
 21 36  1  0
 21 37  1  0
 22 38  1  0
 22 39  1  0
 23 40  1  0
 23 41  1  0
 24 42  1  0
 24 43  1  0
M  END
>  <meeko>  (5) 
{"is_sidechain": [false], "free_energy": -8.041, "intermolecular_energy": -9.932, "internal_energy": -0.717}

$$$$
