ligand_54_conformer_5_docked
     RDKit          3D

 43 45  0  0  0  0  0  0  0  0999 V2000
    5.7970   44.1020   50.8280 C   0  0  0  0  0  0  0  0  0  0  0  0
    5.1660   45.7720   51.1850 S   0  0  0  0  0  0  0  0  0  0  0  0
    6.5930   46.2280   52.1850 C   0  0  0  0  0  0  0  0  0  0  0  0
    7.8580   46.2020   51.5810 C   0  0  0  0  0  0  0  0  0  0  0  0
    9.0080   46.5170   52.3180 C   0  0  0  0  0  0  0  0  0  0  0  0
   10.3600   46.4440   51.6730 C   0  0  0  0  0  0  0  0  0  0  0  0
    8.8900   46.8320   53.6770 C   0  0  0  0  0  0  0  0  0  0  0  0
    7.6330   46.8650   54.2860 C   0  0  0  0  0  0  0  0  0  0  0  0
    6.4730   46.5700   53.5520 C   0  0  0  0  0  0  0  0  0  0  0  0
    5.1550   46.6280   54.2270 C   0  0  0  0  0  0  0  0  0  0  0  0
    4.6180   47.7480   54.4390 O   0  0  0  0  0  0  0  0  0  0  0  0
    4.5150   45.4220   54.6730 N   0  0  0  0  0  0  0  0  0  0  0  0
    3.1810   45.3860   55.2030 C   0  0  0  0  0  0  0  0  0  0  0  0
    2.7810   45.9910   56.3340 N   0  0  0  0  0  0  0  0  0  0  0  0
    1.4700   45.8320   56.4250 N   0  0  0  0  0  0  0  0  0  0  0  0
    1.0060   45.1480   55.3870 N   0  0  0  0  0  0  0  0  0  0  0  0
    2.0570   44.8650   54.5910 C   0  0  0  0  0  0  0  0  0  0  0  0
    1.9850   44.0770   53.3400 C   0  0  0  0  0  0  0  0  0  0  0  0
    2.9900   43.4010   52.9890 O   0  0  0  0  0  0  0  0  0  0  0  0
    0.7990   44.0450   52.5230 N   0  0  0  0  0  0  0  0  0  0  0  0
    0.6800   43.1830   51.3590 C   0  0  0  0  0  0  0  0  0  0  0  0
   -0.7220   43.4160   50.8150 C   0  0  0  0  0  0  0  0  0  0  0  0
   -1.1890   44.7320   51.4270 C   0  0  0  0  0  0  0  0  0  0  0  0
   -0.3440   44.9300   52.6770 C   0  0  0  0  0  0  0  0  0  0  0  0
    5.9960   43.5754   51.7731 H   0  0  0  0  0  0  0  0  0  0  0  0
    5.0480   43.5433   50.2476 H   0  0  0  0  0  0  0  0  0  0  0  0
    6.7283   44.1782   50.2476 H   0  0  0  0  0  0  0  0  0  0  0  0
    7.9489   45.9318   50.5186 H   0  0  0  0  0  0  0  0  0  0  0  0
   11.1359   46.4021   52.4516 H   0  0  0  0  0  0  0  0  0  0  0  0
   10.4194   45.5413   51.0472 H   0  0  0  0  0  0  0  0  0  0  0  0
   10.5163   47.3350   51.0472 H   0  0  0  0  0  0  0  0  0  0  0  0
    9.7908   47.0545   54.2678 H   0  0  0  0  0  0  0  0  0  0  0  0
    7.5513   47.1248   55.3517 H   0  0  0  0  0  0  0  0  0  0  0  0
    5.0300   44.5190   54.5850 H   0  0  0  0  0  0  0  0  0  0  0  0
    3.3560   46.5380   57.0100 H   0  0  0  0  0  0  0  0  0  0  0  0
    1.4337   43.4517   50.6042 H   0  0  0  0  0  0  0  0  0  0  0  0
    0.8445   42.1266   51.6179 H   0  0  0  0  0  0  0  0  0  0  0  0
   -0.7002   43.4898   49.7177 H   0  0  0  0  0  0  0  0  0  0  0  0
   -1.3990   42.5872   51.0695 H   0  0  0  0  0  0  0  0  0  0  0  0
   -1.0295   45.5607   50.7214 H   0  0  0  0  0  0  0  0  0  0  0  0
   -2.2631   44.7104   51.6633 H   0  0  0  0  0  0  0  0  0  0  0  0
   -0.0118   45.9758   52.7537 H   0  0  0  0  0  0  0  0  0  0  0  0
   -0.9123   44.7041   53.5914 H   0  0  0  0  0  0  0  0  0  0  0  0
  1  2  1  0
  2  3  1  0
  3  4  2  0
  4  5  1  0
  5  6  1  0
  5  7  2  0
  7  8  1  0
  8  9  2  0
  9 10  1  0
 10 11  2  0
 10 12  1  0
 12 13  1  0
 13 14  1  0
 14 15  1  0
 15 16  2  0
 16 17  1  0
 17 18  1  0
 18 19  2  0
 18 20  1  0
 20 21  1  0
 21 22  1  0
 22 23  1  0
 23 24  1  0
  9  3  1  0
 17 13  2  0
 24 20  1  0
  1 25  1  0
  1 26  1  0
  1 27  1  0
  4 28  1  0
  6 29  1  0
  6 30  1  0
  6 31  1  0
  7 32  1  0
  8 33  1  0
 12 34  1  0
 14 35  1  0
 21 36  1  0
 21 37  1  0
 22 38  1  0
 22 39  1  0
 23 40  1  0
 23 41  1  0
 24 42  1  0
 24 43  1  0
M  END
>  <meeko>  (1) 
{"is_sidechain": [false], "free_energy": -8.675, "intermolecular_energy": -10.704, "internal_energy": -0.802}

$$$$
ligand_54_conformer_5_docked
     RDKit          3D

 43 45  0  0  0  0  0  0  0  0999 V2000
    5.0520   46.4530   54.9890 C   0  0  0  0  0  0  0  0  0  0  0  0
    4.6600   47.5800   53.6140 S   0  0  0  0  0  0  0  0  0  0  0  0
    5.7610   46.7450   52.4580 C   0  0  0  0  0  0  0  0  0  0  0  0
    7.1390   46.9740   52.5760 C   0  0  0  0  0  0  0  0  0  0  0  0
    8.0410   46.3770   51.6860 C   0  0  0  0  0  0  0  0  0  0  0  0
    9.5100   46.6630   51.7950 C   0  0  0  0  0  0  0  0  0  0  0  0
    7.5540   45.5670   50.6520 C   0  0  0  0  0  0  0  0  0  0  0  0
    6.1840   45.3300   50.5280 C   0  0  0  0  0  0  0  0  0  0  0  0
    5.2720   45.9080   51.4270 C   0  0  0  0  0  0  0  0  0  0  0  0
    3.8270   45.6240   51.2760 C   0  0  0  0  0  0  0  0  0  0  0  0
    3.1300   46.3500   50.5170 O   0  0  0  0  0  0  0  0  0  0  0  0
    3.2150   44.5570   52.0190 N   0  0  0  0  0  0  0  0  0  0  0  0
    1.8580   44.1330   51.8190 C   0  0  0  0  0  0  0  0  0  0  0  0
    1.3460   43.6990   50.6550 N   0  0  0  0  0  0  0  0  0  0  0  0
    0.1110   43.2890   50.8950 N   0  0  0  0  0  0  0  0  0  0  0  0
   -0.1940   43.4390   52.1780 N   0  0  0  0  0  0  0  0  0  0  0  0
    0.8910   43.9550   52.7900 C   0  0  0  0  0  0  0  0  0  0  0  0
    0.9640   44.3160   54.2230 C   0  0  0  0  0  0  0  0  0  0  0  0
    2.0910   44.5710   54.7290 O   0  0  0  0  0  0  0  0  0  0  0  0
   -0.2110   44.4020   55.0520 N   0  0  0  0  0  0  0  0  0  0  0  0
   -0.1610   44.8700   56.4270 C   0  0  0  0  0  0  0  0  0  0  0  0
   -1.6000   44.8520   56.9220 C   0  0  0  0  0  0  0  0  0  0  0  0
   -2.3590   43.9510   55.9530 C   0  0  0  0  0  0  0  0  0  0  0  0
   -1.5340   43.9330   54.6740 C   0  0  0  0  0  0  0  0  0  0  0  0
    4.8736   46.9658   55.9457 H   0  0  0  0  0  0  0  0  0  0  0  0
    4.4113   45.5611   54.9261 H   0  0  0  0  0  0  0  0  0  0  0  0
    6.1079   46.1512   54.9261 H   0  0  0  0  0  0  0  0  0  0  0  0
    7.5157   47.6290   53.3754 H   0  0  0  0  0  0  0  0  0  0  0  0
    9.7950   46.7185   52.8560 H   0  0  0  0  0  0  0  0  0  0  0  0
   10.0776   45.8585   51.3045 H   0  0  0  0  0  0  0  0  0  0  0  0
    9.7343   47.6217   51.3045 H   0  0  0  0  0  0  0  0  0  0  0  0
    8.2547   45.1155   49.9342 H   0  0  0  0  0  0  0  0  0  0  0  0
    5.8145   44.6840   49.7180 H   0  0  0  0  0  0  0  0  0  0  0  0
    3.7890   44.0430   52.7220 H   0  0  0  0  0  0  0  0  0  0  0  0
    1.8190   43.6310   49.7280 H   0  0  0  0  0  0  0  0  0  0  0  0
    0.4627   44.2004   57.0374 H   0  0  0  0  0  0  0  0  0  0  0  0
    0.2795   45.8755   56.4974 H   0  0  0  0  0  0  0  0  0  0  0  0
   -1.6493   44.4450   57.9427 H   0  0  0  0  0  0  0  0  0  0  0  0
   -2.0299   45.8639   56.9567 H   0  0  0  0  0  0  0  0  0  0  0  0
   -2.4497   42.9351   56.3651 H   0  0  0  0  0  0  0  0  0  0  0  0
   -3.3799   44.3186   55.7721 H   0  0  0  0  0  0  0  0  0  0  0  0
   -1.4775   42.9120   54.2685 H   0  0  0  0  0  0  0  0  0  0  0  0
   -1.9813   44.5662   53.8936 H   0  0  0  0  0  0  0  0  0  0  0  0
  1  2  1  0
  2  3  1  0
  3  4  2  0
  4  5  1  0
  5  6  1  0
  5  7  2  0
  7  8  1  0
  8  9  2  0
  9 10  1  0
 10 11  2  0
 10 12  1  0
 12 13  1  0
 13 14  1  0
 14 15  1  0
 15 16  2  0
 16 17  1  0
 17 18  1  0
 18 19  2  0
 18 20  1  0
 20 21  1  0
 21 22  1  0
 22 23  1  0
 23 24  1  0
  9  3  1  0
 17 13  2  0
 24 20  1  0
  1 25  1  0
  1 26  1  0
  1 27  1  0
  4 28  1  0
  6 29  1  0
  6 30  1  0
  6 31  1  0
  7 32  1  0
  8 33  1  0
 12 34  1  0
 14 35  1  0
 21 36  1  0
 21 37  1  0
 22 38  1  0
 22 39  1  0
 23 40  1  0
 23 41  1  0
 24 42  1  0
 24 43  1  0
M  END
>  <meeko>  (2) 
{"is_sidechain": [false], "free_energy": -8.133, "intermolecular_energy": -10.278, "internal_energy": -0.559}

$$$$
ligand_54_conformer_5_docked
     RDKit          3D

 43 45  0  0  0  0  0  0  0  0999 V2000
    3.9690   47.4210   53.4920 C   0  0  0  0  0  0  0  0  0  0  0  0
    4.6630   45.9760   54.3560 S   0  0  0  0  0  0  0  0  0  0  0  0
    6.3100   46.2010   53.6600 C   0  0  0  0  0  0  0  0  0  0  0  0
    7.2600   46.8900   54.4250 C   0  0  0  0  0  0  0  0  0  0  0  0
    8.5480   47.1220   53.9230 C   0  0  0  0  0  0  0  0  0  0  0  0
    9.5440   47.8990   54.7330 C   0  0  0  0  0  0  0  0  0  0  0  0
    8.8740   46.6840   52.6340 C   0  0  0  0  0  0  0  0  0  0  0  0
    7.9350   45.9920   51.8660 C   0  0  0  0  0  0  0  0  0  0  0  0
    6.6480   45.7370   52.3670 C   0  0  0  0  0  0  0  0  0  0  0  0
    5.6810   44.9880   51.5320 C   0  0  0  0  0  0  0  0  0  0  0  0
    5.3790   45.4280   50.3900 O   0  0  0  0  0  0  0  0  0  0  0  0
    5.0610   43.7930   52.0340 N   0  0  0  0  0  0  0  0  0  0  0  0
    4.2270   42.9410   51.2350 C   0  0  0  0  0  0  0  0  0  0  0  0
    4.6200   41.7900   50.6630 N   0  0  0  0  0  0  0  0  0  0  0  0
    3.5500   41.2360   50.1150 N   0  0  0  0  0  0  0  0  0  0  0  0
    2.4750   41.9870   50.3170 N   0  0  0  0  0  0  0  0  0  0  0  0
    2.8660   43.0620   51.0320 C   0  0  0  0  0  0  0  0  0  0  0  0
    1.9810   44.1750   51.4410 C   0  0  0  0  0  0  0  0  0  0  0  0
    2.2050   45.3280   50.9820 O   0  0  0  0  0  0  0  0  0  0  0  0
    0.8640   43.9790   52.3290 N   0  0  0  0  0  0  0  0  0  0  0  0
   -0.0770   45.0410   52.6410 C   0  0  0  0  0  0  0  0  0  0  0  0
   -1.1140   44.4160   53.5630 C   0  0  0  0  0  0  0  0  0  0  0  0
   -0.4740   43.1400   54.0990 C   0  0  0  0  0  0  0  0  0  0  0  0
    0.6140   42.7720   53.1000 C   0  0  0  0  0  0  0  0  0  0  0  0
    3.6162   48.1555   54.2310 H   0  0  0  0  0  0  0  0  0  0  0  0
    4.7454   47.8790   52.8616 H   0  0  0  0  0  0  0  0  0  0  0  0
    3.1262   47.1013   52.8616 H   0  0  0  0  0  0  0  0  0  0  0  0
    6.9928   47.2522   55.4287 H   0  0  0  0  0  0  0  0  0  0  0  0
    9.3460   47.7445   55.8039 H   0  0  0  0  0  0  0  0  0  0  0  0
   10.5605   47.5529   54.4944 H   0  0  0  0  0  0  0  0  0  0  0  0
    9.4556   48.9692   54.4944 H   0  0  0  0  0  0  0  0  0  0  0  0
    9.8746   46.8858   52.2240 H   0  0  0  0  0  0  0  0  0  0  0  0
    8.2061   45.6432   50.8586 H   0  0  0  0  0  0  0  0  0  0  0  0
    5.2430   43.5110   53.0220 H   0  0  0  0  0  0  0  0  0  0  0  0
    5.5680   41.3560   50.6730 H   0  0  0  0  0  0  0  0  0  0  0  0
    0.4363   45.8712   53.1483 H   0  0  0  0  0  0  0  0  0  0  0  0
   -0.5388   45.4538   51.7319 H   0  0  0  0  0  0  0  0  0  0  0  0
   -1.3547   45.1008   54.3895 H   0  0  0  0  0  0  0  0  0  0  0  0
   -2.0548   44.2066   53.0330 H   0  0  0  0  0  0  0  0  0  0  0  0
   -0.0374   43.3184   55.0928 H   0  0  0  0  0  0  0  0  0  0  0  0
   -1.2122   42.3321   54.2104 H   0  0  0  0  0  0  0  0  0  0  0  0
    1.5272   42.4568   53.6261 H   0  0  0  0  0  0  0  0  0  0  0  0
    0.3076   41.9347   52.4558 H   0  0  0  0  0  0  0  0  0  0  0  0
  1  2  1  0
  2  3  1  0
  3  4  2  0
  4  5  1  0
  5  6  1  0
  5  7  2  0
  7  8  1  0
  8  9  2  0
  9 10  1  0
 10 11  2  0
 10 12  1  0
 12 13  1  0
 13 14  1  0
 14 15  1  0
 15 16  2  0
 16 17  1  0
 17 18  1  0
 18 19  2  0
 18 20  1  0
 20 21  1  0
 21 22  1  0
 22 23  1  0
 23 24  1  0
  9  3  1  0
 17 13  2  0
 24 20  1  0
  1 25  1  0
  1 26  1  0
  1 27  1  0
  4 28  1  0
  6 29  1  0
  6 30  1  0
  6 31  1  0
  7 32  1  0
  8 33  1  0
 12 34  1  0
 14 35  1  0
 21 36  1  0
 21 37  1  0
 22 38  1  0
 22 39  1  0
 23 40  1  0
 23 41  1  0
 24 42  1  0
 24 43  1  0
M  END
>  <meeko>  (3) 
{"is_sidechain": [false], "free_energy": -8.043, "intermolecular_energy": -10.12, "internal_energy": -0.606}

$$$$
ligand_54_conformer_5_docked
     RDKit          3D

 43 45  0  0  0  0  0  0  0  0999 V2000
    8.4950   47.6840   51.8230 C   0  0  0  0  0  0  0  0  0  0  0  0
    6.9010   47.3740   52.6460 S   0  0  0  0  0  0  0  0  0  0  0  0
    6.5550   45.8910   51.6830 C   0  0  0  0  0  0  0  0  0  0  0  0
    7.5110   45.4740   50.7470 C   0  0  0  0  0  0  0  0  0  0  0  0
    7.2840   44.3460   49.9480 C   0  0  0  0  0  0  0  0  0  0  0  0
    8.2950   43.9340   48.9190 C   0  0  0  0  0  0  0  0  0  0  0  0
    6.0760   43.6490   50.0690 C   0  0  0  0  0  0  0  0  0  0  0  0
    5.1180   44.0540   51.0010 C   0  0  0  0  0  0  0  0  0  0  0  0
    5.3450   45.1720   51.8220 C   0  0  0  0  0  0  0  0  0  0  0  0
    4.3140   45.5650   52.8100 C   0  0  0  0  0  0  0  0  0  0  0  0
    3.6940   46.6520   52.6570 O   0  0  0  0  0  0  0  0  0  0  0  0
    4.0540   44.7380   53.9550 N   0  0  0  0  0  0  0  0  0  0  0  0
    2.9780   44.9790   54.8750 C   0  0  0  0  0  0  0  0  0  0  0  0
    3.0320   45.8120   55.9280 N   0  0  0  0  0  0  0  0  0  0  0  0
    1.8200   45.8580   56.4580 N   0  0  0  0  0  0  0  0  0  0  0  0
    0.9810   45.0850   55.7810 N   0  0  0  0  0  0  0  0  0  0  0  0
    1.6770   44.5290   54.7680 C   0  0  0  0  0  0  0  0  0  0  0  0
    1.1250   43.5640   53.7910 C   0  0  0  0  0  0  0  0  0  0  0  0
    1.8620   42.6260   53.3810 O   0  0  0  0  0  0  0  0  0  0  0  0
   -0.2290   43.6530   53.3080 N   0  0  0  0  0  0  0  0  0  0  0  0
   -0.8140   42.6430   52.4410 C   0  0  0  0  0  0  0  0  0  0  0  0
   -2.2510   43.0840   52.2050 C   0  0  0  0  0  0  0  0  0  0  0  0
   -2.2980   44.5610   52.5830 C   0  0  0  0  0  0  0  0  0  0  0  0
   -1.1160   44.7860   53.5160 C   0  0  0  0  0  0  0  0  0  0  0  0
    9.2763   47.8359   52.5823 H   0  0  0  0  0  0  0  0  0  0  0  0
    8.7574   46.8201   51.1947 H   0  0  0  0  0  0  0  0  0  0  0  0
    8.4145   48.5833   51.1947 H   0  0  0  0  0  0  0  0  0  0  0  0
    8.4491   46.0381   50.6386 H   0  0  0  0  0  0  0  0  0  0  0  0
    9.2008   43.5649   49.4222 H   0  0  0  0  0  0  0  0  0  0  0  0
    7.8738   43.1358   48.2902 H   0  0  0  0  0  0  0  0  0  0  0  0
    8.5517   44.7993   48.2902 H   0  0  0  0  0  0  0  0  0  0  0  0
    5.8803   42.7778   49.4266 H   0  0  0  0  0  0  0  0  0  0  0  0
    4.1766   43.4925   51.0934 H   0  0  0  0  0  0  0  0  0  0  0  0
    4.6570   43.9020   54.1170 H   0  0  0  0  0  0  0  0  0  0  0  0
    3.8430   46.3760   56.2620 H   0  0  0  0  0  0  0  0  0  0  0  0
   -0.2671   42.5924   51.4880 H   0  0  0  0  0  0  0  0  0  0  0  0
   -0.7662   41.6420   52.8945 H   0  0  0  0  0  0  0  0  0  0  0  0
   -2.5245   42.9499   51.1480 H   0  0  0  0  0  0  0  0  0  0  0  0
   -2.9604   42.4903   52.8002 H   0  0  0  0  0  0  0  0  0  0  0  0
   -2.2030   45.1897   51.6854 H   0  0  0  0  0  0  0  0  0  0  0  0
   -3.2509   44.8266   53.0641 H   0  0  0  0  0  0  0  0  0  0  0  0
   -0.6028   45.7260   53.2649 H   0  0  0  0  0  0  0  0  0  0  0  0
   -1.4363   44.8634   54.5655 H   0  0  0  0  0  0  0  0  0  0  0  0
  1  2  1  0
  2  3  1  0
  3  4  2  0
  4  5  1  0
  5  6  1  0
  5  7  2  0
  7  8  1  0
  8  9  2  0
  9 10  1  0
 10 11  2  0
 10 12  1  0
 12 13  1  0
 13 14  1  0
 14 15  1  0
 15 16  2  0
 16 17  1  0
 17 18  1  0
 18 19  2  0
 18 20  1  0
 20 21  1  0
 21 22  1  0
 22 23  1  0
 23 24  1  0
  9  3  1  0
 17 13  2  0
 24 20  1  0
  1 25  1  0
  1 26  1  0
  1 27  1  0
  4 28  1  0
  6 29  1  0
  6 30  1  0
  6 31  1  0
  7 32  1  0
  8 33  1  0
 12 34  1  0
 14 35  1  0
 21 36  1  0
 21 37  1  0
 22 38  1  0
 22 39  1  0
 23 40  1  0
 23 41  1  0
 24 42  1  0
 24 43  1  0
M  END
>  <meeko>  (4) 
{"is_sidechain": [false], "free_energy": -7.948, "intermolecular_energy": -10.074, "internal_energy": -0.535}

$$$$
ligand_54_conformer_5_docked
     RDKit          3D

 43 45  0  0  0  0  0  0  0  0999 V2000
    7.6460   43.4480   49.2550 C   0  0  0  0  0  0  0  0  0  0  0  0
    6.0120   43.4620   50.0590 S   0  0  0  0  0  0  0  0  0  0  0  0
    6.3400   44.9830   50.9680 C   0  0  0  0  0  0  0  0  0  0  0  0
    7.6450   45.4930   50.9520 C   0  0  0  0  0  0  0  0  0  0  0  0
    7.9670   46.6560   51.6660 C   0  0  0  0  0  0  0  0  0  0  0  0
    9.3770   47.1680   51.6780 C   0  0  0  0  0  0  0  0  0  0  0  0
    6.9770   47.2940   52.4230 C   0  0  0  0  0  0  0  0  0  0  0  0
    5.6720   46.7960   52.4410 C   0  0  0  0  0  0  0  0  0  0  0  0
    5.3350   45.6430   51.7140 C   0  0  0  0  0  0  0  0  0  0  0  0
    3.9390   45.1500   51.7440 C   0  0  0  0  0  0  0  0  0  0  0  0
    3.1270   45.5380   50.8610 O   0  0  0  0  0  0  0  0  0  0  0  0
    3.5020   44.2720   52.7930 N   0  0  0  0  0  0  0  0  0  0  0  0
    2.2110   43.6430   52.8100 C   0  0  0  0  0  0  0  0  0  0  0  0
    1.7630   42.7700   51.8930 N   0  0  0  0  0  0  0  0  0  0  0  0
    0.5900   42.3230   52.3120 N   0  0  0  0  0  0  0  0  0  0  0  0
    0.2640   42.8750   53.4730 N   0  0  0  0  0  0  0  0  0  0  0  0
    1.2720   43.7010   53.8220 C   0  0  0  0  0  0  0  0  0  0  0  0
    1.2930   44.5480   55.0350 C   0  0  0  0  0  0  0  0  0  0  0  0
    2.4050   44.9290   55.4910 O   0  0  0  0  0  0  0  0  0  0  0  0
    0.0840   44.9640   55.7000 N   0  0  0  0  0  0  0  0  0  0  0  0
    0.0910   45.8900   56.8200 C   0  0  0  0  0  0  0  0  0  0  0  0
   -1.3700   46.0980   57.1930 C   0  0  0  0  0  0  0  0  0  0  0  0
   -2.1270   44.9360   56.5590 C   0  0  0  0  0  0  0  0  0  0  0  0
   -1.2430   44.4340   55.4270 C   0  0  0  0  0  0  0  0  0  0  0  0
    8.4328   43.4413   50.0237 H   0  0  0  0  0  0  0  0  0  0  0  0
    7.7384   42.5490   48.6278 H   0  0  0  0  0  0  0  0  0  0  0  0
    7.7538   44.3453   48.6278 H   0  0  0  0  0  0  0  0  0  0  0  0
    8.4247   44.9758   50.3735 H   0  0  0  0  0  0  0  0  0  0  0  0
    9.7138   47.2903   52.7180 H   0  0  0  0  0  0  0  0  0  0  0  0
   10.0321   46.4504   51.1624 H   0  0  0  0  0  0  0  0  0  0  0  0
    9.4190   48.1388   51.1624 H   0  0  0  0  0  0  0  0  0  0  0  0
    7.2281   48.1920   53.0066 H   0  0  0  0  0  0  0  0  0  0  0  0
    4.9004   47.3125   53.0308 H   0  0  0  0  0  0  0  0  0  0  0  0
    4.1610   44.0550   53.5730 H   0  0  0  0  0  0  0  0  0  0  0  0
    2.2450   42.4400   51.0290 H   0  0  0  0  0  0  0  0  0  0  0  0
    0.6459   45.4619   57.6678 H   0  0  0  0  0  0  0  0  0  0  0  0
    0.5819   46.8390   56.5585 H   0  0  0  0  0  0  0  0  0  0  0  0
   -1.4924   46.0847   58.2861 H   0  0  0  0  0  0  0  0  0  0  0  0
   -1.7454   47.0691   56.8381 H   0  0  0  0  0  0  0  0  0  0  0  0
   -2.2931   44.1383   57.2980 H   0  0  0  0  0  0  0  0  0  0  0  0
   -3.1158   45.2488   56.1924 H   0  0  0  0  0  0  0  0  0  0  0  0
   -1.2220   43.3343   55.4155 H   0  0  0  0  0  0  0  0  0  0  0  0
   -1.6164   44.7597   54.4449 H   0  0  0  0  0  0  0  0  0  0  0  0
  1  2  1  0
  2  3  1  0
  3  4  2  0
  4  5  1  0
  5  6  1  0
  5  7  2  0
  7  8  1  0
  8  9  2  0
  9 10  1  0
 10 11  2  0
 10 12  1  0
 12 13  1  0
 13 14  1  0
 14 15  1  0
 15 16  2  0
 16 17  1  0
 17 18  1  0
 18 19  2  0
 18 20  1  0
 20 21  1  0
 21 22  1  0
 22 23  1  0
 23 24  1  0
  9  3  1  0
 17 13  2  0
 24 20  1  0
  1 25  1  0
  1 26  1  0
  1 27  1  0
  4 28  1  0
  6 29  1  0
  6 30  1  0
  6 31  1  0
  7 32  1  0
  8 33  1  0
 12 34  1  0
 14 35  1  0
 21 36  1  0
 21 37  1  0
 22 38  1  0
 22 39  1  0
 23 40  1  0
 23 41  1  0
 24 42  1  0
 24 43  1  0
M  END
>  <meeko>  (5) 
{"is_sidechain": [false], "free_energy": -7.866, "intermolecular_energy": -9.996, "internal_energy": -0.511}

$$$$
