ligand_13_conformer_2_docked
     RDKit          3D

 40 42  0  0  0  0  0  0  0  0999 V2000
    5.0920   47.8520   54.2550 O   0  0  0  0  0  0  0  0  0  0  0  0
    4.7880   46.8590   53.5390 C   0  0  0  0  0  0  0  0  0  0  0  0
    5.7330   46.3630   52.5750 N   0  0  0  0  0  0  0  0  0  0  0  0
    7.1500   46.5990   52.6510 C   0  0  0  0  0  0  0  0  0  0  0  0
    7.8570   46.9210   51.4830 C   0  0  0  0  0  0  0  0  0  0  0  0
    9.2360   47.1360   51.5290 C   0  0  0  0  0  0  0  0  0  0  0  0
    9.9230   47.0190   52.7390 C   0  0  0  0  0  0  0  0  0  0  0  0
    9.2430   46.6780   53.9130 C   0  0  0  0  0  0  0  0  0  0  0  0
    9.9850   46.5580   55.0990 O   0  0  0  0  0  0  0  0  0  0  0  0
   10.7010   47.6220   55.7200 C   0  0  0  0  0  0  0  0  0  0  0  0
    9.8070   48.6010   56.1090 F   0  0  0  0  0  0  0  0  0  0  0  0
   11.3690   47.1550   56.8370 F   0  0  0  0  0  0  0  0  0  0  0  0
    7.8510   46.4600   53.8630 C   0  0  0  0  0  0  0  0  0  0  0  0
    3.4420   46.2520   53.6660 C   0  0  0  0  0  0  0  0  0  0  0  0
    2.4880   46.3870   52.6420 C   0  0  0  0  0  0  0  0  0  0  0  0
    1.2220   45.8060   52.7690 C   0  0  0  0  0  0  0  0  0  0  0  0
    0.8830   45.0860   53.9260 C   0  0  0  0  0  0  0  0  0  0  0  0
   -0.4030   44.4590   54.0690 N   0  0  0  0  0  0  0  0  0  0  0  0
   -1.1870   44.4890   55.2710 C   0  0  0  0  0  0  0  0  0  0  0  0
   -1.8540   43.3810   55.6970 N   0  0  0  0  0  0  0  0  0  0  0  0
   -2.6200   43.4110   56.8180 C   0  0  0  0  0  0  0  0  0  0  0  0
   -2.7410   44.5950   57.5450 C   0  0  0  0  0  0  0  0  0  0  0  0
   -2.0650   45.7250   57.0900 C   0  0  0  0  0  0  0  0  0  0  0  0
   -1.3080   45.6540   55.9640 N   0  0  0  0  0  0  0  0  0  0  0  0
    1.8440   44.9210   54.9330 C   0  0  0  0  0  0  0  0  0  0  0  0
    3.1090   45.5020   54.8080 C   0  0  0  0  0  0  0  0  0  0  0  0
    5.3590   45.9060   51.7130 H   0  0  0  0  0  0  0  0  0  0  0  0
    7.3221   47.0046   50.5255 H   0  0  0  0  0  0  0  0  0  0  0  0
    9.7819   47.3979   50.6106 H   0  0  0  0  0  0  0  0  0  0  0  0
   11.0082   47.1965   52.7693 H   0  0  0  0  0  0  0  0  0  0  0  0
   11.4295   48.0329   55.0056 H   0  0  0  0  0  0  0  0  0  0  0  0
    7.3091   46.1792   54.7781 H   0  0  0  0  0  0  0  0  0  0  0  0
    2.7393   46.9542   51.7336 H   0  0  0  0  0  0  0  0  0  0  0  0
    0.4873   45.9138   51.9575 H   0  0  0  0  0  0  0  0  0  0  0  0
   -0.7580   43.8760   53.2760 H   0  0  0  0  0  0  0  0  0  0  0  0
   -3.1440   42.5033   57.1519 H   0  0  0  0  0  0  0  0  0  0  0  0
   -3.3558   44.6357   58.4563 H   0  0  0  0  0  0  0  0  0  0  0  0
   -2.1440   46.6734   57.6416 H   0  0  0  0  0  0  0  0  0  0  0  0
    1.6008   44.3299   55.8282 H   0  0  0  0  0  0  0  0  0  0  0  0
    3.8506   45.3715   55.6099 H   0  0  0  0  0  0  0  0  0  0  0  0
  1  2  2  0
  2  3  1  0
  3  4  1  0
  4  5  2  0
  5  6  1  0
  6  7  2  0
  7  8  1  0
  8  9  1  0
  9 10  1  0
 10 11  1  0
 10 12  1  0
  8 13  2  0
  2 14  1  0
 14 15  2  0
 15 16  1  0
 16 17  2  0
 17 18  1  0
 18 19  1  0
 19 20  2  0
 20 21  1  0
 21 22  2  0
 22 23  1  0
 23 24  2  0
 17 25  1  0
 25 26  2  0
 13  4  1  0
 26 14  1  0
 24 19  1  0
  3 27  1  0
  5 28  1  0
  6 29  1  0
  7 30  1  0
 10 31  1  0
 13 32  1  0
 15 33  1  0
 16 34  1  0
 18 35  1  0
 21 36  1  0
 22 37  1  0
 23 38  1  0
 25 39  1  0
 26 40  1  0
M  END
>  <meeko>  (1) 
{"is_sidechain": [false], "free_energy": -8.48, "intermolecular_energy": -11.454, "internal_energy": -0.489}

$$$$
ligand_13_conformer_2_docked
     RDKit          3D

 40 42  0  0  0  0  0  0  0  0999 V2000
    2.8420   45.6190   51.2930 O   0  0  0  0  0  0  0  0  0  0  0  0
    3.1170   44.9850   52.3490 C   0  0  0  0  0  0  0  0  0  0  0  0
    4.3050   44.1780   52.4050 N   0  0  0  0  0  0  0  0  0  0  0  0
    5.4400   44.3680   51.5420 C   0  0  0  0  0  0  0  0  0  0  0  0
    5.7070   43.4250   50.5390 C   0  0  0  0  0  0  0  0  0  0  0  0
    6.8150   43.5790   49.7020 C   0  0  0  0  0  0  0  0  0  0  0  0
    7.6730   44.6680   49.8680 C   0  0  0  0  0  0  0  0  0  0  0  0
    7.4390   45.6100   50.8750 C   0  0  0  0  0  0  0  0  0  0  0  0
    8.3410   46.6770   51.0080 O   0  0  0  0  0  0  0  0  0  0  0  0
    8.4750   47.4880   52.1710 C   0  0  0  0  0  0  0  0  0  0  0  0
    9.7900   47.4600   52.5930 F   0  0  0  0  0  0  0  0  0  0  0  0
    8.1230   48.7940   51.8810 F   0  0  0  0  0  0  0  0  0  0  0  0
    6.3210   45.4510   51.7190 C   0  0  0  0  0  0  0  0  0  0  0  0
    2.1820   45.0420   53.4990 C   0  0  0  0  0  0  0  0  0  0  0  0
    2.6580   45.2260   54.8090 C   0  0  0  0  0  0  0  0  0  0  0  0
    1.7690   45.2850   55.8860 C   0  0  0  0  0  0  0  0  0  0  0  0
    0.3870   45.1510   55.6760 C   0  0  0  0  0  0  0  0  0  0  0  0
   -0.5480   45.2320   56.7650 N   0  0  0  0  0  0  0  0  0  0  0  0
   -0.8300   46.4330   57.4990 C   0  0  0  0  0  0  0  0  0  0  0  0
   -0.0380   46.8190   58.5370 N   0  0  0  0  0  0  0  0  0  0  0  0
   -0.3170   47.9380   59.2530 C   0  0  0  0  0  0  0  0  0  0  0  0
   -1.4360   48.7060   58.9360 C   0  0  0  0  0  0  0  0  0  0  0  0
   -2.2460   48.2910   57.8810 C   0  0  0  0  0  0  0  0  0  0  0  0
   -1.9330   47.1650   57.1880 N   0  0  0  0  0  0  0  0  0  0  0  0
   -0.0920   45.0020   54.3680 C   0  0  0  0  0  0  0  0  0  0  0  0
    0.7950   44.9430   53.2900 C   0  0  0  0  0  0  0  0  0  0  0  0
    4.2980   43.3360   53.0240 H   0  0  0  0  0  0  0  0  0  0  0  0
    5.0405   42.5594   50.4106 H   0  0  0  0  0  0  0  0  0  0  0  0
    7.0118   42.8408   48.9106 H   0  0  0  0  0  0  0  0  0  0  0  0
    8.5400   44.7860   49.2014 H   0  0  0  0  0  0  0  0  0  0  0  0
    7.8143   47.1000   52.9602 H   0  0  0  0  0  0  0  0  0  0  0  0
    6.1358   46.1793   52.5223 H   0  0  0  0  0  0  0  0  0  0  0  0
    3.7389   45.3243   54.9879 H   0  0  0  0  0  0  0  0  0  0  0  0
    2.1545   45.4374   56.9049 H   0  0  0  0  0  0  0  0  0  0  0  0
   -0.9940   44.3470   57.0990 H   0  0  0  0  0  0  0  0  0  0  0  0
    0.3396   48.2384   60.0828 H   0  0  0  0  0  0  0  0  0  0  0  0
   -1.6738   49.6171   59.5046 H   0  0  0  0  0  0  0  0  0  0  0  0
   -3.1381   48.8744   57.6094 H   0  0  0  0  0  0  0  0  0  0  0  0
   -1.1749   44.9309   54.1882 H   0  0  0  0  0  0  0  0  0  0  0  0
    0.4049   44.8180   52.2691 H   0  0  0  0  0  0  0  0  0  0  0  0
  1  2  2  0
  2  3  1  0
  3  4  1  0
  4  5  2  0
  5  6  1  0
  6  7  2  0
  7  8  1  0
  8  9  1  0
  9 10  1  0
 10 11  1  0
 10 12  1  0
  8 13  2  0
  2 14  1  0
 14 15  2  0
 15 16  1  0
 16 17  2  0
 17 18  1  0
 18 19  1  0
 19 20  2  0
 20 21  1  0
 21 22  2  0
 22 23  1  0
 23 24  2  0
 17 25  1  0
 25 26  2  0
 13  4  1  0
 26 14  1  0
 24 19  1  0
  3 27  1  0
  5 28  1  0
  6 29  1  0
  7 30  1  0
 10 31  1  0
 13 32  1  0
 15 33  1  0
 16 34  1  0
 18 35  1  0
 21 36  1  0
 22 37  1  0
 23 38  1  0
 25 39  1  0
 26 40  1  0
M  END
>  <meeko>  (2) 
{"is_sidechain": [false], "free_energy": -8.463, "intermolecular_energy": -11.176, "internal_energy": -0.744}

$$$$
ligand_13_conformer_2_docked
     RDKit          3D

 40 42  0  0  0  0  0  0  0  0999 V2000
    5.8500   44.5510   54.7590 O   0  0  0  0  0  0  0  0  0  0  0  0
    5.3010   44.8990   53.6770 C   0  0  0  0  0  0  0  0  0  0  0  0
    5.8580   45.9820   52.9130 N   0  0  0  0  0  0  0  0  0  0  0  0
    7.2240   46.4180   53.0250 C   0  0  0  0  0  0  0  0  0  0  0  0
    8.1130   46.1730   51.9690 C   0  0  0  0  0  0  0  0  0  0  0  0
    9.4490   46.5700   52.0630 C   0  0  0  0  0  0  0  0  0  0  0  0
    9.9120   47.2050   53.2170 C   0  0  0  0  0  0  0  0  0  0  0  0
    9.0480   47.4430   54.2920 C   0  0  0  0  0  0  0  0  0  0  0  0
    9.5690   48.0720   55.4350 O   0  0  0  0  0  0  0  0  0  0  0  0
   10.8400   47.7870   56.0110 C   0  0  0  0  0  0  0  0  0  0  0  0
   10.8660   48.2650   57.3070 F   0  0  0  0  0  0  0  0  0  0  0  0
   11.0560   46.4210   56.0310 F   0  0  0  0  0  0  0  0  0  0  0  0
    7.7010   47.0390   54.1950 C   0  0  0  0  0  0  0  0  0  0  0  0
    4.0610   44.2160   53.2360 C   0  0  0  0  0  0  0  0  0  0  0  0
    4.0900   43.2540   52.2110 C   0  0  0  0  0  0  0  0  0  0  0  0
    2.9160   42.6130   51.8050 C   0  0  0  0  0  0  0  0  0  0  0  0
    1.6880   42.9270   52.4100 C   0  0  0  0  0  0  0  0  0  0  0  0
    0.4720   42.2630   52.0270 N   0  0  0  0  0  0  0  0  0  0  0  0
   -0.7920   42.9230   51.8660 C   0  0  0  0  0  0  0  0  0  0  0  0
   -1.6970   42.9570   52.8820 N   0  0  0  0  0  0  0  0  0  0  0  0
   -2.9060   43.5560   52.7250 C   0  0  0  0  0  0  0  0  0  0  0  0
   -3.2400   44.1370   51.5030 C   0  0  0  0  0  0  0  0  0  0  0  0
   -2.3110   44.0820   50.4670 C   0  0  0  0  0  0  0  0  0  0  0  0
   -1.1110   43.4750   50.6630 N   0  0  0  0  0  0  0  0  0  0  0  0
    1.6620   43.8600   53.4550 C   0  0  0  0  0  0  0  0  0  0  0  0
    2.8340   44.5030   53.8620 C   0  0  0  0  0  0  0  0  0  0  0  0
    5.2080   46.5570   52.3320 H   0  0  0  0  0  0  0  0  0  0  0  0
    7.7563   45.6650   51.0609 H   0  0  0  0  0  0  0  0  0  0  0  0
   10.1377   46.3819   51.2261 H   0  0  0  0  0  0  0  0  0  0  0  0
   10.9638   47.5206   53.2818 H   0  0  0  0  0  0  0  0  0  0  0  0
   11.6252   48.2703   55.4111 H   0  0  0  0  0  0  0  0  0  0  0  0
    7.0175   47.2102   55.0397 H   0  0  0  0  0  0  0  0  0  0  0  0
    5.0444   43.0038   51.7246 H   0  0  0  0  0  0  0  0  0  0  0  0
    2.9542   41.8576   51.0063 H   0  0  0  0  0  0  0  0  0  0  0  0
    0.4870   41.2210   51.9370 H   0  0  0  0  0  0  0  0  0  0  0  0
   -3.6203   43.5825   53.5611 H   0  0  0  0  0  0  0  0  0  0  0  0
   -4.2143   44.6274   51.3602 H   0  0  0  0  0  0  0  0  0  0  0  0
   -2.5484   44.5296   49.4906 H   0  0  0  0  0  0  0  0  0  0  0  0
    0.7113   44.0882   53.9591 H   0  0  0  0  0  0  0  0  0  0  0  0
    2.7970   45.2394   54.6783 H   0  0  0  0  0  0  0  0  0  0  0  0
  1  2  2  0
  2  3  1  0
  3  4  1  0
  4  5  2  0
  5  6  1  0
  6  7  2  0
  7  8  1  0
  8  9  1  0
  9 10  1  0
 10 11  1  0
 10 12  1  0
  8 13  2  0
  2 14  1  0
 14 15  2  0
 15 16  1  0
 16 17  2  0
 17 18  1  0
 18 19  1  0
 19 20  2  0
 20 21  1  0
 21 22  2  0
 22 23  1  0
 23 24  2  0
 17 25  1  0
 25 26  2  0
 13  4  1  0
 26 14  1  0
 24 19  1  0
  3 27  1  0
  5 28  1  0
  6 29  1  0
  7 30  1  0
 10 31  1  0
 13 32  1  0
 15 33  1  0
 16 34  1  0
 18 35  1  0
 21 36  1  0
 22 37  1  0
 23 38  1  0
 25 39  1  0
 26 40  1  0
M  END
>  <meeko>  (3) 
{"is_sidechain": [false], "free_energy": -8.411, "intermolecular_energy": -11.349, "internal_energy": -0.501}

$$$$
ligand_13_conformer_2_docked
     RDKit          3D

 40 42  0  0  0  0  0  0  0  0999 V2000
    6.6450   44.5590   50.6100 O   0  0  0  0  0  0  0  0  0  0  0  0
    5.7450   43.7870   51.0440 C   0  0  0  0  0  0  0  0  0  0  0  0
    5.2590   43.9480   52.3870 N   0  0  0  0  0  0  0  0  0  0  0  0
    5.3710   45.1710   53.1360 C   0  0  0  0  0  0  0  0  0  0  0  0
    4.2450   45.9950   53.2810 C   0  0  0  0  0  0  0  0  0  0  0  0
    4.3350   47.1960   53.9870 C   0  0  0  0  0  0  0  0  0  0  0  0
    5.5520   47.5920   54.5450 C   0  0  0  0  0  0  0  0  0  0  0  0
    6.6940   46.7970   54.3960 C   0  0  0  0  0  0  0  0  0  0  0  0
    7.8960   47.2490   54.9640 O   0  0  0  0  0  0  0  0  0  0  0  0
    8.9640   47.8480   54.2360 C   0  0  0  0  0  0  0  0  0  0  0  0
    9.9490   46.9040   54.0200 F   0  0  0  0  0  0  0  0  0  0  0  0
    8.5050   48.3070   53.0150 F   0  0  0  0  0  0  0  0  0  0  0  0
    6.6010   45.5860   53.6810 C   0  0  0  0  0  0  0  0  0  0  0  0
    5.2410   42.6940   50.1780 C   0  0  0  0  0  0  0  0  0  0  0  0
    4.0930   41.9630   50.5320 C   0  0  0  0  0  0  0  0  0  0  0  0
    3.6220   40.9380   49.7070 C   0  0  0  0  0  0  0  0  0  0  0  0
    4.2940   40.6170   48.5160 C   0  0  0  0  0  0  0  0  0  0  0  0
    3.8140   39.5840   47.6390 N   0  0  0  0  0  0  0  0  0  0  0  0
    3.2120   39.8270   46.3590 C   0  0  0  0  0  0  0  0  0  0  0  0
    2.3660   40.8770   46.1730 N   0  0  0  0  0  0  0  0  0  0  0  0
    1.7710   41.0950   44.9720 C   0  0  0  0  0  0  0  0  0  0  0  0
    2.0150   40.2270   43.9080 C   0  0  0  0  0  0  0  0  0  0  0  0
    2.8710   39.1480   44.1160 C   0  0  0  0  0  0  0  0  0  0  0  0
    3.4470   38.9640   45.3330 N   0  0  0  0  0  0  0  0  0  0  0  0
    5.4170   41.3680   48.1440 C   0  0  0  0  0  0  0  0  0  0  0  0
    5.8910   42.3920   48.9680 C   0  0  0  0  0  0  0  0  0  0  0  0
    4.9090   43.0990   52.8870 H   0  0  0  0  0  0  0  0  0  0  0  0
    3.2855   45.6930   52.8358 H   0  0  0  0  0  0  0  0  0  0  0  0
    3.4450   47.8318   54.1039 H   0  0  0  0  0  0  0  0  0  0  0  0
    5.6137   48.5361   55.1061 H   0  0  0  0  0  0  0  0  0  0  0  0
    9.3672   48.6926   54.8140 H   0  0  0  0  0  0  0  0  0  0  0  0
    7.4960   44.9605   53.5478 H   0  0  0  0  0  0  0  0  0  0  0  0
    3.5616   42.1998   51.4656 H   0  0  0  0  0  0  0  0  0  0  0  0
    2.7188   40.3787   49.9923 H   0  0  0  0  0  0  0  0  0  0  0  0
    3.8300   38.5970   47.9850 H   0  0  0  0  0  0  0  0  0  0  0  0
    1.0978   41.9546   44.8386 H   0  0  0  0  0  0  0  0  0  0  0  0
    1.5428   40.3906   42.9281 H   0  0  0  0  0  0  0  0  0  0  0  0
    3.0805   38.4455   43.2959 H   0  0  0  0  0  0  0  0  0  0  0  0
    5.9296   41.1496   47.1955 H   0  0  0  0  0  0  0  0  0  0  0  0
    6.7797   42.9666   48.6679 H   0  0  0  0  0  0  0  0  0  0  0  0
  1  2  2  0
  2  3  1  0
  3  4  1  0
  4  5  2  0
  5  6  1  0
  6  7  2  0
  7  8  1  0
  8  9  1  0
  9 10  1  0
 10 11  1  0
 10 12  1  0
  8 13  2  0
  2 14  1  0
 14 15  2  0
 15 16  1  0
 16 17  2  0
 17 18  1  0
 18 19  1  0
 19 20  2  0
 20 21  1  0
 21 22  2  0
 22 23  1  0
 23 24  2  0
 17 25  1  0
 25 26  2  0
 13  4  1  0
 26 14  1  0
 24 19  1  0
  3 27  1  0
  5 28  1  0
  6 29  1  0
  7 30  1  0
 10 31  1  0
 13 32  1  0
 15 33  1  0
 16 34  1  0
 18 35  1  0
 21 36  1  0
 22 37  1  0
 23 38  1  0
 25 39  1  0
 26 40  1  0
M  END
>  <meeko>  (4) 
{"is_sidechain": [false], "free_energy": -8.177, "intermolecular_energy": -10.766, "internal_energy": -0.768}

$$$$
ligand_13_conformer_2_docked
     RDKit          3D

 40 42  0  0  0  0  0  0  0  0999 V2000
    4.3410   44.5880   54.1280 O   0  0  0  0  0  0  0  0  0  0  0  0
    3.5080   45.1380   53.3570 C   0  0  0  0  0  0  0  0  0  0  0  0
    3.9770   45.9350   52.2570 N   0  0  0  0  0  0  0  0  0  0  0  0
    5.2890   45.8100   51.6820 C   0  0  0  0  0  0  0  0  0  0  0  0
    5.5100   44.8640   50.6710 C   0  0  0  0  0  0  0  0  0  0  0  0
    6.7810   44.7120   50.1110 C   0  0  0  0  0  0  0  0  0  0  0  0
    7.8450   45.4940   50.5650 C   0  0  0  0  0  0  0  0  0  0  0  0
    7.6540   46.4300   51.5870 C   0  0  0  0  0  0  0  0  0  0  0  0
    8.7610   47.1790   52.0160 O   0  0  0  0  0  0  0  0  0  0  0  0
    9.8740   46.6490   52.7280 C   0  0  0  0  0  0  0  0  0  0  0  0
   10.9210   46.4510   51.8480 F   0  0  0  0  0  0  0  0  0  0  0  0
   10.2750   47.5360   53.7100 F   0  0  0  0  0  0  0  0  0  0  0  0
    6.3700   46.5800   52.1510 C   0  0  0  0  0  0  0  0  0  0  0  0
    2.0570   44.9930   53.6270 C   0  0  0  0  0  0  0  0  0  0  0  0
    1.1190   45.0290   52.5800 C   0  0  0  0  0  0  0  0  0  0  0  0
   -0.2460   44.8870   52.8430 C   0  0  0  0  0  0  0  0  0  0  0  0
   -0.7020   44.7150   54.1610 C   0  0  0  0  0  0  0  0  0  0  0  0
   -2.0990   44.5410   54.4540 N   0  0  0  0  0  0  0  0  0  0  0  0
   -2.6330   44.3910   55.7780 C   0  0  0  0  0  0  0  0  0  0  0  0
   -2.9450   45.4810   56.5330 N   0  0  0  0  0  0  0  0  0  0  0  0
   -3.4230   45.3450   57.7960 C   0  0  0  0  0  0  0  0  0  0  0  0
   -3.5910   44.0740   58.3430 C   0  0  0  0  0  0  0  0  0  0  0  0
   -3.2550   42.9680   57.5650 C   0  0  0  0  0  0  0  0  0  0  0  0
   -2.7790   43.1460   56.3050 N   0  0  0  0  0  0  0  0  0  0  0  0
    0.2330   44.6440   55.2020 C   0  0  0  0  0  0  0  0  0  0  0  0
    1.5980   44.7870   54.9400 C   0  0  0  0  0  0  0  0  0  0  0  0
    3.3750   46.7270   51.9330 H   0  0  0  0  0  0  0  0  0  0  0  0
    4.6779   44.2379   50.3167 H   0  0  0  0  0  0  0  0  0  0  0  0
    6.9438   43.9749   49.3109 H   0  0  0  0  0  0  0  0  0  0  0  0
    8.8416   45.3731   50.1153 H   0  0  0  0  0  0  0  0  0  0  0  0
    9.5831   45.6964   53.1949 H   0  0  0  0  0  0  0  0  0  0  0  0
    6.2121   47.3043   52.9637 H   0  0  0  0  0  0  0  0  0  0  0  0
    1.4628   45.1702   51.5447 H   0  0  0  0  0  0  0  0  0  0  0  0
   -0.9679   44.9100   52.0133 H   0  0  0  0  0  0  0  0  0  0  0  0
   -2.7620   44.4380   53.6520 H   0  0  0  0  0  0  0  0  0  0  0  0
   -3.6776   46.2369   58.3873 H   0  0  0  0  0  0  0  0  0  0  0  0
   -3.9795   43.9472   59.3643 H   0  0  0  0  0  0  0  0  0  0  0  0
   -3.3749   41.9524   57.9703 H   0  0  0  0  0  0  0  0  0  0  0  0
   -0.1101   44.4744   56.2333 H   0  0  0  0  0  0  0  0  0  0  0  0
    2.3200   44.7380   55.7684 H   0  0  0  0  0  0  0  0  0  0  0  0
  1  2  2  0
  2  3  1  0
  3  4  1  0
  4  5  2  0
  5  6  1  0
  6  7  2  0
  7  8  1  0
  8  9  1  0
  9 10  1  0
 10 11  1  0
 10 12  1  0
  8 13  2  0
  2 14  1  0
 14 15  2  0
 15 16  1  0
 16 17  2  0
 17 18  1  0
 18 19  1  0
 19 20  2  0
 20 21  1  0
 21 22  2  0
 22 23  1  0
 23 24  2  0
 17 25  1  0
 25 26  2  0
 13  4  1  0
 26 14  1  0
 24 19  1  0
  3 27  1  0
  5 28  1  0
  6 29  1  0
  7 30  1  0
 10 31  1  0
 13 32  1  0
 15 33  1  0
 16 34  1  0
 18 35  1  0
 21 36  1  0
 22 37  1  0
 23 38  1  0
 25 39  1  0
 26 40  1  0
M  END
>  <meeko>  (5) 
{"is_sidechain": [false], "free_energy": -8.063, "intermolecular_energy": -10.664, "internal_energy": -0.715}

$$$$
