ligand_65_conformer_4_docked
     RDKit          3D

 34 37  0  0  0  0  0  0  0  0999 V2000
    4.3050   45.2640   55.3170 C   0  0  0  0  0  0  0  0  0  0  0  0
    3.3500   46.2910   54.6910 C   0  0  1  0  0  0  0  0  0  0  0  0
    4.0620   47.1620   53.7490 N   0  0  0  0  0  0  0  0  0  0  0  0
    5.3900   46.9100   53.2550 C   0  0  0  0  0  0  0  0  0  0  0  0
    6.4970   47.3160   53.9490 N   0  0  0  0  0  0  0  0  0  0  0  0
    7.7660   47.0730   53.4970 C   0  0  0  0  0  0  0  0  0  0  0  0
    8.8780   47.4980   54.2290 C   0  0  0  0  0  0  0  0  0  0  0  0
   10.1690   47.2390   53.7500 C   0  0  0  0  0  0  0  0  0  0  0  0
   10.3500   46.5570   52.5400 C   0  0  0  0  0  0  0  0  0  0  0  0
    9.2440   46.1260   51.7980 C   0  0  0  0  0  0  0  0  0  0  0  0
    7.9520   46.3830   52.2740 C   0  0  0  0  0  0  0  0  0  0  0  0
    6.8340   45.9950   51.6110 N   0  0  0  0  0  0  0  0  0  0  0  0
    6.7180   45.3440   50.4700 N   0  0  0  0  0  0  0  0  0  0  0  0
    5.4200   45.1900   50.2250 N   0  0  0  0  0  0  0  0  0  0  0  0
    4.6900   45.7330   51.1990 N   0  0  0  0  0  0  0  0  0  0  0  0
    5.6010   46.2310   52.0540 C   0  0  0  0  0  0  0  0  0  0  0  0
    2.1090   45.7040   54.0470 C   0  0  0  0  0  0  0  0  0  0  0  0
    1.6220   46.1110   52.7880 C   0  0  0  0  0  0  0  0  0  0  0  0
    0.4820   45.5580   52.3000 N   0  0  0  0  0  0  0  0  0  0  0  0
   -0.2060   44.6200   53.0000 C   0  0  0  0  0  0  0  0  0  0  0  0
    0.2650   44.2170   54.2490 C   0  0  0  0  0  0  0  0  0  0  0  0
    1.4040   44.7690   54.7420 N   0  0  0  0  0  0  0  0  0  0  0  0
    4.2451   45.3284   56.4135 H   0  0  0  0  0  0  0  0  0  0  0  0
    4.0192   44.2524   54.9929 H   0  0  0  0  0  0  0  0  0  0  0  0
    5.3347   45.4756   54.9929 H   0  0  0  0  0  0  0  0  0  0  0  0
    2.9787   46.8855   55.5387 H   0  0  0  0  0  0  0  0  0  0  0  0
    3.5590   48.0110   53.4060 H   0  0  0  0  0  0  0  0  0  0  0  0
    8.7400   48.0347   55.1792 H   0  0  0  0  0  0  0  0  0  0  0  0
   11.0442   47.5727   54.3267 H   0  0  0  0  0  0  0  0  0  0  0  0
   11.3671   46.3590   52.1707 H   0  0  0  0  0  0  0  0  0  0  0  0
    9.3884   45.5897   50.8485 H   0  0  0  0  0  0  0  0  0  0  0  0
    2.1621   46.8715   52.2050 H   0  0  0  0  0  0  0  0  0  0  0  0
   -1.1262   44.1821   52.5858 H   0  0  0  0  0  0  0  0  0  0  0  0
   -0.2809   43.4589   54.8298 H   0  0  0  0  0  0  0  0  0  0  0  0
  1  2  1  0
  2  3  1  0
  3  4  1  0
  4  5  2  0
  5  6  1  0
  6  7  2  0
  7  8  1  0
  8  9  2  0
  9 10  1  0
 10 11  2  0
 11 12  1  0
 12 13  1  0
 13 14  2  0
 14 15  1  0
 15 16  2  0
  2 17  1  0
 17 18  2  0
 18 19  1  0
 19 20  2  0
 20 21  1  0
 21 22  2  0
 16  4  1  0
 22 17  1  0
 11  6  1  0
 16 12  1  0
  1 23  1  0
  1 24  1  0
  1 25  1  0
  2 26  1  1
  3 27  1  0
  7 28  1  0
  8 29  1  0
  9 30  1  0
 10 31  1  0
 18 32  1  0
 20 33  1  0
 21 34  1  0
M  END
>  <meeko>  (1) 
{"is_sidechain": [false], "free_energy": -8.863, "intermolecular_energy": -10.417, "internal_energy": -0.38}

$$$$
ligand_65_conformer_4_docked
     RDKit          3D

 34 37  0  0  0  0  0  0  0  0999 V2000
    4.9780   45.5370   55.1860 C   0  0  0  0  0  0  0  0  0  0  0  0
    3.9050   46.4440   54.5640 C   0  0  1  0  0  0  0  0  0  0  0  0
    4.3920   47.0550   53.3220 N   0  0  0  0  0  0  0  0  0  0  0  0
    5.3710   46.4580   52.4530 C   0  0  0  0  0  0  0  0  0  0  0  0
    5.0860   45.3380   51.7220 N   0  0  0  0  0  0  0  0  0  0  0  0
    6.0030   44.7660   50.8830 C   0  0  0  0  0  0  0  0  0  0  0  0
    5.6820   43.6230   50.1450 C   0  0  0  0  0  0  0  0  0  0  0  0
    6.6350   43.0530   49.2910 C   0  0  0  0  0  0  0  0  0  0  0  0
    7.9100   43.6220   49.1740 C   0  0  0  0  0  0  0  0  0  0  0  0
    8.2430   44.7670   49.9080 C   0  0  0  0  0  0  0  0  0  0  0  0
    7.2930   45.3400   50.7620 C   0  0  0  0  0  0  0  0  0  0  0  0
    7.5440   46.4480   51.5020 N   0  0  0  0  0  0  0  0  0  0  0  0
    8.6410   47.1760   51.5780 N   0  0  0  0  0  0  0  0  0  0  0  0
    8.4090   48.1660   52.4350 N   0  0  0  0  0  0  0  0  0  0  0  0
    7.1680   48.0890   52.9160 N   0  0  0  0  0  0  0  0  0  0  0  0
    6.6490   47.0050   52.3160 C   0  0  0  0  0  0  0  0  0  0  0  0
    2.5570   45.7860   54.3460 C   0  0  0  0  0  0  0  0  0  0  0  0
    1.9350   44.9580   55.3040 C   0  0  0  0  0  0  0  0  0  0  0  0
    0.7410   44.3780   55.0140 N   0  0  0  0  0  0  0  0  0  0  0  0
    0.1310   44.5750   53.8170 C   0  0  0  0  0  0  0  0  0  0  0  0
    0.7430   45.3860   52.8630 C   0  0  0  0  0  0  0  0  0  0  0  0
    1.9370   45.9660   53.1470 N   0  0  0  0  0  0  0  0  0  0  0  0
    4.9134   45.5916   56.2827 H   0  0  0  0  0  0  0  0  0  0  0  0
    4.8146   44.4991   54.8603 H   0  0  0  0  0  0  0  0  0  0  0  0
    5.9742   45.8710   54.8603 H   0  0  0  0  0  0  0  0  0  0  0  0
    3.7239   47.2256   55.3166 H   0  0  0  0  0  0  0  0  0  0  0  0
    3.9830   47.9770   53.0490 H   0  0  0  0  0  0  0  0  0  0  0  0
    4.6828   43.1719   50.2347 H   0  0  0  0  0  0  0  0  0  0  0  0
    6.3811   42.1544   48.7095 H   0  0  0  0  0  0  0  0  0  0  0  0
    8.6529   43.1671   48.5023 H   0  0  0  0  0  0  0  0  0  0  0  0
    9.2441   45.2132   49.8143 H   0  0  0  0  0  0  0  0  0  0  0  0
    2.4133   44.7832   56.2790 H   0  0  0  0  0  0  0  0  0  0  0  0
   -0.8371   44.0990   53.6023 H   0  0  0  0  0  0  0  0  0  0  0  0
    0.2625   45.5547   51.8880 H   0  0  0  0  0  0  0  0  0  0  0  0
  1  2  1  0
  2  3  1  0
  3  4  1  0
  4  5  2  0
  5  6  1  0
  6  7  2  0
  7  8  1  0
  8  9  2  0
  9 10  1  0
 10 11  2  0
 11 12  1  0
 12 13  1  0
 13 14  2  0
 14 15  1  0
 15 16  2  0
  2 17  1  0
 17 18  2  0
 18 19  1  0
 19 20  2  0
 20 21  1  0
 21 22  2  0
 16  4  1  0
 22 17  1  0
 11  6  1  0
 16 12  1  0
  1 23  1  0
  1 24  1  0
  1 25  1  0
  2 26  1  1
  3 27  1  0
  7 28  1  0
  8 29  1  0
  9 30  1  0
 10 31  1  0
 18 32  1  0
 20 33  1  0
 21 34  1  0
M  END
>  <meeko>  (2) 
{"is_sidechain": [false], "free_energy": -8.72, "intermolecular_energy": -10.16, "internal_energy": -0.47}

$$$$
ligand_65_conformer_4_docked
     RDKit          3D

 34 37  0  0  0  0  0  0  0  0999 V2000
    3.8190   42.0290   51.1540 C   0  0  0  0  0  0  0  0  0  0  0  0
    3.8880   43.4340   51.7710 C   0  0  1  0  0  0  0  0  0  0  0  0
    4.5840   44.3650   50.8770 N   0  0  0  0  0  0  0  0  0  0  0  0
    5.9230   44.8480   51.0900 C   0  0  0  0  0  0  0  0  0  0  0  0
    6.2110   45.7250   52.1000 N   0  0  0  0  0  0  0  0  0  0  0  0
    7.4810   46.1840   52.3210 C   0  0  0  0  0  0  0  0  0  0  0  0
    7.7460   47.0770   53.3630 C   0  0  0  0  0  0  0  0  0  0  0  0
    9.0530   47.5340   53.5730 C   0  0  0  0  0  0  0  0  0  0  0  0
   10.0960   47.1020   52.7440 C   0  0  0  0  0  0  0  0  0  0  0  0
    9.8430   46.2070   51.6980 C   0  0  0  0  0  0  0  0  0  0  0  0
    8.5380   45.7460   51.4850 C   0  0  0  0  0  0  0  0  0  0  0  0
    8.2180   44.8790   50.4920 N   0  0  0  0  0  0  0  0  0  0  0  0
    8.9930   44.3180   49.5850 N   0  0  0  0  0  0  0  0  0  0  0  0
    8.2270   43.5380   48.8280 N   0  0  0  0  0  0  0  0  0  0  0  0
    6.9590   43.5850   49.2370 N   0  0  0  0  0  0  0  0  0  0  0  0
    6.9810   44.4320   50.2800 C   0  0  0  0  0  0  0  0  0  0  0  0
    2.5560   44.0060   52.2130 C   0  0  0  0  0  0  0  0  0  0  0  0
    2.0910   45.2780   51.8220 C   0  0  0  0  0  0  0  0  0  0  0  0
    0.8990   45.7310   52.2930 N   0  0  0  0  0  0  0  0  0  0  0  0
    0.1440   44.9840   53.1380 C   0  0  0  0  0  0  0  0  0  0  0  0
    0.6000   43.7280   53.5350 C   0  0  0  0  0  0  0  0  0  0  0  0
    1.7910   43.2730   53.0690 N   0  0  0  0  0  0  0  0  0  0  0  0
    3.7821   41.2775   51.9565 H   0  0  0  0  0  0  0  0  0  0  0  0
    2.9157   41.9457   50.5318 H   0  0  0  0  0  0  0  0  0  0  0  0
    4.7098   41.8576   50.5318 H   0  0  0  0  0  0  0  0  0  0  0  0
    4.4666   43.3082   52.6980 H   0  0  0  0  0  0  0  0  0  0  0  0
    4.0730   44.6800   50.0210 H   0  0  0  0  0  0  0  0  0  0  0  0
    6.9302   47.4199   54.0163 H   0  0  0  0  0  0  0  0  0  0  0  0
    9.2616   48.2362   54.3936 H   0  0  0  0  0  0  0  0  0  0  0  0
   11.1190   47.4679   52.9158 H   0  0  0  0  0  0  0  0  0  0  0  0
   10.6633   45.8683   51.0481 H   0  0  0  0  0  0  0  0  0  0  0  0
    2.6890   45.9002   51.1399 H   0  0  0  0  0  0  0  0  0  0  0  0
   -0.8194   45.3664   53.5064 H   0  0  0  0  0  0  0  0  0  0  0  0
   -0.0001   43.1109   54.2199 H   0  0  0  0  0  0  0  0  0  0  0  0
  1  2  1  0
  2  3  1  0
  3  4  1  0
  4  5  2  0
  5  6  1  0
  6  7  2  0
  7  8  1  0
  8  9  2  0
  9 10  1  0
 10 11  2  0
 11 12  1  0
 12 13  1  0
 13 14  2  0
 14 15  1  0
 15 16  2  0
  2 17  1  0
 17 18  2  0
 18 19  1  0
 19 20  2  0
 20 21  1  0
 21 22  2  0
 16  4  1  0
 22 17  1  0
 11  6  1  0
 16 12  1  0
  1 23  1  0
  1 24  1  0
  1 25  1  0
  2 26  1  1
  3 27  1  0
  7 28  1  0
  8 29  1  0
  9 30  1  0
 10 31  1  0
 18 32  1  0
 20 33  1  0
 21 34  1  0
M  END
>  <meeko>  (3) 
{"is_sidechain": [false], "free_energy": -8.538, "intermolecular_energy": -9.947, "internal_energy": -0.469}

$$$$
ligand_65_conformer_4_docked
     RDKit          3D

 34 37  0  0  0  0  0  0  0  0999 V2000
    4.5950   42.3390   50.5410 C   0  0  0  0  0  0  0  0  0  0  0  0
    4.1690   43.4120   51.5550 C   0  0  1  0  0  0  0  0  0  0  0  0
    4.7100   44.7250   51.1870 N   0  0  0  0  0  0  0  0  0  0  0  0
    5.7110   45.4310   51.9430 C   0  0  0  0  0  0  0  0  0  0  0  0
    7.0300   45.3980   51.5830 N   0  0  0  0  0  0  0  0  0  0  0  0
    7.9910   46.0730   52.2860 C   0  0  0  0  0  0  0  0  0  0  0  0
    9.3310   46.0240   51.8930 C   0  0  0  0  0  0  0  0  0  0  0  0
   10.2990   46.7230   52.6250 C   0  0  0  0  0  0  0  0  0  0  0  0
    9.9310   47.4710   53.7510 C   0  0  0  0  0  0  0  0  0  0  0  0
    8.5910   47.5280   54.1550 C   0  0  0  0  0  0  0  0  0  0  0  0
    7.6210   46.8310   53.4240 C   0  0  0  0  0  0  0  0  0  0  0  0
    6.3050   46.8410   53.7550 N   0  0  0  0  0  0  0  0  0  0  0  0
    5.6940   47.4570   54.7480 N   0  0  0  0  0  0  0  0  0  0  0  0
    4.3980   47.1710   54.6610 N   0  0  0  0  0  0  0  0  0  0  0  0
    4.1610   46.3760   53.6180 N   0  0  0  0  0  0  0  0  0  0  0  0
    5.3720   46.1850   53.0680 C   0  0  0  0  0  0  0  0  0  0  0  0
    2.6770   43.4980   51.8090 C   0  0  0  0  0  0  0  0  0  0  0  0
    1.8370   44.4420   51.1840 C   0  0  0  0  0  0  0  0  0  0  0  0
    0.5150   44.4740   51.4960 N   0  0  0  0  0  0  0  0  0  0  0  0
   -0.0190   43.6150   52.4020 C   0  0  0  0  0  0  0  0  0  0  0  0
    0.8070   42.6830   53.0300 C   0  0  0  0  0  0  0  0  0  0  0  0
    2.1290   42.6490   52.7230 N   0  0  0  0  0  0  0  0  0  0  0  0
    4.9492   41.4469   51.0782 H   0  0  0  0  0  0  0  0  0  0  0  0
    3.7356   42.0696   49.9094 H   0  0  0  0  0  0  0  0  0  0  0  0
    5.4051   42.7324   49.9094 H   0  0  0  0  0  0  0  0  0  0  0  0
    4.6041   43.0859   52.5112 H   0  0  0  0  0  0  0  0  0  0  0  0
    4.3540   45.1610   50.3070 H   0  0  0  0  0  0  0  0  0  0  0  0
    9.6251   45.4374   51.0102 H   0  0  0  0  0  0  0  0  0  0  0  0
   11.3535   46.6845   52.3143 H   0  0  0  0  0  0  0  0  0  0  0  0
   10.6981   48.0162   54.3206 H   0  0  0  0  0  0  0  0  0  0  0  0
    8.3030   48.1155   55.0393 H   0  0  0  0  0  0  0  0  0  0  0  0
    2.2493   45.1483   50.4483 H   0  0  0  0  0  0  0  0  0  0  0  0
   -1.0926   43.6538   52.6383 H   0  0  0  0  0  0  0  0  0  0  0  0
    0.3908   41.9814   53.7679 H   0  0  0  0  0  0  0  0  0  0  0  0
  1  2  1  0
  2  3  1  0
  3  4  1  0
  4  5  2  0
  5  6  1  0
  6  7  2  0
  7  8  1  0
  8  9  2  0
  9 10  1  0
 10 11  2  0
 11 12  1  0
 12 13  1  0
 13 14  2  0
 14 15  1  0
 15 16  2  0
  2 17  1  0
 17 18  2  0
 18 19  1  0
 19 20  2  0
 20 21  1  0
 21 22  2  0
 16  4  1  0
 22 17  1  0
 11  6  1  0
 16 12  1  0
  1 23  1  0
  1 24  1  0
  1 25  1  0
  2 26  1  1
  3 27  1  0
  7 28  1  0
  8 29  1  0
  9 30  1  0
 10 31  1  0
 18 32  1  0
 20 33  1  0
 21 34  1  0
M  END
>  <meeko>  (4) 
{"is_sidechain": [false], "free_energy": -8.5, "intermolecular_energy": -9.872, "internal_energy": -0.498}

$$$$
ligand_65_conformer_4_docked
     RDKit          3D

 34 37  0  0  0  0  0  0  0  0999 V2000
    0.9350   45.3300   55.9240 C   0  0  0  0  0  0  0  0  0  0  0  0
    1.4900   45.0700   54.5160 C   0  0  1  0  0  0  0  0  0  0  0  0
    2.8120   44.4370   54.5830 N   0  0  0  0  0  0  0  0  0  0  0  0
    3.9150   44.7670   53.7190 C   0  0  0  0  0  0  0  0  0  0  0  0
    4.2100   44.0080   52.6200 N   0  0  0  0  0  0  0  0  0  0  0  0
    5.2490   44.3160   51.7830 C   0  0  0  0  0  0  0  0  0  0  0  0
    5.5250   43.5240   50.6650 C   0  0  0  0  0  0  0  0  0  0  0  0
    6.5920   43.8570   49.8210 C   0  0  0  0  0  0  0  0  0  0  0  0
    7.3840   44.9800   50.0920 C   0  0  0  0  0  0  0  0  0  0  0  0
    7.1180   45.7810   51.2090 C   0  0  0  0  0  0  0  0  0  0  0  0
    6.0510   45.4520   52.0550 C   0  0  0  0  0  0  0  0  0  0  0  0
    5.7330   46.1820   53.1530 N   0  0  0  0  0  0  0  0  0  0  0  0
    6.3010   47.2710   53.6310 N   0  0  0  0  0  0  0  0  0  0  0  0
    5.6350   47.6250   54.7260 N   0  0  0  0  0  0  0  0  0  0  0  0
    4.6360   46.7750   54.9640 N   0  0  0  0  0  0  0  0  0  0  0  0
    4.7200   45.8810   53.9640 C   0  0  0  0  0  0  0  0  0  0  0  0
    0.5680   44.2940   53.5960 C   0  0  0  0  0  0  0  0  0  0  0  0
    0.3350   42.9090   53.7200 C   0  0  0  0  0  0  0  0  0  0  0  0
   -0.4790   42.2840   52.8310 N   0  0  0  0  0  0  0  0  0  0  0  0
   -1.0750   42.9640   51.8180 C   0  0  0  0  0  0  0  0  0  0  0  0
   -0.8440   44.3330   51.6840 C   0  0  0  0  0  0  0  0  0  0  0  0
   -0.0280   44.9610   52.5690 N   0  0  0  0  0  0  0  0  0  0  0  0
    1.6636   44.9887   56.6741 H   0  0  0  0  0  0  0  0  0  0  0  0
    0.7529   46.4071   56.0532 H   0  0  0  0  0  0  0  0  0  0  0  0
   -0.0091   44.7805   56.0532 H   0  0  0  0  0  0  0  0  0  0  0  0
    1.5782   46.0662   54.0580 H   0  0  0  0  0  0  0  0  0  0  0  0
    2.9600   43.7120   55.3210 H   0  0  0  0  0  0  0  0  0  0  0  0
    4.9056   42.6411   50.4484 H   0  0  0  0  0  0  0  0  0  0  0  0
    6.8090   43.2336   48.9411 H   0  0  0  0  0  0  0  0  0  0  0  0
    8.2197   45.2340   49.4234 H   0  0  0  0  0  0  0  0  0  0  0  0
    7.7420   46.6618   51.4207 H   0  0  0  0  0  0  0  0  0  0  0  0
    0.8097   42.3384   54.5318 H   0  0  0  0  0  0  0  0  0  0  0  0
   -1.7338   42.4402   51.1097 H   0  0  0  0  0  0  0  0  0  0  0  0
   -1.3186   44.8987   50.8687 H   0  0  0  0  0  0  0  0  0  0  0  0
  1  2  1  0
  2  3  1  0
  3  4  1  0
  4  5  2  0
  5  6  1  0
  6  7  2  0
  7  8  1  0
  8  9  2  0
  9 10  1  0
 10 11  2  0
 11 12  1  0
 12 13  1  0
 13 14  2  0
 14 15  1  0
 15 16  2  0
  2 17  1  0
 17 18  2  0
 18 19  1  0
 19 20  2  0
 20 21  1  0
 21 22  2  0
 16  4  1  0
 22 17  1  0
 11  6  1  0
 16 12  1  0
  1 23  1  0
  1 24  1  0
  1 25  1  0
  2 26  1  6
  3 27  1  0
  7 28  1  0
  8 29  1  0
  9 30  1  0
 10 31  1  0
 18 32  1  0
 20 33  1  0
 21 34  1  0
M  END
>  <meeko>  (5) 
{"is_sidechain": [false], "free_energy": -8.271, "intermolecular_energy": -9.585, "internal_energy": -0.517}

$$$$
