ligand_46_conformer_2_docked
     RDKit          3D

 53 57  0  0  0  0  0  0  0  0999 V2000
    0.3080   42.7140   52.4500 O   0  0  0  0  0  0  0  0  0  0  0  0
    0.7560   43.7040   53.0880 C   0  0  0  0  0  0  0  0  0  0  0  0
    1.9840   44.3780   52.6160 C   0  0  0  0  0  0  0  0  0  0  0  0
    2.0250   44.9240   51.3040 C   0  0  0  0  0  0  0  0  0  0  0  0
    3.1800   45.5700   50.8280 C   0  0  0  0  0  0  0  0  0  0  0  0
    4.2780   45.6470   51.6780 C   0  0  0  0  0  0  0  0  0  0  0  0
    5.5220   46.2040   51.4850 C   0  0  0  0  0  0  0  0  0  0  0  0
    6.2190   45.9650   52.6730 C   0  0  0  0  0  0  0  0  0  0  0  0
    7.6170   46.3790   52.9500 C   0  0  0  0  0  0  0  0  0  0  0  0
    8.6170   46.2290   51.9710 C   0  0  0  0  0  0  0  0  0  0  0  0
    9.9330   46.6200   52.2350 C   0  0  0  0  0  0  0  0  0  0  0  0
   10.2670   47.1650   53.4770 C   0  0  0  0  0  0  0  0  0  0  0  0
    9.2860   47.3210   54.4560 C   0  0  0  0  0  0  0  0  0  0  0  0
    7.9670   46.9320   54.1980 C   0  0  0  0  0  0  0  0  0  0  0  0
    5.4350   45.2940   53.5550 N   0  0  0  0  0  0  0  0  0  0  0  0
    4.2570   45.1110   52.9350 C   0  0  0  0  0  0  0  0  0  0  0  0
    3.1290   44.4650   53.4390 C   0  0  0  0  0  0  0  0  0  0  0  0
    0.0320   44.1760   54.2270 N   0  0  0  0  0  0  0  0  0  0  0  0
    0.0200   45.3360   55.1410 C   0  0  0  0  0  0  0  0  0  0  0  0
   -1.2510   44.9720   55.8450 C   0  0  0  0  0  0  0  0  0  0  0  0
   -2.3510   45.8990   55.5430 N   0  0  0  0  0  0  0  0  0  0  0  0
   -3.1250   46.2400   56.7550 C   0  0  0  0  0  0  0  0  0  0  0  0
   -2.1720   46.3990   57.9490 C   0  0  0  0  0  0  0  0  0  0  0  0
   -1.4450   47.7480   57.8920 C   0  0  0  0  0  0  0  0  0  0  0  0
   -2.3730   48.8160   57.8780 O   0  0  0  0  0  0  0  0  0  0  0  0
   -3.1160   48.7910   56.6750 C   0  0  0  0  0  0  0  0  0  0  0  0
   -3.9740   47.5190   56.5760 C   0  0  0  0  0  0  0  0  0  0  0  0
   -1.2180   43.8010   54.9140 C   0  0  0  0  0  0  0  0  0  0  0  0
    1.1423   44.8401   50.6530 H   0  0  0  0  0  0  0  0  0  0  0  0
    3.2138   46.0004   49.8163 H   0  0  0  0  0  0  0  0  0  0  0  0
    5.8888   46.7252   50.5885 H   0  0  0  0  0  0  0  0  0  0  0  0
    8.3611   45.8008   50.9906 H   0  0  0  0  0  0  0  0  0  0  0  0
   10.7071   46.4982   51.4630 H   0  0  0  0  0  0  0  0  0  0  0  0
   11.3033   47.4710   53.6828 H   0  0  0  0  0  0  0  0  0  0  0  0
    9.5499   47.7510   55.4335 H   0  0  0  0  0  0  0  0  0  0  0  0
    7.1982   47.0587   54.9744 H   0  0  0  0  0  0  0  0  0  0  0  0
    5.6730   44.9950   54.5260 H   0  0  0  0  0  0  0  0  0  0  0  0
    3.1305   44.0342   54.4511 H   0  0  0  0  0  0  0  0  0  0  0  0
    0.8887   45.3538   55.8156 H   0  0  0  0  0  0  0  0  0  0  0  0
    0.0700   46.3348   54.6828 H   0  0  0  0  0  0  0  0  0  0  0  0
   -1.3539   44.8953   56.9375 H   0  0  0  0  0  0  0  0  0  0  0  0
   -2.9720   45.4500   54.8310 H   0  0  0  0  0  0  0  0  0  0  0  0
   -3.8267   45.4138   56.9420 H   0  0  0  0  0  0  0  0  0  0  0  0
   -2.7511   46.3410   58.8824 H   0  0  0  0  0  0  0  0  0  0  0  0
   -1.4233   45.5940   57.9111 H   0  0  0  0  0  0  0  0  0  0  0  0
   -0.7954   47.8457   58.7743 H   0  0  0  0  0  0  0  0  0  0  0  0
   -0.8457   47.7881   56.9705 H   0  0  0  0  0  0  0  0  0  0  0  0
   -3.7748   49.6713   56.6421 H   0  0  0  0  0  0  0  0  0  0  0  0
   -2.4110   48.8014   55.8307 H   0  0  0  0  0  0  0  0  0  0  0  0
   -4.7450   47.5474   57.3600 H   0  0  0  0  0  0  0  0  0  0  0  0
   -4.4295   47.4903   55.5752 H   0  0  0  0  0  0  0  0  0  0  0  0
   -1.1385   42.8404   55.4440 H   0  0  0  0  0  0  0  0  0  0  0  0
   -2.1048   43.6394   54.2836 H   0  0  0  0  0  0  0  0  0  0  0  0
  1  2  2  0
  2  3  1  0
  3  4  2  0
  4  5  1  0
  5  6  2  0
  6  7  1  0
  7  8  2  0
  8  9  1  0
  9 10  2  0
 10 11  1  0
 11 12  2  0
 12 13  1  0
 13 14  2  0
  8 15  1  0
 15 16  1  0
 16 17  2  0
  2 18  1  0
 18 19  1  0
 19 20  1  0
 20 21  1  0
 21 22  1  0
 22 23  1  0
 23 24  1  0
 24 25  1  0
 25 26  1  0
 26 27  1  0
 20 28  1  0
 17  3  1  0
 28 18  1  0
 16  6  1  0
 27 22  1  0
 14  9  1  0
  4 29  1  0
  5 30  1  0
  7 31  1  0
 10 32  1  0
 11 33  1  0
 12 34  1  0
 13 35  1  0
 14 36  1  0
 15 37  1  0
 17 38  1  0
 19 39  1  0
 19 40  1  0
 20 41  1  0
 21 42  1  0
 22 43  1  0
 23 44  1  0
 23 45  1  0
 24 46  1  0
 24 47  1  0
 26 48  1  0
 26 49  1  0
 27 50  1  0
 27 51  1  0
 28 52  1  0
 28 53  1  0
M  END
>  <meeko>  (1) 
{"is_sidechain": [false], "free_energy": -8.912, "intermolecular_energy": -10.996, "internal_energy": -0.602}

$$$$
ligand_46_conformer_2_docked
     RDKit          3D

 53 57  0  0  0  0  0  0  0  0999 V2000
    3.7170   42.0280   51.3240 O   0  0  0  0  0  0  0  0  0  0  0  0
    3.6320   43.2050   51.7670 C   0  0  0  0  0  0  0  0  0  0  0  0
    2.5680   43.5420   52.7350 C   0  0  0  0  0  0  0  0  0  0  0  0
    1.3090   42.8880   52.6520 C   0  0  0  0  0  0  0  0  0  0  0  0
    0.2790   43.1900   53.5600 C   0  0  0  0  0  0  0  0  0  0  0  0
    0.5300   44.1530   54.5310 C   0  0  0  0  0  0  0  0  0  0  0  0
   -0.2780   44.6490   55.5290 C   0  0  0  0  0  0  0  0  0  0  0  0
    0.4980   45.6100   56.1850 C   0  0  0  0  0  0  0  0  0  0  0  0
    0.0600   46.4280   57.3420 C   0  0  0  0  0  0  0  0  0  0  0  0
   -1.2790   46.8460   57.4580 C   0  0  0  0  0  0  0  0  0  0  0  0
   -1.6890   47.6170   58.5510 C   0  0  0  0  0  0  0  0  0  0  0  0
   -0.7700   47.9800   59.5380 C   0  0  0  0  0  0  0  0  0  0  0  0
    0.5600   47.5720   59.4360 C   0  0  0  0  0  0  0  0  0  0  0  0
    0.9760   46.8000   58.3460 C   0  0  0  0  0  0  0  0  0  0  0  0
    1.7270   45.6960   55.6130 N   0  0  0  0  0  0  0  0  0  0  0  0
    1.7300   44.8020   54.6100 C   0  0  0  0  0  0  0  0  0  0  0  0
    2.7740   44.5270   53.7280 C   0  0  0  0  0  0  0  0  0  0  0  0
    4.6030   44.1690   51.3530 N   0  0  0  0  0  0  0  0  0  0  0  0
    5.0420   45.5350   51.7030 C   0  0  0  0  0  0  0  0  0  0  0  0
    6.2590   45.5420   50.8310 C   0  0  0  0  0  0  0  0  0  0  0  0
    7.5090   45.5380   51.6040 N   0  0  0  0  0  0  0  0  0  0  0  0
    8.3240   46.7390   51.3290 C   0  0  0  0  0  0  0  0  0  0  0  0
    7.8760   47.8880   52.2450 C   0  0  0  0  0  0  0  0  0  0  0  0
    8.4210   47.7000   53.6660 C   0  0  0  0  0  0  0  0  0  0  0  0
    9.8330   47.6260   53.6530 O   0  0  0  0  0  0  0  0  0  0  0  0
   10.2470   46.4510   52.9840 C   0  0  0  0  0  0  0  0  0  0  0  0
    9.8390   46.4810   51.5020 C   0  0  0  0  0  0  0  0  0  0  0  0
    5.7960   44.1610   50.4850 C   0  0  0  0  0  0  0  0  0  0  0  0
    1.1383   42.1361   51.8675 H   0  0  0  0  0  0  0  0  0  0  0  0
   -0.6944   42.6807   53.5040 H   0  0  0  0  0  0  0  0  0  0  0  0
   -1.3118   44.3531   55.7607 H   0  0  0  0  0  0  0  0  0  0  0  0
   -2.0081   46.5645   56.6839 H   0  0  0  0  0  0  0  0  0  0  0  0
   -2.7379   47.9381   58.6332 H   0  0  0  0  0  0  0  0  0  0  0  0
   -1.0949   48.5875   60.3956 H   0  0  0  0  0  0  0  0  0  0  0  0
    1.2831   47.8578   60.2141 H   0  0  0  0  0  0  0  0  0  0  0  0
    2.0261   46.4810   58.2722 H   0  0  0  0  0  0  0  0  0  0  0  0
    2.5240   46.3080   55.8960 H   0  0  0  0  0  0  0  0  0  0  0  0
    3.7322   45.0620   53.8027 H   0  0  0  0  0  0  0  0  0  0  0  0
    4.3092   46.3030   51.4146 H   0  0  0  0  0  0  0  0  0  0  0  0
    5.1907   45.7542   52.7706 H   0  0  0  0  0  0  0  0  0  0  0  0
    6.4876   46.3246   50.0926 H   0  0  0  0  0  0  0  0  0  0  0  0
    8.0440   44.6730   51.3580 H   0  0  0  0  0  0  0  0  0  0  0  0
    8.1635   47.0121   50.2756 H   0  0  0  0  0  0  0  0  0  0  0  0
    8.2503   48.8392   51.8387 H   0  0  0  0  0  0  0  0  0  0  0  0
    6.7769   47.8944   52.2884 H   0  0  0  0  0  0  0  0  0  0  0  0
    8.1096   48.5521   54.2880 H   0  0  0  0  0  0  0  0  0  0  0  0
    8.0210   46.7615   54.0774 H   0  0  0  0  0  0  0  0  0  0  0  0
   11.3415   46.3657   53.0530 H   0  0  0  0  0  0  0  0  0  0  0  0
    9.7595   45.5884   53.4618 H   0  0  0  0  0  0  0  0  0  0  0  0
   10.3969   47.2822   50.9952 H   0  0  0  0  0  0  0  0  0  0  0  0
   10.0712   45.4993   51.0633 H   0  0  0  0  0  0  0  0  0  0  0  0
    5.5443   44.0528   49.4197 H   0  0  0  0  0  0  0  0  0  0  0  0
    6.5151   43.3417   50.6322 H   0  0  0  0  0  0  0  0  0  0  0  0
  1  2  2  0
  2  3  1  0
  3  4  2  0
  4  5  1  0
  5  6  2  0
  6  7  1  0
  7  8  2  0
  8  9  1  0
  9 10  2  0
 10 11  1  0
 11 12  2  0
 12 13  1  0
 13 14  2  0
  8 15  1  0
 15 16  1  0
 16 17  2  0
  2 18  1  0
 18 19  1  0
 19 20  1  0
 20 21  1  0
 21 22  1  0
 22 23  1  0
 23 24  1  0
 24 25  1  0
 25 26  1  0
 26 27  1  0
 20 28  1  0
 17  3  1  0
 28 18  1  0
 16  6  1  0
 27 22  1  0
 14  9  1  0
  4 29  1  0
  5 30  1  0
  7 31  1  0
 10 32  1  0
 11 33  1  0
 12 34  1  0
 13 35  1  0
 14 36  1  0
 15 37  1  0
 17 38  1  0
 19 39  1  0
 19 40  1  0
 20 41  1  0
 21 42  1  0
 22 43  1  0
 23 44  1  0
 23 45  1  0
 24 46  1  0
 24 47  1  0
 26 48  1  0
 26 49  1  0
 27 50  1  0
 27 51  1  0
 28 52  1  0
 28 53  1  0
M  END
>  <meeko>  (2) 
{"is_sidechain": [false], "free_energy": -8.884, "intermolecular_energy": -11.19, "internal_energy": -0.374}

$$$$
ligand_46_conformer_2_docked
     RDKit          3D

 53 57  0  0  0  0  0  0  0  0999 V2000
    6.1480   41.6910   49.6220 O   0  0  0  0  0  0  0  0  0  0  0  0
    5.7700   42.7420   50.2050 C   0  0  0  0  0  0  0  0  0  0  0  0
    4.4630   42.7630   50.8940 C   0  0  0  0  0  0  0  0  0  0  0  0
    3.3870   41.9880   50.3820 C   0  0  0  0  0  0  0  0  0  0  0  0
    2.1320   41.9890   51.0170 C   0  0  0  0  0  0  0  0  0  0  0  0
    1.9790   42.7780   52.1520 C   0  0  0  0  0  0  0  0  0  0  0  0
    0.8840   42.9780   52.9610 C   0  0  0  0  0  0  0  0  0  0  0  0
    1.3090   43.8870   53.9350 C   0  0  0  0  0  0  0  0  0  0  0  0
    0.4750   44.4180   55.0420 C   0  0  0  0  0  0  0  0  0  0  0  0
   -0.9080   44.1560   55.0860 C   0  0  0  0  0  0  0  0  0  0  0  0
   -1.6910   44.6560   56.1310 C   0  0  0  0  0  0  0  0  0  0  0  0
   -1.1060   45.4220   57.1420 C   0  0  0  0  0  0  0  0  0  0  0  0
    0.2640   45.6880   57.1110 C   0  0  0  0  0  0  0  0  0  0  0  0
    1.0530   45.1900   56.0690 C   0  0  0  0  0  0  0  0  0  0  0  0
    2.6070   44.2270   53.7300 N   0  0  0  0  0  0  0  0  0  0  0  0
    3.0000   43.5410   52.6440 C   0  0  0  0  0  0  0  0  0  0  0  0
    4.2570   43.5630   52.0410 C   0  0  0  0  0  0  0  0  0  0  0  0
    6.6460   43.8730   50.2230 N   0  0  0  0  0  0  0  0  0  0  0  0
    6.7610   45.1860   50.8880 C   0  0  0  0  0  0  0  0  0  0  0  0
    8.1360   45.5010   50.3870 C   0  0  0  0  0  0  0  0  0  0  0  0
    9.1450   45.4900   51.4550 N   0  0  0  0  0  0  0  0  0  0  0  0
    9.7340   46.8290   51.6630 C   0  0  0  0  0  0  0  0  0  0  0  0
    8.6550   47.9040   51.4650 C   0  0  0  0  0  0  0  0  0  0  0  0
    7.7360   47.9890   52.6890 C   0  0  0  0  0  0  0  0  0  0  0  0
    8.4840   48.2750   53.8560 O   0  0  0  0  0  0  0  0  0  0  0  0
    9.3360   47.1880   54.1590 C   0  0  0  0  0  0  0  0  0  0  0  0
   10.3870   46.9800   53.0560 C   0  0  0  0  0  0  0  0  0  0  0  0
    7.9980   44.1690   49.7170 C   0  0  0  0  0  0  0  0  0  0  0  0
    3.5377   41.3799   49.4779 H   0  0  0  0  0  0  0  0  0  0  0  0
    1.2986   41.3853   50.6285 H   0  0  0  0  0  0  0  0  0  0  0  0
   -0.1117   42.5210   52.8627 H   0  0  0  0  0  0  0  0  0  0  0  0
   -1.3754   43.5539   54.2929 H   0  0  0  0  0  0  0  0  0  0  0  0
   -2.7704   44.4456   56.1570 H   0  0  0  0  0  0  0  0  0  0  0  0
   -1.7245   45.8154   57.9621 H   0  0  0  0  0  0  0  0  0  0  0  0
    0.7241   46.2907   57.9079 H   0  0  0  0  0  0  0  0  0  0  0  0
    2.1321   45.4026   56.0513 H   0  0  0  0  0  0  0  0  0  0  0  0
    3.2010   44.8670   54.3030 H   0  0  0  0  0  0  0  0  0  0  0  0
    5.0671   44.1865   52.4472 H   0  0  0  0  0  0  0  0  0  0  0  0
    6.0068   45.9062   50.5381 H   0  0  0  0  0  0  0  0  0  0  0  0
    6.6080   45.2099   51.9771 H   0  0  0  0  0  0  0  0  0  0  0  0
    8.4086   46.4330   49.8702 H   0  0  0  0  0  0  0  0  0  0  0  0
    9.8900   44.8020   51.1960 H   0  0  0  0  0  0  0  0  0  0  0  0
   10.5339   46.9571   50.9188 H   0  0  0  0  0  0  0  0  0  0  0  0
    9.1415   48.8786   51.3116 H   0  0  0  0  0  0  0  0  0  0  0  0
    8.0480   47.6352   50.5879 H   0  0  0  0  0  0  0  0  0  0  0  0
    6.9954   48.7866   52.5300 H   0  0  0  0  0  0  0  0  0  0  0  0
    7.2309   47.0207   52.8205 H   0  0  0  0  0  0  0  0  0  0  0  0
    9.8498   47.3894   55.1106 H   0  0  0  0  0  0  0  0  0  0  0  0
    8.7244   46.2767   54.2333 H   0  0  0  0  0  0  0  0  0  0  0  0
   11.0633   47.8474   53.0402 H   0  0  0  0  0  0  0  0  0  0  0  0
   10.9375   46.0539   53.2781 H   0  0  0  0  0  0  0  0  0  0  0  0
    8.0336   44.2408   48.6199 H   0  0  0  0  0  0  0  0  0  0  0  0
    8.7814   43.4242   49.9210 H   0  0  0  0  0  0  0  0  0  0  0  0
  1  2  2  0
  2  3  1  0
  3  4  2  0
  4  5  1  0
  5  6  2  0
  6  7  1  0
  7  8  2  0
  8  9  1  0
  9 10  2  0
 10 11  1  0
 11 12  2  0
 12 13  1  0
 13 14  2  0
  8 15  1  0
 15 16  1  0
 16 17  2  0
  2 18  1  0
 18 19  1  0
 19 20  1  0
 20 21  1  0
 21 22  1  0
 22 23  1  0
 23 24  1  0
 24 25  1  0
 25 26  1  0
 26 27  1  0
 20 28  1  0
 17  3  1  0
 28 18  1  0
 16  6  1  0
 27 22  1  0
 14  9  1  0
  4 29  1  0
  5 30  1  0
  7 31  1  0
 10 32  1  0
 11 33  1  0
 12 34  1  0
 13 35  1  0
 14 36  1  0
 15 37  1  0
 17 38  1  0
 19 39  1  0
 19 40  1  0
 20 41  1  0
 21 42  1  0
 22 43  1  0
 23 44  1  0
 23 45  1  0
 24 46  1  0
 24 47  1  0
 26 48  1  0
 26 49  1  0
 27 50  1  0
 27 51  1  0
 28 52  1  0
 28 53  1  0
M  END
>  <meeko>  (3) 
{"is_sidechain": [false], "free_energy": -8.761, "intermolecular_energy": -11.347, "internal_energy": -0.065}

$$$$
ligand_46_conformer_2_docked
     RDKit          3D

 53 57  0  0  0  0  0  0  0  0999 V2000
    4.2650   41.6590   51.0070 O   0  0  0  0  0  0  0  0  0  0  0  0
    3.8800   42.8440   51.1960 C   0  0  0  0  0  0  0  0  0  0  0  0
    2.5180   43.0920   51.7140 C   0  0  0  0  0  0  0  0  0  0  0  0
    1.4080   43.0260   50.8290 C   0  0  0  0  0  0  0  0  0  0  0  0
    0.1010   43.2590   51.2930 C   0  0  0  0  0  0  0  0  0  0  0  0
   -0.0650   43.5630   52.6410 C   0  0  0  0  0  0  0  0  0  0  0  0
   -1.2050   43.8390   53.3610 C   0  0  0  0  0  0  0  0  0  0  0  0
   -0.7620   44.0910   54.6630 C   0  0  0  0  0  0  0  0  0  0  0  0
   -1.6290   44.4390   55.8160 C   0  0  0  0  0  0  0  0  0  0  0  0
   -1.6650   45.7560   56.3140 C   0  0  0  0  0  0  0  0  0  0  0  0
   -2.4830   46.0810   57.4000 C   0  0  0  0  0  0  0  0  0  0  0  0
   -3.2740   45.1000   58.0020 C   0  0  0  0  0  0  0  0  0  0  0  0
   -3.2500   43.7920   57.5170 C   0  0  0  0  0  0  0  0  0  0  0  0
   -2.4340   43.4600   56.4310 C   0  0  0  0  0  0  0  0  0  0  0  0
    0.5880   43.9710   54.7360 N   0  0  0  0  0  0  0  0  0  0  0  0
    0.9960   43.6470   53.4970 C   0  0  0  0  0  0  0  0  0  0  0  0
    2.3040   43.4220   53.0710 C   0  0  0  0  0  0  0  0  0  0  0  0
    4.7960   43.9140   50.9500 N   0  0  0  0  0  0  0  0  0  0  0  0
    4.9050   45.3680   51.1850 C   0  0  0  0  0  0  0  0  0  0  0  0
    6.3310   45.4960   50.7480 C   0  0  0  0  0  0  0  0  0  0  0  0
    7.2390   45.8070   51.8610 N   0  0  0  0  0  0  0  0  0  0  0  0
    8.2550   46.8070   51.4730 C   0  0  0  0  0  0  0  0  0  0  0  0
    8.0850   48.0730   52.3240 C   0  0  0  0  0  0  0  0  0  0  0  0
    8.6560   47.8680   53.7320 C   0  0  0  0  0  0  0  0  0  0  0  0
   10.0250   47.5180   53.6690 O   0  0  0  0  0  0  0  0  0  0  0  0
   10.1690   46.2460   53.0670 C   0  0  0  0  0  0  0  0  0  0  0  0
    9.6980   46.2670   51.6030 C   0  0  0  0  0  0  0  0  0  0  0  0
    6.1990   44.0230   50.5120 C   0  0  0  0  0  0  0  0  0  0  0  0
    1.5732   42.7896   49.7675 H   0  0  0  0  0  0  0  0  0  0  0  0
   -0.7617   43.2028   50.6129 H   0  0  0  0  0  0  0  0  0  0  0  0
   -2.2410   43.8574   52.9918 H   0  0  0  0  0  0  0  0  0  0  0  0
   -1.0451   46.5343   55.8451 H   0  0  0  0  0  0  0  0  0  0  0  0
   -2.5037   47.1125   57.7816 H   0  0  0  0  0  0  0  0  0  0  0  0
   -3.9153   45.3583   58.8576 H   0  0  0  0  0  0  0  0  0  0  0  0
   -3.8746   43.0199   57.9901 H   0  0  0  0  0  0  0  0  0  0  0  0
   -2.4206   42.4267   56.0541 H   0  0  0  0  0  0  0  0  0  0  0  0
    1.1980   44.0800   55.5770 H   0  0  0  0  0  0  0  0  0  0  0  0
    3.1474   43.4993   53.7729 H   0  0  0  0  0  0  0  0  0  0  0  0
    4.2152   45.9519   50.5579 H   0  0  0  0  0  0  0  0  0  0  0  0
    4.6565   45.7315   52.1930 H   0  0  0  0  0  0  0  0  0  0  0  0
    6.6869   46.2175   49.9978 H   0  0  0  0  0  0  0  0  0  0  0  0
    7.7010   44.9190   52.1660 H   0  0  0  0  0  0  0  0  0  0  0  0
    8.0961   47.0443   50.4107 H   0  0  0  0  0  0  0  0  0  0  0  0
    8.6141   48.9065   51.8389 H   0  0  0  0  0  0  0  0  0  0  0  0
    7.0114   48.2966   52.4098 H   0  0  0  0  0  0  0  0  0  0  0  0
    8.5475   48.8006   54.3052 H   0  0  0  0  0  0  0  0  0  0  0  0
    8.1042   47.0527   54.2227 H   0  0  0  0  0  0  0  0  0  0  0  0
   11.2285   45.9518   53.0989 H   0  0  0  0  0  0  0  0  0  0  0  0
    9.5497   45.5259   53.6219 H   0  0  0  0  0  0  0  0  0  0  0  0
   10.3733   46.9112   51.0207 H   0  0  0  0  0  0  0  0  0  0  0  0
    9.7127   45.2346   51.2237 H   0  0  0  0  0  0  0  0  0  0  0  0
    6.3355   43.7493   49.4554 H   0  0  0  0  0  0  0  0  0  0  0  0
    6.9298   43.3702   51.0117 H   0  0  0  0  0  0  0  0  0  0  0  0
  1  2  2  0
  2  3  1  0
  3  4  2  0
  4  5  1  0
  5  6  2  0
  6  7  1  0
  7  8  2  0
  8  9  1  0
  9 10  2  0
 10 11  1  0
 11 12  2  0
 12 13  1  0
 13 14  2  0
  8 15  1  0
 15 16  1  0
 16 17  2  0
  2 18  1  0
 18 19  1  0
 19 20  1  0
 20 21  1  0
 21 22  1  0
 22 23  1  0
 23 24  1  0
 24 25  1  0
 25 26  1  0
 26 27  1  0
 20 28  1  0
 17  3  1  0
 28 18  1  0
 16  6  1  0
 27 22  1  0
 14  9  1  0
  4 29  1  0
  5 30  1  0
  7 31  1  0
 10 32  1  0
 11 33  1  0
 12 34  1  0
 13 35  1  0
 14 36  1  0
 15 37  1  0
 17 38  1  0
 19 39  1  0
 19 40  1  0
 20 41  1  0
 21 42  1  0
 22 43  1  0
 23 44  1  0
 23 45  1  0
 24 46  1  0
 24 47  1  0
 26 48  1  0
 26 49  1  0
 27 50  1  0
 27 51  1  0
 28 52  1  0
 28 53  1  0
M  END
>  <meeko>  (4) 
{"is_sidechain": [false], "free_energy": -8.678, "intermolecular_energy": -10.694, "internal_energy": -0.616}

$$$$
ligand_46_conformer_2_docked
     RDKit          3D

 53 57  0  0  0  0  0  0  0  0999 V2000
   -0.3590   43.1380   50.0900 O   0  0  0  0  0  0  0  0  0  0  0  0
    0.2150   43.3430   51.1930 C   0  0  0  0  0  0  0  0  0  0  0  0
    1.6890   43.4340   51.2390 C   0  0  0  0  0  0  0  0  0  0  0  0
    2.4750   42.3290   50.8120 C   0  0  0  0  0  0  0  0  0  0  0  0
    3.8790   42.3880   50.8470 C   0  0  0  0  0  0  0  0  0  0  0  0
    4.4700   43.5560   51.3180 C   0  0  0  0  0  0  0  0  0  0  0  0
    5.7960   43.8900   51.4690 C   0  0  0  0  0  0  0  0  0  0  0  0
    5.7900   45.1810   52.0050 C   0  0  0  0  0  0  0  0  0  0  0  0
    6.9940   45.9780   52.3480 C   0  0  0  0  0  0  0  0  0  0  0  0
    7.9060   46.3660   51.3470 C   0  0  0  0  0  0  0  0  0  0  0  0
    9.0390   47.1170   51.6740 C   0  0  0  0  0  0  0  0  0  0  0  0
    9.2770   47.4890   52.9980 C   0  0  0  0  0  0  0  0  0  0  0  0
    8.3810   47.1130   54.0000 C   0  0  0  0  0  0  0  0  0  0  0  0
    7.2450   46.3620   53.6800 C   0  0  0  0  0  0  0  0  0  0  0  0
    4.5160   45.6170   52.1730 N   0  0  0  0  0  0  0  0  0  0  0  0
    3.7250   44.6180   51.7480 C   0  0  0  0  0  0  0  0  0  0  0  0
    2.3310   44.5950   51.7270 C   0  0  0  0  0  0  0  0  0  0  0  0
   -0.5860   43.5300   52.3620 N   0  0  0  0  0  0  0  0  0  0  0  0
   -0.4300   43.9650   53.7650 C   0  0  0  0  0  0  0  0  0  0  0  0
   -1.8920   44.0170   54.0810 C   0  0  0  0  0  0  0  0  0  0  0  0
   -2.3800   45.3870   54.2900 N   0  0  0  0  0  0  0  0  0  0  0  0
   -3.2690   45.4770   55.4660 C   0  0  0  0  0  0  0  0  0  0  0  0
   -2.9440   44.3420   56.4470 C   0  0  0  0  0  0  0  0  0  0  0  0
   -1.6710   44.6520   57.2420 C   0  0  0  0  0  0  0  0  0  0  0  0
   -1.8090   45.8690   57.9500 O   0  0  0  0  0  0  0  0  0  0  0  0
   -1.9010   46.9480   57.0410 C   0  0  0  0  0  0  0  0  0  0  0  0
   -3.1710   46.8440   56.1810 C   0  0  0  0  0  0  0  0  0  0  0  0
   -2.0290   43.5710   52.6590 C   0  0  0  0  0  0  0  0  0  0  0  0
    1.9784   41.4167   50.4498 H   0  0  0  0  0  0  0  0  0  0  0  0
    4.4911   41.5374   50.5125 H   0  0  0  0  0  0  0  0  0  0  0  0
    6.6727   43.2735   51.2212 H   0  0  0  0  0  0  0  0  0  0  0  0
    7.7256   46.0762   50.3013 H   0  0  0  0  0  0  0  0  0  0  0  0
    9.7452   47.4157   50.8852 H   0  0  0  0  0  0  0  0  0  0  0  0
   10.1705   48.0783   53.2518 H   0  0  0  0  0  0  0  0  0  0  0  0
    8.5685   47.4077   55.0431 H   0  0  0  0  0  0  0  0  0  0  0  0
    6.5426   46.0691   54.4742 H   0  0  0  0  0  0  0  0  0  0  0  0
    4.1980   46.5440   52.5330 H   0  0  0  0  0  0  0  0  0  0  0  0
    1.7465   45.4572   52.0807 H   0  0  0  0  0  0  0  0  0  0  0  0
    0.1109   43.2302   54.3793 H   0  0  0  0  0  0  0  0  0  0  0  0
    0.1530   44.8807   53.9428 H   0  0  0  0  0  0  0  0  0  0  0  0
   -2.3581   43.5117   54.9397 H   0  0  0  0  0  0  0  0  0  0  0  0
   -2.8870   45.6900   53.4260 H   0  0  0  0  0  0  0  0  0  0  0  0
   -4.3036   45.3779   55.1057 H   0  0  0  0  0  0  0  0  0  0  0  0
   -3.7841   44.2192   57.1464 H   0  0  0  0  0  0  0  0  0  0  0  0
   -2.7827   43.4176   55.8730 H   0  0  0  0  0  0  0  0  0  0  0  0
   -1.4841   43.8372   57.9570 H   0  0  0  0  0  0  0  0  0  0  0  0
   -0.8288   44.7439   56.5404 H   0  0  0  0  0  0  0  0  0  0  0  0
   -1.9264   47.8917   57.6057 H   0  0  0  0  0  0  0  0  0  0  0  0
   -1.0260   46.9178   56.3750 H   0  0  0  0  0  0  0  0  0  0  0  0
   -4.0511   46.9712   56.8286 H   0  0  0  0  0  0  0  0  0  0  0  0
   -3.1292   47.6299   55.4125 H   0  0  0  0  0  0  0  0  0  0  0  0
   -2.5083   42.5850   52.5686 H   0  0  0  0  0  0  0  0  0  0  0  0
   -2.6564   44.1897   52.0005 H   0  0  0  0  0  0  0  0  0  0  0  0
  1  2  2  0
  2  3  1  0
  3  4  2  0
  4  5  1  0
  5  6  2  0
  6  7  1  0
  7  8  2  0
  8  9  1  0
  9 10  2  0
 10 11  1  0
 11 12  2  0
 12 13  1  0
 13 14  2  0
  8 15  1  0
 15 16  1  0
 16 17  2  0
  2 18  1  0
 18 19  1  0
 19 20  1  0
 20 21  1  0
 21 22  1  0
 22 23  1  0
 23 24  1  0
 24 25  1  0
 25 26  1  0
 26 27  1  0
 20 28  1  0
 17  3  1  0
 28 18  1  0
 16  6  1  0
 27 22  1  0
 14  9  1  0
  4 29  1  0
  5 30  1  0
  7 31  1  0
 10 32  1  0
 11 33  1  0
 12 34  1  0
 13 35  1  0
 14 36  1  0
 15 37  1  0
 17 38  1  0
 19 39  1  0
 19 40  1  0
 20 41  1  0
 21 42  1  0
 22 43  1  0
 23 44  1  0
 23 45  1  0
 24 46  1  0
 24 47  1  0
 26 48  1  0
 26 49  1  0
 27 50  1  0
 27 51  1  0
 28 52  1  0
 28 53  1  0
M  END
>  <meeko>  (5) 
{"is_sidechain": [false], "free_energy": -8.38, "intermolecular_energy": -10.561, "internal_energy": -0.381}

$$$$
