MODEL 1
REMARK VINA RESULT:    -9.675      0.000      0.000
REMARK INTER + INTRA:         -14.132
REMARK INTER:                 -13.069
REMARK INTRA:                  -1.063
REMARK UNBOUND:                -1.063
REMARK SMILES CCc1noc(-c2ccc(C)c(NCc3ccc(C(=O)N4CCCC4)cc3)c2)n1
REMARK SMILES IDX 7 1 8 2 9 3 10 4 11 5 12 6 28 7 6 8 3 9 4 10 29 11 5 12 2 13
REMARK SMILES IDX 1 14 13 15 14 17 15 18 16 19 27 20 17 21 26 22 18 23 19 24
REMARK SMILES IDX 20 25 21 26 22 27 25 28 23 29 24 30
REMARK H PARENT 13 16
ROOT
ATOM      1  C   UNL     1       2.057  42.795  51.524  1.00  0.00     0.042 A 
ATOM      2  C   UNL     1       0.870  43.145  50.868  1.00  0.00     0.014 A 
ATOM      3  C   UNL     1      -0.153  43.793  51.559  1.00  0.00     0.006 A 
ATOM      4  C   UNL     1      -0.008  44.114  52.919  1.00  0.00    -0.028 A 
ATOM      5  C   UNL     1      -1.122  44.844  53.622  1.00  0.00     0.046 C 
ATOM      6  C   UNL     1       1.184  43.760  53.597  1.00  0.00     0.038 A 
ATOM      7  C   UNL     1       2.201  43.094  52.887  1.00  0.00     0.039 A 
ENDROOT
BRANCH   1   8
ATOM      8  C   UNL     1       3.146  42.126  50.783  1.00  0.00     0.257 A 
ATOM      9  C   UNL     1       5.017  41.531  50.082  1.00  0.00     0.172 A 
ATOM     10  N   UNL     1       4.103  40.845  49.369  1.00  0.00    -0.062 NA
ATOM     11  N   UNL     1       4.457  42.362  50.984  1.00  0.00    -0.192 NA
ATOM     12  O   UNL     1       2.957  41.238  49.836  1.00  0.00    -0.334 OA
BRANCH   9  13
ATOM     13  C   UNL     1       6.491  41.442  49.844  1.00  0.00     0.078 C 
ATOM     14  C   UNL     1       7.047  42.795  49.417  1.00  0.00     0.012 C 
ENDBRANCH   9  13
ENDBRANCH   1   8
BRANCH   6  15
ATOM     15  N   UNL     1       1.359  44.084  54.994  1.00  0.00    -0.381 N 
ATOM     16  H   UNL     1       0.884  43.503  55.720  1.00  0.00     0.160 HD
BRANCH  15  17
ATOM     17  C   UNL     1       2.087  45.262  55.472  1.00  0.00     0.148 C 
BRANCH  17  18
ATOM     18  C   UNL     1       3.321  45.495  54.641  1.00  0.00    -0.029 A 
ATOM     19  C   UNL     1       3.297  46.428  53.593  1.00  0.00     0.006 A 
ATOM     20  C   UNL     1       4.501  44.778  54.896  1.00  0.00     0.006 A 
ATOM     21  C   UNL     1       4.427  46.622  52.794  1.00  0.00     0.014 A 
ATOM     22  C   UNL     1       5.632  44.973  54.097  1.00  0.00     0.014 A 
ATOM     23  C   UNL     1       5.596  45.880  53.027  1.00  0.00     0.040 A 
BRANCH  23  24
ATOM     24  C   UNL     1       6.793  46.075  52.185  1.00  0.00     0.253 C 
ATOM     25  O   UNL     1       6.675  46.004  50.931  1.00  0.00    -0.269 OA
ATOM     26  N   UNL     1       8.080  46.365  52.760  1.00  0.00    -0.339 N 
ATOM     27  C   UNL     1       9.309  46.323  51.985  1.00  0.00     0.120 C 
ATOM     28  C   UNL     1       8.268  46.979  54.066  1.00  0.00     0.120 C 
ATOM     29  C   UNL     1      10.409  46.778  52.936  1.00  0.00     0.023 C 
ATOM     30  C   UNL     1       9.695  47.510  54.068  1.00  0.00     0.023 C 
ENDBRANCH  23  24
ENDBRANCH  17  18
ENDBRANCH  15  17
ENDBRANCH   6  15
TORSDOF 6
ENDMDL
MODEL 2
REMARK VINA RESULT:    -9.286      2.434      8.223
REMARK INTER + INTRA:         -13.606
REMARK INTER:                 -12.989
REMARK INTRA:                  -0.616
REMARK UNBOUND:                -1.063
REMARK SMILES CCc1noc(-c2ccc(C)c(NCc3ccc(C(=O)N4CCCC4)cc3)c2)n1
REMARK SMILES IDX 7 1 8 2 9 3 10 4 11 5 12 6 28 7 6 8 3 9 4 10 29 11 5 12 2 13
REMARK SMILES IDX 1 14 13 15 14 17 15 18 16 19 27 20 17 21 26 22 18 23 19 24
REMARK SMILES IDX 20 25 21 26 22 27 25 28 23 29 24 30
REMARK H PARENT 13 16
ROOT
ATOM      1  C   UNL     1       8.988  46.394  52.572  1.00  0.00     0.042 A 
ATOM      2  C   UNL     1      10.064  45.882  51.836  1.00  0.00     0.014 A 
ATOM      3  C   UNL     1       9.837  45.163  50.663  1.00  0.00     0.006 A 
ATOM      4  C   UNL     1       8.530  44.948  50.195  1.00  0.00    -0.028 A 
ATOM      5  C   UNL     1       8.328  44.195  48.907  1.00  0.00     0.046 C 
ATOM      6  C   UNL     1       7.432  45.453  50.933  1.00  0.00     0.038 A 
ATOM      7  C   UNL     1       7.679  46.165  52.123  1.00  0.00     0.039 A 
ENDROOT
BRANCH   1   8
ATOM      8  C   UNL     1       9.235  47.171  53.804  1.00  0.00     0.257 A 
ATOM      9  C   UNL     1      10.052  47.905  55.576  1.00  0.00     0.172 A 
ATOM     10  N   UNL     1       8.927  48.611  55.349  1.00  0.00    -0.062 NA
ATOM     11  N   UNL     1      10.283  46.975  54.628  1.00  0.00    -0.192 NA
ATOM     12  O   UNL     1       8.453  48.130  54.241  1.00  0.00    -0.334 OA
BRANCH   9  13
ATOM     13  C   UNL     1      10.909  48.078  56.790  1.00  0.00     0.078 C 
ATOM     14  C   UNL     1      12.006  47.021  56.826  1.00  0.00     0.012 C 
ENDBRANCH   9  13
ENDBRANCH   1   8
BRANCH   6  15
ATOM     15  N   UNL     1       6.079  45.250  50.470  1.00  0.00    -0.381 N 
ATOM     16  H   UNL     1       5.493  46.076  50.215  1.00  0.00     0.160 HD
BRANCH  15  17
ATOM     17  C   UNL     1       5.418  43.943  50.431  1.00  0.00     0.148 C 
BRANCH  17  18
ATOM     18  C   UNL     1       4.141  43.971  51.228  1.00  0.00    -0.029 A 
ATOM     19  C   UNL     1       3.757  42.850  51.980  1.00  0.00     0.006 A 
ATOM     20  C   UNL     1       3.317  45.108  51.220  1.00  0.00     0.006 A 
ATOM     21  C   UNL     1       2.554  42.854  52.691  1.00  0.00     0.014 A 
ATOM     22  C   UNL     1       2.114  45.112  51.933  1.00  0.00     0.014 A 
ATOM     23  C   UNL     1       1.713  43.978  52.655  1.00  0.00     0.040 A 
BRANCH  23  24
ATOM     24  C   UNL     1       0.439  43.991  53.400  1.00  0.00     0.253 C 
ATOM     25  O   UNL     1      -0.548  43.361  52.930  1.00  0.00    -0.269 OA
ATOM     26  N   UNL     1       0.304  44.685  54.654  1.00  0.00    -0.339 N 
ATOM     27  C   UNL     1      -0.984  44.917  55.284  1.00  0.00     0.120 C 
ATOM     28  C   UNL     1       1.418  44.982  55.542  1.00  0.00     0.120 C 
ATOM     29  C   UNL     1      -0.675  45.589  56.615  1.00  0.00     0.023 C 
ATOM     30  C   UNL     1       0.793  45.283  56.897  1.00  0.00     0.023 C 
ENDBRANCH  23  24
ENDBRANCH  17  18
ENDBRANCH  15  17
ENDBRANCH   6  15
TORSDOF 6
ENDMDL
MODEL 3
REMARK VINA RESULT:    -8.919      3.346      6.376
REMARK INTER + INTRA:         -13.110
REMARK INTER:                 -12.356
REMARK INTRA:                  -0.754
REMARK UNBOUND:                -1.063
REMARK SMILES CCc1noc(-c2ccc(C)c(NCc3ccc(C(=O)N4CCCC4)cc3)c2)n1
REMARK SMILES IDX 7 1 8 2 9 3 10 4 11 5 12 6 28 7 6 8 3 9 4 10 29 11 5 12 2 13
REMARK SMILES IDX 1 14 13 15 14 17 15 18 16 19 27 20 17 21 26 22 18 23 19 24
REMARK SMILES IDX 20 25 21 26 22 27 25 28 23 29 24 30
REMARK H PARENT 13 16
ROOT
ATOM      1  C   UNL     1      -0.379  45.593  56.454  1.00  0.00     0.042 A 
ATOM      2  C   UNL     1      -1.703  45.162  56.306  1.00  0.00     0.014 A 
ATOM      3  C   UNL     1      -2.080  44.414  55.192  1.00  0.00     0.006 A 
ATOM      4  C   UNL     1      -1.140  44.072  54.206  1.00  0.00    -0.028 A 
ATOM      5  C   UNL     1      -1.580  43.235  53.034  1.00  0.00     0.046 C 
ATOM      6  C   UNL     1       0.201  44.507  54.338  1.00  0.00     0.038 A 
ATOM      7  C   UNL     1       0.562  45.274  55.464  1.00  0.00     0.039 A 
ENDROOT
BRANCH   1   8
ATOM      8  C   UNL     1       0.021  46.369  57.646  1.00  0.00     0.257 A 
ATOM      9  C   UNL     1       0.004  47.596  59.332  1.00  0.00     0.172 A 
ATOM     10  N   UNL     1       1.283  47.216  59.145  1.00  0.00    -0.062 NA
ATOM     11  N   UNL     1      -0.830  47.091  58.402  1.00  0.00    -0.192 NA
ATOM     12  O   UNL     1       1.251  46.454  58.095  1.00  0.00    -0.334 OA
BRANCH   9  13
ATOM     13  C   UNL     1      -0.430  48.541  60.407  1.00  0.00     0.078 C 
ATOM     14  C   UNL     1      -1.485  49.505  59.877  1.00  0.00     0.012 C 
ENDBRANCH   9  13
ENDBRANCH   1   8
BRANCH   6  15
ATOM     15  N   UNL     1       1.187  44.164  53.341  1.00  0.00    -0.381 N 
ATOM     16  H   UNL     1       1.822  43.350  53.503  1.00  0.00     0.160 HD
BRANCH  15  17
ATOM     17  C   UNL     1       1.438  44.958  52.135  1.00  0.00     0.148 C 
BRANCH  17  18
ATOM     18  C   UNL     1       2.917  45.122  51.906  1.00  0.00    -0.029 A 
ATOM     19  C   UNL     1       3.381  45.939  50.864  1.00  0.00     0.006 A 
ATOM     20  C   UNL     1       3.846  44.453  52.720  1.00  0.00     0.006 A 
ATOM     21  C   UNL     1       4.751  46.065  50.622  1.00  0.00     0.014 A 
ATOM     22  C   UNL     1       5.217  44.580  52.478  1.00  0.00     0.014 A 
ATOM     23  C   UNL     1       5.679  45.370  51.414  1.00  0.00     0.040 A 
BRANCH  23  24
ATOM     24  C   UNL     1       7.128  45.493  51.163  1.00  0.00     0.253 C 
ATOM     25  O   UNL     1       7.603  45.031  50.089  1.00  0.00    -0.269 OA
ATOM     26  N   UNL     1       8.004  46.146  52.101  1.00  0.00    -0.339 N 
ATOM     27  C   UNL     1       9.451  46.072  52.000  1.00  0.00     0.120 C 
ATOM     28  C   UNL     1       7.564  47.146  53.063  1.00  0.00     0.120 C 
ATOM     29  C   UNL     1       9.986  46.962  53.114  1.00  0.00     0.023 C 
ATOM     30  C   UNL     1       8.827  47.875  53.501  1.00  0.00     0.023 C 
ENDBRANCH  23  24
ENDBRANCH  17  18
ENDBRANCH  15  17
ENDBRANCH   6  15
TORSDOF 6
ENDMDL
MODEL 4
REMARK VINA RESULT:    -8.872      1.925      6.898
REMARK INTER + INTRA:         -13.047
REMARK INTER:                 -11.910
REMARK INTRA:                  -1.137
REMARK UNBOUND:                -1.063
REMARK SMILES CCc1noc(-c2ccc(C)c(NCc3ccc(C(=O)N4CCCC4)cc3)c2)n1
REMARK SMILES IDX 7 1 8 2 9 3 10 4 11 5 12 6 28 7 6 8 3 9 4 10 29 11 5 12 2 13
REMARK SMILES IDX 1 14 13 15 14 17 15 18 16 19 27 20 17 21 26 22 18 23 19 24
REMARK SMILES IDX 20 25 21 26 22 27 25 28 23 29 24 30
REMARK H PARENT 13 16
ROOT
ATOM      1  C   UNL     1       8.167  45.657  51.525  1.00  0.00     0.042 A 
ATOM      2  C   UNL     1       9.401  46.307  51.649  1.00  0.00     0.014 A 
ATOM      3  C   UNL     1       9.645  47.156  52.728  1.00  0.00     0.006 A 
ATOM      4  C   UNL     1       8.664  47.366  53.711  1.00  0.00    -0.028 A 
ATOM      5  C   UNL     1       8.978  48.264  54.879  1.00  0.00     0.046 C 
ATOM      6  C   UNL     1       7.409  46.721  53.595  1.00  0.00     0.038 A 
ATOM      7  C   UNL     1       7.175  45.877  52.492  1.00  0.00     0.039 A 
ENDROOT
BRANCH   1   8
ATOM      8  C   UNL     1       7.920  44.743  50.391  1.00  0.00     0.257 A 
ATOM      9  C   UNL     1       7.064  43.361  49.085  1.00  0.00     0.172 A 
ATOM     10  N   UNL     1       8.272  43.673  48.578  1.00  0.00    -0.062 NA
ATOM     11  N   UNL     1       6.800  44.008  50.238  1.00  0.00    -0.192 NA
ATOM     12  O   UNL     1       8.768  44.535  49.412  1.00  0.00    -0.334 OA
BRANCH   9  13
ATOM     13  C   UNL     1       6.147  42.346  48.479  1.00  0.00     0.078 C 
ATOM     14  C   UNL     1       5.431  41.555  49.567  1.00  0.00     0.012 C 
ENDBRANCH   9  13
ENDBRANCH   1   8
BRANCH   6  15
ATOM     15  N   UNL     1       6.386  46.916  54.596  1.00  0.00    -0.381 N 
ATOM     16  H   UNL     1       6.520  46.518  55.552  1.00  0.00     0.160 HD
BRANCH  15  17
ATOM     17  C   UNL     1       5.097  47.559  54.330  1.00  0.00     0.148 C 
BRANCH  17  18
ATOM     18  C   UNL     1       4.181  46.623  53.586  1.00  0.00    -0.029 A 
ATOM     19  C   UNL     1       3.655  46.997  52.340  1.00  0.00     0.006 A 
ATOM     20  C   UNL     1       3.835  45.377  54.132  1.00  0.00     0.006 A 
ATOM     21  C   UNL     1       2.774  46.150  51.662  1.00  0.00     0.014 A 
ATOM     22  C   UNL     1       2.955  44.529  53.453  1.00  0.00     0.014 A 
ATOM     23  C   UNL     1       2.401  44.919  52.224  1.00  0.00     0.040 A 
BRANCH  23  24
ATOM     24  C   UNL     1       1.469  44.018  51.518  1.00  0.00     0.253 C 
ATOM     25  O   UNL     1       1.934  43.022  50.899  1.00  0.00    -0.269 OA
ATOM     26  N   UNL     1       0.046  44.239  51.536  1.00  0.00    -0.339 N 
ATOM     27  C   UNL     1      -0.867  43.522  50.663  1.00  0.00     0.120 C 
ATOM     28  C   UNL     1      -0.648  44.976  52.582  1.00  0.00     0.120 C 
ATOM     29  C   UNL     1      -2.263  43.980  51.065  1.00  0.00     0.023 C 
ATOM     30  C   UNL     1      -2.112  44.577  52.461  1.00  0.00     0.023 C 
ENDBRANCH  23  24
ENDBRANCH  17  18
ENDBRANCH  15  17
ENDBRANCH   6  15
TORSDOF 6
ENDMDL
MODEL 5
REMARK VINA RESULT:    -8.710      3.821      8.331
REMARK INTER + INTRA:         -12.827
REMARK INTER:                 -12.084
REMARK INTRA:                  -0.743
REMARK UNBOUND:                -1.063
REMARK SMILES CCc1noc(-c2ccc(C)c(NCc3ccc(C(=O)N4CCCC4)cc3)c2)n1
REMARK SMILES IDX 7 1 8 2 9 3 10 4 11 5 12 6 28 7 6 8 3 9 4 10 29 11 5 12 2 13
REMARK SMILES IDX 1 14 13 15 14 17 15 18 16 19 27 20 17 21 26 22 18 23 19 24
REMARK SMILES IDX 20 25 21 26 22 27 25 28 23 29 24 30
REMARK H PARENT 13 16
ROOT
ATOM      1  C   UNL     1       5.102  45.577  51.898  1.00  0.00     0.042 A 
ATOM      2  C   UNL     1       3.824  46.146  51.843  1.00  0.00     0.014 A 
ATOM      3  C   UNL     1       2.721  45.370  51.487  1.00  0.00     0.006 A 
ATOM      4  C   UNL     1       2.871  44.006  51.189  1.00  0.00    -0.028 A 
ATOM      5  C   UNL     1       1.651  43.193  50.841  1.00  0.00     0.046 C 
ATOM      6  C   UNL     1       4.159  43.418  51.233  1.00  0.00     0.038 A 
ATOM      7  C   UNL     1       5.263  44.220  51.581  1.00  0.00     0.039 A 
ENDROOT
BRANCH   1   8
ATOM      8  C   UNL     1       6.264  46.399  52.294  1.00  0.00     0.257 A 
ATOM      9  C   UNL     1       8.201  47.086  52.647  1.00  0.00     0.172 A 
ATOM     10  N   UNL     1       7.365  48.043  53.094  1.00  0.00    -0.062 NA
ATOM     11  N   UNL     1       7.548  46.021  52.140  1.00  0.00    -0.192 NA
ATOM     12  O   UNL     1       6.175  47.582  52.853  1.00  0.00    -0.334 OA
BRANCH   9  13
ATOM     13  C   UNL     1       9.689  47.160  52.774  1.00  0.00     0.078 C 
ATOM     14  C   UNL     1      10.102  47.157  54.241  1.00  0.00     0.012 C 
ENDBRANCH   9  13
ENDBRANCH   1   8
BRANCH   6  15
ATOM     15  N   UNL     1       4.338  42.016  50.936  1.00  0.00    -0.381 N 
ATOM     16  H   UNL     1       3.694  41.314  51.362  1.00  0.00     0.160 HD
BRANCH  15  17
ATOM     17  C   UNL     1       5.451  41.487  50.143  1.00  0.00     0.148 C 
BRANCH  17  18
ATOM     18  C   UNL     1       5.015  41.226  48.725  1.00  0.00    -0.029 A 
ATOM     19  C   UNL     1       5.725  41.793  47.656  1.00  0.00     0.006 A 
ATOM     20  C   UNL     1       3.891  40.427  48.458  1.00  0.00     0.006 A 
ATOM     21  C   UNL     1       5.303  41.586  46.339  1.00  0.00     0.014 A 
ATOM     22  C   UNL     1       3.470  40.220  47.141  1.00  0.00     0.014 A 
ATOM     23  C   UNL     1       4.160  40.816  46.074  1.00  0.00     0.040 A 
BRANCH  23  24
ATOM     24  C   UNL     1       3.705  40.595  44.687  1.00  0.00     0.253 C 
ATOM     25  O   UNL     1       2.640  41.150  44.299  1.00  0.00    -0.269 OA
ATOM     26  N   UNL     1       4.456  39.783  43.766  1.00  0.00    -0.339 N 
ATOM     27  C   UNL     1       3.919  39.354  42.485  1.00  0.00     0.120 C 
ATOM     28  C   UNL     1       5.885  39.534  43.880  1.00  0.00     0.120 C 
ATOM     29  C   UNL     1       5.051  38.606  41.796  1.00  0.00     0.023 C 
ATOM     30  C   UNL     1       6.327  39.047  42.507  1.00  0.00     0.023 C 
ENDBRANCH  23  24
ENDBRANCH  17  18
ENDBRANCH  15  17
ENDBRANCH   6  15
TORSDOF 6
ENDMDL
