ligand_44_conformer_1_docked
     RDKit          3D

 47 50  0  0  0  0  0  0  0  0999 V2000
    1.6230   44.8680   55.6970 C   0  0  0  0  0  0  0  0  0  0  0  0
    2.9010   45.2730   55.2200 O   0  0  0  0  0  0  0  0  0  0  0  0
    3.1560   45.5140   53.8670 C   0  0  0  0  0  0  0  0  0  0  0  0
    2.4270   46.3060   53.2090 O   0  0  0  0  0  0  0  0  0  0  0  0
    4.3290   44.8440   53.2060 C   0  0  1  0  0  0  0  0  0  0  0  0
    3.8330   43.8340   52.1430 C   0  0  0  0  0  0  0  0  0  0  0  0
    4.9470   43.4460   51.2150 C   0  0  0  0  0  0  0  0  0  0  0  0
    5.0950   42.1270   50.7600 C   0  0  0  0  0  0  0  0  0  0  0  0
    6.1050   41.8110   49.8460 C   0  0  0  0  0  0  0  0  0  0  0  0
    6.9580   42.8110   49.3720 C   0  0  0  0  0  0  0  0  0  0  0  0
    6.8060   44.1310   49.8100 C   0  0  0  0  0  0  0  0  0  0  0  0
    5.8030   44.4490   50.7380 C   0  0  0  0  0  0  0  0  0  0  0  0
    5.5910   45.8590   51.2130 C   0  0  0  0  0  0  0  0  0  0  0  0
    5.2550   45.8610   52.6500 N   0  0  0  0  0  0  0  0  0  0  0  0
    5.8970   46.7910   53.5540 C   0  0  0  0  0  0  0  0  0  0  0  0
    5.3120   47.8640   53.8680 O   0  0  0  0  0  0  0  0  0  0  0  0
    7.2410   46.4870   54.1660 C   0  0  2  0  0  0  0  0  0  0  0  0
    7.9630   47.6650   54.8280 C   0  0  0  0  0  0  0  0  0  0  0  0
    8.4710   47.1170   53.5000 C   0  0  0  0  0  0  0  0  0  0  0  0
    9.7740   46.3170   53.5620 C   0  0  0  0  0  0  0  0  0  0  0  0
   10.0910   45.7960   52.1560 C   0  0  0  0  0  0  0  0  0  0  0  0
   10.1270   46.8570   51.2170 O   0  0  0  0  0  0  0  0  0  0  0  0
    8.8300   47.4050   51.0450 C   0  0  0  0  0  0  0  0  0  0  0  0
    8.3500   48.0980   52.3240 C   0  0  0  0  0  0  0  0  0  0  0  0
    1.6251   44.8687   56.7970 H   0  0  0  0  0  0  0  0  0  0  0  0
    0.8567   45.5673   55.3314 H   0  0  0  0  0  0  0  0  0  0  0  0
    1.3993   43.8549   55.3314 H   0  0  0  0  0  0  0  0  0  0  0  0
    4.8997   44.2706   53.9513 H   0  0  0  0  0  0  0  0  0  0  0  0
    3.4557   42.9335   52.6497 H   0  0  0  0  0  0  0  0  0  0  0  0
    3.0326   44.3063   51.5546 H   0  0  0  0  0  0  0  0  0  0  0  0
    4.4161   41.3411   51.1225 H   0  0  0  0  0  0  0  0  0  0  0  0
    6.2281   40.7742   49.4998 H   0  0  0  0  0  0  0  0  0  0  0  0
    7.7512   42.5597   48.6525 H   0  0  0  0  0  0  0  0  0  0  0  0
    7.4720   44.9184   49.4273 H   0  0  0  0  0  0  0  0  0  0  0  0
    6.5114   46.4398   51.0531 H   0  0  0  0  0  0  0  0  0  0  0  0
    4.7627   46.3105   50.6473 H   0  0  0  0  0  0  0  0  0  0  0  0
    6.9592   45.4673   54.4672 H   0  0  0  0  0  0  0  0  0  0  0  0
    7.4812   48.6532   54.8662 H   0  0  0  0  0  0  0  0  0  0  0  0
    8.4115   47.8443   55.8163 H   0  0  0  0  0  0  0  0  0  0  0  0
   10.5914   46.9653   53.9107 H   0  0  0  0  0  0  0  0  0  0  0  0
    9.6666   45.4746   54.2612 H   0  0  0  0  0  0  0  0  0  0  0  0
   11.0702   45.2951   52.1704 H   0  0  0  0  0  0  0  0  0  0  0  0
    9.3014   45.0907   51.8575 H   0  0  0  0  0  0  0  0  0  0  0  0
    8.8560   48.1395   50.2265 H   0  0  0  0  0  0  0  0  0  0  0  0
    8.1337   46.5870   50.8085 H   0  0  0  0  0  0  0  0  0  0  0  0
    8.9710   48.9849   52.5182 H   0  0  0  0  0  0  0  0  0  0  0  0
    7.3017   48.4100   52.2066 H   0  0  0  0  0  0  0  0  0  0  0  0
  1  2  1  0
  2  3  1  0
  3  4  2  0
  3  5  1  0
  5  6  1  0
  6  7  1  0
  7  8  2  0
  8  9  1  0
  9 10  2  0
 10 11  1  0
 11 12  2  0
 12 13  1  0
 13 14  1  0
 14 15  1  0
 15 16  2  0
 15 17  1  0
 17 18  1  0
 18 19  1  0
 19 20  1  0
 20 21  1  0
 21 22  1  0
 22 23  1  0
 23 24  1  0
 14  5  1  0
 19 17  1  0
 12  7  1  0
 24 19  1  0
  1 25  1  0
  1 26  1  0
  1 27  1  0
  5 28  1  1
  6 29  1  0
  6 30  1  0
  8 31  1  0
  9 32  1  0
 10 33  1  0
 11 34  1  0
 13 35  1  0
 13 36  1  0
 17 37  1  1
 18 38  1  0
 18 39  1  0
 20 40  1  0
 20 41  1  0
 21 42  1  0
 21 43  1  0
 23 44  1  0
 23 45  1  0
 24 46  1  0
 24 47  1  0
M  END
>  <meeko>  (1) 
{"is_sidechain": [false], "free_energy": -9.212, "intermolecular_energy": -11.366, "internal_energy": -0.835}

$$$$
ligand_44_conformer_1_docked
     RDKit          3D

 47 50  0  0  0  0  0  0  0  0999 V2000
    5.7800   46.0320   55.2200 C   0  0  0  0  0  0  0  0  0  0  0  0
    5.6860   47.2430   54.4780 O   0  0  0  0  0  0  0  0  0  0  0  0
    4.7930   47.4060   53.4160 C   0  0  0  0  0  0  0  0  0  0  0  0
    3.8930   48.2890   53.4650 O   0  0  0  0  0  0  0  0  0  0  0  0
    4.9310   46.5400   52.1950 C   0  0  1  0  0  0  0  0  0  0  0  0
    6.4170   46.1630   51.9780 C   0  0  0  0  0  0  0  0  0  0  0  0
    6.5420   45.0110   51.0240 C   0  0  0  0  0  0  0  0  0  0  0  0
    7.5620   44.9640   50.0620 C   0  0  0  0  0  0  0  0  0  0  0  0
    7.6880   43.8470   49.2300 C   0  0  0  0  0  0  0  0  0  0  0  0
    6.8090   42.7680   49.3670 C   0  0  0  0  0  0  0  0  0  0  0  0
    5.8000   42.8040   50.3340 C   0  0  0  0  0  0  0  0  0  0  0  0
    5.6600   43.9290   51.1600 C   0  0  0  0  0  0  0  0  0  0  0  0
    4.6050   43.9930   52.2290 C   0  0  0  0  0  0  0  0  0  0  0  0
    4.0430   45.3570   52.3000 N   0  0  0  0  0  0  0  0  0  0  0  0
    2.6120   45.5590   52.3760 C   0  0  0  0  0  0  0  0  0  0  0  0
    1.9360   45.6440   51.3150 O   0  0  0  0  0  0  0  0  0  0  0  0
    1.9010   45.6300   53.7030 C   0  0  2  0  0  0  0  0  0  0  0  0
    2.5450   44.8510   54.8550 C   0  0  0  0  0  0  0  0  0  0  0  0
    1.2580   44.3360   54.2210 C   0  0  0  0  0  0  0  0  0  0  0  0
   -0.0090   44.4860   55.0650 C   0  0  0  0  0  0  0  0  0  0  0  0
   -1.2010   43.9780   54.2450 C   0  0  0  0  0  0  0  0  0  0  0  0
   -0.9790   42.6530   53.7940 O   0  0  0  0  0  0  0  0  0  0  0  0
    0.0700   42.6280   52.8390 C   0  0  0  0  0  0  0  0  0  0  0  0
    1.4110   42.9970   53.4820 C   0  0  0  0  0  0  0  0  0  0  0  0
    5.7624   46.2591   56.2962 H   0  0  0  0  0  0  0  0  0  0  0  0
    4.9297   45.3810   54.9686 H   0  0  0  0  0  0  0  0  0  0  0  0
    6.7206   45.5200   54.9686 H   0  0  0  0  0  0  0  0  0  0  0  0
    4.6081   47.0981   51.3037 H   0  0  0  0  0  0  0  0  0  0  0  0
    6.9528   47.0313   51.5668 H   0  0  0  0  0  0  0  0  0  0  0  0
    6.8502   45.8679   52.9451 H   0  0  0  0  0  0  0  0  0  0  0  0
    8.2628   45.8059   49.9621 H   0  0  0  0  0  0  0  0  0  0  0  0
    8.4796   43.8171   48.4668 H   0  0  0  0  0  0  0  0  0  0  0  0
    6.9117   41.8896   48.7129 H   0  0  0  0  0  0  0  0  0  0  0  0
    5.1159   41.9501   50.4471 H   0  0  0  0  0  0  0  0  0  0  0  0
    3.8020   43.2796   51.9920 H   0  0  0  0  0  0  0  0  0  0  0  0
    5.0563   43.7364   53.1988 H   0  0  0  0  0  0  0  0  0  0  0  0
    1.5520   46.6617   53.5490 H   0  0  0  0  0  0  0  0  0  0  0  0
    3.4906   44.3128   54.6931 H   0  0  0  0  0  0  0  0  0  0  0  0
    2.8604   45.0993   55.8791 H   0  0  0  0  0  0  0  0  0  0  0  0
    0.0868   43.8938   55.9870 H   0  0  0  0  0  0  0  0  0  0  0  0
   -0.1595   45.5415   55.3358 H   0  0  0  0  0  0  0  0  0  0  0  0
   -2.1041   43.9978   54.8727 H   0  0  0  0  0  0  0  0  0  0  0  0
   -1.3269   44.6303   53.3683 H   0  0  0  0  0  0  0  0  0  0  0  0
    0.1427   41.6170   52.4117 H   0  0  0  0  0  0  0  0  0  0  0  0
   -0.1551   43.3646   52.0537 H   0  0  0  0  0  0  0  0  0  0  0  0
    1.7064   42.2134   54.1953 H   0  0  0  0  0  0  0  0  0  0  0  0
    2.1844   43.0868   52.7049 H   0  0  0  0  0  0  0  0  0  0  0  0
  1  2  1  0
  2  3  1  0
  3  4  2  0
  3  5  1  0
  5  6  1  0
  6  7  1  0
  7  8  2  0
  8  9  1  0
  9 10  2  0
 10 11  1  0
 11 12  2  0
 12 13  1  0
 13 14  1  0
 14 15  1  0
 15 16  2  0
 15 17  1  0
 17 18  1  0
 18 19  1  0
 19 20  1  0
 20 21  1  0
 21 22  1  0
 22 23  1  0
 23 24  1  0
 14  5  1  0
 19 17  1  0
 12  7  1  0
 24 19  1  0
  1 25  1  0
  1 26  1  0
  1 27  1  0
  5 28  1  6
  6 29  1  0
  6 30  1  0
  8 31  1  0
  9 32  1  0
 10 33  1  0
 11 34  1  0
 13 35  1  0
 13 36  1  0
 17 37  1  1
 18 38  1  0
 18 39  1  0
 20 40  1  0
 20 41  1  0
 21 42  1  0
 21 43  1  0
 23 44  1  0
 23 45  1  0
 24 46  1  0
 24 47  1  0
M  END
>  <meeko>  (2) 
{"is_sidechain": [false], "free_energy": -8.378, "intermolecular_energy": -10.987, "internal_energy": -0.185}

$$$$
ligand_44_conformer_1_docked
     RDKit          3D

 47 50  0  0  0  0  0  0  0  0999 V2000
   -0.2170   43.2980   51.3890 C   0  0  0  0  0  0  0  0  0  0  0  0
    1.1910   43.4890   51.3130 O   0  0  0  0  0  0  0  0  0  0  0  0
    2.0600   43.0860   52.3300 C   0  0  0  0  0  0  0  0  0  0  0  0
    1.6080   42.6050   53.4060 O   0  0  0  0  0  0  0  0  0  0  0  0
    3.5450   43.2010   52.1220 C   0  0  1  0  0  0  0  0  0  0  0  0
    3.9920   42.2720   50.9670 C   0  0  0  0  0  0  0  0  0  0  0  0
    5.3640   42.6420   50.4850 C   0  0  0  0  0  0  0  0  0  0  0  0
    6.3030   41.6630   50.1270 C   0  0  0  0  0  0  0  0  0  0  0  0
    7.5500   42.0420   49.6210 C   0  0  0  0  0  0  0  0  0  0  0  0
    7.8570   43.3960   49.4550 C   0  0  0  0  0  0  0  0  0  0  0  0
    6.9190   44.3750   49.7960 C   0  0  0  0  0  0  0  0  0  0  0  0
    5.6720   43.9990   50.3180 C   0  0  0  0  0  0  0  0  0  0  0  0
    4.6280   45.0220   50.6710 C   0  0  0  0  0  0  0  0  0  0  0  0
    3.9260   44.6180   51.9050 N   0  0  0  0  0  0  0  0  0  0  0  0
    3.6860   45.5770   52.9620 C   0  0  0  0  0  0  0  0  0  0  0  0
    2.6470   46.2920   52.9330 O   0  0  0  0  0  0  0  0  0  0  0  0
    4.6340   45.7130   54.1260 C   0  0  2  0  0  0  0  0  0  0  0  0
    4.5720   47.0370   54.8950 C   0  0  0  0  0  0  0  0  0  0  0  0
    5.7630   46.7440   53.9910 C   0  0  0  0  0  0  0  0  0  0  0  0
    7.0790   46.4220   54.7030 C   0  0  0  0  0  0  0  0  0  0  0  0
    8.1360   46.0940   53.6430 C   0  0  0  0  0  0  0  0  0  0  0  0
    8.2500   47.1440   52.6970 O   0  0  0  0  0  0  0  0  0  0  0  0
    7.0680   47.2340   51.9190 C   0  0  0  0  0  0  0  0  0  0  0  0
    5.8760   47.6760   52.7740 C   0  0  0  0  0  0  0  0  0  0  0  0
   -0.5249   43.2562   52.4442 H   0  0  0  0  0  0  0  0  0  0  0  0
   -0.7280   44.1351   50.8908 H   0  0  0  0  0  0  0  0  0  0  0  0
   -0.4865   42.3551   50.8908 H   0  0  0  0  0  0  0  0  0  0  0  0
    4.0748   42.8667   53.0262 H   0  0  0  0  0  0  0  0  0  0  0  0
    4.0040   41.2320   51.3250 H   0  0  0  0  0  0  0  0  0  0  0  0
    3.2839   42.3820   50.1324 H   0  0  0  0  0  0  0  0  0  0  0  0
    6.0581   40.5971   50.2444 H   0  0  0  0  0  0  0  0  0  0  0  0
    8.2906   41.2740   49.3531 H   0  0  0  0  0  0  0  0  0  0  0  0
    8.8383   43.6914   49.0554 H   0  0  0  0  0  0  0  0  0  0  0  0
    7.1584   45.4394   49.6552 H   0  0  0  0  0  0  0  0  0  0  0  0
    5.1117   45.9972   50.8291 H   0  0  0  0  0  0  0  0  0  0  0  0
    3.9012   45.0965   49.8487 H   0  0  0  0  0  0  0  0  0  0  0  0
    4.5852   44.6464   54.3904 H   0  0  0  0  0  0  0  0  0  0  0  0
    3.8398   47.8057   54.6069 H   0  0  0  0  0  0  0  0  0  0  0  0
    4.4501   47.3155   55.9522 H   0  0  0  0  0  0  0  0  0  0  0  0
    7.4034   47.2909   55.2945 H   0  0  0  0  0  0  0  0  0  0  0  0
    6.9428   45.5645   55.3784 H   0  0  0  0  0  0  0  0  0  0  0  0
    9.1078   45.9480   54.1372 H   0  0  0  0  0  0  0  0  0  0  0  0
    7.8306   45.1785   53.1152 H   0  0  0  0  0  0  0  0  0  0  0  0
    7.2233   47.9667   51.1134 H   0  0  0  0  0  0  0  0  0  0  0  0
    6.8485   46.2402   51.5015 H   0  0  0  0  0  0  0  0  0  0  0  0
    6.0293   48.7107   53.1144 H   0  0  0  0  0  0  0  0  0  0  0  0
    4.9520   47.6258   52.1793 H   0  0  0  0  0  0  0  0  0  0  0  0
  1  2  1  0
  2  3  1  0
  3  4  2  0
  3  5  1  0
  5  6  1  0
  6  7  1  0
  7  8  2  0
  8  9  1  0
  9 10  2  0
 10 11  1  0
 11 12  2  0
 12 13  1  0
 13 14  1  0
 14 15  1  0
 15 16  2  0
 15 17  1  0
 17 18  1  0
 18 19  1  0
 19 20  1  0
 20 21  1  0
 21 22  1  0
 22 23  1  0
 23 24  1  0
 14  5  1  0
 19 17  1  0
 12  7  1  0
 24 19  1  0
  1 25  1  0
  1 26  1  0
  1 27  1  0
  5 28  1  1
  6 29  1  0
  6 30  1  0
  8 31  1  0
  9 32  1  0
 10 33  1  0
 11 34  1  0
 13 35  1  0
 13 36  1  0
 17 37  1  1
 18 38  1  0
 18 39  1  0
 20 40  1  0
 20 41  1  0
 21 42  1  0
 21 43  1  0
 23 44  1  0
 23 45  1  0
 24 46  1  0
 24 47  1  0
M  END
>  <meeko>  (3) 
{"is_sidechain": [false], "free_energy": -7.518, "intermolecular_energy": -9.202, "internal_energy": -0.91}

$$$$
ligand_44_conformer_1_docked
     RDKit          3D

 47 50  0  0  0  0  0  0  0  0999 V2000
    9.6770   46.6670   53.2510 C   0  0  0  0  0  0  0  0  0  0  0  0
    9.1100   46.0140   52.1220 O   0  0  0  0  0  0  0  0  0  0  0  0
    8.1160   46.6020   51.3350 C   0  0  0  0  0  0  0  0  0  0  0  0
    8.1050   47.8500   51.1440 O   0  0  0  0  0  0  0  0  0  0  0  0
    7.0750   45.7320   50.6870 C   0  0  1  0  0  0  0  0  0  0  0  0
    7.7460   44.5050   50.0240 C   0  0  0  0  0  0  0  0  0  0  0  0
    6.7320   43.4420   49.7170 C   0  0  0  0  0  0  0  0  0  0  0  0
    6.7910   42.6950   48.5310 C   0  0  0  0  0  0  0  0  0  0  0  0
    5.8680   41.6700   48.3040 C   0  0  0  0  0  0  0  0  0  0  0  0
    4.8960   41.3760   49.2650 C   0  0  0  0  0  0  0  0  0  0  0  0
    4.8420   42.1080   50.4550 C   0  0  0  0  0  0  0  0  0  0  0  0
    5.7570   43.1480   50.6800 C   0  0  0  0  0  0  0  0  0  0  0  0
    5.7480   43.9390   51.9590 C   0  0  0  0  0  0  0  0  0  0  0  0
    6.0310   45.3590   51.6730 N   0  0  0  0  0  0  0  0  0  0  0  0
    5.2320   46.4030   52.2760 C   0  0  0  0  0  0  0  0  0  0  0  0
    5.7140   47.0990   53.2120 O   0  0  0  0  0  0  0  0  0  0  0  0
    3.8420   46.7100   51.7800 C   0  0  2  0  0  0  0  0  0  0  0  0
    2.9480   47.5140   52.7310 C   0  0  0  0  0  0  0  0  0  0  0  0
    2.6740   46.0310   52.5080 C   0  0  0  0  0  0  0  0  0  0  0  0
    1.4380   45.6990   51.6690 C   0  0  0  0  0  0  0  0  0  0  0  0
    1.3620   44.1780   51.4990 C   0  0  0  0  0  0  0  0  0  0  0  0
    1.3800   43.5250   52.7570 O   0  0  0  0  0  0  0  0  0  0  0  0
    2.6440   43.6900   53.3780 C   0  0  0  0  0  0  0  0  0  0  0  0
    2.8870   45.1560   53.7530 C   0  0  0  0  0  0  0  0  0  0  0  0
    9.2834   46.2137   54.1727 H   0  0  0  0  0  0  0  0  0  0  0  0
   10.7713   46.5573   53.2268 H   0  0  0  0  0  0  0  0  0  0  0  0
    9.4149   47.7350   53.2268 H   0  0  0  0  0  0  0  0  0  0  0  0
    6.5682   46.2907   49.8863 H   0  0  0  0  0  0  0  0  0  0  0  0
    8.2310   44.8211   49.0887 H   0  0  0  0  0  0  0  0  0  0  0  0
    8.4896   44.0912   50.7210 H   0  0  0  0  0  0  0  0  0  0  0  0
    7.5635   42.9158   47.7797 H   0  0  0  0  0  0  0  0  0  0  0  0
    5.9065   41.0938   47.3678 H   0  0  0  0  0  0  0  0  0  0  0  0
    4.1725   40.5673   49.0845 H   0  0  0  0  0  0  0  0  0  0  0  0
    4.0829   41.8689   51.2143 H   0  0  0  0  0  0  0  0  0  0  0  0
    4.7598   43.8525   52.4345 H   0  0  0  0  0  0  0  0  0  0  0  0
    6.5213   43.5444   52.6345 H   0  0  0  0  0  0  0  0  0  0  0  0
    4.1537   46.7998   50.7289 H   0  0  0  0  0  0  0  0  0  0  0  0
    3.3448   47.8601   53.6968 H   0  0  0  0  0  0  0  0  0  0  0  0
    2.3529   48.4350   52.6443 H   0  0  0  0  0  0  0  0  0  0  0  0
    0.5339   46.0611   52.1803 H   0  0  0  0  0  0  0  0  0  0  0  0
    1.5076   46.1859   50.6851 H   0  0  0  0  0  0  0  0  0  0  0  0
    0.4305   43.9208   50.9734 H   0  0  0  0  0  0  0  0  0  0  0  0
    2.2358   43.8460   50.9191 H   0  0  0  0  0  0  0  0  0  0  0  0
    2.6795   43.0753   54.2895 H   0  0  0  0  0  0  0  0  0  0  0  0
    3.4250   43.3763   52.6697 H   0  0  0  0  0  0  0  0  0  0  0  0
    2.1811   45.4573   54.5410 H   0  0  0  0  0  0  0  0  0  0  0  0
    3.9152   45.2800   54.1237 H   0  0  0  0  0  0  0  0  0  0  0  0
  1  2  1  0
  2  3  1  0
  3  4  2  0
  3  5  1  0
  5  6  1  0
  6  7  1  0
  7  8  2  0
  8  9  1  0
  9 10  2  0
 10 11  1  0
 11 12  2  0
 12 13  1  0
 13 14  1  0
 14 15  1  0
 15 16  2  0
 15 17  1  0
 17 18  1  0
 18 19  1  0
 19 20  1  0
 20 21  1  0
 21 22  1  0
 22 23  1  0
 23 24  1  0
 14  5  1  0
 19 17  1  0
 12  7  1  0
 24 19  1  0
  1 25  1  0
  1 26  1  0
  1 27  1  0
  5 28  1  6
  6 29  1  0
  6 30  1  0
  8 31  1  0
  9 32  1  0
 10 33  1  0
 11 34  1  0
 13 35  1  0
 13 36  1  0
 17 37  1  6
 18 38  1  0
 18 39  1  0
 20 40  1  0
 20 41  1  0
 21 42  1  0
 21 43  1  0
 23 44  1  0
 23 45  1  0
 24 46  1  0
 24 47  1  0
M  END
>  <meeko>  (4) 
{"is_sidechain": [false], "free_energy": -7.44, "intermolecular_energy": -9.34, "internal_energy": -0.675}

$$$$
ligand_44_conformer_1_docked
     RDKit          3D

 47 50  0  0  0  0  0  0  0  0999 V2000
    3.2370   47.7610   52.3850 C   0  0  0  0  0  0  0  0  0  0  0  0
    3.5230   47.0100   53.5590 O   0  0  0  0  0  0  0  0  0  0  0  0
    4.0520   45.7170   53.5140 C   0  0  0  0  0  0  0  0  0  0  0  0
    4.4960   45.1690   54.5600 O   0  0  0  0  0  0  0  0  0  0  0  0
    4.0590   44.9670   52.2110 C   0  0  1  0  0  0  0  0  0  0  0  0
    5.4200   44.2560   52.0150 C   0  0  0  0  0  0  0  0  0  0  0  0
    5.3250   43.2070   50.9450 C   0  0  0  0  0  0  0  0  0  0  0  0
    6.3660   43.0020   50.0280 C   0  0  0  0  0  0  0  0  0  0  0  0
    6.2730   41.9750   49.0830 C   0  0  0  0  0  0  0  0  0  0  0  0
    5.1520   41.1410   49.0630 C   0  0  0  0  0  0  0  0  0  0  0  0
    4.1180   41.3310   49.9850 C   0  0  0  0  0  0  0  0  0  0  0  0
    4.2000   42.3710   50.9240 C   0  0  0  0  0  0  0  0  0  0  0  0
    3.1220   42.5900   51.9490 C   0  0  0  0  0  0  0  0  0  0  0  0
    2.9050   44.0370   52.1470 N   0  0  0  0  0  0  0  0  0  0  0  0
    1.5640   44.5800   52.1860 C   0  0  0  0  0  0  0  0  0  0  0  0
    1.0100   44.9530   51.1160 O   0  0  0  0  0  0  0  0  0  0  0  0
    0.7940   44.6720   53.4780 C   0  0  2  0  0  0  0  0  0  0  0  0
    1.0480   43.5560   54.4960 C   0  0  0  0  0  0  0  0  0  0  0  0
   -0.2710   43.5980   53.7350 C   0  0  0  0  0  0  0  0  0  0  0  0
   -1.4970   44.0220   54.5460 C   0  0  0  0  0  0  0  0  0  0  0  0
   -2.7080   44.0700   53.6070 C   0  0  0  0  0  0  0  0  0  0  0  0
   -2.8780   42.8330   52.9360 O   0  0  0  0  0  0  0  0  0  0  0  0
   -1.8090   42.6140   52.0300 C   0  0  0  0  0  0  0  0  0  0  0  0
   -0.4850   42.4160   52.7760 C   0  0  0  0  0  0  0  0  0  0  0  0
    2.8587   48.7543   52.6682 H   0  0  0  0  0  0  0  0  0  0  0  0
    4.1549   47.8743   51.7895 H   0  0  0  0  0  0  0  0  0  0  0  0
    2.4762   47.2350   51.7895 H   0  0  0  0  0  0  0  0  0  0  0  0
    3.9430   45.6719   51.3746 H   0  0  0  0  0  0  0  0  0  0  0  0
    6.1767   44.9997   51.7246 H   0  0  0  0  0  0  0  0  0  0  0  0
    5.7031   43.7703   52.9605 H   0  0  0  0  0  0  0  0  0  0  0  0
    7.2555   43.6487   50.0519 H   0  0  0  0  0  0  0  0  0  0  0  0
    7.0833   41.8237   48.3547 H   0  0  0  0  0  0  0  0  0  0  0  0
    5.0828   40.3328   48.3200 H   0  0  0  0  0  0  0  0  0  0  0  0
    3.2416   40.6663   49.9744 H   0  0  0  0  0  0  0  0  0  0  0  0
    2.1877   42.1251   51.6011 H   0  0  0  0  0  0  0  0  0  0  0  0
    3.4302   42.1357   52.9022 H   0  0  0  0  0  0  0  0  0  0  0  0
    0.8068   45.7718   53.4967 H   0  0  0  0  0  0  0  0  0  0  0  0
    1.7843   42.7689   54.2758 H   0  0  0  0  0  0  0  0  0  0  0  0
    1.3302   43.5243   55.5587 H   0  0  0  0  0  0  0  0  0  0  0  0
   -1.6797   43.2943   55.3504 H   0  0  0  0  0  0  0  0  0  0  0  0
   -1.3283   45.0120   54.9948 H   0  0  0  0  0  0  0  0  0  0  0  0
   -3.6115   44.2875   54.1955 H   0  0  0  0  0  0  0  0  0  0  0  0
   -2.5394   44.8563   52.8565 H   0  0  0  0  0  0  0  0  0  0  0  0
   -2.0227   41.7153   51.4328 H   0  0  0  0  0  0  0  0  0  0  0  0
   -1.7153   43.4968   51.3804 H   0  0  0  0  0  0  0  0  0  0  0  0
   -0.5210   41.4777   53.3490 H   0  0  0  0  0  0  0  0  0  0  0  0
    0.3445   42.3665   52.0553 H   0  0  0  0  0  0  0  0  0  0  0  0
  1  2  1  0
  2  3  1  0
  3  4  2  0
  3  5  1  0
  5  6  1  0
  6  7  1  0
  7  8  2  0
  8  9  1  0
  9 10  2  0
 10 11  1  0
 11 12  2  0
 12 13  1  0
 13 14  1  0
 14 15  1  0
 15 16  2  0
 15 17  1  0
 17 18  1  0
 18 19  1  0
 19 20  1  0
 20 21  1  0
 21 22  1  0
 22 23  1  0
 23 24  1  0
 14  5  1  0
 19 17  1  0
 12  7  1  0
 24 19  1  0
  1 25  1  0
  1 26  1  0
  1 27  1  0
  5 28  1  6
  6 29  1  0
  6 30  1  0
  8 31  1  0
  9 32  1  0
 10 33  1  0
 11 34  1  0
 13 35  1  0
 13 36  1  0
 17 37  1  1
 18 38  1  0
 18 39  1  0
 20 40  1  0
 20 41  1  0
 21 42  1  0
 21 43  1  0
 23 44  1  0
 23 45  1  0
 24 46  1  0
 24 47  1  0
M  END
>  <meeko>  (5) 
{"is_sidechain": [false], "free_energy": -7.074, "intermolecular_energy": -8.848, "internal_energy": -0.716}

$$$$
