MODEL 1
REMARK VINA RESULT:    -8.662      0.000      0.000
REMARK INTER + INTRA:         -11.423
REMARK INTER:                 -10.688
REMARK INTRA:                  -0.736
REMARK UNBOUND:                -0.736
REMARK SMILES CSc1cc(C)ccc1C(=O)Nc1[nH]nnc1C(=O)N1CCCC1
REMARK SMILES IDX 3 1 4 2 5 3 6 4 7 5 8 6 9 7 2 8 1 9 10 10 11 11 12 12 13 14
REMARK SMILES IDX 14 15 17 16 15 17 16 18 18 20 19 21 20 22 21 23 24 24 22 25
REMARK SMILES IDX 23 26
REMARK H PARENT 12 13 14 19
ROOT
ATOM      1  C   UNL     1       6.854  46.136  51.990  1.00  0.00     0.020 A 
ATOM      2  C   UNL     1       8.138  46.049  51.434  1.00  0.00     0.019 A 
ATOM      3  C   UNL     1       9.262  46.464  52.161  1.00  0.00    -0.050 A 
ATOM      4  C   UNL     1      10.634  46.339  51.569  1.00  0.00     0.044 C 
ATOM      5  C   UNL     1       9.098  46.943  53.468  1.00  0.00     0.004 A 
ATOM      6  C   UNL     1       7.825  47.023  54.034  1.00  0.00     0.015 A 
ATOM      7  C   UNL     1       6.692  46.607  53.315  1.00  0.00     0.053 A 
ENDROOT
BRANCH   1   8
ATOM      8  S   UNL     1       5.450  45.701  50.950  1.00  0.00    -0.129 SA
ATOM      9  C   UNL     1       6.174  44.113  50.430  1.00  0.00     0.091 C 
ENDBRANCH   1   8
BRANCH   7  10
ATOM     10  C   UNL     1       5.370  46.668  53.976  1.00  0.00     0.258 C 
ATOM     11  O   UNL     1       4.882  47.792  54.277  1.00  0.00    -0.269 OA
ATOM     12  N   UNL     1       4.691  45.464  54.363  1.00  0.00    -0.305 N 
ATOM     13  H   UNL     1       5.254  44.586  54.435  1.00  0.00     0.171 HD
BRANCH  12  14
ATOM     14  C   UNL     1       3.380  45.454  54.943  1.00  0.00     0.162 A 
ATOM     15  N   UNL     1       3.088  45.987  56.138  1.00  0.00    -0.242 N 
ATOM     16  C   UNL     1       2.211  44.927  54.424  1.00  0.00     0.194 A 
ATOM     17  N   UNL     1       1.793  45.811  56.345  1.00  0.00    -0.067 NA
ATOM     18  N   UNL     1       1.237  45.167  55.327  1.00  0.00    -0.123 NA
ATOM     19  H   UNL     1       3.740  46.468  56.794  1.00  0.00     0.194 HD
BRANCH  16  20
ATOM     20  C   UNL     1       2.038  44.103  53.210  1.00  0.00     0.278 C 
ATOM     21  O   UNL     1       2.984  43.359  52.839  1.00  0.00    -0.267 OA
ATOM     22  N   UNL     1       0.812  44.112  52.456  1.00  0.00    -0.337 N 
ATOM     23  C   UNL     1      -0.273  45.061  52.650  1.00  0.00     0.120 C 
ATOM     24  C   UNL     1       0.592  43.240  51.315  1.00  0.00     0.120 C 
ATOM     25  C   UNL     1      -1.186  44.892  51.443  1.00  0.00     0.023 C 
ATOM     26  C   UNL     1      -0.819  43.543  50.831  1.00  0.00     0.023 C 
ENDBRANCH  16  20
ENDBRANCH  12  14
ENDBRANCH   7  10
TORSDOF 4
ENDMDL
MODEL 2
REMARK VINA RESULT:    -8.260      2.359      3.842
REMARK INTER + INTRA:         -10.927
REMARK INTER:                 -10.277
REMARK INTRA:                  -0.651
REMARK UNBOUND:                -0.736
REMARK SMILES CSc1cc(C)ccc1C(=O)Nc1[nH]nnc1C(=O)N1CCCC1
REMARK SMILES IDX 3 1 4 2 5 3 6 4 7 5 8 6 9 7 2 8 1 9 10 10 11 11 12 12 13 14
REMARK SMILES IDX 14 15 17 16 15 17 16 18 18 20 19 21 20 22 21 23 24 24 22 25
REMARK SMILES IDX 23 26
REMARK H PARENT 12 13 14 19
ROOT
ATOM      1  C   UNL     1       5.739  46.805  52.465  1.00  0.00     0.020 A 
ATOM      2  C   UNL     1       7.111  47.074  52.572  1.00  0.00     0.019 A 
ATOM      3  C   UNL     1       8.031  46.448  51.719  1.00  0.00    -0.050 A 
ATOM      4  C   UNL     1       9.493  46.765  51.823  1.00  0.00     0.044 C 
ATOM      5  C   UNL     1       7.566  45.569  50.733  1.00  0.00     0.004 A 
ATOM      6  C   UNL     1       6.201  45.304  50.611  1.00  0.00     0.015 A 
ATOM      7  C   UNL     1       5.271  45.928  51.459  1.00  0.00     0.053 A 
ENDROOT
BRANCH   1   8
ATOM      8  S   UNL     1       4.634  47.552  53.676  1.00  0.00    -0.129 SA
ATOM      9  C   UNL     1       5.032  46.333  54.969  1.00  0.00     0.091 C 
ENDBRANCH   1   8
BRANCH   7  10
ATOM     10  C   UNL     1       3.831  45.650  51.260  1.00  0.00     0.258 C 
ATOM     11  O   UNL     1       3.162  46.388  50.486  1.00  0.00    -0.269 OA
ATOM     12  N   UNL     1       3.177  44.615  52.010  1.00  0.00    -0.305 N 
ATOM     13  H   UNL     1       3.644  44.271  52.880  1.00  0.00     0.171 HD
BRANCH  12  14
ATOM     14  C   UNL     1       1.804  44.253  51.813  1.00  0.00     0.162 A 
ATOM     15  N   UNL     1       1.322  43.742  50.671  1.00  0.00    -0.242 N 
ATOM     16  C   UNL     1       0.751  44.346  52.705  1.00  0.00     0.194 A 
ATOM     17  N   UNL     1       0.031  43.515  50.851  1.00  0.00    -0.067 NA
ATOM     18  N   UNL     1      -0.344  43.876  52.071  1.00  0.00    -0.123 NA
ATOM     19  H   UNL     1       1.850  43.538  49.795  1.00  0.00     0.194 HD
BRANCH  16  20
ATOM     20  C   UNL     1       0.733  44.984  54.037  1.00  0.00     0.278 C 
ATOM     21  O   UNL     1       1.673  45.761  54.352  1.00  0.00    -0.267 OA
ATOM     22  N   UNL     1      -0.338  44.759  54.973  1.00  0.00    -0.337 N 
ATOM     23  C   UNL     1      -1.368  43.743  54.823  1.00  0.00     0.120 C 
ATOM     24  C   UNL     1      -0.418  45.450  56.248  1.00  0.00     0.120 C 
ATOM     25  C   UNL     1      -2.066  43.665  56.174  1.00  0.00     0.023 C 
ATOM     26  C   UNL     1      -1.697  44.952  56.906  1.00  0.00     0.023 C 
ENDBRANCH  16  20
ENDBRANCH  12  14
ENDBRANCH   7  10
TORSDOF 4
ENDMDL
MODEL 3
REMARK VINA RESULT:    -8.181      1.708      2.639
REMARK INTER + INTRA:         -10.830
REMARK INTER:                 -10.047
REMARK INTRA:                  -0.783
REMARK UNBOUND:                -0.736
REMARK SMILES CSc1cc(C)ccc1C(=O)Nc1[nH]nnc1C(=O)N1CCCC1
REMARK SMILES IDX 3 1 4 2 5 3 6 4 7 5 8 6 9 7 2 8 1 9 10 10 11 11 12 12 13 14
REMARK SMILES IDX 14 15 17 16 15 17 16 18 18 20 19 21 20 22 21 23 24 24 22 25
REMARK SMILES IDX 23 26
REMARK H PARENT 12 13 14 19
ROOT
ATOM      1  C   UNL     1       6.113  45.699  51.729  1.00  0.00     0.020 A 
ATOM      2  C   UNL     1       7.152  45.367  50.848  1.00  0.00     0.019 A 
ATOM      3  C   UNL     1       7.076  44.214  50.054  1.00  0.00    -0.050 A 
ATOM      4  C   UNL     1       8.179  43.885  49.094  1.00  0.00     0.044 C 
ATOM      5  C   UNL     1       5.935  43.404  50.125  1.00  0.00     0.004 A 
ATOM      6  C   UNL     1       4.890  43.733  50.991  1.00  0.00     0.015 A 
ATOM      7  C   UNL     1       4.956  44.887  51.789  1.00  0.00     0.053 A 
ENDROOT
BRANCH   1   8
ATOM      8  S   UNL     1       6.339  47.126  52.804  1.00  0.00    -0.129 SA
ATOM      9  C   UNL     1       7.916  47.608  52.033  1.00  0.00     0.091 C 
ENDBRANCH   1   8
BRANCH   7  10
ATOM     10  C   UNL     1       3.803  45.216  52.656  1.00  0.00     0.258 C 
ATOM     11  O   UNL     1       2.982  46.098  52.282  1.00  0.00    -0.269 OA
ATOM     12  N   UNL     1       3.669  44.614  53.952  1.00  0.00    -0.305 N 
ATOM     13  H   UNL     1       4.518  44.181  54.381  1.00  0.00     0.171 HD
BRANCH  12  14
ATOM     14  C   UNL     1       2.541  44.839  54.808  1.00  0.00     0.162 A 
ATOM     15  N   UNL     1       2.590  45.567  55.933  1.00  0.00    -0.242 N 
ATOM     16  C   UNL     1       1.243  44.382  54.664  1.00  0.00     0.194 A 
ATOM     17  N   UNL     1       1.374  45.574  56.455  1.00  0.00    -0.067 NA
ATOM     18  N   UNL     1       0.540  44.859  55.711  1.00  0.00    -0.123 NA
ATOM     19  H   UNL     1       3.418  46.059  56.334  1.00  0.00     0.194 HD
BRANCH  16  20
ATOM     20  C   UNL     1       0.717  43.419  53.675  1.00  0.00     0.278 C 
ATOM     21  O   UNL     1       1.245  42.277  53.597  1.00  0.00    -0.267 OA
ATOM     22  N   UNL     1      -0.393  43.741  52.818  1.00  0.00    -0.337 N 
ATOM     23  C   UNL     1      -0.959  45.072  52.661  1.00  0.00     0.120 C 
ATOM     24  C   UNL     1      -0.982  42.775  51.906  1.00  0.00     0.120 C 
ATOM     25  C   UNL     1      -1.870  44.990  51.444  1.00  0.00     0.023 C 
ATOM     26  C   UNL     1      -2.129  43.503  51.220  1.00  0.00     0.023 C 
ENDBRANCH  16  20
ENDBRANCH  12  14
ENDBRANCH   7  10
TORSDOF 4
ENDMDL
MODEL 4
REMARK VINA RESULT:    -7.875      2.588      7.758
REMARK INTER + INTRA:         -10.452
REMARK INTER:                  -9.958
REMARK INTRA:                  -0.493
REMARK UNBOUND:                -0.736
REMARK SMILES CSc1cc(C)ccc1C(=O)Nc1[nH]nnc1C(=O)N1CCCC1
REMARK SMILES IDX 3 1 4 2 5 3 6 4 7 5 8 6 9 7 2 8 1 9 10 10 11 11 12 12 13 14
REMARK SMILES IDX 14 15 17 16 15 17 16 18 18 20 19 21 20 22 21 23 24 24 22 25
REMARK SMILES IDX 23 26
REMARK H PARENT 12 13 14 19
ROOT
ATOM      1  C   UNL     1       0.301  44.616  53.871  1.00  0.00     0.020 A 
ATOM      2  C   UNL     1      -0.736  44.887  54.775  1.00  0.00     0.019 A 
ATOM      3  C   UNL     1      -0.457  45.166  56.120  1.00  0.00    -0.050 A 
ATOM      4  C   UNL     1      -1.571  45.484  57.072  1.00  0.00     0.044 C 
ATOM      5  C   UNL     1       0.875  45.201  56.554  1.00  0.00     0.004 A 
ATOM      6  C   UNL     1       1.914  44.944  55.658  1.00  0.00     0.015 A 
ATOM      7  C   UNL     1       1.646  44.665  54.308  1.00  0.00     0.053 A 
ENDROOT
BRANCH   1   8
ATOM      8  S   UNL     1      -0.144  44.145  52.190  1.00  0.00    -0.129 SA
ATOM      9  C   UNL     1      -0.337  42.384  52.607  1.00  0.00     0.091 C 
ENDBRANCH   1   8
BRANCH   7  10
ATOM     10  C   UNL     1       2.784  44.445  53.389  1.00  0.00     0.258 C 
ATOM     11  O   UNL     1       3.091  43.267  53.058  1.00  0.00    -0.269 OA
ATOM     12  N   UNL     1       3.594  45.548  52.953  1.00  0.00    -0.305 N 
ATOM     13  H   UNL     1       3.553  46.434  53.505  1.00  0.00     0.171 HD
BRANCH  12  14
ATOM     14  C   UNL     1       4.666  45.409  52.011  1.00  0.00     0.162 A 
ATOM     15  N   UNL     1       4.615  44.615  50.932  1.00  0.00    -0.242 N 
ATOM     16  C   UNL     1       5.902  46.029  52.014  1.00  0.00     0.194 A 
ATOM     17  N   UNL     1       5.763  44.747  50.287  1.00  0.00    -0.067 NA
ATOM     18  N   UNL     1       6.564  45.592  50.922  1.00  0.00    -0.123 NA
ATOM     19  H   UNL     1       3.823  44.008  50.628  1.00  0.00     0.194 HD
BRANCH  16  20
ATOM     20  C   UNL     1       6.500  46.874  53.068  1.00  0.00     0.278 C 
ATOM     21  O   UNL     1       5.745  47.604  53.764  1.00  0.00    -0.267 OA
ATOM     22  N   UNL     1       7.914  46.868  53.335  1.00  0.00    -0.337 N 
ATOM     23  C   UNL     1       8.914  46.236  52.488  1.00  0.00     0.120 C 
ATOM     24  C   UNL     1       8.506  47.622  54.427  1.00  0.00     0.120 C 
ATOM     25  C   UNL     1      10.257  46.757  52.981  1.00  0.00     0.023 C 
ATOM     26  C   UNL     1       9.997  47.321  54.375  1.00  0.00     0.023 C 
ENDBRANCH  16  20
ENDBRANCH  12  14
ENDBRANCH   7  10
TORSDOF 4
ENDMDL
MODEL 5
REMARK VINA RESULT:    -7.857      2.712      7.531
REMARK INTER + INTRA:         -10.429
REMARK INTER:                  -9.924
REMARK INTRA:                  -0.506
REMARK UNBOUND:                -0.736
REMARK SMILES CSc1cc(C)ccc1C(=O)Nc1[nH]nnc1C(=O)N1CCCC1
REMARK SMILES IDX 3 1 4 2 5 3 6 4 7 5 8 6 9 7 2 8 1 9 10 10 11 11 12 12 13 14
REMARK SMILES IDX 14 15 17 16 15 17 16 18 18 20 19 21 20 22 21 23 24 24 22 25
REMARK SMILES IDX 23 26
REMARK H PARENT 12 13 14 19
ROOT
ATOM      1  C   UNL     1       2.701  45.478  54.586  1.00  0.00     0.020 A 
ATOM      2  C   UNL     1       1.820  45.455  55.677  1.00  0.00     0.019 A 
ATOM      3  C   UNL     1       0.584  44.799  55.584  1.00  0.00    -0.050 A 
ATOM      4  C   UNL     1      -0.338  44.755  56.765  1.00  0.00     0.044 C 
ATOM      5  C   UNL     1       0.243  44.138  54.397  1.00  0.00     0.004 A 
ATOM      6  C   UNL     1       1.119  44.146  53.309  1.00  0.00     0.015 A 
ATOM      7  C   UNL     1       2.361  44.798  53.393  1.00  0.00     0.053 A 
ENDROOT
BRANCH   1   8
ATOM      8  S   UNL     1       4.213  46.444  54.741  1.00  0.00    -0.129 SA
ATOM      9  C   UNL     1       5.164  45.064  55.451  1.00  0.00     0.091 C 
ENDBRANCH   1   8
BRANCH   7  10
ATOM     10  C   UNL     1       3.273  44.738  52.230  1.00  0.00     0.258 C 
ATOM     11  O   UNL     1       2.978  45.374  51.181  1.00  0.00    -0.269 OA
ATOM     12  N   UNL     1       4.431  43.889  52.253  1.00  0.00    -0.305 N 
ATOM     13  H   UNL     1       4.460  43.120  52.960  1.00  0.00     0.171 HD
BRANCH  12  14
ATOM     14  C   UNL     1       5.388  43.840  51.187  1.00  0.00     0.162 A 
ATOM     15  N   UNL     1       5.494  42.820  50.324  1.00  0.00    -0.242 N 
ATOM     16  C   UNL     1       6.346  44.777  50.844  1.00  0.00     0.194 A 
ATOM     17  N   UNL     1       6.463  43.117  49.474  1.00  0.00    -0.067 NA
ATOM     18  N   UNL     1       7.002  44.293  49.768  1.00  0.00    -0.123 NA
ATOM     19  H   UNL     1       4.919  41.950  50.297  1.00  0.00     0.194 HD
BRANCH  16  20
ATOM     20  C   UNL     1       6.735  45.999  51.577  1.00  0.00     0.278 C 
ATOM     21  O   UNL     1       5.848  46.849  51.858  1.00  0.00    -0.267 OA
ATOM     22  N   UNL     1       8.092  46.233  51.997  1.00  0.00    -0.337 N 
ATOM     23  C   UNL     1       9.238  45.445  51.570  1.00  0.00     0.120 C 
ATOM     24  C   UNL     1       8.474  47.383  52.797  1.00  0.00     0.120 C 
ATOM     25  C   UNL     1      10.464  46.242  51.996  1.00  0.00     0.023 C 
ATOM     26  C   UNL     1       9.969  47.237  53.041  1.00  0.00     0.023 C 
ENDBRANCH  16  20
ENDBRANCH  12  14
ENDBRANCH   7  10
TORSDOF 4
ENDMDL
