MODEL 1
REMARK VINA RESULT:    -9.666      0.000      0.000
REMARK INTER + INTRA:         -14.164
REMARK INTER:                 -13.056
REMARK INTRA:                  -1.108
REMARK UNBOUND:                -1.108
REMARK SMILES CCc1noc(-c2ccc(C)c(NCc3ccc(C(=O)N4CCCC4)cc3)c2)n1
REMARK SMILES IDX 7 1 8 2 9 3 10 4 11 5 12 6 28 7 6 8 3 9 4 10 29 11 5 12 2 13
REMARK SMILES IDX 1 14 13 15 14 17 15 18 16 19 27 20 17 21 26 22 18 23 19 24
REMARK SMILES IDX 20 25 21 26 22 27 25 28 23 29 24 30
REMARK H PARENT 13 16
ROOT
ATOM      1  C   UNL     1       2.035  42.760  51.530  1.00  0.00     0.042 A 
ATOM      2  C   UNL     1       0.852  43.101  50.866  1.00  0.00     0.014 A 
ATOM      3  C   UNL     1      -0.187  43.726  51.554  1.00  0.00     0.006 A 
ATOM      4  C   UNL     1      -0.062  44.035  52.918  1.00  0.00    -0.028 A 
ATOM      5  C   UNL     1      -1.194  44.739  53.616  1.00  0.00     0.046 C 
ATOM      6  C   UNL     1       1.131  43.697  53.604  1.00  0.00     0.038 A 
ATOM      7  C   UNL     1       2.161  43.045  52.897  1.00  0.00     0.039 A 
ENDROOT
BRANCH   1   8
ATOM      8  C   UNL     1       3.141  42.119  50.792  1.00  0.00     0.257 A 
ATOM      9  C   UNL     1       5.030  41.570  50.097  1.00  0.00     0.172 A 
ATOM     10  N   UNL     1       4.135  40.864  49.379  1.00  0.00    -0.062 NA
ATOM     11  N   UNL     1       4.447  42.387  50.996  1.00  0.00    -0.192 NA
ATOM     12  O   UNL     1       2.978  41.229  49.844  1.00  0.00    -0.334 OA
BRANCH   9  13
ATOM     13  C   UNL     1       6.507  41.520  49.859  1.00  0.00     0.078 C 
ATOM     14  C   UNL     1       7.023  42.881  49.403  1.00  0.00     0.012 C 
ENDBRANCH   9  13
ENDBRANCH   1   8
BRANCH   6  15
ATOM     15  N   UNL     1       1.297  44.029  55.000  1.00  0.00    -0.381 N 
ATOM     16  H   UNL     1       0.839  43.438  55.730  1.00  0.00     0.160 HD
BRANCH  15  17
ATOM     17  C   UNL     1       1.994  45.226  55.479  1.00  0.00     0.148 C 
BRANCH  17  18
ATOM     18  C   UNL     1       3.231  45.487  54.658  1.00  0.00    -0.029 A 
ATOM     19  C   UNL     1       3.211  46.452  53.639  1.00  0.00     0.006 A 
ATOM     20  C   UNL     1       4.411  44.762  54.896  1.00  0.00     0.006 A 
ATOM     21  C   UNL     1       4.340  46.659  52.843  1.00  0.00     0.014 A 
ATOM     22  C   UNL     1       5.541  44.973  54.101  1.00  0.00     0.014 A 
ATOM     23  C   UNL     1       5.505  45.906  53.053  1.00  0.00     0.040 A 
BRANCH  23  24
ATOM     24  C   UNL     1       6.696  46.106  52.204  1.00  0.00     0.253 C 
ATOM     25  O   UNL     1       6.570  46.033  50.951  1.00  0.00    -0.269 OA
ATOM     26  N   UNL     1       7.983  46.409  52.773  1.00  0.00    -0.339 N 
ATOM     27  C   UNL     1       9.204  46.413  51.986  1.00  0.00     0.120 C 
ATOM     28  C   UNL     1       8.173  46.982  54.100  1.00  0.00     0.120 C 
ATOM     29  C   UNL     1      10.306  46.866  52.937  1.00  0.00     0.023 C 
ATOM     30  C   UNL     1       9.592  47.537  54.109  1.00  0.00     0.023 C 
ENDBRANCH  23  24
ENDBRANCH  17  18
ENDBRANCH  15  17
ENDBRANCH   6  15
TORSDOF 6
ENDMDL
MODEL 2
REMARK VINA RESULT:    -8.941      2.202      7.194
REMARK INTER + INTRA:         -13.185
REMARK INTER:                 -12.230
REMARK INTRA:                  -0.955
REMARK UNBOUND:                -1.108
REMARK SMILES CCc1noc(-c2ccc(C)c(NCc3ccc(C(=O)N4CCCC4)cc3)c2)n1
REMARK SMILES IDX 7 1 8 2 9 3 10 4 11 5 12 6 28 7 6 8 3 9 4 10 29 11 5 12 2 13
REMARK SMILES IDX 1 14 13 15 14 17 15 18 16 19 27 20 17 21 26 22 18 23 19 24
REMARK SMILES IDX 20 25 21 26 22 27 25 28 23 29 24 30
REMARK H PARENT 13 16
ROOT
ATOM      1  C   UNL     1       8.342  45.681  51.552  1.00  0.00     0.042 A 
ATOM      2  C   UNL     1       9.632  46.179  51.768  1.00  0.00     0.014 A 
ATOM      3  C   UNL     1       9.894  47.006  52.858  1.00  0.00     0.006 A 
ATOM      4  C   UNL     1       8.876  47.345  53.765  1.00  0.00    -0.028 A 
ATOM      5  C   UNL     1       9.209  48.215  54.948  1.00  0.00     0.046 C 
ATOM      6  C   UNL     1       7.565  46.848  53.560  1.00  0.00     0.038 A 
ATOM      7  C   UNL     1       7.314  46.031  52.440  1.00  0.00     0.039 A 
ENDROOT
BRANCH   1   8
ATOM      8  C   UNL     1       8.074  44.787  50.409  1.00  0.00     0.257 A 
ATOM      9  C   UNL     1       7.189  43.430  49.093  1.00  0.00     0.172 A 
ATOM     10  N   UNL     1       8.395  43.737  48.578  1.00  0.00    -0.062 NA
ATOM     11  N   UNL     1       6.946  44.063  50.258  1.00  0.00    -0.192 NA
ATOM     12  O   UNL     1       8.908  44.584  49.419  1.00  0.00    -0.334 OA
BRANCH   9  13
ATOM     13  C   UNL     1       6.258  42.429  48.485  1.00  0.00     0.078 C 
ATOM     14  C   UNL     1       5.657  41.533  49.562  1.00  0.00     0.012 C 
ENDBRANCH   9  13
ENDBRANCH   1   8
BRANCH   6  15
ATOM     15  N   UNL     1       6.506  47.157  54.493  1.00  0.00    -0.381 N 
ATOM     16  H   UNL     1       6.572  46.822  55.480  1.00  0.00     0.160 HD
BRANCH  15  17
ATOM     17  C   UNL     1       5.261  47.836  54.120  1.00  0.00     0.148 C 
BRANCH  17  18
ATOM     18  C   UNL     1       4.091  46.889  54.201  1.00  0.00    -0.029 A 
ATOM     19  C   UNL     1       3.968  46.012  55.290  1.00  0.00     0.006 A 
ATOM     20  C   UNL     1       3.122  46.866  53.184  1.00  0.00     0.006 A 
ATOM     21  C   UNL     1       2.913  45.097  55.341  1.00  0.00     0.014 A 
ATOM     22  C   UNL     1       2.065  45.953  53.239  1.00  0.00     0.014 A 
ATOM     23  C   UNL     1       1.967  45.046  54.305  1.00  0.00     0.040 A 
BRANCH  23  24
ATOM     24  C   UNL     1       0.861  44.069  54.342  1.00  0.00     0.253 C 
ATOM     25  O   UNL     1       0.997  42.971  53.736  1.00  0.00    -0.269 OA
ATOM     26  N   UNL     1      -0.348  44.332  55.078  1.00  0.00    -0.339 N 
ATOM     27  C   UNL     1      -1.526  43.487  54.971  1.00  0.00     0.120 C 
ATOM     28  C   UNL     1      -0.446  45.288  56.173  1.00  0.00     0.120 C 
ATOM     29  C   UNL     1      -2.532  44.056  55.965  1.00  0.00     0.023 C 
ATOM     30  C   UNL     1      -1.721  44.926  56.923  1.00  0.00     0.023 C 
ENDBRANCH  23  24
ENDBRANCH  17  18
ENDBRANCH  15  17
ENDBRANCH   6  15
TORSDOF 6
ENDMDL
MODEL 3
REMARK VINA RESULT:    -8.833      3.405      6.488
REMARK INTER + INTRA:         -13.039
REMARK INTER:                 -12.452
REMARK INTRA:                  -0.587
REMARK UNBOUND:                -1.108
REMARK SMILES CCc1noc(-c2ccc(C)c(NCc3ccc(C(=O)N4CCCC4)cc3)c2)n1
REMARK SMILES IDX 7 1 8 2 9 3 10 4 11 5 12 6 28 7 6 8 3 9 4 10 29 11 5 12 2 13
REMARK SMILES IDX 1 14 13 15 14 17 15 18 16 19 27 20 17 21 26 22 18 23 19 24
REMARK SMILES IDX 20 25 21 26 22 27 25 28 23 29 24 30
REMARK H PARENT 13 16
ROOT
ATOM      1  C   UNL     1      -0.495  45.568  56.433  1.00  0.00     0.042 A 
ATOM      2  C   UNL     1      -1.773  45.043  56.212  1.00  0.00     0.014 A 
ATOM      3  C   UNL     1      -2.009  44.193  55.133  1.00  0.00     0.006 A 
ATOM      4  C   UNL     1      -0.970  43.838  54.258  1.00  0.00    -0.028 A 
ATOM      5  C   UNL     1      -1.259  42.891  53.124  1.00  0.00     0.046 C 
ATOM      6  C   UNL     1       0.330  44.361  54.469  1.00  0.00     0.038 A 
ATOM      7  C   UNL     1       0.544  45.237  55.552  1.00  0.00     0.039 A 
ENDROOT
BRANCH   1   8
ATOM      8  C   UNL     1      -0.245  46.450  57.590  1.00  0.00     0.257 A 
ATOM      9  C   UNL     1      -0.432  47.900  59.079  1.00  0.00     0.172 A 
ATOM     10  N   UNL     1       0.781  47.339  59.237  1.00  0.00    -0.062 NA
ATOM     11  N   UNL     1      -1.115  47.378  58.041  1.00  0.00    -0.192 NA
ATOM     12  O   UNL     1       0.856  46.443  58.300  1.00  0.00    -0.334 OA
BRANCH   9  13
ATOM     13  C   UNL     1      -0.933  49.042  59.908  1.00  0.00     0.078 C 
ATOM     14  C   UNL     1      -2.064  49.770  59.190  1.00  0.00     0.012 C 
ENDBRANCH   9  13
ENDBRANCH   1   8
BRANCH   6  15
ATOM     15  N   UNL     1       1.424  43.990  53.600  1.00  0.00    -0.381 N 
ATOM     16  H   UNL     1       2.212  43.417  53.977  1.00  0.00     0.160 HD
BRANCH  15  17
ATOM     17  C   UNL     1       1.565  44.458  52.219  1.00  0.00     0.148 C 
BRANCH  17  18
ATOM     18  C   UNL     1       3.014  44.704  51.884  1.00  0.00    -0.029 A 
ATOM     19  C   UNL     1       4.013  43.876  52.420  1.00  0.00     0.006 A 
ATOM     20  C   UNL     1       3.380  45.770  51.044  1.00  0.00     0.006 A 
ATOM     21  C   UNL     1       5.360  44.134  52.153  1.00  0.00     0.014 A 
ATOM     22  C   UNL     1       4.728  46.024  50.776  1.00  0.00     0.014 A 
ATOM     23  C   UNL     1       5.728  45.223  51.348  1.00  0.00     0.040 A 
BRANCH  23  24
ATOM     24  C   UNL     1       7.149  45.513  51.077  1.00  0.00     0.253 C 
ATOM     25  O   UNL     1       7.628  45.219  49.947  1.00  0.00    -0.269 OA
ATOM     26  N   UNL     1       7.987  46.149  52.060  1.00  0.00    -0.339 N 
ATOM     27  C   UNL     1       9.426  46.267  51.902  1.00  0.00     0.120 C 
ATOM     28  C   UNL     1       7.480  46.952  53.166  1.00  0.00     0.120 C 
ATOM     29  C   UNL     1       9.909  47.072  53.104  1.00  0.00     0.023 C 
ATOM     30  C   UNL     1       8.669  47.768  53.661  1.00  0.00     0.023 C 
ENDBRANCH  23  24
ENDBRANCH  17  18
ENDBRANCH  15  17
ENDBRANCH   6  15
TORSDOF 6
ENDMDL
MODEL 4
REMARK VINA RESULT:    -8.639      3.809      8.259
REMARK INTER + INTRA:         -12.777
REMARK INTER:                 -12.026
REMARK INTRA:                  -0.751
REMARK UNBOUND:                -1.108
REMARK SMILES CCc1noc(-c2ccc(C)c(NCc3ccc(C(=O)N4CCCC4)cc3)c2)n1
REMARK SMILES IDX 7 1 8 2 9 3 10 4 11 5 12 6 28 7 6 8 3 9 4 10 29 11 5 12 2 13
REMARK SMILES IDX 1 14 13 15 14 17 15 18 16 19 27 20 17 21 26 22 18 23 19 24
REMARK SMILES IDX 20 25 21 26 22 27 25 28 23 29 24 30
REMARK H PARENT 13 16
ROOT
ATOM      1  C   UNL     1       5.096  45.554  51.952  1.00  0.00     0.042 A 
ATOM      2  C   UNL     1       3.820  46.124  51.893  1.00  0.00     0.014 A 
ATOM      3  C   UNL     1       2.719  45.352  51.528  1.00  0.00     0.006 A 
ATOM      4  C   UNL     1       2.867  43.989  51.224  1.00  0.00    -0.028 A 
ATOM      5  C   UNL     1       1.647  43.182  50.865  1.00  0.00     0.046 C 
ATOM      6  C   UNL     1       4.152  43.397  51.280  1.00  0.00     0.038 A 
ATOM      7  C   UNL     1       5.257  44.198  51.629  1.00  0.00     0.039 A 
ENDROOT
BRANCH   1   8
ATOM      8  C   UNL     1       6.256  46.371  52.361  1.00  0.00     0.257 A 
ATOM      9  C   UNL     1       8.191  47.089  52.663  1.00  0.00     0.172 A 
ATOM     10  N   UNL     1       7.358  47.957  53.269  1.00  0.00    -0.062 NA
ATOM     11  N   UNL     1       7.539  46.061  52.084  1.00  0.00    -0.192 NA
ATOM     12  O   UNL     1       6.170  47.480  53.054  1.00  0.00    -0.334 OA
BRANCH   9  13
ATOM     13  C   UNL     1       9.682  47.204  52.706  1.00  0.00     0.078 C 
ATOM     14  C   UNL     1      10.330  46.073  51.914  1.00  0.00     0.012 C 
ENDBRANCH   9  13
ENDBRANCH   1   8
BRANCH   6  15
ATOM     15  N   UNL     1       4.329  41.990  50.999  1.00  0.00    -0.381 N 
ATOM     16  H   UNL     1       3.685  41.291  51.435  1.00  0.00     0.160 HD
BRANCH  15  17
ATOM     17  C   UNL     1       5.438  41.446  50.211  1.00  0.00     0.148 C 
BRANCH  17  18
ATOM     18  C   UNL     1       5.006  41.185  48.791  1.00  0.00    -0.029 A 
ATOM     19  C   UNL     1       5.720  41.748  47.722  1.00  0.00     0.006 A 
ATOM     20  C   UNL     1       3.881  40.387  48.523  1.00  0.00     0.006 A 
ATOM     21  C   UNL     1       5.291  41.551  46.406  1.00  0.00     0.014 A 
ATOM     22  C   UNL     1       3.456  40.187  47.207  1.00  0.00     0.014 A 
ATOM     23  C   UNL     1       4.144  40.788  46.141  1.00  0.00     0.040 A 
BRANCH  23  24
ATOM     24  C   UNL     1       3.673  40.590  44.756  1.00  0.00     0.253 C 
ATOM     25  O   UNL     1       2.590  41.128  44.398  1.00  0.00    -0.269 OA
ATOM     26  N   UNL     1       4.437  39.826  43.805  1.00  0.00    -0.339 N 
ATOM     27  C   UNL     1       3.911  39.448  42.504  1.00  0.00     0.120 C 
ATOM     28  C   UNL     1       5.867  39.573  43.923  1.00  0.00     0.120 C 
ATOM     29  C   UNL     1       5.054  38.738  41.788  1.00  0.00     0.023 C 
ATOM     30  C   UNL     1       6.324  39.140  42.535  1.00  0.00     0.023 C 
ENDBRANCH  23  24
ENDBRANCH  17  18
ENDBRANCH  15  17
ENDBRANCH   6  15
TORSDOF 6
ENDMDL
MODEL 5
REMARK VINA RESULT:    -8.624      3.940      8.734
REMARK INTER + INTRA:         -12.757
REMARK INTER:                 -11.715
REMARK INTRA:                  -1.042
REMARK UNBOUND:                -1.108
REMARK SMILES CCc1noc(-c2ccc(C)c(NCc3ccc(C(=O)N4CCCC4)cc3)c2)n1
REMARK SMILES IDX 7 1 8 2 9 3 10 4 11 5 12 6 28 7 6 8 3 9 4 10 29 11 5 12 2 13
REMARK SMILES IDX 1 14 13 15 14 17 15 18 16 19 27 20 17 21 26 22 18 23 19 24
REMARK SMILES IDX 20 25 21 26 22 27 25 28 23 29 24 30
REMARK H PARENT 13 16
ROOT
ATOM      1  C   UNL     1       5.471  45.271  51.865  1.00  0.00     0.042 A 
ATOM      2  C   UNL     1       4.133  45.616  52.087  1.00  0.00     0.014 A 
ATOM      3  C   UNL     1       3.112  44.727  51.753  1.00  0.00     0.006 A 
ATOM      4  C   UNL     1       3.406  43.470  51.201  1.00  0.00    -0.028 A 
ATOM      5  C   UNL     1       2.276  42.527  50.885  1.00  0.00     0.046 C 
ATOM      6  C   UNL     1       4.756  43.107  50.972  1.00  0.00     0.038 A 
ATOM      7  C   UNL     1       5.773  44.026  51.295  1.00  0.00     0.039 A 
ENDROOT
BRANCH   1   8
ATOM      8  C   UNL     1       6.549  46.207  52.241  1.00  0.00     0.257 A 
ATOM      9  C   UNL     1       8.402  47.033  52.731  1.00  0.00     0.172 A 
ATOM     10  N   UNL     1       7.501  48.031  52.809  1.00  0.00    -0.062 NA
ATOM     11  N   UNL     1       7.844  45.855  52.386  1.00  0.00    -0.192 NA
ATOM     12  O   UNL     1       6.368  47.480  52.493  1.00  0.00    -0.334 OA
BRANCH   9  13
ATOM     13  C   UNL     1       9.849  47.193  53.077  1.00  0.00     0.078 C 
ATOM     14  C   UNL     1      10.038  47.223  54.590  1.00  0.00     0.012 C 
ENDBRANCH   9  13
ENDBRANCH   1   8
BRANCH   6  15
ATOM     15  N   UNL     1       5.088  41.808  50.432  1.00  0.00    -0.381 N 
ATOM     16  H   UNL     1       4.790  40.945  50.940  1.00  0.00     0.160 HD
BRANCH  15  17
ATOM     17  C   UNL     1       5.925  41.605  49.246  1.00  0.00     0.148 C 
BRANCH  17  18
ATOM     18  C   UNL     1       5.083  41.221  48.056  1.00  0.00    -0.029 A 
ATOM     19  C   UNL     1       3.933  40.435  48.231  1.00  0.00     0.006 A 
ATOM     20  C   UNL     1       5.445  41.634  46.763  1.00  0.00     0.006 A 
ATOM     21  C   UNL     1       3.179  40.034  47.124  1.00  0.00     0.014 A 
ATOM     22  C   UNL     1       4.688  41.235  45.658  1.00  0.00     0.014 A 
ATOM     23  C   UNL     1       3.564  40.413  45.829  1.00  0.00     0.040 A 
BRANCH  23  24
ATOM     24  C   UNL     1       2.785  39.977  44.654  1.00  0.00     0.253 C 
ATOM     25  O   UNL     1       2.958  38.811  44.205  1.00  0.00    -0.269 OA
ATOM     26  N   UNL     1       1.815  40.841  44.033  1.00  0.00    -0.339 N 
ATOM     27  C   UNL     1       1.181  40.520  42.766  1.00  0.00     0.120 C 
ATOM     28  C   UNL     1       1.183  41.970  44.702  1.00  0.00     0.120 C 
ATOM     29  C   UNL     1       0.172  41.635  42.516  1.00  0.00     0.023 C 
ATOM     30  C   UNL     1      -0.050  42.304  43.871  1.00  0.00     0.023 C 
ENDBRANCH  23  24
ENDBRANCH  17  18
ENDBRANCH  15  17
ENDBRANCH   6  15
TORSDOF 6
ENDMDL
