ligand_13_conformer_5_docked
     RDKit          3D

 40 42  0  0  0  0  0  0  0  0999 V2000
    4.7960   47.7820   53.8020 O   0  0  0  0  0  0  0  0  0  0  0  0
    4.5990   46.5390   53.7140 C   0  0  0  0  0  0  0  0  0  0  0  0
    5.7180   45.6500   53.5480 N   0  0  0  0  0  0  0  0  0  0  0  0
    6.9920   46.0630   53.0240 C   0  0  0  0  0  0  0  0  0  0  0  0
    7.1890   46.0910   51.6360 C   0  0  0  0  0  0  0  0  0  0  0  0
    8.4100   46.5060   51.1040 C   0  0  0  0  0  0  0  0  0  0  0  0
    9.4430   46.9120   51.9520 C   0  0  0  0  0  0  0  0  0  0  0  0
    9.2620   46.9140   53.3400 C   0  0  0  0  0  0  0  0  0  0  0  0
   10.3280   47.3440   54.1470 O   0  0  0  0  0  0  0  0  0  0  0  0
   10.2630   47.5080   55.5600 C   0  0  0  0  0  0  0  0  0  0  0  0
    9.5910   48.6800   55.8490 F   0  0  0  0  0  0  0  0  0  0  0  0
   11.5420   47.5820   56.0860 F   0  0  0  0  0  0  0  0  0  0  0  0
    8.0280   46.4950   53.8730 C   0  0  0  0  0  0  0  0  0  0  0  0
    3.2180   46.0100   53.8340 C   0  0  0  0  0  0  0  0  0  0  0  0
    2.8080   45.3660   55.0150 C   0  0  0  0  0  0  0  0  0  0  0  0
    1.5060   44.8720   55.1400 C   0  0  0  0  0  0  0  0  0  0  0  0
    0.5830   45.0290   54.0920 C   0  0  0  0  0  0  0  0  0  0  0  0
   -0.7540   44.5070   54.1870 N   0  0  0  0  0  0  0  0  0  0  0  0
   -1.5300   44.4880   55.3940 C   0  0  0  0  0  0  0  0  0  0  0  0
   -2.0760   43.3180   55.8210 N   0  0  0  0  0  0  0  0  0  0  0  0
   -2.8400   43.2690   56.9430 C   0  0  0  0  0  0  0  0  0  0  0  0
   -3.0830   44.4330   57.6710 C   0  0  0  0  0  0  0  0  0  0  0  0
   -2.5290   45.6270   57.2140 C   0  0  0  0  0  0  0  0  0  0  0  0
   -1.7700   45.6350   56.0880 N   0  0  0  0  0  0  0  0  0  0  0  0
    0.9940   45.6550   52.9090 C   0  0  0  0  0  0  0  0  0  0  0  0
    2.2950   46.1520   52.7830 C   0  0  0  0  0  0  0  0  0  0  0  0
    5.6380   44.6830   53.9350 H   0  0  0  0  0  0  0  0  0  0  0  0
    6.3755   45.7838   50.9623 H   0  0  0  0  0  0  0  0  0  0  0  0
    8.5596   46.5135   50.0142 H   0  0  0  0  0  0  0  0  0  0  0  0
   10.4053   47.2323   51.5261 H   0  0  0  0  0  0  0  0  0  0  0  0
    9.7358   46.6489   56.0005 H   0  0  0  0  0  0  0  0  0  0  0  0
    7.8724   46.5054   54.9619 H   0  0  0  0  0  0  0  0  0  0  0  0
    3.5176   45.2499   55.8475 H   0  0  0  0  0  0  0  0  0  0  0  0
    1.2025   44.3576   56.0637 H   0  0  0  0  0  0  0  0  0  0  0  0
   -1.2230   44.1940   53.3070 H   0  0  0  0  0  0  0  0  0  0  0  0
   -3.2667   42.3117   57.2770 H   0  0  0  0  0  0  0  0  0  0  0  0
   -3.6968   44.4093   58.5835 H   0  0  0  0  0  0  0  0  0  0  0  0
   -2.7063   46.5624   57.7649 H   0  0  0  0  0  0  0  0  0  0  0  0
    0.2877   45.7567   52.0718 H   0  0  0  0  0  0  0  0  0  0  0  0
    2.5985   46.6579   51.8546 H   0  0  0  0  0  0  0  0  0  0  0  0
  1  2  2  0
  2  3  1  0
  3  4  1  0
  4  5  2  0
  5  6  1  0
  6  7  2  0
  7  8  1  0
  8  9  1  0
  9 10  1  0
 10 11  1  0
 10 12  1  0
  8 13  2  0
  2 14  1  0
 14 15  2  0
 15 16  1  0
 16 17  2  0
 17 18  1  0
 18 19  1  0
 19 20  2  0
 20 21  1  0
 21 22  2  0
 22 23  1  0
 23 24  2  0
 17 25  1  0
 25 26  2  0
 13  4  1  0
 26 14  1  0
 24 19  1  0
  3 27  1  0
  5 28  1  0
  6 29  1  0
  7 30  1  0
 10 31  1  0
 13 32  1  0
 15 33  1  0
 16 34  1  0
 18 35  1  0
 21 36  1  0
 22 37  1  0
 23 38  1  0
 25 39  1  0
 26 40  1  0
M  END
>  <meeko>  (1) 
{"is_sidechain": [false], "free_energy": -8.329, "intermolecular_energy": -11.25, "internal_energy": -0.706}

$$$$
ligand_13_conformer_5_docked
     RDKit          3D

 40 42  0  0  0  0  0  0  0  0999 V2000
    6.3890   44.1670   51.0070 O   0  0  0  0  0  0  0  0  0  0  0  0
    5.5310   44.8960   51.5750 C   0  0  0  0  0  0  0  0  0  0  0  0
    5.9230   46.1720   52.1110 N   0  0  0  0  0  0  0  0  0  0  0  0
    7.2770   46.5070   52.4630 C   0  0  0  0  0  0  0  0  0  0  0  0
    8.2820   46.4240   51.4880 C   0  0  0  0  0  0  0  0  0  0  0  0
    9.5990   46.7620   51.7990 C   0  0  0  0  0  0  0  0  0  0  0  0
    9.9250   47.1990   53.0840 C   0  0  0  0  0  0  0  0  0  0  0  0
    8.9360   47.3120   54.0680 C   0  0  0  0  0  0  0  0  0  0  0  0
    9.3150   47.7700   55.3400 O   0  0  0  0  0  0  0  0  0  0  0  0
   10.6440   47.7380   55.8540 C   0  0  0  0  0  0  0  0  0  0  0  0
   11.0340   46.4230   56.0140 F   0  0  0  0  0  0  0  0  0  0  0  0
   10.6900   48.3730   57.0820 F   0  0  0  0  0  0  0  0  0  0  0  0
    7.6070   46.9710   53.7490 C   0  0  0  0  0  0  0  0  0  0  0  0
    4.1190   44.4470   51.6360 C   0  0  0  0  0  0  0  0  0  0  0  0
    3.0850   45.3040   51.2180 C   0  0  0  0  0  0  0  0  0  0  0  0
    1.7520   44.8850   51.2650 C   0  0  0  0  0  0  0  0  0  0  0  0
    1.4280   43.5940   51.7130 C   0  0  0  0  0  0  0  0  0  0  0  0
    0.0630   43.1490   51.7940 N   0  0  0  0  0  0  0  0  0  0  0  0
   -0.8360   43.4910   52.8590 C   0  0  0  0  0  0  0  0  0  0  0  0
   -0.3460   43.6870   54.1120 N   0  0  0  0  0  0  0  0  0  0  0  0
   -1.1710   43.9830   55.1500 C   0  0  0  0  0  0  0  0  0  0  0  0
   -2.5450   44.0820   54.9390 C   0  0  0  0  0  0  0  0  0  0  0  0
   -3.0350   43.8650   53.6530 C   0  0  0  0  0  0  0  0  0  0  0  0
   -2.1780   43.5710   52.6410 N   0  0  0  0  0  0  0  0  0  0  0  0
    2.4550   42.7450   52.1450 C   0  0  0  0  0  0  0  0  0  0  0  0
    3.7890   43.1600   52.0970 C   0  0  0  0  0  0  0  0  0  0  0  0
    5.2080   46.9350   52.1370 H   0  0  0  0  0  0  0  0  0  0  0  0
    8.0297   46.0899   50.4708 H   0  0  0  0  0  0  0  0  0  0  0  0
   10.3820   46.6841   51.0304 H   0  0  0  0  0  0  0  0  0  0  0  0
   10.9669   47.4565   53.3251 H   0  0  0  0  0  0  0  0  0  0  0  0
   11.3173   48.2519   55.1521 H   0  0  0  0  0  0  0  0  0  0  0  0
    6.8207   47.0684   54.5121 H   0  0  0  0  0  0  0  0  0  0  0  0
    3.3272   46.3123   50.8510 H   0  0  0  0  0  0  0  0  0  0  0  0
    0.9520   45.5708   50.9491 H   0  0  0  0  0  0  0  0  0  0  0  0
   -0.3260   42.6080   50.9890 H   0  0  0  0  0  0  0  0  0  0  0  0
   -0.7551   44.1443   56.1555 H   0  0  0  0  0  0  0  0  0  0  0  0
   -3.2261   44.3256   55.7677 H   0  0  0  0  0  0  0  0  0  0  0  0
   -4.1154   43.9317   53.4573 H   0  0  0  0  0  0  0  0  0  0  0  0
    2.2095   41.7425   52.5255 H   0  0  0  0  0  0  0  0  0  0  0  0
    4.5861   42.4752   52.4220 H   0  0  0  0  0  0  0  0  0  0  0  0
  1  2  2  0
  2  3  1  0
  3  4  1  0
  4  5  2  0
  5  6  1  0
  6  7  2  0
  7  8  1  0
  8  9  1  0
  9 10  1  0
 10 11  1  0
 10 12  1  0
  8 13  2  0
  2 14  1  0
 14 15  2  0
 15 16  1  0
 16 17  2  0
 17 18  1  0
 18 19  1  0
 19 20  2  0
 20 21  1  0
 21 22  2  0
 22 23  1  0
 23 24  2  0
 17 25  1  0
 25 26  2  0
 13  4  1  0
 26 14  1  0
 24 19  1  0
  3 27  1  0
  5 28  1  0
  6 29  1  0
  7 30  1  0
 10 31  1  0
 13 32  1  0
 15 33  1  0
 16 34  1  0
 18 35  1  0
 21 36  1  0
 22 37  1  0
 23 38  1  0
 25 39  1  0
 26 40  1  0
M  END
>  <meeko>  (2) 
{"is_sidechain": [false], "free_energy": -8.127, "intermolecular_energy": -11.333, "internal_energy": -0.351}

$$$$
ligand_13_conformer_5_docked
     RDKit          3D

 40 42  0  0  0  0  0  0  0  0999 V2000
    3.7160   43.3580   52.8410 O   0  0  0  0  0  0  0  0  0  0  0  0
    3.3040   44.5280   53.0710 C   0  0  0  0  0  0  0  0  0  0  0  0
    3.9040   45.6430   52.3880 N   0  0  0  0  0  0  0  0  0  0  0  0
    5.2190   45.6070   51.8060 C   0  0  0  0  0  0  0  0  0  0  0  0
    5.4500   44.8050   50.6790 C   0  0  0  0  0  0  0  0  0  0  0  0
    6.7130   44.7680   50.0860 C   0  0  0  0  0  0  0  0  0  0  0  0
    7.7530   45.5430   50.6020 C   0  0  0  0  0  0  0  0  0  0  0  0
    7.5400   46.3680   51.7120 C   0  0  0  0  0  0  0  0  0  0  0  0
    8.6160   47.1370   52.1840 O   0  0  0  0  0  0  0  0  0  0  0  0
    9.7980   46.6040   52.7760 C   0  0  0  0  0  0  0  0  0  0  0  0
   10.2540   47.4800   53.7420 F   0  0  0  0  0  0  0  0  0  0  0  0
   10.7790   46.4490   51.8120 F   0  0  0  0  0  0  0  0  0  0  0  0
    6.2640   46.4030   52.3080 C   0  0  0  0  0  0  0  0  0  0  0  0
    2.1720   44.7300   54.0080 C   0  0  0  0  0  0  0  0  0  0  0  0
    2.4160   45.0130   55.3630 C   0  0  0  0  0  0  0  0  0  0  0  0
    1.3540   45.2120   56.2510 C   0  0  0  0  0  0  0  0  0  0  0  0
    0.0270   45.1520   55.7960 C   0  0  0  0  0  0  0  0  0  0  0  0
   -1.0820   45.3290   56.6940 N   0  0  0  0  0  0  0  0  0  0  0  0
   -1.4370   46.5800   57.3020 C   0  0  0  0  0  0  0  0  0  0  0  0
   -0.7340   47.0250   58.3780 N   0  0  0  0  0  0  0  0  0  0  0  0
   -1.0600   48.1890   58.9970 C   0  0  0  0  0  0  0  0  0  0  0  0
   -2.1380   48.9440   58.5350 C   0  0  0  0  0  0  0  0  0  0  0  0
   -2.8580   48.4700   57.4410 C   0  0  0  0  0  0  0  0  0  0  0  0
   -2.5000   47.3000   56.8490 N   0  0  0  0  0  0  0  0  0  0  0  0
   -0.2190   44.8550   54.4500 C   0  0  0  0  0  0  0  0  0  0  0  0
    0.8400   44.6570   53.5600 C   0  0  0  0  0  0  0  0  0  0  0  0
    3.3090   46.4820   52.2020 H   0  0  0  0  0  0  0  0  0  0  0  0
    4.6312   44.2017   50.2600 H   0  0  0  0  0  0  0  0  0  0  0  0
    6.8892   44.1266   49.2099 H   0  0  0  0  0  0  0  0  0  0  0  0
    8.7471   45.5049   50.1327 H   0  0  0  0  0  0  0  0  0  0  0  0
    9.5694   45.6266   53.2260 H   0  0  0  0  0  0  0  0  0  0  0  0
    6.0836   47.0582   53.1730 H   0  0  0  0  0  0  0  0  0  0  0  0
    3.4515   45.0785   55.7283 H   0  0  0  0  0  0  0  0  0  0  0  0
    1.5595   45.4167   57.3121 H   0  0  0  0  0  0  0  0  0  0  0  0
   -1.7200   44.5170   56.8540 H   0  0  0  0  0  0  0  0  0  0  0  0
   -0.4748   48.5359   59.8614 H   0  0  0  0  0  0  0  0  0  0  0  0
   -2.4128   49.8908   59.0228 H   0  0  0  0  0  0  0  0  0  0  0  0
   -3.7154   49.0419   57.0565 H   0  0  0  0  0  0  0  0  0  0  0  0
   -1.2554   44.7768   54.0898 H   0  0  0  0  0  0  0  0  0  0  0  0
    0.6309   44.4425   52.5016 H   0  0  0  0  0  0  0  0  0  0  0  0
  1  2  2  0
  2  3  1  0
  3  4  1  0
  4  5  2  0
  5  6  1  0
  6  7  2  0
  7  8  1  0
  8  9  1  0
  9 10  1  0
 10 11  1  0
 10 12  1  0
  8 13  2  0
  2 14  1  0
 14 15  2  0
 15 16  1  0
 16 17  2  0
 17 18  1  0
 18 19  1  0
 19 20  2  0
 20 21  1  0
 21 22  2  0
 22 23  1  0
 23 24  2  0
 17 25  1  0
 25 26  2  0
 13  4  1  0
 26 14  1  0
 24 19  1  0
  3 27  1  0
  5 28  1  0
  6 29  1  0
  7 30  1  0
 10 31  1  0
 13 32  1  0
 15 33  1  0
 16 34  1  0
 18 35  1  0
 21 36  1  0
 22 37  1  0
 23 38  1  0
 25 39  1  0
 26 40  1  0
M  END
>  <meeko>  (3) 
{"is_sidechain": [false], "free_energy": -8.084, "intermolecular_energy": -11.164, "internal_energy": -0.461}

$$$$
ligand_13_conformer_5_docked
     RDKit          3D

 40 42  0  0  0  0  0  0  0  0999 V2000
    0.4330   45.7710   52.3430 O   0  0  0  0  0  0  0  0  0  0  0  0
    1.3630   45.1320   52.9070 C   0  0  0  0  0  0  0  0  0  0  0  0
    1.0680   44.2920   54.0360 N   0  0  0  0  0  0  0  0  0  0  0  0
   -0.0970   44.4510   54.8650 C   0  0  0  0  0  0  0  0  0  0  0  0
   -1.2830   43.7900   54.5170 C   0  0  0  0  0  0  0  0  0  0  0  0
   -2.4210   43.9120   55.3160 C   0  0  0  0  0  0  0  0  0  0  0  0
   -2.3820   44.6860   56.4780 C   0  0  0  0  0  0  0  0  0  0  0  0
   -1.2020   45.3370   56.8570 C   0  0  0  0  0  0  0  0  0  0  0  0
   -1.2130   46.0910   58.0410 O   0  0  0  0  0  0  0  0  0  0  0  0
   -0.8070   47.4530   58.1420 C   0  0  0  0  0  0  0  0  0  0  0  0
    0.4760   47.5060   58.6500 F   0  0  0  0  0  0  0  0  0  0  0  0
   -1.6560   48.1370   58.9950 F   0  0  0  0  0  0  0  0  0  0  0  0
   -0.0560   45.2100   56.0490 C   0  0  0  0  0  0  0  0  0  0  0  0
    2.7400   45.2190   52.3630 C   0  0  0  0  0  0  0  0  0  0  0  0
    3.7780   44.4660   52.9390 C   0  0  0  0  0  0  0  0  0  0  0  0
    5.0780   44.5370   52.4280 C   0  0  0  0  0  0  0  0  0  0  0  0
    5.3600   45.3480   51.3160 C   0  0  0  0  0  0  0  0  0  0  0  0
    6.6930   45.4560   50.7870 N   0  0  0  0  0  0  0  0  0  0  0  0
    7.8110   45.9820   51.5170 C   0  0  0  0  0  0  0  0  0  0  0  0
    7.5960   46.8790   52.5160 N   0  0  0  0  0  0  0  0  0  0  0  0
    8.6320   47.4200   53.2080 C   0  0  0  0  0  0  0  0  0  0  0  0
    9.9420   47.0640   52.8910 C   0  0  0  0  0  0  0  0  0  0  0  0
   10.1480   46.1550   51.8560 C   0  0  0  0  0  0  0  0  0  0  0  0
    9.0860   45.6360   51.1870 N   0  0  0  0  0  0  0  0  0  0  0  0
    4.3310   46.1110   50.7500 C   0  0  0  0  0  0  0  0  0  0  0  0
    3.0310   46.0410   51.2590 C   0  0  0  0  0  0  0  0  0  0  0  0
    1.6690   43.4500   54.1920 H   0  0  0  0  0  0  0  0  0  0  0  0
   -1.3172   43.1711   53.6083 H   0  0  0  0  0  0  0  0  0  0  0  0
   -3.3503   43.3976   55.0300 H   0  0  0  0  0  0  0  0  0  0  0  0
   -3.2843   44.7847   57.0994 H   0  0  0  0  0  0  0  0  0  0  0  0
   -0.8407   47.9155   57.1445 H   0  0  0  0  0  0  0  0  0  0  0  0
    0.8788   45.7081   56.3457 H   0  0  0  0  0  0  0  0  0  0  0  0
    3.5658   43.8148   53.7997 H   0  0  0  0  0  0  0  0  0  0  0  0
    5.8837   43.9549   52.8992 H   0  0  0  0  0  0  0  0  0  0  0  0
    6.8810   45.0550   49.8410 H   0  0  0  0  0  0  0  0  0  0  0  0
    8.4375   48.1385   54.0179 H   0  0  0  0  0  0  0  0  0  0  0  0
   10.7917   47.4903   53.4444 H   0  0  0  0  0  0  0  0  0  0  0  0
   11.1705   45.8575   51.5805 H   0  0  0  0  0  0  0  0  0  0  0  0
    4.5477   46.7713   49.8973 H   0  0  0  0  0  0  0  0  0  0  0  0
    2.2296   46.6330   50.7929 H   0  0  0  0  0  0  0  0  0  0  0  0
  1  2  2  0
  2  3  1  0
  3  4  1  0
  4  5  2  0
  5  6  1  0
  6  7  2  0
  7  8  1  0
  8  9  1  0
  9 10  1  0
 10 11  1  0
 10 12  1  0
  8 13  2  0
  2 14  1  0
 14 15  2  0
 15 16  1  0
 16 17  2  0
 17 18  1  0
 18 19  1  0
 19 20  2  0
 20 21  1  0
 21 22  2  0
 22 23  1  0
 23 24  2  0
 17 25  1  0
 25 26  2  0
 13  4  1  0
 26 14  1  0
 24 19  1  0
  3 27  1  0
  5 28  1  0
  6 29  1  0
  7 30  1  0
 10 31  1  0
 13 32  1  0
 15 33  1  0
 16 34  1  0
 18 35  1  0
 21 36  1  0
 22 37  1  0
 23 38  1  0
 25 39  1  0
 26 40  1  0
M  END
>  <meeko>  (4) 
{"is_sidechain": [false], "free_energy": -7.854, "intermolecular_energy": -10.633, "internal_energy": -0.682}

$$$$
ligand_13_conformer_5_docked
     RDKit          3D

 40 42  0  0  0  0  0  0  0  0999 V2000
    3.2920   46.4170   50.7000 O   0  0  0  0  0  0  0  0  0  0  0  0
    3.2600   45.6100   51.6690 C   0  0  0  0  0  0  0  0  0  0  0  0
    4.4900   45.1720   52.2730 N   0  0  0  0  0  0  0  0  0  0  0  0
    5.7630   45.2080   51.6040 C   0  0  0  0  0  0  0  0  0  0  0  0
    6.0180   44.3050   50.5620 C   0  0  0  0  0  0  0  0  0  0  0  0
    7.2380   44.3330   49.8850 C   0  0  0  0  0  0  0  0  0  0  0  0
    8.2110   45.2730   50.2320 C   0  0  0  0  0  0  0  0  0  0  0  0
    7.9710   46.1990   51.2530 C   0  0  0  0  0  0  0  0  0  0  0  0
    8.9770   47.1310   51.5530 O   0  0  0  0  0  0  0  0  0  0  0  0
    9.8670   47.0390   52.6620 C   0  0  0  0  0  0  0  0  0  0  0  0
    9.8320   45.7520   53.1630 F   0  0  0  0  0  0  0  0  0  0  0  0
    9.4760   47.9190   53.6560 F   0  0  0  0  0  0  0  0  0  0  0  0
    6.7380   46.1680   51.9340 C   0  0  0  0  0  0  0  0  0  0  0  0
    1.9500   45.1640   52.2030 C   0  0  0  0  0  0  0  0  0  0  0  0
    1.6650   45.2910   53.5740 C   0  0  0  0  0  0  0  0  0  0  0  0
    0.4290   44.8810   54.0850 C   0  0  0  0  0  0  0  0  0  0  0  0
   -0.5530   44.3540   53.2290 C   0  0  0  0  0  0  0  0  0  0  0  0
   -1.8220   43.9030   53.7340 N   0  0  0  0  0  0  0  0  0  0  0  0
   -2.3040   44.1670   55.0590 C   0  0  0  0  0  0  0  0  0  0  0  0
   -2.7910   45.4000   55.3610 N   0  0  0  0  0  0  0  0  0  0  0  0
   -3.2280   45.6950   56.6130 C   0  0  0  0  0  0  0  0  0  0  0  0
   -3.1730   44.7270   57.6150 C   0  0  0  0  0  0  0  0  0  0  0  0
   -2.6590   43.4720   57.2950 C   0  0  0  0  0  0  0  0  0  0  0  0
   -2.2310   43.2170   56.0310 N   0  0  0  0  0  0  0  0  0  0  0  0
   -0.2650   44.2120   51.8660 C   0  0  0  0  0  0  0  0  0  0  0  0
    0.9690   44.6230   51.3530 C   0  0  0  0  0  0  0  0  0  0  0  0
    4.4780   44.9250   53.2880 H   0  0  0  0  0  0  0  0  0  0  0  0
    5.2514   43.5697   50.2763 H   0  0  0  0  0  0  0  0  0  0  0  0
    7.4337   43.6133   49.0765 H   0  0  0  0  0  0  0  0  0  0  0  0
    9.1730   45.2854   49.6987 H   0  0  0  0  0  0  0  0  0  0  0  0
   10.8854   47.2915   52.3315 H   0  0  0  0  0  0  0  0  0  0  0  0
    6.5357   46.8999   52.7299 H   0  0  0  0  0  0  0  0  0  0  0  0
    2.4206   45.7165   54.2507 H   0  0  0  0  0  0  0  0  0  0  0  0
    0.2248   44.9716   55.1621 H   0  0  0  0  0  0  0  0  0  0  0  0
   -2.4700   43.4200   53.0720 H   0  0  0  0  0  0  0  0  0  0  0  0
   -3.6248   46.6964   56.8360 H   0  0  0  0  0  0  0  0  0  0  0  0
   -3.5266   44.9485   58.6328 H   0  0  0  0  0  0  0  0  0  0  0  0
   -2.5998   42.6886   58.0649 H   0  0  0  0  0  0  0  0  0  0  0  0
   -1.0163   43.7732   51.1929 H   0  0  0  0  0  0  0  0  0  0  0  0
    1.1739   44.5225   50.2769 H   0  0  0  0  0  0  0  0  0  0  0  0
  1  2  2  0
  2  3  1  0
  3  4  1  0
  4  5  2  0
  5  6  1  0
  6  7  2  0
  7  8  1  0
  8  9  1  0
  9 10  1  0
 10 11  1  0
 10 12  1  0
  8 13  2  0
  2 14  1  0
 14 15  2  0
 15 16  1  0
 16 17  2  0
 17 18  1  0
 18 19  1  0
 19 20  2  0
 20 21  1  0
 21 22  2  0
 22 23  1  0
 23 24  2  0
 17 25  1  0
 25 26  2  0
 13  4  1  0
 26 14  1  0
 24 19  1  0
  3 27  1  0
  5 28  1  0
  6 29  1  0
  7 30  1  0
 10 31  1  0
 13 32  1  0
 15 33  1  0
 16 34  1  0
 18 35  1  0
 21 36  1  0
 22 37  1  0
 23 38  1  0
 25 39  1  0
 26 40  1  0
M  END
>  <meeko>  (5) 
{"is_sidechain": [false], "free_energy": -7.753, "intermolecular_energy": -10.372, "internal_energy": -0.806}

$$$$
