ligand_26_conformer_4_docked
     RDKit          3D

 42 44  0  0  0  0  0  0  0  0999 V2000
    9.2370   47.8910   54.8140 C   0  0  0  0  0  0  0  0  0  0  0  0
    8.8990   47.1690   53.5430 C   0  0  0  0  0  0  0  0  0  0  0  0
    9.8970   46.8910   52.6020 C   0  0  0  0  0  0  0  0  0  0  0  0
    9.5890   46.1820   51.4390 C   0  0  0  0  0  0  0  0  0  0  0  0
    8.2810   45.7260   51.2010 C   0  0  0  0  0  0  0  0  0  0  0  0
    7.9980   44.9680   49.9320 C   0  0  0  0  0  0  0  0  0  0  0  0
    7.2640   46.0160   52.1440 C   0  0  0  0  0  0  0  0  0  0  0  0
    5.5840   45.5030   51.9010 S   0  0  0  0  0  0  0  0  0  0  0  0
    4.6660   46.1960   52.8670 O   0  0  0  0  0  0  0  0  0  0  0  0
    5.1720   45.8500   50.4980 O   0  0  0  0  0  0  0  0  0  0  0  0
    5.4250   43.7870   52.1210 N   0  0  0  0  0  0  0  0  0  0  0  0
    4.9970   42.8760   51.0910 C   0  0  0  0  0  0  0  0  0  0  0  0
    5.8730   42.4140   50.0930 C   0  0  0  0  0  0  0  0  0  0  0  0
    5.4190   41.5410   49.0990 C   0  0  0  0  0  0  0  0  0  0  0  0
    4.0810   41.1110   49.0840 C   0  0  0  0  0  0  0  0  0  0  0  0
    3.5780   40.1880   48.0410 C   0  0  0  0  0  0  0  0  0  0  0  0
    3.6250   40.3460   46.6690 C   0  0  0  0  0  0  0  0  0  0  0  0
    3.0530   39.2750   46.0850 N   0  0  0  0  0  0  0  0  0  0  0  0
    2.6880   38.5060   47.1310 C   0  0  0  0  0  0  0  0  0  0  0  0
    1.9810   37.2010   46.9850 C   0  0  0  0  0  0  0  0  0  0  0  0
    2.9910   39.0430   48.2910 O   0  0  0  0  0  0  0  0  0  0  0  0
    3.2080   41.5720   50.0810 C   0  0  0  0  0  0  0  0  0  0  0  0
    3.6620   42.4460   51.0730 C   0  0  0  0  0  0  0  0  0  0  0  0
    7.5940   46.7120   53.3200 C   0  0  0  0  0  0  0  0  0  0  0  0
    8.9471   47.2718   55.6757 H   0  0  0  0  0  0  0  0  0  0  0  0
   10.3193   48.0845   54.8491 H   0  0  0  0  0  0  0  0  0  0  0  0
    8.6924   48.8461   54.8491 H   0  0  0  0  0  0  0  0  0  0  0  0
   10.9276   47.2322   52.7791 H   0  0  0  0  0  0  0  0  0  0  0  0
   10.3788   45.9781   50.7010 H   0  0  0  0  0  0  0  0  0  0  0  0
    7.6232   43.9641   50.1804 H   0  0  0  0  0  0  0  0  0  0  0  0
    7.2406   45.5071   49.3440 H   0  0  0  0  0  0  0  0  0  0  0  0
    8.9234   44.8788   49.3440 H   0  0  0  0  0  0  0  0  0  0  0  0
    5.6580   43.4100   53.0660 H   0  0  0  0  0  0  0  0  0  0  0  0
    6.9231   42.7415   50.0939 H   0  0  0  0  0  0  0  0  0  0  0  0
    6.1144   41.1883   48.3231 H   0  0  0  0  0  0  0  0  0  0  0  0
    4.0591   41.2068   46.1394 H   0  0  0  0  0  0  0  0  0  0  0  0
    1.7588   36.7909   47.9812 H   0  0  0  0  0  0  0  0  0  0  0  0
    1.0417   37.3526   46.4331 H   0  0  0  0  0  0  0  0  0  0  0  0
    2.6211   36.4970   46.4331 H   0  0  0  0  0  0  0  0  0  0  0  0
    2.1583   41.2431   50.0820 H   0  0  0  0  0  0  0  0  0  0  0  0
    2.9654   42.8001   51.8472 H   0  0  0  0  0  0  0  0  0  0  0  0
    6.8167   46.9002   54.0753 H   0  0  0  0  0  0  0  0  0  0  0  0
  1  2  1  0
  2  3  2  0
  3  4  1  0
  4  5  2  0
  5  6  1  0
  5  7  1  0
  7  8  1  0
  8  9  2  0
  8 10  2  0
  8 11  1  0
 11 12  1  0
 12 13  2  0
 13 14  1  0
 14 15  2  0
 15 16  1  0
 16 17  2  0
 17 18  1  0
 18 19  2  0
 19 20  1  0
 19 21  1  0
 15 22  1  0
 22 23  2  0
  7 24  2  0
 24  2  1  0
 23 12  1  0
 21 16  1  0
  1 25  1  0
  1 26  1  0
  1 27  1  0
  3 28  1  0
  4 29  1  0
  6 30  1  0
  6 31  1  0
  6 32  1  0
 11 33  1  0
 13 34  1  0
 14 35  1  0
 17 36  1  0
 20 37  1  0
 20 38  1  0
 20 39  1  0
 22 40  1  0
 23 41  1  0
 24 42  1  0
M  END
>  <meeko>  (1) 
{"is_sidechain": [false], "free_energy": -9.157, "intermolecular_energy": -11.298, "internal_energy": -0.211}

$$$$
ligand_26_conformer_4_docked
     RDKit          3D

 42 44  0  0  0  0  0  0  0  0999 V2000
   10.5570   47.5610   55.4670 C   0  0  0  0  0  0  0  0  0  0  0  0
    9.7050   47.1490   54.3030 C   0  0  0  0  0  0  0  0  0  0  0  0
   10.2970   46.7640   53.0950 C   0  0  0  0  0  0  0  0  0  0  0  0
    9.5050   46.3410   52.0260 C   0  0  0  0  0  0  0  0  0  0  0  0
    8.1070   46.2810   52.1480 C   0  0  0  0  0  0  0  0  0  0  0  0
    7.2950   45.8200   50.9670 C   0  0  0  0  0  0  0  0  0  0  0  0
    7.5000   46.6810   53.3640 C   0  0  0  0  0  0  0  0  0  0  0  0
    5.7410   46.6640   53.5860 S   0  0  0  0  0  0  0  0  0  0  0  0
    5.3350   47.5460   54.7340 O   0  0  0  0  0  0  0  0  0  0  0  0
    5.0910   47.1660   52.3280 O   0  0  0  0  0  0  0  0  0  0  0  0
    5.1740   45.0520   53.9010 N   0  0  0  0  0  0  0  0  0  0  0  0
    3.9210   44.5280   53.4230 C   0  0  0  0  0  0  0  0  0  0  0  0
    3.8550   43.6020   52.3660 C   0  0  0  0  0  0  0  0  0  0  0  0
    2.6200   43.1240   51.9170 C   0  0  0  0  0  0  0  0  0  0  0  0
    1.4260   43.5610   52.5160 C   0  0  0  0  0  0  0  0  0  0  0  0
    0.1060   43.0700   52.0570 C   0  0  0  0  0  0  0  0  0  0  0  0
   -0.7120   42.1350   52.6630 C   0  0  0  0  0  0  0  0  0  0  0  0
   -1.8210   41.9740   51.9150 N   0  0  0  0  0  0  0  0  0  0  0  0
   -1.6300   42.8250   50.8860 C   0  0  0  0  0  0  0  0  0  0  0  0
   -2.5980   42.9860   49.7620 C   0  0  0  0  0  0  0  0  0  0  0  0
   -0.4900   43.4720   50.9620 O   0  0  0  0  0  0  0  0  0  0  0  0
    1.4930   44.4830   53.5710 C   0  0  0  0  0  0  0  0  0  0  0  0
    2.7280   44.9610   54.0180 C   0  0  0  0  0  0  0  0  0  0  0  0
    8.3110   47.0850   54.4390 C   0  0  0  0  0  0  0  0  0  0  0  0
   10.0408   47.3114   56.4057 H   0  0  0  0  0  0  0  0  0  0  0  0
   11.5185   47.0283   55.4244 H   0  0  0  0  0  0  0  0  0  0  0  0
   10.7365   48.6454   55.4244 H   0  0  0  0  0  0  0  0  0  0  0  0
   11.3913   46.7948   52.9872 H   0  0  0  0  0  0  0  0  0  0  0  0
    9.9811   46.0515   51.0776 H   0  0  0  0  0  0  0  0  0  0  0  0
    6.3898   45.3061   51.3226 H   0  0  0  0  0  0  0  0  0  0  0  0
    7.0075   46.6896   50.3578 H   0  0  0  0  0  0  0  0  0  0  0  0
    7.8944   45.1275   50.3578 H   0  0  0  0  0  0  0  0  0  0  0  0
    5.7940   44.4390   54.4760 H   0  0  0  0  0  0  0  0  0  0  0  0
    4.7821   43.2513   51.8890 H   0  0  0  0  0  0  0  0  0  0  0  0
    2.5827   42.4008   51.0890 H   0  0  0  0  0  0  0  0  0  0  0  0
   -0.4931   41.6079   53.6033 H   0  0  0  0  0  0  0  0  0  0  0  0
   -3.6065   43.1537   50.1679 H   0  0  0  0  0  0  0  0  0  0  0  0
   -2.3032   43.8474   49.1448 H   0  0  0  0  0  0  0  0  0  0  0  0
   -2.5979   42.0755   49.1448 H   0  0  0  0  0  0  0  0  0  0  0  0
    0.5666   44.8325   54.0502 H   0  0  0  0  0  0  0  0  0  0  0  0
    2.7641   45.6847   54.8456 H   0  0  0  0  0  0  0  0  0  0  0  0
    7.8460   47.3543   55.3988 H   0  0  0  0  0  0  0  0  0  0  0  0
  1  2  1  0
  2  3  2  0
  3  4  1  0
  4  5  2  0
  5  6  1  0
  5  7  1  0
  7  8  1  0
  8  9  2  0
  8 10  2  0
  8 11  1  0
 11 12  1  0
 12 13  2  0
 13 14  1  0
 14 15  2  0
 15 16  1  0
 16 17  2  0
 17 18  1  0
 18 19  2  0
 19 20  1  0
 19 21  1  0
 15 22  1  0
 22 23  2  0
  7 24  2  0
 24  2  1  0
 23 12  1  0
 21 16  1  0
  1 25  1  0
  1 26  1  0
  1 27  1  0
  3 28  1  0
  4 29  1  0
  6 30  1  0
  6 31  1  0
  6 32  1  0
 11 33  1  0
 13 34  1  0
 14 35  1  0
 17 36  1  0
 20 37  1  0
 20 38  1  0
 20 39  1  0
 22 40  1  0
 23 41  1  0
 24 42  1  0
M  END
>  <meeko>  (2) 
{"is_sidechain": [false], "free_energy": -9.004, "intermolecular_energy": -11.141, "internal_energy": -0.179}

$$$$
ligand_26_conformer_4_docked
     RDKit          3D

 42 44  0  0  0  0  0  0  0  0999 V2000
   10.3350   47.4710   55.1590 C   0  0  0  0  0  0  0  0  0  0  0  0
    9.4120   47.0670   54.0470 C   0  0  0  0  0  0  0  0  0  0  0  0
    9.9300   46.6250   52.8250 C   0  0  0  0  0  0  0  0  0  0  0  0
    9.0720   46.2090   51.8060 C   0  0  0  0  0  0  0  0  0  0  0  0
    7.6800   46.2140   51.9940 C   0  0  0  0  0  0  0  0  0  0  0  0
    6.7940   45.7590   50.8640 C   0  0  0  0  0  0  0  0  0  0  0  0
    7.1480   46.6730   53.2240 C   0  0  0  0  0  0  0  0  0  0  0  0
    5.4020   46.7400   53.5260 S   0  0  0  0  0  0  0  0  0  0  0  0
    5.0850   47.7040   54.6340 O   0  0  0  0  0  0  0  0  0  0  0  0
    4.7120   47.1910   52.2710 O   0  0  0  0  0  0  0  0  0  0  0  0
    4.7910   45.1740   53.9650 N   0  0  0  0  0  0  0  0  0  0  0  0
    3.3970   44.8760   54.1660 C   0  0  0  0  0  0  0  0  0  0  0  0
    2.6320   44.1950   53.2020 C   0  0  0  0  0  0  0  0  0  0  0  0
    1.2760   43.9360   53.4240 C   0  0  0  0  0  0  0  0  0  0  0  0
    0.6570   44.3520   54.6160 C   0  0  0  0  0  0  0  0  0  0  0  0
   -0.7780   44.0900   54.8730 C   0  0  0  0  0  0  0  0  0  0  0  0
   -1.7740   43.8300   53.9510 C   0  0  0  0  0  0  0  0  0  0  0  0
   -2.9390   43.6520   54.6050 N   0  0  0  0  0  0  0  0  0  0  0  0
   -2.5970   43.8060   55.9010 C   0  0  0  0  0  0  0  0  0  0  0  0
   -3.5750   43.7210   57.0240 C   0  0  0  0  0  0  0  0  0  0  0  0
   -1.3210   44.0700   56.0660 O   0  0  0  0  0  0  0  0  0  0  0  0
    1.4210   45.0300   55.5780 C   0  0  0  0  0  0  0  0  0  0  0  0
    2.7760   45.2890   55.3540 C   0  0  0  0  0  0  0  0  0  0  0  0
    8.0250   47.0680   54.2480 C   0  0  0  0  0  0  0  0  0  0  0  0
    9.8565   47.2616   56.1271 H   0  0  0  0  0  0  0  0  0  0  0  0
   11.2727   46.9010   55.0825 H   0  0  0  0  0  0  0  0  0  0  0  0
   10.5524   48.5466   55.0825 H   0  0  0  0  0  0  0  0  0  0  0  0
   11.0184   46.6053   52.6666 H   0  0  0  0  0  0  0  0  0  0  0  0
    9.4902   45.8737   50.8455 H   0  0  0  0  0  0  0  0  0  0  0  0
    5.8862   45.2928   51.2747 H   0  0  0  0  0  0  0  0  0  0  0  0
    6.5141   46.6249   50.2461 H   0  0  0  0  0  0  0  0  0  0  0  0
    7.3347   45.0270   50.2461 H   0  0  0  0  0  0  0  0  0  0  0  0
    5.4950   44.4110   54.0870 H   0  0  0  0  0  0  0  0  0  0  0  0
    3.1044   43.8634   52.2656 H   0  0  0  0  0  0  0  0  0  0  0  0
    0.6895   43.4032   52.6610 H   0  0  0  0  0  0  0  0  0  0  0  0
   -1.6381   43.7769   52.8607 H   0  0  0  0  0  0  0  0  0  0  0  0
   -3.0375   43.7677   57.9826 H   0  0  0  0  0  0  0  0  0  0  0  0
   -4.2821   44.5611   56.9588 H   0  0  0  0  0  0  0  0  0  0  0  0
   -4.1266   42.7715   56.9588 H   0  0  0  0  0  0  0  0  0  0  0  0
    0.9499   45.3602   56.5156 H   0  0  0  0  0  0  0  0  0  0  0  0
    3.3616   45.8223   56.1173 H   0  0  0  0  0  0  0  0  0  0  0  0
    7.6177   47.3822   55.2203 H   0  0  0  0  0  0  0  0  0  0  0  0
  1  2  1  0
  2  3  2  0
  3  4  1  0
  4  5  2  0
  5  6  1  0
  5  7  1  0
  7  8  1  0
  8  9  2  0
  8 10  2  0
  8 11  1  0
 11 12  1  0
 12 13  2  0
 13 14  1  0
 14 15  2  0
 15 16  1  0
 16 17  2  0
 17 18  1  0
 18 19  2  0
 19 20  1  0
 19 21  1  0
 15 22  1  0
 22 23  2  0
  7 24  2  0
 24  2  1  0
 23 12  1  0
 21 16  1  0
  1 25  1  0
  1 26  1  0
  1 27  1  0
  3 28  1  0
  4 29  1  0
  6 30  1  0
  6 31  1  0
  6 32  1  0
 11 33  1  0
 13 34  1  0
 14 35  1  0
 17 36  1  0
 20 37  1  0
 20 38  1  0
 20 39  1  0
 22 40  1  0
 23 41  1  0
 24 42  1  0
M  END
>  <meeko>  (3) 
{"is_sidechain": [false], "free_energy": -8.968, "intermolecular_energy": -11.217, "internal_energy": -0.058}

$$$$
ligand_26_conformer_4_docked
     RDKit          3D

 42 44  0  0  0  0  0  0  0  0999 V2000
   10.6220   46.1100   51.5650 C   0  0  0  0  0  0  0  0  0  0  0  0
    9.2320   46.4630   52.0050 C   0  0  0  0  0  0  0  0  0  0  0  0
    9.0180   47.5360   52.8780 C   0  0  0  0  0  0  0  0  0  0  0  0
    7.7210   47.8890   53.2540 C   0  0  0  0  0  0  0  0  0  0  0  0
    6.6120   47.1860   52.7540 C   0  0  0  0  0  0  0  0  0  0  0  0
    5.2330   47.6030   53.1900 C   0  0  0  0  0  0  0  0  0  0  0  0
    6.8230   46.0910   51.8800 C   0  0  0  0  0  0  0  0  0  0  0  0
    5.4780   45.1340   51.2320 S   0  0  0  0  0  0  0  0  0  0  0  0
    4.3350   46.0210   50.8230 O   0  0  0  0  0  0  0  0  0  0  0  0
    5.9620   44.3730   50.0310 O   0  0  0  0  0  0  0  0  0  0  0  0
    4.9010   44.0000   52.4140 N   0  0  0  0  0  0  0  0  0  0  0  0
    3.7750   44.2360   53.2810 C   0  0  0  0  0  0  0  0  0  0  0  0
    2.4730   43.8290   52.9400 C   0  0  0  0  0  0  0  0  0  0  0  0
    1.4000   44.0880   53.7990 C   0  0  0  0  0  0  0  0  0  0  0  0
    1.6080   44.7580   55.0170 C   0  0  0  0  0  0  0  0  0  0  0  0
    0.4880   45.0440   55.9420 C   0  0  0  0  0  0  0  0  0  0  0  0
    0.4700   45.9190   57.0120 C   0  0  0  0  0  0  0  0  0  0  0  0
   -0.7460   45.8750   57.5920 N   0  0  0  0  0  0  0  0  0  0  0  0
   -1.4180   44.9760   56.8430 C   0  0  0  0  0  0  0  0  0  0  0  0
   -2.8260   44.5670   57.1170 C   0  0  0  0  0  0  0  0  0  0  0  0
   -0.6920   44.4770   55.8690 O   0  0  0  0  0  0  0  0  0  0  0  0
    2.9080   45.1610   55.3570 C   0  0  0  0  0  0  0  0  0  0  0  0
    3.9790   44.9030   54.4970 C   0  0  0  0  0  0  0  0  0  0  0  0
    8.1330   45.7600   51.4940 C   0  0  0  0  0  0  0  0  0  0  0  0
   11.2566   45.9488   52.4489 H   0  0  0  0  0  0  0  0  0  0  0  0
   10.5933   45.1906   50.9617 H   0  0  0  0  0  0  0  0  0  0  0  0
   11.0354   46.9317   50.9617 H   0  0  0  0  0  0  0  0  0  0  0  0
    9.8754   48.1033   53.2693 H   0  0  0  0  0  0  0  0  0  0  0  0
    7.5654   48.7269   53.9495 H   0  0  0  0  0  0  0  0  0  0  0  0
    5.1846   47.6176   54.2888 H   0  0  0  0  0  0  0  0  0  0  0  0
    5.0133   48.6078   52.7999 H   0  0  0  0  0  0  0  0  0  0  0  0
    4.4933   46.8884   52.7999 H   0  0  0  0  0  0  0  0  0  0  0  0
    5.4160   43.0940   52.4880 H   0  0  0  0  0  0  0  0  0  0  0  0
    2.2969   43.3028   51.9902 H   0  0  0  0  0  0  0  0  0  0  0  0
    0.3863   43.7651   53.5194 H   0  0  0  0  0  0  0  0  0  0  0  0
    1.3112   46.5488   57.3373 H   0  0  0  0  0  0  0  0  0  0  0  0
   -2.9892   44.5196   58.2038 H   0  0  0  0  0  0  0  0  0  0  0  0
   -3.5141   45.3024   56.6746 H   0  0  0  0  0  0  0  0  0  0  0  0
   -3.0131   43.5774   56.6746 H   0  0  0  0  0  0  0  0  0  0  0  0
    3.0858   45.6843   56.3081 H   0  0  0  0  0  0  0  0  0  0  0  0
    4.9923   45.2266   54.7771 H   0  0  0  0  0  0  0  0  0  0  0  0
    8.2978   44.9383   50.7814 H   0  0  0  0  0  0  0  0  0  0  0  0
  1  2  1  0
  2  3  2  0
  3  4  1  0
  4  5  2  0
  5  6  1  0
  5  7  1  0
  7  8  1  0
  8  9  2  0
  8 10  2  0
  8 11  1  0
 11 12  1  0
 12 13  2  0
 13 14  1  0
 14 15  2  0
 15 16  1  0
 16 17  2  0
 17 18  1  0
 18 19  2  0
 19 20  1  0
 19 21  1  0
 15 22  1  0
 22 23  2  0
  7 24  2  0
 24  2  1  0
 23 12  1  0
 21 16  1  0
  1 25  1  0
  1 26  1  0
  1 27  1  0
  3 28  1  0
  4 29  1  0
  6 30  1  0
  6 31  1  0
  6 32  1  0
 11 33  1  0
 13 34  1  0
 14 35  1  0
 17 36  1  0
 20 37  1  0
 20 38  1  0
 20 39  1  0
 22 40  1  0
 23 41  1  0
 24 42  1  0
M  END
>  <meeko>  (4) 
{"is_sidechain": [false], "free_energy": -8.444, "intermolecular_energy": -10.375, "internal_energy": -0.254}

$$$$
ligand_26_conformer_4_docked
     RDKit          3D

 42 44  0  0  0  0  0  0  0  0999 V2000
    5.2570   43.2140   50.5450 C   0  0  0  0  0  0  0  0  0  0  0  0
    6.0640   44.3590   51.0810 C   0  0  0  0  0  0  0  0  0  0  0  0
    7.0210   44.9860   50.2750 C   0  0  0  0  0  0  0  0  0  0  0  0
    7.7420   46.0790   50.7600 C   0  0  0  0  0  0  0  0  0  0  0  0
    7.5100   46.5740   52.0540 C   0  0  0  0  0  0  0  0  0  0  0  0
    8.3140   47.7540   52.5340 C   0  0  0  0  0  0  0  0  0  0  0  0
    6.5520   45.9360   52.8800 C   0  0  0  0  0  0  0  0  0  0  0  0
    6.2250   46.4810   54.5350 S   0  0  0  0  0  0  0  0  0  0  0  0
    6.3210   45.3380   55.5060 O   0  0  0  0  0  0  0  0  0  0  0  0
    7.2370   47.5270   54.9070 O   0  0  0  0  0  0  0  0  0  0  0  0
    4.6370   47.1750   54.6540 N   0  0  0  0  0  0  0  0  0  0  0  0
    3.4190   46.4590   54.3790 C   0  0  0  0  0  0  0  0  0  0  0  0
    2.8380   45.5860   55.3160 C   0  0  0  0  0  0  0  0  0  0  0  0
    1.6620   44.8950   55.0090 C   0  0  0  0  0  0  0  0  0  0  0  0
    1.0400   45.0650   53.7600 C   0  0  0  0  0  0  0  0  0  0  0  0
   -0.2060   44.3440   53.4120 C   0  0  0  0  0  0  0  0  0  0  0  0
   -1.2780   44.0530   54.2340 C   0  0  0  0  0  0  0  0  0  0  0  0
   -2.2040   43.3800   53.5230 N   0  0  0  0  0  0  0  0  0  0  0  0
   -1.6540   43.2950   52.2940 C   0  0  0  0  0  0  0  0  0  0  0  0
   -2.3080   42.6020   51.1470 C   0  0  0  0  0  0  0  0  0  0  0  0
   -0.4700   43.8590   52.2240 O   0  0  0  0  0  0  0  0  0  0  0  0
    1.6190   45.9380   52.8260 C   0  0  0  0  0  0  0  0  0  0  0  0
    2.7960   46.6270   53.1340 C   0  0  0  0  0  0  0  0  0  0  0  0
    5.8190   44.8500   52.3700 C   0  0  0  0  0  0  0  0  0  0  0  0
    4.8462   42.6311   51.3826 H   0  0  0  0  0  0  0  0  0  0  0  0
    4.4323   43.6030   49.9297 H   0  0  0  0  0  0  0  0  0  0  0  0
    5.9006   42.5681   49.9297 H   0  0  0  0  0  0  0  0  0  0  0  0
    7.2059   44.6164   49.2556 H   0  0  0  0  0  0  0  0  0  0  0  0
    8.4997   46.5575   50.1220 H   0  0  0  0  0  0  0  0  0  0  0  0
    8.3236   47.7681   53.6339 H   0  0  0  0  0  0  0  0  0  0  0  0
    9.3450   47.6720   52.1593 H   0  0  0  0  0  0  0  0  0  0  0  0
    7.8605   48.6835   52.1593 H   0  0  0  0  0  0  0  0  0  0  0  0
    4.5820   48.1770   54.9450 H   0  0  0  0  0  0  0  0  0  0  0  0
    3.3126   45.4457   56.2984 H   0  0  0  0  0  0  0  0  0  0  0  0
    1.2202   44.2131   55.7505 H   0  0  0  0  0  0  0  0  0  0  0  0
   -1.3618   44.3263   55.2962 H   0  0  0  0  0  0  0  0  0  0  0  0
   -3.0163   41.8514   51.5277 H   0  0  0  0  0  0  0  0  0  0  0  0
   -2.8483   43.3381   50.5336 H   0  0  0  0  0  0  0  0  0  0  0  0
   -1.5419   42.1052   50.5336 H   0  0  0  0  0  0  0  0  0  0  0  0
    1.1434   46.0812   51.8445 H   0  0  0  0  0  0  0  0  0  0  0  0
    3.2380   47.3081   52.3918 H   0  0  0  0  0  0  0  0  0  0  0  0
    5.0428   44.3796   52.9914 H   0  0  0  0  0  0  0  0  0  0  0  0
  1  2  1  0
  2  3  2  0
  3  4  1  0
  4  5  2  0
  5  6  1  0
  5  7  1  0
  7  8  1  0
  8  9  2  0
  8 10  2  0
  8 11  1  0
 11 12  1  0
 12 13  2  0
 13 14  1  0
 14 15  2  0
 15 16  1  0
 16 17  2  0
 17 18  1  0
 18 19  2  0
 19 20  1  0
 19 21  1  0
 15 22  1  0
 22 23  2  0
  7 24  2  0
 24  2  1  0
 23 12  1  0
 21 16  1  0
  1 25  1  0
  1 26  1  0
  1 27  1  0
  3 28  1  0
  4 29  1  0
  6 30  1  0
  6 31  1  0
  6 32  1  0
 11 33  1  0
 13 34  1  0
 14 35  1  0
 17 36  1  0
 20 37  1  0
 20 38  1  0
 20 39  1  0
 22 40  1  0
 23 41  1  0
 24 42  1  0
M  END
>  <meeko>  (5) 
{"is_sidechain": [false], "free_energy": -8.435, "intermolecular_energy": -10.702, "internal_energy": 0.084}

$$$$
