MODEL 1
REMARK VINA RESULT:    -8.153      0.000      0.000
REMARK INTER + INTRA:          -9.732
REMARK INTER:                 -10.059
REMARK INTRA:                   0.327
REMARK UNBOUND:                 0.327
REMARK SMILES CN(C)c1cccc2sc(C(=O)N[C@@]3(c4ccccc4)CCNC3)cc12
REMARK SMILES IDX 4 1 5 2 6 3 7 4 8 5 9 6 10 7 25 8 26 9 2 10 1 11 3 12 11 13
REMARK SMILES IDX 12 14 13 15 14 17 21 18 24 19 22 20 23 21 15 23 16 24 20 25
REMARK SMILES IDX 17 26 19 27 18 28
REMARK H PARENT 13 16 23 22
ROOT
ATOM      1  C   UNL     1      -1.854  44.339  54.012  1.00  0.00     0.045 A 
ATOM      2  C   UNL     1      -2.884  44.176  54.961  1.00  0.00     0.026 A 
ATOM      3  C   UNL     1      -2.631  44.361  56.332  1.00  0.00     0.004 A 
ATOM      4  C   UNL     1      -1.348  44.709  56.777  1.00  0.00     0.020 A 
ATOM      5  C   UNL     1      -0.341  44.858  55.828  1.00  0.00     0.037 A 
ATOM      6  S   UNL     1       1.270  45.243  56.086  1.00  0.00    -0.130 S 
ATOM      7  C   UNL     1       1.711  45.174  54.453  1.00  0.00     0.093 A 
ATOM      8  C   UNL     1       0.585  44.849  53.689  1.00  0.00     0.036 A 
ATOM      9  C   UNL     1      -0.569  44.678  54.471  1.00  0.00     0.017 A 
ENDROOT
BRANCH   1  10
ATOM     10  N   UNL     1      -2.128  44.165  52.612  1.00  0.00    -0.377 N 
ATOM     11  C   UNL     1      -2.551  45.300  51.791  1.00  0.00     0.143 C 
ATOM     12  C   UNL     1      -2.030  42.833  52.017  1.00  0.00     0.143 C 
ENDBRANCH   1  10
BRANCH   7  13
ATOM     13  C   UNL     1       3.076  45.431  53.954  1.00  0.00     0.262 C 
ATOM     14  O   UNL     1       3.721  46.405  54.427  1.00  0.00    -0.268 OA
ATOM     15  N   UNL     1       3.680  44.587  52.956  1.00  0.00    -0.340 N 
ATOM     16  H   UNL     1       3.182  43.715  52.671  1.00  0.00     0.164 HD
BRANCH  15  17
ATOM     17  C   UNL     1       5.016  44.854  52.387  1.00  0.00     0.079 C 
ATOM     18  C   UNL     1       5.064  46.232  51.733  1.00  0.00     0.050 C 
ATOM     19  C   UNL     1       6.043  45.008  53.520  1.00  0.00     0.114 C 
ATOM     20  C   UNL     1       6.493  46.704  51.943  1.00  0.00     0.084 C 
ATOM     21  N   UNL     1       7.047  45.987  53.093  1.00  0.00    -0.314 NA
ATOM     22  H   UNL     1       7.209  46.668  53.873  1.00  0.00     0.122 HD
BRANCH  17  23
ATOM     23  C   UNL     1       5.377  43.781  51.345  1.00  0.00    -0.021 A 
ATOM     24  C   UNL     1       6.332  44.009  50.327  1.00  0.00     0.006 A 
ATOM     25  C   UNL     1       4.662  42.564  51.325  1.00  0.00     0.006 A 
ATOM     26  C   UNL     1       6.599  43.028  49.368  1.00  0.00     0.000 A 
ATOM     27  C   UNL     1       4.936  41.588  50.362  1.00  0.00     0.000 A 
ATOM     28  C   UNL     1       5.908  41.817  49.389  1.00  0.00     0.000 A 
ENDBRANCH  17  23
ENDBRANCH  15  17
ENDBRANCH   7  13
TORSDOF 4
ENDMDL
MODEL 2
REMARK VINA RESULT:    -8.047      1.975      8.016
REMARK INTER + INTRA:          -9.602
REMARK INTER:                 -10.889
REMARK INTRA:                   1.287
REMARK UNBOUND:                 0.327
REMARK SMILES CN(C)c1cccc2sc(C(=O)N[C@@]3(c4ccccc4)CCNC3)cc12
REMARK SMILES IDX 4 1 5 2 6 3 7 4 8 5 9 6 10 7 25 8 26 9 2 10 1 11 3 12 11 13
REMARK SMILES IDX 12 14 13 15 14 17 21 18 24 19 22 20 23 21 15 23 16 24 20 25
REMARK SMILES IDX 17 26 19 27 18 28
REMARK H PARENT 13 16 23 22
ROOT
ATOM      1  C   UNL     1       7.303  45.545  50.930  1.00  0.00     0.045 A 
ATOM      2  C   UNL     1       8.482  46.306  51.069  1.00  0.00     0.026 A 
ATOM      3  C   UNL     1       8.526  47.407  51.944  1.00  0.00     0.004 A 
ATOM      4  C   UNL     1       7.395  47.765  52.691  1.00  0.00     0.020 A 
ATOM      5  C   UNL     1       6.238  47.010  52.536  1.00  0.00     0.037 A 
ATOM      6  S   UNL     1       4.753  47.232  53.282  1.00  0.00    -0.130 S 
ATOM      7  C   UNL     1       3.991  45.937  52.504  1.00  0.00     0.093 A 
ATOM      8  C   UNL     1       4.907  45.315  51.648  1.00  0.00     0.036 A 
ATOM      9  C   UNL     1       6.172  45.922  51.676  1.00  0.00     0.017 A 
ENDROOT
BRANCH   1  10
ATOM     10  N   UNL     1       7.275  44.413  50.046  1.00  0.00    -0.377 N 
ATOM     11  C   UNL     1       6.152  43.476  50.075  1.00  0.00     0.143 C 
ATOM     12  C   UNL     1       8.401  44.171  49.146  1.00  0.00     0.143 C 
ENDBRANCH   1  10
BRANCH   7  13
ATOM     13  C   UNL     1       2.583  45.552  52.725  1.00  0.00     0.262 C 
ATOM     14  O   UNL     1       1.678  46.387  52.458  1.00  0.00    -0.268 OA
ATOM     15  N   UNL     1       2.232  44.248  53.224  1.00  0.00    -0.340 N 
ATOM     16  H   UNL     1       2.984  43.530  53.318  1.00  0.00     0.164 HD
BRANCH  15  17
ATOM     17  C   UNL     1       0.840  43.855  53.519  1.00  0.00     0.079 C 
ATOM     18  C   UNL     1      -0.087  44.221  52.363  1.00  0.00     0.050 C 
ATOM     19  C   UNL     1       0.725  42.322  53.541  1.00  0.00     0.114 C 
ATOM     20  C   UNL     1      -1.156  43.141  52.374  1.00  0.00     0.084 C 
ATOM     21  N   UNL     1      -0.604  41.959  53.041  1.00  0.00    -0.314 NA
ATOM     22  H   UNL     1      -0.502  41.188  52.338  1.00  0.00     0.122 HD
BRANCH  17  23
ATOM     23  C   UNL     1       0.351  44.545  54.805  1.00  0.00    -0.021 A 
ATOM     24  C   UNL     1      -0.998  44.927  54.989  1.00  0.00     0.006 A 
ATOM     25  C   UNL     1       1.287  44.914  55.795  1.00  0.00     0.006 A 
ATOM     26  C   UNL     1      -1.398  45.597  56.149  1.00  0.00     0.000 A 
ATOM     27  C   UNL     1       0.880  45.582  56.953  1.00  0.00     0.000 A 
ATOM     28  C   UNL     1      -0.462  45.918  57.133  1.00  0.00     0.000 A 
ENDBRANCH  17  23
ENDBRANCH  15  17
ENDBRANCH   7  13
TORSDOF 4
ENDMDL
MODEL 3
REMARK VINA RESULT:    -7.993      1.554      2.011
REMARK INTER + INTRA:          -9.536
REMARK INTER:                 -10.114
REMARK INTRA:                   0.579
REMARK UNBOUND:                 0.327
REMARK SMILES CN(C)c1cccc2sc(C(=O)N[C@@]3(c4ccccc4)CCNC3)cc12
REMARK SMILES IDX 4 1 5 2 6 3 7 4 8 5 9 6 10 7 25 8 26 9 2 10 1 11 3 12 11 13
REMARK SMILES IDX 12 14 13 15 14 17 21 18 24 19 22 20 23 21 15 23 16 24 20 25
REMARK SMILES IDX 17 26 19 27 18 28
REMARK H PARENT 13 16 23 22
ROOT
ATOM      1  C   UNL     1      -0.128  44.293  54.009  1.00  0.00     0.045 A 
ATOM      2  C   UNL     1      -1.211  44.485  54.892  1.00  0.00     0.026 A 
ATOM      3  C   UNL     1      -1.016  45.099  56.143  1.00  0.00     0.004 A 
ATOM      4  C   UNL     1       0.261  45.527  56.532  1.00  0.00     0.020 A 
ATOM      5  C   UNL     1       1.320  45.321  55.654  1.00  0.00     0.037 A 
ATOM      6  S   UNL     1       2.935  45.712  55.877  1.00  0.00    -0.130 S 
ATOM      7  C   UNL     1       3.451  45.098  54.387  1.00  0.00     0.093 A 
ATOM      8  C   UNL     1       2.348  44.582  53.698  1.00  0.00     0.036 A 
ATOM      9  C   UNL     1       1.150  44.716  54.416  1.00  0.00     0.017 A 
ENDROOT
BRANCH   1  10
ATOM     10  N   UNL     1      -0.342  43.681  52.727  1.00  0.00    -0.377 N 
ATOM     11  C   UNL     1      -0.682  44.498  51.562  1.00  0.00     0.143 C 
ATOM     12  C   UNL     1      -0.265  42.227  52.599  1.00  0.00     0.143 C 
ENDBRANCH   1  10
BRANCH   7  13
ATOM     13  C   UNL     1       4.851  45.129  53.921  1.00  0.00     0.262 C 
ATOM     14  O   UNL     1       5.680  44.333  54.440  1.00  0.00    -0.268 OA
ATOM     15  N   UNL     1       5.278  46.035  52.886  1.00  0.00    -0.340 N 
ATOM     16  H   UNL     1       4.554  46.594  52.383  1.00  0.00     0.164 HD
BRANCH  15  17
ATOM     17  C   UNL     1       6.682  46.138  52.444  1.00  0.00     0.079 C 
ATOM     18  C   UNL     1       7.005  47.555  51.980  1.00  0.00     0.050 C 
ATOM     19  C   UNL     1       7.622  45.981  53.650  1.00  0.00     0.114 C 
ATOM     20  C   UNL     1       8.469  47.751  52.340  1.00  0.00     0.084 C 
ATOM     21  N   UNL     1       8.802  46.820  53.420  1.00  0.00    -0.314 NA
ATOM     22  H   UNL     1       9.003  47.366  54.291  1.00  0.00     0.122 HD
BRANCH  17  23
ATOM     23  C   UNL     1       6.955  45.150  51.296  1.00  0.00    -0.021 A 
ATOM     24  C   UNL     1       8.118  45.225  50.496  1.00  0.00     0.006 A 
ATOM     25  C   UNL     1       5.969  44.201  50.947  1.00  0.00     0.006 A 
ATOM     26  C   UNL     1       8.309  44.341  49.430  1.00  0.00     0.000 A 
ATOM     27  C   UNL     1       6.168  43.320  49.881  1.00  0.00     0.000 A 
ATOM     28  C   UNL     1       7.339  43.386  49.126  1.00  0.00     0.000 A 
ENDBRANCH  17  23
ENDBRANCH  15  17
ENDBRANCH   7  13
TORSDOF 4
ENDMDL
MODEL 4
REMARK VINA RESULT:    -7.843      1.730      2.789
REMARK INTER + INTRA:          -9.350
REMARK INTER:                 -10.295
REMARK INTRA:                   0.945
REMARK UNBOUND:                 0.327
REMARK SMILES CN(C)c1cccc2sc(C(=O)N[C@@]3(c4ccccc4)CCNC3)cc12
REMARK SMILES IDX 4 1 5 2 6 3 7 4 8 5 9 6 10 7 25 8 26 9 2 10 1 11 3 12 11 13
REMARK SMILES IDX 12 14 13 15 14 17 21 18 24 19 22 20 23 21 15 23 16 24 20 25
REMARK SMILES IDX 17 26 19 27 18 28
REMARK H PARENT 13 16 23 22
ROOT
ATOM      1  C   UNL     1      -0.834  45.833  57.021  1.00  0.00     0.045 A 
ATOM      2  C   UNL     1      -2.118  45.258  57.117  1.00  0.00     0.026 A 
ATOM      3  C   UNL     1      -2.513  44.235  56.236  1.00  0.00     0.004 A 
ATOM      4  C   UNL     1      -1.635  43.772  55.246  1.00  0.00     0.020 A 
ATOM      5  C   UNL     1      -0.375  44.355  55.160  1.00  0.00     0.037 A 
ATOM      6  S   UNL     1       0.849  44.010  54.067  1.00  0.00    -0.130 S 
ATOM      7  C   UNL     1       1.928  45.167  54.669  1.00  0.00     0.093 A 
ATOM      8  C   UNL     1       1.329  45.834  55.744  1.00  0.00     0.036 A 
ATOM      9  C   UNL     1       0.034  45.368  56.017  1.00  0.00     0.017 A 
ENDROOT
BRANCH   1  10
ATOM     10  N   UNL     1      -0.435  46.865  57.938  1.00  0.00    -0.377 N 
ATOM     11  C   UNL     1       0.883  46.827  58.571  1.00  0.00     0.143 C 
ATOM     12  C   UNL     1      -1.374  47.934  58.275  1.00  0.00     0.143 C 
ENDBRANCH   1  10
BRANCH   7  13
ATOM     13  C   UNL     1       3.279  45.399  54.125  1.00  0.00     0.262 C 
ATOM     14  O   UNL     1       4.004  46.282  54.658  1.00  0.00    -0.268 OA
ATOM     15  N   UNL     1       3.782  44.634  53.013  1.00  0.00    -0.340 N 
ATOM     16  H   UNL     1       3.219  43.825  52.669  1.00  0.00     0.164 HD
BRANCH  15  17
ATOM     17  C   UNL     1       5.102  44.886  52.403  1.00  0.00     0.079 C 
ATOM     18  C   UNL     1       5.150  46.269  51.760  1.00  0.00     0.050 C 
ATOM     19  C   UNL     1       6.170  45.012  53.501  1.00  0.00     0.114 C 
ATOM     20  C   UNL     1       6.593  46.717  51.925  1.00  0.00     0.084 C 
ATOM     21  N   UNL     1       7.174  45.980  53.050  1.00  0.00    -0.314 NA
ATOM     22  H   UNL     1       7.372  46.650  53.830  1.00  0.00     0.122 HD
BRANCH  17  23
ATOM     23  C   UNL     1       5.411  43.817  51.339  1.00  0.00    -0.021 A 
ATOM     24  C   UNL     1       6.344  44.035  50.299  1.00  0.00     0.006 A 
ATOM     25  C   UNL     1       4.666  42.618  51.322  1.00  0.00     0.006 A 
ATOM     26  C   UNL     1       6.564  43.061  49.321  1.00  0.00     0.000 A 
ATOM     27  C   UNL     1       4.892  41.648  50.342  1.00  0.00     0.000 A 
ATOM     28  C   UNL     1       5.844  41.866  49.346  1.00  0.00     0.000 A 
ENDBRANCH  17  23
ENDBRANCH  15  17
ENDBRANCH   7  13
TORSDOF 4
ENDMDL
MODEL 5
REMARK VINA RESULT:    -7.622      1.521      2.604
REMARK INTER + INTRA:          -9.077
REMARK INTER:                  -9.445
REMARK INTRA:                   0.368
REMARK UNBOUND:                 0.327
REMARK SMILES CN(C)c1cccc2sc(C(=O)N[C@@]3(c4ccccc4)CCNC3)cc12
REMARK SMILES IDX 4 1 5 2 6 3 7 4 8 5 9 6 10 7 25 8 26 9 2 10 1 11 3 12 11 13
REMARK SMILES IDX 12 14 13 15 14 17 21 18 24 19 22 20 23 21 15 23 16 24 20 25
REMARK SMILES IDX 17 26 19 27 18 28
REMARK H PARENT 13 16 23 22
ROOT
ATOM      1  C   UNL     1      -2.232  44.384  54.413  1.00  0.00     0.045 A 
ATOM      2  C   UNL     1      -3.378  43.937  53.724  1.00  0.00     0.026 A 
ATOM      3  C   UNL     1      -3.293  43.533  52.379  1.00  0.00     0.004 A 
ATOM      4  C   UNL     1      -2.066  43.570  51.702  1.00  0.00     0.020 A 
ATOM      5  C   UNL     1      -0.947  44.022  52.394  1.00  0.00     0.037 A 
ATOM      6  S   UNL     1       0.621  44.188  51.824  1.00  0.00    -0.130 S 
ATOM      7  C   UNL     1       1.251  44.798  53.271  1.00  0.00     0.093 A 
ATOM      8  C   UNL     1       0.225  44.872  54.220  1.00  0.00     0.036 A 
ATOM      9  C   UNL     1      -1.008  44.428  53.720  1.00  0.00     0.017 A 
ENDROOT
BRANCH   1  10
ATOM     10  N   UNL     1      -2.326  44.778  55.792  1.00  0.00    -0.377 N 
ATOM     11  C   UNL     1      -2.150  43.794  56.859  1.00  0.00     0.143 C 
ATOM     12  C   UNL     1      -2.648  46.165  56.126  1.00  0.00     0.143 C 
ENDBRANCH   1  10
BRANCH   7  13
ATOM     13  C   UNL     1       2.665  45.173  53.464  1.00  0.00     0.262 C 
ATOM     14  O   UNL     1       2.996  45.765  54.527  1.00  0.00    -0.268 OA
ATOM     15  N   UNL     1       3.664  44.866  52.473  1.00  0.00    -0.340 N 
ATOM     16  H   UNL     1       3.395  44.266  51.663  1.00  0.00     0.164 HD
BRANCH  15  17
ATOM     17  C   UNL     1       5.073  45.285  52.604  1.00  0.00     0.079 C 
ATOM     18  C   UNL     1       5.194  46.807  52.583  1.00  0.00     0.050 C 
ATOM     19  C   UNL     1       5.589  44.949  54.013  1.00  0.00     0.114 C 
ATOM     20  C   UNL     1       6.380  47.108  53.484  1.00  0.00     0.084 C 
ATOM     21  N   UNL     1       6.555  45.980  54.401  1.00  0.00    -0.314 NA
ATOM     22  H   UNL     1       6.337  46.297  55.376  1.00  0.00     0.122 HD
BRANCH  17  23
ATOM     23  C   UNL     1       5.916  44.690  51.462  1.00  0.00    -0.021 A 
ATOM     24  C   UNL     1       7.013  45.379  50.896  1.00  0.00     0.006 A 
ATOM     25  C   UNL     1       5.527  43.466  50.876  1.00  0.00     0.006 A 
ATOM     26  C   UNL     1       7.726  44.830  49.827  1.00  0.00     0.000 A 
ATOM     27  C   UNL     1       6.245  42.922  49.808  1.00  0.00     0.000 A 
ATOM     28  C   UNL     1       7.347  43.600  49.287  1.00  0.00     0.000 A 
ENDBRANCH  17  23
ENDBRANCH  15  17
ENDBRANCH   7  13
TORSDOF 4
ENDMDL
