MODEL 1
REMARK VINA RESULT:    -9.529      0.000      0.000
REMARK INTER + INTRA:         -13.959
REMARK INTER:                 -13.149
REMARK INTRA:                  -0.810
REMARK UNBOUND:                -0.810
REMARK SMILES Cc1cccc(C[C@@H](CO)NC(=O)c2c[nH]nc2-c2cccc(Cl)c2)c1
REMARK SMILES IDX 11 1 12 2 13 3 8 5 7 6 6 7 2 8 3 9 26 10 4 11 5 12 1 13 9 14
REMARK SMILES IDX 10 15 14 17 15 18 18 19 16 20 17 21 19 23 20 24 25 25 21 26
REMARK SMILES IDX 23 27 22 28 24 29
REMARK H PARENT 11 4 10 16 16 22
ROOT
ATOM      1  N   UNL     1       4.422  46.019  52.985  1.00  0.00    -0.347 N 
ATOM      2  C   UNL     1       4.121  44.676  53.411  1.00  0.00     0.255 C 
ATOM      3  O   UNL     1       4.672  44.205  54.444  1.00  0.00    -0.269 OA
ATOM      4  H   UNL     1       4.072  46.350  52.062  1.00  0.00     0.164 HD
ENDROOT
BRANCH   1   5
ATOM      5  C   UNL     1       5.360  46.920  53.671  1.00  0.00     0.112 C 
BRANCH   5   6
ATOM      6  C   UNL     1       6.266  47.693  52.689  1.00  0.00     0.062 C 
BRANCH   6   7
ATOM      7  C   UNL     1       7.724  47.358  52.869  1.00  0.00    -0.046 A 
ATOM      8  C   UNL     1       9.707  47.263  54.283  1.00  0.00    -0.051 A 
ATOM      9  C   UNL     1      10.456  46.800  53.190  1.00  0.00     0.003 A 
ATOM     10  C   UNL     1       8.343  47.544  54.116  1.00  0.00     0.007 A 
ATOM     11  C   UNL     1       9.840  46.594  51.953  1.00  0.00     0.001 A 
ATOM     12  C   UNL     1       8.481  46.872  51.791  1.00  0.00     0.004 A 
ATOM     13  C   UNL     1      10.365  47.507  55.609  1.00  0.00     0.044 C 
ENDBRANCH   6   7
ENDBRANCH   5   6
BRANCH   5  14
ATOM     14  C   UNL     1       4.606  47.885  54.604  1.00  0.00     0.181 C 
BRANCH  14  15
ATOM     15  O   UNL     1       4.207  49.036  53.907  1.00  0.00    -0.394 OA
ATOM     16  H   UNL     1       4.827  49.762  54.179  1.00  0.00     0.210 HD
ENDBRANCH  14  15
ENDBRANCH   5  14
ENDBRANCH   1   5
BRANCH   2  17
ATOM     17  C   UNL     1       3.221  43.789  52.633  1.00  0.00     0.085 A 
ATOM     18  C   UNL     1       1.882  43.595  52.913  1.00  0.00     0.119 A 
ATOM     19  C   UNL     1       3.480  42.905  51.584  1.00  0.00     0.105 A 
ATOM     20  N   UNL     1       1.398  42.651  52.092  1.00  0.00    -0.284 N 
ATOM     21  N   UNL     1       2.357  42.224  51.287  1.00  0.00    -0.175 NA
ATOM     22  H   UNL     1       0.421  42.284  52.087  1.00  0.00     0.189 HD
BRANCH  19  23
ATOM     23  C   UNL     1       4.736  42.695  50.847  1.00  0.00     0.004 A 
ATOM     24  C   UNL     1       5.052  41.414  50.368  1.00  0.00     0.010 A 
ATOM     25  C   UNL     1       5.594  43.770  50.562  1.00  0.00     0.031 A 
ATOM     26  C   UNL     1       6.231  41.202  49.646  1.00  0.00     0.002 A 
ATOM     27  C   UNL     1       6.765  43.556  49.823  1.00  0.00     0.041 A 
ATOM     28  C   UNL     1       7.086  42.270  49.374  1.00  0.00     0.020 A 
ATOM     29  Cl  UNL     1       7.820  44.896  49.431  1.00  0.00    -0.084 Cl
ENDBRANCH  19  23
ENDBRANCH   2  17
TORSDOF 7
ENDMDL
MODEL 2
REMARK VINA RESULT:    -8.940      2.438      3.923
REMARK INTER + INTRA:         -13.146
REMARK INTER:                 -12.607
REMARK INTRA:                  -0.539
REMARK UNBOUND:                -0.810
REMARK SMILES Cc1cccc(C[C@@H](CO)NC(=O)c2c[nH]nc2-c2cccc(Cl)c2)c1
REMARK SMILES IDX 11 1 12 2 13 3 8 5 7 6 6 7 2 8 3 9 26 10 4 11 5 12 1 13 9 14
REMARK SMILES IDX 10 15 14 17 15 18 18 19 16 20 17 21 19 23 20 24 25 25 21 26
REMARK SMILES IDX 23 27 22 28 24 29
REMARK H PARENT 11 4 10 16 16 22
ROOT
ATOM      1  N   UNL     1       5.156  44.734  53.388  1.00  0.00    -0.347 N 
ATOM      2  C   UNL     1       4.677  44.649  52.032  1.00  0.00     0.255 C 
ATOM      3  O   UNL     1       4.386  45.702  51.401  1.00  0.00    -0.269 OA
ATOM      4  H   UNL     1       5.263  43.860  53.945  1.00  0.00     0.164 HD
ENDROOT
BRANCH   1   5
ATOM      5  C   UNL     1       5.332  45.989  54.134  1.00  0.00     0.112 C 
BRANCH   5   6
ATOM      6  C   UNL     1       5.973  47.103  53.279  1.00  0.00     0.062 C 
BRANCH   6   7
ATOM      7  C   UNL     1       7.471  46.968  53.191  1.00  0.00    -0.046 A 
ATOM      8  C   UNL     1       9.669  47.138  54.232  1.00  0.00    -0.051 A 
ATOM      9  C   UNL     1      10.266  46.784  53.012  1.00  0.00     0.003 A 
ATOM     10  C   UNL     1       8.271  47.233  54.315  1.00  0.00     0.007 A 
ATOM     11  C   UNL     1       9.473  46.500  51.898  1.00  0.00     0.001 A 
ATOM     12  C   UNL     1       8.083  46.591  51.985  1.00  0.00     0.004 A 
ATOM     13  C   UNL     1      10.513  47.466  55.428  1.00  0.00     0.044 C 
ENDBRANCH   6   7
ENDBRANCH   5   6
BRANCH   5  14
ATOM     14  C   UNL     1       3.995  46.456  54.738  1.00  0.00     0.181 C 
BRANCH  14  15
ATOM     15  O   UNL     1       3.549  45.548  55.710  1.00  0.00    -0.394 OA
ATOM     16  H   UNL     1       4.061  44.708  55.573  1.00  0.00     0.210 HD
ENDBRANCH  14  15
ENDBRANCH   5  14
ENDBRANCH   1   5
BRANCH   2  17
ATOM     17  C   UNL     1       4.451  43.346  51.360  1.00  0.00     0.085 A 
ATOM     18  C   UNL     1       5.414  42.656  50.649  1.00  0.00     0.119 A 
ATOM     19  C   UNL     1       3.290  42.592  51.178  1.00  0.00     0.105 A 
ATOM     20  N   UNL     1       4.848  41.581  50.079  1.00  0.00    -0.284 N 
ATOM     21  N   UNL     1       3.563  41.536  50.389  1.00  0.00    -0.175 NA
ATOM     22  H   UNL     1       5.329  40.886  49.467  1.00  0.00     0.189 HD
BRANCH  19  23
ATOM     23  C   UNL     1       1.947  42.825  51.732  1.00  0.00     0.004 A 
ATOM     24  C   UNL     1       1.730  42.673  53.110  1.00  0.00     0.010 A 
ATOM     25  C   UNL     1       0.893  43.257  50.910  1.00  0.00     0.031 A 
ATOM     26  C   UNL     1       0.465  42.912  53.657  1.00  0.00     0.002 A 
ATOM     27  C   UNL     1      -0.368  43.513  51.465  1.00  0.00     0.041 A 
ATOM     28  C   UNL     1      -0.582  43.332  52.836  1.00  0.00     0.020 A 
ATOM     29  Cl  UNL     1      -1.677  44.089  50.456  1.00  0.00    -0.084 Cl
ENDBRANCH  19  23
ENDBRANCH   2  17
TORSDOF 7
ENDMDL
MODEL 3
REMARK VINA RESULT:    -8.815      1.639      2.007
REMARK INTER + INTRA:         -12.975
REMARK INTER:                 -12.578
REMARK INTRA:                  -0.396
REMARK UNBOUND:                -0.810
REMARK SMILES Cc1cccc(C[C@@H](CO)NC(=O)c2c[nH]nc2-c2cccc(Cl)c2)c1
REMARK SMILES IDX 11 1 12 2 13 3 8 5 7 6 6 7 2 8 3 9 26 10 4 11 5 12 1 13 9 14
REMARK SMILES IDX 10 15 14 17 15 18 18 19 16 20 17 21 19 23 20 24 25 25 21 26
REMARK SMILES IDX 23 27 22 28 24 29
REMARK H PARENT 11 4 10 16 16 22
ROOT
ATOM      1  N   UNL     1       4.066  45.760  52.799  1.00  0.00    -0.347 N 
ATOM      2  C   UNL     1       3.458  44.888  53.771  1.00  0.00     0.255 C 
ATOM      3  O   UNL     1       3.891  44.868  54.956  1.00  0.00    -0.269 OA
ATOM      4  H   UNL     1       3.796  45.670  51.797  1.00  0.00     0.164 HD
ENDROOT
BRANCH   1   5
ATOM      5  C   UNL     1       5.198  46.657  53.075  1.00  0.00     0.112 C 
BRANCH   5   6
ATOM      6  C   UNL     1       6.114  46.852  51.848  1.00  0.00     0.062 C 
BRANCH   6   7
ATOM      7  C   UNL     1       7.574  46.722  52.197  1.00  0.00    -0.046 A 
ATOM      8  C   UNL     1       9.414  47.097  53.751  1.00  0.00    -0.051 A 
ATOM      9  C   UNL     1      10.305  46.544  52.819  1.00  0.00     0.003 A 
ATOM     10  C   UNL     1       8.050  47.188  53.433  1.00  0.00     0.007 A 
ATOM     11  C   UNL     1       9.834  46.061  51.597  1.00  0.00     0.001 A 
ATOM     12  C   UNL     1       8.475  46.149  51.285  1.00  0.00     0.004 A 
ATOM     13  C   UNL     1       9.914  47.638  55.058  1.00  0.00     0.044 C 
ENDBRANCH   6   7
ENDBRANCH   5   6
BRANCH   5  14
ATOM     14  C   UNL     1       4.702  48.010  53.616  1.00  0.00     0.181 C 
BRANCH  14  15
ATOM     15  O   UNL     1       4.635  47.987  55.018  1.00  0.00    -0.394 OA
ATOM     16  H   UNL     1       3.887  48.587  55.277  1.00  0.00     0.210 HD
ENDBRANCH  14  15
ENDBRANCH   5  14
ENDBRANCH   1   5
BRANCH   2  17
ATOM     17  C   UNL     1       2.366  43.950  53.411  1.00  0.00     0.085 A 
ATOM     18  C   UNL     1       1.151  43.879  54.065  1.00  0.00     0.119 A 
ATOM     19  C   UNL     1       2.315  42.908  52.484  1.00  0.00     0.105 A 
ATOM     20  N   UNL     1       0.446  42.854  53.562  1.00  0.00    -0.284 N 
ATOM     21  N   UNL     1       1.142  42.258  52.609  1.00  0.00    -0.175 NA
ATOM     22  H   UNL     1      -0.501  42.549  53.876  1.00  0.00     0.189 HD
BRANCH  19  23
ATOM     23  C   UNL     1       3.319  42.518  51.482  1.00  0.00     0.004 A 
ATOM     24  C   UNL     1       4.615  43.051  51.557  1.00  0.00     0.010 A 
ATOM     25  C   UNL     1       3.018  41.572  50.489  1.00  0.00     0.031 A 
ATOM     26  C   UNL     1       5.589  42.674  50.627  1.00  0.00     0.002 A 
ATOM     27  C   UNL     1       4.001  41.183  49.570  1.00  0.00     0.041 A 
ATOM     28  C   UNL     1       5.283  41.741  49.635  1.00  0.00     0.020 A 
ATOM     29  Cl  UNL     1       3.646  39.977  48.353  1.00  0.00    -0.084 Cl
ENDBRANCH  19  23
ENDBRANCH   2  17
TORSDOF 7
ENDMDL
MODEL 4
REMARK VINA RESULT:    -8.516      3.346      5.293
REMARK INTER + INTRA:         -12.562
REMARK INTER:                 -12.896
REMARK INTRA:                   0.334
REMARK UNBOUND:                -0.810
REMARK SMILES Cc1cccc(C[C@@H](CO)NC(=O)c2c[nH]nc2-c2cccc(Cl)c2)c1
REMARK SMILES IDX 11 1 12 2 13 3 8 5 7 6 6 7 2 8 3 9 26 10 4 11 5 12 1 13 9 14
REMARK SMILES IDX 10 15 14 17 15 18 18 19 16 20 17 21 19 23 20 24 25 25 21 26
REMARK SMILES IDX 23 27 22 28 24 29
REMARK H PARENT 11 4 10 16 16 22
ROOT
ATOM      1  N   UNL     1       4.287  45.190  53.280  1.00  0.00    -0.347 N 
ATOM      2  C   UNL     1       2.851  45.274  53.343  1.00  0.00     0.255 C 
ATOM      3  O   UNL     1       2.288  46.403  53.379  1.00  0.00    -0.269 OA
ATOM      4  H   UNL     1       4.747  44.262  53.389  1.00  0.00     0.164 HD
ENDROOT
BRANCH   1   5
ATOM      5  C   UNL     1       5.191  46.350  53.262  1.00  0.00     0.112 C 
BRANCH   5   6
ATOM      6  C   UNL     1       5.999  46.454  51.951  1.00  0.00     0.062 C 
BRANCH   6   7
ATOM      7  C   UNL     1       7.485  46.490  52.195  1.00  0.00    -0.046 A 
ATOM      8  C   UNL     1       9.373  47.004  53.648  1.00  0.00    -0.051 A 
ATOM      9  C   UNL     1      10.255  46.622  52.626  1.00  0.00     0.003 A 
ATOM     10  C   UNL     1       7.989  46.940  53.426  1.00  0.00     0.007 A 
ATOM     11  C   UNL     1       9.759  46.155  51.407  1.00  0.00     0.001 A 
ATOM     12  C   UNL     1       8.381  46.088  51.190  1.00  0.00     0.004 A 
ATOM     13  C   UNL     1       9.897  47.528  54.953  1.00  0.00     0.044 C 
ENDBRANCH   6   7
ENDBRANCH   5   6
BRANCH   5  14
ATOM     14  C   UNL     1       4.415  47.650  53.538  1.00  0.00     0.181 C 
BRANCH  14  15
ATOM     15  O   UNL     1       4.584  48.054  54.871  1.00  0.00    -0.394 OA
ATOM     16  H   UNL     1       4.387  47.262  55.436  1.00  0.00     0.210 HD
ENDBRANCH  14  15
ENDBRANCH   5  14
ENDBRANCH   1   5
BRANCH   2  17
ATOM     17  C   UNL     1       1.997  44.065  53.434  1.00  0.00     0.085 A 
ATOM     18  C   UNL     1       2.157  42.935  52.653  1.00  0.00     0.119 A 
ATOM     19  C   UNL     1       0.841  43.806  54.172  1.00  0.00     0.105 A 
ATOM     20  N   UNL     1       1.153  42.083  52.910  1.00  0.00    -0.284 N 
ATOM     21  N   UNL     1       0.350  42.602  53.824  1.00  0.00    -0.175 NA
ATOM     22  H   UNL     1       1.003  41.156  52.455  1.00  0.00     0.189 HD
BRANCH  19  23
ATOM     23  C   UNL     1       0.199  44.642  55.199  1.00  0.00     0.004 A 
ATOM     24  C   UNL     1      -1.193  44.818  55.178  1.00  0.00     0.010 A 
ATOM     25  C   UNL     1       0.953  45.215  56.237  1.00  0.00     0.031 A 
ATOM     26  C   UNL     1      -1.822  45.591  56.160  1.00  0.00     0.002 A 
ATOM     27  C   UNL     1       0.316  45.974  57.228  1.00  0.00     0.041 A 
ATOM     28  C   UNL     1      -1.069  46.168  57.183  1.00  0.00     0.020 A 
ATOM     29  Cl  UNL     1       1.242  46.661  58.545  1.00  0.00    -0.084 Cl
ENDBRANCH  19  23
ENDBRANCH   2  17
TORSDOF 7
ENDMDL
MODEL 5
REMARK VINA RESULT:    -8.326      3.424      5.118
REMARK INTER + INTRA:         -12.300
REMARK INTER:                 -11.914
REMARK INTRA:                  -0.385
REMARK UNBOUND:                -0.810
REMARK SMILES Cc1cccc(C[C@@H](CO)NC(=O)c2c[nH]nc2-c2cccc(Cl)c2)c1
REMARK SMILES IDX 11 1 12 2 13 3 8 5 7 6 6 7 2 8 3 9 26 10 4 11 5 12 1 13 9 14
REMARK SMILES IDX 10 15 14 17 15 18 18 19 16 20 17 21 19 23 20 24 25 25 21 26
REMARK SMILES IDX 23 27 22 28 24 29
REMARK H PARENT 11 4 10 16 16 22
ROOT
ATOM      1  N   UNL     1       3.816  45.543  52.913  1.00  0.00    -0.347 N 
ATOM      2  C   UNL     1       3.218  44.245  52.730  1.00  0.00     0.255 C 
ATOM      3  O   UNL     1       3.865  43.206  53.034  1.00  0.00    -0.269 OA
ATOM      4  H   UNL     1       3.332  46.383  52.533  1.00  0.00     0.164 HD
ENDROOT
BRANCH   1   5
ATOM      5  C   UNL     1       5.173  45.770  53.433  1.00  0.00     0.112 C 
BRANCH   5   6
ATOM      6  C   UNL     1       5.870  46.975  52.766  1.00  0.00     0.062 C 
BRANCH   6   7
ATOM      7  C   UNL     1       7.372  46.849  52.783  1.00  0.00    -0.046 A 
ATOM      8  C   UNL     1       9.495  47.079  53.957  1.00  0.00    -0.051 A 
ATOM      9  C   UNL     1      10.173  46.682  52.794  1.00  0.00     0.003 A 
ATOM     10  C   UNL     1       8.094  47.165  53.945  1.00  0.00     0.007 A 
ATOM     11  C   UNL     1       9.457  46.348  51.642  1.00  0.00     0.001 A 
ATOM     12  C   UNL     1       8.063  46.431  51.634  1.00  0.00     0.004 A 
ATOM     13  C   UNL     1      10.256  47.460  55.192  1.00  0.00     0.044 C 
ENDBRANCH   6   7
ENDBRANCH   5   6
BRANCH   5  14
ATOM     14  C   UNL     1       5.150  45.922  54.965  1.00  0.00     0.181 C 
BRANCH  14  15
ATOM     15  O   UNL     1       4.081  46.737  55.366  1.00  0.00    -0.394 OA
ATOM     16  H   UNL     1       4.452  47.397  56.009  1.00  0.00     0.210 HD
ENDBRANCH  14  15
ENDBRANCH   5  14
ENDBRANCH   1   5
BRANCH   2  17
ATOM     17  C   UNL     1       1.871  44.079  52.130  1.00  0.00     0.085 A 
ATOM     18  C   UNL     1       1.637  43.866  50.784  1.00  0.00     0.119 A 
ATOM     19  C   UNL     1       0.595  44.198  52.682  1.00  0.00     0.105 A 
ATOM     20  N   UNL     1       0.312  43.877  50.567  1.00  0.00    -0.284 N 
ATOM     21  N   UNL     1      -0.326  44.081  51.707  1.00  0.00    -0.175 NA
ATOM     22  H   UNL     1      -0.158  43.760  49.643  1.00  0.00     0.189 HD
BRANCH  19  23
ATOM     23  C   UNL     1       0.218  44.402  54.090  1.00  0.00     0.004 A 
ATOM     24  C   UNL     1       1.037  45.182  54.921  1.00  0.00     0.010 A 
ATOM     25  C   UNL     1      -0.983  43.879  54.598  1.00  0.00     0.031 A 
ATOM     26  C   UNL     1       0.681  45.405  56.255  1.00  0.00     0.002 A 
ATOM     27  C   UNL     1      -1.344  44.119  55.930  1.00  0.00     0.041 A 
ATOM     28  C   UNL     1      -0.507  44.875  56.759  1.00  0.00     0.020 A 
ATOM     29  Cl  UNL     1      -2.855  43.503  56.561  1.00  0.00    -0.084 Cl
ENDBRANCH  19  23
ENDBRANCH   2  17
TORSDOF 7
ENDMDL
