ligand_59_conformer_5_docked
     RDKit          3D

 49 51  0  0  0  0  0  0  0  0999 V2000
   11.3380   47.5380   56.4950 C   0  0  0  0  0  0  0  0  0  0  0  0
   10.1220   48.0680   55.9820 O   0  0  0  0  0  0  0  0  0  0  0  0
    9.4520   47.5060   54.8930 C   0  0  0  0  0  0  0  0  0  0  0  0
   10.1390   47.0600   53.8070 N   0  0  0  0  0  0  0  0  0  0  0  0
    9.4930   46.5140   52.7440 C   0  0  0  0  0  0  0  0  0  0  0  0
   10.2740   46.0590   51.5510 C   0  0  0  0  0  0  0  0  0  0  0  0
    8.0990   46.4130   52.7570 C   0  0  0  0  0  0  0  0  0  0  0  0
    7.3990   46.8640   53.8870 C   0  0  0  0  0  0  0  0  0  0  0  0
    5.9600   46.7940   53.9610 N   0  0  0  0  0  0  0  0  0  0  0  0
    5.3470   45.9930   55.0300 C   0  0  0  0  0  0  0  0  0  0  0  0
    3.8470   46.2710   55.1580 C   0  0  0  0  0  0  0  0  0  0  0  0
    3.2020   46.1780   53.8420 N   0  0  0  0  0  0  0  0  0  0  0  0
    1.8740   45.6190   53.7390 C   0  0  0  0  0  0  0  0  0  0  0  0
    1.1290   45.6140   54.7570 O   0  0  0  0  0  0  0  0  0  0  0  0
    1.3920   44.9830   52.4450 C   0  0  0  0  0  0  0  0  0  0  0  0
    1.9570   43.5570   52.2840 C   0  0  0  0  0  0  0  0  0  0  0  0
    1.2520   42.5500   53.2010 C   0  0  0  0  0  0  0  0  0  0  0  0
   -0.2550   42.5390   52.9350 C   0  0  0  0  0  0  0  0  0  0  0  0
   -0.8580   43.9300   53.1480 C   0  0  0  0  0  0  0  0  0  0  0  0
   -0.1500   44.9900   52.2870 C   0  0  0  0  0  0  0  0  0  0  0  0
    3.8540   46.7700   52.6640 C   0  0  0  0  0  0  0  0  0  0  0  0
    5.1120   47.5640   53.0380 C   0  0  0  0  0  0  0  0  0  0  0  0
    8.0990   47.4070   54.9220 N   0  0  0  0  0  0  0  0  0  0  0  0
   11.3086   47.5508   57.5945 H   0  0  0  0  0  0  0  0  0  0  0  0
   11.4641   46.5033   56.1436 H   0  0  0  0  0  0  0  0  0  0  0  0
   12.1818   48.1500   56.1436 H   0  0  0  0  0  0  0  0  0  0  0  0
   11.1796   45.5314   51.8850 H   0  0  0  0  0  0  0  0  0  0  0  0
    9.6561   45.3795   50.9456 H   0  0  0  0  0  0  0  0  0  0  0  0
   10.5603   46.9316   50.9456 H   0  0  0  0  0  0  0  0  0  0  0  0
    7.5603   45.9878   51.8973 H   0  0  0  0  0  0  0  0  0  0  0  0
    5.4937   44.9264   54.8048 H   0  0  0  0  0  0  0  0  0  0  0  0
    5.8282   46.2654   55.9809 H   0  0  0  0  0  0  0  0  0  0  0  0
    3.3967   45.5318   55.8368 H   0  0  0  0  0  0  0  0  0  0  0  0
    3.7019   47.2850   55.5590 H   0  0  0  0  0  0  0  0  0  0  0  0
    1.7837   45.6142   51.6338 H   0  0  0  0  0  0  0  0  0  0  0  0
    1.8243   43.2388   51.2394 H   0  0  0  0  0  0  0  0  0  0  0  0
    3.0210   43.5809   52.5620 H   0  0  0  0  0  0  0  0  0  0  0  0
    1.6590   41.5452   53.0144 H   0  0  0  0  0  0  0  0  0  0  0  0
    1.4243   42.8433   54.2471 H   0  0  0  0  0  0  0  0  0  0  0  0
   -0.4351   42.2237   51.8967 H   0  0  0  0  0  0  0  0  0  0  0  0
   -0.7306   41.8387   53.6374 H   0  0  0  0  0  0  0  0  0  0  0  0
   -1.9237   43.9028   52.8766 H   0  0  0  0  0  0  0  0  0  0  0  0
   -0.7297   44.2031   54.2058 H   0  0  0  0  0  0  0  0  0  0  0  0
   -0.3930   44.8004   51.2311 H   0  0  0  0  0  0  0  0  0  0  0  0
   -0.5063   45.9740   52.6259 H   0  0  0  0  0  0  0  0  0  0  0  0
    4.1368   45.9629   51.9722 H   0  0  0  0  0  0  0  0  0  0  0  0
    3.1414   47.4654   52.1965 H   0  0  0  0  0  0  0  0  0  0  0  0
    5.6828   47.7867   52.1245 H   0  0  0  0  0  0  0  0  0  0  0  0
    4.8059   48.4964   53.5349 H   0  0  0  0  0  0  0  0  0  0  0  0
  1  2  1  0
  2  3  1  0
  3  4  2  0
  4  5  1  0
  5  6  1  0
  5  7  2  0
  7  8  1  0
  8  9  1  0
  9 10  1  0
 10 11  1  0
 11 12  1  0
 12 13  1  0
 13 14  2  0
 13 15  1  0
 15 16  1  0
 16 17  1  0
 17 18  1  0
 18 19  1  0
 19 20  1  0
 12 21  1  0
 21 22  1  0
  8 23  2  0
 23  3  1  0
 22  9  1  0
 20 15  1  0
  1 24  1  0
  1 25  1  0
  1 26  1  0
  6 27  1  0
  6 28  1  0
  6 29  1  0
  7 30  1  0
 10 31  1  0
 10 32  1  0
 11 33  1  0
 11 34  1  0
 15 35  1  0
 16 36  1  0
 16 37  1  0
 17 38  1  0
 17 39  1  0
 18 40  1  0
 18 41  1  0
 19 42  1  0
 19 43  1  0
 20 44  1  0
 20 45  1  0
 21 46  1  0
 21 47  1  0
 22 48  1  0
 22 49  1  0
M  END
>  <meeko>  (1) 
{"is_sidechain": [false], "free_energy": -8.726, "intermolecular_energy": -10.256, "internal_energy": -0.224}

$$$$
ligand_59_conformer_5_docked
     RDKit          3D

 49 51  0  0  0  0  0  0  0  0999 V2000
   -1.6900   42.7000   51.9390 C   0  0  0  0  0  0  0  0  0  0  0  0
   -1.3340   42.6770   53.3160 O   0  0  0  0  0  0  0  0  0  0  0  0
   -0.3970   43.5530   53.8700 C   0  0  0  0  0  0  0  0  0  0  0  0
   -0.6010   44.1100   55.0940 N   0  0  0  0  0  0  0  0  0  0  0  0
    0.3050   44.9630   55.6370 C   0  0  0  0  0  0  0  0  0  0  0  0
    0.0390   45.5820   56.9720 C   0  0  0  0  0  0  0  0  0  0  0  0
    1.4660   45.2850   54.9260 C   0  0  0  0  0  0  0  0  0  0  0  0
    1.6750   44.6950   53.6700 C   0  0  0  0  0  0  0  0  0  0  0  0
    2.8480   44.9910   52.8830 N   0  0  0  0  0  0  0  0  0  0  0  0
    3.9460   44.0140   52.8620 C   0  0  0  0  0  0  0  0  0  0  0  0
    4.9590   44.3240   51.7570 C   0  0  0  0  0  0  0  0  0  0  0  0
    5.3620   45.7350   51.8220 N   0  0  0  0  0  0  0  0  0  0  0  0
    6.7290   46.0990   51.5280 C   0  0  0  0  0  0  0  0  0  0  0  0
    7.4340   45.3210   50.8280 O   0  0  0  0  0  0  0  0  0  0  0  0
    7.3410   47.3670   52.1000 C   0  0  0  0  0  0  0  0  0  0  0  0
    7.4120   47.3020   53.6400 C   0  0  0  0  0  0  0  0  0  0  0  0
    8.5340   46.3780   54.1270 C   0  0  0  0  0  0  0  0  0  0  0  0
    9.8870   46.8270   53.5690 C   0  0  0  0  0  0  0  0  0  0  0  0
    9.8680   46.8420   52.0380 C   0  0  0  0  0  0  0  0  0  0  0  0
    8.7240   47.7160   51.4950 C   0  0  0  0  0  0  0  0  0  0  0  0
    4.3490   46.7750   52.0580 C   0  0  0  0  0  0  0  0  0  0  0  0
    2.9250   46.2050   52.0560 C   0  0  0  0  0  0  0  0  0  0  0  0
    0.7290   43.8500   53.1730 N   0  0  0  0  0  0  0  0  0  0  0  0
   -2.7836   42.7707   51.8441 H   0  0  0  0  0  0  0  0  0  0  0  0
   -1.2229   43.5698   51.4540 H   0  0  0  0  0  0  0  0  0  0  0  0
   -1.3387   41.7773   51.4540 H   0  0  0  0  0  0  0  0  0  0  0  0
    0.3393   44.8831   57.7666 H   0  0  0  0  0  0  0  0  0  0  0  0
    0.6162   46.5137   57.0657 H   0  0  0  0  0  0  0  0  0  0  0  0
   -1.0342   45.8045   57.0657 H   0  0  0  0  0  0  0  0  0  0  0  0
    2.2017   45.9879   55.3439 H   0  0  0  0  0  0  0  0  0  0  0  0
    4.4609   44.0355   53.8338 H   0  0  0  0  0  0  0  0  0  0  0  0
    3.5171   43.0204   52.6649 H   0  0  0  0  0  0  0  0  0  0  0  0
    5.8457   43.6862   51.8871 H   0  0  0  0  0  0  0  0  0  0  0  0
    4.4959   44.1269   50.7789 H   0  0  0  0  0  0  0  0  0  0  0  0
    6.6669   48.1861   51.8092 H   0  0  0  0  0  0  0  0  0  0  0  0
    7.5922   48.3147   54.0298 H   0  0  0  0  0  0  0  0  0  0  0  0
    6.4570   46.8974   54.0064 H   0  0  0  0  0  0  0  0  0  0  0  0
    8.5707   46.4031   55.2261 H   0  0  0  0  0  0  0  0  0  0  0  0
    8.3281   45.3565   53.7746 H   0  0  0  0  0  0  0  0  0  0  0  0
   10.1102   47.8395   53.9365 H   0  0  0  0  0  0  0  0  0  0  0  0
   10.6585   46.1182   53.9043 H   0  0  0  0  0  0  0  0  0  0  0  0
   10.8261   47.2405   51.6729 H   0  0  0  0  0  0  0  0  0  0  0  0
    9.7115   45.8119   51.6854 H   0  0  0  0  0  0  0  0  0  0  0  0
    8.9496   48.7677   51.7251 H   0  0  0  0  0  0  0  0  0  0  0  0
    8.6604   47.5310   50.4125 H   0  0  0  0  0  0  0  0  0  0  0  0
    4.5422   47.2432   53.0345 H   0  0  0  0  0  0  0  0  0  0  0  0
    4.4210   47.5091   51.2420 H   0  0  0  0  0  0  0  0  0  0  0  0
    2.2336   46.9601   52.4583 H   0  0  0  0  0  0  0  0  0  0  0  0
    2.6499   45.9463   51.0229 H   0  0  0  0  0  0  0  0  0  0  0  0
  1  2  1  0
  2  3  1  0
  3  4  2  0
  4  5  1  0
  5  6  1  0
  5  7  2  0
  7  8  1  0
  8  9  1  0
  9 10  1  0
 10 11  1  0
 11 12  1  0
 12 13  1  0
 13 14  2  0
 13 15  1  0
 15 16  1  0
 16 17  1  0
 17 18  1  0
 18 19  1  0
 19 20  1  0
 12 21  1  0
 21 22  1  0
  8 23  2  0
 23  3  1  0
 22  9  1  0
 20 15  1  0
  1 24  1  0
  1 25  1  0
  1 26  1  0
  6 27  1  0
  6 28  1  0
  6 29  1  0
  7 30  1  0
 10 31  1  0
 10 32  1  0
 11 33  1  0
 11 34  1  0
 15 35  1  0
 16 36  1  0
 16 37  1  0
 17 38  1  0
 17 39  1  0
 18 40  1  0
 18 41  1  0
 19 42  1  0
 19 43  1  0
 20 44  1  0
 20 45  1  0
 21 46  1  0
 21 47  1  0
 22 48  1  0
 22 49  1  0
M  END
>  <meeko>  (2) 
{"is_sidechain": [false], "free_energy": -8.512, "intermolecular_energy": -10.015, "internal_energy": -0.213}

$$$$
ligand_59_conformer_5_docked
     RDKit          3D

 49 51  0  0  0  0  0  0  0  0999 V2000
    8.0540   43.7540   49.2850 C   0  0  0  0  0  0  0  0  0  0  0  0
    8.1300   45.1450   49.5730 O   0  0  0  0  0  0  0  0  0  0  0  0
    7.8940   45.6660   50.8480 C   0  0  0  0  0  0  0  0  0  0  0  0
    8.9130   46.1680   51.5960 N   0  0  0  0  0  0  0  0  0  0  0  0
    8.6910   46.6760   52.8360 C   0  0  0  0  0  0  0  0  0  0  0  0
    9.8370   47.1930   53.6460 C   0  0  0  0  0  0  0  0  0  0  0  0
    7.3950   46.6770   53.3610 C   0  0  0  0  0  0  0  0  0  0  0  0
    6.3470   46.1700   52.5770 C   0  0  0  0  0  0  0  0  0  0  0  0
    4.9890   46.1370   53.0630 N   0  0  0  0  0  0  0  0  0  0  0  0
    4.5630   44.9950   53.8850 C   0  0  0  0  0  0  0  0  0  0  0  0
    3.2180   45.2590   54.5680 C   0  0  0  0  0  0  0  0  0  0  0  0
    2.2380   45.7390   53.5860 N   0  0  0  0  0  0  0  0  0  0  0  0
    0.8580   45.3270   53.6980 C   0  0  0  0  0  0  0  0  0  0  0  0
    0.4220   44.9380   54.8170 O   0  0  0  0  0  0  0  0  0  0  0  0
   -0.0510   45.2960   52.4800 C   0  0  0  0  0  0  0  0  0  0  0  0
    0.4940   44.3310   51.4070 C   0  0  0  0  0  0  0  0  0  0  0  0
    0.2660   42.8620   51.7830 C   0  0  0  0  0  0  0  0  0  0  0  0
   -1.2220   42.5870   52.0150 C   0  0  0  0  0  0  0  0  0  0  0  0
   -1.7790   43.4880   53.1200 C   0  0  0  0  0  0  0  0  0  0  0  0
   -1.5300   44.9760   52.8160 C   0  0  0  0  0  0  0  0  0  0  0  0
    2.6380   46.7330   52.5780 C   0  0  0  0  0  0  0  0  0  0  0  0
    4.0620   47.2510   52.8120 C   0  0  0  0  0  0  0  0  0  0  0  0
    6.6300   45.6700   51.3420 N   0  0  0  0  0  0  0  0  0  0  0  0
    8.0230   43.1858   50.2264 H   0  0  0  0  0  0  0  0  0  0  0  0
    7.1433   43.5493   48.7030 H   0  0  0  0  0  0  0  0  0  0  0  0
    8.9369   43.4513   48.7030 H   0  0  0  0  0  0  0  0  0  0  0  0
    9.6060   47.0888   54.7164 H   0  0  0  0  0  0  0  0  0  0  0  0
   10.7433   46.6166   53.4087 H   0  0  0  0  0  0  0  0  0  0  0  0
   10.0046   48.2539   53.4087 H   0  0  0  0  0  0  0  0  0  0  0  0
    7.2003   47.0682   54.3705 H   0  0  0  0  0  0  0  0  0  0  0  0
    4.4679   44.1082   53.2412 H   0  0  0  0  0  0  0  0  0  0  0  0
    5.3193   44.8348   54.6675 H   0  0  0  0  0  0  0  0  0  0  0  0
    2.8513   44.3264   55.0217 H   0  0  0  0  0  0  0  0  0  0  0  0
    3.3536   46.0258   55.3450 H   0  0  0  0  0  0  0  0  0  0  0  0
   -0.0474   46.3183   52.0739 H   0  0  0  0  0  0  0  0  0  0  0  0
   -0.0152   44.5363   50.4538 H   0  0  0  0  0  0  0  0  0  0  0  0
    1.5785   44.4949   51.3235 H   0  0  0  0  0  0  0  0  0  0  0  0
    0.6288   42.2200   50.9668 H   0  0  0  0  0  0  0  0  0  0  0  0
    0.8144   42.6456   52.7117 H   0  0  0  0  0  0  0  0  0  0  0  0
   -1.7731   42.7784   51.0825 H   0  0  0  0  0  0  0  0  0  0  0  0
   -1.3412   41.5380   52.3239 H   0  0  0  0  0  0  0  0  0  0  0  0
   -2.8622   43.3178   53.2075 H   0  0  0  0  0  0  0  0  0  0  0  0
   -1.2652   43.2379   54.0599 H   0  0  0  0  0  0  0  0  0  0  0  0
   -2.1533   45.2656   51.9572 H   0  0  0  0  0  0  0  0  0  0  0  0
   -1.7863   45.5406   53.7246 H   0  0  0  0  0  0  0  0  0  0  0  0
    2.5889   46.2680   51.5823 H   0  0  0  0  0  0  0  0  0  0  0  0
    1.9499   47.5879   52.6537 H   0  0  0  0  0  0  0  0  0  0  0  0
    4.3954   47.8038   51.9214 H   0  0  0  0  0  0  0  0  0  0  0  0
    4.0568   47.9103   53.6925 H   0  0  0  0  0  0  0  0  0  0  0  0
  1  2  1  0
  2  3  1  0
  3  4  2  0
  4  5  1  0
  5  6  1  0
  5  7  2  0
  7  8  1  0
  8  9  1  0
  9 10  1  0
 10 11  1  0
 11 12  1  0
 12 13  1  0
 13 14  2  0
 13 15  1  0
 15 16  1  0
 16 17  1  0
 17 18  1  0
 18 19  1  0
 19 20  1  0
 12 21  1  0
 21 22  1  0
  8 23  2  0
 23  3  1  0
 22  9  1  0
 20 15  1  0
  1 24  1  0
  1 25  1  0
  1 26  1  0
  6 27  1  0
  6 28  1  0
  6 29  1  0
  7 30  1  0
 10 31  1  0
 10 32  1  0
 11 33  1  0
 11 34  1  0
 15 35  1  0
 16 36  1  0
 16 37  1  0
 17 38  1  0
 17 39  1  0
 18 40  1  0
 18 41  1  0
 19 42  1  0
 19 43  1  0
 20 44  1  0
 20 45  1  0
 21 46  1  0
 21 47  1  0
 22 48  1  0
 22 49  1  0
M  END
>  <meeko>  (3) 
{"is_sidechain": [false], "free_energy": -7.721, "intermolecular_energy": -9.108, "internal_energy": -0.191}

$$$$
ligand_59_conformer_5_docked
     RDKit          3D

 49 51  0  0  0  0  0  0  0  0999 V2000
   -2.7220   45.6530   51.6050 C   0  0  0  0  0  0  0  0  0  0  0  0
   -1.5600   44.8660   51.8370 O   0  0  0  0  0  0  0  0  0  0  0  0
   -0.8850   44.8580   53.0590 C   0  0  0  0  0  0  0  0  0  0  0  0
   -1.5670   44.7840   54.2330 N   0  0  0  0  0  0  0  0  0  0  0  0
   -0.9160   44.7770   55.4250 C   0  0  0  0  0  0  0  0  0  0  0  0
   -1.6960   44.7250   56.7000 C   0  0  0  0  0  0  0  0  0  0  0  0
    0.4800   44.8550   55.4520 C   0  0  0  0  0  0  0  0  0  0  0  0
    1.1770   44.9180   54.2360 C   0  0  0  0  0  0  0  0  0  0  0  0
    2.6170   45.0070   54.1950 N   0  0  0  0  0  0  0  0  0  0  0  0
    3.3120   45.6800   55.3020 C   0  0  0  0  0  0  0  0  0  0  0  0
    4.8200   45.4190   55.2660 C   0  0  0  0  0  0  0  0  0  0  0  0
    5.3480   45.6900   53.9220 N   0  0  0  0  0  0  0  0  0  0  0  0
    6.6560   46.2850   53.7790 C   0  0  0  0  0  0  0  0  0  0  0  0
    7.4870   46.1770   54.7220 O   0  0  0  0  0  0  0  0  0  0  0  0
    7.0180   47.0890   52.5400 C   0  0  0  0  0  0  0  0  0  0  0  0
    8.0960   48.1450   52.8600 C   0  0  0  0  0  0  0  0  0  0  0  0
    9.4860   47.5190   53.0260 C   0  0  0  0  0  0  0  0  0  0  0  0
    9.8840   46.7420   51.7680 C   0  0  0  0  0  0  0  0  0  0  0  0
    8.8640   45.6430   51.4580 C   0  0  0  0  0  0  0  0  0  0  0  0
    7.4400   46.2130   51.3330 C   0  0  0  0  0  0  0  0  0  0  0  0
    4.6010   45.2380   52.7380 C   0  0  0  0  0  0  0  0  0  0  0  0
    3.3890   44.3770   53.1140 C   0  0  0  0  0  0  0  0  0  0  0  0
    0.4710   44.9260   53.0710 N   0  0  0  0  0  0  0  0  0  0  0  0
   -3.1616   45.9507   52.5684 H   0  0  0  0  0  0  0  0  0  0  0  0
   -2.4479   46.5521   51.0336 H   0  0  0  0  0  0  0  0  0  0  0  0
   -3.4552   45.0648   51.0336 H   0  0  0  0  0  0  0  0  0  0  0  0
   -1.0050   44.7711   57.5547 H   0  0  0  0  0  0  0  0  0  0  0  0
   -2.3881   45.5790   56.7415 H   0  0  0  0  0  0  0  0  0  0  0  0
   -2.2686   43.7867   56.7415 H   0  0  0  0  0  0  0  0  0  0  0  0
    1.0218   44.8667   56.4093 H   0  0  0  0  0  0  0  0  0  0  0  0
    3.1358   46.7632   55.2274 H   0  0  0  0  0  0  0  0  0  0  0  0
    2.9174   45.2806   56.2479 H   0  0  0  0  0  0  0  0  0  0  0  0
    5.3203   46.0761   55.9926 H   0  0  0  0  0  0  0  0  0  0  0  0
    5.0090   44.3658   55.5211 H   0  0  0  0  0  0  0  0  0  0  0  0
    6.0956   47.6041   52.2337 H   0  0  0  0  0  0  0  0  0  0  0  0
    8.1319   48.8754   52.0383 H   0  0  0  0  0  0  0  0  0  0  0  0
    7.8260   48.6270   53.8112 H   0  0  0  0  0  0  0  0  0  0  0  0
   10.2220   48.3165   53.2056 H   0  0  0  0  0  0  0  0  0  0  0  0
    9.4609   46.8235   53.8778 H   0  0  0  0  0  0  0  0  0  0  0  0
    9.9345   47.4368   50.9167 H   0  0  0  0  0  0  0  0  0  0  0  0
   10.8640   46.2730   51.9404 H   0  0  0  0  0  0  0  0  0  0  0  0
    9.1390   45.1574   50.5100 H   0  0  0  0  0  0  0  0  0  0  0  0
    8.8743   44.9195   52.2865 H   0  0  0  0  0  0  0  0  0  0  0  0
    7.3893   46.8274   50.4220 H   0  0  0  0  0  0  0  0  0  0  0  0
    6.7502   45.3569   51.2969 H   0  0  0  0  0  0  0  0  0  0  0  0
    4.2506   46.1200   52.1818 H   0  0  0  0  0  0  0  0  0  0  0  0
    5.2767   44.6225   52.1260 H   0  0  0  0  0  0  0  0  0  0  0  0
    2.7432   44.2581   52.2315 H   0  0  0  0  0  0  0  0  0  0  0  0
    3.7468   43.3965   53.4611 H   0  0  0  0  0  0  0  0  0  0  0  0
  1  2  1  0
  2  3  1  0
  3  4  2  0
  4  5  1  0
  5  6  1  0
  5  7  2  0
  7  8  1  0
  8  9  1  0
  9 10  1  0
 10 11  1  0
 11 12  1  0
 12 13  1  0
 13 14  2  0
 13 15  1  0
 15 16  1  0
 16 17  1  0
 17 18  1  0
 18 19  1  0
 19 20  1  0
 12 21  1  0
 21 22  1  0
  8 23  2  0
 23  3  1  0
 22  9  1  0
 20 15  1  0
  1 24  1  0
  1 25  1  0
  1 26  1  0
  6 27  1  0
  6 28  1  0
  6 29  1  0
  7 30  1  0
 10 31  1  0
 10 32  1  0
 11 33  1  0
 11 34  1  0
 15 35  1  0
 16 36  1  0
 16 37  1  0
 17 38  1  0
 17 39  1  0
 18 40  1  0
 18 41  1  0
 19 42  1  0
 19 43  1  0
 20 44  1  0
 20 45  1  0
 21 46  1  0
 21 47  1  0
 22 48  1  0
 22 49  1  0
M  END
>  <meeko>  (4) 
{"is_sidechain": [false], "free_energy": -7.604, "intermolecular_energy": -9.266, "internal_energy": 0.104}

$$$$
ligand_59_conformer_5_docked
     RDKit          3D

 49 51  0  0  0  0  0  0  0  0999 V2000
    5.5900   40.4310   43.5720 C   0  0  0  0  0  0  0  0  0  0  0  0
    4.2810   40.5970   44.1050 O   0  0  0  0  0  0  0  0  0  0  0  0
    3.9060   40.1010   45.3560 C   0  0  0  0  0  0  0  0  0  0  0  0
    3.1640   38.9660   45.4620 N   0  0  0  0  0  0  0  0  0  0  0  0
    2.7950   38.4790   46.6750 C   0  0  0  0  0  0  0  0  0  0  0  0
    1.9540   37.2440   46.7580 C   0  0  0  0  0  0  0  0  0  0  0  0
    3.1740   39.1560   47.8380 C   0  0  0  0  0  0  0  0  0  0  0  0
    3.9500   40.3190   47.7200 C   0  0  0  0  0  0  0  0  0  0  0  0
    4.3690   41.0680   48.8800 N   0  0  0  0  0  0  0  0  0  0  0  0
    3.4140   41.2470   49.9840 C   0  0  0  0  0  0  0  0  0  0  0  0
    4.1000   41.7820   51.2440 C   0  0  0  0  0  0  0  0  0  0  0  0
    4.9210   42.9540   50.9150 N   0  0  0  0  0  0  0  0  0  0  0  0
    5.0030   44.0510   51.8510 C   0  0  0  0  0  0  0  0  0  0  0  0
    4.7490   43.8400   53.0690 O   0  0  0  0  0  0  0  0  0  0  0  0
    5.3280   45.4590   51.3790 C   0  0  0  0  0  0  0  0  0  0  0  0
    4.0820   46.1440   50.7800 C   0  0  0  0  0  0  0  0  0  0  0  0
    3.0920   46.5890   51.8630 C   0  0  0  0  0  0  0  0  0  0  0  0
    3.7690   47.5330   52.8610 C   0  0  0  0  0  0  0  0  0  0  0  0
    4.9750   46.8590   53.5200 C   0  0  0  0  0  0  0  0  0  0  0  0
    5.9780   46.3450   52.4720 C   0  0  0  0  0  0  0  0  0  0  0  0
    5.7510   42.9480   49.7000 C   0  0  0  0  0  0  0  0  0  0  0  0
    5.7410   41.5830   49.0010 C   0  0  0  0  0  0  0  0  0  0  0  0
    4.2880   40.7630   46.4770 N   0  0  0  0  0  0  0  0  0  0  0  0
    6.3126   40.3394   44.3963 H   0  0  0  0  0  0  0  0  0  0  0  0
    5.6216   39.5217   42.9539 H   0  0  0  0  0  0  0  0  0  0  0  0
    5.8476   41.3037   42.9539 H   0  0  0  0  0  0  0  0  0  0  0  0
    1.7803   36.9889   47.8138 H   0  0  0  0  0  0  0  0  0  0  0  0
    0.9894   37.4232   46.2606 H   0  0  0  0  0  0  0  0  0  0  0  0
    2.4741   36.4121   46.2606 H   0  0  0  0  0  0  0  0  0  0  0  0
    2.8695   38.7838   48.8273 H   0  0  0  0  0  0  0  0  0  0  0  0
    2.6367   41.9597   49.6712 H   0  0  0  0  0  0  0  0  0  0  0  0
    2.9763   40.2662   50.2216 H   0  0  0  0  0  0  0  0  0  0  0  0
    3.3349   42.0693   51.9802 H   0  0  0  0  0  0  0  0  0  0  0  0
    4.7467   40.9964   51.6619 H   0  0  0  0  0  0  0  0  0  0  0  0
    6.0855   45.3465   50.5894 H   0  0  0  0  0  0  0  0  0  0  0  0
    4.4031   47.0273   50.2084 H   0  0  0  0  0  0  0  0  0  0  0  0
    3.5720   45.4144   50.1339 H   0  0  0  0  0  0  0  0  0  0  0  0
    2.2479   47.1106   51.3882 H   0  0  0  0  0  0  0  0  0  0  0  0
    2.7360   45.6995   52.4034 H   0  0  0  0  0  0  0  0  0  0  0  0
    4.1064   48.4357   52.3307 H   0  0  0  0  0  0  0  0  0  0  0  0
    3.0425   47.7958   53.6440 H   0  0  0  0  0  0  0  0  0  0  0  0
    5.4803   47.5880   54.1706 H   0  0  0  0  0  0  0  0  0  0  0  0
    4.6134   45.9984   54.1019 H   0  0  0  0  0  0  0  0  0  0  0  0
    6.4473   47.2120   51.9842 H   0  0  0  0  0  0  0  0  0  0  0  0
    6.7103   45.7194   53.0035 H   0  0  0  0  0  0  0  0  0  0  0  0
    5.3648   43.7063   49.0029 H   0  0  0  0  0  0  0  0  0  0  0  0
    6.7870   43.1691   49.9965 H   0  0  0  0  0  0  0  0  0  0  0  0
    6.1762   41.6892   47.9963 H   0  0  0  0  0  0  0  0  0  0  0  0
    6.3315   40.8753   49.6014 H   0  0  0  0  0  0  0  0  0  0  0  0
  1  2  1  0
  2  3  1  0
  3  4  2  0
  4  5  1  0
  5  6  1  0
  5  7  2  0
  7  8  1  0
  8  9  1  0
  9 10  1  0
 10 11  1  0
 11 12  1  0
 12 13  1  0
 13 14  2  0
 13 15  1  0
 15 16  1  0
 16 17  1  0
 17 18  1  0
 18 19  1  0
 19 20  1  0
 12 21  1  0
 21 22  1  0
  8 23  2  0
 23  3  1  0
 22  9  1  0
 20 15  1  0
  1 24  1  0
  1 25  1  0
  1 26  1  0
  6 27  1  0
  6 28  1  0
  6 29  1  0
  7 30  1  0
 10 31  1  0
 10 32  1  0
 11 33  1  0
 11 34  1  0
 15 35  1  0
 16 36  1  0
 16 37  1  0
 17 38  1  0
 17 39  1  0
 18 40  1  0
 18 41  1  0
 19 42  1  0
 19 43  1  0
 20 44  1  0
 20 45  1  0
 21 46  1  0
 21 47  1  0
 22 48  1  0
 22 49  1  0
M  END
>  <meeko>  (5) 
{"is_sidechain": [false], "free_energy": -7.573, "intermolecular_energy": -8.899, "internal_energy": -0.225}

$$$$
