ligand_4_conformer_1_docked
     RDKit          3D

 44 47  0  0  0  0  0  0  0  0999 V2000
    9.8800   46.8190   51.9010 C   0  0  0  0  0  0  0  0  0  0  0  0
    8.5910   46.9830   51.3900 C   0  0  0  0  0  0  0  0  0  0  0  0
    7.5050   47.1250   52.2590 C   0  0  0  0  0  0  0  0  0  0  0  0
    7.7030   47.0870   53.6530 C   0  0  0  0  0  0  0  0  0  0  0  0
    6.6410   47.2240   54.5590 O   0  0  0  0  0  0  0  0  0  0  0  0
    5.4180   46.5480   54.4660 C   0  0  0  0  0  0  0  0  0  0  0  0
    4.2590   47.1560   54.9490 C   0  0  0  0  0  0  0  0  0  0  0  0
    3.0540   46.4580   54.8620 C   0  0  0  0  0  0  0  0  0  0  0  0
    3.0290   45.2130   54.3230 N   0  0  0  0  0  0  0  0  0  0  0  0
    4.1670   44.6250   53.8640 C   0  0  0  0  0  0  0  0  0  0  0  0
    4.1110   43.3070   53.3010 N   0  0  0  0  0  0  0  0  0  0  0  0
    3.5850   43.0510   51.9540 C   0  0  1  0  0  0  0  0  0  0  0  0
    3.5300   44.3750   51.1380 C   0  0  0  0  0  0  0  0  0  0  0  0
    4.9250   44.9150   50.7160 C   0  0  0  0  0  0  0  0  0  0  0  0
    5.9790   43.7990   50.6560 C   0  0  2  0  0  0  0  0  0  0  0  0
    7.0440   44.0850   49.7890 O   0  0  0  0  0  0  0  0  0  0  0  0
    7.5420   42.8250   49.3700 C   0  0  0  0  0  0  0  0  0  0  0  0
    6.5640   41.7230   49.7910 C   0  0  0  0  0  0  0  0  0  0  0  0
    5.3500   42.5210   50.1650 C   0  0  1  0  0  0  0  0  0  0  0  0
    4.4190   41.9370   51.2410 C   0  0  0  0  0  0  0  0  0  0  0  0
    5.3480   45.2930   53.9460 N   0  0  0  0  0  0  0  0  0  0  0  0
    9.0030   46.9460   54.1550 C   0  0  0  0  0  0  0  0  0  0  0  0
   10.0880   46.8060   53.2840 C   0  0  0  0  0  0  0  0  0  0  0  0
   10.7321   46.7000   51.2157 H   0  0  0  0  0  0  0  0  0  0  0  0
    8.4297   47.0005   50.3020 H   0  0  0  0  0  0  0  0  0  0  0  0
    6.4927   47.2669   51.8527 H   0  0  0  0  0  0  0  0  0  0  0  0
    4.2944   48.1636   55.3888 H   0  0  0  0  0  0  0  0  0  0  0  0
    2.1246   46.9169   55.2302 H   0  0  0  0  0  0  0  0  0  0  0  0
    4.5160   42.5210   53.8590 H   0  0  0  0  0  0  0  0  0  0  0  0
    2.5542   42.6746   52.0300 H   0  0  0  0  0  0  0  0  0  0  0  0
    2.9383   44.1963   50.2280 H   0  0  0  0  0  0  0  0  0  0  0  0
    3.0792   45.1347   51.7935 H   0  0  0  0  0  0  0  0  0  0  0  0
    4.8409   45.3781   49.7218 H   0  0  0  0  0  0  0  0  0  0  0  0
    5.2483   45.6480   51.4698 H   0  0  0  0  0  0  0  0  0  0  0  0
    6.3688   43.7061   51.6804 H   0  0  0  0  0  0  0  0  0  0  0  0
    7.6513   42.8196   48.2755 H   0  0  0  0  0  0  0  0  0  0  0  0
    8.5212   42.6441   49.8374 H   0  0  0  0  0  0  0  0  0  0  0  0
    6.3515   41.0359   48.9587 H   0  0  0  0  0  0  0  0  0  0  0  0
    6.9397   41.0767   50.5979 H   0  0  0  0  0  0  0  0  0  0  0  0
    4.6639   42.5910   49.3080 H   0  0  0  0  0  0  0  0  0  0  0  0
    3.7286   41.2245   50.7659 H   0  0  0  0  0  0  0  0  0  0  0  0
    5.0420   41.4387   51.9984 H   0  0  0  0  0  0  0  0  0  0  0  0
    9.1716   46.9454   55.2420 H   0  0  0  0  0  0  0  0  0  0  0  0
   11.1047   46.6857   53.6864 H   0  0  0  0  0  0  0  0  0  0  0  0
  1  2  2  0
  2  3  1  0
  3  4  2  0
  4  5  1  0
  5  6  1  0
  6  7  2  0
  7  8  1  0
  8  9  2  0
  9 10  1  0
 10 11  1  0
 11 12  1  0
 12 13  1  0
 13 14  1  0
 14 15  1  0
 15 16  1  0
 16 17  1  0
 17 18  1  0
 18 19  1  0
 19 20  1  0
 10 21  2  0
  4 22  1  0
 22 23  2  0
 23  1  1  0
 21  6  1  0
 20 12  1  0
 19 15  1  0
  1 24  1  0
  2 25  1  0
  3 26  1  0
  7 27  1  0
  8 28  1  0
 11 29  1  0
 12 30  1  1
 13 31  1  0
 13 32  1  0
 14 33  1  0
 14 34  1  0
 15 35  1  1
 17 36  1  0
 17 37  1  0
 18 38  1  0
 18 39  1  0
 19 40  1  6
 20 41  1  0
 20 42  1  0
 22 43  1  0
 23 44  1  0
M  END
>  <meeko>  (1) 
{"is_sidechain": [false], "free_energy": -9.142, "intermolecular_energy": -11.279, "internal_energy": -0.465}

$$$$
ligand_4_conformer_1_docked
     RDKit          3D

 44 47  0  0  0  0  0  0  0  0999 V2000
    9.6370   47.4040   53.4180 C   0  0  0  0  0  0  0  0  0  0  0  0
   10.3150   46.4390   52.6690 C   0  0  0  0  0  0  0  0  0  0  0  0
    9.6960   45.8480   51.5630 C   0  0  0  0  0  0  0  0  0  0  0  0
    8.3810   46.2080   51.2100 C   0  0  0  0  0  0  0  0  0  0  0  0
    7.7230   45.6390   50.1090 O   0  0  0  0  0  0  0  0  0  0  0  0
    6.9460   44.4740   50.1570 C   0  0  0  0  0  0  0  0  0  0  0  0
    7.3020   43.3790   49.3710 C   0  0  0  0  0  0  0  0  0  0  0  0
    6.5050   42.2350   49.4200 C   0  0  0  0  0  0  0  0  0  0  0  0
    5.4060   42.2080   50.2170 N   0  0  0  0  0  0  0  0  0  0  0  0
    5.0620   43.2860   50.9720 C   0  0  0  0  0  0  0  0  0  0  0  0
    3.8950   43.2310   51.8030 N   0  0  0  0  0  0  0  0  0  0  0  0
    2.8240   44.2330   51.7190 C   0  0  1  0  0  0  0  0  0  0  0  0
    1.8730   44.1070   52.9450 C   0  0  0  0  0  0  0  0  0  0  0  0
    2.5010   44.5880   54.2830 C   0  0  0  0  0  0  0  0  0  0  0  0
    3.6370   45.5960   54.0540 C   0  0  2  0  0  0  0  0  0  0  0  0
    3.8520   46.4510   55.1470 O   0  0  0  0  0  0  0  0  0  0  0  0
    4.4160   47.6310   54.6000 C   0  0  0  0  0  0  0  0  0  0  0  0
    4.2910   47.5980   53.0730 C   0  0  0  0  0  0  0  0  0  0  0  0
    3.3190   46.4740   52.8720 C   0  0  1  0  0  0  0  0  0  0  0  0
    3.4250   45.6680   51.5660 C   0  0  0  0  0  0  0  0  0  0  0  0
    5.8290   44.4080   50.9310 N   0  0  0  0  0  0  0  0  0  0  0  0
    7.7190   47.1940   51.9530 C   0  0  0  0  0  0  0  0  0  0  0  0
    8.3410   47.7850   53.0580 C   0  0  0  0  0  0  0  0  0  0  0  0
   10.1230   47.8640   54.2910 H   0  0  0  0  0  0  0  0  0  0  0  0
   11.3368   46.1438   52.9495 H   0  0  0  0  0  0  0  0  0  0  0  0
   10.2381   45.0993   50.9667 H   0  0  0  0  0  0  0  0  0  0  0  0
    8.1923   43.4162   48.7260 H   0  0  0  0  0  0  0  0  0  0  0  0
    6.7667   41.3555   48.8134 H   0  0  0  0  0  0  0  0  0  0  0  0
    3.7910   42.4120   52.4440 H   0  0  0  0  0  0  0  0  0  0  0  0
    2.2188   44.0464   50.8196 H   0  0  0  0  0  0  0  0  0  0  0  0
    0.9736   44.7091   52.7487 H   0  0  0  0  0  0  0  0  0  0  0  0
    1.6479   43.0370   53.0651 H   0  0  0  0  0  0  0  0  0  0  0  0
    1.7189   45.0660   54.8911 H   0  0  0  0  0  0  0  0  0  0  0  0
    2.9224   43.7109   54.7960 H   0  0  0  0  0  0  0  0  0  0  0  0
    4.5404   44.9896   53.8923 H   0  0  0  0  0  0  0  0  0  0  0  0
    3.8816   48.5087   54.9925 H   0  0  0  0  0  0  0  0  0  0  0  0
    5.4782   47.6927   54.8792 H   0  0  0  0  0  0  0  0  0  0  0  0
    3.8936   48.5465   52.6826 H   0  0  0  0  0  0  0  0  0  0  0  0
    5.2484   47.4595   52.5494 H   0  0  0  0  0  0  0  0  0  0  0  0
    2.2949   46.8681   52.7950 H   0  0  0  0  0  0  0  0  0  0  0  0
    2.8783   46.2004   50.7737 H   0  0  0  0  0  0  0  0  0  0  0  0
    4.4905   45.5671   51.3120 H   0  0  0  0  0  0  0  0  0  0  0  0
    6.7039   47.5055   51.6658 H   0  0  0  0  0  0  0  0  0  0  0  0
    7.8101   48.5498   53.6438 H   0  0  0  0  0  0  0  0  0  0  0  0
  1  2  2  0
  2  3  1  0
  3  4  2  0
  4  5  1  0
  5  6  1  0
  6  7  2  0
  7  8  1  0
  8  9  2  0
  9 10  1  0
 10 11  1  0
 11 12  1  0
 12 13  1  0
 13 14  1  0
 14 15  1  0
 15 16  1  0
 16 17  1  0
 17 18  1  0
 18 19  1  0
 19 20  1  0
 10 21  2  0
  4 22  1  0
 22 23  2  0
 23  1  1  0
 21  6  1  0
 20 12  1  0
 19 15  1  0
  1 24  1  0
  2 25  1  0
  3 26  1  0
  7 27  1  0
  8 28  1  0
 11 29  1  0
 12 30  1  6
 13 31  1  0
 13 32  1  0
 14 33  1  0
 14 34  1  0
 15 35  1  6
 17 36  1  0
 17 37  1  0
 18 38  1  0
 18 39  1  0
 19 40  1  1
 20 41  1  0
 20 42  1  0
 22 43  1  0
 23 44  1  0
M  END
>  <meeko>  (2) 
{"is_sidechain": [false], "free_energy": -8.97, "intermolecular_energy": -11.197, "internal_energy": -0.335}

$$$$
ligand_4_conformer_1_docked
     RDKit          3D

 44 47  0  0  0  0  0  0  0  0999 V2000
   10.0320   47.1760   53.4970 C   0  0  0  0  0  0  0  0  0  0  0  0
    8.7410   47.5500   53.8770 C   0  0  0  0  0  0  0  0  0  0  0  0
    7.6440   47.1820   53.0930 C   0  0  0  0  0  0  0  0  0  0  0  0
    7.8350   46.4470   51.9060 C   0  0  0  0  0  0  0  0  0  0  0  0
    6.7630   46.0590   51.0900 O   0  0  0  0  0  0  0  0  0  0  0  0
    5.8730   45.0170   51.3810 C   0  0  0  0  0  0  0  0  0  0  0  0
    5.8350   43.8950   50.5540 C   0  0  0  0  0  0  0  0  0  0  0  0
    4.9290   42.8770   50.8520 C   0  0  0  0  0  0  0  0  0  0  0  0
    4.1050   42.9940   51.9250 N   0  0  0  0  0  0  0  0  0  0  0  0
    4.1430   44.0980   52.7190 C   0  0  0  0  0  0  0  0  0  0  0  0
    3.2600   44.1960   53.8450 N   0  0  0  0  0  0  0  0  0  0  0  0
    2.6480   45.4680   54.2530 C   0  0  1  0  0  0  0  0  0  0  0  0
    1.7850   46.0450   53.0940 C   0  0  0  0  0  0  0  0  0  0  0  0
    0.4700   45.2590   52.8350 C   0  0  0  0  0  0  0  0  0  0  0  0
    0.0060   44.4880   54.0800 C   0  0  2  0  0  0  0  0  0  0  0  0
   -1.3750   44.2380   54.0980 O   0  0  0  0  0  0  0  0  0  0  0  0
   -1.7220   44.1230   55.4680 C   0  0  0  0  0  0  0  0  0  0  0  0
   -0.5470   44.5900   56.3340 C   0  0  0  0  0  0  0  0  0  0  0  0
    0.3210   45.2780   55.3230 C   0  0  1  0  0  0  0  0  0  0  0  0
    1.8380   45.2870   55.5780 C   0  0  0  0  0  0  0  0  0  0  0  0
    5.0200   45.0990   52.4380 N   0  0  0  0  0  0  0  0  0  0  0  0
    9.1310   46.0560   51.5460 C   0  0  0  0  0  0  0  0  0  0  0  0
   10.2270   46.4240   52.3340 C   0  0  0  0  0  0  0  0  0  0  0  0
   10.8945   47.4726   54.1119 H   0  0  0  0  0  0  0  0  0  0  0  0
    8.5873   48.1355   54.7954 H   0  0  0  0  0  0  0  0  0  0  0  0
    6.6280   47.4671   53.4036 H   0  0  0  0  0  0  0  0  0  0  0  0
    6.5050   43.8143   49.6853 H   0  0  0  0  0  0  0  0  0  0  0  0
    4.8821   41.9795   50.2178 H   0  0  0  0  0  0  0  0  0  0  0  0
    3.0080   43.3140   54.3460 H   0  0  0  0  0  0  0  0  0  0  0  0
    3.4384   46.2034   54.4639 H   0  0  0  0  0  0  0  0  0  0  0  0
    1.5239   47.0845   53.3413 H   0  0  0  0  0  0  0  0  0  0  0  0
    2.3887   45.9670   52.1778 H   0  0  0  0  0  0  0  0  0  0  0  0
   -0.3172   45.9699   52.5436 H   0  0  0  0  0  0  0  0  0  0  0  0
    0.6624   44.5288   52.0351 H   0  0  0  0  0  0  0  0  0  0  0  0
    0.5412   43.5275   54.0487 H   0  0  0  0  0  0  0  0  0  0  0  0
   -2.6026   44.7483   55.6769 H   0  0  0  0  0  0  0  0  0  0  0  0
   -1.9540   43.0732   55.7004 H   0  0  0  0  0  0  0  0  0  0  0  0
   -0.8787   45.2866   57.1181 H   0  0  0  0  0  0  0  0  0  0  0  0
   -0.0420   43.7777   56.8772 H   0  0  0  0  0  0  0  0  0  0  0  0
    0.1024   46.3559   55.3069 H   0  0  0  0  0  0  0  0  0  0  0  0
    2.0797   46.1161   56.2593 H   0  0  0  0  0  0  0  0  0  0  0  0
    2.1164   44.3188   56.0196 H   0  0  0  0  0  0  0  0  0  0  0  0
    9.2881   45.4557   50.6378 H   0  0  0  0  0  0  0  0  0  0  0  0
   11.2426   46.1217   52.0387 H   0  0  0  0  0  0  0  0  0  0  0  0
  1  2  2  0
  2  3  1  0
  3  4  2  0
  4  5  1  0
  5  6  1  0
  6  7  2  0
  7  8  1  0
  8  9  2  0
  9 10  1  0
 10 11  1  0
 11 12  1  0
 12 13  1  0
 13 14  1  0
 14 15  1  0
 15 16  1  0
 16 17  1  0
 17 18  1  0
 18 19  1  0
 19 20  1  0
 10 21  2  0
  4 22  1  0
 22 23  2  0
 23  1  1  0
 21  6  1  0
 20 12  1  0
 19 15  1  0
  1 24  1  0
  2 25  1  0
  3 26  1  0
  7 27  1  0
  8 28  1  0
 11 29  1  0
 12 30  1  1
 13 31  1  0
 13 32  1  0
 14 33  1  0
 14 34  1  0
 15 35  1  1
 17 36  1  0
 17 37  1  0
 18 38  1  0
 18 39  1  0
 19 40  1  6
 20 41  1  0
 20 42  1  0
 22 43  1  0
 23 44  1  0
M  END
>  <meeko>  (3) 
{"is_sidechain": [false], "free_energy": -8.919, "intermolecular_energy": -10.963, "internal_energy": -0.507}

$$$$
ligand_4_conformer_1_docked
     RDKit          3D

 44 47  0  0  0  0  0  0  0  0999 V2000
    4.1520   41.2150   45.0150 C   0  0  0  0  0  0  0  0  0  0  0  0
    3.4220   40.4370   45.9160 C   0  0  0  0  0  0  0  0  0  0  0  0
    3.8060   40.3730   47.2590 C   0  0  0  0  0  0  0  0  0  0  0  0
    4.9410   41.0780   47.7060 C   0  0  0  0  0  0  0  0  0  0  0  0
    5.3610   41.0390   49.0440 O   0  0  0  0  0  0  0  0  0  0  0  0
    4.8100   41.8090   50.0770 C   0  0  0  0  0  0  0  0  0  0  0  0
    3.4840   41.6030   50.4550 C   0  0  0  0  0  0  0  0  0  0  0  0
    2.9510   42.3910   51.4750 C   0  0  0  0  0  0  0  0  0  0  0  0
    3.7180   43.3380   52.0720 N   0  0  0  0  0  0  0  0  0  0  0  0
    5.0080   43.5380   51.6880 C   0  0  0  0  0  0  0  0  0  0  0  0
    5.7960   44.5470   52.3350 N   0  0  0  0  0  0  0  0  0  0  0  0
    5.9800   45.8860   51.7600 C   0  0  1  0  0  0  0  0  0  0  0  0
    5.2750   46.9540   52.6450 C   0  0  0  0  0  0  0  0  0  0  0  0
    5.9820   47.2140   54.0040 C   0  0  0  0  0  0  0  0  0  0  0  0
    7.4730   46.8470   53.9560 C   0  0  2  0  0  0  0  0  0  0  0  0
    8.2490   47.5430   54.8960 O   0  0  0  0  0  0  0  0  0  0  0  0
    9.5550   47.5930   54.3470 C   0  0  0  0  0  0  0  0  0  0  0  0
    9.5130   47.1410   52.8840 C   0  0  0  0  0  0  0  0  0  0  0  0
    8.0400   47.1710   52.5990 C   0  0  1  0  0  0  0  0  0  0  0  0
    7.5000   46.1870   51.5470 C   0  0  0  0  0  0  0  0  0  0  0  0
    5.5390   42.7780   50.6930 N   0  0  0  0  0  0  0  0  0  0  0  0
    5.6520   41.8740   46.8000 C   0  0  0  0  0  0  0  0  0  0  0  0
    5.2650   41.9380   45.4570 C   0  0  0  0  0  0  0  0  0  0  0  0
    3.8518   41.2593   43.9577 H   0  0  0  0  0  0  0  0  0  0  0  0
    2.5434   39.8736   45.5687 H   0  0  0  0  0  0  0  0  0  0  0  0
    3.2202   39.7704   47.9687 H   0  0  0  0  0  0  0  0  0  0  0  0
    2.8713   40.8355   49.9595 H   0  0  0  0  0  0  0  0  0  0  0  0
    1.9089   42.2448   51.7955 H   0  0  0  0  0  0  0  0  0  0  0  0
    6.1970   44.3250   53.2740 H   0  0  0  0  0  0  0  0  0  0  0  0
    5.5064   45.9254   50.7680 H   0  0  0  0  0  0  0  0  0  0  0  0
    5.2423   47.9004   52.0853 H   0  0  0  0  0  0  0  0  0  0  0  0
    4.2727   46.5646   52.8767 H   0  0  0  0  0  0  0  0  0  0  0  0
    5.8866   48.2806   54.2557 H   0  0  0  0  0  0  0  0  0  0  0  0
    5.5005   46.5814   54.7642 H   0  0  0  0  0  0  0  0  0  0  0  0
    7.5196   45.7716   54.1826 H   0  0  0  0  0  0  0  0  0  0  0  0
    9.9361   48.6234   54.4014 H   0  0  0  0  0  0  0  0  0  0  0  0
   10.2177   46.9257   54.9175 H   0  0  0  0  0  0  0  0  0  0  0  0
   10.0617   47.8376   52.2331 H   0  0  0  0  0  0  0  0  0  0  0  0
    9.9828   46.1626   52.7051 H   0  0  0  0  0  0  0  0  0  0  0  0
    7.7599   48.1354   52.1501 H   0  0  0  0  0  0  0  0  0  0  0  0
    7.6400   46.6228   50.5468 H   0  0  0  0  0  0  0  0  0  0  0  0
    8.0533   45.2415   51.6471 H   0  0  0  0  0  0  0  0  0  0  0  0
    6.5208   42.4530   47.1464 H   0  0  0  0  0  0  0  0  0  0  0  0
    5.8358   42.5567   44.7489 H   0  0  0  0  0  0  0  0  0  0  0  0
  1  2  2  0
  2  3  1  0
  3  4  2  0
  4  5  1  0
  5  6  1  0
  6  7  2  0
  7  8  1  0
  8  9  2  0
  9 10  1  0
 10 11  1  0
 11 12  1  0
 12 13  1  0
 13 14  1  0
 14 15  1  0
 15 16  1  0
 16 17  1  0
 17 18  1  0
 18 19  1  0
 19 20  1  0
 10 21  2  0
  4 22  1  0
 22 23  2  0
 23  1  1  0
 21  6  1  0
 20 12  1  0
 19 15  1  0
  1 24  1  0
  2 25  1  0
  3 26  1  0
  7 27  1  0
  8 28  1  0
 11 29  1  0
 12 30  1  6
 13 31  1  0
 13 32  1  0
 14 33  1  0
 14 34  1  0
 15 35  1  1
 17 36  1  0
 17 37  1  0
 18 38  1  0
 18 39  1  0
 19 40  1  6
 20 41  1  0
 20 42  1  0
 22 43  1  0
 23 44  1  0
M  END
>  <meeko>  (4) 
{"is_sidechain": [false], "free_energy": -8.768, "intermolecular_energy": -10.816, "internal_energy": -0.466}

$$$$
ligand_4_conformer_1_docked
     RDKit          3D

 44 47  0  0  0  0  0  0  0  0999 V2000
    9.1390   46.8760   53.3530 C   0  0  0  0  0  0  0  0  0  0  0  0
    7.8530   46.6610   53.8530 C   0  0  0  0  0  0  0  0  0  0  0  0
    6.8440   46.1860   53.0100 C   0  0  0  0  0  0  0  0  0  0  0  0
    7.1140   45.9400   51.6490 C   0  0  0  0  0  0  0  0  0  0  0  0
    6.1300   45.4650   50.7700 O   0  0  0  0  0  0  0  0  0  0  0  0
    5.7200   44.1290   50.6750 C   0  0  0  0  0  0  0  0  0  0  0  0
    6.5930   43.1790   50.1450 C   0  0  0  0  0  0  0  0  0  0  0  0
    6.1580   41.8570   50.0440 C   0  0  0  0  0  0  0  0  0  0  0  0
    4.9080   41.5210   50.4500 N   0  0  0  0  0  0  0  0  0  0  0  0
    4.0600   42.4580   50.9560 C   0  0  0  0  0  0  0  0  0  0  0  0
    2.7440   42.0750   51.3760 N   0  0  0  0  0  0  0  0  0  0  0  0
    1.5810   42.9570   51.2140 C   0  0  1  0  0  0  0  0  0  0  0  0
    0.4030   42.4640   52.1040 C   0  0  0  0  0  0  0  0  0  0  0  0
    0.6230   42.6900   53.6250 C   0  0  0  0  0  0  0  0  0  0  0  0
    1.6140   43.8320   53.8990 C   0  0  2  0  0  0  0  0  0  0  0  0
    1.4370   44.4350   55.1540 O   0  0  0  0  0  0  0  0  0  0  0  0
    1.9240   45.7590   55.0110 C   0  0  0  0  0  0  0  0  0  0  0  0
    2.1620   46.0590   53.5280 C   0  0  0  0  0  0  0  0  0  0  0  0
    1.4470   44.9180   52.8680 C   0  0  1  0  0  0  0  0  0  0  0  0
    1.9750   44.4430   51.5030 C   0  0  0  0  0  0  0  0  0  0  0  0
    4.4710   43.7500   51.0580 N   0  0  0  0  0  0  0  0  0  0  0  0
    8.4130   46.1370   51.1640 C   0  0  0  0  0  0  0  0  0  0  0  0
    9.4210   46.6090   52.0100 C   0  0  0  0  0  0  0  0  0  0  0  0
    9.9304   47.2556   54.0161 H   0  0  0  0  0  0  0  0  0  0  0  0
    7.6337   46.8656   54.9113 H   0  0  0  0  0  0  0  0  0  0  0  0
    5.8358   46.0037   53.4105 H   0  0  0  0  0  0  0  0  0  0  0  0
    7.6021   43.4656   49.8140 H   0  0  0  0  0  0  0  0  0  0  0  0
    6.8289   41.0871   49.6351 H   0  0  0  0  0  0  0  0  0  0  0  0
    2.6140   41.1090   51.7560 H   0  0  0  0  0  0  0  0  0  0  0  0
    1.2355   42.9177   50.1704 H   0  0  0  0  0  0  0  0  0  0  0  0
   -0.5074   43.0027   51.8024 H   0  0  0  0  0  0  0  0  0  0  0  0
    0.3222   41.3776   51.9520 H   0  0  0  0  0  0  0  0  0  0  0  0
   -0.3423   42.9378   54.0906 H   0  0  0  0  0  0  0  0  0  0  0  0
    1.0432   41.7660   54.0489 H   0  0  0  0  0  0  0  0  0  0  0  0
    2.6121   43.3711   53.8632 H   0  0  0  0  0  0  0  0  0  0  0  0
    1.1849   46.4669   55.4141 H   0  0  0  0  0  0  0  0  0  0  0  0
    2.8703   45.8628   55.5622 H   0  0  0  0  0  0  0  0  0  0  0  0
    1.7252   47.0265   53.2396 H   0  0  0  0  0  0  0  0  0  0  0  0
    3.2242   46.1387   53.2536 H   0  0  0  0  0  0  0  0  0  0  0  0
    0.4205   45.2142   52.6063 H   0  0  0  0  0  0  0  0  0  0  0  0
    1.5520   45.0834   50.7150 H   0  0  0  0  0  0  0  0  0  0  0  0
    3.0729   44.5092   51.5187 H   0  0  0  0  0  0  0  0  0  0  0  0
    8.6417   45.9189   50.1104 H   0  0  0  0  0  0  0  0  0  0  0  0
   10.4363   46.7704   51.6188 H   0  0  0  0  0  0  0  0  0  0  0  0
  1  2  2  0
  2  3  1  0
  3  4  2  0
  4  5  1  0
  5  6  1  0
  6  7  2  0
  7  8  1  0
  8  9  2  0
  9 10  1  0
 10 11  1  0
 11 12  1  0
 12 13  1  0
 13 14  1  0
 14 15  1  0
 15 16  1  0
 16 17  1  0
 17 18  1  0
 18 19  1  0
 19 20  1  0
 10 21  2  0
  4 22  1  0
 22 23  2  0
 23  1  1  0
 21  6  1  0
 20 12  1  0
 19 15  1  0
  1 24  1  0
  2 25  1  0
  3 26  1  0
  7 27  1  0
  8 28  1  0
 11 29  1  0
 12 30  1  6
 13 31  1  0
 13 32  1  0
 14 33  1  0
 14 34  1  0
 15 35  1  1
 17 36  1  0
 17 37  1  0
 18 38  1  0
 18 39  1  0
 19 40  1  6
 20 41  1  0
 20 42  1  0
 22 43  1  0
 23 44  1  0
M  END
>  <meeko>  (5) 
{"is_sidechain": [false], "free_energy": -8.12, "intermolecular_energy": -10.574, "internal_energy": 0.09}

$$$$
