ligand_49_conformer_5_docked
     RDKit          3D

 44 47  0  0  0  0  0  0  0  0999 V2000
    6.4090   47.5590   54.8970 O   0  0  0  0  0  0  0  0  0  0  0  0
    5.9530   46.6190   54.1910 C   0  0  0  0  0  0  0  0  0  0  0  0
    6.9420   45.8020   53.3990 C   0  0  0  0  0  0  0  0  0  0  0  0
    7.2120   46.5270   51.7430 S   0  0  0  0  0  0  0  0  0  0  0  0
    6.9150   45.0110   50.8280 C   0  0  0  0  0  0  0  0  0  0  0  0
    7.7830   44.6340   49.7950 C   0  0  0  0  0  0  0  0  0  0  0  0
    7.5470   43.4600   49.0740 C   0  0  0  0  0  0  0  0  0  0  0  0
    6.4430   42.6600   49.3810 C   0  0  0  0  0  0  0  0  0  0  0  0
    5.5830   43.0250   50.4230 C   0  0  0  0  0  0  0  0  0  0  0  0
    4.0710   41.9350   50.8390 Br  0  0  0  0  0  0  0  0  0  0  0  0
    5.8240   44.1940   51.1540 C   0  0  0  0  0  0  0  0  0  0  0  0
    4.5210   46.4020   54.1230 N   0  0  0  0  0  0  0  0  0  0  0  0
    3.7820   46.8860   52.9340 C   0  0  0  0  0  0  0  0  0  0  0  0
    2.7040   45.8800   52.4960 C   0  0  0  0  0  0  0  0  0  0  0  0
    1.9380   45.4030   53.6890 C   0  0  0  0  0  0  0  0  0  0  0  0
    2.4130   45.4770   54.9670 C   0  0  0  0  0  0  0  0  0  0  0  0
    1.5070   44.9810   55.8310 N   0  0  0  0  0  0  0  0  0  0  0  0
    0.4810   44.6020   55.0340 C   0  0  0  0  0  0  0  0  0  0  0  0
    0.7180   44.8340   53.7210 N   0  0  0  0  0  0  0  0  0  0  0  0
   -0.1680   44.5400   52.6280 C   0  0  0  0  0  0  0  0  0  0  0  0
    0.0680   43.4200   51.8120 C   0  0  0  0  0  0  0  0  0  0  0  0
   -0.7840   43.1330   50.7420 C   0  0  0  0  0  0  0  0  0  0  0  0
   -1.8740   43.9640   50.4720 C   0  0  0  0  0  0  0  0  0  0  0  0
   -2.6990   43.6850   49.4320 F   0  0  0  0  0  0  0  0  0  0  0  0
   -2.1100   45.0880   51.2690 C   0  0  0  0  0  0  0  0  0  0  0  0
   -1.2590   45.3780   52.3410 C   0  0  0  0  0  0  0  0  0  0  0  0
    3.7520   46.0320   55.3320 C   0  0  0  0  0  0  0  0  0  0  0  0
    7.8995   45.7730   53.9396 H   0  0  0  0  0  0  0  0  0  0  0  0
    6.5386   44.7861   53.2756 H   0  0  0  0  0  0  0  0  0  0  0  0
    8.6518   45.2630   49.5509 H   0  0  0  0  0  0  0  0  0  0  0  0
    8.2308   43.1655   48.2643 H   0  0  0  0  0  0  0  0  0  0  0  0
    6.2500   41.7437   48.8038 H   0  0  0  0  0  0  0  0  0  0  0  0
    5.1574   44.4713   51.9839 H   0  0  0  0  0  0  0  0  0  0  0  0
    3.2997   47.8441   53.1778 H   0  0  0  0  0  0  0  0  0  0  0  0
    4.4976   47.0087   52.1076 H   0  0  0  0  0  0  0  0  0  0  0  0
    2.0147   46.3679   51.7911 H   0  0  0  0  0  0  0  0  0  0  0  0
    3.1874   45.0205   52.0086 H   0  0  0  0  0  0  0  0  0  0  0  0
   -0.4485   44.1524   55.4132 H   0  0  0  0  0  0  0  0  0  0  0  0
    0.9282   42.7657   52.0168 H   0  0  0  0  0  0  0  0  0  0  0  0
   -0.5960   42.2515   50.1115 H   0  0  0  0  0  0  0  0  0  0  0  0
   -2.9655   45.7450   51.0531 H   0  0  0  0  0  0  0  0  0  0  0  0
   -1.4449   46.2665   52.9623 H   0  0  0  0  0  0  0  0  0  0  0  0
    3.6123   46.9264   55.9570 H   0  0  0  0  0  0  0  0  0  0  0  0
    4.3126   45.2613   55.8813 H   0  0  0  0  0  0  0  0  0  0  0  0
  1  2  2  0
  2  3  1  0
  3  4  1  0
  4  5  1  0
  5  6  2  0
  6  7  1  0
  7  8  2  0
  8  9  1  0
  9 10  1  0
  9 11  2  0
  2 12  1  0
 12 13  1  0
 13 14  1  0
 14 15  1  0
 15 16  2  0
 16 17  1  0
 17 18  2  0
 18 19  1  0
 19 20  1  0
 20 21  2  0
 21 22  1  0
 22 23  2  0
 23 24  1  0
 23 25  1  0
 25 26  2  0
 16 27  1  0
 11  5  1  0
 27 12  1  0
 19 15  1  0
 26 20  1  0
  3 28  1  0
  3 29  1  0
  6 30  1  0
  7 31  1  0
  8 32  1  0
 11 33  1  0
 13 34  1  0
 13 35  1  0
 14 36  1  0
 14 37  1  0
 18 38  1  0
 21 39  1  0
 22 40  1  0
 25 41  1  0
 26 42  1  0
 27 43  1  0
 27 44  1  0
M  END
>  <meeko>  (1) 
{"is_sidechain": [false], "free_energy": -8.179, "intermolecular_energy": -10.57, "internal_energy": -1.091}

$$$$
ligand_49_conformer_5_docked
     RDKit          3D

 44 47  0  0  0  0  0  0  0  0999 V2000
    0.9050   44.5390   55.8250 O   0  0  0  0  0  0  0  0  0  0  0  0
    1.6540   44.3870   54.8220 C   0  0  0  0  0  0  0  0  0  0  0  0
    1.2640   43.3360   53.8150 C   0  0  0  0  0  0  0  0  0  0  0  0
    0.7300   44.1010   52.2430 S   0  0  0  0  0  0  0  0  0  0  0  0
    2.3790   44.2700   51.5520 C   0  0  0  0  0  0  0  0  0  0  0  0
    2.8660   45.5360   51.2030 C   0  0  0  0  0  0  0  0  0  0  0  0
    4.1450   45.6680   50.6540 C   0  0  0  0  0  0  0  0  0  0  0  0
    4.9400   44.5360   50.4500 C   0  0  0  0  0  0  0  0  0  0  0  0
    4.4620   43.2710   50.8130 C   0  0  0  0  0  0  0  0  0  0  0  0
    5.5460   41.7250   50.5300 Br  0  0  0  0  0  0  0  0  0  0  0  0
    3.1870   43.1390   51.3740 C   0  0  0  0  0  0  0  0  0  0  0  0
    2.8690   45.1710   54.7090 N   0  0  0  0  0  0  0  0  0  0  0  0
    4.1650   44.5300   55.0320 C   0  0  0  0  0  0  0  0  0  0  0  0
    5.2660   44.9680   54.0520 C   0  0  0  0  0  0  0  0  0  0  0  0
    5.2120   46.4490   53.8540 C   0  0  0  0  0  0  0  0  0  0  0  0
    4.1050   47.2040   54.1150 C   0  0  0  0  0  0  0  0  0  0  0  0
    4.3510   48.5010   53.8510 N   0  0  0  0  0  0  0  0  0  0  0  0
    5.6340   48.5000   53.4180 C   0  0  0  0  0  0  0  0  0  0  0  0
    6.1830   47.2630   53.3970 N   0  0  0  0  0  0  0  0  0  0  0  0
    7.5200   46.9290   52.9840 C   0  0  0  0  0  0  0  0  0  0  0  0
    8.6080   47.2100   53.8270 C   0  0  0  0  0  0  0  0  0  0  0  0
    9.9100   46.8970   53.4280 C   0  0  0  0  0  0  0  0  0  0  0  0
   10.1390   46.3080   52.1820 C   0  0  0  0  0  0  0  0  0  0  0  0
   11.4030   46.0070   51.7960 F   0  0  0  0  0  0  0  0  0  0  0  0
    9.0640   46.0380   51.3300 C   0  0  0  0  0  0  0  0  0  0  0  0
    7.7600   46.3490   51.7270 C   0  0  0  0  0  0  0  0  0  0  0  0
    2.8120   46.6470   54.6190 C   0  0  0  0  0  0  0  0  0  0  0  0
    2.1288   42.6840   53.6223 H   0  0  0  0  0  0  0  0  0  0  0  0
    0.4254   42.7531   54.2237 H   0  0  0  0  0  0  0  0  0  0  0  0
    2.2414   46.4276   51.3611 H   0  0  0  0  0  0  0  0  0  0  0  0
    4.5262   46.6634   50.3823 H   0  0  0  0  0  0  0  0  0  0  0  0
    5.9405   44.6392   50.0046 H   0  0  0  0  0  0  0  0  0  0  0  0
    2.8188   42.1472   51.6754 H   0  0  0  0  0  0  0  0  0  0  0  0
    4.4605   44.8141   56.0528 H   0  0  0  0  0  0  0  0  0  0  0  0
    4.0423   43.4399   54.9509 H   0  0  0  0  0  0  0  0  0  0  0  0
    6.2490   44.6903   54.4601 H   0  0  0  0  0  0  0  0  0  0  0  0
    5.1098   44.4676   53.0849 H   0  0  0  0  0  0  0  0  0  0  0  0
    6.1736   49.4094   53.1150 H   0  0  0  0  0  0  0  0  0  0  0  0
    8.4340   47.6790   54.8067 H   0  0  0  0  0  0  0  0  0  0  0  0
   10.7563   47.1147   54.0962 H   0  0  0  0  0  0  0  0  0  0  0  0
    9.2443   45.5803   50.3461 H   0  0  0  0  0  0  0  0  0  0  0  0
    6.9176   46.1385   51.0517 H   0  0  0  0  0  0  0  0  0  0  0  0
    2.6072   47.0605   55.6175 H   0  0  0  0  0  0  0  0  0  0  0  0
    2.0132   46.9244   53.9154 H   0  0  0  0  0  0  0  0  0  0  0  0
  1  2  2  0
  2  3  1  0
  3  4  1  0
  4  5  1  0
  5  6  2  0
  6  7  1  0
  7  8  2  0
  8  9  1  0
  9 10  1  0
  9 11  2  0
  2 12  1  0
 12 13  1  0
 13 14  1  0
 14 15  1  0
 15 16  2  0
 16 17  1  0
 17 18  2  0
 18 19  1  0
 19 20  1  0
 20 21  2  0
 21 22  1  0
 22 23  2  0
 23 24  1  0
 23 25  1  0
 25 26  2  0
 16 27  1  0
 11  5  1  0
 27 12  1  0
 19 15  1  0
 26 20  1  0
  3 28  1  0
  3 29  1  0
  6 30  1  0
  7 31  1  0
  8 32  1  0
 11 33  1  0
 13 34  1  0
 13 35  1  0
 14 36  1  0
 14 37  1  0
 18 38  1  0
 21 39  1  0
 22 40  1  0
 25 41  1  0
 26 42  1  0
 27 43  1  0
 27 44  1  0
M  END
>  <meeko>  (2) 
{"is_sidechain": [false], "free_energy": -7.945, "intermolecular_energy": -9.75, "internal_energy": -1.608}

$$$$
ligand_49_conformer_5_docked
     RDKit          3D

 44 47  0  0  0  0  0  0  0  0999 V2000
    2.0180   42.2890   50.4330 O   0  0  0  0  0  0  0  0  0  0  0  0
    1.5590   43.2180   51.1510 C   0  0  0  0  0  0  0  0  0  0  0  0
    0.0630   43.4040   51.1730 C   0  0  0  0  0  0  0  0  0  0  0  0
   -0.7270   42.2170   52.3170 S   0  0  0  0  0  0  0  0  0  0  0  0
   -1.2350   43.4400   53.5290 C   0  0  0  0  0  0  0  0  0  0  0  0
   -2.5150   44.0040   53.4620 C   0  0  0  0  0  0  0  0  0  0  0  0
   -2.9080   44.9660   54.3980 C   0  0  0  0  0  0  0  0  0  0  0  0
   -2.0230   45.3680   55.4020 C   0  0  0  0  0  0  0  0  0  0  0  0
   -0.7490   44.7950   55.4820 C   0  0  0  0  0  0  0  0  0  0  0  0
    0.4620   45.3490   56.8500 Br  0  0  0  0  0  0  0  0  0  0  0  0
   -0.3580   43.8230   54.5530 C   0  0  0  0  0  0  0  0  0  0  0  0
    2.4700   44.0920   51.8640 N   0  0  0  0  0  0  0  0  0  0  0  0
    3.7240   43.5240   52.4110 C   0  0  0  0  0  0  0  0  0  0  0  0
    4.9050   44.4910   52.2280 C   0  0  0  0  0  0  0  0  0  0  0  0
    4.4960   45.8740   52.6240 C   0  0  0  0  0  0  0  0  0  0  0  0
    3.1960   46.2870   52.6800 C   0  0  0  0  0  0  0  0  0  0  0  0
    3.1320   47.5740   53.0730 N   0  0  0  0  0  0  0  0  0  0  0  0
    4.4290   47.9200   53.2430 C   0  0  0  0  0  0  0  0  0  0  0  0
    5.2860   46.9090   52.9660 N   0  0  0  0  0  0  0  0  0  0  0  0
    6.7210   46.9610   53.0430 C   0  0  0  0  0  0  0  0  0  0  0  0
    7.3600   46.9330   54.2950 C   0  0  0  0  0  0  0  0  0  0  0  0
    8.7540   46.9920   54.3780 C   0  0  0  0  0  0  0  0  0  0  0  0
    9.5220   47.0880   53.2150 C   0  0  0  0  0  0  0  0  0  0  0  0
   10.8740   47.1470   53.2980 F   0  0  0  0  0  0  0  0  0  0  0  0
    8.8950   47.1310   51.9660 C   0  0  0  0  0  0  0  0  0  0  0  0
    7.5000   47.0710   51.8800 C   0  0  0  0  0  0  0  0  0  0  0  0
    2.0260   45.4190   52.3460 C   0  0  0  0  0  0  0  0  0  0  0  0
   -0.1675   44.4282   51.5015 H   0  0  0  0  0  0  0  0  0  0  0  0
   -0.3274   43.2276   50.1598 H   0  0  0  0  0  0  0  0  0  0  0  0
   -3.2127   43.6898   52.6717 H   0  0  0  0  0  0  0  0  0  0  0  0
   -3.9145   45.4065   54.3438 H   0  0  0  0  0  0  0  0  0  0  0  0
   -2.3279   46.1348   56.1293 H   0  0  0  0  0  0  0  0  0  0  0  0
    0.6372   43.3602   54.6269 H   0  0  0  0  0  0  0  0  0  0  0  0
    3.5881   43.3243   53.4841 H   0  0  0  0  0  0  0  0  0  0  0  0
    3.9496   42.5953   51.8664 H   0  0  0  0  0  0  0  0  0  0  0  0
    5.7450   44.1644   52.8586 H   0  0  0  0  0  0  0  0  0  0  0  0
    5.2119   44.4924   51.1717 H   0  0  0  0  0  0  0  0  0  0  0  0
    4.7533   48.9183   53.5719 H   0  0  0  0  0  0  0  0  0  0  0  0
    6.7597   46.8643   55.2142 H   0  0  0  0  0  0  0  0  0  0  0  0
    9.2472   46.9628   55.3608 H   0  0  0  0  0  0  0  0  0  0  0  0
    9.4991   47.2121   51.0503 H   0  0  0  0  0  0  0  0  0  0  0  0
    7.0106   47.1102   50.8957 H   0  0  0  0  0  0  0  0  0  0  0  0
    1.4080   45.2863   53.2463 H   0  0  0  0  0  0  0  0  0  0  0  0
    1.4456   45.9053   51.5481 H   0  0  0  0  0  0  0  0  0  0  0  0
  1  2  2  0
  2  3  1  0
  3  4  1  0
  4  5  1  0
  5  6  2  0
  6  7  1  0
  7  8  2  0
  8  9  1  0
  9 10  1  0
  9 11  2  0
  2 12  1  0
 12 13  1  0
 13 14  1  0
 14 15  1  0
 15 16  2  0
 16 17  1  0
 17 18  2  0
 18 19  1  0
 19 20  1  0
 20 21  2  0
 21 22  1  0
 22 23  2  0
 23 24  1  0
 23 25  1  0
 25 26  2  0
 16 27  1  0
 11  5  1  0
 27 12  1  0
 19 15  1  0
 26 20  1  0
  3 28  1  0
  3 29  1  0
  6 30  1  0
  7 31  1  0
  8 32  1  0
 11 33  1  0
 13 34  1  0
 13 35  1  0
 14 36  1  0
 14 37  1  0
 18 38  1  0
 21 39  1  0
 22 40  1  0
 25 41  1  0
 26 42  1  0
 27 43  1  0
 27 44  1  0
M  END
>  <meeko>  (3) 
{"is_sidechain": [false], "free_energy": -7.942, "intermolecular_energy": -10.465, "internal_energy": -0.889}

$$$$
ligand_49_conformer_5_docked
     RDKit          3D

 44 47  0  0  0  0  0  0  0  0999 V2000
    3.1270   39.3610   48.4240 O   0  0  0  0  0  0  0  0  0  0  0  0
    3.7750   40.4260   48.2350 C   0  0  0  0  0  0  0  0  0  0  0  0
    4.1040   40.7960   46.8120 C   0  0  0  0  0  0  0  0  0  0  0  0
    2.9230   40.0290   45.6460 S   0  0  0  0  0  0  0  0  0  0  0  0
    4.1540   39.5330   44.4370 C   0  0  0  0  0  0  0  0  0  0  0  0
    5.1000   40.4590   43.9780 C   0  0  0  0  0  0  0  0  0  0  0  0
    6.0510   40.0780   43.0280 C   0  0  0  0  0  0  0  0  0  0  0  0
    6.0610   38.7710   42.5330 C   0  0  0  0  0  0  0  0  0  0  0  0
    5.1280   37.8380   43.0010 C   0  0  0  0  0  0  0  0  0  0  0  0
    5.1380   36.0540   42.3200 Br  0  0  0  0  0  0  0  0  0  0  0  0
    4.1820   38.2150   43.9610 C   0  0  0  0  0  0  0  0  0  0  0  0
    4.2200   41.2060   49.3730 N   0  0  0  0  0  0  0  0  0  0  0  0
    5.6730   41.4120   49.5730 C   0  0  0  0  0  0  0  0  0  0  0  0
    5.9770   42.8430   50.0480 C   0  0  0  0  0  0  0  0  0  0  0  0
    5.0270   43.2300   51.1360 C   0  0  0  0  0  0  0  0  0  0  0  0
    3.8240   42.6180   51.3380 C   0  0  0  0  0  0  0  0  0  0  0  0
    3.1900   43.1710   52.3910 N   0  0  0  0  0  0  0  0  0  0  0  0
    4.0450   44.1340   52.8060 C   0  0  0  0  0  0  0  0  0  0  0  0
    5.1680   44.2050   52.0550 N   0  0  0  0  0  0  0  0  0  0  0  0
    6.2610   45.1220   52.2360 C   0  0  0  0  0  0  0  0  0  0  0  0
    6.6610   45.4940   53.5310 C   0  0  0  0  0  0  0  0  0  0  0  0
    7.7160   46.3930   53.7140 C   0  0  0  0  0  0  0  0  0  0  0  0
    8.3750   46.9340   52.6070 C   0  0  0  0  0  0  0  0  0  0  0  0
    9.3960   47.8070   52.7870 F   0  0  0  0  0  0  0  0  0  0  0  0
    7.9750   46.5810   51.3150 C   0  0  0  0  0  0  0  0  0  0  0  0
    6.9200   45.6820   51.1290 C   0  0  0  0  0  0  0  0  0  0  0  0
    3.3030   41.4970   50.4980 C   0  0  0  0  0  0  0  0  0  0  0  0
    4.0567   41.8897   46.7045 H   0  0  0  0  0  0  0  0  0  0  0  0
    5.1146   40.4293   46.5792 H   0  0  0  0  0  0  0  0  0  0  0  0
    5.0940   41.4881   44.3664 H   0  0  0  0  0  0  0  0  0  0  0  0
    6.7924   40.8072   42.6694 H   0  0  0  0  0  0  0  0  0  0  0  0
    6.8020   38.4754   41.7757 H   0  0  0  0  0  0  0  0  0  0  0  0
    3.4606   37.4771   44.3419 H   0  0  0  0  0  0  0  0  0  0  0  0
    6.0347   40.6996   50.3290 H   0  0  0  0  0  0  0  0  0  0  0  0
    6.1810   41.2515   48.6106 H   0  0  0  0  0  0  0  0  0  0  0  0
    7.0075   42.8895   50.4299 H   0  0  0  0  0  0  0  0  0  0  0  0
    5.8623   43.5375   49.2027 H   0  0  0  0  0  0  0  0  0  0  0  0
    3.8474   44.7914   53.6655 H   0  0  0  0  0  0  0  0  0  0  0  0
    6.1411   45.0755   54.4054 H   0  0  0  0  0  0  0  0  0  0  0  0
    8.0276   46.6747   54.7306 H   0  0  0  0  0  0  0  0  0  0  0  0
    8.4906   47.0108   50.4436 H   0  0  0  0  0  0  0  0  0  0  0  0
    6.6045   45.4119   50.1104 H   0  0  0  0  0  0  0  0  0  0  0  0
    3.2023   40.5967   51.1220 H   0  0  0  0  0  0  0  0  0  0  0  0
    2.3265   41.7922   50.0866 H   0  0  0  0  0  0  0  0  0  0  0  0
  1  2  2  0
  2  3  1  0
  3  4  1  0
  4  5  1  0
  5  6  2  0
  6  7  1  0
  7  8  2  0
  8  9  1  0
  9 10  1  0
  9 11  2  0
  2 12  1  0
 12 13  1  0
 13 14  1  0
 14 15  1  0
 15 16  2  0
 16 17  1  0
 17 18  2  0
 18 19  1  0
 19 20  1  0
 20 21  2  0
 21 22  1  0
 22 23  2  0
 23 24  1  0
 23 25  1  0
 25 26  2  0
 16 27  1  0
 11  5  1  0
 27 12  1  0
 19 15  1  0
 26 20  1  0
  3 28  1  0
  3 29  1  0
  6 30  1  0
  7 31  1  0
  8 32  1  0
 11 33  1  0
 13 34  1  0
 13 35  1  0
 14 36  1  0
 14 37  1  0
 18 38  1  0
 21 39  1  0
 22 40  1  0
 25 41  1  0
 26 42  1  0
 27 43  1  0
 27 44  1  0
M  END
>  <meeko>  (4) 
{"is_sidechain": [false], "free_energy": -7.637, "intermolecular_energy": -10.683, "internal_energy": -0.277}

$$$$
ligand_49_conformer_5_docked
     RDKit          3D

 44 47  0  0  0  0  0  0  0  0999 V2000
   -0.4820   42.2630   53.7090 O   0  0  0  0  0  0  0  0  0  0  0  0
   -0.1310   43.4690   53.6090 C   0  0  0  0  0  0  0  0  0  0  0  0
   -1.0840   44.5160   54.1240 C   0  0  0  0  0  0  0  0  0  0  0  0
   -1.8330   43.9960   55.7090 S   0  0  0  0  0  0  0  0  0  0  0  0
   -1.0390   45.2570   56.7100 C   0  0  0  0  0  0  0  0  0  0  0  0
    0.3390   45.1950   56.9520 C   0  0  0  0  0  0  0  0  0  0  0  0
    0.9570   46.1700   57.7420 C   0  0  0  0  0  0  0  0  0  0  0  0
    0.2000   47.2080   58.2920 C   0  0  0  0  0  0  0  0  0  0  0  0
   -1.1740   47.2820   58.0400 C   0  0  0  0  0  0  0  0  0  0  0  0
   -2.2090   48.6960   58.7970 Br  0  0  0  0  0  0  0  0  0  0  0  0
   -1.7920   46.3140   57.2400 C   0  0  0  0  0  0  0  0  0  0  0  0
    1.1230   43.7990   52.9590 N   0  0  0  0  0  0  0  0  0  0  0  0
    1.5920   45.2040   52.9850 C   0  0  0  0  0  0  0  0  0  0  0  0
    3.1120   45.2840   53.2020 C   0  0  0  0  0  0  0  0  0  0  0  0
    3.8050   44.2970   52.3170 C   0  0  0  0  0  0  0  0  0  0  0  0
    3.1870   43.2080   51.7750 C   0  0  0  0  0  0  0  0  0  0  0  0
    4.0540   42.5070   51.0190 N   0  0  0  0  0  0  0  0  0  0  0  0
    5.2080   43.2030   51.1300 C   0  0  0  0  0  0  0  0  0  0  0  0
    5.0940   44.2930   51.9250 N   0  0  0  0  0  0  0  0  0  0  0  0
    6.1370   45.2290   52.2460 C   0  0  0  0  0  0  0  0  0  0  0  0
    6.3880   45.5710   53.5860 C   0  0  0  0  0  0  0  0  0  0  0  0
    7.3950   46.4870   53.9050 C   0  0  0  0  0  0  0  0  0  0  0  0
    8.1530   47.0760   52.8900 C   0  0  0  0  0  0  0  0  0  0  0  0
    9.1270   47.9670   53.2010 F   0  0  0  0  0  0  0  0  0  0  0  0
    7.9010   46.7540   51.5540 C   0  0  0  0  0  0  0  0  0  0  0  0
    6.8950   45.8370   51.2310 C   0  0  0  0  0  0  0  0  0  0  0  0
    1.7510   42.8610   52.0030 C   0  0  0  0  0  0  0  0  0  0  0  0
   -0.5360   45.4575   54.2766 H   0  0  0  0  0  0  0  0  0  0  0  0
   -1.8870   44.6534   53.3849 H   0  0  0  0  0  0  0  0  0  0  0  0
    0.9362   44.3784   56.5202 H   0  0  0  0  0  0  0  0  0  0  0  0
    2.0396   46.1197   57.9305 H   0  0  0  0  0  0  0  0  0  0  0  0
    0.6848   47.9672   58.9234 H   0  0  0  0  0  0  0  0  0  0  0  0
   -2.8690   46.3827   57.0271 H   0  0  0  0  0  0  0  0  0  0  0  0
    1.3416   45.6827   52.0268 H   0  0  0  0  0  0  0  0  0  0  0  0
    1.0954   45.7194   53.8203 H   0  0  0  0  0  0  0  0  0  0  0  0
    3.4620   46.2986   52.9611 H   0  0  0  0  0  0  0  0  0  0  0  0
    3.3407   45.0516   54.2526 H   0  0  0  0  0  0  0  0  0  0  0  0
    6.1423   42.9137   50.6267 H   0  0  0  0  0  0  0  0  0  0  0  0
    5.7889   45.1155   54.3882 H   0  0  0  0  0  0  0  0  0  0  0  0
    7.5907   46.7442   54.9565 H   0  0  0  0  0  0  0  0  0  0  0  0
    8.4945   47.2222   50.7549 H   0  0  0  0  0  0  0  0  0  0  0  0
    6.6965   45.5908   50.1775 H   0  0  0  0  0  0  0  0  0  0  0  0
    1.2128   42.9102   51.0449 H   0  0  0  0  0  0  0  0  0  0  0  0
    1.6988   41.8458   52.4234 H   0  0  0  0  0  0  0  0  0  0  0  0
  1  2  2  0
  2  3  1  0
  3  4  1  0
  4  5  1  0
  5  6  2  0
  6  7  1  0
  7  8  2  0
  8  9  1  0
  9 10  1  0
  9 11  2  0
  2 12  1  0
 12 13  1  0
 13 14  1  0
 14 15  1  0
 15 16  2  0
 16 17  1  0
 17 18  2  0
 18 19  1  0
 19 20  1  0
 20 21  2  0
 21 22  1  0
 22 23  2  0
 23 24  1  0
 23 25  1  0
 25 26  2  0
 16 27  1  0
 11  5  1  0
 27 12  1  0
 19 15  1  0
 26 20  1  0
  3 28  1  0
  3 29  1  0
  6 30  1  0
  7 31  1  0
  8 32  1  0
 11 33  1  0
 13 34  1  0
 13 35  1  0
 14 36  1  0
 14 37  1  0
 18 38  1  0
 21 39  1  0
 22 40  1  0
 25 41  1  0
 26 42  1  0
 27 43  1  0
 27 44  1  0
M  END
>  <meeko>  (5) 
{"is_sidechain": [false], "free_energy": -7.622, "intermolecular_energy": -10.38, "internal_energy": -0.56}

$$$$
