MODEL 1
REMARK VINA RESULT:    -8.390      0.000      0.000
REMARK INTER + INTRA:         -14.147
REMARK INTER:                 -12.313
REMARK INTRA:                  -1.833
REMARK UNBOUND:                -1.833
REMARK SMILES COc1ccc([C@H](NC(=O)c2ccccc2SCC(=O)N2CCCC2)C(F)F)cc1
REMARK SMILES IDX 8 1 9 2 10 3 7 5 6 6 3 7 4 8 30 9 5 10 29 11 2 12 1 13 26 14
REMARK SMILES IDX 27 15 28 16 11 17 12 18 16 19 13 20 15 21 14 22 17 23 18 24
REMARK SMILES IDX 19 25 20 26 21 27 22 28 25 29 23 30 24 31
REMARK H PARENT 8 4
ROOT
ATOM      1  N   UNL     1       4.610  46.014  53.001  1.00  0.00    -0.339 N 
ATOM      2  C   UNL     1       3.296  46.570  53.172  1.00  0.00     0.253 C 
ATOM      3  O   UNL     1       3.018  47.677  52.636  1.00  0.00    -0.269 OA
ATOM      4  H   UNL     1       4.879  45.166  53.551  1.00  0.00     0.164 HD
ENDROOT
BRANCH   1   5
ATOM      5  C   UNL     1       5.573  46.586  52.052  1.00  0.00     0.179 C 
BRANCH   5   6
ATOM      6  C   UNL     1       6.913  46.819  52.723  1.00  0.00    -0.020 A 
ATOM      7  C   UNL     1       9.416  47.246  53.956  1.00  0.00     0.118 A 
ATOM      8  C   UNL     1       9.310  47.207  52.552  1.00  0.00     0.047 A 
ATOM      9  C   UNL     1       8.265  47.064  54.731  1.00  0.00     0.047 A 
ATOM     10  C   UNL     1       8.069  46.992  51.944  1.00  0.00     0.010 A 
ATOM     11  C   UNL     1       7.026  46.850  54.124  1.00  0.00     0.010 A 
BRANCH   7  12
ATOM     12  O   UNL     1      10.636  47.461  54.612  1.00  0.00    -0.497 OA
ATOM     13  C   UNL     1      10.777  47.590  56.023  1.00  0.00     0.278 C 
ENDBRANCH   7  12
ENDBRANCH   5   6
BRANCH   5  14
ATOM     14  C   UNL     1       5.719  45.692  50.810  1.00  0.00     0.369 C 
ATOM     15  F   UNL     1       4.483  45.363  50.281  1.00  0.00    -0.208 F 
ATOM     16  F   UNL     1       6.397  44.530  51.137  1.00  0.00    -0.208 F 
ENDBRANCH   5  14
ENDBRANCH   1   5
BRANCH   2  17
ATOM     17  C   UNL     1       2.248  45.834  53.928  1.00  0.00     0.053 A 
ATOM     18  C   UNL     1       2.126  46.050  55.313  1.00  0.00     0.015 A 
ATOM     19  C   UNL     1       1.412  44.865  53.312  1.00  0.00     0.020 A 
ATOM     20  C   UNL     1       1.212  45.317  56.073  1.00  0.00     0.001 A 
ATOM     21  C   UNL     1       0.521  44.116  54.094  1.00  0.00     0.016 A 
ATOM     22  C   UNL     1       0.418  44.346  55.467  1.00  0.00     0.001 A 
BRANCH  19  23
ATOM     23  S   UNL     1       1.422  44.571  51.532  1.00  0.00    -0.115 SA
BRANCH  23  24
ATOM     24  C   UNL     1       1.841  42.796  51.650  1.00  0.00     0.175 C 
BRANCH  24  25
ATOM     25  C   UNL     1       3.330  42.587  51.615  1.00  0.00     0.232 C 
ATOM     26  O   UNL     1       4.020  43.024  52.573  1.00  0.00    -0.274 OA
ATOM     27  N   UNL     1       3.980  41.929  50.512  1.00  0.00    -0.342 N 
ATOM     28  C   UNL     1       5.422  41.914  50.348  1.00  0.00     0.119 C 
ATOM     29  C   UNL     1       3.292  41.200  49.458  1.00  0.00     0.119 C 
ATOM     30  C   UNL     1       5.674  41.291  48.983  1.00  0.00     0.023 C 
ATOM     31  C   UNL     1       4.388  40.554  48.621  1.00  0.00     0.023 C 
ENDBRANCH  24  25
ENDBRANCH  23  24
ENDBRANCH  19  23
ENDBRANCH   2  17
TORSDOF 8
ENDMDL
MODEL 2
REMARK VINA RESULT:    -8.245      2.556      6.561
REMARK INTER + INTRA:         -13.934
REMARK INTER:                 -12.523
REMARK INTRA:                  -1.411
REMARK UNBOUND:                -1.833
REMARK SMILES COc1ccc([C@H](NC(=O)c2ccccc2SCC(=O)N2CCCC2)C(F)F)cc1
REMARK SMILES IDX 8 1 9 2 10 3 7 5 6 6 3 7 4 8 30 9 5 10 29 11 2 12 1 13 26 14
REMARK SMILES IDX 27 15 28 16 11 17 12 18 16 19 13 20 15 21 14 22 17 23 18 24
REMARK SMILES IDX 19 25 20 26 21 27 22 28 25 29 23 30 24 31
REMARK H PARENT 8 4
ROOT
ATOM      1  N   UNL     1       5.178  45.665  53.467  1.00  0.00    -0.339 N 
ATOM      2  C   UNL     1       6.034  46.804  53.283  1.00  0.00     0.253 C 
ATOM      3  O   UNL     1       5.550  47.965  53.378  1.00  0.00    -0.269 OA
ATOM      4  H   UNL     1       5.550  44.710  53.260  1.00  0.00     0.164 HD
ENDROOT
BRANCH   1   5
ATOM      5  C   UNL     1       3.805  45.805  53.970  1.00  0.00     0.179 C 
BRANCH   5   6
ATOM      6  C   UNL     1       2.830  45.066  53.072  1.00  0.00    -0.020 A 
ATOM      7  C   UNL     1       1.014  43.678  51.418  1.00  0.00     0.118 A 
ATOM      8  C   UNL     1       1.103  43.375  52.790  1.00  0.00     0.047 A 
ATOM      9  C   UNL     1       1.841  44.672  50.885  1.00  0.00     0.047 A 
ATOM     10  C   UNL     1       2.006  44.062  53.606  1.00  0.00     0.010 A 
ATOM     11  C   UNL     1       2.743  45.359  51.700  1.00  0.00     0.010 A 
BRANCH   7  12
ATOM     12  O   UNL     1       0.122  43.020  50.558  1.00  0.00    -0.497 OA
ATOM     13  C   UNL     1      -1.295  43.078  50.673  1.00  0.00     0.278 C 
ENDBRANCH   7  12
ENDBRANCH   5   6
BRANCH   5  14
ATOM     14  C   UNL     1       3.700  45.321  55.425  1.00  0.00     0.369 C 
ATOM     15  F   UNL     1       2.882  46.152  56.171  1.00  0.00    -0.208 F 
ATOM     16  F   UNL     1       4.956  45.280  56.006  1.00  0.00    -0.208 F 
ENDBRANCH   5  14
ENDBRANCH   1   5
BRANCH   2  17
ATOM     17  C   UNL     1       7.490  46.632  53.034  1.00  0.00     0.053 A 
ATOM     18  C   UNL     1       8.400  46.922  54.068  1.00  0.00     0.015 A 
ATOM     19  C   UNL     1       8.000  46.255  51.763  1.00  0.00     0.020 A 
ATOM     20  C   UNL     1       9.777  46.854  53.848  1.00  0.00     0.001 A 
ATOM     21  C   UNL     1       9.385  46.222  51.550  1.00  0.00     0.016 A 
ATOM     22  C   UNL     1      10.269  46.514  52.590  1.00  0.00     0.001 A 
BRANCH  19  23
ATOM     23  S   UNL     1       6.925  45.777  50.394  1.00  0.00    -0.115 SA
BRANCH  23  24
ATOM     24  C   UNL     1       6.548  44.109  51.042  1.00  0.00     0.175 C 
BRANCH  24  25
ATOM     25  C   UNL     1       6.603  43.078  49.949  1.00  0.00     0.232 C 
ATOM     26  O   UNL     1       7.624  43.037  49.212  1.00  0.00    -0.274 OA
ATOM     27  N   UNL     1       5.516  42.164  49.711  1.00  0.00    -0.342 N 
ATOM     28  C   UNL     1       5.449  41.318  48.534  1.00  0.00     0.119 C 
ATOM     29  C   UNL     1       4.387  41.965  50.606  1.00  0.00     0.119 C 
ATOM     30  C   UNL     1       4.076  40.661  48.578  1.00  0.00     0.023 C 
ATOM     31  C   UNL     1       3.597  40.803  50.019  1.00  0.00     0.023 C 
ENDBRANCH  24  25
ENDBRANCH  23  24
ENDBRANCH  19  23
ENDBRANCH   2  17
TORSDOF 8
ENDMDL
MODEL 3
REMARK VINA RESULT:    -8.171      2.746      7.699
REMARK INTER + INTRA:         -13.827
REMARK INTER:                 -12.720
REMARK INTRA:                  -1.106
REMARK UNBOUND:                -1.833
REMARK SMILES COc1ccc([C@H](NC(=O)c2ccccc2SCC(=O)N2CCCC2)C(F)F)cc1
REMARK SMILES IDX 8 1 9 2 10 3 7 5 6 6 3 7 4 8 30 9 5 10 29 11 2 12 1 13 26 14
REMARK SMILES IDX 27 15 28 16 11 17 12 18 16 19 13 20 15 21 14 22 17 23 18 24
REMARK SMILES IDX 19 25 20 26 21 27 22 28 25 29 23 30 24 31
REMARK H PARENT 8 4
ROOT
ATOM      1  N   UNL     1       3.079  44.319  53.437  1.00  0.00    -0.339 N 
ATOM      2  C   UNL     1       3.078  44.299  52.000  1.00  0.00     0.253 C 
ATOM      3  O   UNL     1       2.296  45.063  51.371  1.00  0.00    -0.269 OA
ATOM      4  H   UNL     1       3.629  43.596  53.955  1.00  0.00     0.164 HD
ENDROOT
BRANCH   1   5
ATOM      5  C   UNL     1       2.355  45.347  54.195  1.00  0.00     0.179 C 
BRANCH   5   6
ATOM      6  C   UNL     1       1.032  44.806  54.701  1.00  0.00    -0.020 A 
ATOM      7  C   UNL     1      -1.435  43.793  55.625  1.00  0.00     0.118 A 
ATOM      8  C   UNL     1      -0.929  43.403  54.370  1.00  0.00     0.047 A 
ATOM      9  C   UNL     1      -0.702  44.694  56.405  1.00  0.00     0.047 A 
ATOM     10  C   UNL     1       0.291  43.909  53.914  1.00  0.00     0.010 A 
ATOM     11  C   UNL     1       0.518  45.200  55.949  1.00  0.00     0.010 A 
BRANCH   7  12
ATOM     12  O   UNL     1      -2.653  43.312  56.128  1.00  0.00    -0.497 OA
ATOM     13  C   UNL     1      -3.102  43.507  57.464  1.00  0.00     0.278 C 
ENDBRANCH   7  12
ENDBRANCH   5   6
BRANCH   5  14
ATOM     14  C   UNL     1       3.215  45.887  55.349  1.00  0.00     0.369 C 
ATOM     15  F   UNL     1       3.860  47.058  54.989  1.00  0.00    -0.208 F 
ATOM     16  F   UNL     1       4.159  44.946  55.721  1.00  0.00    -0.208 F 
ENDBRANCH   5  14
ENDBRANCH   1   5
BRANCH   2  17
ATOM     17  C   UNL     1       4.018  43.427  51.248  1.00  0.00     0.053 A 
ATOM     18  C   UNL     1       3.793  42.038  51.225  1.00  0.00     0.015 A 
ATOM     19  C   UNL     1       5.179  43.940  50.610  1.00  0.00     0.020 A 
ATOM     20  C   UNL     1       4.699  41.177  50.602  1.00  0.00     0.001 A 
ATOM     21  C   UNL     1       6.093  43.059  50.016  1.00  0.00     0.016 A 
ATOM     22  C   UNL     1       5.851  41.685  50.006  1.00  0.00     0.001 A 
BRANCH  19  23
ATOM     23  S   UNL     1       5.520  45.708  50.501  1.00  0.00    -0.115 SA
BRANCH  23  24
ATOM     24  C   UNL     1       6.282  45.842  52.157  1.00  0.00     0.175 C 
BRANCH  24  25
ATOM     25  C   UNL     1       7.766  46.063  52.054  1.00  0.00     0.232 C 
ATOM     26  O   UNL     1       8.357  45.695  51.004  1.00  0.00    -0.274 OA
ATOM     27  N   UNL     1       8.523  46.655  53.126  1.00  0.00    -0.342 N 
ATOM     28  C   UNL     1       9.974  46.673  53.143  1.00  0.00     0.119 C 
ATOM     29  C   UNL     1       7.944  47.308  54.290  1.00  0.00     0.119 C 
ATOM     30  C   UNL     1      10.362  47.211  54.513  1.00  0.00     0.023 C 
ATOM     31  C   UNL     1       9.117  47.910  55.051  1.00  0.00     0.023 C 
ENDBRANCH  24  25
ENDBRANCH  23  24
ENDBRANCH  19  23
ENDBRANCH   2  17
TORSDOF 8
ENDMDL
MODEL 4
REMARK VINA RESULT:    -7.831      2.445      7.129
REMARK INTER + INTRA:         -13.328
REMARK INTER:                 -12.685
REMARK INTRA:                  -0.643
REMARK UNBOUND:                -1.833
REMARK SMILES COc1ccc([C@H](NC(=O)c2ccccc2SCC(=O)N2CCCC2)C(F)F)cc1
REMARK SMILES IDX 8 1 9 2 10 3 7 5 6 6 3 7 4 8 30 9 5 10 29 11 2 12 1 13 26 14
REMARK SMILES IDX 27 15 28 16 11 17 12 18 16 19 13 20 15 21 14 22 17 23 18 24
REMARK SMILES IDX 19 25 20 26 21 27 22 28 25 29 23 30 24 31
REMARK H PARENT 8 4
ROOT
ATOM      1  N   UNL     1       2.106  43.103  52.635  1.00  0.00    -0.339 N 
ATOM      2  C   UNL     1       2.398  42.746  51.274  1.00  0.00     0.253 C 
ATOM      3  O   UNL     1       1.450  42.581  50.460  1.00  0.00    -0.269 OA
ATOM      4  H   UNL     1       2.881  43.111  53.337  1.00  0.00     0.164 HD
ENDROOT
BRANCH   1   5
ATOM      5  C   UNL     1       0.754  43.489  53.058  1.00  0.00     0.179 C 
BRANCH   5   6
ATOM      6  C   UNL     1       0.797  44.217  54.389  1.00  0.00    -0.020 A 
ATOM      7  C   UNL     1       0.897  45.569  56.864  1.00  0.00     0.118 A 
ATOM      8  C   UNL     1       2.042  45.488  56.048  1.00  0.00     0.047 A 
ATOM      9  C   UNL     1      -0.289  44.964  56.434  1.00  0.00     0.047 A 
ATOM     10  C   UNL     1       1.991  44.815  54.824  1.00  0.00     0.010 A 
ATOM     11  C   UNL     1      -0.341  44.292  55.210  1.00  0.00     0.010 A 
BRANCH   7  12
ATOM     12  O   UNL     1       0.897  46.235  58.098  1.00  0.00    -0.497 OA
ATOM     13  C   UNL     1      -0.066  47.208  58.485  1.00  0.00     0.278 C 
ENDBRANCH   7  12
ENDBRANCH   5   6
BRANCH   5  14
ATOM     14  C   UNL     1       0.063  44.340  51.980  1.00  0.00     0.369 C 
ATOM     15  F   UNL     1       0.341  45.685  52.148  1.00  0.00    -0.208 F 
ATOM     16  F   UNL     1      -1.308  44.150  52.029  1.00  0.00    -0.208 F 
ENDBRANCH   5  14
ENDBRANCH   1   5
BRANCH   2  17
ATOM     17  C   UNL     1       3.803  42.618  50.804  1.00  0.00     0.053 A 
ATOM     18  C   UNL     1       4.278  41.354  50.406  1.00  0.00     0.015 A 
ATOM     19  C   UNL     1       4.705  43.714  50.809  1.00  0.00     0.020 A 
ATOM     20  C   UNL     1       5.614  41.176  50.038  1.00  0.00     0.001 A 
ATOM     21  C   UNL     1       6.049  43.512  50.467  1.00  0.00     0.016 A 
ATOM     22  C   UNL     1       6.499  42.250  50.077  1.00  0.00     0.001 A 
BRANCH  19  23
ATOM     23  S   UNL     1       4.183  45.393  51.215  1.00  0.00    -0.115 SA
BRANCH  23  24
ATOM     24  C   UNL     1       5.872  46.089  51.290  1.00  0.00     0.175 C 
BRANCH  24  25
ATOM     25  C   UNL     1       6.275  46.381  52.709  1.00  0.00     0.232 C 
ATOM     26  O   UNL     1       5.384  46.383  53.598  1.00  0.00    -0.274 OA
ATOM     27  N   UNL     1       7.638  46.679  53.066  1.00  0.00    -0.342 N 
ATOM     28  C   UNL     1       8.012  47.180  54.376  1.00  0.00     0.119 C 
ATOM     29  C   UNL     1       8.784  46.506  52.188  1.00  0.00     0.119 C 
ATOM     30  C   UNL     1       9.488  47.536  54.273  1.00  0.00     0.023 C 
ATOM     31  C   UNL     1      10.008  46.794  53.046  1.00  0.00     0.023 C 
ENDBRANCH  24  25
ENDBRANCH  23  24
ENDBRANCH  19  23
ENDBRANCH   2  17
TORSDOF 8
ENDMDL
MODEL 5
REMARK VINA RESULT:    -7.774      2.023      4.940
REMARK INTER + INTRA:         -13.243
REMARK INTER:                 -12.832
REMARK INTRA:                  -0.411
REMARK UNBOUND:                -1.833
REMARK SMILES COc1ccc([C@H](NC(=O)c2ccccc2SCC(=O)N2CCCC2)C(F)F)cc1
REMARK SMILES IDX 8 1 9 2 10 3 7 5 6 6 3 7 4 8 30 9 5 10 29 11 2 12 1 13 26 14
REMARK SMILES IDX 27 15 28 16 11 17 12 18 16 19 13 20 15 21 14 22 17 23 18 24
REMARK SMILES IDX 19 25 20 26 21 27 22 28 25 29 23 30 24 31
REMARK H PARENT 8 4
ROOT
ATOM      1  N   UNL     1       7.118  44.544  51.044  1.00  0.00    -0.339 N 
ATOM      2  C   UNL     1       5.717  44.692  50.758  1.00  0.00     0.253 C 
ATOM      3  O   UNL     1       5.266  45.828  50.446  1.00  0.00    -0.269 OA
ATOM      4  H   UNL     1       7.466  43.636  51.428  1.00  0.00     0.164 HD
ENDROOT
BRANCH   1   5
ATOM      5  C   UNL     1       8.078  45.624  50.780  1.00  0.00     0.179 C 
BRANCH   5   6
ATOM      6  C   UNL     1       8.553  46.247  52.079  1.00  0.00    -0.020 A 
ATOM      7  C   UNL     1       9.418  47.410  54.500  1.00  0.00     0.118 A 
ATOM      8  C   UNL     1       8.057  47.109  54.300  1.00  0.00     0.047 A 
ATOM      9  C   UNL     1      10.334  47.130  53.481  1.00  0.00     0.047 A 
ATOM     10  C   UNL     1       7.631  46.536  53.099  1.00  0.00     0.010 A 
ATOM     11  C   UNL     1       9.909  46.557  52.280  1.00  0.00     0.010 A 
BRANCH   7  12
ATOM     12  O   UNL     1       9.896  47.983  55.688  1.00  0.00    -0.497 OA
ATOM     13  C   UNL     1      11.058  47.542  56.381  1.00  0.00     0.278 C 
ENDBRANCH   7  12
ENDBRANCH   5   6
BRANCH   5  14
ATOM     14  C   UNL     1       9.260  45.116  49.940  1.00  0.00     0.369 C 
ATOM     15  F   UNL     1       8.822  44.447  48.810  1.00  0.00    -0.208 F 
ATOM     16  F   UNL     1      10.049  44.263  50.694  1.00  0.00    -0.208 F 
ENDBRANCH   5  14
ENDBRANCH   1   5
BRANCH   2  17
ATOM     17  C   UNL     1       4.806  43.518  50.777  1.00  0.00     0.053 A 
ATOM     18  C   UNL     1       5.227  42.317  50.174  1.00  0.00     0.015 A 
ATOM     19  C   UNL     1       3.496  43.586  51.320  1.00  0.00     0.020 A 
ATOM     20  C   UNL     1       4.368  41.218  50.097  1.00  0.00     0.001 A 
ATOM     21  C   UNL     1       2.637  42.484  51.206  1.00  0.00     0.016 A 
ATOM     22  C   UNL     1       3.073  41.304  50.603  1.00  0.00     0.001 A 
BRANCH  19  23
ATOM     23  S   UNL     1       2.886  45.043  52.193  1.00  0.00    -0.115 SA
BRANCH  23  24
ATOM     24  C   UNL     1       3.474  44.518  53.842  1.00  0.00     0.175 C 
BRANCH  24  25
ATOM     25  C   UNL     1       2.802  45.305  54.933  1.00  0.00     0.232 C 
ATOM     26  O   UNL     1       3.462  46.204  55.518  1.00  0.00    -0.274 OA
ATOM     27  N   UNL     1       1.446  45.040  55.337  1.00  0.00    -0.342 N 
ATOM     28  C   UNL     1       0.855  45.627  56.526  1.00  0.00     0.119 C 
ATOM     29  C   UNL     1       0.515  44.188  54.614  1.00  0.00     0.119 C 
ATOM     30  C   UNL     1      -0.500  44.952  56.686  1.00  0.00     0.023 C 
ATOM     31  C   UNL     1      -0.822  44.342  55.325  1.00  0.00     0.023 C 
ENDBRANCH  24  25
ENDBRANCH  23  24
ENDBRANCH  19  23
ENDBRANCH   2  17
TORSDOF 8
ENDMDL
