ligand_40_conformer_5_docked
     RDKit          3D

 40 43  0  0  0  0  0  0  0  0999 V2000
    3.4680   46.2770   53.2390 O   0  0  0  0  0  0  0  0  0  0  0  0
    3.3960   44.9360   53.9120 S   0  0  0  0  0  0  0  0  0  0  0  0
    4.6490   44.6360   54.6880 O   0  0  0  0  0  0  0  0  0  0  0  0
    1.9580   44.7930   54.9170 C   0  0  0  0  0  0  0  0  0  0  0  0
    0.9600   44.0230   54.0480 C   0  0  0  0  0  0  0  0  0  0  0  0
    1.7160   43.1080   53.0600 C   0  0  0  0  0  0  0  0  0  0  0  0
    3.0300   43.6890   52.7890 N   0  0  0  0  0  0  0  0  0  0  0  0
    3.9680   43.1670   51.8220 C   0  0  0  0  0  0  0  0  0  0  0  0
    3.8290   41.8580   51.3190 C   0  0  0  0  0  0  0  0  0  0  0  0
    4.7440   41.3510   50.3930 C   0  0  0  0  0  0  0  0  0  0  0  0
    5.8060   42.1390   49.9500 C   0  0  0  0  0  0  0  0  0  0  0  0
    5.9600   43.4470   50.4280 C   0  0  0  0  0  0  0  0  0  0  0  0
    7.1030   44.3060   49.9560 C   0  0  0  0  0  0  0  0  0  0  0  0
    7.0390   45.6260   50.5780 N   0  0  0  0  0  0  0  0  0  0  0  0
    8.0230   46.0800   51.5200 C   0  0  0  0  0  0  0  0  0  0  0  0
    9.3580   46.0380   51.2200 N   0  0  0  0  0  0  0  0  0  0  0  0
   10.3080   46.4650   52.1120 C   0  0  0  0  0  0  0  0  0  0  0  0
    9.9410   46.9470   53.3380 N   0  0  0  0  0  0  0  0  0  0  0  0
    8.6210   46.9900   53.6380 C   0  0  0  0  0  0  0  0  0  0  0  0
    8.0760   47.4160   54.7900 N   0  0  0  0  0  0  0  0  0  0  0  0
    6.7470   47.2330   54.5660 C   0  0  0  0  0  0  0  0  0  0  0  0
    6.4650   46.7190   53.3420 N   0  0  0  0  0  0  0  0  0  0  0  0
    7.6680   46.5740   52.7720 C   0  0  0  0  0  0  0  0  0  0  0  0
    5.0390   43.9560   51.3580 C   0  0  0  0  0  0  0  0  0  0  0  0
    2.1815   44.2364   55.8391 H   0  0  0  0  0  0  0  0  0  0  0  0
    1.5693   45.7720   55.2339 H   0  0  0  0  0  0  0  0  0  0  0  0
    0.3142   43.4084   54.6924 H   0  0  0  0  0  0  0  0  0  0  0  0
    0.3476   44.7392   53.4805 H   0  0  0  0  0  0  0  0  0  0  0  0
    1.8382   42.1081   53.5020 H   0  0  0  0  0  0  0  0  0  0  0  0
    1.1466   43.0195   52.1230 H   0  0  0  0  0  0  0  0  0  0  0  0
    2.9924   41.2297   51.6586 H   0  0  0  0  0  0  0  0  0  0  0  0
    4.6263   40.3259   50.0117 H   0  0  0  0  0  0  0  0  0  0  0  0
    6.5247   41.7325   49.2233 H   0  0  0  0  0  0  0  0  0  0  0  0
    8.0542   43.8239   50.2260 H   0  0  0  0  0  0  0  0  0  0  0  0
    7.0345   44.4224   48.8643 H   0  0  0  0  0  0  0  0  0  0  0  0
    6.2400   46.2480   50.3250 H   0  0  0  0  0  0  0  0  0  0  0  0
   11.3727   46.4195   51.8394 H   0  0  0  0  0  0  0  0  0  0  0  0
    5.9728   47.4787   55.3078 H   0  0  0  0  0  0  0  0  0  0  0  0
    5.5240   46.4890   52.9510 H   0  0  0  0  0  0  0  0  0  0  0  0
    5.1554   44.9849   51.7293 H   0  0  0  0  0  0  0  0  0  0  0  0
  1  2  2  0
  2  3  2  0
  2  4  1  0
  4  5  1  0
  5  6  1  0
  6  7  1  0
  7  8  1  0
  8  9  2  0
  9 10  1  0
 10 11  2  0
 11 12  1  0
 12 13  1  0
 13 14  1  0
 14 15  1  0
 15 16  2  0
 16 17  1  0
 17 18  2  0
 18 19  1  0
 19 20  1  0
 20 21  2  0
 21 22  1  0
 22 23  1  0
 12 24  2  0
  7  2  1  0
 24  8  1  0
 23 15  1  0
 23 19  2  0
  4 25  1  0
  4 26  1  0
  5 27  1  0
  5 28  1  0
  6 29  1  0
  6 30  1  0
  9 31  1  0
 10 32  1  0
 11 33  1  0
 13 34  1  0
 13 35  1  0
 14 36  1  0
 17 37  1  0
 21 38  1  0
 22 39  1  0
 24 40  1  0
M  END
>  <meeko>  (1) 
{"is_sidechain": [false], "free_energy": -8.913, "intermolecular_energy": -10.997, "internal_energy": -1.229}

$$$$
ligand_40_conformer_5_docked
     RDKit          3D

 40 43  0  0  0  0  0  0  0  0999 V2000
    6.1580   45.4640   53.9110 O   0  0  0  0  0  0  0  0  0  0  0  0
    6.1730   46.3230   52.6780 S   0  0  0  0  0  0  0  0  0  0  0  0
    4.7830   46.5870   52.1690 O   0  0  0  0  0  0  0  0  0  0  0  0
    7.0650   47.8170   52.9400 C   0  0  0  0  0  0  0  0  0  0  0  0
    8.4500   47.5440   52.3460 C   0  0  0  0  0  0  0  0  0  0  0  0
    8.3410   46.5050   51.2080 C   0  0  0  0  0  0  0  0  0  0  0  0
    7.1790   45.6520   51.4580 N   0  0  0  0  0  0  0  0  0  0  0  0
    6.8310   44.4960   50.6640 C   0  0  0  0  0  0  0  0  0  0  0  0
    7.5780   44.1600   49.5170 C   0  0  0  0  0  0  0  0  0  0  0  0
    7.2330   43.0490   48.7440 C   0  0  0  0  0  0  0  0  0  0  0  0
    6.1450   42.2530   49.1020 C   0  0  0  0  0  0  0  0  0  0  0  0
    5.3930   42.5610   50.2440 C   0  0  0  0  0  0  0  0  0  0  0  0
    4.2160   41.7100   50.6380 C   0  0  0  0  0  0  0  0  0  0  0  0
    3.6860   42.1390   51.9310 N   0  0  0  0  0  0  0  0  0  0  0  0
    2.5820   43.0500   52.0440 C   0  0  0  0  0  0  0  0  0  0  0  0
    1.5580   43.0320   51.1360 N   0  0  0  0  0  0  0  0  0  0  0  0
    0.5000   43.8980   51.2300 C   0  0  0  0  0  0  0  0  0  0  0  0
    0.4410   44.8140   52.2450 N   0  0  0  0  0  0  0  0  0  0  0  0
    1.4520   44.8340   53.1460 C   0  0  0  0  0  0  0  0  0  0  0  0
    1.5730   45.6650   54.1940 N   0  0  0  0  0  0  0  0  0  0  0  0
    2.7530   45.2690   54.7420 C   0  0  0  0  0  0  0  0  0  0  0  0
    3.3480   44.2460   54.0770 N   0  0  0  0  0  0  0  0  0  0  0  0
    2.5050   43.9870   53.0710 C   0  0  0  0  0  0  0  0  0  0  0  0
    5.7410   43.6780   51.0210 C   0  0  0  0  0  0  0  0  0  0  0  0
    6.5782   48.6567   52.4223 H   0  0  0  0  0  0  0  0  0  0  0  0
    7.1126   48.0955   54.0031 H   0  0  0  0  0  0  0  0  0  0  0  0
    8.8658   48.4804   51.9458 H   0  0  0  0  0  0  0  0  0  0  0  0
    9.1093   47.1496   53.1332 H   0  0  0  0  0  0  0  0  0  0  0  0
    8.2192   47.0227   50.2451 H   0  0  0  0  0  0  0  0  0  0  0  0
    9.2538   45.8922   51.1728 H   0  0  0  0  0  0  0  0  0  0  0  0
    8.4406   44.7784   49.2280 H   0  0  0  0  0  0  0  0  0  0  0  0
    7.8220   42.8006   47.8488 H   0  0  0  0  0  0  0  0  0  0  0  0
    5.8765   41.3816   48.4867 H   0  0  0  0  0  0  0  0  0  0  0  0
    3.4294   41.8039   49.8748 H   0  0  0  0  0  0  0  0  0  0  0  0
    4.5437   40.6629   50.7168 H   0  0  0  0  0  0  0  0  0  0  0  0
    4.1420   41.7690   52.7940 H   0  0  0  0  0  0  0  0  0  0  0  0
   -0.3076   43.8565   50.4843 H   0  0  0  0  0  0  0  0  0  0  0  0
    3.1850   45.7342   55.6403 H   0  0  0  0  0  0  0  0  0  0  0  0
    4.2560   43.7830   54.3060 H   0  0  0  0  0  0  0  0  0  0  0  0
    5.1546   43.9174   51.9204 H   0  0  0  0  0  0  0  0  0  0  0  0
  1  2  2  0
  2  3  2  0
  2  4  1  0
  4  5  1  0
  5  6  1  0
  6  7  1  0
  7  8  1  0
  8  9  2  0
  9 10  1  0
 10 11  2  0
 11 12  1  0
 12 13  1  0
 13 14  1  0
 14 15  1  0
 15 16  2  0
 16 17  1  0
 17 18  2  0
 18 19  1  0
 19 20  1  0
 20 21  2  0
 21 22  1  0
 22 23  1  0
 12 24  2  0
  7  2  1  0
 24  8  1  0
 23 15  1  0
 23 19  2  0
  4 25  1  0
  4 26  1  0
  5 27  1  0
  5 28  1  0
  6 29  1  0
  6 30  1  0
  9 31  1  0
 10 32  1  0
 11 33  1  0
 13 34  1  0
 13 35  1  0
 14 36  1  0
 17 37  1  0
 21 38  1  0
 22 39  1  0
 24 40  1  0
M  END
>  <meeko>  (2) 
{"is_sidechain": [false], "free_energy": -8.341, "intermolecular_energy": -10.355, "internal_energy": -1.166}

$$$$
ligand_40_conformer_5_docked
     RDKit          3D

 40 43  0  0  0  0  0  0  0  0999 V2000
    6.9110   47.9320   52.8380 O   0  0  0  0  0  0  0  0  0  0  0  0
    5.9310   46.8580   53.2160 S   0  0  0  0  0  0  0  0  0  0  0  0
    6.5380   45.8640   54.1690 O   0  0  0  0  0  0  0  0  0  0  0  0
    4.4370   47.5370   53.8490 C   0  0  0  0  0  0  0  0  0  0  0  0
    3.4720   47.5130   52.6600 C   0  0  0  0  0  0  0  0  0  0  0  0
    3.8460   46.3610   51.7010 C   0  0  0  0  0  0  0  0  0  0  0  0
    5.2770   46.0870   51.8280 N   0  0  0  0  0  0  0  0  0  0  0  0
    6.0040   45.1510   51.0010 C   0  0  0  0  0  0  0  0  0  0  0  0
    7.2770   45.4780   50.4940 C   0  0  0  0  0  0  0  0  0  0  0  0
    7.9740   44.5770   49.6850 C   0  0  0  0  0  0  0  0  0  0  0  0
    7.4170   43.3370   49.3720 C   0  0  0  0  0  0  0  0  0  0  0  0
    6.1560   42.9850   49.8730 C   0  0  0  0  0  0  0  0  0  0  0  0
    5.5460   41.6490   49.5410 C   0  0  0  0  0  0  0  0  0  0  0  0
    6.0060   41.1900   48.2320 N   0  0  0  0  0  0  0  0  0  0  0  0
    5.1640   41.2160   47.0700 C   0  0  0  0  0  0  0  0  0  0  0  0
    5.3980   42.0970   46.0500 N   0  0  0  0  0  0  0  0  0  0  0  0
    4.5990   42.1350   44.9350 C   0  0  0  0  0  0  0  0  0  0  0  0
    3.5350   41.2850   44.8160 N   0  0  0  0  0  0  0  0  0  0  0  0
    3.3010   40.4100   45.8230 C   0  0  0  0  0  0  0  0  0  0  0  0
    2.3020   39.5140   45.8890 N   0  0  0  0  0  0  0  0  0  0  0  0
    2.5240   38.9210   47.0930 C   0  0  0  0  0  0  0  0  0  0  0  0
    3.6010   39.4150   47.7550 N   0  0  0  0  0  0  0  0  0  0  0  0
    4.0770   40.3560   46.9300 C   0  0  0  0  0  0  0  0  0  0  0  0
    5.4570   43.8910   50.6860 C   0  0  0  0  0  0  0  0  0  0  0  0
    4.0506   46.9233   54.6761 H   0  0  0  0  0  0  0  0  0  0  0  0
    4.5764   48.5499   54.2547 H   0  0  0  0  0  0  0  0  0  0  0  0
    2.4457   47.3636   53.0265 H   0  0  0  0  0  0  0  0  0  0  0  0
    3.5392   48.4691   52.1203 H   0  0  0  0  0  0  0  0  0  0  0  0
    3.2724   45.4600   51.9642 H   0  0  0  0  0  0  0  0  0  0  0  0
    3.6109   46.6463   50.6650 H   0  0  0  0  0  0  0  0  0  0  0  0
    7.7266   46.4520   50.7374 H   0  0  0  0  0  0  0  0  0  0  0  0
    8.9659   44.8465   49.2933 H   0  0  0  0  0  0  0  0  0  0  0  0
    7.9685   42.6338   48.7306 H   0  0  0  0  0  0  0  0  0  0  0  0
    5.8407   40.9158   50.3063 H   0  0  0  0  0  0  0  0  0  0  0  0
    4.4511   41.7524   49.5183 H   0  0  0  0  0  0  0  0  0  0  0  0
    6.9810   40.8250   48.1570 H   0  0  0  0  0  0  0  0  0  0  0  0
    4.8161   42.8543   44.1316 H   0  0  0  0  0  0  0  0  0  0  0  0
    1.8897   38.1161   47.4928 H   0  0  0  0  0  0  0  0  0  0  0  0
    3.9600   39.1230   48.6910 H   0  0  0  0  0  0  0  0  0  0  0  0
    4.4691   43.6138   51.0825 H   0  0  0  0  0  0  0  0  0  0  0  0
  1  2  2  0
  2  3  2  0
  2  4  1  0
  4  5  1  0
  5  6  1  0
  6  7  1  0
  7  8  1  0
  8  9  2  0
  9 10  1  0
 10 11  2  0
 11 12  1  0
 12 13  1  0
 13 14  1  0
 14 15  1  0
 15 16  2  0
 16 17  1  0
 17 18  2  0
 18 19  1  0
 19 20  1  0
 20 21  2  0
 21 22  1  0
 22 23  1  0
 12 24  2  0
  7  2  1  0
 24  8  1  0
 23 15  1  0
 23 19  2  0
  4 25  1  0
  4 26  1  0
  5 27  1  0
  5 28  1  0
  6 29  1  0
  6 30  1  0
  9 31  1  0
 10 32  1  0
 11 33  1  0
 13 34  1  0
 13 35  1  0
 14 36  1  0
 17 37  1  0
 21 38  1  0
 22 39  1  0
 24 40  1  0
M  END
>  <meeko>  (3) 
{"is_sidechain": [false], "free_energy": -7.881, "intermolecular_energy": -10.404, "internal_energy": -0.549}

$$$$
ligand_40_conformer_5_docked
     RDKit          3D

 40 43  0  0  0  0  0  0  0  0999 V2000
    8.7270   46.8140   54.1900 O   0  0  0  0  0  0  0  0  0  0  0  0
    8.4080   47.2560   52.7910 S   0  0  0  0  0  0  0  0  0  0  0  0
    7.9270   48.6810   52.7550 O   0  0  0  0  0  0  0  0  0  0  0  0
    9.7680   47.0010   51.7050 C   0  0  0  0  0  0  0  0  0  0  0  0
    9.4460   45.6850   50.9910 C   0  0  0  0  0  0  0  0  0  0  0  0
    7.9160   45.4880   50.9140 C   0  0  0  0  0  0  0  0  0  0  0  0
    7.2920   46.1910   52.0340 N   0  0  0  0  0  0  0  0  0  0  0  0
    5.8840   46.1330   52.3510 C   0  0  0  0  0  0  0  0  0  0  0  0
    4.9150   46.1810   51.3290 C   0  0  0  0  0  0  0  0  0  0  0  0
    3.5530   46.1360   51.6370 C   0  0  0  0  0  0  0  0  0  0  0  0
    3.1350   46.0380   52.9640 C   0  0  0  0  0  0  0  0  0  0  0  0
    4.0800   45.9790   53.9980 C   0  0  0  0  0  0  0  0  0  0  0  0
    3.6400   45.8740   55.4330 C   0  0  0  0  0  0  0  0  0  0  0  0
    2.6460   44.8140   55.5850 N   0  0  0  0  0  0  0  0  0  0  0  0
    1.2640   45.0900   55.8580 C   0  0  0  0  0  0  0  0  0  0  0  0
    0.2750   44.6160   55.0400 N   0  0  0  0  0  0  0  0  0  0  0  0
   -1.0480   44.8760   55.2870 C   0  0  0  0  0  0  0  0  0  0  0  0
   -1.4170   45.6260   56.3700 N   0  0  0  0  0  0  0  0  0  0  0  0
   -0.4420   46.0960   57.1830 C   0  0  0  0  0  0  0  0  0  0  0  0
   -0.6100   46.8560   58.2780 N   0  0  0  0  0  0  0  0  0  0  0  0
    0.6710   47.0500   58.6940 C   0  0  0  0  0  0  0  0  0  0  0  0
    1.5980   46.4490   57.9070 N   0  0  0  0  0  0  0  0  0  0  0  0
    0.8700   45.8510   56.9560 C   0  0  0  0  0  0  0  0  0  0  0  0
    5.4490   46.0230   53.6870 C   0  0  0  0  0  0  0  0  0  0  0  0
    9.8485   47.8262   50.9821 H   0  0  0  0  0  0  0  0  0  0  0  0
   10.7289   46.9632   52.2392 H   0  0  0  0  0  0  0  0  0  0  0  0
    9.8618   45.7114   49.9730 H   0  0  0  0  0  0  0  0  0  0  0  0
    9.8903   44.8504   51.5532 H   0  0  0  0  0  0  0  0  0  0  0  0
    7.5382   45.8962   49.9650 H   0  0  0  0  0  0  0  0  0  0  0  0
    7.6748   44.4160   50.9653 H   0  0  0  0  0  0  0  0  0  0  0  0
    5.2340   46.2546   50.2788 H   0  0  0  0  0  0  0  0  0  0  0  0
    2.8072   46.1780   50.8295 H   0  0  0  0  0  0  0  0  0  0  0  0
    2.0611   46.0069   53.2000 H   0  0  0  0  0  0  0  0  0  0  0  0
    4.5120   45.6462   56.0637 H   0  0  0  0  0  0  0  0  0  0  0  0
    3.1912   46.8304   55.7394 H   0  0  0  0  0  0  0  0  0  0  0  0
    2.9680   43.8250   55.4970 H   0  0  0  0  0  0  0  0  0  0  0  0
   -1.8184   44.4788   54.6097 H   0  0  0  0  0  0  0  0  0  0  0  0
    0.9307   47.6395   59.5857 H   0  0  0  0  0  0  0  0  0  0  0  0
    2.6360   46.4650   58.0230 H   0  0  0  0  0  0  0  0  0  0  0  0
    6.1915   45.9709   54.4969 H   0  0  0  0  0  0  0  0  0  0  0  0
  1  2  2  0
  2  3  2  0
  2  4  1  0
  4  5  1  0
  5  6  1  0
  6  7  1  0
  7  8  1  0
  8  9  2  0
  9 10  1  0
 10 11  2  0
 11 12  1  0
 12 13  1  0
 13 14  1  0
 14 15  1  0
 15 16  2  0
 16 17  1  0
 17 18  2  0
 18 19  1  0
 19 20  1  0
 20 21  2  0
 21 22  1  0
 22 23  1  0
 12 24  2  0
  7  2  1  0
 24  8  1  0
 23 15  1  0
 23 19  2  0
  4 25  1  0
  4 26  1  0
  5 27  1  0
  5 28  1  0
  6 29  1  0
  6 30  1  0
  9 31  1  0
 10 32  1  0
 11 33  1  0
 13 34  1  0
 13 35  1  0
 14 36  1  0
 17 37  1  0
 21 38  1  0
 22 39  1  0
 24 40  1  0
M  END
>  <meeko>  (4) 
{"is_sidechain": [false], "free_energy": -7.77, "intermolecular_energy": -10.463, "internal_energy": -0.353}

$$$$
ligand_40_conformer_5_docked
     RDKit          3D

 40 43  0  0  0  0  0  0  0  0999 V2000
    0.4270   42.2780   52.5910 O   0  0  0  0  0  0  0  0  0  0  0  0
    0.9290   43.6870   52.4550 S   0  0  0  0  0  0  0  0  0  0  0  0
    0.5940   44.2680   51.1080 O   0  0  0  0  0  0  0  0  0  0  0  0
    0.3510   44.7100   53.7650 C   0  0  0  0  0  0  0  0  0  0  0  0
    1.5190   44.7590   54.7540 C   0  0  0  0  0  0  0  0  0  0  0  0
    2.8550   44.5720   54.0030 C   0  0  0  0  0  0  0  0  0  0  0  0
    2.6100   43.7920   52.7910 N   0  0  0  0  0  0  0  0  0  0  0  0
    3.6460   43.3230   51.8990 C   0  0  0  0  0  0  0  0  0  0  0  0
    3.6020   42.0190   51.3670 C   0  0  0  0  0  0  0  0  0  0  0  0
    4.6100   41.5640   50.5150 C   0  0  0  0  0  0  0  0  0  0  0  0
    5.6740   42.3990   50.1750 C   0  0  0  0  0  0  0  0  0  0  0  0
    5.7350   43.7040   50.6830 C   0  0  0  0  0  0  0  0  0  0  0  0
    6.8800   44.6130   50.3230 C   0  0  0  0  0  0  0  0  0  0  0  0
    6.6200   45.9710   50.7950 N   0  0  0  0  0  0  0  0  0  0  0  0
    6.8890   46.3800   52.1440 C   0  0  0  0  0  0  0  0  0  0  0  0
    5.8710   46.5940   53.0320 N   0  0  0  0  0  0  0  0  0  0  0  0
    6.1140   46.9880   54.3230 C   0  0  0  0  0  0  0  0  0  0  0  0
    7.3960   47.1810   54.7590 N   0  0  0  0  0  0  0  0  0  0  0  0
    8.4070   46.9690   53.8830 C   0  0  0  0  0  0  0  0  0  0  0  0
    9.7200   47.1200   54.1250 N   0  0  0  0  0  0  0  0  0  0  0  0
   10.2740   46.7980   52.9250 C   0  0  0  0  0  0  0  0  0  0  0  0
    9.3630   46.4650   51.9750 N   0  0  0  0  0  0  0  0  0  0  0  0
    8.1880   46.5800   52.6060 C   0  0  0  0  0  0  0  0  0  0  0  0
    4.7210   44.1610   51.5390 C   0  0  0  0  0  0  0  0  0  0  0  0
    0.1117   45.7179   53.3951 H   0  0  0  0  0  0  0  0  0  0  0  0
   -0.5708   44.3228   54.2237 H   0  0  0  0  0  0  0  0  0  0  0  0
    1.5221   45.7325   55.2661 H   0  0  0  0  0  0  0  0  0  0  0  0
    1.4026   43.9504   55.4906 H   0  0  0  0  0  0  0  0  0  0  0  0
    3.2677   45.5551   53.7326 H   0  0  0  0  0  0  0  0  0  0  0  0
    3.5747   44.0453   54.6469 H   0  0  0  0  0  0  0  0  0  0  0  0
    2.7654   41.3532   51.6255 H   0  0  0  0  0  0  0  0  0  0  0  0
    4.5648   40.5423   50.1100 H   0  0  0  0  0  0  0  0  0  0  0  0
    6.4672   42.0327   49.5066 H   0  0  0  0  0  0  0  0  0  0  0  0
    7.8020   44.2371   50.7905 H   0  0  0  0  0  0  0  0  0  0  0  0
    6.9911   44.6307   49.2288 H   0  0  0  0  0  0  0  0  0  0  0  0
    6.2160   46.6550   50.1180 H   0  0  0  0  0  0  0  0  0  0  0  0
    5.2723   47.1499   55.0124 H   0  0  0  0  0  0  0  0  0  0  0  0
   11.3586   46.8066   52.7415 H   0  0  0  0  0  0  0  0  0  0  0  0
    9.5500   46.1910   50.9850 H   0  0  0  0  0  0  0  0  0  0  0  0
    4.7656   45.1866   51.9342 H   0  0  0  0  0  0  0  0  0  0  0  0
  1  2  2  0
  2  3  2  0
  2  4  1  0
  4  5  1  0
  5  6  1  0
  6  7  1  0
  7  8  1  0
  8  9  2  0
  9 10  1  0
 10 11  2  0
 11 12  1  0
 12 13  1  0
 13 14  1  0
 14 15  1  0
 15 16  2  0
 16 17  1  0
 17 18  2  0
 18 19  1  0
 19 20  1  0
 20 21  2  0
 21 22  1  0
 22 23  1  0
 12 24  2  0
  7  2  1  0
 24  8  1  0
 23 15  1  0
 23 19  2  0
  4 25  1  0
  4 26  1  0
  5 27  1  0
  5 28  1  0
  6 29  1  0
  6 30  1  0
  9 31  1  0
 10 32  1  0
 11 33  1  0
 13 34  1  0
 13 35  1  0
 14 36  1  0
 17 37  1  0
 21 38  1  0
 22 39  1  0
 24 40  1  0
M  END
>  <meeko>  (5) 
{"is_sidechain": [false], "free_energy": -7.703, "intermolecular_energy": -10.614, "internal_energy": -0.119}

$$$$
