ligand_87_conformer_3_docked
     RDKit          3D

 42 46  0  0  0  0  0  0  0  0999 V2000
   -0.3980   45.1620   56.7790 C   0  0  0  0  0  0  0  0  0  0  0  0
    0.9140   45.0970   56.3050 C   0  0  0  0  0  0  0  0  0  0  0  0
    1.1880   44.4810   55.0800 C   0  0  0  0  0  0  0  0  0  0  0  0
    0.1480   43.9080   54.3260 C   0  0  0  0  0  0  0  0  0  0  0  0
   -1.1800   44.0230   54.7880 C   0  0  0  0  0  0  0  0  0  0  0  0
   -1.4440   44.6300   56.0200 C   0  0  0  0  0  0  0  0  0  0  0  0
   -2.2410   43.5230   54.0260 O   0  0  0  0  0  0  0  0  0  0  0  0
   -2.0660   43.1090   52.6730 C   0  0  0  0  0  0  0  0  0  0  0  0
   -0.7460   42.3550   52.5230 C   0  0  0  0  0  0  0  0  0  0  0  0
    0.4330   43.2340   52.9930 C   0  0  2  0  0  0  0  0  0  0  0  0
    1.6600   42.4300   53.0470 N   0  0  0  0  0  0  0  0  0  0  0  0
    2.8490   42.7710   52.3230 C   0  0  0  0  0  0  0  0  0  0  0  0
    3.2000   42.2050   51.1550 N   0  0  0  0  0  0  0  0  0  0  0  0
    4.3360   42.7850   50.7970 N   0  0  0  0  0  0  0  0  0  0  0  0
    4.6280   43.6800   51.7630 C   0  0  0  0  0  0  0  0  0  0  0  0
    5.8070   44.5570   51.7690 C   0  0  0  0  0  0  0  0  0  0  0  0
    6.5310   44.8110   50.5930 C   0  0  0  0  0  0  0  0  0  0  0  0
    7.6430   45.6530   50.6360 C   0  0  0  0  0  0  0  0  0  0  0  0
    8.0280   46.2380   51.8490 C   0  0  0  0  0  0  0  0  0  0  0  0
    9.1400   47.0890   51.9280 C   0  0  0  0  0  0  0  0  0  0  0  0
    9.4970   47.6590   53.1560 C   0  0  0  0  0  0  0  0  0  0  0  0
    8.7500   47.3820   54.3040 C   0  0  0  0  0  0  0  0  0  0  0  0
    7.6400   46.5330   54.2340 C   0  0  0  0  0  0  0  0  0  0  0  0
    7.2750   45.9590   53.0110 C   0  0  0  0  0  0  0  0  0  0  0  0
    6.1960   45.1350   52.9390 N   0  0  0  0  0  0  0  0  0  0  0  0
    3.7160   43.6750   52.7060 O   0  0  0  0  0  0  0  0  0  0  0  0
   -0.6084   45.6324   57.7508 H   0  0  0  0  0  0  0  0  0  0  0  0
    1.7335   45.5313   56.8965 H   0  0  0  0  0  0  0  0  0  0  0  0
    2.2212   44.4444   54.7044 H   0  0  0  0  0  0  0  0  0  0  0  0
   -2.4773   44.6888   56.3925 H   0  0  0  0  0  0  0  0  0  0  0  0
   -2.8972   42.4491   52.3837 H   0  0  0  0  0  0  0  0  0  0  0  0
   -2.0503   43.9965   52.0234 H   0  0  0  0  0  0  0  0  0  0  0  0
   -0.7805   41.4394   53.1317 H   0  0  0  0  0  0  0  0  0  0  0  0
   -0.5998   42.0994   51.4631 H   0  0  0  0  0  0  0  0  0  0  0  0
    0.5714   44.0436   52.2613 H   0  0  0  0  0  0  0  0  0  0  0  0
    1.6660   41.5660   53.6330 H   0  0  0  0  0  0  0  0  0  0  0  0
    6.2234   44.3489   49.6433 H   0  0  0  0  0  0  0  0  0  0  0  0
    8.2159   45.8568   49.7193 H   0  0  0  0  0  0  0  0  0  0  0  0
    9.7309   47.3083   51.0265 H   0  0  0  0  0  0  0  0  0  0  0  0
   10.3686   48.3272   53.2173 H   0  0  0  0  0  0  0  0  0  0  0  0
    9.0355   47.8329   55.2659 H   0  0  0  0  0  0  0  0  0  0  0  0
    7.0546   46.3168   55.1398 H   0  0  0  0  0  0  0  0  0  0  0  0
  1  2  2  0
  2  3  1  0
  3  4  2  0
  4  5  1  0
  5  6  2  0
  5  7  1  0
  7  8  1  0
  8  9  1  0
  9 10  1  0
 10 11  1  0
 11 12  1  0
 12 13  2  0
 13 14  1  0
 14 15  2  0
 15 16  1  0
 16 17  2  0
 17 18  1  0
 18 19  2  0
 19 20  1  0
 20 21  2  0
 21 22  1  0
 22 23  2  0
 23 24  1  0
 24 25  2  0
 15 26  1  0
  6  1  1  0
 26 12  1  0
 10  4  1  0
 25 16  1  0
 24 19  1  0
  1 27  1  0
  2 28  1  0
  3 29  1  0
  6 30  1  0
  8 31  1  0
  8 32  1  0
  9 33  1  0
  9 34  1  0
 10 35  1  6
 11 36  1  0
 17 37  1  0
 18 38  1  0
 20 39  1  0
 21 40  1  0
 22 41  1  0
 23 42  1  0
M  END
>  <meeko>  (1) 
{"is_sidechain": [false], "free_energy": -10.107, "intermolecular_energy": -11.879, "internal_energy": -0.551}

$$$$
ligand_87_conformer_3_docked
     RDKit          3D

 42 46  0  0  0  0  0  0  0  0999 V2000
   -0.6200   44.8530   56.8260 C   0  0  0  0  0  0  0  0  0  0  0  0
    0.5890   45.2160   56.2290 C   0  0  0  0  0  0  0  0  0  0  0  0
    0.8060   44.9620   54.8710 C   0  0  0  0  0  0  0  0  0  0  0  0
   -0.1830   44.3230   54.1020 C   0  0  0  0  0  0  0  0  0  0  0  0
   -1.4200   44.0040   54.7020 C   0  0  0  0  0  0  0  0  0  0  0  0
   -1.6250   44.2510   56.0630 C   0  0  0  0  0  0  0  0  0  0  0  0
   -2.4470   43.4310   53.9440 O   0  0  0  0  0  0  0  0  0  0  0  0
   -2.3890   43.3700   52.5210 C   0  0  0  0  0  0  0  0  0  0  0  0
   -0.9730   43.0150   52.0700 C   0  0  0  0  0  0  0  0  0  0  0  0
    0.0410   44.0390   52.6250 C   0  0  2  0  0  0  0  0  0  0  0  0
    1.4090   43.5710   52.3680 N   0  0  0  0  0  0  0  0  0  0  0  0
    2.4500   44.4310   51.8880 C   0  0  0  0  0  0  0  0  0  0  0  0
    2.2540   45.4090   50.9860 N   0  0  0  0  0  0  0  0  0  0  0  0
    3.4350   45.9830   50.8100 N   0  0  0  0  0  0  0  0  0  0  0  0
    4.2990   45.3290   51.6140 C   0  0  0  0  0  0  0  0  0  0  0  0
    5.7300   45.6420   51.7420 C   0  0  0  0  0  0  0  0  0  0  0  0
    6.6220   45.4130   50.6830 C   0  0  0  0  0  0  0  0  0  0  0  0
    7.9730   45.7260   50.8400 C   0  0  0  0  0  0  0  0  0  0  0  0
    8.4280   46.2670   52.0490 C   0  0  0  0  0  0  0  0  0  0  0  0
    9.7790   46.5940   52.2410 C   0  0  0  0  0  0  0  0  0  0  0  0
   10.2000   47.1330   53.4610 C   0  0  0  0  0  0  0  0  0  0  0  0
    9.2790   47.3480   54.4910 C   0  0  0  0  0  0  0  0  0  0  0  0
    7.9310   47.0240   54.3090 C   0  0  0  0  0  0  0  0  0  0  0  0
    7.5000   46.4840   53.0910 C   0  0  0  0  0  0  0  0  0  0  0  0
    6.1900   46.1680   52.9100 N   0  0  0  0  0  0  0  0  0  0  0  0
    3.6990   44.3720   52.2790 O   0  0  0  0  0  0  0  0  0  0  0  0
   -0.7818   45.0409   57.8977 H   0  0  0  0  0  0  0  0  0  0  0  0
    1.3725   45.7029   56.8282 H   0  0  0  0  0  0  0  0  0  0  0  0
    1.7544   45.2633   54.4023 H   0  0  0  0  0  0  0  0  0  0  0  0
   -2.5788   43.9711   56.5342 H   0  0  0  0  0  0  0  0  0  0  0  0
   -3.0893   42.6021   52.1605 H   0  0  0  0  0  0  0  0  0  0  0  0
   -2.6646   44.3508   52.1062 H   0  0  0  0  0  0  0  0  0  0  0  0
   -0.7152   42.0120   52.4409 H   0  0  0  0  0  0  0  0  0  0  0  0
   -0.9334   43.0331   50.9709 H   0  0  0  0  0  0  0  0  0  0  0  0
   -0.1123   44.9936   52.1004 H   0  0  0  0  0  0  0  0  0  0  0  0
    1.6330   42.5660   52.5350 H   0  0  0  0  0  0  0  0  0  0  0  0
    6.2586   44.9894   49.7351 H   0  0  0  0  0  0  0  0  0  0  0  0
    8.6792   45.5481   50.0156 H   0  0  0  0  0  0  0  0  0  0  0  0
   10.5062   46.4266   51.4328 H   0  0  0  0  0  0  0  0  0  0  0  0
   11.2593   47.3887   53.6108 H   0  0  0  0  0  0  0  0  0  0  0  0
    9.6161   47.7735   55.4477 H   0  0  0  0  0  0  0  0  0  0  0  0
    7.2096   47.1932   55.1220 H   0  0  0  0  0  0  0  0  0  0  0  0
  1  2  2  0
  2  3  1  0
  3  4  2  0
  4  5  1  0
  5  6  2  0
  5  7  1  0
  7  8  1  0
  8  9  1  0
  9 10  1  0
 10 11  1  0
 11 12  1  0
 12 13  2  0
 13 14  1  0
 14 15  2  0
 15 16  1  0
 16 17  2  0
 17 18  1  0
 18 19  2  0
 19 20  1  0
 20 21  2  0
 21 22  1  0
 22 23  2  0
 23 24  1  0
 24 25  2  0
 15 26  1  0
  6  1  1  0
 26 12  1  0
 10  4  1  0
 25 16  1  0
 24 19  1  0
  1 27  1  0
  2 28  1  0
  3 29  1  0
  6 30  1  0
  8 31  1  0
  8 32  1  0
  9 33  1  0
  9 34  1  0
 10 35  1  6
 11 36  1  0
 17 37  1  0
 18 38  1  0
 20 39  1  0
 21 40  1  0
 22 41  1  0
 23 42  1  0
M  END
>  <meeko>  (2) 
{"is_sidechain": [false], "free_energy": -9.725, "intermolecular_energy": -11.566, "internal_energy": -0.415}

$$$$
ligand_87_conformer_3_docked
     RDKit          3D

 42 46  0  0  0  0  0  0  0  0999 V2000
   -3.2550   45.4980   53.6230 C   0  0  0  0  0  0  0  0  0  0  0  0
   -2.8820   45.9010   52.3380 C   0  0  0  0  0  0  0  0  0  0  0  0
   -1.7920   45.2990   51.7020 C   0  0  0  0  0  0  0  0  0  0  0  0
   -1.0520   44.2990   52.3580 C   0  0  0  0  0  0  0  0  0  0  0  0
   -1.4660   43.8630   53.6350 C   0  0  0  0  0  0  0  0  0  0  0  0
   -2.5500   44.4780   54.2680 C   0  0  0  0  0  0  0  0  0  0  0  0
   -0.7910   42.8220   54.2810 O   0  0  0  0  0  0  0  0  0  0  0  0
    0.1600   42.0060   53.6020 C   0  0  0  0  0  0  0  0  0  0  0  0
    1.0230   42.8660   52.6790 C   0  0  0  0  0  0  0  0  0  0  0  0
    0.1370   43.6370   51.6780 C   0  0  2  0  0  0  0  0  0  0  0  0
    0.9510   44.6150   50.9460 N   0  0  0  0  0  0  0  0  0  0  0  0
    2.0720   45.2900   51.5290 C   0  0  0  0  0  0  0  0  0  0  0  0
    1.9670   46.2010   52.5130 N   0  0  0  0  0  0  0  0  0  0  0  0
    3.2050   46.5810   52.7890 N   0  0  0  0  0  0  0  0  0  0  0  0
    4.0110   45.8850   51.9630 C   0  0  0  0  0  0  0  0  0  0  0  0
    5.4770   45.9890   51.9320 C   0  0  0  0  0  0  0  0  0  0  0  0
    6.2120   45.5800   50.8090 C   0  0  0  0  0  0  0  0  0  0  0  0
    7.6030   45.6970   50.8140 C   0  0  0  0  0  0  0  0  0  0  0  0
    8.2540   46.2240   51.9370 C   0  0  0  0  0  0  0  0  0  0  0  0
    9.6500   46.3570   51.9760 C   0  0  0  0  0  0  0  0  0  0  0  0
   10.2690   46.8880   53.1140 C   0  0  0  0  0  0  0  0  0  0  0  0
    9.5000   47.2850   54.2120 C   0  0  0  0  0  0  0  0  0  0  0  0
    8.1090   47.1550   54.1810 C   0  0  0  0  0  0  0  0  0  0  0  0
    7.4800   46.6260   53.0480 C   0  0  0  0  0  0  0  0  0  0  0  0
    6.1270   46.4990   53.0150 N   0  0  0  0  0  0  0  0  0  0  0  0
    3.3200   45.0890   51.1830 O   0  0  0  0  0  0  0  0  0  0  0  0
   -4.1036   45.9836   54.1270 H   0  0  0  0  0  0  0  0  0  0  0  0
   -3.4471   46.6936   51.8257 H   0  0  0  0  0  0  0  0  0  0  0  0
   -1.5121   45.6088   50.6843 H   0  0  0  0  0  0  0  0  0  0  0  0
   -2.8491   44.1581   55.2771 H   0  0  0  0  0  0  0  0  0  0  0  0
    0.8035   41.5054   54.3404 H   0  0  0  0  0  0  0  0  0  0  0  0
   -0.3730   41.2545   53.0011 H   0  0  0  0  0  0  0  0  0  0  0  0
    1.5960   43.5843   53.2838 H   0  0  0  0  0  0  0  0  0  0  0  0
    1.7078   42.2121   52.1192 H   0  0  0  0  0  0  0  0  0  0  0  0
   -0.2798   42.9143   50.9611 H   0  0  0  0  0  0  0  0  0  0  0  0
    0.6970   44.8360   49.9570 H   0  0  0  0  0  0  0  0  0  0  0  0
    5.6948   45.1693   49.9293 H   0  0  0  0  0  0  0  0  0  0  0  0
    8.1865   45.3762   49.9384 H   0  0  0  0  0  0  0  0  0  0  0  0
   10.2574   46.0445   51.1138 H   0  0  0  0  0  0  0  0  0  0  0  0
   11.3635   46.9931   53.1443 H   0  0  0  0  0  0  0  0  0  0  0  0
    9.9917   47.7012   55.1036 H   0  0  0  0  0  0  0  0  0  0  0  0
    7.5081   47.4685   55.0474 H   0  0  0  0  0  0  0  0  0  0  0  0
  1  2  2  0
  2  3  1  0
  3  4  2  0
  4  5  1  0
  5  6  2  0
  5  7  1  0
  7  8  1  0
  8  9  1  0
  9 10  1  0
 10 11  1  0
 11 12  1  0
 12 13  2  0
 13 14  1  0
 14 15  2  0
 15 16  1  0
 16 17  2  0
 17 18  1  0
 18 19  2  0
 19 20  1  0
 20 21  2  0
 21 22  1  0
 22 23  2  0
 23 24  1  0
 24 25  2  0
 15 26  1  0
  6  1  1  0
 26 12  1  0
 10  4  1  0
 25 16  1  0
 24 19  1  0
  1 27  1  0
  2 28  1  0
  3 29  1  0
  6 30  1  0
  8 31  1  0
  8 32  1  0
  9 33  1  0
  9 34  1  0
 10 35  1  6
 11 36  1  0
 17 37  1  0
 18 38  1  0
 20 39  1  0
 21 40  1  0
 22 41  1  0
 23 42  1  0
M  END
>  <meeko>  (3) 
{"is_sidechain": [false], "free_energy": -9.546, "intermolecular_energy": -11.221, "internal_energy": -0.55}

$$$$
ligand_87_conformer_3_docked
     RDKit          3D

 42 46  0  0  0  0  0  0  0  0999 V2000
   -3.6260   45.6020   55.1370 C   0  0  0  0  0  0  0  0  0  0  0  0
   -3.2530   44.9180   53.9780 C   0  0  0  0  0  0  0  0  0  0  0  0
   -1.9280   44.5060   53.8030 C   0  0  0  0  0  0  0  0  0  0  0  0
   -0.9600   44.7940   54.7810 C   0  0  0  0  0  0  0  0  0  0  0  0
   -1.3570   45.4410   55.9710 C   0  0  0  0  0  0  0  0  0  0  0  0
   -2.6810   45.8600   56.1340 C   0  0  0  0  0  0  0  0  0  0  0  0
   -0.4290   45.6780   56.9910 O   0  0  0  0  0  0  0  0  0  0  0  0
    0.8630   45.0760   56.9880 C   0  0  0  0  0  0  0  0  0  0  0  0
    1.4380   45.0800   55.5720 C   0  0  0  0  0  0  0  0  0  0  0  0
    0.4840   44.3530   54.6010 C   0  0  2  0  0  0  0  0  0  0  0  0
    0.9390   44.5490   53.2190 N   0  0  0  0  0  0  0  0  0  0  0  0
    2.0380   45.4000   52.8720 C   0  0  0  0  0  0  0  0  0  0  0  0
    1.9200   46.7220   52.6590 N   0  0  0  0  0  0  0  0  0  0  0  0
    3.1400   47.1550   52.3800 N   0  0  0  0  0  0  0  0  0  0  0  0
    3.9490   46.0770   52.4360 C   0  0  0  0  0  0  0  0  0  0  0  0
    5.3990   46.1010   52.1980 C   0  0  0  0  0  0  0  0  0  0  0  0
    5.9460   45.6480   50.9860 C   0  0  0  0  0  0  0  0  0  0  0  0
    7.3280   45.6890   50.7950 C   0  0  0  0  0  0  0  0  0  0  0  0
    8.1580   46.1810   51.8100 C   0  0  0  0  0  0  0  0  0  0  0  0
    9.5500   46.2370   51.6510 C   0  0  0  0  0  0  0  0  0  0  0  0
   10.3520   46.7350   52.6840 C   0  0  0  0  0  0  0  0  0  0  0  0
    9.7690   47.1770   53.8760 C   0  0  0  0  0  0  0  0  0  0  0  0
    8.3820   47.1240   54.0430 C   0  0  0  0  0  0  0  0  0  0  0  0
    7.5720   46.6270   53.0150 C   0  0  0  0  0  0  0  0  0  0  0  0
    6.2220   46.5750   53.1730 N   0  0  0  0  0  0  0  0  0  0  0  0
    3.2760   44.9930   52.7380 O   0  0  0  0  0  0  0  0  0  0  0  0
   -4.6654   45.9383   55.2655 H   0  0  0  0  0  0  0  0  0  0  0  0
   -4.0022   44.7030   53.2018 H   0  0  0  0  0  0  0  0  0  0  0  0
   -1.6418   43.9539   52.8957 H   0  0  0  0  0  0  0  0  0  0  0  0
   -2.9794   46.3936   57.0485 H   0  0  0  0  0  0  0  0  0  0  0  0
    1.5305   45.6426   57.6539 H   0  0  0  0  0  0  0  0  0  0  0  0
    0.7784   44.0375   57.3405 H   0  0  0  0  0  0  0  0  0  0  0  0
    1.5716   46.1196   55.2382 H   0  0  0  0  0  0  0  0  0  0  0  0
    2.4059   44.5574   55.5788 H   0  0  0  0  0  0  0  0  0  0  0  0
    0.5099   43.2782   54.8338 H   0  0  0  0  0  0  0  0  0  0  0  0
    0.4340   44.0520   52.4520 H   0  0  0  0  0  0  0  0  0  0  0  0
    5.2890   45.2632   50.1921 H   0  0  0  0  0  0  0  0  0  0  0  0
    7.7643   45.3356   49.8491 H   0  0  0  0  0  0  0  0  0  0  0  0
   10.0114   45.8897   50.7148 H   0  0  0  0  0  0  0  0  0  0  0  0
   11.4439   46.7789   52.5582 H   0  0  0  0  0  0  0  0  0  0  0  0
   10.4040   47.5676   54.6848 H   0  0  0  0  0  0  0  0  0  0  0  0
    7.9272   47.4727   54.9819 H   0  0  0  0  0  0  0  0  0  0  0  0
  1  2  2  0
  2  3  1  0
  3  4  2  0
  4  5  1  0
  5  6  2  0
  5  7  1  0
  7  8  1  0
  8  9  1  0
  9 10  1  0
 10 11  1  0
 11 12  1  0
 12 13  2  0
 13 14  1  0
 14 15  2  0
 15 16  1  0
 16 17  2  0
 17 18  1  0
 18 19  2  0
 19 20  1  0
 20 21  2  0
 21 22  1  0
 22 23  2  0
 23 24  1  0
 24 25  2  0
 15 26  1  0
  6  1  1  0
 26 12  1  0
 10  4  1  0
 25 16  1  0
 24 19  1  0
  1 27  1  0
  2 28  1  0
  3 29  1  0
  6 30  1  0
  8 31  1  0
  8 32  1  0
  9 33  1  0
  9 34  1  0
 10 35  1  1
 11 36  1  0
 17 37  1  0
 18 38  1  0
 20 39  1  0
 21 40  1  0
 22 41  1  0
 23 42  1  0
M  END
>  <meeko>  (4) 
{"is_sidechain": [false], "free_energy": -9.334, "intermolecular_energy": -11.084, "internal_energy": -0.438}

$$$$
ligand_87_conformer_3_docked
     RDKit          3D

 42 46  0  0  0  0  0  0  0  0999 V2000
    9.9450   47.2260   53.4820 C   0  0  0  0  0  0  0  0  0  0  0  0
    8.8000   47.4020   54.2630 C   0  0  0  0  0  0  0  0  0  0  0  0
    7.5630   46.9370   53.8090 C   0  0  0  0  0  0  0  0  0  0  0  0
    7.4570   46.3090   52.5550 C   0  0  0  0  0  0  0  0  0  0  0  0
    8.6260   46.0910   51.7960 C   0  0  0  0  0  0  0  0  0  0  0  0
    9.8590   46.5680   52.2520 C   0  0  0  0  0  0  0  0  0  0  0  0
    8.5620   45.4070   50.5770 O   0  0  0  0  0  0  0  0  0  0  0  0
    7.3920   44.6990   50.1720 C   0  0  0  0  0  0  0  0  0  0  0  0
    6.1440   45.5020   50.5340 C   0  0  0  0  0  0  0  0  0  0  0  0
    6.1160   45.8020   52.0480 C   0  0  2  0  0  0  0  0  0  0  0  0
    5.0340   46.7480   52.3470 N   0  0  0  0  0  0  0  0  0  0  0  0
    3.6710   46.3450   52.5280 C   0  0  0  0  0  0  0  0  0  0  0  0
    2.7980   46.1890   51.5180 N   0  0  0  0  0  0  0  0  0  0  0  0
    1.6620   45.7990   52.0760 N   0  0  0  0  0  0  0  0  0  0  0  0
    1.8930   45.7340   53.4040 C   0  0  0  0  0  0  0  0  0  0  0  0
    0.9010   45.3350   54.4110 C   0  0  0  0  0  0  0  0  0  0  0  0
    1.1920   45.3950   55.7840 C   0  0  0  0  0  0  0  0  0  0  0  0
    0.2230   45.0110   56.7120 C   0  0  0  0  0  0  0  0  0  0  0  0
   -1.0310   44.5700   56.2690 C   0  0  0  0  0  0  0  0  0  0  0  0
   -2.0280   44.1780   57.1750 C   0  0  0  0  0  0  0  0  0  0  0  0
   -3.2700   43.7430   56.7000 C   0  0  0  0  0  0  0  0  0  0  0  0
   -3.5210   43.6980   55.3250 C   0  0  0  0  0  0  0  0  0  0  0  0
   -2.5320   44.0860   54.4160 C   0  0  0  0  0  0  0  0  0  0  0  0
   -1.2870   44.5230   54.8810 C   0  0  0  0  0  0  0  0  0  0  0  0
   -0.3230   44.9030   54.0000 N   0  0  0  0  0  0  0  0  0  0  0  0
    3.1280   46.0700   53.6880 O   0  0  0  0  0  0  0  0  0  0  0  0
   10.9150   47.6056   53.8355 H   0  0  0  0  0  0  0  0  0  0  0  0
    8.8724   47.9076   55.2372 H   0  0  0  0  0  0  0  0  0  0  0  0
    6.6676   47.0627   54.4355 H   0  0  0  0  0  0  0  0  0  0  0  0
   10.7628   46.4250   51.6415 H   0  0  0  0  0  0  0  0  0  0  0  0
    7.4204   44.5407   49.0838 H   0  0  0  0  0  0  0  0  0  0  0  0
    7.3598   43.7288   50.6894 H   0  0  0  0  0  0  0  0  0  0  0  0
    6.1493   46.4504   49.9768 H   0  0  0  0  0  0  0  0  0  0  0  0
    5.2528   44.9133   50.2709 H   0  0  0  0  0  0  0  0  0  0  0  0
    5.9201   44.8601   52.5814 H   0  0  0  0  0  0  0  0  0  0  0  0
    5.2660   47.7630   52.4240 H   0  0  0  0  0  0  0  0  0  0  0  0
    2.1781   45.7427   56.1257 H   0  0  0  0  0  0  0  0  0  0  0  0
    0.4432   45.0544   57.7889 H   0  0  0  0  0  0  0  0  0  0  0  0
   -1.8335   44.2126   58.2571 H   0  0  0  0  0  0  0  0  0  0  0  0
   -4.0515   43.4354   57.4103 H   0  0  0  0  0  0  0  0  0  0  0  0
   -4.4998   43.3562   54.9574 H   0  0  0  0  0  0  0  0  0  0  0  0
   -2.7328   44.0476   53.3352 H   0  0  0  0  0  0  0  0  0  0  0  0
  1  2  2  0
  2  3  1  0
  3  4  2  0
  4  5  1  0
  5  6  2  0
  5  7  1  0
  7  8  1  0
  8  9  1  0
  9 10  1  0
 10 11  1  0
 11 12  1  0
 12 13  2  0
 13 14  1  0
 14 15  2  0
 15 16  1  0
 16 17  2  0
 17 18  1  0
 18 19  2  0
 19 20  1  0
 20 21  2  0
 21 22  1  0
 22 23  2  0
 23 24  1  0
 24 25  2  0
 15 26  1  0
  6  1  1  0
 26 12  1  0
 10  4  1  0
 25 16  1  0
 24 19  1  0
  1 27  1  0
  2 28  1  0
  3 29  1  0
  6 30  1  0
  8 31  1  0
  8 32  1  0
  9 33  1  0
  9 34  1  0
 10 35  1  1
 11 36  1  0
 17 37  1  0
 18 38  1  0
 20 39  1  0
 21 40  1  0
 22 41  1  0
 23 42  1  0
M  END
>  <meeko>  (5) 
{"is_sidechain": [false], "free_energy": -9.289, "intermolecular_energy": -11.034, "internal_energy": -0.434}

$$$$
