MODEL 1
REMARK VINA RESULT:    -7.680      0.000      0.000
REMARK INTER + INTRA:         -10.545
REMARK INTER:                  -9.925
REMARK INTRA:                  -0.619
REMARK UNBOUND:                -0.619
REMARK SMILES CC1(CC(=O)NCc2ccc(-n3cncn3)cc2)OCCO1
REMARK SMILES IDX 4 1 5 2 6 3 3 5 2 6 19 7 22 8 20 9 21 10 1 11 7 12 8 13 9 14
REMARK SMILES IDX 18 15 10 16 17 17 11 18 12 19 13 20 16 21 14 22 15 23
REMARK H PARENT 6 4
ROOT
ATOM      1  C   UNL     1       8.903  46.078  51.197  1.00  0.00     0.225 C 
ATOM      2  O   UNL     1       9.827  45.266  50.920  1.00  0.00    -0.275 OA
ATOM      3  N   UNL     1       7.574  45.857  50.704  1.00  0.00    -0.352 N 
ATOM      4  H   UNL     1       6.841  46.582  50.873  1.00  0.00     0.163 HD
ENDROOT
BRANCH   1   5
ATOM      5  C   UNL     1       9.195  47.256  52.082  1.00  0.00     0.165 C 
BRANCH   5   6
ATOM      6  C   UNL     1       8.736  47.032  53.538  1.00  0.00     0.174 C 
ATOM      7  O   UNL     1       8.279  45.702  53.660  1.00  0.00    -0.347 OA
ATOM      8  O   UNL     1       7.710  47.953  53.853  1.00  0.00    -0.347 OA
ATOM      9  C   UNL     1       6.908  45.785  53.880  1.00  0.00     0.192 C 
ATOM     10  C   UNL     1       6.638  47.194  54.310  1.00  0.00     0.192 C 
ATOM     11  C   UNL     1       9.898  47.232  54.522  1.00  0.00     0.076 C 
ENDBRANCH   5   6
ENDBRANCH   1   5
BRANCH   3  12
ATOM     12  C   UNL     1       7.176  44.605  50.064  1.00  0.00     0.151 C 
BRANCH  12  13
ATOM     13  C   UNL     1       5.799  44.212  50.523  1.00  0.00    -0.029 A 
ATOM     14  C   UNL     1       5.470  42.863  50.722  1.00  0.00     0.008 A 
ATOM     15  C   UNL     1       4.849  45.200  50.816  1.00  0.00     0.008 A 
ATOM     16  C   UNL     1       4.205  42.509  51.200  1.00  0.00     0.029 A 
ATOM     17  C   UNL     1       3.584  44.847  51.295  1.00  0.00     0.029 A 
ATOM     18  C   UNL     1       3.247  43.494  51.496  1.00  0.00     0.066 A 
BRANCH  18  19
ATOM     19  N   UNL     1       1.948  43.109  51.992  1.00  0.00    -0.221 N 
ATOM     20  C   UNL     1       0.774  43.093  51.331  1.00  0.00     0.225 A 
ATOM     21  N   UNL     1       1.717  42.706  53.229  1.00  0.00    -0.155 NA
ATOM     22  N   UNL     1      -0.233  42.680  52.126  1.00  0.00    -0.223 NA
ATOM     23  C   UNL     1       0.398  42.449  53.297  1.00  0.00     0.246 A 
ENDBRANCH  18  19
ENDBRANCH  12  13
ENDBRANCH   3  12
TORSDOF 5
ENDMDL
MODEL 2
REMARK VINA RESULT:    -7.646      3.695      7.544
REMARK INTER + INTRA:         -10.500
REMARK INTER:                  -9.667
REMARK INTRA:                  -0.833
REMARK UNBOUND:                -0.619
REMARK SMILES CC1(CC(=O)NCc2ccc(-n3cncn3)cc2)OCCO1
REMARK SMILES IDX 4 1 5 2 6 3 3 5 2 6 19 7 22 8 20 9 21 10 1 11 7 12 8 13 9 14
REMARK SMILES IDX 18 15 10 16 17 17 11 18 12 19 13 20 16 21 14 22 15 23
REMARK H PARENT 6 4
ROOT
ATOM      1  C   UNL     1       1.150  44.520  51.625  1.00  0.00     0.225 C 
ATOM      2  O   UNL     1       1.356  43.667  50.721  1.00  0.00    -0.275 OA
ATOM      3  N   UNL     1       2.050  45.625  51.797  1.00  0.00    -0.352 N 
ATOM      4  H   UNL     1       1.910  46.274  52.603  1.00  0.00     0.163 HD
ENDROOT
BRANCH   1   5
ATOM      5  C   UNL     1      -0.068  44.396  52.496  1.00  0.00     0.165 C 
BRANCH   5   6
ATOM      6  C   UNL     1       0.243  43.753  53.864  1.00  0.00     0.174 C 
ATOM      7  O   UNL     1      -0.743  44.170  54.785  1.00  0.00    -0.347 OA
ATOM      8  O   UNL     1       1.533  44.151  54.286  1.00  0.00    -0.347 OA
ATOM      9  C   UNL     1      -0.091  44.988  55.702  1.00  0.00     0.192 C 
ATOM     10  C   UNL     1       1.371  44.702  55.552  1.00  0.00     0.192 C 
ATOM     11  C   UNL     1       0.202  42.220  53.778  1.00  0.00     0.076 C 
ENDBRANCH   5   6
ENDBRANCH   1   5
BRANCH   3  12
ATOM     12  C   UNL     1       3.094  45.940  50.825  1.00  0.00     0.151 C 
BRANCH  12  13
ATOM     13  C   UNL     1       4.398  46.181  51.535  1.00  0.00    -0.029 A 
ATOM     14  C   UNL     1       5.605  45.727  50.985  1.00  0.00     0.008 A 
ATOM     15  C   UNL     1       4.421  46.920  52.725  1.00  0.00     0.008 A 
ATOM     16  C   UNL     1       6.818  46.001  51.624  1.00  0.00     0.029 A 
ATOM     17  C   UNL     1       5.634  47.196  53.365  1.00  0.00     0.029 A 
ATOM     18  C   UNL     1       6.849  46.742  52.819  1.00  0.00     0.066 A 
BRANCH  18  19
ATOM     19  N   UNL     1       8.111  47.019  53.461  1.00  0.00    -0.221 N 
ATOM     20  C   UNL     1       9.354  46.818  52.978  1.00  0.00     0.225 A 
ATOM     21  N   UNL     1       8.230  47.527  54.675  1.00  0.00    -0.155 NA
ATOM     22  N   UNL     1      10.294  47.191  53.869  1.00  0.00    -0.223 NA
ATOM     23  C   UNL     1       9.552  47.627  54.910  1.00  0.00     0.246 A 
ENDBRANCH  18  19
ENDBRANCH  12  13
ENDBRANCH   3  12
TORSDOF 5
ENDMDL
MODEL 3
REMARK VINA RESULT:    -7.634      1.352      2.496
REMARK INTER + INTRA:         -10.485
REMARK INTER:                  -9.993
REMARK INTRA:                  -0.492
REMARK UNBOUND:                -0.619
REMARK SMILES CC1(CC(=O)NCc2ccc(-n3cncn3)cc2)OCCO1
REMARK SMILES IDX 4 1 5 2 6 3 3 5 2 6 19 7 22 8 20 9 21 10 1 11 7 12 8 13 9 14
REMARK SMILES IDX 18 15 10 16 17 17 11 18 12 19 13 20 16 21 14 22 15 23
REMARK H PARENT 6 4
ROOT
ATOM      1  C   UNL     1       6.469  46.693  53.279  1.00  0.00     0.225 C 
ATOM      2  O   UNL     1       5.569  47.574  53.220  1.00  0.00    -0.275 OA
ATOM      3  N   UNL     1       6.536  45.659  52.287  1.00  0.00    -0.352 N 
ATOM      4  H   UNL     1       7.236  44.891  52.398  1.00  0.00     0.163 HD
ENDROOT
BRANCH   1   5
ATOM      5  C   UNL     1       7.497  46.759  54.373  1.00  0.00     0.165 C 
BRANCH   5   6
ATOM      6  C   UNL     1       8.893  47.162  53.852  1.00  0.00     0.174 C 
ATOM      7  O   UNL     1       8.725  48.116  52.825  1.00  0.00    -0.347 OA
ATOM      8  O   UNL     1       9.565  46.014  53.374  1.00  0.00    -0.347 OA
ATOM      9  C   UNL     1       9.134  47.492  51.651  1.00  0.00     0.192 C 
ATOM     10  C   UNL     1       9.945  46.305  52.068  1.00  0.00     0.192 C 
ATOM     11  C   UNL     1       9.737  47.800  54.966  1.00  0.00     0.076 C 
ENDBRANCH   5   6
ENDBRANCH   1   5
BRANCH   3  12
ATOM     12  C   UNL     1       5.734  45.694  51.067  1.00  0.00     0.151 C 
BRANCH  12  13
ATOM     13  C   UNL     1       4.418  45.004  51.300  1.00  0.00    -0.029 A 
ATOM     14  C   UNL     1       4.373  43.725  51.872  1.00  0.00     0.008 A 
ATOM     15  C   UNL     1       3.219  45.665  51.002  1.00  0.00     0.008 A 
ATOM     16  C   UNL     1       3.144  43.112  52.134  1.00  0.00     0.029 A 
ATOM     17  C   UNL     1       1.988  45.054  51.265  1.00  0.00     0.029 A 
ATOM     18  C   UNL     1       1.936  43.769  51.838  1.00  0.00     0.066 A 
BRANCH  18  19
ATOM     19  N   UNL     1       0.678  43.122  52.120  1.00  0.00    -0.221 N 
ATOM     20  C   UNL     1       0.362  42.334  53.168  1.00  0.00     0.225 A 
ATOM     21  N   UNL     1      -0.391  43.209  51.348  1.00  0.00    -0.155 NA
ATOM     22  N   UNL     1      -0.912  41.901  53.090  1.00  0.00    -0.223 NA
ATOM     23  C   UNL     1      -1.343  42.470  51.944  1.00  0.00     0.246 A 
ENDBRANCH  18  19
ENDBRANCH  12  13
ENDBRANCH   3  12
TORSDOF 5
ENDMDL
MODEL 4
REMARK VINA RESULT:    -7.487      3.759      7.484
REMARK INTER + INTRA:         -10.295
REMARK INTER:                  -9.336
REMARK INTRA:                  -0.959
REMARK UNBOUND:                -0.619
REMARK SMILES CC1(CC(=O)NCc2ccc(-n3cncn3)cc2)OCCO1
REMARK SMILES IDX 4 1 5 2 6 3 3 5 2 6 19 7 22 8 20 9 21 10 1 11 7 12 8 13 9 14
REMARK SMILES IDX 18 15 10 16 17 17 11 18 12 19 13 20 16 21 14 22 15 23
REMARK H PARENT 6 4
ROOT
ATOM      1  C   UNL     1       1.044  42.776  52.654  1.00  0.00     0.225 C 
ATOM      2  O   UNL     1       0.573  42.770  51.484  1.00  0.00    -0.275 OA
ATOM      3  N   UNL     1       2.463  42.748  52.863  1.00  0.00    -0.352 N 
ATOM      4  H   UNL     1       2.832  42.669  53.837  1.00  0.00     0.163 HD
ENDROOT
BRANCH   1   5
ATOM      5  C   UNL     1       0.108  42.855  53.826  1.00  0.00     0.165 C 
BRANCH   5   6
ATOM      6  C   UNL     1      -0.171  44.308  54.266  1.00  0.00     0.174 C 
ATOM      7  O   UNL     1       0.946  45.099  53.917  1.00  0.00    -0.347 OA
ATOM      8  O   UNL     1      -0.400  44.340  55.661  1.00  0.00    -0.347 OA
ATOM      9  C   UNL     1       1.531  45.489  55.118  1.00  0.00     0.192 C 
ATOM     10  C   UNL     1       0.497  45.269  56.178  1.00  0.00     0.192 C 
ATOM     11  C   UNL     1      -1.404  44.876  53.549  1.00  0.00     0.076 C 
ENDBRANCH   5   6
ENDBRANCH   1   5
BRANCH   3  12
ATOM     12  C   UNL     1       3.417  42.933  51.772  1.00  0.00     0.151 C 
BRANCH  12  13
ATOM     13  C   UNL     1       4.503  43.882  52.199  1.00  0.00    -0.029 A 
ATOM     14  C   UNL     1       4.706  44.173  53.555  1.00  0.00     0.008 A 
ATOM     15  C   UNL     1       5.365  44.434  51.242  1.00  0.00     0.008 A 
ATOM     16  C   UNL     1       5.751  45.014  53.947  1.00  0.00     0.029 A 
ATOM     17  C   UNL     1       6.412  45.275  51.633  1.00  0.00     0.029 A 
ATOM     18  C   UNL     1       6.620  45.573  52.993  1.00  0.00     0.066 A 
BRANCH  18  19
ATOM     19  N   UNL     1       7.696  46.435  53.417  1.00  0.00    -0.221 N 
ATOM     20  C   UNL     1       8.882  46.649  52.812  1.00  0.00     0.225 A 
ATOM     21  N   UNL     1       7.671  47.165  54.519  1.00  0.00    -0.155 NA
ATOM     22  N   UNL     1       9.640  47.518  53.509  1.00  0.00    -0.223 NA
ATOM     23  C   UNL     1       8.849  47.815  54.562  1.00  0.00     0.246 A 
ENDBRANCH  18  19
ENDBRANCH  12  13
ENDBRANCH   3  12
TORSDOF 5
ENDMDL
MODEL 5
REMARK VINA RESULT:    -7.172      3.833      8.034
REMARK INTER + INTRA:          -9.888
REMARK INTER:                  -9.141
REMARK INTRA:                  -0.747
REMARK UNBOUND:                -0.619
REMARK SMILES CC1(CC(=O)NCc2ccc(-n3cncn3)cc2)OCCO1
REMARK SMILES IDX 4 1 5 2 6 3 3 5 2 6 19 7 22 8 20 9 21 10 1 11 7 12 8 13 9 14
REMARK SMILES IDX 18 15 10 16 17 17 11 18 12 19 13 20 16 21 14 22 15 23
REMARK H PARENT 6 4
ROOT
ATOM      1  C   UNL     1       1.438  43.458  52.392  1.00  0.00     0.225 C 
ATOM      2  O   UNL     1       1.634  42.702  51.402  1.00  0.00    -0.275 OA
ATOM      3  N   UNL     1       1.985  44.784  52.408  1.00  0.00    -0.352 N 
ATOM      4  H   UNL     1       1.883  45.366  53.270  1.00  0.00     0.163 HD
ENDROOT
BRANCH   1   5
ATOM      5  C   UNL     1       0.594  42.974  53.536  1.00  0.00     0.165 C 
BRANCH   5   6
ATOM      6  C   UNL     1      -0.829  43.572  53.518  1.00  0.00     0.174 C 
ATOM      7  O   UNL     1      -1.688  42.655  52.874  1.00  0.00    -0.347 OA
ATOM      8  O   UNL     1      -0.808  44.811  52.838  1.00  0.00    -0.347 OA
ATOM      9  C   UNL     1      -2.073  43.261  51.683  1.00  0.00     0.192 C 
ATOM     10  C   UNL     1      -1.768  44.718  51.836  1.00  0.00     0.192 C 
ATOM     11  C   UNL     1      -1.352  43.800  54.944  1.00  0.00     0.076 C 
ENDBRANCH   5   6
ENDBRANCH   1   5
BRANCH   3  12
ATOM     12  C   UNL     1       2.586  45.396  51.226  1.00  0.00     0.151 C 
BRANCH  12  13
ATOM     13  C   UNL     1       4.031  45.718  51.495  1.00  0.00    -0.029 A 
ATOM     14  C   UNL     1       4.394  46.508  52.594  1.00  0.00     0.008 A 
ATOM     15  C   UNL     1       5.032  45.174  50.680  1.00  0.00     0.008 A 
ATOM     16  C   UNL     1       5.742  46.759  52.868  1.00  0.00     0.029 A 
ATOM     17  C   UNL     1       6.381  45.423  50.953  1.00  0.00     0.029 A 
ATOM     18  C   UNL     1       6.753  46.217  52.055  1.00  0.00     0.066 A 
BRANCH  18  19
ATOM     19  N   UNL     1       8.138  46.483  52.356  1.00  0.00    -0.221 N 
ATOM     20  C   UNL     1       8.649  47.152  53.410  1.00  0.00     0.225 A 
ATOM     21  N   UNL     1       9.150  46.096  51.599  1.00  0.00    -0.155 NA
ATOM     22  N   UNL     1       9.994  47.207  53.352  1.00  0.00    -0.223 NA
ATOM     23  C   UNL     1      10.264  46.538  52.211  1.00  0.00     0.246 A 
ENDBRANCH  18  19
ENDBRANCH  12  13
ENDBRANCH   3  12
TORSDOF 5
ENDMDL
