MODEL 1
REMARK VINA RESULT:    -8.664      0.000      0.000
REMARK INTER + INTRA:         -11.359
REMARK INTER:                 -10.690
REMARK INTRA:                  -0.669
REMARK UNBOUND:                -0.669
REMARK SMILES CSc1cc(C)ccc1C(=O)Nc1[nH]nnc1C(=O)N1CCCC1
REMARK SMILES IDX 3 1 4 2 5 3 6 4 7 5 8 6 9 7 2 8 1 9 10 10 11 11 12 12 13 14
REMARK SMILES IDX 14 15 17 16 15 17 16 18 18 20 19 21 20 22 21 23 24 24 22 25
REMARK SMILES IDX 23 26
REMARK H PARENT 12 13 14 19
ROOT
ATOM      1  C   UNL     1       6.542  46.297  52.269  1.00  0.00     0.020 A 
ATOM      2  C   UNL     1       7.791  46.233  51.636  1.00  0.00     0.019 A 
ATOM      3  C   UNL     1       8.964  46.543  52.337  1.00  0.00    -0.050 A 
ATOM      4  C   UNL     1      10.300  46.440  51.661  1.00  0.00     0.044 C 
ATOM      5  C   UNL     1       8.885  46.890  53.691  1.00  0.00     0.004 A 
ATOM      6  C   UNL     1       7.646  46.951  54.332  1.00  0.00     0.015 A 
ATOM      7  C   UNL     1       6.462  46.655  53.636  1.00  0.00     0.053 A 
ENDROOT
BRANCH   1   8
ATOM      8  S   UNL     1       5.077  45.959  51.275  1.00  0.00    -0.129 SA
ATOM      9  C   UNL     1       5.728  44.386  50.632  1.00  0.00     0.091 C 
ENDBRANCH   1   8
BRANCH   7  10
ATOM     10  C   UNL     1       5.170  46.718  54.363  1.00  0.00     0.258 C 
ATOM     11  O   UNL     1       4.619  47.834  54.566  1.00  0.00    -0.269 OA
ATOM     12  N   UNL     1       4.554  45.513  54.844  1.00  0.00    -0.305 N 
ATOM     13  H   UNL     1       5.127  44.641  54.869  1.00  0.00     0.171 HD
BRANCH  12  14
ATOM     14  C   UNL     1       3.196  45.457  55.308  1.00  0.00     0.162 A 
ATOM     15  N   UNL     1       2.736  46.066  56.414  1.00  0.00    -0.242 N 
ATOM     16  C   UNL     1       2.109  44.900  54.656  1.00  0.00     0.194 A 
ATOM     17  N   UNL     1       1.427  45.885  56.451  1.00  0.00    -0.067 NA
ATOM     18  N   UNL     1       1.020  45.180  55.403  1.00  0.00    -0.123 NA
ATOM     19  H   UNL     1       3.276  46.628  57.109  1.00  0.00     0.194 HD
BRANCH  16  20
ATOM     20  C   UNL     1       2.102  44.105  53.405  1.00  0.00     0.278 C 
ATOM     21  O   UNL     1       3.182  43.588  53.009  1.00  0.00    -0.267 OA
ATOM     22  N   UNL     1       0.907  43.895  52.625  1.00  0.00    -0.337 N 
ATOM     23  C   UNL     1      -0.435  44.302  53.010  1.00  0.00     0.120 C 
ATOM     24  C   UNL     1       0.936  43.239  51.328  1.00  0.00     0.120 C 
ATOM     25  C   UNL     1      -1.363  43.750  51.934  1.00  0.00     0.023 C 
ATOM     26  C   UNL     1      -0.467  43.385  50.755  1.00  0.00     0.023 C 
ENDBRANCH  16  20
ENDBRANCH  12  14
ENDBRANCH   7  10
TORSDOF 4
ENDMDL
MODEL 2
REMARK VINA RESULT:    -8.182      2.156      3.760
REMARK INTER + INTRA:         -10.763
REMARK INTER:                  -9.970
REMARK INTRA:                  -0.794
REMARK UNBOUND:                -0.669
REMARK SMILES CSc1cc(C)ccc1C(=O)Nc1[nH]nnc1C(=O)N1CCCC1
REMARK SMILES IDX 3 1 4 2 5 3 6 4 7 5 8 6 9 7 2 8 1 9 10 10 11 11 12 12 13 14
REMARK SMILES IDX 14 15 17 16 15 17 16 18 18 20 19 21 20 22 21 23 24 24 22 25
REMARK SMILES IDX 23 26
REMARK H PARENT 12 13 14 19
ROOT
ATOM      1  C   UNL     1       5.689  46.817  52.541  1.00  0.00     0.020 A 
ATOM      2  C   UNL     1       7.058  47.080  52.683  1.00  0.00     0.019 A 
ATOM      3  C   UNL     1       7.994  46.480  51.831  1.00  0.00    -0.050 A 
ATOM      4  C   UNL     1       9.455  46.793  51.970  1.00  0.00     0.044 C 
ATOM      5  C   UNL     1       7.550  45.634  50.808  1.00  0.00     0.004 A 
ATOM      6  C   UNL     1       6.187  45.369  50.654  1.00  0.00     0.015 A 
ATOM      7  C   UNL     1       5.240  45.955  51.511  1.00  0.00     0.053 A 
ENDROOT
BRANCH   1   8
ATOM      8  S   UNL     1       4.559  47.567  53.728  1.00  0.00    -0.129 SA
ATOM      9  C   UNL     1       4.770  46.237  54.952  1.00  0.00     0.091 C 
ENDBRANCH   1   8
BRANCH   7  10
ATOM     10  C   UNL     1       3.803  45.657  51.299  1.00  0.00     0.258 C 
ATOM     11  O   UNL     1       3.138  46.334  50.469  1.00  0.00    -0.269 OA
ATOM     12  N   UNL     1       3.167  44.607  52.046  1.00  0.00    -0.305 N 
ATOM     13  H   UNL     1       3.665  44.221  52.877  1.00  0.00     0.171 HD
BRANCH  12  14
ATOM     14  C   UNL     1       1.873  44.081  51.713  1.00  0.00     0.162 A 
ATOM     15  N   UNL     1       1.525  43.601  50.508  1.00  0.00    -0.242 N 
ATOM     16  C   UNL     1       0.814  43.850  52.575  1.00  0.00     0.194 A 
ATOM     17  N   UNL     1       0.304  43.104  50.615  1.00  0.00    -0.067 NA
ATOM     18  N   UNL     1      -0.152  43.244  51.853  1.00  0.00    -0.123 NA
ATOM     19  H   UNL     1       2.104  43.564  49.640  1.00  0.00     0.194 HD
BRANCH  16  20
ATOM     20  C   UNL     1       0.704  44.219  54.007  1.00  0.00     0.278 C 
ATOM     21  O   UNL     1       1.748  44.221  54.715  1.00  0.00    -0.267 OA
ATOM     22  N   UNL     1      -0.550  44.581  54.621  1.00  0.00    -0.337 N 
ATOM     23  C   UNL     1      -1.813  44.760  53.921  1.00  0.00     0.120 C 
ATOM     24  C   UNL     1      -0.675  44.800  56.053  1.00  0.00     0.120 C 
ATOM     25  C   UNL     1      -2.802  45.261  54.967  1.00  0.00     0.023 C 
ATOM     26  C   UNL     1      -2.164  44.966  56.321  1.00  0.00     0.023 C 
ENDBRANCH  16  20
ENDBRANCH  12  14
ENDBRANCH   7  10
TORSDOF 4
ENDMDL
MODEL 3
REMARK VINA RESULT:    -8.156      2.070      2.523
REMARK INTER + INTRA:         -10.732
REMARK INTER:                 -10.059
REMARK INTRA:                  -0.673
REMARK UNBOUND:                -0.669
REMARK SMILES CSc1cc(C)ccc1C(=O)Nc1[nH]nnc1C(=O)N1CCCC1
REMARK SMILES IDX 3 1 4 2 5 3 6 4 7 5 8 6 9 7 2 8 1 9 10 10 11 11 12 12 13 14
REMARK SMILES IDX 14 15 17 16 15 17 16 18 18 20 19 21 20 22 21 23 24 24 22 25
REMARK SMILES IDX 23 26
REMARK H PARENT 12 13 14 19
ROOT
ATOM      1  C   UNL     1       4.767  43.727  51.197  1.00  0.00     0.020 A 
ATOM      2  C   UNL     1       5.801  43.373  50.319  1.00  0.00     0.019 A 
ATOM      3  C   UNL     1       6.885  44.234  50.106  1.00  0.00    -0.050 A 
ATOM      4  C   UNL     1       8.003  43.833  49.189  1.00  0.00     0.044 C 
ATOM      5  C   UNL     1       6.949  45.445  50.804  1.00  0.00     0.004 A 
ATOM      6  C   UNL     1       5.927  45.805  51.686  1.00  0.00     0.015 A 
ATOM      7  C   UNL     1       4.828  44.956  51.898  1.00  0.00     0.053 A 
ENDROOT
BRANCH   1   8
ATOM      8  S   UNL     1       3.372  42.598  51.353  1.00  0.00    -0.129 SA
ATOM      9  C   UNL     1       4.177  41.277  50.393  1.00  0.00     0.091 C 
ENDBRANCH   1   8
BRANCH   7  10
ATOM     10  C   UNL     1       3.775  45.372  52.855  1.00  0.00     0.258 C 
ATOM     11  O   UNL     1       2.961  46.281  52.536  1.00  0.00    -0.269 OA
ATOM     12  N   UNL     1       3.690  44.752  54.148  1.00  0.00    -0.305 N 
ATOM     13  H   UNL     1       4.498  44.179  54.475  1.00  0.00     0.171 HD
BRANCH  12  14
ATOM     14  C   UNL     1       2.555  44.899  55.015  1.00  0.00     0.162 A 
ATOM     15  N   UNL     1       2.513  45.692  56.099  1.00  0.00    -0.242 N 
ATOM     16  C   UNL     1       1.285  44.377  54.833  1.00  0.00     0.194 A 
ATOM     17  N   UNL     1       1.279  45.656  56.571  1.00  0.00    -0.067 NA
ATOM     18  N   UNL     1       0.516  44.865  55.828  1.00  0.00    -0.123 NA
ATOM     19  H   UNL     1       3.280  46.282  56.492  1.00  0.00     0.194 HD
BRANCH  16  20
ATOM     20  C   UNL     1       0.829  43.428  53.789  1.00  0.00     0.278 C 
ATOM     21  O   UNL     1       1.235  42.235  53.833  1.00  0.00    -0.267 OA
ATOM     22  N   UNL     1      -0.067  43.816  52.726  1.00  0.00    -0.337 N 
ATOM     23  C   UNL     1      -0.731  45.105  52.609  1.00  0.00     0.120 C 
ATOM     24  C   UNL     1      -0.394  42.922  51.627  1.00  0.00     0.120 C 
ATOM     25  C   UNL     1      -1.661  44.987  51.408  1.00  0.00     0.023 C 
ATOM     26  C   UNL     1      -1.195  43.757  50.637  1.00  0.00     0.023 C 
ENDBRANCH  16  20
ENDBRANCH  12  14
ENDBRANCH   7  10
TORSDOF 4
ENDMDL
MODEL 4
REMARK VINA RESULT:    -8.136      1.557      2.453
REMARK INTER + INTRA:         -10.708
REMARK INTER:                 -10.020
REMARK INTRA:                  -0.687
REMARK UNBOUND:                -0.669
REMARK SMILES CSc1cc(C)ccc1C(=O)Nc1[nH]nnc1C(=O)N1CCCC1
REMARK SMILES IDX 3 1 4 2 5 3 6 4 7 5 8 6 9 7 2 8 1 9 10 10 11 11 12 12 13 14
REMARK SMILES IDX 14 15 17 16 15 17 16 18 18 20 19 21 20 22 21 23 24 24 22 25
REMARK SMILES IDX 23 26
REMARK H PARENT 12 13 14 19
ROOT
ATOM      1  C   UNL     1       6.561  45.964  51.796  1.00  0.00     0.020 A 
ATOM      2  C   UNL     1       7.557  45.600  50.879  1.00  0.00     0.019 A 
ATOM      3  C   UNL     1       7.380  44.499  50.030  1.00  0.00    -0.050 A 
ATOM      4  C   UNL     1       8.437  44.137  49.029  1.00  0.00     0.044 C 
ATOM      5  C   UNL     1       6.182  43.778  50.080  1.00  0.00     0.004 A 
ATOM      6  C   UNL     1       5.181  44.136  50.986  1.00  0.00     0.015 A 
ATOM      7  C   UNL     1       5.352  45.229  51.851  1.00  0.00     0.053 A 
ENDROOT
BRANCH   1   8
ATOM      8  S   UNL     1       6.902  47.343  52.905  1.00  0.00    -0.129 SA
ATOM      9  C   UNL     1       8.317  47.937  51.927  1.00  0.00     0.091 C 
ENDBRANCH   1   8
BRANCH   7  10
ATOM     10  C   UNL     1       4.256  45.581  52.786  1.00  0.00     0.258 C 
ATOM     11  O   UNL     1       3.516  46.573  52.540  1.00  0.00    -0.269 OA
ATOM     12  N   UNL     1       4.043  44.803  53.974  1.00  0.00    -0.305 N 
ATOM     13  H   UNL     1       4.795  44.143  54.273  1.00  0.00     0.171 HD
BRANCH  12  14
ATOM     14  C   UNL     1       2.858  44.906  54.778  1.00  0.00     0.162 A 
ATOM     15  N   UNL     1       2.763  45.602  55.923  1.00  0.00    -0.242 N 
ATOM     16  C   UNL     1       1.592  44.436  54.470  1.00  0.00     0.194 A 
ATOM     17  N   UNL     1       1.500  45.558  56.311  1.00  0.00    -0.067 NA
ATOM     18  N   UNL     1       0.769  44.856  55.454  1.00  0.00    -0.123 NA
ATOM     19  H   UNL     1       3.515  46.134  56.415  1.00  0.00     0.194 HD
BRANCH  16  20
ATOM     20  C   UNL     1       1.184  43.596  53.318  1.00  0.00     0.278 C 
ATOM     21  O   UNL     1       1.838  42.546  53.071  1.00  0.00    -0.267 OA
ATOM     22  N   UNL     1       0.064  43.929  52.472  1.00  0.00    -0.337 N 
ATOM     23  C   UNL     1      -0.871  45.020  52.699  1.00  0.00     0.120 C 
ATOM     24  C   UNL     1      -0.240  43.182  51.263  1.00  0.00     0.120 C 
ATOM     25  C   UNL     1      -1.939  44.885  51.620  1.00  0.00     0.023 C 
ATOM     26  C   UNL     1      -1.353  43.952  50.566  1.00  0.00     0.023 C 
ENDBRANCH  16  20
ENDBRANCH  12  14
ENDBRANCH   7  10
TORSDOF 4
ENDMDL
MODEL 5
REMARK VINA RESULT:    -8.128      2.426      3.891
REMARK INTER + INTRA:         -10.698
REMARK INTER:                 -10.135
REMARK INTRA:                  -0.562
REMARK UNBOUND:                -0.669
REMARK SMILES CSc1cc(C)ccc1C(=O)Nc1[nH]nnc1C(=O)N1CCCC1
REMARK SMILES IDX 3 1 4 2 5 3 6 4 7 5 8 6 9 7 2 8 1 9 10 10 11 11 12 12 13 14
REMARK SMILES IDX 14 15 17 16 15 17 16 18 18 20 19 21 20 22 21 23 24 24 22 25
REMARK SMILES IDX 23 26
REMARK H PARENT 12 13 14 19
ROOT
ATOM      1  C   UNL     1       6.513  46.059  53.650  1.00  0.00     0.020 A 
ATOM      2  C   UNL     1       7.560  46.706  54.322  1.00  0.00     0.019 A 
ATOM      3  C   UNL     1       8.797  46.905  53.696  1.00  0.00    -0.050 A 
ATOM      4  C   UNL     1       9.901  47.627  54.412  1.00  0.00     0.044 C 
ATOM      5  C   UNL     1       8.976  46.480  52.374  1.00  0.00     0.004 A 
ATOM      6  C   UNL     1       7.938  45.840  51.693  1.00  0.00     0.015 A 
ATOM      7  C   UNL     1       6.697  45.623  52.315  1.00  0.00     0.053 A 
ENDROOT
BRANCH   1   8
ATOM      8  S   UNL     1       4.981  45.773  54.554  1.00  0.00    -0.129 SA
ATOM      9  C   UNL     1       4.484  47.523  54.505  1.00  0.00     0.091 C 
ENDBRANCH   1   8
BRANCH   7  10
ATOM     10  C   UNL     1       5.619  44.953  51.547  1.00  0.00     0.258 C 
ATOM     11  O   UNL     1       5.203  45.465  50.473  1.00  0.00    -0.269 OA
ATOM     12  N   UNL     1       5.042  43.730  52.032  1.00  0.00    -0.305 N 
ATOM     13  H   UNL     1       5.233  43.451  53.019  1.00  0.00     0.171 HD
BRANCH  12  14
ATOM     14  C   UNL     1       4.202  42.887  51.229  1.00  0.00     0.162 A 
ATOM     15  N   UNL     1       4.597  41.749  50.634  1.00  0.00    -0.242 N 
ATOM     16  C   UNL     1       2.836  43.006  51.033  1.00  0.00     0.194 A 
ATOM     17  N   UNL     1       3.529  41.195  50.086  1.00  0.00    -0.067 NA
ATOM     18  N   UNL     1       2.451  41.935  50.308  1.00  0.00    -0.123 NA
ATOM     19  H   UNL     1       5.552  41.326  50.629  1.00  0.00     0.194 HD
BRANCH  16  20
ATOM     20  C   UNL     1       1.941  44.102  51.477  1.00  0.00     0.278 C 
ATOM     21  O   UNL     1       1.982  45.204  50.865  1.00  0.00    -0.267 OA
ATOM     22  N   UNL     1       1.021  43.955  52.578  1.00  0.00    -0.337 N 
ATOM     23  C   UNL     1       0.753  42.719  53.295  1.00  0.00     0.120 C 
ATOM     24  C   UNL     1       0.254  45.075  53.098  1.00  0.00     0.120 C 
ATOM     25  C   UNL     1      -0.373  43.039  54.272  1.00  0.00     0.023 C 
ATOM     26  C   UNL     1      -0.434  44.561  54.355  1.00  0.00     0.023 C 
ENDBRANCH  16  20
ENDBRANCH  12  14
ENDBRANCH   7  10
TORSDOF 4
ENDMDL
