MODEL 1
REMARK VINA RESULT:    -8.265      0.000      0.000
REMARK INTER + INTRA:         -11.943
REMARK INTER:                 -11.164
REMARK INTRA:                  -0.779
REMARK UNBOUND:                -0.779
REMARK SMILES N#Cc1cc(N(CC[C@H]2C[C@H](F)C2)Cc2ccns2)ncn1
REMARK SMILES IDX 7 1 6 2 5 3 1 4 2 5 3 6 4 7 22 8 21 9 20 10 14 11 15 12
REMARK SMILES IDX 16 13 19 14 17 15 18 16 8 17 9 18 10 19 13 20 11 21 12 22
REMARK H PARENT
ROOT
ATOM      1  C   UNL     1       7.661  46.074  51.556  1.00  0.00     0.119 C 
ENDROOT
BRANCH   1   2
ATOM      2  N   UNL     1       6.286  45.561  51.691  1.00  0.00    -0.351 N 
BRANCH   2   3
ATOM      3  C   UNL     1       5.649  45.414  52.986  1.00  0.00     0.133 A 
ATOM      4  N   UNL     1       1.141  45.534  54.774  1.00  0.00    -0.191 NA
ATOM      5  C   UNL     1       2.285  45.456  54.614  1.00  0.00     0.120 C 
ATOM      6  C   UNL     1       3.705  45.363  54.417  1.00  0.00     0.145 A 
ATOM      7  C   UNL     1       4.251  45.488  53.136  1.00  0.00     0.087 A 
ATOM      8  N   UNL     1       4.518  45.161  55.485  1.00  0.00    -0.225 NA
ATOM      9  C   UNL     1       5.862  45.077  55.327  1.00  0.00     0.225 A 
ATOM     10  N   UNL     1       6.413  45.207  54.093  1.00  0.00    -0.219 NA
ENDBRANCH   2   3
BRANCH   2  11
ATOM     11  C   UNL     1       5.592  45.102  50.479  1.00  0.00     0.166 C 
BRANCH  11  12
ATOM     12  C   UNL     1       5.648  43.609  50.382  1.00  0.00     0.045 A 
ATOM     13  C   UNL     1       6.605  42.840  49.737  1.00  0.00     0.039 A 
ATOM     14  S   UNL     1       4.492  42.531  50.906  1.00  0.00    -0.040 S 
ATOM     15  C   UNL     1       6.308  41.462  49.754  1.00  0.00     0.126 A 
ATOM     16  N   UNL     1       5.153  41.102  50.374  1.00  0.00    -0.201 NA
ENDBRANCH  11  12
ENDBRANCH   2  11
ENDBRANCH   1   2
BRANCH   1  17
ATOM     17  C   UNL     1       7.739  47.544  52.024  1.00  0.00     0.025 C 
BRANCH  17  18
ATOM     18  C   UNL     1       8.972  47.935  52.876  1.00  0.00    -0.004 C 
ATOM     19  C   UNL     1       8.746  47.969  54.387  1.00  0.00     0.041 C 
ATOM     20  C   UNL     1      10.050  46.864  53.057  1.00  0.00     0.041 C 
ATOM     21  C   UNL     1       9.799  46.882  54.560  1.00  0.00     0.167 C 
ATOM     22  F   UNL     1      10.903  47.330  55.266  1.00  0.00    -0.247 F 
ENDBRANCH  17  18
ENDBRANCH   1  17
TORSDOF 6
ENDMDL
MODEL 2
REMARK VINA RESULT:    -7.958      3.102      6.202
REMARK INTER + INTRA:         -11.528
REMARK INTER:                 -11.034
REMARK INTRA:                  -0.494
REMARK UNBOUND:                -0.779
REMARK SMILES N#Cc1cc(N(CC[C@H]2C[C@H](F)C2)Cc2ccns2)ncn1
REMARK SMILES IDX 7 1 6 2 5 3 1 4 2 5 3 6 4 7 22 8 21 9 20 10 14 11 15 12
REMARK SMILES IDX 16 13 19 14 17 15 18 16 8 17 9 18 10 19 13 20 11 21 12 22
REMARK H PARENT
ROOT
ATOM      1  C   UNL     1       5.408  45.949  51.300  1.00  0.00     0.119 C 
ENDROOT
BRANCH   1   2
ATOM      2  N   UNL     1       6.072  46.746  52.348  1.00  0.00    -0.351 N 
BRANCH   2   3
ATOM      3  C   UNL     1       7.512  46.728  52.525  1.00  0.00     0.133 A 
ATOM      4  N   UNL     1      10.675  47.604  56.096  1.00  0.00    -0.191 NA
ATOM      5  C   UNL     1      10.152  47.341  55.098  1.00  0.00     0.120 C 
ATOM      6  C   UNL     1       9.504  47.018  53.857  1.00  0.00     0.145 A 
ATOM      7  C   UNL     1       8.109  47.028  53.764  1.00  0.00     0.087 A 
ATOM      8  N   UNL     1      10.255  46.710  52.769  1.00  0.00    -0.225 NA
ATOM      9  C   UNL     1       9.669  46.409  51.584  1.00  0.00     0.225 A 
ATOM     10  N   UNL     1       8.317  46.425  51.469  1.00  0.00    -0.219 NA
ENDBRANCH   2   3
BRANCH   2  11
ATOM     11  C   UNL     1       5.230  47.498  53.290  1.00  0.00     0.166 C 
BRANCH  11  12
ATOM     12  C   UNL     1       4.158  46.614  53.847  1.00  0.00     0.045 A 
ATOM     13  C   UNL     1       2.840  46.516  53.425  1.00  0.00     0.039 A 
ATOM     14  S   UNL     1       4.263  45.647  55.199  1.00  0.00    -0.040 S 
ATOM     15  C   UNL     1       2.065  45.655  54.229  1.00  0.00     0.126 A 
ATOM     16  N   UNL     1       2.705  45.074  55.278  1.00  0.00    -0.201 NA
ENDBRANCH  11  12
ENDBRANCH   2  11
ENDBRANCH   1   2
BRANCH   1  17
ATOM     17  C   UNL     1       5.589  44.440  51.574  1.00  0.00     0.025 C 
BRANCH  17  18
ATOM     18  C   UNL     1       5.426  43.492  50.359  1.00  0.00    -0.004 C 
ATOM     19  C   UNL     1       6.728  42.997  49.730  1.00  0.00     0.041 C 
ATOM     20  C   UNL     1       5.018  42.050  50.663  1.00  0.00     0.041 C 
ATOM     21  C   UNL     1       6.331  41.563  50.061  1.00  0.00     0.167 C 
ATOM     22  F   UNL     1       6.131  40.800  48.923  1.00  0.00    -0.247 F 
ENDBRANCH  17  18
ENDBRANCH   1  17
TORSDOF 6
ENDMDL
MODEL 3
REMARK VINA RESULT:    -7.926      1.902      4.532
REMARK INTER + INTRA:         -11.485
REMARK INTER:                 -10.733
REMARK INTRA:                  -0.751
REMARK UNBOUND:                -0.779
REMARK SMILES N#Cc1cc(N(CC[C@H]2C[C@H](F)C2)Cc2ccns2)ncn1
REMARK SMILES IDX 7 1 6 2 5 3 1 4 2 5 3 6 4 7 22 8 21 9 20 10 14 11 15 12
REMARK SMILES IDX 16 13 19 14 17 15 18 16 8 17 9 18 10 19 13 20 11 21 12 22
REMARK H PARENT
ROOT
ATOM      1  C   UNL     1       6.804  46.006  53.879  1.00  0.00     0.119 C 
ENDROOT
BRANCH   1   2
ATOM      2  N   UNL     1       5.796  45.905  52.809  1.00  0.00    -0.351 N 
BRANCH   2   3
ATOM      3  C   UNL     1       5.918  44.940  51.733  1.00  0.00     0.133 A 
ATOM      4  N   UNL     1       3.780  40.793  50.404  1.00  0.00    -0.191 NA
ATOM      5  C   UNL     1       4.441  41.739  50.491  1.00  0.00     0.120 C 
ATOM      6  C   UNL     1       5.265  42.911  50.599  1.00  0.00     0.145 A 
ATOM      7  C   UNL     1       5.076  43.814  51.648  1.00  0.00     0.087 A 
ATOM      8  N   UNL     1       6.237  43.133  49.678  1.00  0.00    -0.225 NA
ATOM      9  C   UNL     1       7.034  44.228  49.761  1.00  0.00     0.225 A 
ATOM     10  N   UNL     1       6.874  45.111  50.779  1.00  0.00    -0.219 NA
ENDBRANCH   2   3
BRANCH   2  11
ATOM     11  C   UNL     1       4.695  46.879  52.794  1.00  0.00     0.166 C 
BRANCH  11  12
ATOM     12  C   UNL     1       3.528  46.356  53.571  1.00  0.00     0.045 A 
ATOM     13  C   UNL     1       3.520  45.907  54.884  1.00  0.00     0.039 A 
ATOM     14  S   UNL     1       1.996  46.056  52.991  1.00  0.00    -0.040 S 
ATOM     15  C   UNL     1       2.271  45.389  55.282  1.00  0.00     0.126 A 
ATOM     16  N   UNL     1       1.289  45.394  54.342  1.00  0.00    -0.201 NA
ENDBRANCH  11  12
ENDBRANCH   2  11
ENDBRANCH   1   2
BRANCH   1  17
ATOM     17  C   UNL     1       7.446  47.411  53.885  1.00  0.00     0.025 C 
BRANCH  17  18
ATOM     18  C   UNL     1       8.903  47.509  53.368  1.00  0.00    -0.004 C 
ATOM     19  C   UNL     1       9.734  46.232  53.492  1.00  0.00     0.041 C 
ATOM     20  C   UNL     1       9.097  47.494  51.851  1.00  0.00     0.041 C 
ATOM     21  C   UNL     1       9.899  46.204  51.977  1.00  0.00     0.167 C 
ATOM     22  F   UNL     1      11.219  46.373  51.592  1.00  0.00    -0.247 F 
ENDBRANCH  17  18
ENDBRANCH   1  17
TORSDOF 6
ENDMDL
MODEL 4
REMARK VINA RESULT:    -7.825      1.316      1.602
REMARK INTER + INTRA:         -11.349
REMARK INTER:                 -10.618
REMARK INTRA:                  -0.731
REMARK UNBOUND:                -0.779
REMARK SMILES N#Cc1cc(N(CC[C@H]2C[C@H](F)C2)Cc2ccns2)ncn1
REMARK SMILES IDX 7 1 6 2 5 3 1 4 2 5 3 6 4 7 22 8 21 9 20 10 14 11 15 12
REMARK SMILES IDX 16 13 19 14 17 15 18 16 8 17 9 18 10 19 13 20 11 21 12 22
REMARK H PARENT
ROOT
ATOM      1  C   UNL     1       6.920  45.964  52.919  1.00  0.00     0.119 C 
ENDROOT
BRANCH   1   2
ATOM      2  N   UNL     1       5.549  45.708  52.443  1.00  0.00    -0.351 N 
BRANCH   2   3
ATOM      3  C   UNL     1       4.450  45.483  53.363  1.00  0.00     0.133 A 
ATOM      4  N   UNL     1       0.411  42.801  53.502  1.00  0.00    -0.191 NA
ATOM      5  C   UNL     1       1.287  43.524  53.721  1.00  0.00     0.120 C 
ATOM      6  C   UNL     1       2.374  44.425  53.992  1.00  0.00     0.145 A 
ATOM      7  C   UNL     1       3.415  44.574  53.072  1.00  0.00     0.087 A 
ATOM      8  N   UNL     1       2.379  45.139  55.146  1.00  0.00    -0.225 NA
ATOM      9  C   UNL     1       3.388  46.002  55.423  1.00  0.00     0.225 A 
ATOM     10  N   UNL     1       4.403  46.170  54.537  1.00  0.00    -0.219 NA
ENDBRANCH   2   3
BRANCH   2  11
ATOM     11  C   UNL     1       5.325  45.587  50.994  1.00  0.00     0.166 C 
BRANCH  11  12
ATOM     12  C   UNL     1       6.059  44.400  50.453  1.00  0.00     0.045 A 
ATOM     13  C   UNL     1       7.256  44.395  49.752  1.00  0.00     0.039 A 
ATOM     14  S   UNL     1       5.532  42.820  50.443  1.00  0.00    -0.040 S 
ATOM     15  C   UNL     1       7.626  43.111  49.301  1.00  0.00     0.126 A 
ATOM     16  N   UNL     1       6.770  42.098  49.602  1.00  0.00    -0.201 NA
ENDBRANCH  11  12
ENDBRANCH   2  11
ENDBRANCH   1   2
BRANCH   1  17
ATOM     17  C   UNL     1       7.422  47.333  52.410  1.00  0.00     0.025 C 
BRANCH  17  18
ATOM     18  C   UNL     1       8.749  47.853  53.016  1.00  0.00    -0.004 C 
ATOM     19  C   UNL     1       8.771  47.990  54.538  1.00  0.00     0.041 C 
ATOM     20  C   UNL     1       9.909  46.857  53.085  1.00  0.00     0.041 C 
ATOM     21  C   UNL     1       9.906  46.976  54.605  1.00  0.00     0.167 C 
ATOM     22  F   UNL     1      11.079  47.535  55.085  1.00  0.00    -0.247 F 
ENDBRANCH  17  18
ENDBRANCH   1  17
TORSDOF 6
ENDMDL
MODEL 5
REMARK VINA RESULT:    -7.548      1.819      2.597
REMARK INTER + INTRA:         -10.975
REMARK INTER:                 -10.042
REMARK INTRA:                  -0.933
REMARK UNBOUND:                -0.779
REMARK SMILES N#Cc1cc(N(CC[C@H]2C[C@H](F)C2)Cc2ccns2)ncn1
REMARK SMILES IDX 7 1 6 2 5 3 1 4 2 5 3 6 4 7 22 8 21 9 20 10 14 11 15 12
REMARK SMILES IDX 16 13 19 14 17 15 18 16 8 17 9 18 10 19 13 20 11 21 12 22
REMARK H PARENT
ROOT
ATOM      1  C   UNL     1       5.728  45.788  53.427  1.00  0.00     0.119 C 
ENDROOT
BRANCH   1   2
ATOM      2  N   UNL     1       4.572  45.407  52.594  1.00  0.00    -0.351 N 
BRANCH   2   3
ATOM      3  C   UNL     1       3.380  44.812  53.166  1.00  0.00     0.133 A 
ATOM      4  N   UNL     1       0.667  45.387  57.146  1.00  0.00    -0.191 NA
ATOM      5  C   UNL     1       1.127  45.051  56.139  1.00  0.00     0.120 C 
ATOM      6  C   UNL     1       1.699  44.630  54.889  1.00  0.00     0.145 A 
ATOM      7  C   UNL     1       2.836  45.267  54.382  1.00  0.00     0.087 A 
ATOM      8  N   UNL     1       1.134  43.603  54.206  1.00  0.00    -0.225 NA
ATOM      9  C   UNL     1       1.658  43.182  53.028  1.00  0.00     0.225 A 
ATOM     10  N   UNL     1       2.768  43.779  52.524  1.00  0.00    -0.219 NA
ENDBRANCH   2   3
BRANCH   2  11
ATOM     11  C   UNL     1       4.687  45.552  51.135  1.00  0.00     0.166 C 
BRANCH  11  12
ATOM     12  C   UNL     1       5.725  44.616  50.599  1.00  0.00     0.045 A 
ATOM     13  C   UNL     1       6.949  44.943  50.035  1.00  0.00     0.039 A 
ATOM     14  S   UNL     1       5.585  42.965  50.426  1.00  0.00    -0.040 S 
ATOM     15  C   UNL     1       7.647  43.822  49.543  1.00  0.00     0.126 A 
ATOM     16  N   UNL     1       7.028  42.620  49.679  1.00  0.00    -0.201 NA
ENDBRANCH  11  12
ENDBRANCH   2  11
ENDBRANCH   1   2
BRANCH   1  17
ATOM     17  C   UNL     1       6.220  47.203  53.053  1.00  0.00     0.025 C 
BRANCH  17  18
ATOM     18  C   UNL     1       7.743  47.459  53.170  1.00  0.00    -0.004 C 
ATOM     19  C   UNL     1       8.617  46.210  53.268  1.00  0.00     0.041 C 
ATOM     20  C   UNL     1       8.470  47.874  51.890  1.00  0.00     0.041 C 
ATOM     21  C   UNL     1       9.319  46.610  51.976  1.00  0.00     0.167 C 
ATOM     22  F   UNL     1      10.659  46.897  52.177  1.00  0.00    -0.247 F 
ENDBRANCH  17  18
ENDBRANCH   1  17
TORSDOF 6
ENDMDL
