ligand_16_conformer_2_docked
     RDKit          3D

 43 45  0  0  0  0  0  0  0  0999 V2000
    0.4090   45.7810   52.3460 O   0  0  0  0  0  0  0  0  0  0  0  0
    1.3390   45.1570   52.9270 C   0  0  0  0  0  0  0  0  0  0  0  0
    1.0370   44.3130   54.0520 N   0  0  0  0  0  0  0  0  0  0  0  0
   -0.1420   44.4560   54.8620 C   0  0  0  0  0  0  0  0  0  0  0  0
   -1.3270   43.8140   54.4720 C   0  0  0  0  0  0  0  0  0  0  0  0
   -2.4790   43.9240   55.2530 C   0  0  0  0  0  0  0  0  0  0  0  0
   -2.4580   44.6620   56.4390 C   0  0  0  0  0  0  0  0  0  0  0  0
   -1.2700   45.2890   56.8630 C   0  0  0  0  0  0  0  0  0  0  0  0
   -1.1810   46.0340   58.0510 O   0  0  0  0  0  0  0  0  0  0  0  0
   -0.7770   47.3990   58.1570 C   0  0  0  0  0  0  0  0  0  0  0  0
    0.5020   47.5280   58.9810 C   0  0  0  0  0  0  0  0  0  0  0  0
    1.3400   46.4510   58.7610 F   0  0  0  0  0  0  0  0  0  0  0  0
   -0.1200   45.1790   56.0690 C   0  0  0  0  0  0  0  0  0  0  0  0
    2.7250   45.2630   52.4060 C   0  0  0  0  0  0  0  0  0  0  0  0
    3.0140   46.0460   51.2750 C   0  0  0  0  0  0  0  0  0  0  0  0
    4.3230   46.1320   50.7880 C   0  0  0  0  0  0  0  0  0  0  0  0
    5.3610   45.4240   51.4070 C   0  0  0  0  0  0  0  0  0  0  0  0
    6.7000   45.5510   50.9010 N   0  0  0  0  0  0  0  0  0  0  0  0
    7.8040   46.0650   51.6600 C   0  0  0  0  0  0  0  0  0  0  0  0
    7.5620   46.8160   52.7700 N   0  0  0  0  0  0  0  0  0  0  0  0
    8.5830   47.3430   53.4950 C   0  0  0  0  0  0  0  0  0  0  0  0
    9.9020   47.1240   53.1020 C   0  0  0  0  0  0  0  0  0  0  0  0
   10.1350   46.3640   51.9570 C   0  0  0  0  0  0  0  0  0  0  0  0
    9.0880   45.8550   51.2570 N   0  0  0  0  0  0  0  0  0  0  0  0
    5.0780   44.6530   52.5470 C   0  0  0  0  0  0  0  0  0  0  0  0
    3.7710   44.5650   53.0350 C   0  0  0  0  0  0  0  0  0  0  0  0
    1.6480   43.4820   54.2190 H   0  0  0  0  0  0  0  0  0  0  0  0
   -1.3485   43.2208   53.5459 H   0  0  0  0  0  0  0  0  0  0  0  0
   -3.4070   43.4275   54.9332 H   0  0  0  0  0  0  0  0  0  0  0  0
   -3.3722   44.7538   57.0438 H   0  0  0  0  0  0  0  0  0  0  0  0
   -0.5975   47.8005   57.1487 H   0  0  0  0  0  0  0  0  0  0  0  0
   -1.5764   47.9634   58.6595 H   0  0  0  0  0  0  0  0  0  0  0  0
    1.0227   48.4539   58.6955 H   0  0  0  0  0  0  0  0  0  0  0  0
    0.2327   47.5524   60.0473 H   0  0  0  0  0  0  0  0  0  0  0  0
    0.8121   45.6644   56.3938 H   0  0  0  0  0  0  0  0  0  0  0  0
    2.2058   46.5948   50.7694 H   0  0  0  0  0  0  0  0  0  0  0  0
    4.5386   46.7609   49.9117 H   0  0  0  0  0  0  0  0  0  0  0  0
    6.9050   45.1710   49.9490 H   0  0  0  0  0  0  0  0  0  0  0  0
    8.3686   47.9424   54.3920 H   0  0  0  0  0  0  0  0  0  0  0  0
   10.7390   47.5408   53.6814 H   0  0  0  0  0  0  0  0  0  0  0  0
   11.1654   46.1766   51.6207 H   0  0  0  0  0  0  0  0  0  0  0  0
    5.8899   44.1153   53.0586 H   0  0  0  0  0  0  0  0  0  0  0  0
    3.5591   43.9446   53.9183 H   0  0  0  0  0  0  0  0  0  0  0  0
  1  2  2  0
  2  3  1  0
  3  4  1  0
  4  5  2  0
  5  6  1  0
  6  7  2  0
  7  8  1  0
  8  9  1  0
  9 10  1  0
 10 11  1  0
 11 12  1  0
  8 13  2  0
  2 14  1  0
 14 15  2  0
 15 16  1  0
 16 17  2  0
 17 18  1  0
 18 19  1  0
 19 20  2  0
 20 21  1  0
 21 22  2  0
 22 23  1  0
 23 24  2  0
 17 25  1  0
 25 26  2  0
 13  4  1  0
 26 14  1  0
 24 19  1  0
  3 27  1  0
  5 28  1  0
  6 29  1  0
  7 30  1  0
 10 31  1  0
 10 32  1  0
 11 33  1  0
 11 34  1  0
 13 35  1  0
 15 36  1  0
 16 37  1  0
 18 38  1  0
 21 39  1  0
 22 40  1  0
 23 41  1  0
 25 42  1  0
 26 43  1  0
M  END
>  <meeko>  (1) 
{"is_sidechain": [false], "free_energy": -7.746, "intermolecular_energy": -10.915, "internal_energy": -0.627}

$$$$
ligand_16_conformer_2_docked
     RDKit          3D

 43 45  0  0  0  0  0  0  0  0999 V2000
    4.1170   43.6410   52.8470 O   0  0  0  0  0  0  0  0  0  0  0  0
    3.6610   44.7900   53.0990 C   0  0  0  0  0  0  0  0  0  0  0  0
    4.2500   45.9440   52.4760 N   0  0  0  0  0  0  0  0  0  0  0  0
    5.5870   45.9680   51.9450 C   0  0  0  0  0  0  0  0  0  0  0  0
    5.8690   45.2810   50.7560 C   0  0  0  0  0  0  0  0  0  0  0  0
    7.1550   45.3060   50.2140 C   0  0  0  0  0  0  0  0  0  0  0  0
    8.1700   46.0300   50.8430 C   0  0  0  0  0  0  0  0  0  0  0  0
    7.9000   46.7510   52.0220 C   0  0  0  0  0  0  0  0  0  0  0  0
    8.8740   47.5080   52.6950 O   0  0  0  0  0  0  0  0  0  0  0  0
    9.9080   46.9910   53.5330 C   0  0  0  0  0  0  0  0  0  0  0  0
    9.8590   47.6290   54.9190 C   0  0  0  0  0  0  0  0  0  0  0  0
   10.9040   47.1810   55.7050 F   0  0  0  0  0  0  0  0  0  0  0  0
    6.6080   46.7140   52.5630 C   0  0  0  0  0  0  0  0  0  0  0  0
    2.4870   44.9270   53.9970 C   0  0  0  0  0  0  0  0  0  0  0  0
    2.6510   45.2390   55.3580 C   0  0  0  0  0  0  0  0  0  0  0  0
    1.5380   45.3580   56.1970 C   0  0  0  0  0  0  0  0  0  0  0  0
    0.2460   45.1490   55.7000 C   0  0  0  0  0  0  0  0  0  0  0  0
   -0.8820   45.3030   56.5780 N   0  0  0  0  0  0  0  0  0  0  0  0
   -1.2130   46.5210   57.2610 C   0  0  0  0  0  0  0  0  0  0  0  0
   -0.4940   46.8930   58.3550 N   0  0  0  0  0  0  0  0  0  0  0  0
   -0.7980   48.0250   59.0430 C   0  0  0  0  0  0  0  0  0  0  0  0
   -1.8660   48.8210   58.6330 C   0  0  0  0  0  0  0  0  0  0  0  0
   -2.6020   48.4230   57.5190 C   0  0  0  0  0  0  0  0  0  0  0  0
   -2.2680   47.2830   56.8590 N   0  0  0  0  0  0  0  0  0  0  0  0
    0.0770   44.8530   54.3360 C   0  0  0  0  0  0  0  0  0  0  0  0
    1.1880   44.7330   53.4960 C   0  0  0  0  0  0  0  0  0  0  0  0
    3.6380   46.7700   52.2950 H   0  0  0  0  0  0  0  0  0  0  0  0
    5.0721   44.7189   50.2472 H   0  0  0  0  0  0  0  0  0  0  0  0
    7.3698   44.7531   49.2876 H   0  0  0  0  0  0  0  0  0  0  0  0
    9.1837   46.0371   50.4161 H   0  0  0  0  0  0  0  0  0  0  0  0
    9.7797   45.9031   53.6330 H   0  0  0  0  0  0  0  0  0  0  0  0
   10.8803   47.2238   53.0742 H   0  0  0  0  0  0  0  0  0  0  0  0
    9.9291   48.7218   54.8152 H   0  0  0  0  0  0  0  0  0  0  0  0
    8.9109   47.3492   55.4016 H   0  0  0  0  0  0  0  0  0  0  0  0
    6.3887   47.2756   53.4831 H   0  0  0  0  0  0  0  0  0  0  0  0
    3.6613   45.3905   55.7659 H   0  0  0  0  0  0  0  0  0  0  0  0
    1.6792   45.6181   57.2565 H   0  0  0  0  0  0  0  0  0  0  0  0
   -1.5510   44.5050   56.6650 H   0  0  0  0  0  0  0  0  0  0  0  0
   -0.2022   48.3124   59.9219 H   0  0  0  0  0  0  0  0  0  0  0  0
   -2.1220   49.7424   59.1765 H   0  0  0  0  0  0  0  0  0  0  0  0
   -3.4519   49.0304   57.1743 H   0  0  0  0  0  0  0  0  0  0  0  0
   -0.9350   44.7151   53.9275 H   0  0  0  0  0  0  0  0  0  0  0  0
    1.0445   44.4847   52.4340 H   0  0  0  0  0  0  0  0  0  0  0  0
  1  2  2  0
  2  3  1  0
  3  4  1  0
  4  5  2  0
  5  6  1  0
  6  7  2  0
  7  8  1  0
  8  9  1  0
  9 10  1  0
 10 11  1  0
 11 12  1  0
  8 13  2  0
  2 14  1  0
 14 15  2  0
 15 16  1  0
 16 17  2  0
 17 18  1  0
 18 19  1  0
 19 20  2  0
 20 21  1  0
 21 22  2  0
 22 23  1  0
 23 24  2  0
 17 25  1  0
 25 26  2  0
 13  4  1  0
 26 14  1  0
 24 19  1  0
  3 27  1  0
  5 28  1  0
  6 29  1  0
  7 30  1  0
 10 31  1  0
 10 32  1  0
 11 33  1  0
 11 34  1  0
 13 35  1  0
 15 36  1  0
 16 37  1  0
 18 38  1  0
 21 39  1  0
 22 40  1  0
 23 41  1  0
 25 42  1  0
 26 43  1  0
M  END
>  <meeko>  (2) 
{"is_sidechain": [false], "free_energy": -7.641, "intermolecular_energy": -11.052, "internal_energy": -0.343}

$$$$
ligand_16_conformer_2_docked
     RDKit          3D

 43 45  0  0  0  0  0  0  0  0999 V2000
    4.8440   44.2150   53.5520 O   0  0  0  0  0  0  0  0  0  0  0  0
    3.9490   44.2760   52.6650 C   0  0  0  0  0  0  0  0  0  0  0  0
    4.2950   44.0540   51.2870 N   0  0  0  0  0  0  0  0  0  0  0  0
    5.6260   44.2110   50.7630 C   0  0  0  0  0  0  0  0  0  0  0  0
    6.1530   43.2240   49.9180 C   0  0  0  0  0  0  0  0  0  0  0  0
    7.4360   43.3650   49.3840 C   0  0  0  0  0  0  0  0  0  0  0  0
    8.1990   44.4980   49.6740 C   0  0  0  0  0  0  0  0  0  0  0  0
    7.6740   45.5140   50.4970 C   0  0  0  0  0  0  0  0  0  0  0  0
    8.3860   46.6830   50.8160 O   0  0  0  0  0  0  0  0  0  0  0  0
    8.5950   47.2070   52.1280 C   0  0  0  0  0  0  0  0  0  0  0  0
    9.8260   46.5810   52.7780 C   0  0  0  0  0  0  0  0  0  0  0  0
   10.3260   47.3990   53.7740 F   0  0  0  0  0  0  0  0  0  0  0  0
    6.3890   45.3610   51.0350 C   0  0  0  0  0  0  0  0  0  0  0  0
    2.5420   44.5270   53.0640 C   0  0  0  0  0  0  0  0  0  0  0  0
    1.5150   44.5710   52.1050 C   0  0  0  0  0  0  0  0  0  0  0  0
    0.1930   44.8160   52.4910 C   0  0  0  0  0  0  0  0  0  0  0  0
   -0.1250   45.0430   53.8360 C   0  0  0  0  0  0  0  0  0  0  0  0
   -1.4950   45.2680   54.2090 N   0  0  0  0  0  0  0  0  0  0  0  0
   -2.0580   44.8960   55.4760 C   0  0  0  0  0  0  0  0  0  0  0  0
   -2.3180   43.5850   55.7340 N   0  0  0  0  0  0  0  0  0  0  0  0
   -2.8780   43.2000   56.9100 C   0  0  0  0  0  0  0  0  0  0  0  0
   -3.2020   44.1550   57.8720 C   0  0  0  0  0  0  0  0  0  0  0  0
   -2.9420   45.4950   57.5900 C   0  0  0  0  0  0  0  0  0  0  0  0
   -2.3820   45.8410   56.4020 N   0  0  0  0  0  0  0  0  0  0  0  0
    0.8970   44.9850   54.8000 C   0  0  0  0  0  0  0  0  0  0  0  0
    2.2180   44.7400   54.4160 C   0  0  0  0  0  0  0  0  0  0  0  0
    3.5670   43.6460   50.6580 H   0  0  0  0  0  0  0  0  0  0  0  0
    5.5533   42.3346   49.6745 H   0  0  0  0  0  0  0  0  0  0  0  0
    7.8471   42.5801   48.7322 H   0  0  0  0  0  0  0  0  0  0  0  0
    9.2127   44.5976   49.2588 H   0  0  0  0  0  0  0  0  0  0  0  0
    8.7377   48.2957   52.0619 H   0  0  0  0  0  0  0  0  0  0  0  0
    7.7150   46.9700   52.7440 H   0  0  0  0  0  0  0  0  0  0  0  0
    9.5487   45.6101   53.2143 H   0  0  0  0  0  0  0  0  0  0  0  0
   10.6012   46.4484   52.0090 H   0  0  0  0  0  0  0  0  0  0  0  0
    5.9719   46.1500   51.6780 H   0  0  0  0  0  0  0  0  0  0  0  0
    1.7528   44.4115   51.0429 H   0  0  0  0  0  0  0  0  0  0  0  0
   -0.6032   44.8305   51.7321 H   0  0  0  0  0  0  0  0  0  0  0  0
   -2.1010   45.8090   53.5520 H   0  0  0  0  0  0  0  0  0  0  0  0
   -3.0757   42.1353   57.1030 H   0  0  0  0  0  0  0  0  0  0  0  0
   -3.6521   43.8583   58.8308 H   0  0  0  0  0  0  0  0  0  0  0  0
   -3.1901   46.2714   58.3287 H   0  0  0  0  0  0  0  0  0  0  0  0
    0.6552   45.1334   55.8628 H   0  0  0  0  0  0  0  0  0  0  0  0
    3.0113   44.7135   55.1776 H   0  0  0  0  0  0  0  0  0  0  0  0
  1  2  2  0
  2  3  1  0
  3  4  1  0
  4  5  2  0
  5  6  1  0
  6  7  2  0
  7  8  1  0
  8  9  1  0
  9 10  1  0
 10 11  1  0
 11 12  1  0
  8 13  2  0
  2 14  1  0
 14 15  2  0
 15 16  1  0
 16 17  2  0
 17 18  1  0
 18 19  1  0
 19 20  2  0
 20 21  1  0
 21 22  2  0
 22 23  1  0
 23 24  2  0
 17 25  1  0
 25 26  2  0
 13  4  1  0
 26 14  1  0
 24 19  1  0
  3 27  1  0
  5 28  1  0
  6 29  1  0
  7 30  1  0
 10 31  1  0
 10 32  1  0
 11 33  1  0
 11 34  1  0
 13 35  1  0
 15 36  1  0
 16 37  1  0
 18 38  1  0
 21 39  1  0
 22 40  1  0
 23 41  1  0
 25 42  1  0
 26 43  1  0
M  END
>  <meeko>  (3) 
{"is_sidechain": [false], "free_energy": -7.594, "intermolecular_energy": -10.787, "internal_energy": -0.541}

$$$$
ligand_16_conformer_2_docked
     RDKit          3D

 43 45  0  0  0  0  0  0  0  0999 V2000
    6.2210   40.8230   48.9850 O   0  0  0  0  0  0  0  0  0  0  0  0
    5.2640   41.5720   49.3230 C   0  0  0  0  0  0  0  0  0  0  0  0
    3.9160   41.2000   48.9900 N   0  0  0  0  0  0  0  0  0  0  0  0
    3.5780   40.2940   47.9250 C   0  0  0  0  0  0  0  0  0  0  0  0
    3.0880   39.0180   48.2360 C   0  0  0  0  0  0  0  0  0  0  0  0
    2.7380   38.1290   47.2190 C   0  0  0  0  0  0  0  0  0  0  0  0
    2.8560   38.5090   45.8800 C   0  0  0  0  0  0  0  0  0  0  0  0
    3.3190   39.7970   45.5470 C   0  0  0  0  0  0  0  0  0  0  0  0
    3.4490   40.2430   44.2210 O   0  0  0  0  0  0  0  0  0  0  0  0
    4.3540   39.7250   43.2460 C   0  0  0  0  0  0  0  0  0  0  0  0
    5.7820   40.1890   43.5240 C   0  0  0  0  0  0  0  0  0  0  0  0
    5.8340   41.5630   43.6640 F   0  0  0  0  0  0  0  0  0  0  0  0
    3.6750   40.6800   46.5750 C   0  0  0  0  0  0  0  0  0  0  0  0
    5.5420   42.8020   50.1060 C   0  0  0  0  0  0  0  0  0  0  0  0
    4.7650   43.1350   51.2290 C   0  0  0  0  0  0  0  0  0  0  0  0
    5.0310   44.3010   51.9550 C   0  0  0  0  0  0  0  0  0  0  0  0
    6.0610   45.1650   51.5620 C   0  0  0  0  0  0  0  0  0  0  0  0
    6.3290   46.3430   52.3410 N   0  0  0  0  0  0  0  0  0  0  0  0
    7.5990   46.6450   52.9380 C   0  0  0  0  0  0  0  0  0  0  0  0
    7.6500   47.4640   54.0240 N   0  0  0  0  0  0  0  0  0  0  0  0
    8.8380   47.7940   54.5960 C   0  0  0  0  0  0  0  0  0  0  0  0
   10.0270   47.2970   54.0680 C   0  0  0  0  0  0  0  0  0  0  0  0
    9.9610   46.4690   52.9490 C   0  0  0  0  0  0  0  0  0  0  0  0
    8.7550   46.1630   52.4040 N   0  0  0  0  0  0  0  0  0  0  0  0
    6.8500   44.8270   50.4490 C   0  0  0  0  0  0  0  0  0  0  0  0
    6.5860   43.6630   49.7220 C   0  0  0  0  0  0  0  0  0  0  0  0
    3.1490   41.5140   49.6260 H   0  0  0  0  0  0  0  0  0  0  0  0
    2.9788   38.7157   49.2880 H   0  0  0  0  0  0  0  0  0  0  0  0
    2.3676   37.1248   47.4728 H   0  0  0  0  0  0  0  0  0  0  0  0
    2.5865   37.8002   45.0831 H   0  0  0  0  0  0  0  0  0  0  0  0
    4.3212   38.6258   43.2728 H   0  0  0  0  0  0  0  0  0  0  0  0
    4.0517   40.0954   42.2553 H   0  0  0  0  0  0  0  0  0  0  0  0
    6.1398   39.7184   44.4516 H   0  0  0  0  0  0  0  0  0  0  0  0
    6.4186   39.8971   42.6757 H   0  0  0  0  0  0  0  0  0  0  0  0
    4.0352   41.6885   46.3236 H   0  0  0  0  0  0  0  0  0  0  0  0
    3.9421   42.4743   51.5392 H   0  0  0  0  0  0  0  0  0  0  0  0
    4.4262   44.5412   52.8419 H   0  0  0  0  0  0  0  0  0  0  0  0
    5.5790   47.0680   52.4100 H   0  0  0  0  0  0  0  0  0  0  0  0
    8.8603   48.4536   55.4760 H   0  0  0  0  0  0  0  0  0  0  0  0
   10.9953   47.5520   54.5234 H   0  0  0  0  0  0  0  0  0  0  0  0
   10.8837   46.0640   52.5079 H   0  0  0  0  0  0  0  0  0  0  0  0
    7.6804   45.4827   50.1483 H   0  0  0  0  0  0  0  0  0  0  0  0
    7.1995   43.4181   48.8424 H   0  0  0  0  0  0  0  0  0  0  0  0
  1  2  2  0
  2  3  1  0
  3  4  1  0
  4  5  2  0
  5  6  1  0
  6  7  2  0
  7  8  1  0
  8  9  1  0
  9 10  1  0
 10 11  1  0
 11 12  1  0
  8 13  2  0
  2 14  1  0
 14 15  2  0
 15 16  1  0
 16 17  2  0
 17 18  1  0
 18 19  1  0
 19 20  2  0
 20 21  1  0
 21 22  2  0
 22 23  1  0
 23 24  2  0
 17 25  1  0
 25 26  2  0
 13  4  1  0
 26 14  1  0
 24 19  1  0
  3 27  1  0
  5 28  1  0
  6 29  1  0
  7 30  1  0
 10 31  1  0
 10 32  1  0
 11 33  1  0
 11 34  1  0
 13 35  1  0
 15 36  1  0
 16 37  1  0
 18 38  1  0
 21 39  1  0
 22 40  1  0
 23 41  1  0
 25 42  1  0
 26 43  1  0
M  END
>  <meeko>  (4) 
{"is_sidechain": [false], "free_energy": -7.523, "intermolecular_energy": -10.829, "internal_energy": -0.399}

$$$$
ligand_16_conformer_2_docked
     RDKit          3D

 43 45  0  0  0  0  0  0  0  0999 V2000
    4.8960   48.0440   53.5140 O   0  0  0  0  0  0  0  0  0  0  0  0
    4.7990   46.8340   53.8570 C   0  0  0  0  0  0  0  0  0  0  0  0
    5.9840   46.0890   54.1870 N   0  0  0  0  0  0  0  0  0  0  0  0
    7.3030   46.4470   53.7370 C   0  0  0  0  0  0  0  0  0  0  0  0
    8.1410   47.1880   54.5830 C   0  0  0  0  0  0  0  0  0  0  0  0
    9.4310   47.5310   54.1750 C   0  0  0  0  0  0  0  0  0  0  0  0
    9.9040   47.1260   52.9250 C   0  0  0  0  0  0  0  0  0  0  0  0
    9.0880   46.3570   52.0730 C   0  0  0  0  0  0  0  0  0  0  0  0
    9.5100   45.9080   50.8100 O   0  0  0  0  0  0  0  0  0  0  0  0
    9.5890   44.5480   50.3850 C   0  0  0  0  0  0  0  0  0  0  0  0
    8.5400   44.2460   49.3180 C   0  0  0  0  0  0  0  0  0  0  0  0
    7.3130   43.9770   49.8950 F   0  0  0  0  0  0  0  0  0  0  0  0
    7.7920   46.0230   52.4880 C   0  0  0  0  0  0  0  0  0  0  0  0
    3.4560   46.2120   53.9630 C   0  0  0  0  0  0  0  0  0  0  0  0
    2.5130   46.3460   52.9290 C   0  0  0  0  0  0  0  0  0  0  0  0
    1.2470   45.7620   53.0440 C   0  0  0  0  0  0  0  0  0  0  0  0
    0.8920   45.0520   54.1970 C   0  0  0  0  0  0  0  0  0  0  0  0
   -0.4070   44.4410   54.2780 N   0  0  0  0  0  0  0  0  0  0  0  0
   -1.2660   44.5200   55.4250 C   0  0  0  0  0  0  0  0  0  0  0  0
   -1.9850   43.4270   55.8000 N   0  0  0  0  0  0  0  0  0  0  0  0
   -2.8300   43.4740   56.8630 C   0  0  0  0  0  0  0  0  0  0  0  0
   -2.9760   44.6580   57.5830 C   0  0  0  0  0  0  0  0  0  0  0  0
   -2.2430   45.7740   57.1810 C   0  0  0  0  0  0  0  0  0  0  0  0
   -1.4100   45.6870   56.1120 N   0  0  0  0  0  0  0  0  0  0  0  0
    1.8370   44.9030   55.2270 C   0  0  0  0  0  0  0  0  0  0  0  0
    3.1030   45.4860   55.1140 C   0  0  0  0  0  0  0  0  0  0  0  0
    5.8990   45.3150   54.8830 H   0  0  0  0  0  0  0  0  0  0  0  0
    7.7795   47.5007   55.5738 H   0  0  0  0  0  0  0  0  0  0  0  0
   10.0773   48.1223   54.8403 H   0  0  0  0  0  0  0  0  0  0  0  0
   10.9177   47.4087   52.6047 H   0  0  0  0  0  0  0  0  0  0  0  0
   10.5897   44.3587   49.9693 H   0  0  0  0  0  0  0  0  0  0  0  0
    9.4028   43.8984   51.2530 H   0  0  0  0  0  0  0  0  0  0  0  0
    8.4421   45.1165   48.6526 H   0  0  0  0  0  0  0  0  0  0  0  0
    8.8622   43.3617   48.7487 H   0  0  0  0  0  0  0  0  0  0  0  0
    7.1488   45.4216   51.8287 H   0  0  0  0  0  0  0  0  0  0  0  0
    2.7724   46.9139   52.0234 H   0  0  0  0  0  0  0  0  0  0  0  0
    0.5240   45.8616   52.2210 H   0  0  0  0  0  0  0  0  0  0  0  0
   -0.7880   43.9790   53.4220 H   0  0  0  0  0  0  0  0  0  0  0  0
   -3.3981   42.5784   57.1548 H   0  0  0  0  0  0  0  0  0  0  0  0
   -3.6534   44.7111   58.4480 H   0  0  0  0  0  0  0  0  0  0  0  0
   -2.3393   46.7231   57.7287 H   0  0  0  0  0  0  0  0  0  0  0  0
    1.5792   44.3248   56.1266 H   0  0  0  0  0  0  0  0  0  0  0  0
    3.8291   45.3756   55.9329 H   0  0  0  0  0  0  0  0  0  0  0  0
  1  2  2  0
  2  3  1  0
  3  4  1  0
  4  5  2  0
  5  6  1  0
  6  7  2  0
  7  8  1  0
  8  9  1  0
  9 10  1  0
 10 11  1  0
 11 12  1  0
  8 13  2  0
  2 14  1  0
 14 15  2  0
 15 16  1  0
 16 17  2  0
 17 18  1  0
 18 19  1  0
 19 20  2  0
 20 21  1  0
 21 22  2  0
 22 23  1  0
 23 24  2  0
 17 25  1  0
 25 26  2  0
 13  4  1  0
 26 14  1  0
 24 19  1  0
  3 27  1  0
  5 28  1  0
  6 29  1  0
  7 30  1  0
 10 31  1  0
 10 32  1  0
 11 33  1  0
 11 34  1  0
 13 35  1  0
 15 36  1  0
 16 37  1  0
 18 38  1  0
 21 39  1  0
 22 40  1  0
 23 41  1  0
 25 42  1  0
 26 43  1  0
M  END
>  <meeko>  (5) 
{"is_sidechain": [false], "free_energy": -7.42, "intermolecular_energy": -10.362, "internal_energy": -0.721}

$$$$
