ligand_45_conformer_5_docked
     RDKit          3D

 49 51  0  0  0  0  0  0  0  0999 V2000
   11.0490   47.5820   56.2640 C   0  0  0  0  0  0  0  0  0  0  0  0
    9.8860   47.4000   55.3850 N   0  0  0  0  0  0  0  0  0  0  0  0
    9.0540   48.6120   55.3230 C   0  0  0  0  0  0  0  0  0  0  0  0
   10.2200   46.8280   54.0590 C   0  0  0  0  0  0  0  0  0  0  0  0
    9.4800   47.4480   52.8500 C   0  0  0  0  0  0  0  0  0  0  0  0
    9.0870   46.4420   51.7990 C   0  0  0  0  0  0  0  0  0  0  0  0
    7.7660   46.3890   51.3250 C   0  0  0  0  0  0  0  0  0  0  0  0
    7.3980   45.4430   50.3640 C   0  0  0  0  0  0  0  0  0  0  0  0
    8.3480   44.5470   49.8520 C   0  0  0  0  0  0  0  0  0  0  0  0
    7.9340   43.5030   48.8520 C   0  0  0  0  0  0  0  0  0  0  0  0
    6.5560   43.0870   49.0990 N   0  0  0  0  0  0  0  0  0  0  0  0
    6.2290   41.8730   49.7890 C   0  0  0  0  0  0  0  0  0  0  0  0
    7.1410   41.0830   50.1560 O   0  0  0  0  0  0  0  0  0  0  0  0
    4.7970   41.5090   50.0350 C   0  0  0  0  0  0  0  0  0  0  0  0
    4.2160   42.3970   51.1000 C   0  0  0  0  0  0  0  0  0  0  0  0
    2.8220   42.3930   51.3430 C   0  0  0  0  0  0  0  0  0  0  0  0
    2.2640   43.2410   52.3110 C   0  0  0  0  0  0  0  0  0  0  0  0
    3.1150   44.0890   53.0110 C   0  0  0  0  0  0  0  0  0  0  0  0
    2.7270   45.2010   54.2060 S   0  0  0  0  0  0  0  0  0  0  0  0
    4.3150   45.7350   54.4430 C   0  0  0  0  0  0  0  0  0  0  0  0
    5.1620   45.0400   53.5820 C   0  0  0  0  0  0  0  0  0  0  0  0
    4.4790   44.1170   52.7810 C   0  0  0  0  0  0  0  0  0  0  0  0
    5.0500   43.2770   51.8210 C   0  0  0  0  0  0  0  0  0  0  0  0
    9.6730   44.6110   50.3110 C   0  0  0  0  0  0  0  0  0  0  0  0
   10.0410   45.5570   51.2720 C   0  0  0  0  0  0  0  0  0  0  0  0
   10.7262   47.5315   57.3144 H   0  0  0  0  0  0  0  0  0  0  0  0
   11.7846   46.7880   56.0679 H   0  0  0  0  0  0  0  0  0  0  0  0
   11.5069   48.5627   56.0679 H   0  0  0  0  0  0  0  0  0  0  0  0
    8.8219   48.9500   56.3437 H   0  0  0  0  0  0  0  0  0  0  0  0
    9.5995   49.4043   54.7895 H   0  0  0  0  0  0  0  0  0  0  0  0
    8.1186   48.3877   54.7895 H   0  0  0  0  0  0  0  0  0  0  0  0
   11.3000   46.9603   53.8972 H   0  0  0  0  0  0  0  0  0  0  0  0
    9.8977   45.7770   54.0983 H   0  0  0  0  0  0  0  0  0  0  0  0
    8.5678   47.9412   53.2169 H   0  0  0  0  0  0  0  0  0  0  0  0
   10.1767   48.1540   52.3744 H   0  0  0  0  0  0  0  0  0  0  0  0
    7.0171   47.0956   51.7120 H   0  0  0  0  0  0  0  0  0  0  0  0
    6.3582   45.4010   50.0075 H   0  0  0  0  0  0  0  0  0  0  0  0
    8.0112   43.9208   47.8374 H   0  0  0  0  0  0  0  0  0  0  0  0
    8.5957   42.6297   48.9497 H   0  0  0  0  0  0  0  0  0  0  0  0
    5.7820   43.7000   48.7550 H   0  0  0  0  0  0  0  0  0  0  0  0
    4.2243   41.6341   49.1042 H   0  0  0  0  0  0  0  0  0  0  0  0
    4.7429   40.4623   50.3688 H   0  0  0  0  0  0  0  0  0  0  0  0
    2.1702   41.7190   50.7677 H   0  0  0  0  0  0  0  0  0  0  0  0
    1.1823   43.2353   52.5109 H   0  0  0  0  0  0  0  0  0  0  0  0
    4.6284   46.5068   55.1614 H   0  0  0  0  0  0  0  0  0  0  0  0
    6.2495   45.1993   53.5366 H   0  0  0  0  0  0  0  0  0  0  0  0
    6.1331   43.3017   51.6306 H   0  0  0  0  0  0  0  0  0  0  0  0
   10.4249   43.9138   49.9128 H   0  0  0  0  0  0  0  0  0  0  0  0
   11.0841   45.6083   51.6174 H   0  0  0  0  0  0  0  0  0  0  0  0
  1  2  1  0
  2  3  1  0
  2  4  1  0
  4  5  1  0
  5  6  1  0
  6  7  2  0
  7  8  1  0
  8  9  2  0
  9 10  1  0
 10 11  1  0
 11 12  1  0
 12 13  2  0
 12 14  1  0
 14 15  1  0
 15 16  2  0
 16 17  1  0
 17 18  2  0
 18 19  1  0
 19 20  1  0
 20 21  2  0
 21 22  1  0
 22 23  2  0
  9 24  1  0
 24 25  2  0
 25  6  1  0
 23 15  1  0
 22 18  1  0
  1 26  1  0
  1 27  1  0
  1 28  1  0
  3 29  1  0
  3 30  1  0
  3 31  1  0
  4 32  1  0
  4 33  1  0
  5 34  1  0
  5 35  1  0
  7 36  1  0
  8 37  1  0
 10 38  1  0
 10 39  1  0
 11 40  1  0
 14 41  1  0
 14 42  1  0
 16 43  1  0
 17 44  1  0
 20 45  1  0
 21 46  1  0
 23 47  1  0
 24 48  1  0
 25 49  1  0
M  END
>  <meeko>  (1) 
{"is_sidechain": [false], "free_energy": -8.65, "intermolecular_energy": -12.189, "internal_energy": -1.034}

$$$$
ligand_45_conformer_5_docked
     RDKit          3D

 49 51  0  0  0  0  0  0  0  0999 V2000
    7.4680   46.9050   54.5850 C   0  0  0  0  0  0  0  0  0  0  0  0
    8.4380   47.9740   54.3040 N   0  0  0  0  0  0  0  0  0  0  0  0
    9.5380   47.9820   55.2810 C   0  0  0  0  0  0  0  0  0  0  0  0
    8.8840   48.0240   52.8910 C   0  0  0  0  0  0  0  0  0  0  0  0
    9.8180   46.8770   52.4380 C   0  0  0  0  0  0  0  0  0  0  0  0
    9.1970   45.9570   51.4190 C   0  0  0  0  0  0  0  0  0  0  0  0
    7.8370   46.0760   51.0890 C   0  0  0  0  0  0  0  0  0  0  0  0
    7.2570   45.2100   50.1580 C   0  0  0  0  0  0  0  0  0  0  0  0
    8.0320   44.2220   49.5320 C   0  0  0  0  0  0  0  0  0  0  0  0
    7.3900   43.2650   48.5650 C   0  0  0  0  0  0  0  0  0  0  0  0
    6.1020   42.8120   49.0840 N   0  0  0  0  0  0  0  0  0  0  0  0
    5.9710   41.6530   49.9160 C   0  0  0  0  0  0  0  0  0  0  0  0
    6.9770   40.9400   50.1810 O   0  0  0  0  0  0  0  0  0  0  0  0
    4.6260   41.2500   50.4390 C   0  0  0  0  0  0  0  0  0  0  0  0
    3.9490   42.4280   51.0820 C   0  0  0  0  0  0  0  0  0  0  0  0
    4.6690   43.2630   51.9670 C   0  0  0  0  0  0  0  0  0  0  0  0
    4.0390   44.3450   52.6000 C   0  0  0  0  0  0  0  0  0  0  0  0
    2.6900   44.5630   52.3410 C   0  0  0  0  0  0  0  0  0  0  0  0
    1.6910   45.7630   52.9560 S   0  0  0  0  0  0  0  0  0  0  0  0
    0.3070   45.2510   52.1280 C   0  0  0  0  0  0  0  0  0  0  0  0
    0.6230   44.1310   51.3620 C   0  0  0  0  0  0  0  0  0  0  0  0
    1.9630   43.7510   51.4870 C   0  0  0  0  0  0  0  0  0  0  0  0
    2.5780   42.6710   50.8490 C   0  0  0  0  0  0  0  0  0  0  0  0
    9.3950   44.1140   49.8460 C   0  0  0  0  0  0  0  0  0  0  0  0
    9.9750   44.9800   50.7770 C   0  0  0  0  0  0  0  0  0  0  0  0
    7.3593   46.7852   55.6730 H   0  0  0  0  0  0  0  0  0  0  0  0
    6.4944   47.1686   54.1461 H   0  0  0  0  0  0  0  0  0  0  0  0
    7.8247   45.9615   54.1461 H   0  0  0  0  0  0  0  0  0  0  0  0
    9.1235   47.9790   56.2999 H   0  0  0  0  0  0  0  0  0  0  0  0
   10.1630   47.0884   55.1368 H   0  0  0  0  0  0  0  0  0  0  0  0
   10.1499   48.8846   55.1368 H   0  0  0  0  0  0  0  0  0  0  0  0
    7.9879   48.0011   52.2534 H   0  0  0  0  0  0  0  0  0  0  0  0
    9.4767   48.9460   52.7976 H   0  0  0  0  0  0  0  0  0  0  0  0
   10.7243   47.3199   51.9994 H   0  0  0  0  0  0  0  0  0  0  0  0
   10.0365   46.2696   53.3287 H   0  0  0  0  0  0  0  0  0  0  0  0
    7.2248   46.8554   51.5662 H   0  0  0  0  0  0  0  0  0  0  0  0
    6.1883   45.3034   49.9149 H   0  0  0  0  0  0  0  0  0  0  0  0
    7.2354   43.7716   47.6009 H   0  0  0  0  0  0  0  0  0  0  0  0
    8.0490   42.3946   48.4304 H   0  0  0  0  0  0  0  0  0  0  0  0
    5.2450   43.3570   48.8310 H   0  0  0  0  0  0  0  0  0  0  0  0
    4.0067   40.8837   49.6070 H   0  0  0  0  0  0  0  0  0  0  0  0
    4.7539   40.4546   51.1880 H   0  0  0  0  0  0  0  0  0  0  0  0
    5.7330   43.0625   52.1611 H   0  0  0  0  0  0  0  0  0  0  0  0
    4.5968   45.0030   53.2826 H   0  0  0  0  0  0  0  0  0  0  0  0
   -0.6834   45.7262   52.1853 H   0  0  0  0  0  0  0  0  0  0  0  0
   -0.1034   43.6025   50.7272 H   0  0  0  0  0  0  0  0  0  0  0  0
    2.0024   42.0195   50.1750 H   0  0  0  0  0  0  0  0  0  0  0  0
   10.0101   43.3441   49.3572 H   0  0  0  0  0  0  0  0  0  0  0  0
   11.0471   44.8958   51.0082 H   0  0  0  0  0  0  0  0  0  0  0  0
  1  2  1  0
  2  3  1  0
  2  4  1  0
  4  5  1  0
  5  6  1  0
  6  7  2  0
  7  8  1  0
  8  9  2  0
  9 10  1  0
 10 11  1  0
 11 12  1  0
 12 13  2  0
 12 14  1  0
 14 15  1  0
 15 16  2  0
 16 17  1  0
 17 18  2  0
 18 19  1  0
 19 20  1  0
 20 21  2  0
 21 22  1  0
 22 23  2  0
  9 24  1  0
 24 25  2  0
 25  6  1  0
 23 15  1  0
 22 18  1  0
  1 26  1  0
  1 27  1  0
  1 28  1  0
  3 29  1  0
  3 30  1  0
  3 31  1  0
  4 32  1  0
  4 33  1  0
  5 34  1  0
  5 35  1  0
  7 36  1  0
  8 37  1  0
 10 38  1  0
 10 39  1  0
 11 40  1  0
 14 41  1  0
 14 42  1  0
 16 43  1  0
 17 44  1  0
 20 45  1  0
 21 46  1  0
 23 47  1  0
 24 48  1  0
 25 49  1  0
M  END
>  <meeko>  (2) 
{"is_sidechain": [false], "free_energy": -8.057, "intermolecular_energy": -11.311, "internal_energy": -1.076}

$$$$
ligand_45_conformer_5_docked
     RDKit          3D

 49 51  0  0  0  0  0  0  0  0999 V2000
   -1.3650   42.7490   52.2140 C   0  0  0  0  0  0  0  0  0  0  0  0
    0.0550   42.4820   52.4810 N   0  0  0  0  0  0  0  0  0  0  0  0
    0.9120   42.9360   51.3740 C   0  0  0  0  0  0  0  0  0  0  0  0
    0.5090   42.9280   53.8190 C   0  0  0  0  0  0  0  0  0  0  0  0
    0.2770   44.4220   54.1480 C   0  0  0  0  0  0  0  0  0  0  0  0
    1.5390   45.2440   54.1550 C   0  0  0  0  0  0  0  0  0  0  0  0
    1.9040   45.9960   53.0260 C   0  0  0  0  0  0  0  0  0  0  0  0
    3.0850   46.7430   53.0270 C   0  0  0  0  0  0  0  0  0  0  0  0
    3.9110   46.7610   54.1610 C   0  0  0  0  0  0  0  0  0  0  0  0
    5.2020   47.5320   54.1370 C   0  0  0  0  0  0  0  0  0  0  0  0
    5.8630   47.3690   52.8440 N   0  0  0  0  0  0  0  0  0  0  0  0
    7.1380   46.7270   52.7060 C   0  0  0  0  0  0  0  0  0  0  0  0
    7.7660   46.3310   53.7250 O   0  0  0  0  0  0  0  0  0  0  0  0
    7.7560   46.5670   51.3510 C   0  0  0  0  0  0  0  0  0  0  0  0
    7.3420   45.2540   50.7470 C   0  0  0  0  0  0  0  0  0  0  0  0
    8.1150   44.6730   49.7160 C   0  0  0  0  0  0  0  0  0  0  0  0
    7.7200   43.4650   49.1210 C   0  0  0  0  0  0  0  0  0  0  0  0
    6.5460   42.8660   49.5660 C   0  0  0  0  0  0  0  0  0  0  0  0
    5.8380   41.4400   49.0370 S   0  0  0  0  0  0  0  0  0  0  0  0
    4.5170   41.5230   50.0920 C   0  0  0  0  0  0  0  0  0  0  0  0
    4.6260   42.6750   50.8680 C   0  0  0  0  0  0  0  0  0  0  0  0
    5.7680   43.4240   50.5660 C   0  0  0  0  0  0  0  0  0  0  0  0
    6.1490   44.6260   51.1680 C   0  0  0  0  0  0  0  0  0  0  0  0
    3.5380   46.0260   55.2960 C   0  0  0  0  0  0  0  0  0  0  0  0
    2.3570   45.2780   55.2960 C   0  0  0  0  0  0  0  0  0  0  0  0
   -1.9046   42.8505   53.1672 H   0  0  0  0  0  0  0  0  0  0  0  0
   -1.4608   43.6809   51.6375 H   0  0  0  0  0  0  0  0  0  0  0  0
   -1.7927   41.9155   51.6375 H   0  0  0  0  0  0  0  0  0  0  0  0
    1.8148   43.4143   51.7816 H   0  0  0  0  0  0  0  0  0  0  0  0
    1.2013   42.0729   50.7565 H   0  0  0  0  0  0  0  0  0  0  0  0
    0.3604   43.6602   50.7565 H   0  0  0  0  0  0  0  0  0  0  0  0
   -0.0246   42.3301   54.5726 H   0  0  0  0  0  0  0  0  0  0  0  0
    1.6000   42.7877   53.8252 H   0  0  0  0  0  0  0  0  0  0  0  0
   -0.4063   44.8413   53.3948 H   0  0  0  0  0  0  0  0  0  0  0  0
   -0.1406   44.4659   55.1647 H   0  0  0  0  0  0  0  0  0  0  0  0
    1.2568   45.9968   52.1365 H   0  0  0  0  0  0  0  0  0  0  0  0
    3.3685   47.3198   52.1343 H   0  0  0  0  0  0  0  0  0  0  0  0
    4.9916   48.5984   54.3056 H   0  0  0  0  0  0  0  0  0  0  0  0
    5.8631   47.1499   54.9288 H   0  0  0  0  0  0  0  0  0  0  0  0
    5.3850   47.7390   51.9920 H   0  0  0  0  0  0  0  0  0  0  0  0
    7.4228   47.3884   50.6997 H   0  0  0  0  0  0  0  0  0  0  0  0
    8.8514   46.5889   51.4496 H   0  0  0  0  0  0  0  0  0  0  0  0
    9.0346   45.1724   49.3770 H   0  0  0  0  0  0  0  0  0  0  0  0
    8.3224   43.0042   48.3243 H   0  0  0  0  0  0  0  0  0  0  0  0
    3.7031   40.7857   50.1549 H   0  0  0  0  0  0  0  0  0  0  0  0
    3.8930   42.9643   51.6354 H   0  0  0  0  0  0  0  0  0  0  0  0
    5.5294   45.0762   51.9576 H   0  0  0  0  0  0  0  0  0  0  0  0
    4.1780   46.0383   56.1906 H   0  0  0  0  0  0  0  0  0  0  0  0
    2.0670   44.7132   56.1943 H   0  0  0  0  0  0  0  0  0  0  0  0
  1  2  1  0
  2  3  1  0
  2  4  1  0
  4  5  1  0
  5  6  1  0
  6  7  2  0
  7  8  1  0
  8  9  2  0
  9 10  1  0
 10 11  1  0
 11 12  1  0
 12 13  2  0
 12 14  1  0
 14 15  1  0
 15 16  2  0
 16 17  1  0
 17 18  2  0
 18 19  1  0
 19 20  1  0
 20 21  2  0
 21 22  1  0
 22 23  2  0
  9 24  1  0
 24 25  2  0
 25  6  1  0
 23 15  1  0
 22 18  1  0
  1 26  1  0
  1 27  1  0
  1 28  1  0
  3 29  1  0
  3 30  1  0
  3 31  1  0
  4 32  1  0
  4 33  1  0
  5 34  1  0
  5 35  1  0
  7 36  1  0
  8 37  1  0
 10 38  1  0
 10 39  1  0
 11 40  1  0
 14 41  1  0
 14 42  1  0
 16 43  1  0
 17 44  1  0
 20 45  1  0
 21 46  1  0
 23 47  1  0
 24 48  1  0
 25 49  1  0
M  END
>  <meeko>  (3) 
{"is_sidechain": [false], "free_energy": -7.969, "intermolecular_energy": -11.339, "internal_energy": -0.926}

$$$$
ligand_45_conformer_5_docked
     RDKit          3D

 49 51  0  0  0  0  0  0  0  0999 V2000
    9.8740   47.0610   53.9720 C   0  0  0  0  0  0  0  0  0  0  0  0
    9.7510   47.1860   52.5120 N   0  0  0  0  0  0  0  0  0  0  0  0
   10.2700   45.9970   51.8180 C   0  0  0  0  0  0  0  0  0  0  0  0
    8.4050   47.6110   52.0580 C   0  0  0  0  0  0  0  0  0  0  0  0
    7.2270   47.2280   52.9850 C   0  0  0  0  0  0  0  0  0  0  0  0
    6.4340   46.0430   52.4980 C   0  0  0  0  0  0  0  0  0  0  0  0
    5.6940   45.2640   53.4020 C   0  0  0  0  0  0  0  0  0  0  0  0
    4.9730   44.1530   52.9520 C   0  0  0  0  0  0  0  0  0  0  0  0
    4.9710   43.8150   51.5910 C   0  0  0  0  0  0  0  0  0  0  0  0
    4.2300   42.5930   51.1220 C   0  0  0  0  0  0  0  0  0  0  0  0
    3.1320   42.2870   52.0370 N   0  0  0  0  0  0  0  0  0  0  0  0
    1.8160   42.8300   51.8700 C   0  0  0  0  0  0  0  0  0  0  0  0
    1.5770   43.6510   50.9430 O   0  0  0  0  0  0  0  0  0  0  0  0
    0.7240   42.4620   52.8270 C   0  0  0  0  0  0  0  0  0  0  0  0
    0.6290   43.4890   53.9210 C   0  0  0  0  0  0  0  0  0  0  0  0
    1.7960   44.1430   54.3810 C   0  0  0  0  0  0  0  0  0  0  0  0
    1.7250   45.0780   55.4240 C   0  0  0  0  0  0  0  0  0  0  0  0
    0.4830   45.3320   55.9970 C   0  0  0  0  0  0  0  0  0  0  0  0
    0.1080   46.3830   57.2500 S   0  0  0  0  0  0  0  0  0  0  0  0
   -1.5470   46.0300   57.2580 C   0  0  0  0  0  0  0  0  0  0  0  0
   -1.8150   45.0800   56.2730 C   0  0  0  0  0  0  0  0  0  0  0  0
   -0.6690   44.6940   55.5700 C   0  0  0  0  0  0  0  0  0  0  0  0
   -0.6140   43.7610   54.5310 C   0  0  0  0  0  0  0  0  0  0  0  0
    5.6950   44.6030   50.6830 C   0  0  0  0  0  0  0  0  0  0  0  0
    6.4150   45.7140   51.1330 C   0  0  0  0  0  0  0  0  0  0  0  0
    9.1825   47.7638   54.4597 H   0  0  0  0  0  0  0  0  0  0  0  0
    9.6256   46.0329   54.2742 H   0  0  0  0  0  0  0  0  0  0  0  0
   10.9060   47.2928   54.2742 H   0  0  0  0  0  0  0  0  0  0  0  0
   10.5950   45.2524   52.5595 H   0  0  0  0  0  0  0  0  0  0  0  0
    9.4783   45.5656   51.1878 H   0  0  0  0  0  0  0  0  0  0  0  0
   11.1246   46.2842   51.1878 H   0  0  0  0  0  0  0  0  0  0  0  0
    8.4132   48.7065   51.9585 H   0  0  0  0  0  0  0  0  0  0  0  0
    8.2267   47.0759   51.1136 H   0  0  0  0  0  0  0  0  0  0  0  0
    7.6311   46.9903   53.9801 H   0  0  0  0  0  0  0  0  0  0  0  0
    6.5410   48.0877   53.0052 H   0  0  0  0  0  0  0  0  0  0  0  0
    5.6812   45.5288   54.4696 H   0  0  0  0  0  0  0  0  0  0  0  0
    4.4051   43.5418   53.6688 H   0  0  0  0  0  0  0  0  0  0  0  0
    3.8243   42.7776   50.1163 H   0  0  0  0  0  0  0  0  0  0  0  0
    4.9241   41.7400   51.0959 H   0  0  0  0  0  0  0  0  0  0  0  0
    3.3220   41.6510   52.8450 H   0  0  0  0  0  0  0  0  0  0  0  0
   -0.2331   42.4160   52.2868 H   0  0  0  0  0  0  0  0  0  0  0  0
    0.9498   41.4816   53.2717 H   0  0  0  0  0  0  0  0  0  0  0  0
    2.7672   43.9164   53.9168 H   0  0  0  0  0  0  0  0  0  0  0  0
    2.6275   45.5968   55.7795 H   0  0  0  0  0  0  0  0  0  0  0  0
   -2.2919   46.4781   57.9321 H   0  0  0  0  0  0  0  0  0  0  0  0
   -2.8187   44.6778   56.0708 H   0  0  0  0  0  0  0  0  0  0  0  0
   -1.5259   43.2465   54.1938 H   0  0  0  0  0  0  0  0  0  0  0  0
    5.6961   44.3457   49.6135 H   0  0  0  0  0  0  0  0  0  0  0  0
    6.9698   46.3340   50.4134 H   0  0  0  0  0  0  0  0  0  0  0  0
  1  2  1  0
  2  3  1  0
  2  4  1  0
  4  5  1  0
  5  6  1  0
  6  7  2  0
  7  8  1  0
  8  9  2  0
  9 10  1  0
 10 11  1  0
 11 12  1  0
 12 13  2  0
 12 14  1  0
 14 15  1  0
 15 16  2  0
 16 17  1  0
 17 18  2  0
 18 19  1  0
 19 20  1  0
 20 21  2  0
 21 22  1  0
 22 23  2  0
  9 24  1  0
 24 25  2  0
 25  6  1  0
 23 15  1  0
 22 18  1  0
  1 26  1  0
  1 27  1  0
  1 28  1  0
  3 29  1  0
  3 30  1  0
  3 31  1  0
  4 32  1  0
  4 33  1  0
  5 34  1  0
  5 35  1  0
  7 36  1  0
  8 37  1  0
 10 38  1  0
 10 39  1  0
 11 40  1  0
 14 41  1  0
 14 42  1  0
 16 43  1  0
 17 44  1  0
 20 45  1  0
 21 46  1  0
 23 47  1  0
 24 48  1  0
 25 49  1  0
M  END
>  <meeko>  (4) 
{"is_sidechain": [false], "free_energy": -7.817, "intermolecular_energy": -11.226, "internal_energy": -0.824}

$$$$
ligand_45_conformer_5_docked
     RDKit          3D

 49 51  0  0  0  0  0  0  0  0999 V2000
    0.1410   47.9550   59.8290 C   0  0  0  0  0  0  0  0  0  0  0  0
   -1.1290   47.7720   59.1100 N   0  0  0  0  0  0  0  0  0  0  0  0
   -1.8620   49.0400   58.9690 C   0  0  0  0  0  0  0  0  0  0  0  0
   -0.9990   47.0040   57.8490 C   0  0  0  0  0  0  0  0  0  0  0  0
    0.4050   46.4260   57.5520 C   0  0  0  0  0  0  0  0  0  0  0  0
    0.4290   45.4580   56.3970 C   0  0  0  0  0  0  0  0  0  0  0  0
   -0.7490   44.8150   55.9840 C   0  0  0  0  0  0  0  0  0  0  0  0
   -0.7210   43.9040   54.9240 C   0  0  0  0  0  0  0  0  0  0  0  0
    0.4810   43.6330   54.2540 C   0  0  0  0  0  0  0  0  0  0  0  0
    0.5100   42.6170   53.1450 C   0  0  0  0  0  0  0  0  0  0  0  0
    1.8910   42.3110   52.7780 N   0  0  0  0  0  0  0  0  0  0  0  0
    2.4760   42.7490   51.5440 C   0  0  0  0  0  0  0  0  0  0  0  0
    1.7830   43.3730   50.6960 O   0  0  0  0  0  0  0  0  0  0  0  0
    3.9050   42.4250   51.2330 C   0  0  0  0  0  0  0  0  0  0  0  0
    4.7870   43.5900   51.5880 C   0  0  0  0  0  0  0  0  0  0  0  0
    5.6170   44.1750   50.6040 C   0  0  0  0  0  0  0  0  0  0  0  0
    6.4700   45.2400   50.9310 C   0  0  0  0  0  0  0  0  0  0  0  0
    6.4830   45.6920   52.2460 C   0  0  0  0  0  0  0  0  0  0  0  0
    7.3970   46.9300   52.9140 S   0  0  0  0  0  0  0  0  0  0  0  0
    6.7780   46.7520   54.4790 C   0  0  0  0  0  0  0  0  0  0  0  0
    5.8470   45.7150   54.4850 C   0  0  0  0  0  0  0  0  0  0  0  0
    5.6870   45.1260   53.2270 C   0  0  0  0  0  0  0  0  0  0  0  0
    4.8320   44.0650   52.9160 C   0  0  0  0  0  0  0  0  0  0  0  0
    1.6560   44.2890   54.6540 C   0  0  0  0  0  0  0  0  0  0  0  0
    1.6280   45.2010   55.7130 C   0  0  0  0  0  0  0  0  0  0  0  0
   -0.0442   47.9283   60.9130 H   0  0  0  0  0  0  0  0  0  0  0  0
    0.8366   47.1478   59.5559 H   0  0  0  0  0  0  0  0  0  0  0  0
    0.5804   48.9257   59.5559 H   0  0  0  0  0  0  0  0  0  0  0  0
   -2.0944   49.4420   59.9662 H   0  0  0  0  0  0  0  0  0  0  0  0
   -1.2422   49.7625   58.4177 H   0  0  0  0  0  0  0  0  0  0  0  0
   -2.7974   48.8635   58.4177 H   0  0  0  0  0  0  0  0  0  0  0  0
   -1.7074   46.1636   57.8916 H   0  0  0  0  0  0  0  0  0  0  0  0
   -1.2027   47.7218   57.0407 H   0  0  0  0  0  0  0  0  0  0  0  0
    1.0824   47.2609   57.3197 H   0  0  0  0  0  0  0  0  0  0  0  0
    0.7189   45.8677   58.4463 H   0  0  0  0  0  0  0  0  0  0  0  0
   -1.6983   45.0291   56.4969 H   0  0  0  0  0  0  0  0  0  0  0  0
   -1.6466   43.3970   54.6138 H   0  0  0  0  0  0  0  0  0  0  0  0
    0.0110   41.6965   53.4822 H   0  0  0  0  0  0  0  0  0  0  0  0
   -0.0123   43.0273   52.2681 H   0  0  0  0  0  0  0  0  0  0  0  0
    2.4680   41.7480   53.4430 H   0  0  0  0  0  0  0  0  0  0  0  0
    4.2135   41.5442   51.8152 H   0  0  0  0  0  0  0  0  0  0  0  0
    4.0011   42.2147   50.1576 H   0  0  0  0  0  0  0  0  0  0  0  0
    5.5938   43.7918   49.5732 H   0  0  0  0  0  0  0  0  0  0  0  0
    7.1112   45.7049   50.1676 H   0  0  0  0  0  0  0  0  0  0  0  0
    7.0645   47.3576   55.3514 H   0  0  0  0  0  0  0  0  0  0  0  0
    5.2974   45.3945   55.3824 H   0  0  0  0  0  0  0  0  0  0  0  0
    4.2039   43.6073   53.6944 H   0  0  0  0  0  0  0  0  0  0  0  0
    2.6024   44.0845   54.1320 H   0  0  0  0  0  0  0  0  0  0  0  0
    2.5504   45.7202   56.0122 H   0  0  0  0  0  0  0  0  0  0  0  0
  1  2  1  0
  2  3  1  0
  2  4  1  0
  4  5  1  0
  5  6  1  0
  6  7  2  0
  7  8  1  0
  8  9  2  0
  9 10  1  0
 10 11  1  0
 11 12  1  0
 12 13  2  0
 12 14  1  0
 14 15  1  0
 15 16  2  0
 16 17  1  0
 17 18  2  0
 18 19  1  0
 19 20  1  0
 20 21  2  0
 21 22  1  0
 22 23  2  0
  9 24  1  0
 24 25  2  0
 25  6  1  0
 23 15  1  0
 22 18  1  0
  1 26  1  0
  1 27  1  0
  1 28  1  0
  3 29  1  0
  3 30  1  0
  3 31  1  0
  4 32  1  0
  4 33  1  0
  5 34  1  0
  5 35  1  0
  7 36  1  0
  8 37  1  0
 10 38  1  0
 10 39  1  0
 11 40  1  0
 14 41  1  0
 14 42  1  0
 16 43  1  0
 17 44  1  0
 20 45  1  0
 21 46  1  0
 23 47  1  0
 24 48  1  0
 25 49  1  0
M  END
>  <meeko>  (5) 
{"is_sidechain": [false], "free_energy": -7.649, "intermolecular_energy": -10.887, "internal_energy": -0.925}

$$$$
