ligand_54_conformer_4_docked
     RDKit          3D

 43 45  0  0  0  0  0  0  0  0999 V2000
    6.1740   44.1130   50.4300 C   0  0  0  0  0  0  0  0  0  0  0  0
    5.4500   45.7010   50.9500 S   0  0  0  0  0  0  0  0  0  0  0  0
    6.8540   46.1360   51.9900 C   0  0  0  0  0  0  0  0  0  0  0  0
    8.1380   46.0490   51.4340 C   0  0  0  0  0  0  0  0  0  0  0  0
    9.2620   46.4640   52.1610 C   0  0  0  0  0  0  0  0  0  0  0  0
   10.6340   46.3390   51.5690 C   0  0  0  0  0  0  0  0  0  0  0  0
    9.0980   46.9430   53.4680 C   0  0  0  0  0  0  0  0  0  0  0  0
    7.8250   47.0230   54.0340 C   0  0  0  0  0  0  0  0  0  0  0  0
    6.6920   46.6070   53.3150 C   0  0  0  0  0  0  0  0  0  0  0  0
    5.3700   46.6680   53.9760 C   0  0  0  0  0  0  0  0  0  0  0  0
    4.8820   47.7920   54.2770 O   0  0  0  0  0  0  0  0  0  0  0  0
    4.6910   45.4640   54.3630 N   0  0  0  0  0  0  0  0  0  0  0  0
    3.3800   45.4540   54.9430 C   0  0  0  0  0  0  0  0  0  0  0  0
    3.0880   45.9870   56.1380 N   0  0  0  0  0  0  0  0  0  0  0  0
    1.7930   45.8110   56.3450 N   0  0  0  0  0  0  0  0  0  0  0  0
    1.2370   45.1670   55.3270 N   0  0  0  0  0  0  0  0  0  0  0  0
    2.2110   44.9270   54.4240 C   0  0  0  0  0  0  0  0  0  0  0  0
    2.0380   44.1030   53.2100 C   0  0  0  0  0  0  0  0  0  0  0  0
    2.9840   43.3590   52.8390 O   0  0  0  0  0  0  0  0  0  0  0  0
    0.8120   44.1120   52.4560 N   0  0  0  0  0  0  0  0  0  0  0  0
   -0.2730   45.0610   52.6500 C   0  0  0  0  0  0  0  0  0  0  0  0
   -1.1860   44.8920   51.4430 C   0  0  0  0  0  0  0  0  0  0  0  0
   -0.8190   43.5430   50.8310 C   0  0  0  0  0  0  0  0  0  0  0  0
    0.5920   43.2400   51.3150 C   0  0  0  0  0  0  0  0  0  0  0  0
    6.4426   43.5238   51.3192 H   0  0  0  0  0  0  0  0  0  0  0  0
    5.4411   43.5554   49.8283 H   0  0  0  0  0  0  0  0  0  0  0  0
    7.0756   44.3006   49.8283 H   0  0  0  0  0  0  0  0  0  0  0  0
    8.2646   45.6508   50.4164 H   0  0  0  0  0  0  0  0  0  0  0  0
   11.3772   46.2713   52.3771 H   0  0  0  0  0  0  0  0  0  0  0  0
   10.6841   45.4326   50.9478 H   0  0  0  0  0  0  0  0  0  0  0  0
   10.8471   47.2214   50.9478 H   0  0  0  0  0  0  0  0  0  0  0  0
    9.9768   47.2573   54.0502 H   0  0  0  0  0  0  0  0  0  0  0  0
    7.7073   47.4162   55.0546 H   0  0  0  0  0  0  0  0  0  0  0  0
    5.2540   44.5860   54.4350 H   0  0  0  0  0  0  0  0  0  0  0  0
    3.7400   46.4680   56.7940 H   0  0  0  0  0  0  0  0  0  0  0  0
   -0.8184   44.8361   53.5784 H   0  0  0  0  0  0  0  0  0  0  0  0
    0.0993   46.0924   52.7374 H   0  0  0  0  0  0  0  0  0  0  0  0
   -2.2404   44.8965   51.7564 H   0  0  0  0  0  0  0  0  0  0  0  0
   -1.0596   45.7124   50.7212 H   0  0  0  0  0  0  0  0  0  0  0  0
   -1.5169   42.7644   51.1727 H   0  0  0  0  0  0  0  0  0  0  0  0
   -0.8745   43.5674   49.7327 H   0  0  0  0  0  0  0  0  0  0  0  0
    0.6759   42.1854   51.6164 H   0  0  0  0  0  0  0  0  0  0  0  0
    1.3377   43.4100   50.5244 H   0  0  0  0  0  0  0  0  0  0  0  0
  1  2  1  0
  2  3  1  0
  3  4  2  0
  4  5  1  0
  5  6  1  0
  5  7  2  0
  7  8  1  0
  8  9  2  0
  9 10  1  0
 10 11  2  0
 10 12  1  0
 12 13  1  0
 13 14  1  0
 14 15  1  0
 15 16  2  0
 16 17  1  0
 17 18  1  0
 18 19  2  0
 18 20  1  0
 20 21  1  0
 21 22  1  0
 22 23  1  0
 23 24  1  0
  9  3  1  0
 17 13  2  0
 24 20  1  0
  1 25  1  0
  1 26  1  0
  1 27  1  0
  4 28  1  0
  6 29  1  0
  6 30  1  0
  6 31  1  0
  7 32  1  0
  8 33  1  0
 12 34  1  0
 14 35  1  0
 21 36  1  0
 21 37  1  0
 22 38  1  0
 22 39  1  0
 23 40  1  0
 23 41  1  0
 24 42  1  0
 24 43  1  0
M  END
>  <meeko>  (1) 
{"is_sidechain": [false], "free_energy": -8.662, "intermolecular_energy": -10.688, "internal_energy": -0.736}

$$$$
ligand_54_conformer_4_docked
     RDKit          3D

 43 45  0  0  0  0  0  0  0  0999 V2000
    5.0320   46.3330   54.9690 C   0  0  0  0  0  0  0  0  0  0  0  0
    4.6340   47.5520   53.6760 S   0  0  0  0  0  0  0  0  0  0  0  0
    5.7390   46.8050   52.4650 C   0  0  0  0  0  0  0  0  0  0  0  0
    7.1110   47.0740   52.5720 C   0  0  0  0  0  0  0  0  0  0  0  0
    8.0310   46.4480   51.7190 C   0  0  0  0  0  0  0  0  0  0  0  0
    9.4930   46.7650   51.8230 C   0  0  0  0  0  0  0  0  0  0  0  0
    7.5660   45.5690   50.7330 C   0  0  0  0  0  0  0  0  0  0  0  0
    6.2010   45.3040   50.6110 C   0  0  0  0  0  0  0  0  0  0  0  0
    5.2710   45.9280   51.4590 C   0  0  0  0  0  0  0  0  0  0  0  0
    3.8310   45.6500   51.2600 C   0  0  0  0  0  0  0  0  0  0  0  0
    3.1620   46.3880   50.4860 O   0  0  0  0  0  0  0  0  0  0  0  0
    3.1770   44.6150   52.0100 N   0  0  0  0  0  0  0  0  0  0  0  0
    1.8040   44.2530   51.8130 C   0  0  0  0  0  0  0  0  0  0  0  0
    1.3220   43.7420   50.6710 N   0  0  0  0  0  0  0  0  0  0  0  0
    0.0310   43.5150   50.8510 N   0  0  0  0  0  0  0  0  0  0  0  0
   -0.3440   43.8760   52.0710 N   0  0  0  0  0  0  0  0  0  0  0  0
    0.7510   44.3460   52.7050 C   0  0  0  0  0  0  0  0  0  0  0  0
    0.7330   44.9840   54.0370 C   0  0  0  0  0  0  0  0  0  0  0  0
    1.6730   45.7610   54.3520 O   0  0  0  0  0  0  0  0  0  0  0  0
   -0.3380   44.7590   54.9730 N   0  0  0  0  0  0  0  0  0  0  0  0
   -1.3680   43.7430   54.8230 C   0  0  0  0  0  0  0  0  0  0  0  0
   -2.0660   43.6650   56.1740 C   0  0  0  0  0  0  0  0  0  0  0  0
   -1.6970   44.9520   56.9060 C   0  0  0  0  0  0  0  0  0  0  0  0
   -0.4180   45.4500   56.2480 C   0  0  0  0  0  0  0  0  0  0  0  0
    4.8836   46.7876   55.9596 H   0  0  0  0  0  0  0  0  0  0  0  0
    4.3726   45.4588   54.8642 H   0  0  0  0  0  0  0  0  0  0  0  0
    6.0802   46.0163   54.8642 H   0  0  0  0  0  0  0  0  0  0  0  0
    7.4691   47.7832   53.3328 H   0  0  0  0  0  0  0  0  0  0  0  0
    9.7802   46.8273   52.8830 H   0  0  0  0  0  0  0  0  0  0  0  0
   10.0759   45.9724   51.3311 H   0  0  0  0  0  0  0  0  0  0  0  0
    9.6953   47.7279   51.3311 H   0  0  0  0  0  0  0  0  0  0  0  0
    8.2803   45.0847   50.0509 H   0  0  0  0  0  0  0  0  0  0  0  0
    5.8499   44.5992   49.8429 H   0  0  0  0  0  0  0  0  0  0  0  0
    3.6440   44.2710   52.8800 H   0  0  0  0  0  0  0  0  0  0  0  0
    1.8500   43.5380   49.7950 H   0  0  0  0  0  0  0  0  0  0  0  0
   -2.0820   44.0330   54.0381 H   0  0  0  0  0  0  0  0  0  0  0  0
   -0.9425   42.7725   54.5281 H   0  0  0  0  0  0  0  0  0  0  0  0
   -3.1558   43.5997   56.0392 H   0  0  0  0  0  0  0  0  0  0  0  0
   -1.7561   42.7739   56.7395 H   0  0  0  0  0  0  0  0  0  0  0  0
   -2.4987   45.6974   56.7983 H   0  0  0  0  0  0  0  0  0  0  0  0
   -1.5579   44.7798   57.9835 H   0  0  0  0  0  0  0  0  0  0  0  0
   -0.4650   46.5379   56.0925 H   0  0  0  0  0  0  0  0  0  0  0  0
    0.4647   45.2516   56.8737 H   0  0  0  0  0  0  0  0  0  0  0  0
  1  2  1  0
  2  3  1  0
  3  4  2  0
  4  5  1  0
  5  6  1  0
  5  7  2  0
  7  8  1  0
  8  9  2  0
  9 10  1  0
 10 11  2  0
 10 12  1  0
 12 13  1  0
 13 14  1  0
 14 15  1  0
 15 16  2  0
 16 17  1  0
 17 18  1  0
 18 19  2  0
 18 20  1  0
 20 21  1  0
 21 22  1  0
 22 23  1  0
 23 24  1  0
  9  3  1  0
 17 13  2  0
 24 20  1  0
  1 25  1  0
  1 26  1  0
  1 27  1  0
  4 28  1  0
  6 29  1  0
  6 30  1  0
  6 31  1  0
  7 32  1  0
  8 33  1  0
 12 34  1  0
 14 35  1  0
 21 36  1  0
 21 37  1  0
 22 38  1  0
 22 39  1  0
 23 40  1  0
 23 41  1  0
 24 42  1  0
 24 43  1  0
M  END
>  <meeko>  (2) 
{"is_sidechain": [false], "free_energy": -8.26, "intermolecular_energy": -10.277, "internal_energy": -0.651}

$$$$
ligand_54_conformer_4_docked
     RDKit          3D

 43 45  0  0  0  0  0  0  0  0999 V2000
    7.9160   47.6080   52.0330 C   0  0  0  0  0  0  0  0  0  0  0  0
    6.3390   47.1260   52.8040 S   0  0  0  0  0  0  0  0  0  0  0  0
    6.1130   45.6990   51.7290 C   0  0  0  0  0  0  0  0  0  0  0  0
    7.1520   45.3670   50.8480 C   0  0  0  0  0  0  0  0  0  0  0  0
    7.0760   44.2140   50.0540 C   0  0  0  0  0  0  0  0  0  0  0  0
    8.1790   43.8850   49.0940 C   0  0  0  0  0  0  0  0  0  0  0  0
    5.9350   43.4040   50.1250 C   0  0  0  0  0  0  0  0  0  0  0  0
    4.8900   43.7330   50.9910 C   0  0  0  0  0  0  0  0  0  0  0  0
    4.9560   44.8870   51.7890 C   0  0  0  0  0  0  0  0  0  0  0  0
    3.8030   45.2160   52.6560 C   0  0  0  0  0  0  0  0  0  0  0  0
    2.9820   46.0980   52.2820 O   0  0  0  0  0  0  0  0  0  0  0  0
    3.6690   44.6140   53.9520 N   0  0  0  0  0  0  0  0  0  0  0  0
    2.5410   44.8390   54.8080 C   0  0  0  0  0  0  0  0  0  0  0  0
    2.5900   45.5670   55.9330 N   0  0  0  0  0  0  0  0  0  0  0  0
    1.3740   45.5740   56.4550 N   0  0  0  0  0  0  0  0  0  0  0  0
    0.5400   44.8590   55.7110 N   0  0  0  0  0  0  0  0  0  0  0  0
    1.2430   44.3820   54.6640 C   0  0  0  0  0  0  0  0  0  0  0  0
    0.7170   43.4190   53.6750 C   0  0  0  0  0  0  0  0  0  0  0  0
    1.2450   42.2770   53.5970 O   0  0  0  0  0  0  0  0  0  0  0  0
   -0.3930   43.7410   52.8180 N   0  0  0  0  0  0  0  0  0  0  0  0
   -0.9590   45.0720   52.6610 C   0  0  0  0  0  0  0  0  0  0  0  0
   -1.8700   44.9900   51.4440 C   0  0  0  0  0  0  0  0  0  0  0  0
   -2.1290   43.5030   51.2200 C   0  0  0  0  0  0  0  0  0  0  0  0
   -0.9820   42.7750   51.9060 C   0  0  0  0  0  0  0  0  0  0  0  0
    8.6537   47.8335   52.8172 H   0  0  0  0  0  0  0  0  0  0  0  0
    8.2861   46.7820   51.4080 H   0  0  0  0  0  0  0  0  0  0  0  0
    7.7611   48.4998   51.4080 H   0  0  0  0  0  0  0  0  0  0  0  0
    8.0360   46.0180   50.7791 H   0  0  0  0  0  0  0  0  0  0  0  0
    9.0854   43.6146   49.6556 H   0  0  0  0  0  0  0  0  0  0  0  0
    7.8738   43.0388   48.4609 H   0  0  0  0  0  0  0  0  0  0  0  0
    8.3873   44.7601   48.4609 H   0  0  0  0  0  0  0  0  0  0  0  0
    5.8620   42.5048   49.4957 H   0  0  0  0  0  0  0  0  0  0  0  0
    4.0057   43.0814   51.0488 H   0  0  0  0  0  0  0  0  0  0  0  0
    4.5180   44.1810   54.3810 H   0  0  0  0  0  0  0  0  0  0  0  0
    3.4180   46.0590   56.3340 H   0  0  0  0  0  0  0  0  0  0  0  0
   -1.5366   45.3512   53.5546 H   0  0  0  0  0  0  0  0  0  0  0  0
   -0.1762   45.8340   52.5322 H   0  0  0  0  0  0  0  0  0  0  0  0
   -2.8151   45.5190   51.6363 H   0  0  0  0  0  0  0  0  0  0  0  0
   -1.4108   45.4591   50.5614 H   0  0  0  0  0  0  0  0  0  0  0  0
   -3.0905   43.2100   51.6668 H   0  0  0  0  0  0  0  0  0  0  0  0
   -2.1816   43.2578   50.1490 H   0  0  0  0  0  0  0  0  0  0  0  0
   -1.3584   41.9032   52.4613 H   0  0  0  0  0  0  0  0  0  0  0  0
   -0.2457   42.4012   51.1792 H   0  0  0  0  0  0  0  0  0  0  0  0
  1  2  1  0
  2  3  1  0
  3  4  2  0
  4  5  1  0
  5  6  1  0
  5  7  2  0
  7  8  1  0
  8  9  2  0
  9 10  1  0
 10 11  2  0
 10 12  1  0
 12 13  1  0
 13 14  1  0
 14 15  1  0
 15 16  2  0
 16 17  1  0
 17 18  1  0
 18 19  2  0
 18 20  1  0
 20 21  1  0
 21 22  1  0
 22 23  1  0
 23 24  1  0
  9  3  1  0
 17 13  2  0
 24 20  1  0
  1 25  1  0
  1 26  1  0
  1 27  1  0
  4 28  1  0
  6 29  1  0
  6 30  1  0
  6 31  1  0
  7 32  1  0
  8 33  1  0
 12 34  1  0
 14 35  1  0
 21 36  1  0
 21 37  1  0
 22 38  1  0
 22 39  1  0
 23 40  1  0
 23 41  1  0
 24 42  1  0
 24 43  1  0
M  END
>  <meeko>  (3) 
{"is_sidechain": [false], "free_energy": -8.181, "intermolecular_energy": -10.047, "internal_energy": -0.783}

$$$$
ligand_54_conformer_4_docked
     RDKit          3D

 43 45  0  0  0  0  0  0  0  0999 V2000
   -0.3370   42.3840   52.6070 C   0  0  0  0  0  0  0  0  0  0  0  0
   -0.1440   44.1450   52.1900 S   0  0  0  0  0  0  0  0  0  0  0  0
    0.3010   44.6160   53.8710 C   0  0  0  0  0  0  0  0  0  0  0  0
   -0.7360   44.8870   54.7750 C   0  0  0  0  0  0  0  0  0  0  0  0
   -0.4570   45.1660   56.1200 C   0  0  0  0  0  0  0  0  0  0  0  0
   -1.5710   45.4840   57.0720 C   0  0  0  0  0  0  0  0  0  0  0  0
    0.8750   45.2010   56.5540 C   0  0  0  0  0  0  0  0  0  0  0  0
    1.9140   44.9440   55.6580 C   0  0  0  0  0  0  0  0  0  0  0  0
    1.6460   44.6650   54.3080 C   0  0  0  0  0  0  0  0  0  0  0  0
    2.7840   44.4450   53.3890 C   0  0  0  0  0  0  0  0  0  0  0  0
    3.0910   43.2670   53.0580 O   0  0  0  0  0  0  0  0  0  0  0  0
    3.5940   45.5480   52.9530 N   0  0  0  0  0  0  0  0  0  0  0  0
    4.6660   45.4090   52.0110 C   0  0  0  0  0  0  0  0  0  0  0  0
    4.6150   44.6150   50.9320 N   0  0  0  0  0  0  0  0  0  0  0  0
    5.7630   44.7470   50.2870 N   0  0  0  0  0  0  0  0  0  0  0  0
    6.5640   45.5920   50.9220 N   0  0  0  0  0  0  0  0  0  0  0  0
    5.9020   46.0290   52.0140 C   0  0  0  0  0  0  0  0  0  0  0  0
    6.5000   46.8740   53.0680 C   0  0  0  0  0  0  0  0  0  0  0  0
    5.7450   47.6040   53.7640 O   0  0  0  0  0  0  0  0  0  0  0  0
    7.9140   46.8680   53.3350 N   0  0  0  0  0  0  0  0  0  0  0  0
    8.9140   46.2360   52.4880 C   0  0  0  0  0  0  0  0  0  0  0  0
   10.2570   46.7570   52.9810 C   0  0  0  0  0  0  0  0  0  0  0  0
    9.9970   47.3210   54.3750 C   0  0  0  0  0  0  0  0  0  0  0  0
    8.5060   47.6220   54.4270 C   0  0  0  0  0  0  0  0  0  0  0  0
   -0.3500   42.2654   53.7005 H   0  0  0  0  0  0  0  0  0  0  0  0
   -1.2816   42.0090   52.1863 H   0  0  0  0  0  0  0  0  0  0  0  0
    0.5040   41.8133   52.1863 H   0  0  0  0  0  0  0  0  0  0  0  0
   -1.7789   44.8806   54.4252 H   0  0  0  0  0  0  0  0  0  0  0  0
   -1.2103   45.3810   58.1060 H   0  0  0  0  0  0  0  0  0  0  0  0
   -1.9134   46.5158   56.9042 H   0  0  0  0  0  0  0  0  0  0  0  0
   -2.4065   44.7885   56.9042 H   0  0  0  0  0  0  0  0  0  0  0  0
    1.1027   45.4320   57.6051 H   0  0  0  0  0  0  0  0  0  0  0  0
    2.9548   44.9602   56.0135 H   0  0  0  0  0  0  0  0  0  0  0  0
    3.5530   46.4340   53.5050 H   0  0  0  0  0  0  0  0  0  0  0  0
    3.8230   44.0080   50.6280 H   0  0  0  0  0  0  0  0  0  0  0  0
    8.8663   45.1417   52.5888 H   0  0  0  0  0  0  0  0  0  0  0  0
    8.7527   46.4686   51.4250 H   0  0  0  0  0  0  0  0  0  0  0  0
   10.9910   45.9391   53.0293 H   0  0  0  0  0  0  0  0  0  0  0  0
   10.6680   47.5212   52.3049 H   0  0  0  0  0  0  0  0  0  0  0  0
   10.2659   46.5818   55.1439 H   0  0  0  0  0  0  0  0  0  0  0  0
   10.5995   48.2210   54.5673 H   0  0  0  0  0  0  0  0  0  0  0  0
    8.0829   47.2990   55.3896 H   0  0  0  0  0  0  0  0  0  0  0  0
    8.3059   48.6994   54.3316 H   0  0  0  0  0  0  0  0  0  0  0  0
  1  2  1  0
  2  3  1  0
  3  4  2  0
  4  5  1  0
  5  6  1  0
  5  7  2  0
  7  8  1  0
  8  9  2  0
  9 10  1  0
 10 11  2  0
 10 12  1  0
 12 13  1  0
 13 14  1  0
 14 15  1  0
 15 16  2  0
 16 17  1  0
 17 18  1  0
 18 19  2  0
 18 20  1  0
 20 21  1  0
 21 22  1  0
 22 23  1  0
 23 24  1  0
  9  3  1  0
 17 13  2  0
 24 20  1  0
  1 25  1  0
  1 26  1  0
  1 27  1  0
  4 28  1  0
  6 29  1  0
  6 30  1  0
  6 31  1  0
  7 32  1  0
  8 33  1  0
 12 34  1  0
 14 35  1  0
 21 36  1  0
 21 37  1  0
 22 38  1  0
 22 39  1  0
 23 40  1  0
 23 41  1  0
 24 42  1  0
 24 43  1  0
M  END
>  <meeko>  (4) 
{"is_sidechain": [false], "free_energy": -7.875, "intermolecular_energy": -9.958, "internal_energy": -0.493}

$$$$
ligand_54_conformer_4_docked
     RDKit          3D

 43 45  0  0  0  0  0  0  0  0999 V2000
    5.1640   45.0640   55.4510 C   0  0  0  0  0  0  0  0  0  0  0  0
    4.2130   46.4440   54.7410 S   0  0  0  0  0  0  0  0  0  0  0  0
    2.7010   45.4780   54.5860 C   0  0  0  0  0  0  0  0  0  0  0  0
    1.8200   45.4550   55.6770 C   0  0  0  0  0  0  0  0  0  0  0  0
    0.5840   44.7990   55.5840 C   0  0  0  0  0  0  0  0  0  0  0  0
   -0.3380   44.7550   56.7650 C   0  0  0  0  0  0  0  0  0  0  0  0
    0.2430   44.1380   54.3970 C   0  0  0  0  0  0  0  0  0  0  0  0
    1.1190   44.1460   53.3090 C   0  0  0  0  0  0  0  0  0  0  0  0
    2.3610   44.7980   53.3930 C   0  0  0  0  0  0  0  0  0  0  0  0
    3.2730   44.7380   52.2300 C   0  0  0  0  0  0  0  0  0  0  0  0
    2.9780   45.3740   51.1810 O   0  0  0  0  0  0  0  0  0  0  0  0
    4.4310   43.8890   52.2530 N   0  0  0  0  0  0  0  0  0  0  0  0
    5.3880   43.8400   51.1870 C   0  0  0  0  0  0  0  0  0  0  0  0
    5.4940   42.8200   50.3240 N   0  0  0  0  0  0  0  0  0  0  0  0
    6.4630   43.1170   49.4740 N   0  0  0  0  0  0  0  0  0  0  0  0
    7.0020   44.2930   49.7680 N   0  0  0  0  0  0  0  0  0  0  0  0
    6.3460   44.7770   50.8440 C   0  0  0  0  0  0  0  0  0  0  0  0
    6.7350   45.9990   51.5770 C   0  0  0  0  0  0  0  0  0  0  0  0
    5.8480   46.8490   51.8580 O   0  0  0  0  0  0  0  0  0  0  0  0
    8.0920   46.2330   51.9970 N   0  0  0  0  0  0  0  0  0  0  0  0
    9.2380   45.4450   51.5700 C   0  0  0  0  0  0  0  0  0  0  0  0
   10.4640   46.2420   51.9960 C   0  0  0  0  0  0  0  0  0  0  0  0
    9.9690   47.2370   53.0410 C   0  0  0  0  0  0  0  0  0  0  0  0
    8.4740   47.3830   52.7970 C   0  0  0  0  0  0  0  0  0  0  0  0
    5.1260   45.1191   56.5490 H   0  0  0  0  0  0  0  0  0  0  0  0
    4.7308   44.1098   55.1166 H   0  0  0  0  0  0  0  0  0  0  0  0
    6.2099   45.1291   55.1166 H   0  0  0  0  0  0  0  0  0  0  0  0
    2.1013   45.9564   56.6148 H   0  0  0  0  0  0  0  0  0  0  0  0
    0.2527   44.7832   57.6925 H   0  0  0  0  0  0  0  0  0  0  0  0
   -1.0144   45.6219   56.7346 H   0  0  0  0  0  0  0  0  0  0  0  0
   -0.9288   43.8276   56.7346 H   0  0  0  0  0  0  0  0  0  0  0  0
   -0.7191   43.6102   54.3213 H   0  0  0  0  0  0  0  0  0  0  0  0
    0.8337   43.6366   52.3767 H   0  0  0  0  0  0  0  0  0  0  0  0
    4.4600   43.1200   52.9600 H   0  0  0  0  0  0  0  0  0  0  0  0
    4.9190   41.9500   50.2970 H   0  0  0  0  0  0  0  0  0  0  0  0
    9.2309   44.4601   52.0599 H   0  0  0  0  0  0  0  0  0  0  0  0
    9.2265   45.2644   50.4850 H   0  0  0  0  0  0  0  0  0  0  0  0
   11.2226   45.5748   52.4312 H   0  0  0  0  0  0  0  0  0  0  0  0
   10.9332   46.7515   51.1415 H   0  0  0  0  0  0  0  0  0  0  0  0
   10.1562   46.8531   54.0547 H   0  0  0  0  0  0  0  0  0  0  0  0
   10.4893   48.2028   52.9597 H   0  0  0  0  0  0  0  0  0  0  0  0
    7.9279   47.3843   53.7519 H   0  0  0  0  0  0  0  0  0  0  0  0
    8.2363   48.3286   52.2878 H   0  0  0  0  0  0  0  0  0  0  0  0
  1  2  1  0
  2  3  1  0
  3  4  2  0
  4  5  1  0
  5  6  1  0
  5  7  2  0
  7  8  1  0
  8  9  2  0
  9 10  1  0
 10 11  2  0
 10 12  1  0
 12 13  1  0
 13 14  1  0
 14 15  1  0
 15 16  2  0
 16 17  1  0
 17 18  1  0
 18 19  2  0
 18 20  1  0
 20 21  1  0
 21 22  1  0
 22 23  1  0
 23 24  1  0
  9  3  1  0
 17 13  2  0
 24 20  1  0
  1 25  1  0
  1 26  1  0
  1 27  1  0
  4 28  1  0
  6 29  1  0
  6 30  1  0
  6 31  1  0
  7 32  1  0
  8 33  1  0
 12 34  1  0
 14 35  1  0
 21 36  1  0
 21 37  1  0
 22 38  1  0
 22 39  1  0
 23 40  1  0
 23 41  1  0
 24 42  1  0
 24 43  1  0
M  END
>  <meeko>  (5) 
{"is_sidechain": [false], "free_energy": -7.857, "intermolecular_energy": -9.924, "internal_energy": -0.506}

$$$$
