MODEL 1
REMARK VINA RESULT:    -8.594      0.000      0.000
REMARK INTER + INTRA:         -12.372
REMARK INTER:                 -11.609
REMARK INTRA:                  -0.763
REMARK UNBOUND:                -0.763
REMARK SMILES CN(C)C[C@@H](c1ccccc1)N(C)S(=O)(=O)c1csc2ccccc12
REMARK SMILES IDX 5 1 4 2 2 3 1 4 3 5 6 6 7 7 11 8 8 9 10 10 9 11 12 12 13 13
REMARK SMILES IDX 14 14 15 15 16 16 17 17 18 18 25 19 19 20 24 21 20 22 23 23
REMARK SMILES IDX 21 24 22 25
REMARK H PARENT
ROOT
ATOM      1  C   UNL     1       2.447  45.116  53.896  1.00  0.00     0.117 C 
ENDROOT
BRANCH   1   2
ATOM      2  C   UNL     1       2.851  43.767  53.262  1.00  0.00     0.109 C 
BRANCH   2   3
ATOM      3  N   UNL     1       3.010  43.914  51.796  1.00  0.00    -0.307 NA
ATOM      4  C   UNL     1       1.866  44.629  51.205  1.00  0.00     0.105 C 
ATOM      5  C   UNL     1       3.151  42.597  51.153  1.00  0.00     0.105 C 
ENDBRANCH   2   3
ENDBRANCH   1   2
BRANCH   1   6
ATOM      6  C   UNL     1       1.284  45.018  54.884  1.00  0.00    -0.028 A 
ATOM      7  C   UNL     1       0.012  44.527  54.513  1.00  0.00     0.005 A 
ATOM      8  C   UNL     1       1.468  45.461  56.208  1.00  0.00     0.005 A 
ATOM      9  C   UNL     1      -1.033  44.485  55.441  1.00  0.00     0.000 A 
ATOM     10  C   UNL     1       0.426  45.396  57.136  1.00  0.00     0.000 A 
ATOM     11  C   UNL     1      -0.823  44.908  56.754  1.00  0.00     0.000 A 
ENDBRANCH   1   6
BRANCH   1  12
ATOM     12  N   UNL     1       3.654  45.801  54.434  1.00  0.00    -0.192 NA
ATOM     13  C   UNL     1       4.685  44.871  54.912  1.00  0.00     0.125 C 
BRANCH  12  14
ATOM     14  S   UNL     1       4.329  47.109  53.471  1.00  0.00     0.244 S 
ATOM     15  O   UNL     1       4.701  48.237  54.393  1.00  0.00    -0.207 OA
ATOM     16  O   UNL     1       3.262  47.620  52.550  1.00  0.00    -0.207 OA
BRANCH  14  17
ATOM     17  C   UNL     1       5.798  46.647  52.582  1.00  0.00     0.101 A 
ATOM     18  C   UNL     1       5.713  46.012  51.340  1.00  0.00     0.087 A 
ATOM     19  C   UNL     1       7.141  46.808  53.006  1.00  0.00     0.013 A 
ATOM     20  S   UNL     1       7.260  45.719  50.740  1.00  0.00    -0.142 S 
ATOM     21  C   UNL     1       7.619  47.327  54.224  1.00  0.00     0.011 A 
ATOM     22  C   UNL     1       8.060  46.358  52.062  1.00  0.00     0.036 A 
ATOM     23  C   UNL     1       9.005  47.411  54.439  1.00  0.00     0.001 A 
ATOM     24  C   UNL     1       9.436  46.432  52.257  1.00  0.00     0.019 A 
ATOM     25  C   UNL     1       9.909  46.972  53.459  1.00  0.00     0.002 A 
ENDBRANCH  14  17
ENDBRANCH  12  14
ENDBRANCH   1  12
TORSDOF 6
ENDMDL
MODEL 2
REMARK VINA RESULT:    -8.489      1.678      4.409
REMARK INTER + INTRA:         -12.230
REMARK INTER:                 -11.538
REMARK INTRA:                  -0.692
REMARK UNBOUND:                -0.763
REMARK SMILES CN(C)C[C@@H](c1ccccc1)N(C)S(=O)(=O)c1csc2ccccc12
REMARK SMILES IDX 5 1 4 2 2 3 1 4 3 5 6 6 7 7 11 8 8 9 10 10 9 11 12 12 13 13
REMARK SMILES IDX 14 14 15 15 16 16 17 17 18 18 25 19 19 20 24 21 20 22 23 23
REMARK SMILES IDX 21 24 22 25
REMARK H PARENT
ROOT
ATOM      1  C   UNL     1       3.199  43.706  52.084  1.00  0.00     0.117 C 
ENDROOT
BRANCH   1   2
ATOM      2  C   UNL     1       1.667  43.565  52.225  1.00  0.00     0.109 C 
BRANCH   2   3
ATOM      3  N   UNL     1       1.319  43.055  53.572  1.00  0.00    -0.307 NA
ATOM      4  C   UNL     1       0.009  42.383  53.565  1.00  0.00     0.105 C 
ATOM      5  C   UNL     1       1.303  44.150  54.556  1.00  0.00     0.105 C 
ENDBRANCH   2   3
ENDBRANCH   1   2
BRANCH   1   6
ATOM      6  C   UNL     1       3.831  42.708  51.112  1.00  0.00    -0.028 A 
ATOM      7  C   UNL     1       5.209  42.722  50.800  1.00  0.00     0.005 A 
ATOM      8  C   UNL     1       3.011  41.756  50.475  1.00  0.00     0.005 A 
ATOM      9  C   UNL     1       5.739  41.811  49.880  1.00  0.00     0.000 A 
ATOM     10  C   UNL     1       3.551  40.835  49.574  1.00  0.00     0.000 A 
ATOM     11  C   UNL     1       4.913  40.862  49.277  1.00  0.00     0.000 A 
ENDBRANCH   1   6
BRANCH   1  12
ATOM     12  N   UNL     1       3.551  45.128  51.820  1.00  0.00    -0.192 NA
ATOM     13  C   UNL     1       2.380  45.984  51.594  1.00  0.00     0.125 C 
BRANCH  12  14
ATOM     14  S   UNL     1       4.727  45.874  52.893  1.00  0.00     0.244 S 
ATOM     15  O   UNL     1       4.821  45.050  54.147  1.00  0.00    -0.207 OA
ATOM     16  O   UNL     1       4.217  47.229  53.288  1.00  0.00    -0.207 OA
BRANCH  14  17
ATOM     17  C   UNL     1       6.361  45.966  52.198  1.00  0.00     0.101 A 
ATOM     18  C   UNL     1       6.615  45.503  50.904  1.00  0.00     0.087 A 
ATOM     19  C   UNL     1       7.537  46.437  52.835  1.00  0.00     0.013 A 
ATOM     20  S   UNL     1       8.239  45.738  50.521  1.00  0.00    -0.142 S 
ATOM     21  C   UNL     1       7.693  46.901  54.154  1.00  0.00     0.011 A 
ATOM     22  C   UNL     1       8.652  46.393  52.003  1.00  0.00     0.036 A 
ATOM     23  C   UNL     1       8.956  47.340  54.585  1.00  0.00     0.001 A 
ATOM     24  C   UNL     1       9.912  46.822  52.411  1.00  0.00     0.019 A 
ATOM     25  C   UNL     1      10.058  47.307  53.716  1.00  0.00     0.002 A 
ENDBRANCH  14  17
ENDBRANCH  12  14
ENDBRANCH   1  12
TORSDOF 6
ENDMDL
MODEL 3
REMARK VINA RESULT:    -8.390      1.901      4.570
REMARK INTER + INTRA:         -12.096
REMARK INTER:                 -11.513
REMARK INTRA:                  -0.583
REMARK UNBOUND:                -0.763
REMARK SMILES CN(C)C[C@@H](c1ccccc1)N(C)S(=O)(=O)c1csc2ccccc12
REMARK SMILES IDX 5 1 4 2 2 3 1 4 3 5 6 6 7 7 11 8 8 9 10 10 9 11 12 12 13 13
REMARK SMILES IDX 14 14 15 15 16 16 17 17 18 18 25 19 19 20 24 21 20 22 23 23
REMARK SMILES IDX 21 24 22 25
REMARK H PARENT
ROOT
ATOM      1  C   UNL     1       4.006  44.575  52.560  1.00  0.00     0.117 C 
ENDROOT
BRANCH   1   2
ATOM      2  C   UNL     1       2.467  44.674  52.645  1.00  0.00     0.109 C 
BRANCH   2   3
ATOM      3  N   UNL     1       1.993  44.204  53.968  1.00  0.00    -0.307 NA
ATOM      4  C   UNL     1       0.952  43.171  53.826  1.00  0.00     0.105 C 
ATOM      5  C   UNL     1       1.464  45.327  54.760  1.00  0.00     0.105 C 
ENDBRANCH   2   3
ENDBRANCH   1   2
BRANCH   1   6
ATOM      6  C   UNL     1       4.510  43.495  51.602  1.00  0.00    -0.028 A 
ATOM      7  C   UNL     1       5.575  43.718  50.700  1.00  0.00     0.005 A 
ATOM      8  C   UNL     1       3.876  42.237  51.589  1.00  0.00     0.005 A 
ATOM      9  C   UNL     1       5.983  42.712  49.819  1.00  0.00     0.000 A 
ATOM     10  C   UNL     1       4.304  41.229  50.721  1.00  0.00     0.000 A 
ATOM     11  C   UNL     1       5.356  41.466  49.837  1.00  0.00     0.000 A 
ENDBRANCH   1   6
BRANCH   1  12
ATOM     12  N   UNL     1       4.584  45.926  52.322  1.00  0.00    -0.192 NA
ATOM     13  C   UNL     1       3.716  46.796  51.518  1.00  0.00     0.125 C 
BRANCH  12  14
ATOM     14  S   UNL     1       5.265  46.761  53.712  1.00  0.00     0.244 S 
ATOM     15  O   UNL     1       4.888  46.006  54.955  1.00  0.00    -0.207 OA
ATOM     16  O   UNL     1       4.634  48.119  53.806  1.00  0.00    -0.207 OA
BRANCH  14  17
ATOM     17  C   UNL     1       7.040  46.865  53.675  1.00  0.00     0.101 A 
ATOM     18  C   UNL     1       7.743  47.474  54.717  1.00  0.00     0.087 A 
ATOM     19  C   UNL     1       7.901  46.420  52.640  1.00  0.00     0.013 A 
ATOM     20  S   UNL     1       9.398  47.403  54.410  1.00  0.00    -0.142 S 
ATOM     21  C   UNL     1       7.560  45.837  51.406  1.00  0.00     0.011 A 
ATOM     22  C   UNL     1       9.246  46.633  52.933  1.00  0.00     0.036 A 
ATOM     23  C   UNL     1       8.581  45.453  50.520  1.00  0.00     0.001 A 
ATOM     24  C   UNL     1      10.272  46.260  52.069  1.00  0.00     0.019 A 
ATOM     25  C   UNL     1       9.930  45.657  50.853  1.00  0.00     0.002 A 
ENDBRANCH  14  17
ENDBRANCH  12  14
ENDBRANCH   1  12
TORSDOF 6
ENDMDL
MODEL 4
REMARK VINA RESULT:    -8.326      2.282      7.179
REMARK INTER + INTRA:         -12.010
REMARK INTER:                 -10.818
REMARK INTRA:                  -1.192
REMARK UNBOUND:                -0.763
REMARK SMILES CN(C)C[C@@H](c1ccccc1)N(C)S(=O)(=O)c1csc2ccccc12
REMARK SMILES IDX 5 1 4 2 2 3 1 4 3 5 6 6 7 7 11 8 8 9 10 10 9 11 12 12 13 13
REMARK SMILES IDX 14 14 15 15 16 16 17 17 18 18 25 19 19 20 24 21 20 22 23 23
REMARK SMILES IDX 21 24 22 25
REMARK H PARENT
ROOT
ATOM      1  C   UNL     1       6.534  45.826  52.374  1.00  0.00     0.117 C 
ENDROOT
BRANCH   1   2
ATOM      2  C   UNL     1       7.830  46.156  53.146  1.00  0.00     0.109 C 
BRANCH   2   3
ATOM      3  N   UNL     1       7.931  47.615  53.383  1.00  0.00    -0.307 NA
ATOM      4  C   UNL     1       8.057  48.354  52.114  1.00  0.00     0.105 C 
ATOM      5  C   UNL     1       9.082  47.925  54.247  1.00  0.00     0.105 C 
ENDBRANCH   2   3
ENDBRANCH   1   2
BRANCH   1   6
ATOM      6  C   UNL     1       6.743  44.918  51.161  1.00  0.00    -0.028 A 
ATOM      7  C   UNL     1       5.816  43.918  50.793  1.00  0.00     0.005 A 
ATOM      8  C   UNL     1       7.917  45.056  50.394  1.00  0.00     0.005 A 
ATOM      9  C   UNL     1       6.063  43.089  49.695  1.00  0.00     0.000 A 
ATOM     10  C   UNL     1       8.146  44.239  49.284  1.00  0.00     0.000 A 
ATOM     11  C   UNL     1       7.221  43.257  48.934  1.00  0.00     0.000 A 
ENDBRANCH   1   6
BRANCH   1  12
ATOM     12  N   UNL     1       5.491  45.351  53.324  1.00  0.00    -0.192 NA
ATOM     13  C   UNL     1       6.043  44.834  54.582  1.00  0.00     0.125 C 
BRANCH  12  14
ATOM     14  S   UNL     1       4.106  46.403  53.584  1.00  0.00     0.244 S 
ATOM     15  O   UNL     1       3.759  47.067  52.281  1.00  0.00    -0.207 OA
ATOM     16  O   UNL     1       4.504  47.485  54.543  1.00  0.00    -0.207 OA
BRANCH  14  17
ATOM     17  C   UNL     1       2.654  45.537  54.138  1.00  0.00     0.101 A 
ATOM     18  C   UNL     1       2.084  45.820  55.382  1.00  0.00     0.087 A 
ATOM     19  C   UNL     1       1.970  44.496  53.463  1.00  0.00     0.013 A 
ATOM     20  S   UNL     1       0.720  44.859  55.617  1.00  0.00    -0.142 S 
ATOM     21  C   UNL     1       2.292  43.886  52.236  1.00  0.00     0.011 A 
ATOM     22  C   UNL     1       0.854  44.044  54.163  1.00  0.00     0.036 A 
ATOM     23  C   UNL     1       1.463  42.869  51.734  1.00  0.00     0.001 A 
ATOM     24  C   UNL     1       0.021  43.038  53.683  1.00  0.00     0.019 A 
ATOM     25  C   UNL     1       0.330  42.451  52.450  1.00  0.00     0.002 A 
ENDBRANCH  14  17
ENDBRANCH  12  14
ENDBRANCH   1  12
TORSDOF 6
ENDMDL
MODEL 5
REMARK VINA RESULT:    -8.188      2.304      6.935
REMARK INTER + INTRA:         -11.824
REMARK INTER:                 -10.946
REMARK INTRA:                  -0.878
REMARK UNBOUND:                -0.763
REMARK SMILES CN(C)C[C@@H](c1ccccc1)N(C)S(=O)(=O)c1csc2ccccc12
REMARK SMILES IDX 5 1 4 2 2 3 1 4 3 5 6 6 7 7 11 8 8 9 10 10 9 11 12 12 13 13
REMARK SMILES IDX 14 14 15 15 16 16 17 17 18 18 25 19 19 20 24 21 20 22 23 23
REMARK SMILES IDX 21 24 22 25
REMARK H PARENT
ROOT
ATOM      1  C   UNL     1       5.818  45.701  51.770  1.00  0.00     0.117 C 
ENDROOT
BRANCH   1   2
ATOM      2  C   UNL     1       7.133  46.001  52.522  1.00  0.00     0.109 C 
BRANCH   2   3
ATOM      3  N   UNL     1       8.007  46.874  51.703  1.00  0.00    -0.307 NA
ATOM      4  C   UNL     1       9.394  46.378  51.691  1.00  0.00     0.105 C 
ATOM      5  C   UNL     1       7.984  48.256  52.209  1.00  0.00     0.105 C 
ENDBRANCH   2   3
ENDBRANCH   1   2
BRANCH   1   6
ATOM      6  C   UNL     1       5.819  44.372  51.015  1.00  0.00    -0.028 A 
ATOM      7  C   UNL     1       4.901  43.336  51.300  1.00  0.00     0.005 A 
ATOM      8  C   UNL     1       6.788  44.149  50.017  1.00  0.00     0.005 A 
ATOM      9  C   UNL     1       4.959  42.124  50.606  1.00  0.00     0.000 A 
ATOM     10  C   UNL     1       6.826  42.943  49.312  1.00  0.00     0.000 A 
ATOM     11  C   UNL     1       5.912  41.932  49.606  1.00  0.00     0.000 A 
ENDBRANCH   1   6
BRANCH   1  12
ATOM     12  N   UNL     1       4.661  45.885  52.688  1.00  0.00    -0.192 NA
ATOM     13  C   UNL     1       5.005  46.606  53.920  1.00  0.00     0.125 C 
BRANCH  12  14
ATOM     14  S   UNL     1       3.157  46.457  51.978  1.00  0.00     0.244 S 
ATOM     15  O   UNL     1       3.347  46.579  50.492  1.00  0.00    -0.207 OA
ATOM     16  O   UNL     1       2.876  47.833  52.506  1.00  0.00    -0.207 OA
BRANCH  14  17
ATOM     17  C   UNL     1       1.785  45.358  52.247  1.00  0.00     0.101 A 
ATOM     18  C   UNL     1       1.216  44.650  51.184  1.00  0.00     0.087 A 
ATOM     19  C   UNL     1       1.111  45.114  53.470  1.00  0.00     0.013 A 
ATOM     20  S   UNL     1      -0.043  43.685  51.749  1.00  0.00    -0.142 S 
ATOM     21  C   UNL     1       1.340  45.700  54.729  1.00  0.00     0.011 A 
ATOM     22  C   UNL     1       0.088  44.179  53.342  1.00  0.00     0.036 A 
ATOM     23  C   UNL     1       0.558  45.301  55.826  1.00  0.00     0.001 A 
ATOM     24  C   UNL     1      -0.699  43.772  54.416  1.00  0.00     0.019 A 
ATOM     25  C   UNL     1      -0.451  44.338  55.672  1.00  0.00     0.002 A 
ENDBRANCH  14  17
ENDBRANCH  12  14
ENDBRANCH   1  12
TORSDOF 6
ENDMDL
