ligand_20_conformer_1_docked
     RDKit          3D

 52 56  0  0  0  0  0  0  0  0999 V2000
    4.5710   44.9390   55.5630 O   0  0  0  0  0  0  0  0  0  0  0  0
    3.8340   45.5930   54.7750 C   0  0  0  0  0  0  0  0  0  0  0  0
    4.4110   46.5100   53.8310 N   0  0  0  0  0  0  0  0  0  0  0  0
    5.8300   46.6570   53.6470 C   0  0  0  0  0  0  0  0  0  0  0  0
    6.6260   47.2460   54.5770 N   0  0  0  0  0  0  0  0  0  0  0  0
    7.8540   47.1190   54.0520 C   0  0  0  0  0  0  0  0  0  0  0  0
    9.0560   47.5500   54.6080 C   0  0  0  0  0  0  0  0  0  0  0  0
   10.2390   47.2990   53.8930 C   0  0  0  0  0  0  0  0  0  0  0  0
   10.1920   46.6270   52.6510 C   0  0  0  0  0  0  0  0  0  0  0  0
    8.9620   46.2020   52.1160 C   0  0  0  0  0  0  0  0  0  0  0  0
    7.8010   46.4720   52.8500 C   0  0  0  0  0  0  0  0  0  0  0  0
    6.5120   46.1760   52.5660 N   0  0  0  0  0  0  0  0  0  0  0  0
    5.9560   45.5180   51.3660 C   0  0  0  0  0  0  0  0  0  0  0  0
    5.4220   44.1220   51.6710 C   0  0  0  0  0  0  0  0  0  0  0  0
    5.6630   43.3190   50.4040 C   0  0  0  0  0  0  0  0  0  0  0  0
    6.9060   43.9200   49.7640 C   0  0  0  0  0  0  0  0  0  0  0  0
    6.9850   45.3690   50.2380 C   0  0  0  0  0  0  0  0  0  0  0  0
    2.3740   45.4200   54.8450 C   0  0  0  0  0  0  0  0  0  0  0  0
    1.5030   45.4200   53.7760 C   0  0  0  0  0  0  0  0  0  0  0  0
    0.2980   45.2290   54.2530 O   0  0  0  0  0  0  0  0  0  0  0  0
    0.4100   45.1200   55.5590 C   0  0  0  0  0  0  0  0  0  0  0  0
   -0.7490   44.8730   56.4800 C   0  0  0  0  0  0  0  0  0  0  0  0
   -1.4580   46.1870   56.8380 C   0  0  0  0  0  0  0  0  0  0  0  0
   -2.7300   45.8880   57.6440 C   0  0  0  0  0  0  0  0  0  0  0  0
   -3.6010   45.0400   56.9170 O   0  0  0  0  0  0  0  0  0  0  0  0
   -2.9950   43.7750   56.7220 C   0  0  0  0  0  0  0  0  0  0  0  0
   -1.7460   43.8960   55.8400 C   0  0  0  0  0  0  0  0  0  0  0  0
    1.6850   45.2280   55.9870 N   0  0  0  0  0  0  0  0  0  0  0  0
    3.7630   47.0550   53.2240 H   0  0  0  0  0  0  0  0  0  0  0  0
    9.0784   48.0707   55.5767 H   0  0  0  0  0  0  0  0  0  0  0  0
   11.2061   47.6271   54.3019 H   0  0  0  0  0  0  0  0  0  0  0  0
   11.1235   46.4347   52.0985 H   0  0  0  0  0  0  0  0  0  0  0  0
    8.9142   45.6745   51.1519 H   0  0  0  0  0  0  0  0  0  0  0  0
    5.1404   46.1812   51.0419 H   0  0  0  0  0  0  0  0  0  0  0  0
    5.9647   43.6779   52.5185 H   0  0  0  0  0  0  0  0  0  0  0  0
    4.3583   44.1402   51.9507 H   0  0  0  0  0  0  0  0  0  0  0  0
    5.8315   42.2597   50.6478 H   0  0  0  0  0  0  0  0  0  0  0  0
    4.7974   43.3612   49.7265 H   0  0  0  0  0  0  0  0  0  0  0  0
    7.8019   43.3672   50.0830 H   0  0  0  0  0  0  0  0  0  0  0  0
    6.8529   43.8645   48.6667 H   0  0  0  0  0  0  0  0  0  0  0  0
    7.9948   45.5909   50.6137 H   0  0  0  0  0  0  0  0  0  0  0  0
    6.7750   46.0676   49.4147 H   0  0  0  0  0  0  0  0  0  0  0  0
    1.7707   45.5554   52.7177 H   0  0  0  0  0  0  0  0  0  0  0  0
   -0.3557   44.4271   57.4055 H   0  0  0  0  0  0  0  0  0  0  0  0
   -0.7834   46.8140   57.4395 H   0  0  0  0  0  0  0  0  0  0  0  0
   -1.7299   46.7170   55.9132 H   0  0  0  0  0  0  0  0  0  0  0  0
   -2.4513   45.3950   58.5870 H   0  0  0  0  0  0  0  0  0  0  0  0
   -3.2497   46.8364   57.8454 H   0  0  0  0  0  0  0  0  0  0  0  0
   -2.7071   43.3593   57.6989 H   0  0  0  0  0  0  0  0  0  0  0  0
   -3.7166   43.1135   56.2202 H   0  0  0  0  0  0  0  0  0  0  0  0
   -1.2741   42.9076   55.7378 H   0  0  0  0  0  0  0  0  0  0  0  0
   -2.0372   44.2724   54.8483 H   0  0  0  0  0  0  0  0  0  0  0  0
  1  2  2  0
  2  3  1  0
  3  4  1  0
  4  5  2  0
  5  6  1  0
  6  7  2  0
  7  8  1  0
  8  9  2  0
  9 10  1  0
 10 11  2  0
 11 12  1  0
 12 13  1  0
 13 14  1  0
 14 15  1  0
 15 16  1  0
 16 17  1  0
  2 18  1  0
 18 19  2  0
 19 20  1  0
 20 21  1  0
 21 22  1  0
 22 23  1  0
 23 24  1  0
 24 25  1  0
 25 26  1  0
 26 27  1  0
 21 28  2  0
 12  4  1  0
 17 13  1  0
 28 18  1  0
 11  6  1  0
 27 22  1  0
  3 29  1  0
  7 30  1  0
  8 31  1  0
  9 32  1  0
 10 33  1  0
 13 34  1  0
 14 35  1  0
 14 36  1  0
 15 37  1  0
 15 38  1  0
 16 39  1  0
 16 40  1  0
 17 41  1  0
 17 42  1  0
 19 43  1  0
 22 44  1  0
 23 45  1  0
 23 46  1  0
 24 47  1  0
 24 48  1  0
 26 49  1  0
 26 50  1  0
 27 51  1  0
 27 52  1  0
M  END
>  <meeko>  (1) 
{"is_sidechain": [false], "free_energy": -10.233, "intermolecular_energy": -12.626, "internal_energy": -0.15}

$$$$
ligand_20_conformer_1_docked
     RDKit          3D

 52 56  0  0  0  0  0  0  0  0999 V2000
    4.5610   44.7090   55.3690 O   0  0  0  0  0  0  0  0  0  0  0  0
    3.8320   45.4510   54.6580 C   0  0  0  0  0  0  0  0  0  0  0  0
    4.4170   46.4670   53.8270 N   0  0  0  0  0  0  0  0  0  0  0  0
    5.8380   46.6280   53.6690 C   0  0  0  0  0  0  0  0  0  0  0  0
    6.6140   47.2140   54.6170 N   0  0  0  0  0  0  0  0  0  0  0  0
    7.8510   47.1010   54.1120 C   0  0  0  0  0  0  0  0  0  0  0  0
    9.0410   47.5370   54.6920 C   0  0  0  0  0  0  0  0  0  0  0  0
   10.2370   47.3020   53.9940 C   0  0  0  0  0  0  0  0  0  0  0  0
   10.2160   46.6420   52.7450 C   0  0  0  0  0  0  0  0  0  0  0  0
    8.9990   46.2130   52.1850 C   0  0  0  0  0  0  0  0  0  0  0  0
    7.8230   46.4670   52.9030 C   0  0  0  0  0  0  0  0  0  0  0  0
    6.5420   46.1630   52.5940 N   0  0  0  0  0  0  0  0  0  0  0  0
    6.0110   45.5130   51.3780 C   0  0  0  0  0  0  0  0  0  0  0  0
    5.5070   44.1000   51.6550 C   0  0  0  0  0  0  0  0  0  0  0  0
    5.7770   43.3250   50.3770 C   0  0  0  0  0  0  0  0  0  0  0  0
    7.0110   43.9650   49.7580 C   0  0  0  0  0  0  0  0  0  0  0  0
    7.0520   45.4070   50.2560 C   0  0  0  0  0  0  0  0  0  0  0  0
    2.3700   45.2800   54.7000 C   0  0  0  0  0  0  0  0  0  0  0  0
    1.5650   45.4360   55.8080 C   0  0  0  0  0  0  0  0  0  0  0  0
    0.3320   45.2060   55.4310 O   0  0  0  0  0  0  0  0  0  0  0  0
    0.3650   44.9150   54.1490 C   0  0  0  0  0  0  0  0  0  0  0  0
   -0.8540   44.6050   53.3290 C   0  0  0  0  0  0  0  0  0  0  0  0
   -0.6010   43.4150   52.3930 C   0  0  0  0  0  0  0  0  0  0  0  0
   -1.9070   43.0200   51.6910 C   0  0  0  0  0  0  0  0  0  0  0  0
   -2.9120   42.7000   52.6350 O   0  0  0  0  0  0  0  0  0  0  0  0
   -3.2470   43.8470   53.3950 C   0  0  0  0  0  0  0  0  0  0  0  0
   -2.0540   44.3110   54.2400 C   0  0  0  0  0  0  0  0  0  0  0  0
    1.6130   44.9490   53.6360 N   0  0  0  0  0  0  0  0  0  0  0  0
    3.7760   47.0820   53.2830 H   0  0  0  0  0  0  0  0  0  0  0  0
    9.0435   48.0489   55.6656 H   0  0  0  0  0  0  0  0  0  0  0  0
   11.1946   47.6334   54.4219 H   0  0  0  0  0  0  0  0  0  0  0  0
   11.1582   46.4623   52.2065 H   0  0  0  0  0  0  0  0  0  0  0  0
    8.9715   45.6950   51.2150 H   0  0  0  0  0  0  0  0  0  0  0  0
    5.1831   46.1629   51.0583 H   0  0  0  0  0  0  0  0  0  0  0  0
    6.0529   43.6541   52.4995 H   0  0  0  0  0  0  0  0  0  0  0  0
    4.4410   44.0888   51.9260 H   0  0  0  0  0  0  0  0  0  0  0  0
    5.9678   42.2658   50.6042 H   0  0  0  0  0  0  0  0  0  0  0  0
    4.9163   43.3592   49.6928 H   0  0  0  0  0  0  0  0  0  0  0  0
    7.9168   43.4280   50.0760 H   0  0  0  0  0  0  0  0  0  0  0  0
    6.9687   43.9262   48.6595 H   0  0  0  0  0  0  0  0  0  0  0  0
    8.0533   45.6464   50.6434 H   0  0  0  0  0  0  0  0  0  0  0  0
    6.8319   46.1140   49.4426 H   0  0  0  0  0  0  0  0  0  0  0  0
    1.8969   45.7042   56.8218 H   0  0  0  0  0  0  0  0  0  0  0  0
   -1.0804   45.4882   52.7136 H   0  0  0  0  0  0  0  0  0  0  0  0
    0.1485   43.6964   51.6387 H   0  0  0  0  0  0  0  0  0  0  0  0
   -0.2321   42.5619   52.9813 H   0  0  0  0  0  0  0  0  0  0  0  0
   -2.2506   43.8607   51.0704 H   0  0  0  0  0  0  0  0  0  0  0  0
   -1.7163   42.1342   51.0673 H   0  0  0  0  0  0  0  0  0  0  0  0
   -3.5420   44.6577   52.7126 H   0  0  0  0  0  0  0  0  0  0  0  0
   -4.0774   43.5915   54.0696 H   0  0  0  0  0  0  0  0  0  0  0  0
   -2.3283   45.2241   54.7886 H   0  0  0  0  0  0  0  0  0  0  0  0
   -1.7833   43.5177   54.9523 H   0  0  0  0  0  0  0  0  0  0  0  0
  1  2  2  0
  2  3  1  0
  3  4  1  0
  4  5  2  0
  5  6  1  0
  6  7  2  0
  7  8  1  0
  8  9  2  0
  9 10  1  0
 10 11  2  0
 11 12  1  0
 12 13  1  0
 13 14  1  0
 14 15  1  0
 15 16  1  0
 16 17  1  0
  2 18  1  0
 18 19  2  0
 19 20  1  0
 20 21  1  0
 21 22  1  0
 22 23  1  0
 23 24  1  0
 24 25  1  0
 25 26  1  0
 26 27  1  0
 21 28  2  0
 12  4  1  0
 17 13  1  0
 28 18  1  0
 11  6  1  0
 27 22  1  0
  3 29  1  0
  7 30  1  0
  8 31  1  0
  9 32  1  0
 10 33  1  0
 13 34  1  0
 14 35  1  0
 14 36  1  0
 15 37  1  0
 15 38  1  0
 16 39  1  0
 16 40  1  0
 17 41  1  0
 17 42  1  0
 19 43  1  0
 22 44  1  0
 23 45  1  0
 23 46  1  0
 24 47  1  0
 24 48  1  0
 26 49  1  0
 26 50  1  0
 27 51  1  0
 27 52  1  0
M  END
>  <meeko>  (2) 
{"is_sidechain": [false], "free_energy": -10.114, "intermolecular_energy": -12.372, "internal_energy": -0.257}

$$$$
ligand_20_conformer_1_docked
     RDKit          3D

 52 56  0  0  0  0  0  0  0  0999 V2000
    1.1650   44.6230   51.9660 O   0  0  0  0  0  0  0  0  0  0  0  0
    1.4730   44.3070   53.1470 C   0  0  0  0  0  0  0  0  0  0  0  0
    2.6860   43.5850   53.4150 N   0  0  0  0  0  0  0  0  0  0  0  0
    3.6580   43.2800   52.4000 C   0  0  0  0  0  0  0  0  0  0  0  0
    3.5720   42.1710   51.6200 N   0  0  0  0  0  0  0  0  0  0  0  0
    4.6120   42.3040   50.7840 C   0  0  0  0  0  0  0  0  0  0  0  0
    4.9880   41.4360   49.7620 C   0  0  0  0  0  0  0  0  0  0  0  0
    6.1090   41.7770   48.9880 C   0  0  0  0  0  0  0  0  0  0  0  0
    6.8220   42.9680   49.2510 C   0  0  0  0  0  0  0  0  0  0  0  0
    6.4170   43.8260   50.2900 C   0  0  0  0  0  0  0  0  0  0  0  0
    5.2990   43.4560   51.0470 C   0  0  0  0  0  0  0  0  0  0  0  0
    4.7100   44.0920   52.0850 N   0  0  0  0  0  0  0  0  0  0  0  0
    5.1140   45.3470   52.7510 C   0  0  0  0  0  0  0  0  0  0  0  0
    5.6510   46.3770   51.7620 C   0  0  0  0  0  0  0  0  0  0  0  0
    6.7050   47.1540   52.5290 C   0  0  0  0  0  0  0  0  0  0  0  0
    7.2860   46.1770   53.5410 C   0  0  0  0  0  0  0  0  0  0  0  0
    6.2030   45.1350   53.8110 C   0  0  0  0  0  0  0  0  0  0  0  0
    0.5670   44.6700   54.2500 C   0  0  0  0  0  0  0  0  0  0  0  0
   -0.7930   44.4500   54.2900 C   0  0  0  0  0  0  0  0  0  0  0  0
   -1.2290   44.9060   55.4380 O   0  0  0  0  0  0  0  0  0  0  0  0
   -0.1910   45.3920   56.0830 C   0  0  0  0  0  0  0  0  0  0  0  0
   -0.2670   45.9950   57.4560 C   0  0  0  0  0  0  0  0  0  0  0  0
    1.1220   46.4380   57.9390 C   0  0  0  0  0  0  0  0  0  0  0  0
    0.9910   47.1950   59.2680 C   0  0  0  0  0  0  0  0  0  0  0  0
    0.1360   48.3150   59.1300 O   0  0  0  0  0  0  0  0  0  0  0  0
   -1.1810   47.8870   58.8320 C   0  0  0  0  0  0  0  0  0  0  0  0
   -1.2320   47.1890   57.4670 C   0  0  0  0  0  0  0  0  0  0  0  0
    0.9600   45.2700   55.3900 N   0  0  0  0  0  0  0  0  0  0  0  0
    2.8840   43.3130   54.4020 H   0  0  0  0  0  0  0  0  0  0  0  0
    4.4243   40.5118   49.5670 H   0  0  0  0  0  0  0  0  0  0  0  0
    6.4336   41.1135   48.1729 H   0  0  0  0  0  0  0  0  0  0  0  0
    7.6993   43.2261   48.6396 H   0  0  0  0  0  0  0  0  0  0  0  0
    6.9617   44.7581   50.5008 H   0  0  0  0  0  0  0  0  0  0  0  0
    4.1928   45.7124   53.2283 H   0  0  0  0  0  0  0  0  0  0  0  0
    6.0984   45.8776   50.8900 H   0  0  0  0  0  0  0  0  0  0  0  0
    4.8551   47.0325   51.3786 H   0  0  0  0  0  0  0  0  0  0  0  0
    7.4904   47.5106   51.8463 H   0  0  0  0  0  0  0  0  0  0  0  0
    6.2768   48.0397   53.0211 H   0  0  0  0  0  0  0  0  0  0  0  0
    8.1842   45.6933   53.1295 H   0  0  0  0  0  0  0  0  0  0  0  0
    7.5808   46.6926   54.4669 H   0  0  0  0  0  0  0  0  0  0  0  0
    6.6223   44.1216   53.7265 H   0  0  0  0  0  0  0  0  0  0  0  0
    5.7937   45.2433   54.8263 H   0  0  0  0  0  0  0  0  0  0  0  0
   -1.4002   43.9786   53.5032 H   0  0  0  0  0  0  0  0  0  0  0  0
   -0.6456   45.2243   58.1435 H   0  0  0  0  0  0  0  0  0  0  0  0
    1.7583   45.5525   58.0839 H   0  0  0  0  0  0  0  0  0  0  0  0
    1.5753   47.0997   57.1862 H   0  0  0  0  0  0  0  0  0  0  0  0
    0.5767   46.5174   60.0290 H   0  0  0  0  0  0  0  0  0  0  0  0
    1.9876   47.5491   59.5702 H   0  0  0  0  0  0  0  0  0  0  0  0
   -1.5161   47.1842   59.6090 H   0  0  0  0  0  0  0  0  0  0  0  0
   -1.8393   48.7677   58.8021 H   0  0  0  0  0  0  0  0  0  0  0  0
   -2.2553   46.8330   57.2771 H   0  0  0  0  0  0  0  0  0  0  0  0
   -0.9358   47.9021   56.6836 H   0  0  0  0  0  0  0  0  0  0  0  0
  1  2  2  0
  2  3  1  0
  3  4  1  0
  4  5  2  0
  5  6  1  0
  6  7  2  0
  7  8  1  0
  8  9  2  0
  9 10  1  0
 10 11  2  0
 11 12  1  0
 12 13  1  0
 13 14  1  0
 14 15  1  0
 15 16  1  0
 16 17  1  0
  2 18  1  0
 18 19  2  0
 19 20  1  0
 20 21  1  0
 21 22  1  0
 22 23  1  0
 23 24  1  0
 24 25  1  0
 25 26  1  0
 26 27  1  0
 21 28  2  0
 12  4  1  0
 17 13  1  0
 28 18  1  0
 11  6  1  0
 27 22  1  0
  3 29  1  0
  7 30  1  0
  8 31  1  0
  9 32  1  0
 10 33  1  0
 13 34  1  0
 14 35  1  0
 14 36  1  0
 15 37  1  0
 15 38  1  0
 16 39  1  0
 16 40  1  0
 17 41  1  0
 17 42  1  0
 19 43  1  0
 22 44  1  0
 23 45  1  0
 23 46  1  0
 24 47  1  0
 24 48  1  0
 26 49  1  0
 26 50  1  0
 27 51  1  0
 27 52  1  0
M  END
>  <meeko>  (3) 
{"is_sidechain": [false], "free_energy": -9.867, "intermolecular_energy": -11.67, "internal_energy": -0.654}

$$$$
ligand_20_conformer_1_docked
     RDKit          3D

 52 56  0  0  0  0  0  0  0  0999 V2000
    1.6760   44.3850   51.2700 O   0  0  0  0  0  0  0  0  0  0  0  0
    1.8060   43.6630   52.2960 C   0  0  0  0  0  0  0  0  0  0  0  0
    3.0650   43.0360   52.5890 N   0  0  0  0  0  0  0  0  0  0  0  0
    4.2580   43.2730   51.8200 C   0  0  0  0  0  0  0  0  0  0  0  0
    4.6220   42.4780   50.7810 N   0  0  0  0  0  0  0  0  0  0  0  0
    5.7270   43.0760   50.3120 C   0  0  0  0  0  0  0  0  0  0  0  0
    6.5080   42.6740   49.2310 C   0  0  0  0  0  0  0  0  0  0  0  0
    7.6230   43.4610   48.8970 C   0  0  0  0  0  0  0  0  0  0  0  0
    7.9270   44.6210   49.6430 C   0  0  0  0  0  0  0  0  0  0  0  0
    7.1180   45.0020   50.7290 C   0  0  0  0  0  0  0  0  0  0  0  0
    6.0170   44.1940   51.0410 C   0  0  0  0  0  0  0  0  0  0  0  0
    5.0940   44.3350   52.0190 N   0  0  0  0  0  0  0  0  0  0  0  0
    5.0120   45.3640   53.0760 C   0  0  0  0  0  0  0  0  0  0  0  0
    4.9920   46.7770   52.5010 C   0  0  0  0  0  0  0  0  0  0  0  0
    5.7050   47.6350   53.5310 C   0  0  0  0  0  0  0  0  0  0  0  0
    6.7220   46.7210   54.1990 C   0  0  0  0  0  0  0  0  0  0  0  0
    6.1860   45.2980   54.0630 C   0  0  0  0  0  0  0  0  0  0  0  0
    0.6480   43.4520   53.1810 C   0  0  0  0  0  0  0  0  0  0  0  0
    0.0100   42.2530   53.4130 C   0  0  0  0  0  0  0  0  0  0  0  0
   -0.9590   42.4840   54.2630 O   0  0  0  0  0  0  0  0  0  0  0  0
   -0.9310   43.7680   54.5450 C   0  0  0  0  0  0  0  0  0  0  0  0
   -1.8740   44.4350   55.5040 C   0  0  0  0  0  0  0  0  0  0  0  0
   -2.4430   43.4240   56.5100 C   0  0  0  0  0  0  0  0  0  0  0  0
   -3.2710   44.1590   57.5720 C   0  0  0  0  0  0  0  0  0  0  0  0
   -2.4880   45.1330   58.2400 O   0  0  0  0  0  0  0  0  0  0  0  0
   -2.0940   46.1440   57.3310 C   0  0  0  0  0  0  0  0  0  0  0  0
   -1.1670   45.5760   56.2490 C   0  0  0  0  0  0  0  0  0  0  0  0
    0.0560   44.4250   53.9000 N   0  0  0  0  0  0  0  0  0  0  0  0
    3.1190   42.4190   53.4280 H   0  0  0  0  0  0  0  0  0  0  0  0
    6.2597   41.7691   48.6570 H   0  0  0  0  0  0  0  0  0  0  0  0
    8.2626   43.1721   48.0499 H   0  0  0  0  0  0  0  0  0  0  0  0
    8.8020   45.2305   49.3731 H   0  0  0  0  0  0  0  0  0  0  0  0
    7.3428   45.9056   51.3146 H   0  0  0  0  0  0  0  0  0  0  0  0
    4.0700   45.1461   53.6005 H   0  0  0  0  0  0  0  0  0  0  0  0
    5.5226   46.8093   51.5380 H   0  0  0  0  0  0  0  0  0  0  0  0
    3.9675   47.1292   52.3102 H   0  0  0  0  0  0  0  0  0  0  0  0
    6.2122   48.4794   53.0413 H   0  0  0  0  0  0  0  0  0  0  0  0
    5.0009   48.0598   54.2616 H   0  0  0  0  0  0  0  0  0  0  0  0
    7.6974   46.8085   53.6981 H   0  0  0  0  0  0  0  0  0  0  0  0
    6.8645   46.9917   55.2556 H   0  0  0  0  0  0  0  0  0  0  0  0
    6.9710   44.6322   53.6751 H   0  0  0  0  0  0  0  0  0  0  0  0
    5.8637   44.9007   55.0368 H   0  0  0  0  0  0  0  0  0  0  0  0
    0.2672   41.2811   52.9666 H   0  0  0  0  0  0  0  0  0  0  0  0
   -2.7083   44.8526   54.9212 H   0  0  0  0  0  0  0  0  0  0  0  0
   -3.0841   42.7035   55.9810 H   0  0  0  0  0  0  0  0  0  0  0  0
   -1.6138   42.8920   56.9994 H   0  0  0  0  0  0  0  0  0  0  0  0
   -4.1233   44.6548   57.0844 H   0  0  0  0  0  0  0  0  0  0  0  0
   -3.6245   43.4253   58.3114 H   0  0  0  0  0  0  0  0  0  0  0  0
   -2.9896   46.5669   56.8523 H   0  0  0  0  0  0  0  0  0  0  0  0
   -1.5507   46.9232   57.8857 H   0  0  0  0  0  0  0  0  0  0  0  0
   -0.9077   46.3722   55.5357 H   0  0  0  0  0  0  0  0  0  0  0  0
   -0.2522   45.1889   56.7216 H   0  0  0  0  0  0  0  0  0  0  0  0
  1  2  2  0
  2  3  1  0
  3  4  1  0
  4  5  2  0
  5  6  1  0
  6  7  2  0
  7  8  1  0
  8  9  2  0
  9 10  1  0
 10 11  2  0
 11 12  1  0
 12 13  1  0
 13 14  1  0
 14 15  1  0
 15 16  1  0
 16 17  1  0
  2 18  1  0
 18 19  2  0
 19 20  1  0
 20 21  1  0
 21 22  1  0
 22 23  1  0
 23 24  1  0
 24 25  1  0
 25 26  1  0
 26 27  1  0
 21 28  2  0
 12  4  1  0
 17 13  1  0
 28 18  1  0
 11  6  1  0
 27 22  1  0
  3 29  1  0
  7 30  1  0
  8 31  1  0
  9 32  1  0
 10 33  1  0
 13 34  1  0
 14 35  1  0
 14 36  1  0
 15 37  1  0
 15 38  1  0
 16 39  1  0
 16 40  1  0
 17 41  1  0
 17 42  1  0
 19 43  1  0
 22 44  1  0
 23 45  1  0
 23 46  1  0
 24 47  1  0
 24 48  1  0
 26 49  1  0
 26 50  1  0
 27 51  1  0
 27 52  1  0
M  END
>  <meeko>  (4) 
{"is_sidechain": [false], "free_energy": -9.48, "intermolecular_energy": -11.036, "internal_energy": -0.811}

$$$$
ligand_20_conformer_1_docked
     RDKit          3D

 52 56  0  0  0  0  0  0  0  0999 V2000
    6.9210   41.9260   50.1170 O   0  0  0  0  0  0  0  0  0  0  0  0
    5.7360   42.3120   49.9270 C   0  0  0  0  0  0  0  0  0  0  0  0
    5.2980   43.5890   50.4200 N   0  0  0  0  0  0  0  0  0  0  0  0
    6.1840   44.5340   51.0450 C   0  0  0  0  0  0  0  0  0  0  0  0
    7.2820   45.0280   50.4150 N   0  0  0  0  0  0  0  0  0  0  0  0
    7.7750   45.9040   51.3030 C   0  0  0  0  0  0  0  0  0  0  0  0
    8.9050   46.7050   51.1570 C   0  0  0  0  0  0  0  0  0  0  0  0
    9.2380   47.5710   52.2110 C   0  0  0  0  0  0  0  0  0  0  0  0
    8.4400   47.6170   53.3760 C   0  0  0  0  0  0  0  0  0  0  0  0
    7.3030   46.7960   53.4930 C   0  0  0  0  0  0  0  0  0  0  0  0
    7.0010   45.9390   52.4270 C   0  0  0  0  0  0  0  0  0  0  0  0
    5.9810   45.0620   52.2880 N   0  0  0  0  0  0  0  0  0  0  0  0
    4.9140   44.7210   53.2510 C   0  0  0  0  0  0  0  0  0  0  0  0
    3.8100   45.7750   53.2830 C   0  0  0  0  0  0  0  0  0  0  0  0
    3.3090   45.7820   54.7170 C   0  0  0  0  0  0  0  0  0  0  0  0
    4.5050   45.3970   55.5750 C   0  0  0  0  0  0  0  0  0  0  0  0
    5.4330   44.5720   54.6880 C   0  0  0  0  0  0  0  0  0  0  0  0
    4.7970   41.4320   49.2110 C   0  0  0  0  0  0  0  0  0  0  0  0
    3.7070   40.7900   49.7580 C   0  0  0  0  0  0  0  0  0  0  0  0
    3.1270   40.1160   48.7960 O   0  0  0  0  0  0  0  0  0  0  0  0
    3.8250   40.3230   47.7010 C   0  0  0  0  0  0  0  0  0  0  0  0
    3.4760   39.7380   46.3630 C   0  0  0  0  0  0  0  0  0  0  0  0
    2.6430   38.4580   46.5210 C   0  0  0  0  0  0  0  0  0  0  0  0
    2.1650   37.9760   45.1450 C   0  0  0  0  0  0  0  0  0  0  0  0
    1.4080   38.9800   44.4930 O   0  0  0  0  0  0  0  0  0  0  0  0
    2.2260   40.1020   44.2150 C   0  0  0  0  0  0  0  0  0  0  0  0
    2.7090   40.7620   45.5130 C   0  0  0  0  0  0  0  0  0  0  0  0
    4.8800   41.1410   47.8980 N   0  0  0  0  0  0  0  0  0  0  0  0
    4.3010   43.8530   50.2720 H   0  0  0  0  0  0  0  0  0  0  0  0
    9.5175   46.6606   50.2444 H   0  0  0  0  0  0  0  0  0  0  0  0
   10.1247   48.2169   52.1292 H   0  0  0  0  0  0  0  0  0  0  0  0
    8.7090   48.2986   54.1964 H   0  0  0  0  0  0  0  0  0  0  0  0
    6.6714   46.8263   54.3931 H   0  0  0  0  0  0  0  0  0  0  0  0
    4.5199   43.7579   52.8944 H   0  0  0  0  0  0  0  0  0  0  0  0
    4.2108   46.7622   53.0094 H   0  0  0  0  0  0  0  0  0  0  0  0
    3.0056   45.5503   52.5671 H   0  0  0  0  0  0  0  0  0  0  0  0
    2.9471   46.7838   54.9916 H   0  0  0  0  0  0  0  0  0  0  0  0
    2.4694   45.0851   54.8562 H   0  0  0  0  0  0  0  0  0  0  0  0
    5.0234   46.2999   55.9299 H   0  0  0  0  0  0  0  0  0  0  0  0
    4.1897   44.8237   56.4593 H   0  0  0  0  0  0  0  0  0  0  0  0
    6.4631   44.9509   54.7606 H   0  0  0  0  0  0  0  0  0  0  0  0
    5.4435   43.5167   54.9983 H   0  0  0  0  0  0  0  0  0  0  0  0
    3.3837   40.8352   50.8085 H   0  0  0  0  0  0  0  0  0  0  0  0
    4.4151   39.4797   45.8517 H   0  0  0  0  0  0  0  0  0  0  0  0
    3.2600   37.6761   46.9878 H   0  0  0  0  0  0  0  0  0  0  0  0
    1.7696   38.6690   47.1556 H   0  0  0  0  0  0  0  0  0  0  0  0
    3.0400   37.7262   44.5269 H   0  0  0  0  0  0  0  0  0  0  0  0
    1.5278   37.0903   45.2846 H   0  0  0  0  0  0  0  0  0  0  0  0
    3.0988   39.7755   43.6305 H   0  0  0  0  0  0  0  0  0  0  0  0
    1.6355   40.8354   43.6463 H   0  0  0  0  0  0  0  0  0  0  0  0
    3.3727   41.6046   45.2692 H   0  0  0  0  0  0  0  0  0  0  0  0
    1.8400   41.1269   46.0802 H   0  0  0  0  0  0  0  0  0  0  0  0
  1  2  2  0
  2  3  1  0
  3  4  1  0
  4  5  2  0
  5  6  1  0
  6  7  2  0
  7  8  1  0
  8  9  2  0
  9 10  1  0
 10 11  2  0
 11 12  1  0
 12 13  1  0
 13 14  1  0
 14 15  1  0
 15 16  1  0
 16 17  1  0
  2 18  1  0
 18 19  2  0
 19 20  1  0
 20 21  1  0
 21 22  1  0
 22 23  1  0
 23 24  1  0
 24 25  1  0
 25 26  1  0
 26 27  1  0
 21 28  2  0
 12  4  1  0
 17 13  1  0
 28 18  1  0
 11  6  1  0
 27 22  1  0
  3 29  1  0
  7 30  1  0
  8 31  1  0
  9 32  1  0
 10 33  1  0
 13 34  1  0
 14 35  1  0
 14 36  1  0
 15 37  1  0
 15 38  1  0
 16 39  1  0
 16 40  1  0
 17 41  1  0
 17 42  1  0
 19 43  1  0
 22 44  1  0
 23 45  1  0
 23 46  1  0
 24 47  1  0
 24 48  1  0
 26 49  1  0
 26 50  1  0
 27 51  1  0
 27 52  1  0
M  END
>  <meeko>  (5) 
{"is_sidechain": [false], "free_energy": -9.156, "intermolecular_energy": -10.927, "internal_energy": -0.521}

$$$$
