ligand_14_conformer_5_docked
     RDKit          3D

 47 50  0  0  0  0  0  0  0  0999 V2000
    8.6480   48.3830   54.6220 C   0  0  0  0  0  0  0  0  0  0  0  0
    8.7340   47.4120   53.4830 C   0  0  0  0  0  0  0  0  0  0  0  0
    9.9860   47.0000   53.0060 C   0  0  0  0  0  0  0  0  0  0  0  0
   10.0780   46.1150   51.9310 C   0  0  0  0  0  0  0  0  0  0  0  0
   11.2990   45.7120   51.4980 F   0  0  0  0  0  0  0  0  0  0  0  0
    8.9170   45.6450   51.3060 C   0  0  0  0  0  0  0  0  0  0  0  0
    9.0170   44.7670   50.2720 N   0  0  0  0  0  0  0  0  0  0  0  0
    7.9210   44.2780   49.6360 C   0  0  0  0  0  0  0  0  0  0  0  0
    8.0700   43.3780   48.5850 O   0  0  0  0  0  0  0  0  0  0  0  0
    6.6450   44.6780   50.0320 C   0  0  0  0  0  0  0  0  0  0  0  0
    6.4940   45.5940   51.0820 C   0  0  0  0  0  0  0  0  0  0  0  0
    5.1290   46.0230   51.4430 C   0  0  0  0  0  0  0  0  0  0  0  0
    4.3490   46.4030   50.5290 O   0  0  0  0  0  0  0  0  0  0  0  0
    4.6960   46.0540   52.8140 N   0  0  0  0  0  0  0  0  0  0  0  0
    4.3240   47.2860   53.4900 C   0  0  0  0  0  0  0  0  0  0  0  0
    3.9820   46.9030   54.9270 C   0  0  0  0  0  0  0  0  0  0  0  0
    4.3570   45.4210   55.0800 C   0  0  1  0  0  0  0  0  0  0  0  0
    3.3050   44.6300   55.7380 N   0  0  0  0  0  0  0  0  0  0  0  0
    1.8730   44.7630   55.5760 C   0  0  0  0  0  0  0  0  0  0  0  0
    1.0500   45.3860   56.5370 C   0  0  0  0  0  0  0  0  0  0  0  0
   -0.3330   45.4680   56.3410 C   0  0  0  0  0  0  0  0  0  0  0  0
   -0.9090   44.9480   55.1830 C   0  0  0  0  0  0  0  0  0  0  0  0
   -0.1060   44.3370   54.2190 C   0  0  0  0  0  0  0  0  0  0  0  0
    1.2750   44.2420   54.4150 C   0  0  0  0  0  0  0  0  0  0  0  0
    4.7130   44.8930   53.6900 C   0  0  0  0  0  0  0  0  0  0  0  0
    7.6430   46.0780   51.7500 C   0  0  0  0  0  0  0  0  0  0  0  0
    7.5660   46.9600   52.8470 C   0  0  0  0  0  0  0  0  0  0  0  0
    8.6965   47.8356   55.5749 H   0  0  0  0  0  0  0  0  0  0  0  0
    9.4869   49.0921   54.5634 H   0  0  0  0  0  0  0  0  0  0  0  0
    7.6976   48.9337   54.5634 H   0  0  0  0  0  0  0  0  0  0  0  0
   10.9029   47.3771   53.4826 H   0  0  0  0  0  0  0  0  0  0  0  0
    7.4530   43.4090   47.7830 H   0  0  0  0  0  0  0  0  0  0  0  0
    5.7582   44.2751   49.5209 H   0  0  0  0  0  0  0  0  0  0  0  0
    5.1637   47.9964   53.4753 H   0  0  0  0  0  0  0  0  0  0  0  0
    3.4711   47.7715   52.9931 H   0  0  0  0  0  0  0  0  0  0  0  0
    4.5608   47.5170   55.6327 H   0  0  0  0  0  0  0  0  0  0  0  0
    2.9162   47.0696   55.1420 H   0  0  0  0  0  0  0  0  0  0  0  0
    5.2237   45.3234   55.7503 H   0  0  0  0  0  0  0  0  0  0  0  0
    3.6430   43.8850   56.3890 H   0  0  0  0  0  0  0  0  0  0  0  0
    1.4986   45.8105   57.4472 H   0  0  0  0  0  0  0  0  0  0  0  0
   -0.9676   45.9442   57.1029 H   0  0  0  0  0  0  0  0  0  0  0  0
   -1.9959   45.0192   55.0292 H   0  0  0  0  0  0  0  0  0  0  0  0
   -0.5602   43.9296   53.3037 H   0  0  0  0  0  0  0  0  0  0  0  0
    1.9005   43.7544   53.6527 H   0  0  0  0  0  0  0  0  0  0  0  0
    5.7122   44.4330   53.6984 H   0  0  0  0  0  0  0  0  0  0  0  0
    4.0057   44.1201   53.3549 H   0  0  0  0  0  0  0  0  0  0  0  0
    6.5831   47.2971   53.2079 H   0  0  0  0  0  0  0  0  0  0  0  0
  1  2  1  0
  2  3  2  0
  3  4  1  0
  4  5  1  0
  4  6  2  0
  6  7  1  0
  7  8  2  0
  8  9  1  0
  8 10  1  0
 10 11  2  0
 11 12  1  0
 12 13  2  0
 12 14  1  0
 14 15  1  0
 15 16  1  0
 16 17  1  0
 17 18  1  0
 18 19  1  0
 19 20  2  0
 20 21  1  0
 21 22  2  0
 22 23  1  0
 23 24  2  0
 17 25  1  0
 11 26  1  0
 26 27  2  0
 27  2  1  0
 26  6  1  0
 25 14  1  0
 24 19  1  0
  1 28  1  0
  1 29  1  0
  1 30  1  0
  3 31  1  0
  9 32  1  0
 10 33  1  0
 15 34  1  0
 15 35  1  0
 16 36  1  0
 16 37  1  0
 17 38  1  1
 18 39  1  0
 20 40  1  0
 21 41  1  0
 22 42  1  0
 23 43  1  0
 24 44  1  0
 25 45  1  0
 25 46  1  0
 27 47  1  0
M  END
>  <meeko>  (1) 
{"is_sidechain": [false], "free_energy": -9.965, "intermolecular_energy": -12.586, "internal_energy": -0.362}

$$$$
ligand_14_conformer_5_docked
     RDKit          3D

 47 50  0  0  0  0  0  0  0  0999 V2000
   10.3150   46.0010   50.9710 C   0  0  0  0  0  0  0  0  0  0  0  0
    9.2130   46.3150   51.9390 C   0  0  0  0  0  0  0  0  0  0  0  0
    9.5210   46.8210   53.2090 C   0  0  0  0  0  0  0  0  0  0  0  0
    8.5050   47.0950   54.1270 C   0  0  0  0  0  0  0  0  0  0  0  0
    8.8220   47.6040   55.3440 F   0  0  0  0  0  0  0  0  0  0  0  0
    7.1700   46.8480   53.7910 C   0  0  0  0  0  0  0  0  0  0  0  0
    6.1860   47.1360   54.6850 N   0  0  0  0  0  0  0  0  0  0  0  0
    4.8740   46.9190   54.4060 C   0  0  0  0  0  0  0  0  0  0  0  0
    3.9000   47.2340   55.3490 O   0  0  0  0  0  0  0  0  0  0  0  0
    4.5010   46.3790   53.1750 C   0  0  0  0  0  0  0  0  0  0  0  0
    5.4810   46.0510   52.2290 C   0  0  0  0  0  0  0  0  0  0  0  0
    5.0470   45.4430   50.9570 C   0  0  0  0  0  0  0  0  0  0  0  0
    4.5370   46.1810   50.0720 O   0  0  0  0  0  0  0  0  0  0  0  0
    5.1580   44.0260   50.7330 N   0  0  0  0  0  0  0  0  0  0  0  0
    4.2060   43.0700   51.2750 C   0  0  0  0  0  0  0  0  0  0  0  0
    4.7000   41.6870   50.8620 C   0  0  0  0  0  0  0  0  0  0  0  0
    6.0790   41.8970   50.2160 C   0  0  1  0  0  0  0  0  0  0  0  0
    6.2320   41.1680   48.9460 N   0  0  0  0  0  0  0  0  0  0  0  0
    5.3400   41.1890   47.8070 C   0  0  0  0  0  0  0  0  0  0  0  0
    4.1020   40.5120   47.7940 C   0  0  0  0  0  0  0  0  0  0  0  0
    3.2870   40.5460   46.6580 C   0  0  0  0  0  0  0  0  0  0  0  0
    3.6840   41.2650   45.5300 C   0  0  0  0  0  0  0  0  0  0  0  0
    4.9020   41.9460   45.5320 C   0  0  0  0  0  0  0  0  0  0  0  0
    5.7260   41.9070   46.6620 C   0  0  0  0  0  0  0  0  0  0  0  0
    6.2890   43.4040   50.0630 C   0  0  0  0  0  0  0  0  0  0  0  0
    6.8410   46.3020   52.5260 C   0  0  0  0  0  0  0  0  0  0  0  0
    7.8770   46.0460   51.6040 C   0  0  0  0  0  0  0  0  0  0  0  0
   11.2280   45.7408   51.5266 H   0  0  0  0  0  0  0  0  0  0  0  0
   10.0164   45.1522   50.3383 H   0  0  0  0  0  0  0  0  0  0  0  0
   10.5087   46.8797   50.3383 H   0  0  0  0  0  0  0  0  0  0  0  0
   10.5701   47.0036   53.4846 H   0  0  0  0  0  0  0  0  0  0  0  0
    4.1560   47.4990   56.2910 H   0  0  0  0  0  0  0  0  0  0  0  0
    3.4381   46.2108   52.9472 H   0  0  0  0  0  0  0  0  0  0  0  0
    4.1701   43.1491   52.3716 H   0  0  0  0  0  0  0  0  0  0  0  0
    3.1910   43.2600   50.8959 H   0  0  0  0  0  0  0  0  0  0  0  0
    4.7876   41.0348   51.7435 H   0  0  0  0  0  0  0  0  0  0  0  0
    4.0004   41.2045   50.1636 H   0  0  0  0  0  0  0  0  0  0  0  0
    6.8618   41.4748   50.8634 H   0  0  0  0  0  0  0  0  0  0  0  0
    7.0910   40.5780   48.8670 H   0  0  0  0  0  0  0  0  0  0  0  0
    3.7756   39.9535   48.6837 H   0  0  0  0  0  0  0  0  0  0  0  0
    2.3298   40.0041   46.6537 H   0  0  0  0  0  0  0  0  0  0  0  0
    3.0377   41.2950   44.6404 H   0  0  0  0  0  0  0  0  0  0  0  0
    5.2148   42.5144   44.6437 H   0  0  0  0  0  0  0  0  0  0  0  0
    6.6860   42.4439   46.6543 H   0  0  0  0  0  0  0  0  0  0  0  0
    7.2327   43.7104   50.5379 H   0  0  0  0  0  0  0  0  0  0  0  0
    6.3498   43.7014   49.0057 H   0  0  0  0  0  0  0  0  0  0  0  0
    7.6358   45.6320   50.6138 H   0  0  0  0  0  0  0  0  0  0  0  0
  1  2  1  0
  2  3  2  0
  3  4  1  0
  4  5  1  0
  4  6  2  0
  6  7  1  0
  7  8  2  0
  8  9  1  0
  8 10  1  0
 10 11  2  0
 11 12  1  0
 12 13  2  0
 12 14  1  0
 14 15  1  0
 15 16  1  0
 16 17  1  0
 17 18  1  0
 18 19  1  0
 19 20  2  0
 20 21  1  0
 21 22  2  0
 22 23  1  0
 23 24  2  0
 17 25  1  0
 11 26  1  0
 26 27  2  0
 27  2  1  0
 26  6  1  0
 25 14  1  0
 24 19  1  0
  1 28  1  0
  1 29  1  0
  1 30  1  0
  3 31  1  0
  9 32  1  0
 10 33  1  0
 15 34  1  0
 15 35  1  0
 16 36  1  0
 16 37  1  0
 17 38  1  1
 18 39  1  0
 20 40  1  0
 21 41  1  0
 22 42  1  0
 23 43  1  0
 24 44  1  0
 25 45  1  0
 25 46  1  0
 27 47  1  0
M  END
>  <meeko>  (2) 
{"is_sidechain": [false], "free_energy": -9.815, "intermolecular_energy": -12.159, "internal_energy": -0.6}

$$$$
ligand_14_conformer_5_docked
     RDKit          3D

 47 50  0  0  0  0  0  0  0  0999 V2000
    7.1910   43.0650   49.6980 C   0  0  0  0  0  0  0  0  0  0  0  0
    5.7820   42.7640   50.1120 C   0  0  0  0  0  0  0  0  0  0  0  0
    5.1840   41.5540   49.7340 C   0  0  0  0  0  0  0  0  0  0  0  0
    3.8650   41.2740   50.0930 C   0  0  0  0  0  0  0  0  0  0  0  0
    3.3110   40.0880   49.7350 F   0  0  0  0  0  0  0  0  0  0  0  0
    3.1200   42.2090   50.8200 C   0  0  0  0  0  0  0  0  0  0  0  0
    1.8420   41.9180   51.1830 N   0  0  0  0  0  0  0  0  0  0  0  0
    1.0800   42.7900   51.8930 C   0  0  0  0  0  0  0  0  0  0  0  0
   -0.2220   42.4480   52.2460 O   0  0  0  0  0  0  0  0  0  0  0  0
    1.5980   44.0290   52.2670 C   0  0  0  0  0  0  0  0  0  0  0  0
    2.9050   44.3790   51.9020 C   0  0  0  0  0  0  0  0  0  0  0  0
    3.4010   45.7160   52.2810 C   0  0  0  0  0  0  0  0  0  0  0  0
    2.9380   46.7280   51.6900 O   0  0  0  0  0  0  0  0  0  0  0  0
    4.4270   45.8740   53.2770 N   0  0  0  0  0  0  0  0  0  0  0  0
    4.6860   44.8740   54.3000 C   0  0  0  0  0  0  0  0  0  0  0  0
    5.7980   45.4360   55.1810 C   0  0  0  0  0  0  0  0  0  0  0  0
    6.0270   46.8820   54.7170 C   0  0  1  0  0  0  0  0  0  0  0  0
    7.4520   47.2060   54.5370 N   0  0  0  0  0  0  0  0  0  0  0  0
    8.3100   46.8200   53.4380 C   0  0  0  0  0  0  0  0  0  0  0  0
    7.8080   46.4210   52.1810 C   0  0  0  0  0  0  0  0  0  0  0  0
    8.6820   46.0350   51.1580 C   0  0  0  0  0  0  0  0  0  0  0  0
   10.0610   46.0570   51.3670 C   0  0  0  0  0  0  0  0  0  0  0  0
   10.5710   46.4570   52.6030 C   0  0  0  0  0  0  0  0  0  0  0  0
    9.7020   46.8340   53.6320 C   0  0  0  0  0  0  0  0  0  0  0  0
    5.2080   47.0890   53.4420 C   0  0  0  0  0  0  0  0  0  0  0  0
    3.6950   43.4530   51.1810 C   0  0  0  0  0  0  0  0  0  0  0  0
    5.0330   43.7150   50.8250 C   0  0  0  0  0  0  0  0  0  0  0  0
    7.8157   43.1985   50.5935 H   0  0  0  0  0  0  0  0  0  0  0  0
    7.5832   42.2304   49.0984 H   0  0  0  0  0  0  0  0  0  0  0  0
    7.2080   43.9870   49.0984 H   0  0  0  0  0  0  0  0  0  0  0  0
    5.7586   40.8199   49.1502 H   0  0  0  0  0  0  0  0  0  0  0  0
   -0.9640   43.1360   52.2230 H   0  0  0  0  0  0  0  0  0  0  0  0
    0.9817   44.7310   52.8478 H   0  0  0  0  0  0  0  0  0  0  0  0
    3.7796   44.6978   54.8978 H   0  0  0  0  0  0  0  0  0  0  0  0
    4.9794   43.9129   53.8526 H   0  0  0  0  0  0  0  0  0  0  0  0
    5.4921   45.4190   56.2375 H   0  0  0  0  0  0  0  0  0  0  0  0
    6.7173   44.8382   55.0942 H   0  0  0  0  0  0  0  0  0  0  0  0
    5.6893   47.5809   55.4965 H   0  0  0  0  0  0  0  0  0  0  0  0
    7.8800   47.7880   55.2930 H   0  0  0  0  0  0  0  0  0  0  0  0
    6.7224   46.4133   52.0038 H   0  0  0  0  0  0  0  0  0  0  0  0
    8.2800   45.7132   50.1860 H   0  0  0  0  0  0  0  0  0  0  0  0
   10.7454   45.7595   50.5589 H   0  0  0  0  0  0  0  0  0  0  0  0
   11.6584   46.4758   52.7682 H   0  0  0  0  0  0  0  0  0  0  0  0
   10.1125   47.1449   54.6040 H   0  0  0  0  0  0  0  0  0  0  0  0
    4.5449   47.9601   53.5489 H   0  0  0  0  0  0  0  0  0  0  0  0
    5.8523   47.2800   52.5711 H   0  0  0  0  0  0  0  0  0  0  0  0
    5.4950   44.6724   51.1078 H   0  0  0  0  0  0  0  0  0  0  0  0
  1  2  1  0
  2  3  2  0
  3  4  1  0
  4  5  1  0
  4  6  2  0
  6  7  1  0
  7  8  2  0
  8  9  1  0
  8 10  1  0
 10 11  2  0
 11 12  1  0
 12 13  2  0
 12 14  1  0
 14 15  1  0
 15 16  1  0
 16 17  1  0
 17 18  1  0
 18 19  1  0
 19 20  2  0
 20 21  1  0
 21 22  2  0
 22 23  1  0
 23 24  2  0
 17 25  1  0
 11 26  1  0
 26 27  2  0
 27  2  1  0
 26  6  1  0
 25 14  1  0
 24 19  1  0
  1 28  1  0
  1 29  1  0
  1 30  1  0
  3 31  1  0
  9 32  1  0
 10 33  1  0
 15 34  1  0
 15 35  1  0
 16 36  1  0
 16 37  1  0
 17 38  1  1
 18 39  1  0
 20 40  1  0
 21 41  1  0
 22 42  1  0
 23 43  1  0
 24 44  1  0
 25 45  1  0
 25 46  1  0
 27 47  1  0
M  END
>  <meeko>  (3) 
{"is_sidechain": [false], "free_energy": -9.735, "intermolecular_energy": -12.06, "internal_energy": -0.597}

$$$$
ligand_14_conformer_5_docked
     RDKit          3D

 47 50  0  0  0  0  0  0  0  0999 V2000
   11.0040   45.9230   51.4500 C   0  0  0  0  0  0  0  0  0  0  0  0
    9.8190   46.3460   52.2660 C   0  0  0  0  0  0  0  0  0  0  0  0
   10.0060   47.1030   53.4310 C   0  0  0  0  0  0  0  0  0  0  0  0
    8.9120   47.4830   54.2110 C   0  0  0  0  0  0  0  0  0  0  0  0
    9.1120   48.2330   55.3240 F   0  0  0  0  0  0  0  0  0  0  0  0
    7.6190   47.0940   53.8450 C   0  0  0  0  0  0  0  0  0  0  0  0
    6.5580   47.4860   54.6010 N   0  0  0  0  0  0  0  0  0  0  0  0
    5.2840   47.1380   54.2870 C   0  0  0  0  0  0  0  0  0  0  0  0
    4.2280   47.5650   55.0860 O   0  0  0  0  0  0  0  0  0  0  0  0
    5.0300   46.3510   53.1630 C   0  0  0  0  0  0  0  0  0  0  0  0
    6.0930   45.9110   52.3640 C   0  0  0  0  0  0  0  0  0  0  0  0
    5.7850   45.0460   51.2090 C   0  0  0  0  0  0  0  0  0  0  0  0
    6.3080   45.3100   50.0930 O   0  0  0  0  0  0  0  0  0  0  0  0
    4.8710   43.9410   51.3280 N   0  0  0  0  0  0  0  0  0  0  0  0
    5.2170   42.5900   50.9170 C   0  0  0  0  0  0  0  0  0  0  0  0
    3.9750   41.7360   51.1530 C   0  0  0  0  0  0  0  0  0  0  0  0
    2.8510   42.7070   51.5440 C   0  0  1  0  0  0  0  0  0  0  0  0
    2.0890   42.2570   52.7210 N   0  0  0  0  0  0  0  0  0  0  0  0
    1.1800   43.0370   53.5310 C   0  0  0  0  0  0  0  0  0  0  0  0
    1.6050   44.1200   54.3300 C   0  0  0  0  0  0  0  0  0  0  0  0
    0.6870   44.8280   55.1130 C   0  0  0  0  0  0  0  0  0  0  0  0
   -0.6640   44.4790   55.0980 C   0  0  0  0  0  0  0  0  0  0  0  0
   -1.1000   43.4160   54.3070 C   0  0  0  0  0  0  0  0  0  0  0  0
   -0.1850   42.6980   53.5300 C   0  0  0  0  0  0  0  0  0  0  0  0
    3.4840   44.0850   51.7410 C   0  0  0  0  0  0  0  0  0  0  0  0
    7.4130   46.2980   52.6920 C   0  0  0  0  0  0  0  0  0  0  0  0
    8.5260   45.9360   51.9050 C   0  0  0  0  0  0  0  0  0  0  0  0
   11.8252   45.6299   52.1206 H   0  0  0  0  0  0  0  0  0  0  0  0
   10.7261   45.0686   50.8154 H   0  0  0  0  0  0  0  0  0  0  0  0
   11.3299   46.7603   50.8154 H   0  0  0  0  0  0  0  0  0  0  0  0
   11.0214   47.3996   53.7327 H   0  0  0  0  0  0  0  0  0  0  0  0
    3.8210   46.9520   55.7810 H   0  0  0  0  0  0  0  0  0  0  0  0
    3.9965   46.0766   52.9048 H   0  0  0  0  0  0  0  0  0  0  0  0
    5.4921   42.5751   49.8521 H   0  0  0  0  0  0  0  0  0  0  0  0
    6.0773   42.2082   51.4863 H   0  0  0  0  0  0  0  0  0  0  0  0
    3.7065   41.1926   50.2350 H   0  0  0  0  0  0  0  0  0  0  0  0
    4.1484   40.9878   51.9405 H   0  0  0  0  0  0  0  0  0  0  0  0
    2.1013   42.7507   50.7403 H   0  0  0  0  0  0  0  0  0  0  0  0
    2.2240   41.2550   52.9870 H   0  0  0  0  0  0  0  0  0  0  0  0
    2.6662   44.4096   54.3371 H   0  0  0  0  0  0  0  0  0  0  0  0
    1.0311   45.6621   55.7422 H   0  0  0  0  0  0  0  0  0  0  0  0
   -1.3846   45.0418   55.7095 H   0  0  0  0  0  0  0  0  0  0  0  0
   -2.1652   43.1419   54.2943 H   0  0  0  0  0  0  0  0  0  0  0  0
   -0.5368   41.8592   52.9115 H   0  0  0  0  0  0  0  0  0  0  0  0
    2.9738   44.8345   51.1182 H   0  0  0  0  0  0  0  0  0  0  0  0
    3.4031   44.4247   52.7841 H   0  0  0  0  0  0  0  0  0  0  0  0
    8.3795   45.3272   51.0006 H   0  0  0  0  0  0  0  0  0  0  0  0
  1  2  1  0
  2  3  2  0
  3  4  1  0
  4  5  1  0
  4  6  2  0
  6  7  1  0
  7  8  2  0
  8  9  1  0
  8 10  1  0
 10 11  2  0
 11 12  1  0
 12 13  2  0
 12 14  1  0
 14 15  1  0
 15 16  1  0
 16 17  1  0
 17 18  1  0
 18 19  1  0
 19 20  2  0
 20 21  1  0
 21 22  2  0
 22 23  1  0
 23 24  2  0
 17 25  1  0
 11 26  1  0
 26 27  2  0
 27  2  1  0
 26  6  1  0
 25 14  1  0
 24 19  1  0
  1 28  1  0
  1 29  1  0
  1 30  1  0
  3 31  1  0
  9 32  1  0
 10 33  1  0
 15 34  1  0
 15 35  1  0
 16 36  1  0
 16 37  1  0
 17 38  1  6
 18 39  1  0
 20 40  1  0
 21 41  1  0
 22 42  1  0
 23 43  1  0
 24 44  1  0
 25 45  1  0
 25 46  1  0
 27 47  1  0
M  END
>  <meeko>  (4) 
{"is_sidechain": [false], "free_energy": -9.666, "intermolecular_energy": -12.909, "internal_energy": 0.338}

$$$$
ligand_14_conformer_5_docked
     RDKit          3D

 47 50  0  0  0  0  0  0  0  0999 V2000
    7.5460   44.5130   48.9090 C   0  0  0  0  0  0  0  0  0  0  0  0
    8.1570   45.1290   50.1330 C   0  0  0  0  0  0  0  0  0  0  0  0
    9.5320   45.0010   50.3690 C   0  0  0  0  0  0  0  0  0  0  0  0
   10.1070   45.5500   51.5160 C   0  0  0  0  0  0  0  0  0  0  0  0
   11.4440   45.4330   51.7170 F   0  0  0  0  0  0  0  0  0  0  0  0
    9.3100   46.2180   52.4510 C   0  0  0  0  0  0  0  0  0  0  0  0
    9.8820   46.7670   53.5560 N   0  0  0  0  0  0  0  0  0  0  0  0
    9.1520   47.4290   54.4910 C   0  0  0  0  0  0  0  0  0  0  0  0
    9.7810   47.9790   55.6040 O   0  0  0  0  0  0  0  0  0  0  0  0
    7.7720   47.5580   54.3390 C   0  0  0  0  0  0  0  0  0  0  0  0
    7.1360   46.9950   53.2240 C   0  0  0  0  0  0  0  0  0  0  0  0
    5.6690   47.1180   53.1220 C   0  0  0  0  0  0  0  0  0  0  0  0
    5.1230   48.2000   53.4680 O   0  0  0  0  0  0  0  0  0  0  0  0
    4.8590   46.0150   52.6790 N   0  0  0  0  0  0  0  0  0  0  0  0
    4.0070   46.0930   51.5030 C   0  0  0  0  0  0  0  0  0  0  0  0
    3.2820   44.7540   51.4060 C   0  0  0  0  0  0  0  0  0  0  0  0
    3.6270   43.9830   52.6890 C   0  0  1  0  0  0  0  0  0  0  0  0
    4.0210   42.5880   52.4290 N   0  0  0  0  0  0  0  0  0  0  0  0
    4.3410   41.9880   51.1520 C   0  0  0  0  0  0  0  0  0  0  0  0
    5.6300   42.0490   50.5810 C   0  0  0  0  0  0  0  0  0  0  0  0
    5.8810   41.4710   49.3320 C   0  0  0  0  0  0  0  0  0  0  0  0
    4.8600   40.8130   48.6450 C   0  0  0  0  0  0  0  0  0  0  0  0
    3.5830   40.7390   49.2010 C   0  0  0  0  0  0  0  0  0  0  0  0
    3.3240   41.3230   50.4450 C   0  0  0  0  0  0  0  0  0  0  0  0
    4.7090   44.7760   53.4230 C   0  0  0  0  0  0  0  0  0  0  0  0
    7.9120   46.3260   52.2490 C   0  0  0  0  0  0  0  0  0  0  0  0
    7.3480   45.7810   51.0770 C   0  0  0  0  0  0  0  0  0  0  0  0
    6.8008   43.7617   49.2096 H   0  0  0  0  0  0  0  0  0  0  0  0
    7.0569   45.2953   48.3100 H   0  0  0  0  0  0  0  0  0  0  0  0
    8.3323   44.0303   48.3100 H   0  0  0  0  0  0  0  0  0  0  0  0
   10.1628   44.4641   49.6452 H   0  0  0  0  0  0  0  0  0  0  0  0
    9.3140   48.6730   56.1740 H   0  0  0  0  0  0  0  0  0  0  0  0
    7.1832   48.1009   55.0931 H   0  0  0  0  0  0  0  0  0  0  0  0
    3.2806   46.9117   51.6132 H   0  0  0  0  0  0  0  0  0  0  0  0
    4.5966   46.2936   50.5963 H   0  0  0  0  0  0  0  0  0  0  0  0
    2.1957   44.9131   51.3377 H   0  0  0  0  0  0  0  0  0  0  0  0
    3.5904   44.1964   50.5093 H   0  0  0  0  0  0  0  0  0  0  0  0
    2.7323   43.8957   53.3229 H   0  0  0  0  0  0  0  0  0  0  0  0
    4.0780   41.9720   53.2720 H   0  0  0  0  0  0  0  0  0  0  0  0
    6.4434   42.5547   51.1219 H   0  0  0  0  0  0  0  0  0  0  0  0
    6.8863   41.5354   48.8901 H   0  0  0  0  0  0  0  0  0  0  0  0
    5.0620   40.3533   47.6663 H   0  0  0  0  0  0  0  0  0  0  0  0
    2.7780   40.2202   48.6599 H   0  0  0  0  0  0  0  0  0  0  0  0
    2.3134   41.2614   50.8750 H   0  0  0  0  0  0  0  0  0  0  0  0
    4.3971   44.9846   54.4570 H   0  0  0  0  0  0  0  0  0  0  0  0
    5.6552   44.2178   53.4784 H   0  0  0  0  0  0  0  0  0  0  0  0
    6.2656   45.8675   50.9011 H   0  0  0  0  0  0  0  0  0  0  0  0
  1  2  1  0
  2  3  2  0
  3  4  1  0
  4  5  1  0
  4  6  2  0
  6  7  1  0
  7  8  2  0
  8  9  1  0
  8 10  1  0
 10 11  2  0
 11 12  1  0
 12 13  2  0
 12 14  1  0
 14 15  1  0
 15 16  1  0
 16 17  1  0
 17 18  1  0
 18 19  1  0
 19 20  2  0
 20 21  1  0
 21 22  2  0
 22 23  1  0
 23 24  2  0
 17 25  1  0
 11 26  1  0
 26 27  2  0
 27  2  1  0
 26  6  1  0
 25 14  1  0
 24 19  1  0
  1 28  1  0
  1 29  1  0
  1 30  1  0
  3 31  1  0
  9 32  1  0
 10 33  1  0
 15 34  1  0
 15 35  1  0
 16 36  1  0
 16 37  1  0
 17 38  1  1
 18 39  1  0
 20 40  1  0
 21 41  1  0
 22 42  1  0
 23 43  1  0
 24 44  1  0
 25 45  1  0
 25 46  1  0
 27 47  1  0
M  END
>  <meeko>  (5) 
{"is_sidechain": [false], "free_energy": -9.484, "intermolecular_energy": -11.652, "internal_energy": -0.688}

$$$$
