ligand_32_conformer_1_docked
     RDKit          3D

 42 45  0  0  0  0  0  0  0  0999 V2000
    6.2830   45.1690   51.8270 O   0  0  0  0  0  0  0  0  0  0  0  0
    6.4400   46.4130   51.9570 C   0  0  0  0  0  0  0  0  0  0  0  0
    5.4980   47.1990   52.7030 N   0  0  0  0  0  0  0  0  0  0  0  0
    4.3370   46.6620   53.3560 C   0  0  0  0  0  0  0  0  0  0  0  0
    4.3940   46.1430   54.6580 C   0  0  0  0  0  0  0  0  0  0  0  0
    3.2380   45.6510   55.2680 C   0  0  0  0  0  0  0  0  0  0  0  0
    2.0160   45.6920   54.5760 C   0  0  0  0  0  0  0  0  0  0  0  0
    0.7950   45.1990   55.1570 N   0  0  0  0  0  0  0  0  0  0  0  0
   -0.1670   44.4630   54.5620 C   0  0  0  0  0  0  0  0  0  0  0  0
   -1.1610   44.2140   55.4830 C   0  0  0  0  0  0  0  0  0  0  0  0
   -0.7340   44.8370   56.6380 C   0  0  0  0  0  0  0  0  0  0  0  0
    0.4550   45.4280   56.4170 N   0  0  0  0  0  0  0  0  0  0  0  0
    1.9840   46.2240   53.3220 N   0  0  0  0  0  0  0  0  0  0  0  0
    3.0960   46.7080   52.7100 C   0  0  0  0  0  0  0  0  0  0  0  0
    7.6320   47.0870   51.3340 C   0  0  1  0  0  0  0  0  0  0  0  0
    8.0120   48.4480   51.9140 C   0  0  0  0  0  0  0  0  0  0  0  0
    8.8870   47.2330   52.2010 C   0  0  1  0  0  0  0  0  0  0  0  0
    8.8590   46.7670   53.6770 C   0  0  0  0  0  0  0  0  0  0  0  0
    8.2580   47.8570   54.5750 C   0  0  0  0  0  0  0  0  0  0  0  0
    9.4230   48.4740   55.3290 C   0  0  0  0  0  0  0  0  0  0  0  0
   10.4450   47.3640   55.4550 C   0  0  0  0  0  0  0  0  0  0  0  0
   10.2810   46.5140   54.2030 C   0  0  0  0  0  0  0  0  0  0  0  0
    5.6020   48.2380   52.6690 H   0  0  0  0  0  0  0  0  0  0  0  0
    5.3512   46.1235   55.1997 H   0  0  0  0  0  0  0  0  0  0  0  0
    3.2840   45.2337   56.2847 H   0  0  0  0  0  0  0  0  0  0  0  0
   -0.1589   44.1195   53.5170 H   0  0  0  0  0  0  0  0  0  0  0  0
   -2.0898   43.6445   55.3312 H   0  0  0  0  0  0  0  0  0  0  0  0
   -1.2810   44.8488   57.5923 H   0  0  0  0  0  0  0  0  0  0  0  0
    3.0208   47.1387   51.7006 H   0  0  0  0  0  0  0  0  0  0  0  0
    7.4284   46.6891   50.3289 H   0  0  0  0  0  0  0  0  0  0  0  0
    8.3791   49.2448   51.2503 H   0  0  0  0  0  0  0  0  0  0  0  0
    7.4988   49.1986   52.5331 H   0  0  0  0  0  0  0  0  0  0  0  0
    9.9355   46.9353   52.0528 H   0  0  0  0  0  0  0  0  0  0  0  0
    8.2587   45.8457   53.7055 H   0  0  0  0  0  0  0  0  0  0  0  0
    7.7528   48.6192   53.9636 H   0  0  0  0  0  0  0  0  0  0  0  0
    7.5092   47.4405   55.2649 H   0  0  0  0  0  0  0  0  0  0  0  0
    9.8413   49.3217   54.7665 H   0  0  0  0  0  0  0  0  0  0  0  0
    9.1172   48.8654   56.3105 H   0  0  0  0  0  0  0  0  0  0  0  0
   11.4614   47.7816   55.5054 H   0  0  0  0  0  0  0  0  0  0  0  0
   10.2945   46.7736   56.3709 H   0  0  0  0  0  0  0  0  0  0  0  0
   11.0227   46.8082   53.4458 H   0  0  0  0  0  0  0  0  0  0  0  0
   10.4350   45.4481   54.4269 H   0  0  0  0  0  0  0  0  0  0  0  0
  1  2  2  0
  2  3  1  0
  3  4  1  0
  4  5  2  0
  5  6  1  0
  6  7  2  0
  7  8  1  0
  8  9  1  0
  9 10  2  0
 10 11  1  0
 11 12  2  0
  7 13  1  0
 13 14  2  0
  2 15  1  0
 15 16  1  0
 16 17  1  0
 17 18  1  0
 18 19  1  0
 19 20  1  0
 20 21  1  0
 21 22  1  0
 14  4  1  0
 17 15  1  0
 22 18  1  0
 12  8  1  0
  3 23  1  0
  5 24  1  0
  6 25  1  0
  9 26  1  0
 10 27  1  0
 11 28  1  0
 14 29  1  0
 15 30  1  6
 16 31  1  0
 16 32  1  0
 17 33  1  6
 18 34  1  0
 19 35  1  0
 19 36  1  0
 20 37  1  0
 20 38  1  0
 21 39  1  0
 21 40  1  0
 22 41  1  0
 22 42  1  0
M  END
>  <meeko>  (1) 
{"is_sidechain": [false], "free_energy": -7.902, "intermolecular_energy": -9.749, "internal_energy": -0.58}

$$$$
ligand_32_conformer_1_docked
     RDKit          3D

 42 45  0  0  0  0  0  0  0  0999 V2000
    4.3760   45.8040   51.2450 O   0  0  0  0  0  0  0  0  0  0  0  0
    4.6500   45.2310   52.3340 C   0  0  0  0  0  0  0  0  0  0  0  0
    4.6920   43.7990   52.4210 N   0  0  0  0  0  0  0  0  0  0  0  0
    4.4450   42.9150   51.3160 C   0  0  0  0  0  0  0  0  0  0  0  0
    5.4790   42.4670   50.4810 C   0  0  0  0  0  0  0  0  0  0  0  0
    5.2040   41.5900   49.4300 C   0  0  0  0  0  0  0  0  0  0  0  0
    3.8860   41.1480   49.2230 C   0  0  0  0  0  0  0  0  0  0  0  0
    3.5460   40.2440   48.1560 N   0  0  0  0  0  0  0  0  0  0  0  0
    3.6720   40.4470   46.8270 C   0  0  0  0  0  0  0  0  0  0  0  0
    3.2230   39.3240   46.1680 C   0  0  0  0  0  0  0  0  0  0  0  0
    2.8310   38.4600   47.1710 C   0  0  0  0  0  0  0  0  0  0  0  0
    3.0360   39.0400   48.3690 N   0  0  0  0  0  0  0  0  0  0  0  0
    2.9040   41.5790   50.0630 N   0  0  0  0  0  0  0  0  0  0  0  0
    3.1510   42.4320   51.0920 C   0  0  0  0  0  0  0  0  0  0  0  0
    4.9470   46.0530   53.5580 C   0  0  1  0  0  0  0  0  0  0  0  0
    5.8520   45.3990   54.6000 C   0  0  0  0  0  0  0  0  0  0  0  0
    6.3890   46.5400   53.7430 C   0  0  1  0  0  0  0  0  0  0  0  0
    7.4790   46.1110   52.7290 C   0  0  0  0  0  0  0  0  0  0  0  0
    8.8340   45.9550   53.4310 C   0  0  0  0  0  0  0  0  0  0  0  0
    9.6610   47.1630   53.0280 C   0  0  0  0  0  0  0  0  0  0  0  0
    9.1540   47.5480   51.6540 C   0  0  0  0  0  0  0  0  0  0  0  0
    7.6770   47.1850   51.6470 C   0  0  0  0  0  0  0  0  0  0  0  0
    4.7930   43.3750   53.3710 H   0  0  0  0  0  0  0  0  0  0  0  0
    6.5103   42.8078   50.6548 H   0  0  0  0  0  0  0  0  0  0  0  0
    6.0133   41.2473   48.7685 H   0  0  0  0  0  0  0  0  0  0  0  0
    4.0669   41.3565   46.3507 H   0  0  0  0  0  0  0  0  0  0  0  0
    3.1851   39.1532   45.0820 H   0  0  0  0  0  0  0  0  0  0  0  0
    2.4155   37.4534   47.0156 H   0  0  0  0  0  0  0  0  0  0  0  0
    2.3288   42.7445   51.7526 H   0  0  0  0  0  0  0  0  0  0  0  0
    3.9600   46.5386   53.5660 H   0  0  0  0  0  0  0  0  0  0  0  0
    5.6613   45.5597   55.6714 H   0  0  0  0  0  0  0  0  0  0  0  0
    6.1743   44.3686   54.8106 H   0  0  0  0  0  0  0  0  0  0  0  0
    6.8263   47.5369   53.9012 H   0  0  0  0  0  0  0  0  0  0  0  0
    7.1438   45.1618   52.2855 H   0  0  0  0  0  0  0  0  0  0  0  0
    8.6978   45.9329   54.5223 H   0  0  0  0  0  0  0  0  0  0  0  0
    9.3291   45.0159   53.1429 H   0  0  0  0  0  0  0  0  0  0  0  0
    9.5116   47.9881   53.7399 H   0  0  0  0  0  0  0  0  0  0  0  0
   10.7384   46.9414   53.0224 H   0  0  0  0  0  0  0  0  0  0  0  0
    9.2851   48.6270   51.4847 H   0  0  0  0  0  0  0  0  0  0  0  0
    9.7049   47.0282   50.8563 H   0  0  0  0  0  0  0  0  0  0  0  0
    7.0680   48.0716   51.8774 H   0  0  0  0  0  0  0  0  0  0  0  0
    7.3665   46.8128   50.6596 H   0  0  0  0  0  0  0  0  0  0  0  0
  1  2  2  0
  2  3  1  0
  3  4  1  0
  4  5  2  0
  5  6  1  0
  6  7  2  0
  7  8  1  0
  8  9  1  0
  9 10  2  0
 10 11  1  0
 11 12  2  0
  7 13  1  0
 13 14  2  0
  2 15  1  0
 15 16  1  0
 16 17  1  0
 17 18  1  0
 18 19  1  0
 19 20  1  0
 20 21  1  0
 21 22  1  0
 14  4  1  0
 17 15  1  0
 22 18  1  0
 12  8  1  0
  3 23  1  0
  5 24  1  0
  6 25  1  0
  9 26  1  0
 10 27  1  0
 11 28  1  0
 14 29  1  0
 15 30  1  1
 16 31  1  0
 16 32  1  0
 17 33  1  1
 18 34  1  0
 19 35  1  0
 19 36  1  0
 20 37  1  0
 20 38  1  0
 21 39  1  0
 21 40  1  0
 22 41  1  0
 22 42  1  0
M  END
>  <meeko>  (2) 
{"is_sidechain": [false], "free_energy": -7.861, "intermolecular_energy": -9.581, "internal_energy": -0.699}

$$$$
ligand_32_conformer_1_docked
     RDKit          3D

 42 45  0  0  0  0  0  0  0  0999 V2000
    3.5070   45.7900   51.7660 O   0  0  0  0  0  0  0  0  0  0  0  0
    4.1940   44.8610   52.2700 C   0  0  0  0  0  0  0  0  0  0  0  0
    3.7810   44.2170   53.4850 N   0  0  0  0  0  0  0  0  0  0  0  0
    2.5880   44.5510   54.2100 C   0  0  0  0  0  0  0  0  0  0  0  0
    1.3380   44.0130   53.8670 C   0  0  0  0  0  0  0  0  0  0  0  0
    0.2040   44.3430   54.6110 C   0  0  0  0  0  0  0  0  0  0  0  0
    0.3230   45.2060   55.7140 C   0  0  0  0  0  0  0  0  0  0  0  0
   -0.8130   45.5790   56.5140 N   0  0  0  0  0  0  0  0  0  0  0  0
   -1.9450   44.8740   56.7240 C   0  0  0  0  0  0  0  0  0  0  0  0
   -2.7700   45.6060   57.5510 C   0  0  0  0  0  0  0  0  0  0  0  0
   -2.0670   46.7650   57.8110 C   0  0  0  0  0  0  0  0  0  0  0  0
   -0.8830   46.7270   57.1720 N   0  0  0  0  0  0  0  0  0  0  0  0
    1.5520   45.6940   56.0400 N   0  0  0  0  0  0  0  0  0  0  0  0
    2.6690   45.3860   55.3310 C   0  0  0  0  0  0  0  0  0  0  0  0
    5.4560   44.4090   51.5890 C   0  0  1  0  0  0  0  0  0  0  0  0
    6.0100   45.3450   50.5160 C   0  0  0  0  0  0  0  0  0  0  0  0
    6.7270   45.2230   51.8560 C   0  0  1  0  0  0  0  0  0  0  0  0
    6.6510   46.4980   52.7330 C   0  0  0  0  0  0  0  0  0  0  0  0
    7.5420   47.6040   52.1530 C   0  0  0  0  0  0  0  0  0  0  0  0
    8.7630   47.6790   53.0530 C   0  0  0  0  0  0  0  0  0  0  0  0
    8.2750   47.2400   54.4180 C   0  0  0  0  0  0  0  0  0  0  0  0
    7.1760   46.2220   54.1510 C   0  0  0  0  0  0  0  0  0  0  0  0
    4.4500   43.5480   53.9280 H   0  0  0  0  0  0  0  0  0  0  0  0
    1.2517   43.3294   53.0095 H   0  0  0  0  0  0  0  0  0  0  0  0
   -0.7776   43.9299   54.3356 H   0  0  0  0  0  0  0  0  0  0  0  0
   -2.1711   43.8821   56.3055 H   0  0  0  0  0  0  0  0  0  0  0  0
   -3.7677   45.3280   57.9216 H   0  0  0  0  0  0  0  0  0  0  0  0
   -2.4202   47.5928   58.4435 H   0  0  0  0  0  0  0  0  0  0  0  0
    3.6426   45.7949   55.6393 H   0  0  0  0  0  0  0  0  0  0  0  0
    5.1955   43.3417   51.6445 H   0  0  0  0  0  0  0  0  0  0  0  0
    6.4692   44.9282   49.6075 H   0  0  0  0  0  0  0  0  0  0  0  0
    5.6010   46.1797   49.9277 H   0  0  0  0  0  0  0  0  0  0  0  0
    7.7285   44.9468   52.2177 H   0  0  0  0  0  0  0  0  0  0  0  0
    5.5947   46.8041   52.7564 H   0  0  0  0  0  0  0  0  0  0  0  0
    7.8410   47.3529   51.1246 H   0  0  0  0  0  0  0  0  0  0  0  0
    7.0121   48.5672   52.1147 H   0  0  0  0  0  0  0  0  0  0  0  0
    9.5524   47.0045   52.6898 H   0  0  0  0  0  0  0  0  0  0  0  0
    9.1965   48.6897   53.0759 H   0  0  0  0  0  0  0  0  0  0  0  0
    9.0946   46.7795   54.9891 H   0  0  0  0  0  0  0  0  0  0  0  0
    7.9074   48.0898   55.0118 H   0  0  0  0  0  0  0  0  0  0  0  0
    7.5818   45.2015   54.2127 H   0  0  0  0  0  0  0  0  0  0  0  0
    6.3696   46.3072   54.8943 H   0  0  0  0  0  0  0  0  0  0  0  0
  1  2  2  0
  2  3  1  0
  3  4  1  0
  4  5  2  0
  5  6  1  0
  6  7  2  0
  7  8  1  0
  8  9  1  0
  9 10  2  0
 10 11  1  0
 11 12  2  0
  7 13  1  0
 13 14  2  0
  2 15  1  0
 15 16  1  0
 16 17  1  0
 17 18  1  0
 18 19  1  0
 19 20  1  0
 20 21  1  0
 21 22  1  0
 14  4  1  0
 17 15  1  0
 22 18  1  0
 12  8  1  0
  3 23  1  0
  5 24  1  0
  6 25  1  0
  9 26  1  0
 10 27  1  0
 11 28  1  0
 14 29  1  0
 15 30  1  6
 16 31  1  0
 16 32  1  0
 17 33  1  6
 18 34  1  0
 19 35  1  0
 19 36  1  0
 20 37  1  0
 20 38  1  0
 21 39  1  0
 21 40  1  0
 22 41  1  0
 22 42  1  0
M  END
>  <meeko>  (3) 
{"is_sidechain": [false], "free_energy": -7.435, "intermolecular_energy": -9.073, "internal_energy": -0.68}

$$$$
ligand_32_conformer_1_docked
     RDKit          3D

 42 45  0  0  0  0  0  0  0  0999 V2000
    2.0630   44.1770   52.1260 O   0  0  0  0  0  0  0  0  0  0  0  0
    1.4300   45.2580   52.2640 C   0  0  0  0  0  0  0  0  0  0  0  0
    2.1130   46.4720   52.6080 N   0  0  0  0  0  0  0  0  0  0  0  0
    3.5320   46.5700   52.8110 C   0  0  0  0  0  0  0  0  0  0  0  0
    4.4450   46.3440   51.7710 C   0  0  0  0  0  0  0  0  0  0  0  0
    5.8170   46.4720   52.0000 C   0  0  0  0  0  0  0  0  0  0  0  0
    6.2750   46.8420   53.2760 C   0  0  0  0  0  0  0  0  0  0  0  0
    7.6770   46.9880   53.5680 N   0  0  0  0  0  0  0  0  0  0  0  0
    8.7250   46.5330   52.8480 C   0  0  0  0  0  0  0  0  0  0  0  0
    9.8880   46.8900   53.4930 C   0  0  0  0  0  0  0  0  0  0  0  0
    9.4710   47.5720   54.6180 C   0  0  0  0  0  0  0  0  0  0  0  0
    8.1260   47.6180   54.6430 N   0  0  0  0  0  0  0  0  0  0  0  0
    5.3660   47.0800   54.2620 N   0  0  0  0  0  0  0  0  0  0  0  0
    4.0270   46.9620   54.0600 C   0  0  0  0  0  0  0  0  0  0  0  0
   -0.0600   45.2840   52.0570 C   0  0  1  0  0  0  0  0  0  0  0  0
   -0.7580   43.9260   52.0380 C   0  0  0  0  0  0  0  0  0  0  0  0
   -0.9390   44.8520   53.2360 C   0  0  1  0  0  0  0  0  0  0  0  0
   -0.2780   44.3390   54.5390 C   0  0  0  0  0  0  0  0  0  0  0  0
   -1.2440   43.4340   55.3130 C   0  0  0  0  0  0  0  0  0  0  0  0
   -1.7370   44.2520   56.4940 C   0  0  0  0  0  0  0  0  0  0  0  0
   -0.6050   45.2060   56.8130 C   0  0  0  0  0  0  0  0  0  0  0  0
    0.0640   45.5060   55.4790 C   0  0  0  0  0  0  0  0  0  0  0  0
    1.5290   47.3070   52.8400 H   0  0  0  0  0  0  0  0  0  0  0  0
    4.0796   46.0650   50.7717 H   0  0  0  0  0  0  0  0  0  0  0  0
    6.5340   46.2845   51.1871 H   0  0  0  0  0  0  0  0  0  0  0  0
    8.6604   45.9713   51.9044 H   0  0  0  0  0  0  0  0  0  0  0  0
   10.9212   46.6783   53.1806 H   0  0  0  0  0  0  0  0  0  0  0  0
   10.1354   48.0104   55.3772 H   0  0  0  0  0  0  0  0  0  0  0  0
    3.3287   47.1758   54.8826 H   0  0  0  0  0  0  0  0  0  0  0  0
   -0.0302   46.1626   51.3958 H   0  0  0  0  0  0  0  0  0  0  0  0
   -1.5969   43.7493   51.3488 H   0  0  0  0  0  0  0  0  0  0  0  0
   -0.4275   42.8853   51.9044 H   0  0  0  0  0  0  0  0  0  0  0  0
   -1.7703   45.3399   53.7660 H   0  0  0  0  0  0  0  0  0  0  0  0
    0.6298   43.7946   54.2399 H   0  0  0  0  0  0  0  0  0  0  0  0
   -2.0890   43.1419   54.6722 H   0  0  0  0  0  0  0  0  0  0  0  0
   -0.7484   42.5097   55.6447 H   0  0  0  0  0  0  0  0  0  0  0  0
   -2.6470   44.8086   56.2253 H   0  0  0  0  0  0  0  0  0  0  0  0
   -1.9968   43.6182   57.3547 H   0  0  0  0  0  0  0  0  0  0  0  0
   -0.9967   46.1303   57.2628 H   0  0  0  0  0  0  0  0  0  0  0  0
    0.1023   44.7722   57.5352 H   0  0  0  0  0  0  0  0  0  0  0  0
   -0.3208   46.4502   55.0661 H   0  0  0  0  0  0  0  0  0  0  0  0
    1.1525   45.6114   55.5979 H   0  0  0  0  0  0  0  0  0  0  0  0
  1  2  2  0
  2  3  1  0
  3  4  1  0
  4  5  2  0
  5  6  1  0
  6  7  2  0
  7  8  1  0
  8  9  1  0
  9 10  2  0
 10 11  1  0
 11 12  2  0
  7 13  1  0
 13 14  2  0
  2 15  1  0
 15 16  1  0
 16 17  1  0
 17 18  1  0
 18 19  1  0
 19 20  1  0
 20 21  1  0
 21 22  1  0
 14  4  1  0
 17 15  1  0
 22 18  1  0
 12  8  1  0
  3 23  1  0
  5 24  1  0
  6 25  1  0
  9 26  1  0
 10 27  1  0
 11 28  1  0
 14 29  1  0
 15 30  1  6
 16 31  1  0
 16 32  1  0
 17 33  1  1
 18 34  1  0
 19 35  1  0
 19 36  1  0
 20 37  1  0
 20 38  1  0
 21 39  1  0
 21 40  1  0
 22 41  1  0
 22 42  1  0
M  END
>  <meeko>  (4) 
{"is_sidechain": [false], "free_energy": -7.217, "intermolecular_energy": -9.068, "internal_energy": -0.416}

$$$$
ligand_32_conformer_1_docked
     RDKit          3D

 42 45  0  0  0  0  0  0  0  0999 V2000
    5.4360   45.3380   50.0790 O   0  0  0  0  0  0  0  0  0  0  0  0
    6.3250   44.7930   50.7860 C   0  0  0  0  0  0  0  0  0  0  0  0
    6.5180   43.3710   50.7570 N   0  0  0  0  0  0  0  0  0  0  0  0
    5.7530   42.4680   49.9440 C   0  0  0  0  0  0  0  0  0  0  0  0
    4.6310   41.7900   50.4450 C   0  0  0  0  0  0  0  0  0  0  0  0
    3.8990   40.9380   49.6160 C   0  0  0  0  0  0  0  0  0  0  0  0
    4.2830   40.7740   48.2750 C   0  0  0  0  0  0  0  0  0  0  0  0
    3.5640   39.9070   47.3780 N   0  0  0  0  0  0  0  0  0  0  0  0
    3.4680   40.0030   46.0340 C   0  0  0  0  0  0  0  0  0  0  0  0
    2.6790   38.9690   45.5780 C   0  0  0  0  0  0  0  0  0  0  0  0
    2.3220   38.2710   46.7140 C   0  0  0  0  0  0  0  0  0  0  0  0
    2.8700   38.8590   47.7940 N   0  0  0  0  0  0  0  0  0  0  0  0
    5.3610   41.4630   47.8070 N   0  0  0  0  0  0  0  0  0  0  0  0
    6.0880   42.2970   48.5950 C   0  0  0  0  0  0  0  0  0  0  0  0
    7.2050   45.6380   51.6650 C   0  0  1  0  0  0  0  0  0  0  0  0
    6.6130   46.9680   52.1250 C   0  0  0  0  0  0  0  0  0  0  0  0
    6.7680   45.8250   53.1220 C   0  0  1  0  0  0  0  0  0  0  0  0
    5.4280   45.2190   53.6050 C   0  0  0  0  0  0  0  0  0  0  0  0
    4.2820   46.2200   53.4080 C   0  0  0  0  0  0  0  0  0  0  0  0
    3.9460   46.7550   54.7880 C   0  0  0  0  0  0  0  0  0  0  0  0
    4.2940   45.6330   55.7430 C   0  0  0  0  0  0  0  0  0  0  0  0
    5.4730   44.9090   55.1090 C   0  0  0  0  0  0  0  0  0  0  0  0
    7.1760   42.9580   51.4570 H   0  0  0  0  0  0  0  0  0  0  0  0
    4.3277   41.9302   51.4930 H   0  0  0  0  0  0  0  0  0  0  0  0
    3.0260   40.3979   50.0110 H   0  0  0  0  0  0  0  0  0  0  0  0
    3.9397   40.7757   45.4092 H   0  0  0  0  0  0  0  0  0  0  0  0
    2.3962   38.7486   44.5381 H   0  0  0  0  0  0  0  0  0  0  0  0
    1.6875   37.3727   46.7338 H   0  0  0  0  0  0  0  0  0  0  0  0
    6.9448   42.8412   48.1711 H   0  0  0  0  0  0  0  0  0  0  0  0
    8.1350   45.3192   51.1716 H   0  0  0  0  0  0  0  0  0  0  0  0
    7.2559   47.8571   52.2045 H   0  0  0  0  0  0  0  0  0  0  0  0
    5.7765   47.6010   51.7940 H   0  0  0  0  0  0  0  0  0  0  0  0
    7.2749   45.6495   54.0824 H   0  0  0  0  0  0  0  0  0  0  0  0
    5.2668   44.3023   53.0187 H   0  0  0  0  0  0  0  0  0  0  0  0
    4.6012   47.0402   52.7482 H   0  0  0  0  0  0  0  0  0  0  0  0
    3.4088   45.7428   52.9393 H   0  0  0  0  0  0  0  0  0  0  0  0
    4.5441   47.6509   55.0108 H   0  0  0  0  0  0  0  0  0  0  0  0
    2.8897   47.0514   54.8686 H   0  0  0  0  0  0  0  0  0  0  0  0
    4.5756   46.0385   56.7260 H   0  0  0  0  0  0  0  0  0  0  0  0
    3.4412   44.9578   55.9068 H   0  0  0  0  0  0  0  0  0  0  0  0
    6.4171   45.2711   55.5421 H   0  0  0  0  0  0  0  0  0  0  0  0
    5.4146   43.8256   55.2905 H   0  0  0  0  0  0  0  0  0  0  0  0
  1  2  2  0
  2  3  1  0
  3  4  1  0
  4  5  2  0
  5  6  1  0
  6  7  2  0
  7  8  1  0
  8  9  1  0
  9 10  2  0
 10 11  1  0
 11 12  2  0
  7 13  1  0
 13 14  2  0
  2 15  1  0
 15 16  1  0
 16 17  1  0
 17 18  1  0
 18 19  1  0
 19 20  1  0
 20 21  1  0
 21 22  1  0
 14  4  1  0
 17 15  1  0
 22 18  1  0
 12  8  1  0
  3 23  1  0
  5 24  1  0
  6 25  1  0
  9 26  1  0
 10 27  1  0
 11 28  1  0
 14 29  1  0
 15 30  1  1
 16 31  1  0
 16 32  1  0
 17 33  1  1
 18 34  1  0
 19 35  1  0
 19 36  1  0
 20 37  1  0
 20 38  1  0
 21 39  1  0
 21 40  1  0
 22 41  1  0
 22 42  1  0
M  END
>  <meeko>  (5) 
{"is_sidechain": [false], "free_energy": -6.958, "intermolecular_energy": -8.495, "internal_energy": -0.671}

$$$$
