ligand_24_conformer_2_docked
     RDKit          3D

 49 52  0  0  0  0  0  0  0  0999 V2000
    7.8630   44.5260   49.1820 C   0  0  0  0  0  0  0  0  0  0  0  0
    7.2710   45.0650   50.4420 C   0  0  0  0  0  0  0  0  0  0  0  0
    5.9670   44.8360   50.7250 N   0  0  0  0  0  0  0  0  0  0  0  0
    5.4010   45.2800   51.8750 C   0  0  0  0  0  0  0  0  0  0  0  0
    4.0260   44.9600   52.1410 N   0  0  0  0  0  0  0  0  0  0  0  0
    3.6970   43.7850   52.9570 C   0  0  0  0  0  0  0  0  0  0  0  0
    2.4770   43.0440   52.3900 C   0  0  0  0  0  0  0  0  0  0  0  0
    1.1910   43.8900   52.3750 C   0  0  0  0  0  0  0  0  0  0  0  0
    1.2670   45.0740   53.2470 N   0  0  0  0  0  0  0  0  0  0  0  0
    0.7420   45.0440   54.5950 C   0  0  0  0  0  0  0  0  0  0  0  0
    1.5660   45.3310   55.6990 C   0  0  0  0  0  0  0  0  0  0  0  0
    1.0340   45.3130   56.9890 C   0  0  0  0  0  0  0  0  0  0  0  0
   -0.2750   45.0010   57.1830 N   0  0  0  0  0  0  0  0  0  0  0  0
   -1.0940   44.6990   56.1430 C   0  0  0  0  0  0  0  0  0  0  0  0
   -0.6030   44.7120   54.8350 C   0  0  0  0  0  0  0  0  0  0  0  0
    1.9970   46.2520   52.7520 C   0  0  0  0  0  0  0  0  0  0  0  0
    2.9740   45.8560   51.6420 C   0  0  0  0  0  0  0  0  0  0  0  0
    6.1780   46.0090   52.8030 C   0  0  0  0  0  0  0  0  0  0  0  0
    5.5440   46.6020   54.0370 C   0  0  0  0  0  0  0  0  0  0  0  0
    7.5560   46.1770   52.5190 C   0  0  0  0  0  0  0  0  0  0  0  0
    8.4600   46.8180   53.4390 N   0  0  0  0  0  0  0  0  0  0  0  0
    9.7630   46.5130   53.5920 C   0  0  0  0  0  0  0  0  0  0  0  0
   10.2740   47.2810   54.6140 C   0  0  0  0  0  0  0  0  0  0  0  0
    9.2040   48.0340   55.0580 C   0  0  0  0  0  0  0  0  0  0  0  0
    8.1100   47.7280   54.3350 N   0  0  0  0  0  0  0  0  0  0  0  0
    8.0540   45.7070   51.3430 N   0  0  0  0  0  0  0  0  0  0  0  0
    8.6557   43.8043   49.4287 H   0  0  0  0  0  0  0  0  0  0  0  0
    7.0801   44.0241   48.5944 H   0  0  0  0  0  0  0  0  0  0  0  0
    8.2894   45.3524   48.5944 H   0  0  0  0  0  0  0  0  0  0  0  0
    4.5593   43.1021   52.9681 H   0  0  0  0  0  0  0  0  0  0  0  0
    3.4589   44.1224   53.9765 H   0  0  0  0  0  0  0  0  0  0  0  0
    2.7045   42.7396   51.3577 H   0  0  0  0  0  0  0  0  0  0  0  0
    2.2883   42.1840   53.0493 H   0  0  0  0  0  0  0  0  0  0  0  0
    1.0053   44.2260   51.3442 H   0  0  0  0  0  0  0  0  0  0  0  0
    0.3769   43.2552   52.7549 H   0  0  0  0  0  0  0  0  0  0  0  0
    2.6288   45.5694   55.5453 H   0  0  0  0  0  0  0  0  0  0  0  0
    1.6750   45.5517   57.8505 H   0  0  0  0  0  0  0  0  0  0  0  0
   -2.1473   44.4433   56.3308 H   0  0  0  0  0  0  0  0  0  0  0  0
   -1.2675   44.4630   53.9945 H   0  0  0  0  0  0  0  0  0  0  0  0
    1.2768   46.9828   52.3554 H   0  0  0  0  0  0  0  0  0  0  0  0
    2.5665   46.6907   53.5845 H   0  0  0  0  0  0  0  0  0  0  0  0
    2.4179   45.3434   50.8432 H   0  0  0  0  0  0  0  0  0  0  0  0
    3.4529   46.7709   51.2629 H   0  0  0  0  0  0  0  0  0  0  0  0
    6.0094   46.1667   54.9336 H   0  0  0  0  0  0  0  0  0  0  0  0
    5.6937   47.6918   54.0385 H   0  0  0  0  0  0  0  0  0  0  0  0
    4.4667   46.3799   54.0385 H   0  0  0  0  0  0  0  0  0  0  0  0
   10.3242   45.7748   53.0002 H   0  0  0  0  0  0  0  0  0  0  0  0
   11.3064   47.2926   54.9934 H   0  0  0  0  0  0  0  0  0  0  0  0
    9.2402   48.7694   55.8753 H   0  0  0  0  0  0  0  0  0  0  0  0
  1  2  1  0
  2  3  2  0
  3  4  1  0
  4  5  1  0
  5  6  1  0
  6  7  1  0
  7  8  1  0
  8  9  1  0
  9 10  1  0
 10 11  2  0
 11 12  1  0
 12 13  2  0
 13 14  1  0
 14 15  2  0
  9 16  1  0
 16 17  1  0
  4 18  2  0
 18 19  1  0
 18 20  1  0
 20 21  1  0
 21 22  1  0
 22 23  2  0
 23 24  1  0
 24 25  2  0
 20 26  2  0
 26  2  1  0
 17  5  1  0
 25 21  1  0
 15 10  1  0
  1 27  1  0
  1 28  1  0
  1 29  1  0
  6 30  1  0
  6 31  1  0
  7 32  1  0
  7 33  1  0
  8 34  1  0
  8 35  1  0
 11 36  1  0
 12 37  1  0
 14 38  1  0
 15 39  1  0
 16 40  1  0
 16 41  1  0
 17 42  1  0
 17 43  1  0
 19 44  1  0
 19 45  1  0
 19 46  1  0
 22 47  1  0
 23 48  1  0
 24 49  1  0
M  END
>  <meeko>  (1) 
{"is_sidechain": [false], "free_energy": -7.1, "intermolecular_energy": -10.836, "internal_energy": 0.489}

$$$$
ligand_24_conformer_2_docked
     RDKit          3D

 49 52  0  0  0  0  0  0  0  0999 V2000
    0.6020   45.3030   56.9250 C   0  0  0  0  0  0  0  0  0  0  0  0
    0.8440   45.1130   55.4650 C   0  0  0  0  0  0  0  0  0  0  0  0
    2.0610   45.3910   54.9420 N   0  0  0  0  0  0  0  0  0  0  0  0
    2.3310   45.1990   53.6260 C   0  0  0  0  0  0  0  0  0  0  0  0
    3.6570   45.4640   53.1440 N   0  0  0  0  0  0  0  0  0  0  0  0
    3.9640   46.7630   52.5330 C   0  0  0  0  0  0  0  0  0  0  0  0
    4.3080   47.8090   53.6030 C   0  0  0  0  0  0  0  0  0  0  0  0
    5.4410   47.3830   54.5770 C   0  0  0  0  0  0  0  0  0  0  0  0
    6.2270   46.2380   54.0880 N   0  0  0  0  0  0  0  0  0  0  0  0
    7.5070   46.4320   53.4420 C   0  0  0  0  0  0  0  0  0  0  0  0
    8.6270   46.8730   54.1710 C   0  0  0  0  0  0  0  0  0  0  0  0
    9.8560   47.0370   53.5300 C   0  0  0  0  0  0  0  0  0  0  0  0
    9.9700   46.7880   52.1990 N   0  0  0  0  0  0  0  0  0  0  0  0
    8.9050   46.3800   51.4600 C   0  0  0  0  0  0  0  0  0  0  0  0
    7.6590   46.1970   52.0640 C   0  0  0  0  0  0  0  0  0  0  0  0
    5.7310   44.8840   54.3790 C   0  0  0  0  0  0  0  0  0  0  0  0
    4.7030   44.4480   53.3310 C   0  0  0  0  0  0  0  0  0  0  0  0
    1.3220   44.7070   52.7680 C   0  0  0  0  0  0  0  0  0  0  0  0
    1.5670   44.5860   51.2850 C   0  0  0  0  0  0  0  0  0  0  0  0
    0.0770   44.3580   53.3490 C   0  0  0  0  0  0  0  0  0  0  0  0
   -0.9880   43.7580   52.5880 N   0  0  0  0  0  0  0  0  0  0  0  0
   -2.0510   44.4130   52.0830 C   0  0  0  0  0  0  0  0  0  0  0  0
   -2.8880   43.4960   51.4880 C   0  0  0  0  0  0  0  0  0  0  0  0
   -2.2700   42.2760   51.6850 C   0  0  0  0  0  0  0  0  0  0  0  0
   -1.1220   42.4590   52.3650 N   0  0  0  0  0  0  0  0  0  0  0  0
   -0.1230   44.5820   54.6760 N   0  0  0  0  0  0  0  0  0  0  0  0
    1.3407   44.7230   57.4976 H   0  0  0  0  0  0  0  0  0  0  0  0
    0.6981   46.3695   57.1769 H   0  0  0  0  0  0  0  0  0  0  0  0
   -0.4112   44.9566   57.1769 H   0  0  0  0  0  0  0  0  0  0  0  0
    4.8221   46.6472   51.8546 H   0  0  0  0  0  0  0  0  0  0  0  0
    3.0778   47.1073   51.9797 H   0  0  0  0  0  0  0  0  0  0  0  0
    4.6215   48.7320   53.0934 H   0  0  0  0  0  0  0  0  0  0  0  0
    3.4029   47.9423   54.2138 H   0  0  0  0  0  0  0  0  0  0  0  0
    6.1192   48.2373   54.7192 H   0  0  0  0  0  0  0  0  0  0  0  0
    4.9633   47.0732   55.5182 H   0  0  0  0  0  0  0  0  0  0  0  0
    8.5339   47.0884   55.2457 H   0  0  0  0  0  0  0  0  0  0  0  0
   10.7342   47.3685   54.1035 H   0  0  0  0  0  0  0  0  0  0  0  0
    9.0246   46.1933   50.3826 H   0  0  0  0  0  0  0  0  0  0  0  0
    6.7980   45.8696   51.4627 H   0  0  0  0  0  0  0  0  0  0  0  0
    6.5763   44.1801   54.3705 H   0  0  0  0  0  0  0  0  0  0  0  0
    5.2485   44.8886   55.3675 H   0  0  0  0  0  0  0  0  0  0  0  0
    5.2175   44.2847   52.3726 H   0  0  0  0  0  0  0  0  0  0  0  0
    4.2245   43.5220   53.6826 H   0  0  0  0  0  0  0  0  0  0  0  0
    2.5410   44.1049   51.1123 H   0  0  0  0  0  0  0  0  0  0  0  0
    0.7716   43.9771   50.8304 H   0  0  0  0  0  0  0  0  0  0  0  0
    1.5671   45.5877   50.8304 H   0  0  0  0  0  0  0  0  0  0  0  0
   -2.2218   45.4983   52.1369 H   0  0  0  0  0  0  0  0  0  0  0  0
   -3.8386   43.6914   50.9702 H   0  0  0  0  0  0  0  0  0  0  0  0
   -2.6559   41.3055   51.3398 H   0  0  0  0  0  0  0  0  0  0  0  0
  1  2  1  0
  2  3  2  0
  3  4  1  0
  4  5  1  0
  5  6  1  0
  6  7  1  0
  7  8  1  0
  8  9  1  0
  9 10  1  0
 10 11  2  0
 11 12  1  0
 12 13  2  0
 13 14  1  0
 14 15  2  0
  9 16  1  0
 16 17  1  0
  4 18  2  0
 18 19  1  0
 18 20  1  0
 20 21  1  0
 21 22  1  0
 22 23  2  0
 23 24  1  0
 24 25  2  0
 20 26  2  0
 26  2  1  0
 17  5  1  0
 25 21  1  0
 15 10  1  0
  1 27  1  0
  1 28  1  0
  1 29  1  0
  6 30  1  0
  6 31  1  0
  7 32  1  0
  7 33  1  0
  8 34  1  0
  8 35  1  0
 11 36  1  0
 12 37  1  0
 14 38  1  0
 15 39  1  0
 16 40  1  0
 16 41  1  0
 17 42  1  0
 17 43  1  0
 19 44  1  0
 19 45  1  0
 19 46  1  0
 22 47  1  0
 23 48  1  0
 24 49  1  0
M  END
>  <meeko>  (2) 
{"is_sidechain": [false], "free_energy": -6.757, "intermolecular_energy": -9.591, "internal_energy": -0.232}

$$$$
ligand_24_conformer_2_docked
     RDKit          3D

 49 52  0  0  0  0  0  0  0  0999 V2000
    7.9550   44.4590   49.2020 C   0  0  0  0  0  0  0  0  0  0  0  0
    7.3480   45.0320   50.4390 C   0  0  0  0  0  0  0  0  0  0  0  0
    6.0350   44.8270   50.7020 N   0  0  0  0  0  0  0  0  0  0  0  0
    5.4540   45.3020   51.8320 C   0  0  0  0  0  0  0  0  0  0  0  0
    4.0700   45.0070   52.0770 N   0  0  0  0  0  0  0  0  0  0  0  0
    3.0280   45.8090   51.4240 C   0  0  0  0  0  0  0  0  0  0  0  0
    2.1060   46.4650   52.4630 C   0  0  0  0  0  0  0  0  0  0  0  0
    1.6510   45.4950   53.5820 C   0  0  0  0  0  0  0  0  0  0  0  0
    1.2760   44.1680   53.0650 N   0  0  0  0  0  0  0  0  0  0  0  0
   -0.1130   43.7800   52.9370 C   0  0  0  0  0  0  0  0  0  0  0  0
   -0.5510   43.0080   51.8460 C   0  0  0  0  0  0  0  0  0  0  0  0
   -1.8920   42.6310   51.7530 C   0  0  0  0  0  0  0  0  0  0  0  0
   -2.7790   43.0240   52.7040 N   0  0  0  0  0  0  0  0  0  0  0  0
   -2.3950   43.7870   53.7610 C   0  0  0  0  0  0  0  0  0  0  0  0
   -1.0610   44.1800   53.8960 C   0  0  0  0  0  0  0  0  0  0  0  0
    2.3480   43.2890   52.5720 C   0  0  0  0  0  0  0  0  0  0  0  0
    3.7230   43.8610   52.9280 C   0  0  0  0  0  0  0  0  0  0  0  0
    6.2230   46.0380   52.7600 C   0  0  0  0  0  0  0  0  0  0  0  0
    5.5750   46.6640   53.9690 C   0  0  0  0  0  0  0  0  0  0  0  0
    7.6090   46.1810   52.4990 C   0  0  0  0  0  0  0  0  0  0  0  0
    8.5050   46.8270   53.4230 N   0  0  0  0  0  0  0  0  0  0  0  0
    9.7230   46.3750   53.7750 C   0  0  0  0  0  0  0  0  0  0  0  0
   10.2420   47.2160   54.7340 C   0  0  0  0  0  0  0  0  0  0  0  0
    9.2620   48.1680   54.9340 C   0  0  0  0  0  0  0  0  0  0  0  0
    8.2110   47.9060   54.1340 N   0  0  0  0  0  0  0  0  0  0  0  0
    8.1220   45.6810   51.3420 N   0  0  0  0  0  0  0  0  0  0  0  0
    8.7293   43.7281   49.4782 H   0  0  0  0  0  0  0  0  0  0  0  0
    7.1750   43.9602   48.6080 H   0  0  0  0  0  0  0  0  0  0  0  0
    8.4081   45.2664   48.6080 H   0  0  0  0  0  0  0  0  0  0  0  0
    3.5048   46.5945   50.8193 H   0  0  0  0  0  0  0  0  0  0  0  0
    2.4232   45.1464   50.7875 H   0  0  0  0  0  0  0  0  0  0  0  0
    2.6451   47.3041   52.9270 H   0  0  0  0  0  0  0  0  0  0  0  0
    1.2011   46.7948   51.9316 H   0  0  0  0  0  0  0  0  0  0  0  0
    2.4761   45.3731   54.2992 H   0  0  0  0  0  0  0  0  0  0  0  0
    0.7600   45.9306   54.0577 H   0  0  0  0  0  0  0  0  0  0  0  0
    0.1623   42.7016   51.0668 H   0  0  0  0  0  0  0  0  0  0  0  0
   -2.2312   42.0143   50.9077 H   0  0  0  0  0  0  0  0  0  0  0  0
   -3.1365   44.0961   54.5124 H   0  0  0  0  0  0  0  0  0  0  0  0
   -0.7529   44.8008   54.7502 H   0  0  0  0  0  0  0  0  0  0  0  0
    2.2402   42.2953   53.0314 H   0  0  0  0  0  0  0  0  0  0  0  0
    2.2686   43.2138   51.4774 H   0  0  0  0  0  0  0  0  0  0  0  0
    3.7127   44.1869   53.9786 H   0  0  0  0  0  0  0  0  0  0  0  0
    4.4745   43.0739   52.7676 H   0  0  0  0  0  0  0  0  0  0  0  0
    6.0155   46.2385   54.8827 H   0  0  0  0  0  0  0  0  0  0  0  0
    5.7424   47.7511   53.9532 H   0  0  0  0  0  0  0  0  0  0  0  0
    4.4944   46.4592   53.9532 H   0  0  0  0  0  0  0  0  0  0  0  0
   10.2203   45.4835   53.3654 H   0  0  0  0  0  0  0  0  0  0  0  0
   11.2208   47.1451   55.2309 H   0  0  0  0  0  0  0  0  0  0  0  0
    9.3295   49.0104   55.6381 H   0  0  0  0  0  0  0  0  0  0  0  0
  1  2  1  0
  2  3  2  0
  3  4  1  0
  4  5  1  0
  5  6  1  0
  6  7  1  0
  7  8  1  0
  8  9  1  0
  9 10  1  0
 10 11  2  0
 11 12  1  0
 12 13  2  0
 13 14  1  0
 14 15  2  0
  9 16  1  0
 16 17  1  0
  4 18  2  0
 18 19  1  0
 18 20  1  0
 20 21  1  0
 21 22  1  0
 22 23  2  0
 23 24  1  0
 24 25  2  0
 20 26  2  0
 26  2  1  0
 17  5  1  0
 25 21  1  0
 15 10  1  0
  1 27  1  0
  1 28  1  0
  1 29  1  0
  6 30  1  0
  6 31  1  0
  7 32  1  0
  7 33  1  0
  8 34  1  0
  8 35  1  0
 11 36  1  0
 12 37  1  0
 14 38  1  0
 15 39  1  0
 16 40  1  0
 16 41  1  0
 17 42  1  0
 17 43  1  0
 19 44  1  0
 19 45  1  0
 19 46  1  0
 22 47  1  0
 23 48  1  0
 24 49  1  0
M  END
>  <meeko>  (3) 
{"is_sidechain": [false], "free_energy": -6.704, "intermolecular_energy": -10.372, "internal_energy": 0.63}

$$$$
ligand_24_conformer_2_docked
     RDKit          3D

 49 52  0  0  0  0  0  0  0  0999 V2000
    4.2880   41.7740   51.0100 C   0  0  0  0  0  0  0  0  0  0  0  0
    3.2590   42.6230   51.6790 C   0  0  0  0  0  0  0  0  0  0  0  0
    3.6450   43.6520   52.4700 N   0  0  0  0  0  0  0  0  0  0  0  0
    2.7410   44.4670   53.0680 C   0  0  0  0  0  0  0  0  0  0  0  0
    3.2160   45.5720   53.8530 N   0  0  0  0  0  0  0  0  0  0  0  0
    3.5420   45.3720   55.2700 C   0  0  0  0  0  0  0  0  0  0  0  0
    4.9910   44.8950   55.4410 C   0  0  0  0  0  0  0  0  0  0  0  0
    6.0430   45.9830   55.1380 C   0  0  0  0  0  0  0  0  0  0  0  0
    5.8030   46.6590   53.8520 N   0  0  0  0  0  0  0  0  0  0  0  0
    6.5890   46.3380   52.6800 C   0  0  0  0  0  0  0  0  0  0  0  0
    7.9510   46.6830   52.6060 C   0  0  0  0  0  0  0  0  0  0  0  0
    8.6950   46.3480   51.4730 C   0  0  0  0  0  0  0  0  0  0  0  0
    8.1020   45.7050   50.4340 N   0  0  0  0  0  0  0  0  0  0  0  0
    6.7840   45.3730   50.4630 C   0  0  0  0  0  0  0  0  0  0  0  0
    6.0060   45.6840   51.5800 C   0  0  0  0  0  0  0  0  0  0  0  0
    4.6640   47.5860   53.7600 C   0  0  0  0  0  0  0  0  0  0  0  0
    3.4290   46.8720   53.2020 C   0  0  0  0  0  0  0  0  0  0  0  0
    1.3600   44.2420   52.8770 C   0  0  0  0  0  0  0  0  0  0  0  0
    0.3370   45.0690   53.6150 C   0  0  0  0  0  0  0  0  0  0  0  0
    0.9790   43.2030   51.9910 C   0  0  0  0  0  0  0  0  0  0  0  0
   -0.3960   42.9480   51.6490 N   0  0  0  0  0  0  0  0  0  0  0  0
   -1.0250   43.4080   50.5500 C   0  0  0  0  0  0  0  0  0  0  0  0
   -2.3460   43.0240   50.6090 C   0  0  0  0  0  0  0  0  0  0  0  0
   -2.4590   42.3330   51.8000 C   0  0  0  0  0  0  0  0  0  0  0  0
   -1.2630   42.3100   52.4200 N   0  0  0  0  0  0  0  0  0  0  0  0
    1.9420   42.4230   51.4300 N   0  0  0  0  0  0  0  0  0  0  0  0
    4.8994   41.2695   51.7727 H   0  0  0  0  0  0  0  0  0  0  0  0
    3.7899   41.0206   50.3821 H   0  0  0  0  0  0  0  0  0  0  0  0
    4.9331   42.4061   50.3821 H   0  0  0  0  0  0  0  0  0  0  0  0
    3.4111   46.3233   55.8066 H   0  0  0  0  0  0  0  0  0  0  0  0
    2.8701   44.6026   55.6782 H   0  0  0  0  0  0  0  0  0  0  0  0
    5.1262   44.5613   56.4804 H   0  0  0  0  0  0  0  0  0  0  0  0
    5.1498   44.0838   54.7153 H   0  0  0  0  0  0  0  0  0  0  0  0
    6.0151   46.7338   55.9415 H   0  0  0  0  0  0  0  0  0  0  0  0
    7.0246   45.4903   55.0777 H   0  0  0  0  0  0  0  0  0  0  0  0
    8.4295   47.2165   53.4405 H   0  0  0  0  0  0  0  0  0  0  0  0
    9.7633   46.6053   51.4218 H   0  0  0  0  0  0  0  0  0  0  0  0
    6.3292   44.8579   49.6041 H   0  0  0  0  0  0  0  0  0  0  0  0
    4.9389   45.4179   51.5995 H   0  0  0  0  0  0  0  0  0  0  0  0
    4.4337   47.9758   54.7625 H   0  0  0  0  0  0  0  0  0  0  0  0
    4.9324   48.4101   53.0827 H   0  0  0  0  0  0  0  0  0  0  0  0
    2.5447   47.5044   53.3697 H   0  0  0  0  0  0  0  0  0  0  0  0
    3.5886   46.6970   52.1278 H   0  0  0  0  0  0  0  0  0  0  0  0
    0.4829   44.9510   54.6989 H   0  0  0  0  0  0  0  0  0  0  0  0
    0.4556   46.1280   53.3422 H   0  0  0  0  0  0  0  0  0  0  0  0
   -0.6736   44.7311   53.3422 H   0  0  0  0  0  0  0  0  0  0  0  0
   -0.5612   43.9921   49.7415 H   0  0  0  0  0  0  0  0  0  0  0  0
   -3.1368   43.2234   49.8708 H   0  0  0  0  0  0  0  0  0  0  0  0
   -3.3820   41.8730   52.1827 H   0  0  0  0  0  0  0  0  0  0  0  0
  1  2  1  0
  2  3  2  0
  3  4  1  0
  4  5  1  0
  5  6  1  0
  6  7  1  0
  7  8  1  0
  8  9  1  0
  9 10  1  0
 10 11  2  0
 11 12  1  0
 12 13  2  0
 13 14  1  0
 14 15  2  0
  9 16  1  0
 16 17  1  0
  4 18  2  0
 18 19  1  0
 18 20  1  0
 20 21  1  0
 21 22  1  0
 22 23  2  0
 23 24  1  0
 24 25  2  0
 20 26  2  0
 26  2  1  0
 17  5  1  0
 25 21  1  0
 15 10  1  0
  1 27  1  0
  1 28  1  0
  1 29  1  0
  6 30  1  0
  6 31  1  0
  7 32  1  0
  7 33  1  0
  8 34  1  0
  8 35  1  0
 11 36  1  0
 12 37  1  0
 14 38  1  0
 15 39  1  0
 16 40  1  0
 16 41  1  0
 17 42  1  0
 17 43  1  0
 19 44  1  0
 19 45  1  0
 19 46  1  0
 22 47  1  0
 23 48  1  0
 24 49  1  0
M  END
>  <meeko>  (4) 
{"is_sidechain": [false], "free_energy": -6.598, "intermolecular_energy": -9.546, "internal_energy": -0.034}

$$$$
ligand_24_conformer_2_docked
     RDKit          3D

 49 52  0  0  0  0  0  0  0  0999 V2000
    5.2700   42.4360   50.3850 C   0  0  0  0  0  0  0  0  0  0  0  0
    5.1440   43.6790   51.2000 C   0  0  0  0  0  0  0  0  0  0  0  0
    3.9570   43.9900   51.7740 N   0  0  0  0  0  0  0  0  0  0  0  0
    3.8100   45.0940   52.5500 C   0  0  0  0  0  0  0  0  0  0  0  0
    2.5400   45.3400   53.1710 N   0  0  0  0  0  0  0  0  0  0  0  0
    1.4700   45.9940   52.4070 C   0  0  0  0  0  0  0  0  0  0  0  0
    0.6690   44.9690   51.5910 C   0  0  0  0  0  0  0  0  0  0  0  0
   -0.0440   43.8830   52.4470 C   0  0  0  0  0  0  0  0  0  0  0  0
    0.0440   44.1440   53.8930 N   0  0  0  0  0  0  0  0  0  0  0  0
   -1.0860   44.6700   54.6280 C   0  0  0  0  0  0  0  0  0  0  0  0
   -1.0710   44.7300   56.0330 C   0  0  0  0  0  0  0  0  0  0  0  0
   -2.1660   45.2570   56.7210 C   0  0  0  0  0  0  0  0  0  0  0  0
   -3.2540   45.6970   56.0360 N   0  0  0  0  0  0  0  0  0  0  0  0
   -3.3110   45.6360   54.6800 C   0  0  0  0  0  0  0  0  0  0  0  0
   -2.2350   45.1220   53.9540 C   0  0  0  0  0  0  0  0  0  0  0  0
    1.2750   43.7470   54.5940 C   0  0  0  0  0  0  0  0  0  0  0  0
    2.3130   44.8720   54.5460 C   0  0  0  0  0  0  0  0  0  0  0  0
    4.9120   45.9520   52.7640 C   0  0  0  0  0  0  0  0  0  0  0  0
    4.7450   47.2370   53.5350 C   0  0  0  0  0  0  0  0  0  0  0  0
    6.1600   45.5700   52.2120 C   0  0  0  0  0  0  0  0  0  0  0  0
    7.3680   46.3180   52.4480 N   0  0  0  0  0  0  0  0  0  0  0  0
    7.9800   46.4560   53.6390 C   0  0  0  0  0  0  0  0  0  0  0  0
    9.0550   47.3020   53.4840 C   0  0  0  0  0  0  0  0  0  0  0  0
    9.0290   47.6630   52.1500 C   0  0  0  0  0  0  0  0  0  0  0  0
    7.9880   47.0610   51.5430 N   0  0  0  0  0  0  0  0  0  0  0  0
    6.2310   44.4520   51.4400 N   0  0  0  0  0  0  0  0  0  0  0  0
    5.3581   41.5667   51.0533 H   0  0  0  0  0  0  0  0  0  0  0  0
    4.3788   42.3218   49.7504 H   0  0  0  0  0  0  0  0  0  0  0  0
    6.1660   42.5029   49.7504 H   0  0  0  0  0  0  0  0  0  0  0  0
    0.7918   46.5069   53.1049 H   0  0  0  0  0  0  0  0  0  0  0  0
    1.9263   46.7146   51.7123 H   0  0  0  0  0  0  0  0  0  0  0  0
   -0.0959   45.5100   51.0146 H   0  0  0  0  0  0  0  0  0  0  0  0
    1.3926   44.4409   50.9526 H   0  0  0  0  0  0  0  0  0  0  0  0
   -1.1055   43.8510   52.1601 H   0  0  0  0  0  0  0  0  0  0  0  0
    0.4616   42.9255   52.2531 H   0  0  0  0  0  0  0  0  0  0  0  0
   -0.1968   44.3618   56.5900 H   0  0  0  0  0  0  0  0  0  0  0  0
   -2.1478   45.3160   57.8193 H   0  0  0  0  0  0  0  0  0  0  0  0
   -4.2079   45.9928   54.1524 H   0  0  0  0  0  0  0  0  0  0  0  0
   -2.2856   45.0705   52.8564 H   0  0  0  0  0  0  0  0  0  0  0  0
    1.0358   43.5211   55.6437 H   0  0  0  0  0  0  0  0  0  0  0  0
    1.6934   42.8588   54.0979 H   0  0  0  0  0  0  0  0  0  0  0  0
    1.9546   45.7147   55.1554 H   0  0  0  0  0  0  0  0  0  0  0  0
    3.2634   44.4804   54.9377 H   0  0  0  0  0  0  0  0  0  0  0  0
    4.7727   47.0236   54.6137 H   0  0  0  0  0  0  0  0  0  0  0  0
    5.5609   47.9282   53.2769 H   0  0  0  0  0  0  0  0  0  0  0  0
    3.7796   47.6967   53.2769 H   0  0  0  0  0  0  0  0  0  0  0  0
    7.6727   45.9736   54.5786 H   0  0  0  0  0  0  0  0  0  0  0  0
    9.7753   47.6203   54.2520 H   0  0  0  0  0  0  0  0  0  0  0  0
    9.7469   48.3372   51.6601 H   0  0  0  0  0  0  0  0  0  0  0  0
  1  2  1  0
  2  3  2  0
  3  4  1  0
  4  5  1  0
  5  6  1  0
  6  7  1  0
  7  8  1  0
  8  9  1  0
  9 10  1  0
 10 11  2  0
 11 12  1  0
 12 13  2  0
 13 14  1  0
 14 15  2  0
  9 16  1  0
 16 17  1  0
  4 18  2  0
 18 19  1  0
 18 20  1  0
 20 21  1  0
 21 22  1  0
 22 23  2  0
 23 24  1  0
 24 25  2  0
 20 26  2  0
 26  2  1  0
 17  5  1  0
 25 21  1  0
 15 10  1  0
  1 27  1  0
  1 28  1  0
  1 29  1  0
  6 30  1  0
  6 31  1  0
  7 32  1  0
  7 33  1  0
  8 34  1  0
  8 35  1  0
 11 36  1  0
 12 37  1  0
 14 38  1  0
 15 39  1  0
 16 40  1  0
 16 41  1  0
 17 42  1  0
 17 43  1  0
 19 44  1  0
 19 45  1  0
 19 46  1  0
 22 47  1  0
 23 48  1  0
 24 49  1  0
M  END
>  <meeko>  (5) 
{"is_sidechain": [false], "free_energy": -6.173, "intermolecular_energy": -8.86, "internal_energy": -0.071}

$$$$
