ligand_32_conformer_3_docked
     RDKit          3D

 42 45  0  0  0  0  0  0  0  0999 V2000
    6.4570   44.6720   51.8570 O   0  0  0  0  0  0  0  0  0  0  0  0
    6.6320   45.9160   51.7570 C   0  0  0  0  0  0  0  0  0  0  0  0
    5.7250   46.8380   52.3780 N   0  0  0  0  0  0  0  0  0  0  0  0
    4.5680   46.4470   53.1360 C   0  0  0  0  0  0  0  0  0  0  0  0
    4.6690   45.9940   54.4600 C   0  0  0  0  0  0  0  0  0  0  0  0
    3.5180   45.6430   55.1700 C   0  0  0  0  0  0  0  0  0  0  0  0
    2.2630   45.7590   54.5550 C   0  0  0  0  0  0  0  0  0  0  0  0
    1.0620   45.4020   55.2580 N   0  0  0  0  0  0  0  0  0  0  0  0
    0.8650   45.4920   56.5880 C   0  0  0  0  0  0  0  0  0  0  0  0
   -0.4110   45.0570   56.8700 C   0  0  0  0  0  0  0  0  0  0  0  0
   -0.9430   44.7100   55.6440 C   0  0  0  0  0  0  0  0  0  0  0  0
   -0.0310   44.9270   54.6780 N   0  0  0  0  0  0  0  0  0  0  0  0
    2.1880   46.2240   53.2760 N   0  0  0  0  0  0  0  0  0  0  0  0
    3.2940   46.5730   52.5670 C   0  0  0  0  0  0  0  0  0  0  0  0
    7.8060   46.4510   50.9830 C   0  0  1  0  0  0  0  0  0  0  0  0
    8.1130   47.9360   51.1580 C   0  0  0  0  0  0  0  0  0  0  0  0
    9.0290   46.8960   51.7920 C   0  0  1  0  0  0  0  0  0  0  0  0
    8.9790   46.8800   53.3390 C   0  0  0  0  0  0  0  0  0  0  0  0
    8.6490   48.2580   53.8950 C   0  0  0  0  0  0  0  0  0  0  0  0
    9.2460   48.2730   55.2910 C   0  0  0  0  0  0  0  0  0  0  0  0
   10.4370   47.3210   55.2530 C   0  0  0  0  0  0  0  0  0  0  0  0
   10.3320   46.5260   53.9530 C   0  0  0  0  0  0  0  0  0  0  0  0
    5.8450   47.8540   52.1610 H   0  0  0  0  0  0  0  0  0  0  0  0
    5.6557   45.9151   54.9397 H   0  0  0  0  0  0  0  0  0  0  0  0
    3.5957   45.2780   56.2048 H   0  0  0  0  0  0  0  0  0  0  0  0
    1.5991   45.8520   57.3239 H   0  0  0  0  0  0  0  0  0  0  0  0
   -0.8985   44.9989   57.8543 H   0  0  0  0  0  0  0  0  0  0  0  0
   -1.9572   44.3163   55.4815 H   0  0  0  0  0  0  0  0  0  0  0  0
    3.1882   46.9563   51.5414 H   0  0  0  0  0  0  0  0  0  0  0  0
    7.6440   45.7795   50.1270 H   0  0  0  0  0  0  0  0  0  0  0  0
    8.4654   48.5286   50.3009 H   0  0  0  0  0  0  0  0  0  0  0  0
    7.5518   48.8058   51.5302 H   0  0  0  0  0  0  0  0  0  0  0  0
   10.0911   46.6128   51.7508 H   0  0  0  0  0  0  0  0  0  0  0  0
    8.2127   46.1327   53.5927 H   0  0  0  0  0  0  0  0  0  0  0  0
    9.1014   49.0442   53.2728 H   0  0  0  0  0  0  0  0  0  0  0  0
    7.5659   48.4496   53.9072 H   0  0  0  0  0  0  0  0  0  0  0  0
    9.5774   49.2885   55.5534 H   0  0  0  0  0  0  0  0  0  0  0  0
    8.5086   47.9636   56.0463 H   0  0  0  0  0  0  0  0  0  0  0  0
   11.3773   47.8914   55.2720 H   0  0  0  0  0  0  0  0  0  0  0  0
   10.4314   46.6503   56.1248 H   0  0  0  0  0  0  0  0  0  0  0  0
   11.1457   46.8072   53.2683 H   0  0  0  0  0  0  0  0  0  0  0  0
   10.4149   45.4450   54.1389 H   0  0  0  0  0  0  0  0  0  0  0  0
  1  2  2  0
  2  3  1  0
  3  4  1  0
  4  5  2  0
  5  6  1  0
  6  7  2  0
  7  8  1  0
  8  9  1  0
  9 10  2  0
 10 11  1  0
 11 12  2  0
  7 13  1  0
 13 14  2  0
  2 15  1  0
 15 16  1  0
 16 17  1  0
 17 18  1  0
 18 19  1  0
 19 20  1  0
 20 21  1  0
 21 22  1  0
 14  4  1  0
 17 15  1  0
 22 18  1  0
 12  8  1  0
  3 23  1  0
  5 24  1  0
  6 25  1  0
  9 26  1  0
 10 27  1  0
 11 28  1  0
 14 29  1  0
 15 30  1  6
 16 31  1  0
 16 32  1  0
 17 33  1  1
 18 34  1  0
 19 35  1  0
 19 36  1  0
 20 37  1  0
 20 38  1  0
 21 39  1  0
 21 40  1  0
 22 41  1  0
 22 42  1  0
M  END
>  <meeko>  (1) 
{"is_sidechain": [false], "free_energy": -7.771, "intermolecular_energy": -9.588, "internal_energy": -0.681}

$$$$
ligand_32_conformer_3_docked
     RDKit          3D

 42 45  0  0  0  0  0  0  0  0999 V2000
    4.3590   45.8330   51.5410 O   0  0  0  0  0  0  0  0  0  0  0  0
    4.7090   45.2270   52.5900 C   0  0  0  0  0  0  0  0  0  0  0  0
    4.8290   43.7970   52.6070 N   0  0  0  0  0  0  0  0  0  0  0  0
    4.5610   42.9490   51.4770 C   0  0  0  0  0  0  0  0  0  0  0  0
    5.5760   42.5500   50.5950 C   0  0  0  0  0  0  0  0  0  0  0  0
    5.2780   41.7090   49.5210 C   0  0  0  0  0  0  0  0  0  0  0  0
    3.9630   41.2570   49.3390 C   0  0  0  0  0  0  0  0  0  0  0  0
    3.6260   40.3940   48.2410 N   0  0  0  0  0  0  0  0  0  0  0  0
    3.8160   40.6620   46.9340 C   0  0  0  0  0  0  0  0  0  0  0  0
    3.3650   39.5880   46.1980 C   0  0  0  0  0  0  0  0  0  0  0  0
    2.9040   38.6880   47.1380 C   0  0  0  0  0  0  0  0  0  0  0  0
    3.0720   39.1970   48.3730 N   0  0  0  0  0  0  0  0  0  0  0  0
    2.9990   41.6390   50.2220 N   0  0  0  0  0  0  0  0  0  0  0  0
    3.2660   42.4550   51.2750 C   0  0  0  0  0  0  0  0  0  0  0  0
    5.0130   46.0040   53.8410 C   0  0  1  0  0  0  0  0  0  0  0  0
    6.0320   45.3830   54.7940 C   0  0  0  0  0  0  0  0  0  0  0  0
    6.4170   46.6040   53.9660 C   0  0  1  0  0  0  0  0  0  0  0  0
    7.4800   46.3120   52.8800 C   0  0  0  0  0  0  0  0  0  0  0  0
    8.8620   46.1320   53.4940 C   0  0  0  0  0  0  0  0  0  0  0  0
    9.8350   46.4980   52.3880 C   0  0  0  0  0  0  0  0  0  0  0  0
    9.1100   47.5070   51.5020 C   0  0  0  0  0  0  0  0  0  0  0  0
    7.6370   47.4750   51.9030 C   0  0  0  0  0  0  0  0  0  0  0  0
    5.0000   43.3390   53.5310 H   0  0  0  0  0  0  0  0  0  0  0  0
    6.6074   42.8998   50.7495 H   0  0  0  0  0  0  0  0  0  0  0  0
    6.0700   41.4028   48.8218 H   0  0  0  0  0  0  0  0  0  0  0  0
    4.2567   41.5827   46.5240 H   0  0  0  0  0  0  0  0  0  0  0  0
    3.3709   39.4731   45.1040 H   0  0  0  0  0  0  0  0  0  0  0  0
    2.4660   37.7045   46.9122 H   0  0  0  0  0  0  0  0  0  0  0  0
    2.4609   42.7291   51.9726 H   0  0  0  0  0  0  0  0  0  0  0  0
    3.9901   46.3977   53.9345 H   0  0  0  0  0  0  0  0  0  0  0  0
    5.8958   45.4775   55.8814 H   0  0  0  0  0  0  0  0  0  0  0  0
    6.4515   44.3757   54.9330 H   0  0  0  0  0  0  0  0  0  0  0  0
    6.7747   47.6288   54.1443 H   0  0  0  0  0  0  0  0  0  0  0  0
    7.1267   45.4027   52.3717 H   0  0  0  0  0  0  0  0  0  0  0  0
    8.9907   46.7998   54.3586 H   0  0  0  0  0  0  0  0  0  0  0  0
    9.0205   45.1071   53.8608 H   0  0  0  0  0  0  0  0  0  0  0  0
   10.7444   46.9477   52.8132 H   0  0  0  0  0  0  0  0  0  0  0  0
   10.1447   45.6110   51.8159 H   0  0  0  0  0  0  0  0  0  0  0  0
    9.5229   48.5142   51.6603 H   0  0  0  0  0  0  0  0  0  0  0  0
    9.2331   47.2554   50.4383 H   0  0  0  0  0  0  0  0  0  0  0  0
    7.3546   48.4206   52.3890 H   0  0  0  0  0  0  0  0  0  0  0  0
    6.9877   47.3474   51.0243 H   0  0  0  0  0  0  0  0  0  0  0  0
  1  2  2  0
  2  3  1  0
  3  4  1  0
  4  5  2  0
  5  6  1  0
  6  7  2  0
  7  8  1  0
  8  9  1  0
  9 10  2  0
 10 11  1  0
 11 12  2  0
  7 13  1  0
 13 14  2  0
  2 15  1  0
 15 16  1  0
 16 17  1  0
 17 18  1  0
 18 19  1  0
 19 20  1  0
 20 21  1  0
 21 22  1  0
 14  4  1  0
 17 15  1  0
 22 18  1  0
 12  8  1  0
  3 23  1  0
  5 24  1  0
  6 25  1  0
  9 26  1  0
 10 27  1  0
 11 28  1  0
 14 29  1  0
 15 30  1  1
 16 31  1  0
 16 32  1  0
 17 33  1  1
 18 34  1  0
 19 35  1  0
 19 36  1  0
 20 37  1  0
 20 38  1  0
 21 39  1  0
 21 40  1  0
 22 41  1  0
 22 42  1  0
M  END
>  <meeko>  (2) 
{"is_sidechain": [false], "free_energy": -7.762, "intermolecular_energy": -9.546, "internal_energy": -0.713}

$$$$
ligand_32_conformer_3_docked
     RDKit          3D

 42 45  0  0  0  0  0  0  0  0999 V2000
    7.0700   46.3940   54.9310 O   0  0  0  0  0  0  0  0  0  0  0  0
    7.1150   47.0800   53.8750 C   0  0  0  0  0  0  0  0  0  0  0  0
    6.0400   47.0380   52.9250 N   0  0  0  0  0  0  0  0  0  0  0  0
    4.8590   46.2330   53.0750 C   0  0  0  0  0  0  0  0  0  0  0  0
    4.8320   44.8820   52.6990 C   0  0  0  0  0  0  0  0  0  0  0  0
    3.6710   44.1280   52.8800 C   0  0  0  0  0  0  0  0  0  0  0  0
    2.5390   44.7270   53.4520 C   0  0  0  0  0  0  0  0  0  0  0  0
    1.3280   43.9780   53.6470 N   0  0  0  0  0  0  0  0  0  0  0  0
    1.1210   42.6970   53.2850 C   0  0  0  0  0  0  0  0  0  0  0  0
   -0.1610   42.3440   53.6450 C   0  0  0  0  0  0  0  0  0  0  0  0
   -0.6870   43.4780   54.2290 C   0  0  0  0  0  0  0  0  0  0  0  0
    0.2350   44.4600   54.2210 N   0  0  0  0  0  0  0  0  0  0  0  0
    2.5960   46.0340   53.8310 N   0  0  0  0  0  0  0  0  0  0  0  0
    3.7160   46.7860   53.6660 C   0  0  0  0  0  0  0  0  0  0  0  0
    8.3030   47.9610   53.6010 C   0  0  1  0  0  0  0  0  0  0  0  0
    9.6480   47.4690   54.1300 C   0  0  0  0  0  0  0  0  0  0  0  0
    9.3620   47.4220   52.6330 C   0  0  1  0  0  0  0  0  0  0  0  0
    9.2310   45.9880   52.0670 C   0  0  0  0  0  0  0  0  0  0  0  0
   10.5660   45.4780   51.5420 C   0  0  0  0  0  0  0  0  0  0  0  0
   10.2070   44.4410   50.4940 C   0  0  0  0  0  0  0  0  0  0  0  0
    8.8520   44.8580   49.9300 C   0  0  0  0  0  0  0  0  0  0  0  0
    8.2920   45.9310   50.8630 C   0  0  0  0  0  0  0  0  0  0  0  0
    6.1840   47.5280   52.0120 H   0  0  0  0  0  0  0  0  0  0  0  0
    5.7269   44.4159   52.2609 H   0  0  0  0  0  0  0  0  0  0  0  0
    3.6442   43.0712   52.5760 H   0  0  0  0  0  0  0  0  0  0  0  0
    1.8519   42.0435   52.7864 H   0  0  0  0  0  0  0  0  0  0  0  0
   -0.6560   41.3726   53.4991 H   0  0  0  0  0  0  0  0  0  0  0  0
   -1.7040   43.5666   54.6386 H   0  0  0  0  0  0  0  0  0  0  0  0
    3.7248   47.8345   53.9984 H   0  0  0  0  0  0  0  0  0  0  0  0
    7.7241   48.8933   53.6772 H   0  0  0  0  0  0  0  0  0  0  0  0
   10.3786   48.1891   54.5272 H   0  0  0  0  0  0  0  0  0  0  0  0
    9.9630   46.7320   54.8834 H   0  0  0  0  0  0  0  0  0  0  0  0
    9.7983   47.8258   51.7075 H   0  0  0  0  0  0  0  0  0  0  0  0
    8.8524   45.3829   52.9040 H   0  0  0  0  0  0  0  0  0  0  0  0
   11.1431   46.2989   51.0915 H   0  0  0  0  0  0  0  0  0  0  0  0
   11.1905   45.0560   52.3432 H   0  0  0  0  0  0  0  0  0  0  0  0
   10.9642   44.4270   49.6962 H   0  0  0  0  0  0  0  0  0  0  0  0
   10.1675   43.4305   50.9267 H   0  0  0  0  0  0  0  0  0  0  0  0
    8.9740   45.2655   48.9156 H   0  0  0  0  0  0  0  0  0  0  0  0
    8.1704   43.9969   49.8676 H   0  0  0  0  0  0  0  0  0  0  0  0
    8.2687   46.9049   50.3522 H   0  0  0  0  0  0  0  0  0  0  0  0
    7.2627   45.6945   51.1707 H   0  0  0  0  0  0  0  0  0  0  0  0
  1  2  2  0
  2  3  1  0
  3  4  1  0
  4  5  2  0
  5  6  1  0
  6  7  2  0
  7  8  1  0
  8  9  1  0
  9 10  2  0
 10 11  1  0
 11 12  2  0
  7 13  1  0
 13 14  2  0
  2 15  1  0
 15 16  1  0
 16 17  1  0
 17 18  1  0
 18 19  1  0
 19 20  1  0
 20 21  1  0
 21 22  1  0
 14  4  1  0
 17 15  1  0
 22 18  1  0
 12  8  1  0
  3 23  1  0
  5 24  1  0
  6 25  1  0
  9 26  1  0
 10 27  1  0
 11 28  1  0
 14 29  1  0
 15 30  1  6
 16 31  1  0
 16 32  1  0
 17 33  1  6
 18 34  1  0
 19 35  1  0
 19 36  1  0
 20 37  1  0
 20 38  1  0
 21 39  1  0
 21 40  1  0
 22 41  1  0
 22 42  1  0
M  END
>  <meeko>  (3) 
{"is_sidechain": [false], "free_energy": -7.72, "intermolecular_energy": -9.826, "internal_energy": -0.38}

$$$$
ligand_32_conformer_3_docked
     RDKit          3D

 42 45  0  0  0  0  0  0  0  0999 V2000
    4.8350   45.9710   50.8700 O   0  0  0  0  0  0  0  0  0  0  0  0
    5.5840   45.0100   51.1930 C   0  0  0  0  0  0  0  0  0  0  0  0
    5.2360   44.1390   52.2780 N   0  0  0  0  0  0  0  0  0  0  0  0
    4.0500   44.2780   53.0780 C   0  0  0  0  0  0  0  0  0  0  0  0
    4.0120   45.1130   54.2060 C   0  0  0  0  0  0  0  0  0  0  0  0
    2.8340   45.2360   54.9450 C   0  0  0  0  0  0  0  0  0  0  0  0
    1.6880   44.5330   54.5460 C   0  0  0  0  0  0  0  0  0  0  0  0
    0.4620   44.6370   55.2890 N   0  0  0  0  0  0  0  0  0  0  0  0
    0.2920   45.3030   56.4480 C   0  0  0  0  0  0  0  0  0  0  0  0
   -1.0210   45.1670   56.8390 C   0  0  0  0  0  0  0  0  0  0  0  0
   -1.6030   44.3920   55.8560 C   0  0  0  0  0  0  0  0  0  0  0  0
   -0.6830   44.0810   54.9230 N   0  0  0  0  0  0  0  0  0  0  0  0
    1.7420   43.7470   53.4340 N   0  0  0  0  0  0  0  0  0  0  0  0
    2.8770   43.6130   52.6980 C   0  0  0  0  0  0  0  0  0  0  0  0
    6.8580   44.7620   50.4330 C   0  0  1  0  0  0  0  0  0  0  0  0
    7.5250   45.9870   49.8100 C   0  0  0  0  0  0  0  0  0  0  0  0
    8.1500   45.3270   51.0340 C   0  0  1  0  0  0  0  0  0  0  0  0
    8.0890   46.1970   52.3120 C   0  0  0  0  0  0  0  0  0  0  0  0
    7.9910   47.6770   51.9680 C   0  0  0  0  0  0  0  0  0  0  0  0
    8.5750   48.4010   53.1680 C   0  0  0  0  0  0  0  0  0  0  0  0
    9.5900   47.4450   53.7870 C   0  0  0  0  0  0  0  0  0  0  0  0
    9.3610   46.0760   53.1490 C   0  0  0  0  0  0  0  0  0  0  0  0
    5.9500   43.4380   52.5820 H   0  0  0  0  0  0  0  0  0  0  0  0
    4.9109   45.6706   54.5077 H   0  0  0  0  0  0  0  0  0  0  0  0
    2.8048   45.8810   55.8356 H   0  0  0  0  0  0  0  0  0  0  0  0
    1.0702   45.8607   56.9897 H   0  0  0  0  0  0  0  0  0  0  0  0
   -1.5006   45.5840   57.7368 H   0  0  0  0  0  0  0  0  0  0  0  0
   -2.6567   44.0768   55.8376 H   0  0  0  0  0  0  0  0  0  0  0  0
    2.8744   42.9789   51.7991 H   0  0  0  0  0  0  0  0  0  0  0  0
    6.5380   43.7739   50.0707 H   0  0  0  0  0  0  0  0  0  0  0  0
    8.0180   45.9051   48.8301 H   0  0  0  0  0  0  0  0  0  0  0  0
    7.1967   47.0069   49.5609 H   0  0  0  0  0  0  0  0  0  0  0  0
    9.1086   44.8621   51.3077 H   0  0  0  0  0  0  0  0  0  0  0  0
    7.2073   45.8363   52.8620 H   0  0  0  0  0  0  0  0  0  0  0  0
    8.5714   47.9020   51.0611 H   0  0  0  0  0  0  0  0  0  0  0  0
    6.9549   47.9853   51.7645 H   0  0  0  0  0  0  0  0  0  0  0  0
    9.0706   49.3298   52.8493 H   0  0  0  0  0  0  0  0  0  0  0  0
    7.7925   48.6783   53.8896 H   0  0  0  0  0  0  0  0  0  0  0  0
   10.6125   47.7927   53.5784 H   0  0  0  0  0  0  0  0  0  0  0  0
    9.4668   47.3948   54.8789 H   0  0  0  0  0  0  0  0  0  0  0  0
   10.2138   45.8076   52.5082 H   0  0  0  0  0  0  0  0  0  0  0  0
    9.2618   45.2915   53.9137 H   0  0  0  0  0  0  0  0  0  0  0  0
  1  2  2  0
  2  3  1  0
  3  4  1  0
  4  5  2  0
  5  6  1  0
  6  7  2  0
  7  8  1  0
  8  9  1  0
  9 10  2  0
 10 11  1  0
 11 12  2  0
  7 13  1  0
 13 14  2  0
  2 15  1  0
 15 16  1  0
 16 17  1  0
 17 18  1  0
 18 19  1  0
 19 20  1  0
 20 21  1  0
 21 22  1  0
 14  4  1  0
 17 15  1  0
 22 18  1  0
 12  8  1  0
  3 23  1  0
  5 24  1  0
  6 25  1  0
  9 26  1  0
 10 27  1  0
 11 28  1  0
 14 29  1  0
 15 30  1  6
 16 31  1  0
 16 32  1  0
 17 33  1  6
 18 34  1  0
 19 35  1  0
 19 36  1  0
 20 37  1  0
 20 38  1  0
 21 39  1  0
 21 40  1  0
 22 41  1  0
 22 42  1  0
M  END
>  <meeko>  (4) 
{"is_sidechain": [false], "free_energy": -7.35, "intermolecular_energy": -9.043, "internal_energy": -0.706}

$$$$
ligand_32_conformer_3_docked
     RDKit          3D

 42 45  0  0  0  0  0  0  0  0999 V2000
    1.8440   45.2940   51.9590 O   0  0  0  0  0  0  0  0  0  0  0  0
    1.8490   44.1330   52.4500 C   0  0  0  0  0  0  0  0  0  0  0  0
    2.9900   43.6440   53.1700 N   0  0  0  0  0  0  0  0  0  0  0  0
    4.1960   44.3980   53.3820 C   0  0  0  0  0  0  0  0  0  0  0  0
    4.5080   44.9590   54.6290 C   0  0  0  0  0  0  0  0  0  0  0  0
    5.7000   45.6670   54.8000 C   0  0  0  0  0  0  0  0  0  0  0  0
    6.5860   45.8000   53.7220 C   0  0  0  0  0  0  0  0  0  0  0  0
    7.8180   46.5260   53.8650 N   0  0  0  0  0  0  0  0  0  0  0  0
    8.9280   46.3590   53.1200 C   0  0  0  0  0  0  0  0  0  0  0  0
    9.8890   47.2400   53.5660 C   0  0  0  0  0  0  0  0  0  0  0  0
    9.2860   47.9220   54.6030 C   0  0  0  0  0  0  0  0  0  0  0  0
    8.0270   47.4730   54.7690 N   0  0  0  0  0  0  0  0  0  0  0  0
    6.2730   45.2260   52.5260 N   0  0  0  0  0  0  0  0  0  0  0  0
    5.1210   44.5320   52.3380 C   0  0  0  0  0  0  0  0  0  0  0  0
    0.6460   43.2450   52.2910 C   0  0  1  0  0  0  0  0  0  0  0  0
    0.2860   42.3700   53.4890 C   0  0  0  0  0  0  0  0  0  0  0  0
   -0.5820   43.5750   53.1450 C   0  0  1  0  0  0  0  0  0  0  0  0
   -0.5130   44.7140   54.1890 C   0  0  0  0  0  0  0  0  0  0  0  0
    0.2960   44.2960   55.4090 C   0  0  0  0  0  0  0  0  0  0  0  0
   -0.2300   45.1560   56.5440 C   0  0  0  0  0  0  0  0  0  0  0  0
   -1.6820   45.4710   56.2000 C   0  0  0  0  0  0  0  0  0  0  0  0
   -1.8910   45.0730   54.7400 C   0  0  0  0  0  0  0  0  0  0  0  0
    2.9900   42.6360   53.4470 H   0  0  0  0  0  0  0  0  0  0  0  0
    3.8131   44.8413   55.4735 H   0  0  0  0  0  0  0  0  0  0  0  0
    5.9417   46.1171   55.7741 H   0  0  0  0  0  0  0  0  0  0  0  0
    9.0470   45.6409   52.2953 H   0  0  0  0  0  0  0  0  0  0  0  0
   10.9109   47.3707   53.1806 H   0  0  0  0  0  0  0  0  0  0  0  0
    9.7612   48.7122   55.2029 H   0  0  0  0  0  0  0  0  0  0  0  0
    4.9128   44.0724   51.3606 H   0  0  0  0  0  0  0  0  0  0  0  0
    0.8218   43.0726   51.2189 H   0  0  0  0  0  0  0  0  0  0  0  0
   -0.0993   41.3521   53.3296 H   0  0  0  0  0  0  0  0  0  0  0  0
    0.8187   42.0286   54.3888 H   0  0  0  0  0  0  0  0  0  0  0  0
   -1.6332   43.7751   52.8902 H   0  0  0  0  0  0  0  0  0  0  0  0
   -0.0585   45.5623   53.6563 H   0  0  0  0  0  0  0  0  0  0  0  0
    0.1410   43.2293   55.6285 H   0  0  0  0  0  0  0  0  0  0  0  0
    1.3765   44.4324   55.2543 H   0  0  0  0  0  0  0  0  0  0  0  0
   -0.1738   44.6076   57.4959 H   0  0  0  0  0  0  0  0  0  0  0  0
    0.3635   46.0749   56.6595 H   0  0  0  0  0  0  0  0  0  0  0  0
   -2.3577   44.8948   56.8492 H   0  0  0  0  0  0  0  0  0  0  0  0
   -1.8986   46.5389   56.3509 H   0  0  0  0  0  0  0  0  0  0  0  0
   -2.5644   44.2057   54.6749 H   0  0  0  0  0  0  0  0  0  0  0  0
   -2.3491   45.8915   54.1654 H   0  0  0  0  0  0  0  0  0  0  0  0
  1  2  2  0
  2  3  1  0
  3  4  1  0
  4  5  2  0
  5  6  1  0
  6  7  2  0
  7  8  1  0
  8  9  1  0
  9 10  2  0
 10 11  1  0
 11 12  2  0
  7 13  1  0
 13 14  2  0
  2 15  1  0
 15 16  1  0
 16 17  1  0
 17 18  1  0
 18 19  1  0
 19 20  1  0
 20 21  1  0
 21 22  1  0
 14  4  1  0
 17 15  1  0
 22 18  1  0
 12  8  1  0
  3 23  1  0
  5 24  1  0
  6 25  1  0
  9 26  1  0
 10 27  1  0
 11 28  1  0
 14 29  1  0
 15 30  1  6
 16 31  1  0
 16 32  1  0
 17 33  1  6
 18 34  1  0
 19 35  1  0
 19 36  1  0
 20 37  1  0
 20 38  1  0
 21 39  1  0
 21 40  1  0
 22 41  1  0
 22 42  1  0
M  END
>  <meeko>  (5) 
{"is_sidechain": [false], "free_energy": -7.159, "intermolecular_energy": -9.191, "internal_energy": -0.324}

$$$$
