ligand_82_conformer_5_docked
     RDKit          3D

 48 50  0  0  0  0  0  0  0  0999 V2000
    6.1560   42.1450   48.6470 C   0  0  0  0  0  0  0  0  0  0  0  0
    6.6730   43.3230   49.4220 C   0  0  0  0  0  0  0  0  0  0  0  0
    8.0270   43.6870   49.3390 C   0  0  0  0  0  0  0  0  0  0  0  0
    8.5020   44.7980   50.0440 C   0  0  0  0  0  0  0  0  0  0  0  0
    7.6260   45.5650   50.8210 C   0  0  0  0  0  0  0  0  0  0  0  0
    8.2390   46.9920   51.7250 S   0  0  0  0  0  0  0  0  0  0  0  0
    8.2990   46.1380   53.3390 C   0  0  0  0  0  0  0  0  0  0  0  0
    7.3640   46.7810   54.3240 C   0  0  0  0  0  0  0  0  0  0  0  0
    7.7470   47.8000   54.9600 O   0  0  0  0  0  0  0  0  0  0  0  0
    6.0410   46.2640   54.5460 N   0  0  0  0  0  0  0  0  0  0  0  0
    4.9160   47.2010   54.6460 C   0  0  0  0  0  0  0  0  0  0  0  0
    3.5930   46.4640   54.8920 C   0  0  0  0  0  0  0  0  0  0  0  0
    3.3420   45.3070   53.8760 C   0  0  0  0  0  0  0  0  0  0  0  0
    4.6580   44.4730   53.6450 C   0  0  0  0  0  0  0  0  0  0  0  0
    5.7820   44.8220   54.6210 C   0  0  0  0  0  0  0  0  0  0  0  0
    2.2000   44.4250   54.4870 C   0  0  0  0  0  0  0  0  0  0  0  0
    1.4960   43.5130   53.4710 C   0  0  2  0  0  0  0  0  0  0  0  0
    2.2970   42.4000   53.1730 O   0  0  0  0  0  0  0  0  0  0  0  0
    1.1750   44.3010   52.2020 C   0  0  0  0  0  0  0  0  0  0  0  0
    2.4310   45.0070   51.7000 C   0  0  0  0  0  0  0  0  0  0  0  0
    2.9230   45.9280   52.6600 O   0  0  0  0  0  0  0  0  0  0  0  0
    6.2720   45.2120   50.8970 C   0  0  0  0  0  0  0  0  0  0  0  0
    5.7940   44.1030   50.1900 C   0  0  0  0  0  0  0  0  0  0  0  0
    5.8147   41.3674   49.3461 H   0  0  0  0  0  0  0  0  0  0  0  0
    5.3149   42.4634   48.0136 H   0  0  0  0  0  0  0  0  0  0  0  0
    6.9597   41.7415   48.0136 H   0  0  0  0  0  0  0  0  0  0  0  0
    8.7163   43.0965   48.7175 H   0  0  0  0  0  0  0  0  0  0  0  0
    9.5665   45.0695   49.9876 H   0  0  0  0  0  0  0  0  0  0  0  0
    8.0078   45.0863   53.2005 H   0  0  0  0  0  0  0  0  0  0  0  0
    9.3237   46.2056   53.7332 H   0  0  0  0  0  0  0  0  0  0  0  0
    5.1003   47.8936   55.4805 H   0  0  0  0  0  0  0  0  0  0  0  0
    4.8357   47.7479   53.6950 H   0  0  0  0  0  0  0  0  0  0  0  0
    3.6107   46.0412   55.9074 H   0  0  0  0  0  0  0  0  0  0  0  0
    2.7807   47.1949   54.7658 H   0  0  0  0  0  0  0  0  0  0  0  0
    4.4178   43.4055   53.7583 H   0  0  0  0  0  0  0  0  0  0  0  0
    5.0206   44.7149   52.6350 H   0  0  0  0  0  0  0  0  0  0  0  0
    5.4803   44.5531   55.6441 H   0  0  0  0  0  0  0  0  0  0  0  0
    6.6927   44.2640   54.3579 H   0  0  0  0  0  0  0  0  0  0  0  0
    2.6365   43.7923   55.2739 H   0  0  0  0  0  0  0  0  0  0  0  0
    1.4370   45.1180   54.8712 H   0  0  0  0  0  0  0  0  0  0  0  0
    0.5549   43.1495   53.9094 H   0  0  0  0  0  0  0  0  0  0  0  0
    1.8830   41.6160   53.6200 H   0  0  0  0  0  0  0  0  0  0  0  0
    0.8092   43.6116   51.4268 H   0  0  0  0  0  0  0  0  0  0  0  0
    0.4020   45.0509   52.4261 H   0  0  0  0  0  0  0  0  0  0  0  0
    3.2069   44.2549   51.4945 H   0  0  0  0  0  0  0  0  0  0  0  0
    2.1752   45.5622   50.7855 H   0  0  0  0  0  0  0  0  0  0  0  0
    5.5833   45.8080   51.5138 H   0  0  0  0  0  0  0  0  0  0  0  0
    4.7265   43.8417   50.2361 H   0  0  0  0  0  0  0  0  0  0  0  0
  1  2  1  0
  2  3  2  0
  3  4  1  0
  4  5  2  0
  5  6  1  0
  6  7  1  0
  7  8  1  0
  8  9  2  0
  8 10  1  0
 10 11  1  0
 11 12  1  0
 12 13  1  0
 13 14  1  0
 14 15  1  0
 13 16  1  0
 16 17  1  0
 17 18  1  0
 17 19  1  0
 19 20  1  0
 20 21  1  0
  5 22  1  0
 22 23  2  0
 23  2  1  0
 15 10  1  0
 21 13  1  0
  1 24  1  0
  1 25  1  0
  1 26  1  0
  3 27  1  0
  4 28  1  0
  7 29  1  0
  7 30  1  0
 11 31  1  0
 11 32  1  0
 12 33  1  0
 12 34  1  0
 14 35  1  0
 14 36  1  0
 15 37  1  0
 15 38  1  0
 16 39  1  0
 16 40  1  0
 17 41  1  1
 18 42  1  0
 19 43  1  0
 19 44  1  0
 20 45  1  0
 20 46  1  0
 22 47  1  0
 23 48  1  0
M  END
>  <meeko>  (1) 
{"is_sidechain": [false], "free_energy": -9.079, "intermolecular_energy": -10.936, "internal_energy": -0.608}

$$$$
ligand_82_conformer_5_docked
     RDKit          3D

 48 50  0  0  0  0  0  0  0  0999 V2000
    6.4610   43.0520   50.0610 C   0  0  0  0  0  0  0  0  0  0  0  0
    5.1290   43.4670   50.6150 C   0  0  0  0  0  0  0  0  0  0  0  0
    4.7080   44.8040   50.5200 C   0  0  0  0  0  0  0  0  0  0  0  0
    3.4570   45.1860   51.0170 C   0  0  0  0  0  0  0  0  0  0  0  0
    2.6100   44.2320   51.5940 C   0  0  0  0  0  0  0  0  0  0  0  0
    1.0030   44.7250   52.2310 S   0  0  0  0  0  0  0  0  0  0  0  0
    1.6620   46.0480   53.3050 C   0  0  0  0  0  0  0  0  0  0  0  0
    2.5260   45.4780   54.3940 C   0  0  0  0  0  0  0  0  0  0  0  0
    2.0400   44.6220   55.1810 O   0  0  0  0  0  0  0  0  0  0  0  0
    3.8970   45.8820   54.5480 N   0  0  0  0  0  0  0  0  0  0  0  0
    4.9170   44.8600   54.8140 C   0  0  0  0  0  0  0  0  0  0  0  0
    6.3120   45.4840   54.9570 C   0  0  0  0  0  0  0  0  0  0  0  0
    6.6810   46.4290   53.7710 C   0  0  0  0  0  0  0  0  0  0  0  0
    5.4600   47.3480   53.3900 C   0  0  0  0  0  0  0  0  0  0  0  0
    4.3080   47.2820   54.3940 C   0  0  0  0  0  0  0  0  0  0  0  0
    7.9120   47.2720   54.2480 C   0  0  0  0  0  0  0  0  0  0  0  0
    8.7060   47.9290   53.1090 C   0  0  2  0  0  0  0  0  0  0  0  0
    8.0260   49.0580   52.6230 O   0  0  0  0  0  0  0  0  0  0  0  0
    8.9370   46.9160   51.9870 C   0  0  0  0  0  0  0  0  0  0  0  0
    7.6110   46.2760   51.5890 C   0  0  0  0  0  0  0  0  0  0  0  0
    7.0280   45.5780   52.6780 O   0  0  0  0  0  0  0  0  0  0  0  0
    3.0210   42.8960   51.6800 C   0  0  0  0  0  0  0  0  0  0  0  0
    4.2700   42.5120   51.1810 C   0  0  0  0  0  0  0  0  0  0  0  0
    7.1518   42.8368   50.8896 H   0  0  0  0  0  0  0  0  0  0  0  0
    6.3365   42.1501   49.4437 H   0  0  0  0  0  0  0  0  0  0  0  0
    6.8708   43.8650   49.4437 H   0  0  0  0  0  0  0  0  0  0  0  0
    5.3643   45.5533   50.0532 H   0  0  0  0  0  0  0  0  0  0  0  0
    3.1386   46.2370   50.9543 H   0  0  0  0  0  0  0  0  0  0  0  0
    2.2614   46.7406   52.6958 H   0  0  0  0  0  0  0  0  0  0  0  0
    0.8161   46.5760   53.7694 H   0  0  0  0  0  0  0  0  0  0  0  0
    4.6627   44.3349   55.7465 H   0  0  0  0  0  0  0  0  0  0  0  0
    4.9361   44.1611   53.9648 H   0  0  0  0  0  0  0  0  0  0  0  0
    6.3423   46.0648   55.8907 H   0  0  0  0  0  0  0  0  0  0  0  0
    7.0420   44.6611   54.9619 H   0  0  0  0  0  0  0  0  0  0  0  0
    5.8123   48.3885   53.3327 H   0  0  0  0  0  0  0  0  0  0  0  0
    5.0706   46.9849   52.4275 H   0  0  0  0  0  0  0  0  0  0  0  0
    4.6399   47.6791   55.3646 H   0  0  0  0  0  0  0  0  0  0  0  0
    3.4610   47.8833   54.0322 H   0  0  0  0  0  0  0  0  0  0  0  0
    7.5479   48.0657   54.9170 H   0  0  0  0  0  0  0  0  0  0  0  0
    8.5981   46.5731   54.7488 H   0  0  0  0  0  0  0  0  0  0  0  0
    9.6814   48.2577   53.4971 H   0  0  0  0  0  0  0  0  0  0  0  0
    8.4450   49.2970   51.7560 H   0  0  0  0  0  0  0  0  0  0  0  0
    9.3714   47.4283   51.1159 H   0  0  0  0  0  0  0  0  0  0  0  0
    9.6267   46.1347   52.3389 H   0  0  0  0  0  0  0  0  0  0  0  0
    6.9187   47.0634   51.2562 H   0  0  0  0  0  0  0  0  0  0  0  0
    7.8018   45.5574   50.7783 H   0  0  0  0  0  0  0  0  0  0  0  0
    2.3602   42.1471   52.1409 H   0  0  0  0  0  0  0  0  0  0  0  0
    4.5802   41.4579   51.2323 H   0  0  0  0  0  0  0  0  0  0  0  0
  1  2  1  0
  2  3  2  0
  3  4  1  0
  4  5  2  0
  5  6  1  0
  6  7  1  0
  7  8  1  0
  8  9  2  0
  8 10  1  0
 10 11  1  0
 11 12  1  0
 12 13  1  0
 13 14  1  0
 14 15  1  0
 13 16  1  0
 16 17  1  0
 17 18  1  0
 17 19  1  0
 19 20  1  0
 20 21  1  0
  5 22  1  0
 22 23  2  0
 23  2  1  0
 15 10  1  0
 21 13  1  0
  1 24  1  0
  1 25  1  0
  1 26  1  0
  3 27  1  0
  4 28  1  0
  7 29  1  0
  7 30  1  0
 11 31  1  0
 11 32  1  0
 12 33  1  0
 12 34  1  0
 14 35  1  0
 14 36  1  0
 15 37  1  0
 15 38  1  0
 16 39  1  0
 16 40  1  0
 17 41  1  1
 18 42  1  0
 19 43  1  0
 19 44  1  0
 20 45  1  0
 20 46  1  0
 22 47  1  0
 23 48  1  0
M  END
>  <meeko>  (2) 
{"is_sidechain": [false], "free_energy": -8.772, "intermolecular_energy": -10.315, "internal_energy": -0.86}

$$$$
ligand_82_conformer_5_docked
     RDKit          3D

 48 50  0  0  0  0  0  0  0  0999 V2000
   10.3440   47.5570   55.3680 C   0  0  0  0  0  0  0  0  0  0  0  0
    9.5840   47.1200   54.1490 C   0  0  0  0  0  0  0  0  0  0  0  0
   10.2690   46.7820   52.9700 C   0  0  0  0  0  0  0  0  0  0  0  0
    9.5610   46.3550   51.8420 C   0  0  0  0  0  0  0  0  0  0  0  0
    8.1660   46.2420   51.8880 C   0  0  0  0  0  0  0  0  0  0  0  0
    7.2590   45.6920   50.4370 S   0  0  0  0  0  0  0  0  0  0  0  0
    5.6620   45.5260   51.3080 C   0  0  0  0  0  0  0  0  0  0  0  0
    5.1150   44.1330   51.1730 C   0  0  0  0  0  0  0  0  0  0  0  0
    5.9010   43.1880   50.8910 O   0  0  0  0  0  0  0  0  0  0  0  0
    3.7180   43.8560   51.3690 N   0  0  0  0  0  0  0  0  0  0  0  0
    3.3270   42.6760   52.1490 C   0  0  0  0  0  0  0  0  0  0  0  0
    1.8010   42.5440   52.2390 C   0  0  0  0  0  0  0  0  0  0  0  0
    1.1030   43.8560   52.7160 C   0  0  0  0  0  0  0  0  0  0  0  0
    1.7280   45.1120   51.9990 C   0  0  0  0  0  0  0  0  0  0  0  0
    2.6770   44.7530   50.8550 C   0  0  0  0  0  0  0  0  0  0  0  0
   -0.4180   43.6940   52.3750 C   0  0  0  0  0  0  0  0  0  0  0  0
   -1.3410   44.6490   53.1460 C   0  0  2  0  0  0  0  0  0  0  0  0
   -1.2800   45.9410   52.5990 O   0  0  0  0  0  0  0  0  0  0  0  0
   -0.9490   44.6710   54.6220 C   0  0  0  0  0  0  0  0  0  0  0  0
    0.5460   44.9430   54.7550 C   0  0  0  0  0  0  0  0  0  0  0  0
    1.3130   43.9280   54.1260 O   0  0  0  0  0  0  0  0  0  0  0  0
    7.4800   46.5670   53.0650 C   0  0  0  0  0  0  0  0  0  0  0  0
    8.1870   46.9920   54.1960 C   0  0  0  0  0  0  0  0  0  0  0  0
    9.7997   47.2440   56.2712 H   0  0  0  0  0  0  0  0  0  0  0  0
   11.3422   47.0950   55.3629 H   0  0  0  0  0  0  0  0  0  0  0  0
   10.4468   48.6522   55.3629 H   0  0  0  0  0  0  0  0  0  0  0  0
   11.3661   46.8534   52.9339 H   0  0  0  0  0  0  0  0  0  0  0  0
   10.1013   46.1073   50.9164 H   0  0  0  0  0  0  0  0  0  0  0  0
    5.8090   45.7526   52.3743 H   0  0  0  0  0  0  0  0  0  0  0  0
    4.9443   46.2284   50.8591 H   0  0  0  0  0  0  0  0  0  0  0  0
    3.7361   41.7763   51.6661 H   0  0  0  0  0  0  0  0  0  0  0  0
    3.7252   42.7876   53.1683 H   0  0  0  0  0  0  0  0  0  0  0  0
    1.4124   42.2820   51.2438 H   0  0  0  0  0  0  0  0  0  0  0  0
    1.5813   41.7647   52.9836 H   0  0  0  0  0  0  0  0  0  0  0  0
    0.9092   45.7241   51.5929 H   0  0  0  0  0  0  0  0  0  0  0  0
    2.3198   45.6528   52.7522 H   0  0  0  0  0  0  0  0  0  0  0  0
    2.1166   44.2486   50.0541 H   0  0  0  0  0  0  0  0  0  0  0  0
    3.1369   45.6664   50.4499 H   0  0  0  0  0  0  0  0  0  0  0  0
   -0.5519   43.8786   51.2989 H   0  0  0  0  0  0  0  0  0  0  0  0
   -0.7013   42.6731   52.6707 H   0  0  0  0  0  0  0  0  0  0  0  0
   -2.3771   44.2896   53.0599 H   0  0  0  0  0  0  0  0  0  0  0  0
   -0.7990   45.8670   51.7330 H   0  0  0  0  0  0  0  0  0  0  0  0
   -1.5117   45.4632   55.1376 H   0  0  0  0  0  0  0  0  0  0  0  0
   -1.1827   43.6961   55.0747 H   0  0  0  0  0  0  0  0  0  0  0  0
    0.7774   45.9102   54.2849 H   0  0  0  0  0  0  0  0  0  0  0  0
    0.8021   44.9589   55.8247 H   0  0  0  0  0  0  0  0  0  0  0  0
    6.3834   46.4881   53.1008 H   0  0  0  0  0  0  0  0  0  0  0  0
    7.6460   47.2264   55.1246 H   0  0  0  0  0  0  0  0  0  0  0  0
  1  2  1  0
  2  3  2  0
  3  4  1  0
  4  5  2  0
  5  6  1  0
  6  7  1  0
  7  8  1  0
  8  9  2  0
  8 10  1  0
 10 11  1  0
 11 12  1  0
 12 13  1  0
 13 14  1  0
 14 15  1  0
 13 16  1  0
 16 17  1  0
 17 18  1  0
 17 19  1  0
 19 20  1  0
 20 21  1  0
  5 22  1  0
 22 23  2  0
 23  2  1  0
 15 10  1  0
 21 13  1  0
  1 24  1  0
  1 25  1  0
  1 26  1  0
  3 27  1  0
  4 28  1  0
  7 29  1  0
  7 30  1  0
 11 31  1  0
 11 32  1  0
 12 33  1  0
 12 34  1  0
 14 35  1  0
 14 36  1  0
 15 37  1  0
 15 38  1  0
 16 39  1  0
 16 40  1  0
 17 41  1  1
 18 42  1  0
 19 43  1  0
 19 44  1  0
 20 45  1  0
 20 46  1  0
 22 47  1  0
 23 48  1  0
M  END
>  <meeko>  (3) 
{"is_sidechain": [false], "free_energy": -8.382, "intermolecular_energy": -10.413, "internal_energy": -0.293}

$$$$
ligand_82_conformer_5_docked
     RDKit          3D

 48 50  0  0  0  0  0  0  0  0999 V2000
   10.6130   46.3510   52.2960 C   0  0  0  0  0  0  0  0  0  0  0  0
    9.1210   46.4760   52.4100 C   0  0  0  0  0  0  0  0  0  0  0  0
    8.3050   46.2730   51.2840 C   0  0  0  0  0  0  0  0  0  0  0  0
    6.9140   46.3680   51.3970 C   0  0  0  0  0  0  0  0  0  0  0  0
    6.3260   46.6470   52.6370 C   0  0  0  0  0  0  0  0  0  0  0  0
    4.5380   46.7680   52.7780 S   0  0  0  0  0  0  0  0  0  0  0  0
    4.2040   46.0120   51.1490 C   0  0  0  0  0  0  0  0  0  0  0  0
    3.8440   44.5600   51.2910 C   0  0  0  0  0  0  0  0  0  0  0  0
    4.6460   43.6840   50.8710 O   0  0  0  0  0  0  0  0  0  0  0  0
    2.6100   44.1530   51.9070 N   0  0  0  0  0  0  0  0  0  0  0  0
    2.6220   43.0370   52.8590 C   0  0  0  0  0  0  0  0  0  0  0  0
    1.2150   42.7450   53.3990 C   0  0  0  0  0  0  0  0  0  0  0  0
    0.4990   44.0180   53.9510 C   0  0  0  0  0  0  0  0  0  0  0  0
    0.7160   45.2420   52.9840 C   0  0  0  0  0  0  0  0  0  0  0  0
    1.3510   44.8600   51.6460 C   0  0  0  0  0  0  0  0  0  0  0  0
   -1.0180   43.6470   54.0810 C   0  0  0  0  0  0  0  0  0  0  0  0
   -1.8170   44.5760   55.0070 C   0  0  2  0  0  0  0  0  0  0  0  0
   -2.0930   45.7930   54.3630 O   0  0  0  0  0  0  0  0  0  0  0  0
   -1.0360   44.8160   56.2990 C   0  0  0  0  0  0  0  0  0  0  0  0
    0.3820   45.2680   55.9690 C   0  0  0  0  0  0  0  0  0  0  0  0
    1.0800   44.2790   55.2290 O   0  0  0  0  0  0  0  0  0  0  0  0
    7.1350   46.8390   53.7640 C   0  0  0  0  0  0  0  0  0  0  0  0
    8.5270   46.7410   53.6540 C   0  0  0  0  0  0  0  0  0  0  0  0
   11.0558   46.3139   53.3023 H   0  0  0  0  0  0  0  0  0  0  0  0
   10.8631   45.4288   51.7511 H   0  0  0  0  0  0  0  0  0  0  0  0
   11.0131   47.2188   51.7511 H   0  0  0  0  0  0  0  0  0  0  0  0
    8.7615   46.0387   50.3110 H   0  0  0  0  0  0  0  0  0  0  0  0
    6.2804   46.2232   50.5096 H   0  0  0  0  0  0  0  0  0  0  0  0
    3.3688   46.5442   50.6702 H   0  0  0  0  0  0  0  0  0  0  0  0
    5.1134   46.0884   50.5349 H   0  0  0  0  0  0  0  0  0  0  0  0
    3.0042   42.1386   52.3522 H   0  0  0  0  0  0  0  0  0  0  0  0
    3.2673   43.3122   53.7063 H   0  0  0  0  0  0  0  0  0  0  0  0
    0.6065   42.3257   52.5842 H   0  0  0  0  0  0  0  0  0  0  0  0
    1.3227   42.0385   54.2352 H   0  0  0  0  0  0  0  0  0  0  0  0
   -0.2615   45.7058   52.7853 H   0  0  0  0  0  0  0  0  0  0  0  0
    1.4114   45.9307   53.4862 H   0  0  0  0  0  0  0  0  0  0  0  0
    0.6678   44.2046   51.0859 H   0  0  0  0  0  0  0  0  0  0  0  0
    1.5458   45.7650   51.0519 H   0  0  0  0  0  0  0  0  0  0  0  0
   -1.4699   43.6871   53.0789 H   0  0  0  0  0  0  0  0  0  0  0  0
   -1.0603   42.6429   54.5282 H   0  0  0  0  0  0  0  0  0  0  0  0
   -2.7748   44.0954   55.2553 H   0  0  0  0  0  0  0  0  0  0  0  0
   -1.2280   46.2680   54.2580 H   0  0  0  0  0  0  0  0  0  0  0  0
   -1.5392   45.5950   56.8905 H   0  0  0  0  0  0  0  0  0  0  0  0
   -0.9939   43.8810   56.8769 H   0  0  0  0  0  0  0  0  0  0  0  0
    0.3341   46.1925   55.3749 H   0  0  0  0  0  0  0  0  0  0  0  0
    0.9201   45.4390   56.9130 H   0  0  0  0  0  0  0  0  0  0  0  0
    6.6758   47.0672   54.7372 H   0  0  0  0  0  0  0  0  0  0  0  0
    9.1577   46.8721   54.5456 H   0  0  0  0  0  0  0  0  0  0  0  0
  1  2  1  0
  2  3  2  0
  3  4  1  0
  4  5  2  0
  5  6  1  0
  6  7  1  0
  7  8  1  0
  8  9  2  0
  8 10  1  0
 10 11  1  0
 11 12  1  0
 12 13  1  0
 13 14  1  0
 14 15  1  0
 13 16  1  0
 16 17  1  0
 17 18  1  0
 17 19  1  0
 19 20  1  0
 20 21  1  0
  5 22  1  0
 22 23  2  0
 23  2  1  0
 15 10  1  0
 21 13  1  0
  1 24  1  0
  1 25  1  0
  1 26  1  0
  3 27  1  0
  4 28  1  0
  7 29  1  0
  7 30  1  0
 11 31  1  0
 11 32  1  0
 12 33  1  0
 12 34  1  0
 14 35  1  0
 14 36  1  0
 15 37  1  0
 15 38  1  0
 16 39  1  0
 16 40  1  0
 17 41  1  1
 18 42  1  0
 19 43  1  0
 19 44  1  0
 20 45  1  0
 20 46  1  0
 22 47  1  0
 23 48  1  0
M  END
>  <meeko>  (4) 
{"is_sidechain": [false], "free_energy": -7.755, "intermolecular_energy": -9.558, "internal_energy": -0.392}

$$$$
ligand_82_conformer_5_docked
     RDKit          3D

 48 50  0  0  0  0  0  0  0  0999 V2000
    7.3230   43.7290   49.2140 C   0  0  0  0  0  0  0  0  0  0  0  0
    6.7750   44.4760   50.3960 C   0  0  0  0  0  0  0  0  0  0  0  0
    5.7230   43.9310   51.1520 C   0  0  0  0  0  0  0  0  0  0  0  0
    5.2280   44.6170   52.2660 C   0  0  0  0  0  0  0  0  0  0  0  0
    5.7920   45.8410   52.6460 C   0  0  0  0  0  0  0  0  0  0  0  0
    5.1550   46.7190   54.0780 S   0  0  0  0  0  0  0  0  0  0  0  0
    3.4040   46.5870   53.5730 C   0  0  0  0  0  0  0  0  0  0  0  0
    2.6500   45.6550   54.4780 C   0  0  0  0  0  0  0  0  0  0  0  0
    2.9110   45.6490   55.7120 O   0  0  0  0  0  0  0  0  0  0  0  0
    1.6310   44.7780   53.9670 N   0  0  0  0  0  0  0  0  0  0  0  0
    0.3730   44.6370   54.7080 C   0  0  0  0  0  0  0  0  0  0  0  0
   -0.5800   43.6550   54.0140 C   0  0  0  0  0  0  0  0  0  0  0  0
   -0.7900   43.9770   52.5000 C   0  0  0  0  0  0  0  0  0  0  0  0
    0.5800   44.3400   51.8130 C   0  0  0  0  0  0  0  0  0  0  0  0
    1.7990   44.0650   52.6960 C   0  0  0  0  0  0  0  0  0  0  0  0
   -1.4340   42.6990   51.8640 C   0  0  0  0  0  0  0  0  0  0  0  0
   -2.1260   42.9460   50.5160 C   0  0  2  0  0  0  0  0  0  0  0  0
   -1.1750   43.0680   49.4900 O   0  0  0  0  0  0  0  0  0  0  0  0
   -2.9910   44.2040   50.6000 C   0  0  0  0  0  0  0  0  0  0  0  0
   -2.1630   45.3640   51.1440 C   0  0  0  0  0  0  0  0  0  0  0  0
   -1.6850   45.0880   52.4510 O   0  0  0  0  0  0  0  0  0  0  0  0
    6.8490   46.3810   51.9020 C   0  0  0  0  0  0  0  0  0  0  0  0
    7.3470   45.6960   50.7890 C   0  0  0  0  0  0  0  0  0  0  0  0
    7.9396   42.8885   49.5652 H   0  0  0  0  0  0  0  0  0  0  0  0
    6.4912   43.3444   48.6055 H   0  0  0  0  0  0  0  0  0  0  0  0
    7.9396   44.4069   48.6055 H   0  0  0  0  0  0  0  0  0  0  0  0
    5.2875   42.9620   50.8668 H   0  0  0  0  0  0  0  0  0  0  0  0
    4.3938   44.1939   52.8448 H   0  0  0  0  0  0  0  0  0  0  0  0
    2.9410   47.5838   53.6173 H   0  0  0  0  0  0  0  0  0  0  0  0
    3.3645   46.1881   52.5487 H   0  0  0  0  0  0  0  0  0  0  0  0
    0.5936   44.2665   55.7200 H   0  0  0  0  0  0  0  0  0  0  0  0
   -0.1157   45.6216   54.7499 H   0  0  0  0  0  0  0  0  0  0  0  0
   -0.1638   42.6406   54.1024 H   0  0  0  0  0  0  0  0  0  0  0  0
   -1.5590   43.7410   54.5081 H   0  0  0  0  0  0  0  0  0  0  0  0
    0.6759   43.7454   50.8925 H   0  0  0  0  0  0  0  0  0  0  0  0
    0.5640   45.4214   51.6123 H   0  0  0  0  0  0  0  0  0  0  0  0
    1.8820   42.9847   52.8860 H   0  0  0  0  0  0  0  0  0  0  0  0
    2.7128   44.4109   52.1908 H   0  0  0  0  0  0  0  0  0  0  0  0
   -0.6407   41.9522   51.7126 H   0  0  0  0  0  0  0  0  0  0  0  0
   -2.2136   42.3582   52.5612 H   0  0  0  0  0  0  0  0  0  0  0  0
   -2.7716   42.0862   50.2837 H   0  0  0  0  0  0  0  0  0  0  0  0
   -1.2590   43.9880   49.1240 H   0  0  0  0  0  0  0  0  0  0  0  0
   -3.3628   44.4594   49.5967 H   0  0  0  0  0  0  0  0  0  0  0  0
   -3.8407   44.0167   51.2731 H   0  0  0  0  0  0  0  0  0  0  0  0
   -1.3049   45.5353   50.4774 H   0  0  0  0  0  0  0  0  0  0  0  0
   -2.8043   46.2565   51.1902 H   0  0  0  0  0  0  0  0  0  0  0  0
    7.2884   47.3462   52.1939 H   0  0  0  0  0  0  0  0  0  0  0  0
    8.1899   46.1148   50.2196 H   0  0  0  0  0  0  0  0  0  0  0  0
  1  2  1  0
  2  3  2  0
  3  4  1  0
  4  5  2  0
  5  6  1  0
  6  7  1  0
  7  8  1  0
  8  9  2  0
  8 10  1  0
 10 11  1  0
 11 12  1  0
 12 13  1  0
 13 14  1  0
 14 15  1  0
 13 16  1  0
 16 17  1  0
 17 18  1  0
 17 19  1  0
 19 20  1  0
 20 21  1  0
  5 22  1  0
 22 23  2  0
 23  2  1  0
 15 10  1  0
 21 13  1  0
  1 24  1  0
  1 25  1  0
  1 26  1  0
  3 27  1  0
  4 28  1  0
  7 29  1  0
  7 30  1  0
 11 31  1  0
 11 32  1  0
 12 33  1  0
 12 34  1  0
 14 35  1  0
 14 36  1  0
 15 37  1  0
 15 38  1  0
 16 39  1  0
 16 40  1  0
 17 41  1  6
 18 42  1  0
 19 43  1  0
 19 44  1  0
 20 45  1  0
 20 46  1  0
 22 47  1  0
 23 48  1  0
M  END
>  <meeko>  (5) 
{"is_sidechain": [false], "free_energy": -7.02, "intermolecular_energy": -8.773, "internal_energy": -0.292}

$$$$
