ligand_16_conformer_5_docked
     RDKit          3D

 43 45  0  0  0  0  0  0  0  0999 V2000
    0.4340   45.7180   52.4040 O   0  0  0  0  0  0  0  0  0  0  0  0
    1.3680   45.0970   52.9830 C   0  0  0  0  0  0  0  0  0  0  0  0
    1.0740   44.2710   54.1220 N   0  0  0  0  0  0  0  0  0  0  0  0
   -0.0910   44.4360   54.9490 C   0  0  0  0  0  0  0  0  0  0  0  0
   -1.2640   43.7370   54.6310 C   0  0  0  0  0  0  0  0  0  0  0  0
   -2.4010   43.8680   55.4290 C   0  0  0  0  0  0  0  0  0  0  0  0
   -2.3740   44.6870   56.5600 C   0  0  0  0  0  0  0  0  0  0  0  0
   -1.2080   45.3740   56.9120 C   0  0  0  0  0  0  0  0  0  0  0  0
   -1.2360   46.1720   58.0680 O   0  0  0  0  0  0  0  0  0  0  0  0
   -0.6970   47.4900   58.1830 C   0  0  0  0  0  0  0  0  0  0  0  0
    0.4590   47.5190   59.1790 C   0  0  0  0  0  0  0  0  0  0  0  0
    1.4700   46.6770   58.7530 F   0  0  0  0  0  0  0  0  0  0  0  0
   -0.0620   45.2440   56.1020 C   0  0  0  0  0  0  0  0  0  0  0  0
    2.7490   45.1920   52.4470 C   0  0  0  0  0  0  0  0  0  0  0  0
    3.7660   44.3410   52.9150 C   0  0  0  0  0  0  0  0  0  0  0  0
    5.0660   44.4440   52.4100 C   0  0  0  0  0  0  0  0  0  0  0  0
    5.3780   45.4130   51.4420 C   0  0  0  0  0  0  0  0  0  0  0  0
    6.7020   45.5220   50.8900 N   0  0  0  0  0  0  0  0  0  0  0  0
    7.8280   46.0650   51.5940 C   0  0  0  0  0  0  0  0  0  0  0  0
    9.0980   45.6920   51.2740 N   0  0  0  0  0  0  0  0  0  0  0  0
   10.1660   46.1810   51.9570 C   0  0  0  0  0  0  0  0  0  0  0  0
    9.9680   47.0730   53.0090 C   0  0  0  0  0  0  0  0  0  0  0  0
    8.6630   47.4360   53.3340 C   0  0  0  0  0  0  0  0  0  0  0  0
    7.6210   46.9250   52.6280 N   0  0  0  0  0  0  0  0  0  0  0  0
    4.3630   46.2510   50.9640 C   0  0  0  0  0  0  0  0  0  0  0  0
    3.0640   46.1520   51.4700 C   0  0  0  0  0  0  0  0  0  0  0  0
    1.6790   43.4350   54.2910 H   0  0  0  0  0  0  0  0  0  0  0  0
   -1.2880   43.0818   53.7477 H   0  0  0  0  0  0  0  0  0  0  0  0
   -3.3209   43.3249   55.1667 H   0  0  0  0  0  0  0  0  0  0  0  0
   -3.2773   44.7925   57.1789 H   0  0  0  0  0  0  0  0  0  0  0  0
   -0.3325   47.8175   57.1982 H   0  0  0  0  0  0  0  0  0  0  0  0
   -1.4885   48.1640   58.5425 H   0  0  0  0  0  0  0  0  0  0  0  0
    0.8477   48.5451   59.2566 H   0  0  0  0  0  0  0  0  0  0  0  0
    0.0980   47.1822   60.1620 H   0  0  0  0  0  0  0  0  0  0  0  0
    0.8613   45.7773   56.3723 H   0  0  0  0  0  0  0  0  0  0  0  0
    3.5372   43.5886   53.6841 H   0  0  0  0  0  0  0  0  0  0  0  0
    5.8491   43.7621   52.7730 H   0  0  0  0  0  0  0  0  0  0  0  0
    6.8390   45.2650   49.8860 H   0  0  0  0  0  0  0  0  0  0  0  0
   11.1851   45.8733   51.6799 H   0  0  0  0  0  0  0  0  0  0  0  0
   10.8220   47.4809   53.5696 H   0  0  0  0  0  0  0  0  0  0  0  0
    8.4764   48.1360   54.1618 H   0  0  0  0  0  0  0  0  0  0  0  0
    4.5899   46.9929   50.1842 H   0  0  0  0  0  0  0  0  0  0  0  0
    2.2815   46.8311   51.1005 H   0  0  0  0  0  0  0  0  0  0  0  0
  1  2  2  0
  2  3  1  0
  3  4  1  0
  4  5  2  0
  5  6  1  0
  6  7  2  0
  7  8  1  0
  8  9  1  0
  9 10  1  0
 10 11  1  0
 11 12  1  0
  8 13  2  0
  2 14  1  0
 14 15  2  0
 15 16  1  0
 16 17  2  0
 17 18  1  0
 18 19  1  0
 19 20  2  0
 20 21  1  0
 21 22  2  0
 22 23  1  0
 23 24  2  0
 17 25  1  0
 25 26  2  0
 13  4  1  0
 26 14  1  0
 24 19  1  0
  3 27  1  0
  5 28  1  0
  6 29  1  0
  7 30  1  0
 10 31  1  0
 10 32  1  0
 11 33  1  0
 11 34  1  0
 13 35  1  0
 15 36  1  0
 16 37  1  0
 18 38  1  0
 21 39  1  0
 22 40  1  0
 23 41  1  0
 25 42  1  0
 26 43  1  0
M  END
>  <meeko>  (1) 
{"is_sidechain": [false], "free_energy": -7.707, "intermolecular_energy": -10.86, "internal_energy": -0.777}

$$$$
ligand_16_conformer_5_docked
     RDKit          3D

 43 45  0  0  0  0  0  0  0  0999 V2000
    3.9220   43.2810   52.7700 O   0  0  0  0  0  0  0  0  0  0  0  0
    3.5080   44.4540   52.9810 C   0  0  0  0  0  0  0  0  0  0  0  0
    4.0950   45.5550   52.2670 N   0  0  0  0  0  0  0  0  0  0  0  0
    5.4080   45.5170   51.6800 C   0  0  0  0  0  0  0  0  0  0  0  0
    5.6520   44.6580   50.5990 C   0  0  0  0  0  0  0  0  0  0  0  0
    6.9140   44.6170   50.0020 C   0  0  0  0  0  0  0  0  0  0  0  0
    7.9380   45.4430   50.4690 C   0  0  0  0  0  0  0  0  0  0  0  0
    7.7100   46.3270   51.5290 C   0  0  0  0  0  0  0  0  0  0  0  0
    8.7750   47.1430   51.9460 O   0  0  0  0  0  0  0  0  0  0  0  0
    9.9400   46.7000   52.6440 C   0  0  0  0  0  0  0  0  0  0  0  0
    9.9220   47.1810   54.0920 C   0  0  0  0  0  0  0  0  0  0  0  0
    9.1500   48.3220   54.2010 F   0  0  0  0  0  0  0  0  0  0  0  0
    6.4380   46.3630   52.1330 C   0  0  0  0  0  0  0  0  0  0  0  0
    2.3870   44.6730   53.9280 C   0  0  0  0  0  0  0  0  0  0  0  0
    1.0670   44.3330   53.5790 C   0  0  0  0  0  0  0  0  0  0  0  0
    0.0170   44.5510   54.4750 C   0  0  0  0  0  0  0  0  0  0  0  0
    0.2620   45.1320   55.7310 C   0  0  0  0  0  0  0  0  0  0  0  0
   -0.7980   45.3430   56.6790 N   0  0  0  0  0  0  0  0  0  0  0  0
   -0.9370   46.5210   57.4860 C   0  0  0  0  0  0  0  0  0  0  0  0
   -0.0630   46.7810   58.4970 N   0  0  0  0  0  0  0  0  0  0  0  0
   -0.2060   47.8810   59.2830 C   0  0  0  0  0  0  0  0  0  0  0  0
   -1.2680   48.7570   59.0640 C   0  0  0  0  0  0  0  0  0  0  0  0
   -2.1620   48.4710   58.0350 C   0  0  0  0  0  0  0  0  0  0  0  0
   -1.9840   47.3620   57.2710 N   0  0  0  0  0  0  0  0  0  0  0  0
    1.5770   45.4570   56.0870 C   0  0  0  0  0  0  0  0  0  0  0  0
    2.6290   45.2420   55.1900 C   0  0  0  0  0  0  0  0  0  0  0  0
    3.4940   46.3860   52.0650 H   0  0  0  0  0  0  0  0  0  0  0  0
    4.8456   44.0133   50.2193 H   0  0  0  0  0  0  0  0  0  0  0  0
    7.1015   43.9322   49.1618 H   0  0  0  0  0  0  0  0  0  0  0  0
    8.9319   45.3984   49.9998 H   0  0  0  0  0  0  0  0  0  0  0  0
    9.9722   45.6006   52.6299 H   0  0  0  0  0  0  0  0  0  0  0  0
   10.8281   47.1163   52.1460 H   0  0  0  0  0  0  0  0  0  0  0  0
    9.4997   46.3928   54.7326 H   0  0  0  0  0  0  0  0  0  0  0  0
   10.9502   47.4087   54.4099 H   0  0  0  0  0  0  0  0  0  0  0  0
    6.2481   47.0573   52.9648 H   0  0  0  0  0  0  0  0  0  0  0  0
    0.8599   43.8920   52.5928 H   0  0  0  0  0  0  0  0  0  0  0  0
   -1.0080   44.2660   54.1954 H   0  0  0  0  0  0  0  0  0  0  0  0
   -1.4660   44.5580   56.8540 H   0  0  0  0  0  0  0  0  0  0  0  0
    0.5147   48.0793   60.0900 H   0  0  0  0  0  0  0  0  0  0  0  0
   -1.3969   49.6529   59.6891 H   0  0  0  0  0  0  0  0  0  0  0  0
   -3.0114   49.1425   57.8412 H   0  0  0  0  0  0  0  0  0  0  0  0
    1.7842   45.8844   57.0791 H   0  0  0  0  0  0  0  0  0  0  0  0
    3.6542   45.5207   55.4750 H   0  0  0  0  0  0  0  0  0  0  0  0
  1  2  2  0
  2  3  1  0
  3  4  1  0
  4  5  2  0
  5  6  1  0
  6  7  2  0
  7  8  1  0
  8  9  1  0
  9 10  1  0
 10 11  1  0
 11 12  1  0
  8 13  2  0
  2 14  1  0
 14 15  2  0
 15 16  1  0
 16 17  2  0
 17 18  1  0
 18 19  1  0
 19 20  2  0
 20 21  1  0
 21 22  2  0
 22 23  1  0
 23 24  2  0
 17 25  1  0
 25 26  2  0
 13  4  1  0
 26 14  1  0
 24 19  1  0
  3 27  1  0
  5 28  1  0
  6 29  1  0
  7 30  1  0
 10 31  1  0
 10 32  1  0
 11 33  1  0
 11 34  1  0
 13 35  1  0
 15 36  1  0
 16 37  1  0
 18 38  1  0
 21 39  1  0
 22 40  1  0
 23 41  1  0
 25 42  1  0
 26 43  1  0
M  END
>  <meeko>  (2) 
{"is_sidechain": [false], "free_energy": -7.607, "intermolecular_energy": -11.232, "internal_energy": -0.265}

$$$$
ligand_16_conformer_5_docked
     RDKit          3D

 43 45  0  0  0  0  0  0  0  0999 V2000
    6.2240   40.8170   49.0590 O   0  0  0  0  0  0  0  0  0  0  0  0
    5.2620   41.5790   49.3530 C   0  0  0  0  0  0  0  0  0  0  0  0
    3.9270   41.2250   48.9550 N   0  0  0  0  0  0  0  0  0  0  0  0
    3.6280   40.3320   47.8680 C   0  0  0  0  0  0  0  0  0  0  0  0
    3.0980   39.0640   48.1450 C   0  0  0  0  0  0  0  0  0  0  0  0
    2.7840   38.1870   47.1060 C   0  0  0  0  0  0  0  0  0  0  0  0
    2.9820   38.5730   45.7790 C   0  0  0  0  0  0  0  0  0  0  0  0
    3.4850   39.8430   45.4760 C   0  0  0  0  0  0  0  0  0  0  0  0
    3.6510   40.1800   44.1220 O   0  0  0  0  0  0  0  0  0  0  0  0
    4.4300   39.4510   43.1710 C   0  0  0  0  0  0  0  0  0  0  0  0
    5.7660   40.1420   42.9190 C   0  0  0  0  0  0  0  0  0  0  0  0
    5.7880   41.3720   43.5510 F   0  0  0  0  0  0  0  0  0  0  0  0
    3.8060   40.7240   46.5270 C   0  0  0  0  0  0  0  0  0  0  0  0
    5.5200   42.8060   50.1470 C   0  0  0  0  0  0  0  0  0  0  0  0
    4.7640   43.0940   51.2970 C   0  0  0  0  0  0  0  0  0  0  0  0
    5.0090   44.2570   52.0340 C   0  0  0  0  0  0  0  0  0  0  0  0
    6.0000   45.1640   51.6230 C   0  0  0  0  0  0  0  0  0  0  0  0
    6.2860   46.3540   52.3780 N   0  0  0  0  0  0  0  0  0  0  0  0
    7.5790   46.6840   52.9050 C   0  0  0  0  0  0  0  0  0  0  0  0
    8.7130   46.3940   52.2080 N   0  0  0  0  0  0  0  0  0  0  0  0
    9.9410   46.6780   52.7150 C   0  0  0  0  0  0  0  0  0  0  0  0
   10.0540   47.2660   53.9730 C   0  0  0  0  0  0  0  0  0  0  0  0
    8.8870   47.5440   54.6820 C   0  0  0  0  0  0  0  0  0  0  0  0
    7.6770   47.2450   54.1400 N   0  0  0  0  0  0  0  0  0  0  0  0
    6.7640   44.8710   50.4860 C   0  0  0  0  0  0  0  0  0  0  0  0
    6.5190   43.7100   49.7470 C   0  0  0  0  0  0  0  0  0  0  0  0
    3.1350   41.5420   49.5580 H   0  0  0  0  0  0  0  0  0  0  0  0
    2.9286   38.7585   49.1880 H   0  0  0  0  0  0  0  0  0  0  0  0
    2.3797   37.1895   47.3330 H   0  0  0  0  0  0  0  0  0  0  0  0
    2.7407   37.8732   44.9653 H   0  0  0  0  0  0  0  0  0  0  0  0
    4.6156   38.4382   43.5579 H   0  0  0  0  0  0  0  0  0  0  0  0
    3.8740   39.4038   42.2230 H   0  0  0  0  0  0  0  0  0  0  0  0
    6.5802   39.5156   43.3123 H   0  0  0  0  0  0  0  0  0  0  0  0
    5.8984   40.2891   41.8370 H   0  0  0  0  0  0  0  0  0  0  0  0
    4.1987   41.7258   46.2987 H   0  0  0  0  0  0  0  0  0  0  0  0
    3.9742   42.3995   51.6193 H   0  0  0  0  0  0  0  0  0  0  0  0
    4.4221   44.4629   52.9412 H   0  0  0  0  0  0  0  0  0  0  0  0
    5.4890   46.9810   52.6310 H   0  0  0  0  0  0  0  0  0  0  0  0
   10.8447   46.4441   52.1331 H   0  0  0  0  0  0  0  0  0  0  0  0
   11.0407   47.5051   54.3964 H   0  0  0  0  0  0  0  0  0  0  0  0
    8.9450   48.0049   55.6791 H   0  0  0  0  0  0  0  0  0  0  0  0
    7.5625   45.5595   50.1724 H   0  0  0  0  0  0  0  0  0  0  0  0
    7.1131   43.5022   48.8448 H   0  0  0  0  0  0  0  0  0  0  0  0
  1  2  2  0
  2  3  1  0
  3  4  1  0
  4  5  2  0
  5  6  1  0
  6  7  2  0
  7  8  1  0
  8  9  1  0
  9 10  1  0
 10 11  1  0
 11 12  1  0
  8 13  2  0
  2 14  1  0
 14 15  2  0
 15 16  1  0
 16 17  2  0
 17 18  1  0
 18 19  1  0
 19 20  2  0
 20 21  1  0
 21 22  2  0
 22 23  1  0
 23 24  2  0
 17 25  1  0
 25 26  2  0
 13  4  1  0
 26 14  1  0
 24 19  1  0
  3 27  1  0
  5 28  1  0
  6 29  1  0
  7 30  1  0
 10 31  1  0
 10 32  1  0
 11 33  1  0
 11 34  1  0
 13 35  1  0
 15 36  1  0
 16 37  1  0
 18 38  1  0
 21 39  1  0
 22 40  1  0
 23 41  1  0
 25 42  1  0
 26 43  1  0
M  END
>  <meeko>  (3) 
{"is_sidechain": [false], "free_energy": -7.498, "intermolecular_energy": -10.979, "internal_energy": -0.365}

$$$$
ligand_16_conformer_5_docked
     RDKit          3D

 43 45  0  0  0  0  0  0  0  0999 V2000
    4.7500   44.1290   53.5730 O   0  0  0  0  0  0  0  0  0  0  0  0
    3.8940   43.8250   52.6970 C   0  0  0  0  0  0  0  0  0  0  0  0
    4.3280   43.4490   51.3790 N   0  0  0  0  0  0  0  0  0  0  0  0
    5.5990   43.8210   50.8200 C   0  0  0  0  0  0  0  0  0  0  0  0
    6.2250   42.9650   49.9040 C   0  0  0  0  0  0  0  0  0  0  0  0
    7.4510   43.3140   49.3350 C   0  0  0  0  0  0  0  0  0  0  0  0
    8.0570   44.5280   49.6650 C   0  0  0  0  0  0  0  0  0  0  0  0
    7.4390   45.4120   50.5560 C   0  0  0  0  0  0  0  0  0  0  0  0
    8.0890   46.6250   50.8390 O   0  0  0  0  0  0  0  0  0  0  0  0
    8.4710   47.0810   52.1380 C   0  0  0  0  0  0  0  0  0  0  0  0
    9.9020   46.6630   52.4620 C   0  0  0  0  0  0  0  0  0  0  0  0
   10.2910   47.2120   53.6700 F   0  0  0  0  0  0  0  0  0  0  0  0
    6.2030   45.0540   51.1330 C   0  0  0  0  0  0  0  0  0  0  0  0
    2.4540   43.8140   53.0560 C   0  0  0  0  0  0  0  0  0  0  0  0
    1.8930   44.8490   53.8240 C   0  0  0  0  0  0  0  0  0  0  0  0
    0.5370   44.8260   54.1650 C   0  0  0  0  0  0  0  0  0  0  0  0
   -0.2790   43.7560   53.7610 C   0  0  0  0  0  0  0  0  0  0  0  0
   -1.6820   43.7210   54.0780 N   0  0  0  0  0  0  0  0  0  0  0  0
   -2.2240   44.0180   55.3730 C   0  0  0  0  0  0  0  0  0  0  0  0
   -2.5350   45.2960   55.7240 N   0  0  0  0  0  0  0  0  0  0  0  0
   -3.0220   45.5870   56.9590 C   0  0  0  0  0  0  0  0  0  0  0  0
   -3.2000   44.5670   57.8920 C   0  0  0  0  0  0  0  0  0  0  0  0
   -2.8640   43.2660   57.5240 C   0  0  0  0  0  0  0  0  0  0  0  0
   -2.3810   43.0160   56.2800 N   0  0  0  0  0  0  0  0  0  0  0  0
    0.2750   42.7310   52.9840 C   0  0  0  0  0  0  0  0  0  0  0  0
    1.6310   42.7510   52.6440 C   0  0  0  0  0  0  0  0  0  0  0  0
    3.7370   42.7740   50.8420 H   0  0  0  0  0  0  0  0  0  0  0  0
    5.7474   42.0122   49.6317 H   0  0  0  0  0  0  0  0  0  0  0  0
    7.9408   42.6312   48.6251 H   0  0  0  0  0  0  0  0  0  0  0  0
    9.0282   44.7914   49.2208 H   0  0  0  0  0  0  0  0  0  0  0  0
    8.4002   48.1783   52.1699 H   0  0  0  0  0  0  0  0  0  0  0  0
    7.7963   46.6310   52.8812 H   0  0  0  0  0  0  0  0  0  0  0  0
    9.9560   45.5662   52.5257 H   0  0  0  0  0  0  0  0  0  0  0  0
   10.5728   47.0230   51.6680 H   0  0  0  0  0  0  0  0  0  0  0  0
    5.7071   45.7429   51.8326 H   0  0  0  0  0  0  0  0  0  0  0  0
    2.5258   45.6839   54.1595 H   0  0  0  0  0  0  0  0  0  0  0  0
    0.1068   45.6503   54.7528 H   0  0  0  0  0  0  0  0  0  0  0  0
   -2.3440   43.3810   53.3450 H   0  0  0  0  0  0  0  0  0  0  0  0
   -3.2750   46.6248   57.2215 H   0  0  0  0  0  0  0  0  0  0  0  0
   -3.5963   44.7840   58.8949 H   0  0  0  0  0  0  0  0  0  0  0  0
   -2.9900   42.4415   58.2412 H   0  0  0  0  0  0  0  0  0  0  0  0
   -0.3619   41.9034   52.6384 H   0  0  0  0  0  0  0  0  0  0  0  0
    2.0571   41.9292   52.0499 H   0  0  0  0  0  0  0  0  0  0  0  0
  1  2  2  0
  2  3  1  0
  3  4  1  0
  4  5  2  0
  5  6  1  0
  6  7  2  0
  7  8  1  0
  8  9  1  0
  9 10  1  0
 10 11  1  0
 11 12  1  0
  8 13  2  0
  2 14  1  0
 14 15  2  0
 15 16  1  0
 16 17  2  0
 17 18  1  0
 18 19  1  0
 19 20  2  0
 20 21  1  0
 21 22  2  0
 22 23  1  0
 23 24  2  0
 17 25  1  0
 25 26  2  0
 13  4  1  0
 26 14  1  0
 24 19  1  0
  3 27  1  0
  5 28  1  0
  6 29  1  0
  7 30  1  0
 10 31  1  0
 10 32  1  0
 11 33  1  0
 11 34  1  0
 13 35  1  0
 15 36  1  0
 16 37  1  0
 18 38  1  0
 21 39  1  0
 22 40  1  0
 23 41  1  0
 25 42  1  0
 26 43  1  0
M  END
>  <meeko>  (4) 
{"is_sidechain": [false], "free_energy": -7.392, "intermolecular_energy": -10.915, "internal_energy": -0.28}

$$$$
ligand_16_conformer_5_docked
     RDKit          3D

 43 45  0  0  0  0  0  0  0  0999 V2000
    4.8880   48.0410   53.5580 O   0  0  0  0  0  0  0  0  0  0  0  0
    4.7890   46.8230   53.8690 C   0  0  0  0  0  0  0  0  0  0  0  0
    5.9720   46.0740   54.1950 N   0  0  0  0  0  0  0  0  0  0  0  0
    7.2940   46.4400   53.7640 C   0  0  0  0  0  0  0  0  0  0  0  0
    8.1080   47.2020   54.6130 C   0  0  0  0  0  0  0  0  0  0  0  0
    9.4010   47.5540   54.2230 C   0  0  0  0  0  0  0  0  0  0  0  0
    9.8980   47.1370   52.9860 C   0  0  0  0  0  0  0  0  0  0  0  0
    9.1140   46.3540   52.1330 C   0  0  0  0  0  0  0  0  0  0  0  0
    9.6730   45.9530   50.9080 O   0  0  0  0  0  0  0  0  0  0  0  0
    9.5870   44.6440   50.3420 C   0  0  0  0  0  0  0  0  0  0  0  0
    8.2580   44.4500   49.6190 C   0  0  0  0  0  0  0  0  0  0  0  0
    8.4380   43.6490   48.5060 F   0  0  0  0  0  0  0  0  0  0  0  0
    7.8070   46.0040   52.5280 C   0  0  0  0  0  0  0  0  0  0  0  0
    3.4460   46.1950   53.9400 C   0  0  0  0  0  0  0  0  0  0  0  0
    2.5220   46.3430   52.8900 C   0  0  0  0  0  0  0  0  0  0  0  0
    1.2560   45.7540   52.9700 C   0  0  0  0  0  0  0  0  0  0  0  0
    0.8830   45.0230   54.1110 C   0  0  0  0  0  0  0  0  0  0  0  0
   -0.4040   44.3880   54.2060 N   0  0  0  0  0  0  0  0  0  0  0  0
   -1.2700   44.4860   55.3450 C   0  0  0  0  0  0  0  0  0  0  0  0
   -1.3420   45.6360   56.0710 N   0  0  0  0  0  0  0  0  0  0  0  0
   -2.1380   45.7250   57.1690 C   0  0  0  0  0  0  0  0  0  0  0  0
   -2.8910   44.6230   57.5710 C   0  0  0  0  0  0  0  0  0  0  0  0
   -2.7980   43.4480   56.8260 C   0  0  0  0  0  0  0  0  0  0  0  0
   -1.9900   43.4000   55.7360 N   0  0  0  0  0  0  0  0  0  0  0  0
    1.8070   44.8620   55.1510 C   0  0  0  0  0  0  0  0  0  0  0  0
    3.0720   45.4520   55.0730 C   0  0  0  0  0  0  0  0  0  0  0  0
    5.8810   45.2860   54.8770 H   0  0  0  0  0  0  0  0  0  0  0  0
    7.7255   47.5246   55.5926 H   0  0  0  0  0  0  0  0  0  0  0  0
   10.0298   48.1609   54.8910 H   0  0  0  0  0  0  0  0  0  0  0  0
   10.9142   47.4269   52.6804 H   0  0  0  0  0  0  0  0  0  0  0  0
   10.4102   44.5066   49.6255 H   0  0  0  0  0  0  0  0  0  0  0  0
    9.6568   43.9048   51.1536 H   0  0  0  0  0  0  0  0  0  0  0  0
    7.5392   43.9711   50.3001 H   0  0  0  0  0  0  0  0  0  0  0  0
    7.8736   45.4302   49.3004 H   0  0  0  0  0  0  0  0  0  0  0  0
    7.1835   45.3857   51.8655 H   0  0  0  0  0  0  0  0  0  0  0  0
    2.7972   46.9265   51.9990 H   0  0  0  0  0  0  0  0  0  0  0  0
    0.5482   45.8635   52.1351 H   0  0  0  0  0  0  0  0  0  0  0  0
   -0.6950   43.7480   53.4320 H   0  0  0  0  0  0  0  0  0  0  0  0
   -2.1879   46.6644   57.7391 H   0  0  0  0  0  0  0  0  0  0  0  0
   -3.5432   44.6790   58.4550 H   0  0  0  0  0  0  0  0  0  0  0  0
   -3.3784   42.5613   57.1210 H   0  0  0  0  0  0  0  0  0  0  0  0
    1.5355   44.2671   56.0355 H   0  0  0  0  0  0  0  0  0  0  0  0
    3.7809   45.3337   55.9057 H   0  0  0  0  0  0  0  0  0  0  0  0
  1  2  2  0
  2  3  1  0
  3  4  1  0
  4  5  2  0
  5  6  1  0
  6  7  2  0
  7  8  1  0
  8  9  1  0
  9 10  1  0
 10 11  1  0
 11 12  1  0
  8 13  2  0
  2 14  1  0
 14 15  2  0
 15 16  1  0
 16 17  2  0
 17 18  1  0
 18 19  1  0
 19 20  2  0
 20 21  1  0
 21 22  2  0
 22 23  1  0
 23 24  2  0
 17 25  1  0
 25 26  2  0
 13  4  1  0
 26 14  1  0
 24 19  1  0
  3 27  1  0
  5 28  1  0
  6 29  1  0
  7 30  1  0
 10 31  1  0
 10 32  1  0
 11 33  1  0
 11 34  1  0
 13 35  1  0
 15 36  1  0
 16 37  1  0
 18 38  1  0
 21 39  1  0
 22 40  1  0
 23 41  1  0
 25 42  1  0
 26 43  1  0
M  END
>  <meeko>  (5) 
{"is_sidechain": [false], "free_energy": -7.265, "intermolecular_energy": -10.63, "internal_energy": -0.384}

$$$$
