ligand_95_conformer_5_docked
     RDKit          3D

 30 32  0  0  0  0  0  0  0  0999 V2000
    5.3540   43.1420   50.8540 N   0  0  0  0  0  0  0  0  0  0  0  0
    4.4560   43.7550   51.2500 C   0  0  0  0  0  0  0  0  0  0  0  0
    3.3390   44.5170   51.7420 C   0  0  0  0  0  0  0  0  0  0  0  0
    2.0250   44.2980   51.3070 C   0  0  0  0  0  0  0  0  0  0  0  0
    1.0940   45.1310   51.9160 C   0  0  0  0  0  0  0  0  0  0  0  0
    1.9060   46.1350   52.9960 S   0  0  0  0  0  0  0  0  0  0  0  0
    3.4430   45.5260   52.6930 C   0  0  0  0  0  0  0  0  0  0  0  0
    4.9110   46.0840   53.4850 S   0  0  0  0  0  0  0  0  0  0  0  0
    5.6370   44.9350   54.1280 O   0  0  0  0  0  0  0  0  0  0  0  0
    4.5390   47.0850   54.5420 O   0  0  0  0  0  0  0  0  0  0  0  0
    5.9590   46.8420   52.3280 N   0  0  0  0  0  0  0  0  0  0  0  0
    7.3970   46.7630   52.3740 C   0  0  0  0  0  0  0  0  0  0  0  0
    8.1560   47.4750   53.3330 C   0  0  0  0  0  0  0  0  0  0  0  0
    9.5600   47.3780   53.3550 C   0  0  0  0  0  0  0  0  0  0  0  0
   10.2330   46.5750   52.4250 C   0  0  0  0  0  0  0  0  0  0  0  0
    9.4820   45.8780   51.4820 C   0  0  0  0  0  0  0  0  0  0  0  0
    8.1020   45.9690   51.4540 C   0  0  0  0  0  0  0  0  0  0  0  0
    7.5560   45.1630   50.4200 N   0  0  0  0  0  0  0  0  0  0  0  0
    8.6810   44.5570   49.7950 C   0  0  0  0  0  0  0  0  0  0  0  0
    8.5770   43.7620   48.8240 O   0  0  0  0  0  0  0  0  0  0  0  0
    9.9830   44.9630   50.4130 C   0  0  0  0  0  0  0  0  0  0  0  0
    1.7565   43.5402   50.5563 H   0  0  0  0  0  0  0  0  0  0  0  0
    0.0107   45.1338   51.7248 H   0  0  0  0  0  0  0  0  0  0  0  0
    5.4930   47.3500   51.5470 H   0  0  0  0  0  0  0  0  0  0  0  0
    7.6431   48.1112   54.0693 H   0  0  0  0  0  0  0  0  0  0  0  0
   10.1336   47.9374   54.1087 H   0  0  0  0  0  0  0  0  0  0  0  0
   11.3301   46.4968   52.4394 H   0  0  0  0  0  0  0  0  0  0  0  0
    6.5540   45.0110   50.1730 H   0  0  0  0  0  0  0  0  0  0  0  0
   10.5233   44.1014   50.8320 H   0  0  0  0  0  0  0  0  0  0  0  0
   10.7081   45.4119   49.7182 H   0  0  0  0  0  0  0  0  0  0  0  0
  1  2  3  0
  2  3  1  0
  3  4  1  0
  4  5  2  0
  5  6  1  0
  6  7  1  0
  7  8  1  0
  8  9  2  0
  8 10  2  0
  8 11  1  0
 11 12  1  0
 12 13  2  0
 13 14  1  0
 14 15  2  0
 15 16  1  0
 16 17  2  0
 17 18  1  0
 18 19  1  0
 19 20  2  0
 19 21  1  0
  7  3  2  0
 17 12  1  0
 21 16  1  0
  4 22  1  0
  5 23  1  0
 11 24  1  0
 13 25  1  0
 14 26  1  0
 15 27  1  0
 18 28  1  0
 21 29  1  0
 21 30  1  0
M  END
>  <meeko>  (1) 
{"is_sidechain": [false], "free_energy": -8.43, "intermolecular_energy": -9.908, "internal_energy": -0.805}

$$$$
ligand_95_conformer_5_docked
     RDKit          3D

 30 32  0  0  0  0  0  0  0  0999 V2000
    9.0130   48.2960   55.3600 N   0  0  0  0  0  0  0  0  0  0  0  0
    9.0450   47.6980   54.3700 C   0  0  0  0  0  0  0  0  0  0  0  0
    9.0870   46.9550   53.1380 C   0  0  0  0  0  0  0  0  0  0  0  0
   10.2820   46.6860   52.4580 C   0  0  0  0  0  0  0  0  0  0  0  0
   10.1040   45.9420   51.2970 C   0  0  0  0  0  0  0  0  0  0  0  0
    8.4610   45.6190   51.1210 S   0  0  0  0  0  0  0  0  0  0  0  0
    7.9650   46.4250   52.5100 C   0  0  0  0  0  0  0  0  0  0  0  0
    6.2970   46.5370   53.0570 S   0  0  0  0  0  0  0  0  0  0  0  0
    5.9550   47.9520   53.4320 O   0  0  0  0  0  0  0  0  0  0  0  0
    6.1230   45.6530   54.2590 O   0  0  0  0  0  0  0  0  0  0  0  0
    5.2230   46.0050   51.8020 N   0  0  0  0  0  0  0  0  0  0  0  0
    4.3100   44.9000   51.9420 C   0  0  0  0  0  0  0  0  0  0  0  0
    3.0840   45.0250   52.6390 C   0  0  0  0  0  0  0  0  0  0  0  0
    2.2100   43.9280   52.7590 C   0  0  0  0  0  0  0  0  0  0  0  0
    2.5390   42.6900   52.1930 C   0  0  0  0  0  0  0  0  0  0  0  0
    3.7470   42.5710   51.5110 C   0  0  0  0  0  0  0  0  0  0  0  0
    4.6110   43.6440   51.3880 C   0  0  0  0  0  0  0  0  0  0  0  0
    5.7660   43.2900   50.6420 N   0  0  0  0  0  0  0  0  0  0  0  0
    5.5780   41.9220   50.3010 C   0  0  0  0  0  0  0  0  0  0  0  0
    6.4130   41.2640   49.6260 O   0  0  0  0  0  0  0  0  0  0  0  0
    4.2920   41.3610   50.8250 C   0  0  0  0  0  0  0  0  0  0  0  0
   11.2661   47.0302   52.8088 H   0  0  0  0  0  0  0  0  0  0  0  0
   10.9007   45.6194   50.6106 H   0  0  0  0  0  0  0  0  0  0  0  0
    5.2380   46.5570   50.9180 H   0  0  0  0  0  0  0  0  0  0  0  0
    2.8115   45.9898   53.0917 H   0  0  0  0  0  0  0  0  0  0  0  0
    1.2605   44.0442   53.3020 H   0  0  0  0  0  0  0  0  0  0  0  0
    1.8583   41.8309   52.2852 H   0  0  0  0  0  0  0  0  0  0  0  0
    6.5740   43.8910   50.3670 H   0  0  0  0  0  0  0  0  0  0  0  0
    3.6334   41.0200   50.0126 H   0  0  0  0  0  0  0  0  0  0  0  0
    4.3986   40.4723   51.4644 H   0  0  0  0  0  0  0  0  0  0  0  0
  1  2  3  0
  2  3  1  0
  3  4  1  0
  4  5  2  0
  5  6  1  0
  6  7  1  0
  7  8  1  0
  8  9  2  0
  8 10  2  0
  8 11  1  0
 11 12  1  0
 12 13  2  0
 13 14  1  0
 14 15  2  0
 15 16  1  0
 16 17  2  0
 17 18  1  0
 18 19  1  0
 19 20  2  0
 19 21  1  0
  7  3  2  0
 17 12  1  0
 21 16  1  0
  4 22  1  0
  5 23  1  0
 11 24  1  0
 13 25  1  0
 14 26  1  0
 15 27  1  0
 18 28  1  0
 21 29  1  0
 21 30  1  0
M  END
>  <meeko>  (2) 
{"is_sidechain": [false], "free_energy": -8.408, "intermolecular_energy": -10.232, "internal_energy": -0.455}

$$$$
ligand_95_conformer_5_docked
     RDKit          3D

 30 32  0  0  0  0  0  0  0  0999 V2000
    4.5140   42.6950   51.2230 N   0  0  0  0  0  0  0  0  0  0  0  0
    3.7590   43.1460   51.9740 C   0  0  0  0  0  0  0  0  0  0  0  0
    2.8190   43.7060   52.9090 C   0  0  0  0  0  0  0  0  0  0  0  0
    1.4910   43.2690   52.9980 C   0  0  0  0  0  0  0  0  0  0  0  0
    0.7540   43.9300   53.9740 C   0  0  0  0  0  0  0  0  0  0  0  0
    1.7560   45.0550   54.7250 S   0  0  0  0  0  0  0  0  0  0  0  0
    3.1270   44.7170   53.8130 C   0  0  0  0  0  0  0  0  0  0  0  0
    4.6830   45.5130   54.0170 S   0  0  0  0  0  0  0  0  0  0  0  0
    5.7040   44.5530   54.5610 O   0  0  0  0  0  0  0  0  0  0  0  0
    4.5180   46.6550   54.9790 O   0  0  0  0  0  0  0  0  0  0  0  0
    5.2370   46.1310   52.4930 N   0  0  0  0  0  0  0  0  0  0  0  0
    6.5980   46.0240   52.0310 C   0  0  0  0  0  0  0  0  0  0  0  0
    6.9290   45.3650   50.8230 C   0  0  0  0  0  0  0  0  0  0  0  0
    8.2670   45.2770   50.3950 C   0  0  0  0  0  0  0  0  0  0  0  0
    9.2980   45.8370   51.1610 C   0  0  0  0  0  0  0  0  0  0  0  0
    8.9680   46.4820   52.3500 C   0  0  0  0  0  0  0  0  0  0  0  0
    7.6550   46.5730   52.7770 C   0  0  0  0  0  0  0  0  0  0  0  0
    7.5620   47.2830   54.0020 N   0  0  0  0  0  0  0  0  0  0  0  0
    8.9020   47.6350   54.3250 C   0  0  0  0  0  0  0  0  0  0  0  0
    9.2080   48.2860   55.3580 O   0  0  0  0  0  0  0  0  0  0  0  0
    9.8930   47.1550   53.3110 C   0  0  0  0  0  0  0  0  0  0  0  0
    1.0718   42.4791   52.3574 H   0  0  0  0  0  0  0  0  0  0  0  0
   -0.3039   43.7487   54.2146 H   0  0  0  0  0  0  0  0  0  0  0  0
    4.5160   46.5700   51.8830 H   0  0  0  0  0  0  0  0  0  0  0  0
    6.1318   44.9166   50.2119 H   0  0  0  0  0  0  0  0  0  0  0  0
    8.5052   44.7644   49.4514 H   0  0  0  0  0  0  0  0  0  0  0  0
   10.3449   45.7686   50.8303 H   0  0  0  0  0  0  0  0  0  0  0  0
    6.7080   47.5300   54.5490 H   0  0  0  0  0  0  0  0  0  0  0  0
   10.4345   47.9894   52.8414 H   0  0  0  0  0  0  0  0  0  0  0  0
   10.6946   46.5161   53.7101 H   0  0  0  0  0  0  0  0  0  0  0  0
  1  2  3  0
  2  3  1  0
  3  4  1  0
  4  5  2  0
  5  6  1  0
  6  7  1  0
  7  8  1  0
  8  9  2  0
  8 10  2  0
  8 11  1  0
 11 12  1  0
 12 13  2  0
 13 14  1  0
 14 15  2  0
 15 16  1  0
 16 17  2  0
 17 18  1  0
 18 19  1  0
 19 20  2  0
 19 21  1  0
  7  3  2  0
 17 12  1  0
 21 16  1  0
  4 22  1  0
  5 23  1  0
 11 24  1  0
 13 25  1  0
 14 26  1  0
 15 27  1  0
 18 28  1  0
 21 29  1  0
 21 30  1  0
M  END
>  <meeko>  (3) 
{"is_sidechain": [false], "free_energy": -8.379, "intermolecular_energy": -10.016, "internal_energy": -0.638}

$$$$
ligand_95_conformer_5_docked
     RDKit          3D

 30 32  0  0  0  0  0  0  0  0999 V2000
    8.8640   48.3190   55.3840 N   0  0  0  0  0  0  0  0  0  0  0  0
    9.0340   47.7080   54.4160 C   0  0  0  0  0  0  0  0  0  0  0  0
    9.2460   46.9480   53.2120 C   0  0  0  0  0  0  0  0  0  0  0  0
   10.5230   46.6830   52.7000 C   0  0  0  0  0  0  0  0  0  0  0  0
   10.5070   45.9210   51.5380 C   0  0  0  0  0  0  0  0  0  0  0  0
    8.9060   45.5770   51.1510 S   0  0  0  0  0  0  0  0  0  0  0  0
    8.2220   46.3970   52.4490 C   0  0  0  0  0  0  0  0  0  0  0  0
    6.4950   46.4970   52.7680 S   0  0  0  0  0  0  0  0  0  0  0  0
    6.0870   47.9180   53.0400 O   0  0  0  0  0  0  0  0  0  0  0  0
    6.1770   45.6550   53.9700 O   0  0  0  0  0  0  0  0  0  0  0  0
    5.6030   45.9010   51.4040 N   0  0  0  0  0  0  0  0  0  0  0  0
    5.0910   44.5570   51.3060 C   0  0  0  0  0  0  0  0  0  0  0  0
    5.7130   43.5760   50.4980 C   0  0  0  0  0  0  0  0  0  0  0  0
    5.1920   42.2710   50.4220 C   0  0  0  0  0  0  0  0  0  0  0  0
    4.0430   41.9190   51.1420 C   0  0  0  0  0  0  0  0  0  0  0  0
    3.4320   42.8900   51.9330 C   0  0  0  0  0  0  0  0  0  0  0  0
    3.9390   44.1740   52.0140 C   0  0  0  0  0  0  0  0  0  0  0  0
    3.1620   44.9790   52.8880 N   0  0  0  0  0  0  0  0  0  0  0  0
    2.1290   44.1200   53.3550 C   0  0  0  0  0  0  0  0  0  0  0  0
    1.2400   44.4960   54.1640 O   0  0  0  0  0  0  0  0  0  0  0  0
    2.2160   42.7370   52.7880 C   0  0  0  0  0  0  0  0  0  0  0  0
   11.4488   47.0433   53.1722 H   0  0  0  0  0  0  0  0  0  0  0  0
   11.3906   45.5977   50.9682 H   0  0  0  0  0  0  0  0  0  0  0  0
    5.4130   46.5850   50.6420 H   0  0  0  0  0  0  0  0  0  0  0  0
    6.6138   43.8364   49.9229 H   0  0  0  0  0  0  0  0  0  0  0  0
    5.6914   41.5206   49.7916 H   0  0  0  0  0  0  0  0  0  0  0  0
    3.6327   40.9000   51.0843 H   0  0  0  0  0  0  0  0  0  0  0  0
    3.3120   45.9730   53.1650 H   0  0  0  0  0  0  0  0  0  0  0  0
    2.3606   41.9809   53.5737 H   0  0  0  0  0  0  0  0  0  0  0  0
    1.3150   42.3930   52.2590 H   0  0  0  0  0  0  0  0  0  0  0  0
  1  2  3  0
  2  3  1  0
  3  4  1  0
  4  5  2  0
  5  6  1  0
  6  7  1  0
  7  8  1  0
  8  9  2  0
  8 10  2  0
  8 11  1  0
 11 12  1  0
 12 13  2  0
 13 14  1  0
 14 15  2  0
 15 16  1  0
 16 17  2  0
 17 18  1  0
 18 19  1  0
 19 20  2  0
 19 21  1  0
  7  3  2  0
 17 12  1  0
 21 16  1  0
  4 22  1  0
  5 23  1  0
 11 24  1  0
 13 25  1  0
 14 26  1  0
 15 27  1  0
 18 28  1  0
 21 29  1  0
 21 30  1  0
M  END
>  <meeko>  (4) 
{"is_sidechain": [false], "free_energy": -8.306, "intermolecular_energy": -10.009, "internal_energy": -0.558}

$$$$
ligand_95_conformer_5_docked
     RDKit          3D

 30 32  0  0  0  0  0  0  0  0999 V2000
    5.7470   45.3000   55.6620 N   0  0  0  0  0  0  0  0  0  0  0  0
    4.6500   45.2870   55.2950 C   0  0  0  0  0  0  0  0  0  0  0  0
    3.2840   45.2700   54.8390 C   0  0  0  0  0  0  0  0  0  0  0  0
    2.1940   45.3300   55.7170 C   0  0  0  0  0  0  0  0  0  0  0  0
    0.9630   45.3170   55.0730 C   0  0  0  0  0  0  0  0  0  0  0  0
    1.2330   45.2320   53.4130 S   0  0  0  0  0  0  0  0  0  0  0  0
    2.9110   45.2040   53.5010 C   0  0  0  0  0  0  0  0  0  0  0  0
    3.9820   45.1300   52.1080 S   0  0  0  0  0  0  0  0  0  0  0  0
    3.2140   45.3480   50.8350 O   0  0  0  0  0  0  0  0  0  0  0  0
    4.6270   43.7740   52.0670 O   0  0  0  0  0  0  0  0  0  0  0  0
    5.2170   46.3420   52.2430 N   0  0  0  0  0  0  0  0  0  0  0  0
    6.5920   46.1320   51.8660 C   0  0  0  0  0  0  0  0  0  0  0  0
    6.9480   45.4370   50.6860 C   0  0  0  0  0  0  0  0  0  0  0  0
    8.2990   45.2480   50.3420 C   0  0  0  0  0  0  0  0  0  0  0  0
    9.3200   45.7420   51.1650 C   0  0  0  0  0  0  0  0  0  0  0  0
    8.9650   46.4230   52.3270 C   0  0  0  0  0  0  0  0  0  0  0  0
    7.6390   46.6130   52.6710 C   0  0  0  0  0  0  0  0  0  0  0  0
    7.5230   47.3440   53.8830 N   0  0  0  0  0  0  0  0  0  0  0  0
    8.8620   47.6030   54.2840 C   0  0  0  0  0  0  0  0  0  0  0  0
    9.1520   48.2430   55.3290 O   0  0  0  0  0  0  0  0  0  0  0  0
    9.8760   47.0410   53.3370 C   0  0  0  0  0  0  0  0  0  0  0  0
    2.3023   45.3823   56.8104 H   0  0  0  0  0  0  0  0  0  0  0  0
   -0.0206   45.3557   55.5639 H   0  0  0  0  0  0  0  0  0  0  0  0
    4.9100   47.2760   52.5880 H   0  0  0  0  0  0  0  0  0  0  0  0
    6.1593   45.0399   50.0301 H   0  0  0  0  0  0  0  0  0  0  0  0
    8.5561   44.7077   49.4190 H   0  0  0  0  0  0  0  0  0  0  0  0
   10.3773   45.5953   50.8995 H   0  0  0  0  0  0  0  0  0  0  0  0
    6.6570   47.6580   54.3740 H   0  0  0  0  0  0  0  0  0  0  0  0
   10.5033   47.8288   52.8944 H   0  0  0  0  0  0  0  0  0  0  0  0
   10.6043   46.3522   53.7899 H   0  0  0  0  0  0  0  0  0  0  0  0
  1  2  3  0
  2  3  1  0
  3  4  1  0
  4  5  2  0
  5  6  1  0
  6  7  1  0
  7  8  1  0
  8  9  2  0
  8 10  2  0
  8 11  1  0
 11 12  1  0
 12 13  2  0
 13 14  1  0
 14 15  2  0
 15 16  1  0
 16 17  2  0
 17 18  1  0
 18 19  1  0
 19 20  2  0
 19 21  1  0
  7  3  2  0
 17 12  1  0
 21 16  1  0
  4 22  1  0
  5 23  1  0
 11 24  1  0
 13 25  1  0
 14 26  1  0
 15 27  1  0
 18 28  1  0
 21 29  1  0
 21 30  1  0
M  END
>  <meeko>  (5) 
{"is_sidechain": [false], "free_energy": -8.281, "intermolecular_energy": -9.987, "internal_energy": -0.552}

$$$$
