ligand_70_conformer_5_docked
     RDKit          3D

 51 53  0  0  0  0  0  0  0  0999 V2000
   10.7060   47.5240   55.8260 C   0  0  0  0  0  0  0  0  0  0  0  0
    9.6890   47.5910   54.7400 C   0  0  0  0  0  0  0  0  0  0  0  0
    8.4930   47.8760   55.0210 O   0  0  0  0  0  0  0  0  0  0  0  0
   10.0800   47.3840   53.4130 O   0  0  0  0  0  0  0  0  0  0  0  0
    9.1800   47.5250   52.3160 C   0  0  0  0  0  0  0  0  0  0  0  0
    9.0800   46.2350   51.5480 C   0  0  0  0  0  0  0  0  0  0  0  0
   10.1440   45.6440   51.2140 O   0  0  0  0  0  0  0  0  0  0  0  0
    7.7980   45.6410   51.2370 N   0  0  0  0  0  0  0  0  0  0  0  0
    7.5830   44.9990   49.9250 C   0  0  0  0  0  0  0  0  0  0  0  0
    6.8090   43.6860   50.0900 C   0  0  0  0  0  0  0  0  0  0  0  0
    5.6600   43.8940   50.9600 N   0  0  0  0  0  0  0  0  0  0  0  0
    4.6010   43.1020   51.0180 N   0  0  0  0  0  0  0  0  0  0  0  0
    3.8010   43.5710   52.0000 C   0  0  0  0  0  0  0  0  0  0  0  0
    4.3900   44.6800   52.5790 C   0  0  0  0  0  0  0  0  0  0  0  0
    3.7480   45.6360   53.9080 S   0  0  1  0  0  6  0  0  0  0  0  0
    4.7420   45.3360   55.3510 C   0  0  0  0  0  0  0  0  0  0  0  0
    3.8090   47.1010   53.5820 O   0  0  0  0  0  0  0  0  0  0  0  0
    2.2570   45.2240   54.2110 N   0  0  0  0  0  0  0  0  0  0  0  0
    1.1870   45.2030   53.2550 C   0  0  0  0  0  0  0  0  0  0  0  0
    1.1680   46.0910   52.3620 O   0  0  0  0  0  0  0  0  0  0  0  0
    0.0290   44.2390   53.3560 C   0  0  2  0  0  0  0  0  0  0  0  0
    0.4150   42.7650   53.5050 C   0  0  0  0  0  0  0  0  0  0  0  0
   -0.1980   43.2540   52.1980 C   0  0  0  0  0  0  0  0  0  0  0  0
    0.7550   43.2130   50.9950 C   0  0  0  0  0  0  0  0  0  0  0  0
   -1.6450   42.8180   51.9600 C   0  0  0  0  0  0  0  0  0  0  0  0
    5.5780   44.8470   51.9010 C   0  0  0  0  0  0  0  0  0  0  0  0
    6.6360   45.8850   52.1130 C   0  0  0  0  0  0  0  0  0  0  0  0
   10.2018   47.5572   56.8031 H   0  0  0  0  0  0  0  0  0  0  0  0
   11.2746   46.5864   55.7385 H   0  0  0  0  0  0  0  0  0  0  0  0
   11.3927   48.3788   55.7385 H   0  0  0  0  0  0  0  0  0  0  0  0
    8.1847   47.7977   52.6969 H   0  0  0  0  0  0  0  0  0  0  0  0
    9.5572   48.3106   51.6448 H   0  0  0  0  0  0  0  0  0  0  0  0
    7.0085   45.6791   49.2790 H   0  0  0  0  0  0  0  0  0  0  0  0
    8.5610   44.7808   49.4712 H   0  0  0  0  0  0  0  0  0  0  0  0
    6.4627   43.3405   49.1048 H   0  0  0  0  0  0  0  0  0  0  0  0
    7.4702   42.9296   50.5380 H   0  0  0  0  0  0  0  0  0  0  0  0
    2.8329   43.1386   52.2931 H   0  0  0  0  0  0  0  0  0  0  0  0
    4.1411   45.5174   56.2543 H   0  0  0  0  0  0  0  0  0  0  0  0
    5.0905   44.2927   55.3458 H   0  0  0  0  0  0  0  0  0  0  0  0
    5.6095   46.0123   55.3458 H   0  0  0  0  0  0  0  0  0  0  0  0
   -0.6152   44.9527   53.8905 H   0  0  0  0  0  0  0  0  0  0  0  0
    1.4759   42.4762   53.5395 H   0  0  0  0  0  0  0  0  0  0  0  0
    0.1733   41.9691   54.2248 H   0  0  0  0  0  0  0  0  0  0  0  0
    1.7945   43.1683   51.3520 H   0  0  0  0  0  0  0  0  0  0  0  0
    0.5381   42.3234   50.3855 H   0  0  0  0  0  0  0  0  0  0  0  0
    0.6153   44.1180   50.3855 H   0  0  0  0  0  0  0  0  0  0  0  0
   -2.1463   42.6670   52.9274 H   0  0  0  0  0  0  0  0  0  0  0  0
   -2.1737   43.5967   51.3907 H   0  0  0  0  0  0  0  0  0  0  0  0
   -1.6554   41.8768   51.3907 H   0  0  0  0  0  0  0  0  0  0  0  0
    6.2173   46.8769   51.8875 H   0  0  0  0  0  0  0  0  0  0  0  0
    6.9698   45.8370   53.1600 H   0  0  0  0  0  0  0  0  0  0  0  0
  1  2  1  0
  2  3  2  0
  2  4  1  0
  4  5  1  0
  5  6  1  0
  6  7  2  0
  6  8  1  0
  8  9  1  0
  9 10  1  0
 10 11  1  0
 11 12  1  0
 12 13  2  0
 13 14  1  0
 14 15  1  0
 15 16  1  1
 15 17  2  0
 15 18  2  0
 18 19  1  0
 19 20  2  0
 19 21  1  0
 21 22  1  0
 22 23  1  0
 23 24  1  0
 23 25  1  0
 14 26  2  0
 26 27  1  0
 27  8  1  0
 26 11  1  0
 23 21  1  0
  1 28  1  0
  1 29  1  0
  1 30  1  0
  5 31  1  0
  5 32  1  0
  9 33  1  0
  9 34  1  0
 10 35  1  0
 10 36  1  0
 13 37  1  0
 16 38  1  0
 16 39  1  0
 16 40  1  0
 21 41  1  1
 22 42  1  0
 22 43  1  0
 24 44  1  0
 24 45  1  0
 24 46  1  0
 25 47  1  0
 25 48  1  0
 25 49  1  0
 27 50  1  0
 27 51  1  0
M  END
>  <meeko>  (1) 
{"is_sidechain": [false], "free_energy": -8.244, "intermolecular_energy": -11.618, "internal_energy": -0.274}

$$$$
ligand_70_conformer_5_docked
     RDKit          3D

 51 53  0  0  0  0  0  0  0  0999 V2000
   -0.9750   47.2800   57.8540 C   0  0  0  0  0  0  0  0  0  0  0  0
   -0.4790   46.1080   57.0800 C   0  0  0  0  0  0  0  0  0  0  0  0
    0.4990   45.4420   57.5150 O   0  0  0  0  0  0  0  0  0  0  0  0
   -1.1320   45.7300   55.9030 O   0  0  0  0  0  0  0  0  0  0  0  0
   -1.1200   44.3910   55.4130 C   0  0  0  0  0  0  0  0  0  0  0  0
   -0.6170   44.3540   53.9960 C   0  0  0  0  0  0  0  0  0  0  0  0
   -1.4180   44.6330   53.0610 O   0  0  0  0  0  0  0  0  0  0  0  0
    0.7670   44.0580   53.6950 N   0  0  0  0  0  0  0  0  0  0  0  0
    1.1910   42.6600   53.4790 C   0  0  0  0  0  0  0  0  0  0  0  0
    2.1570   42.5690   52.2930 C   0  0  0  0  0  0  0  0  0  0  0  0
    3.1820   43.5970   52.4070 N   0  0  0  0  0  0  0  0  0  0  0  0
    4.3500   43.5760   51.7840 N   0  0  0  0  0  0  0  0  0  0  0  0
    4.9780   44.7370   52.0680 C   0  0  0  0  0  0  0  0  0  0  0  0
    4.1680   45.5100   52.8790 C   0  0  0  0  0  0  0  0  0  0  0  0
    4.5330   47.1110   53.5070 S   0  0  1  0  0  6  0  0  0  0  0  0
    3.4910   48.2920   52.6820 C   0  0  0  0  0  0  0  0  0  0  0  0
    4.2520   47.1770   54.9820 O   0  0  0  0  0  0  0  0  0  0  0  0
    6.0420   47.4750   53.2410 N   0  0  0  0  0  0  0  0  0  0  0  0
    7.1730   46.6850   53.6360 C   0  0  0  0  0  0  0  0  0  0  0  0
    7.0000   45.7890   54.5030 O   0  0  0  0  0  0  0  0  0  0  0  0
    8.5730   46.9720   53.1480 C   0  0  2  0  0  0  0  0  0  0  0  0
    8.6670   47.9230   51.9510 C   0  0  0  0  0  0  0  0  0  0  0  0
    8.9800   46.4440   51.7630 C   0  0  0  0  0  0  0  0  0  0  0  0
    7.9780   45.6900   50.8770 C   0  0  0  0  0  0  0  0  0  0  0  0
   10.4630   46.1160   51.5780 C   0  0  0  0  0  0  0  0  0  0  0  0
    3.0280   44.7580   53.0630 C   0  0  0  0  0  0  0  0  0  0  0  0
    1.7970   45.1030   53.8440 C   0  0  0  0  0  0  0  0  0  0  0  0
   -0.8871   47.0722   58.9306 H   0  0  0  0  0  0  0  0  0  0  0  0
   -0.3750   48.1667   57.6015 H   0  0  0  0  0  0  0  0  0  0  0  0
   -2.0292   47.4666   57.6015 H   0  0  0  0  0  0  0  0  0  0  0  0
   -0.4615   43.7792   56.0471 H   0  0  0  0  0  0  0  0  0  0  0  0
   -2.1454   43.9937   55.4374 H   0  0  0  0  0  0  0  0  0  0  0  0
    1.6940   42.2903   54.3847 H   0  0  0  0  0  0  0  0  0  0  0  0
    0.3028   42.0485   53.2619 H   0  0  0  0  0  0  0  0  0  0  0  0
    2.6340   41.5778   52.2866 H   0  0  0  0  0  0  0  0  0  0  0  0
    1.5970   42.7189   51.3582 H   0  0  0  0  0  0  0  0  0  0  0  0
    5.9780   45.0232   51.7100 H   0  0  0  0  0  0  0  0  0  0  0  0
    2.9577   48.8964   53.4305 H   0  0  0  0  0  0  0  0  0  0  0  0
    4.1088   48.9493   52.0525 H   0  0  0  0  0  0  0  0  0  0  0  0
    2.7618   47.7609   52.0525 H   0  0  0  0  0  0  0  0  0  0  0  0
    9.0170   46.9075   54.1524 H   0  0  0  0  0  0  0  0  0  0  0  0
    7.7513   48.3498   51.5159 H   0  0  0  0  0  0  0  0  0  0  0  0
    9.2035   48.8612   51.7464 H   0  0  0  0  0  0  0  0  0  0  0  0
    7.2605   45.1501   51.5124 H   0  0  0  0  0  0  0  0  0  0  0  0
    7.4378   46.4075   50.2419 H   0  0  0  0  0  0  0  0  0  0  0  0
    8.5178   44.9722   50.2419 H   0  0  0  0  0  0  0  0  0  0  0  0
   10.9408   46.0103   52.5631 H   0  0  0  0  0  0  0  0  0  0  0  0
   10.5632   45.1740   51.0189 H   0  0  0  0  0  0  0  0  0  0  0  0
   10.9511   46.9279   51.0189 H   0  0  0  0  0  0  0  0  0  0  0  0
    2.0608   45.1991   54.9076 H   0  0  0  0  0  0  0  0  0  0  0  0
    1.3926   46.0513   53.4603 H   0  0  0  0  0  0  0  0  0  0  0  0
  1  2  1  0
  2  3  2  0
  2  4  1  0
  4  5  1  0
  5  6  1  0
  6  7  2  0
  6  8  1  0
  8  9  1  0
  9 10  1  0
 10 11  1  0
 11 12  1  0
 12 13  2  0
 13 14  1  0
 14 15  1  0
 15 16  1  6
 15 17  2  0
 15 18  2  0
 18 19  1  0
 19 20  2  0
 19 21  1  0
 21 22  1  0
 22 23  1  0
 23 24  1  0
 23 25  1  0
 14 26  2  0
 26 27  1  0
 27  8  1  0
 26 11  1  0
 23 21  1  0
  1 28  1  0
  1 29  1  0
  1 30  1  0
  5 31  1  0
  5 32  1  0
  9 33  1  0
  9 34  1  0
 10 35  1  0
 10 36  1  0
 13 37  1  0
 16 38  1  0
 16 39  1  0
 16 40  1  0
 21 41  1  1
 22 42  1  0
 22 43  1  0
 24 44  1  0
 24 45  1  0
 24 46  1  0
 25 47  1  0
 25 48  1  0
 25 49  1  0
 27 50  1  0
 27 51  1  0
M  END
>  <meeko>  (2) 
{"is_sidechain": [false], "free_energy": -7.647, "intermolecular_energy": -10.63, "internal_energy": -0.42}

$$$$
ligand_70_conformer_5_docked
     RDKit          3D

 51 53  0  0  0  0  0  0  0  0999 V2000
   10.1810   47.0420   53.8540 C   0  0  0  0  0  0  0  0  0  0  0  0
    9.8830   46.6650   52.4430 C   0  0  0  0  0  0  0  0  0  0  0  0
   10.6410   45.8570   51.8400 O   0  0  0  0  0  0  0  0  0  0  0  0
    8.7410   47.1740   51.8180 O   0  0  0  0  0  0  0  0  0  0  0  0
    7.4870   46.4960   51.8390 C   0  0  0  0  0  0  0  0  0  0  0  0
    6.6710   46.9360   53.0250 C   0  0  0  0  0  0  0  0  0  0  0  0
    6.8530   48.0950   53.4890 O   0  0  0  0  0  0  0  0  0  0  0  0
    5.6560   46.0800   53.6000 N   0  0  0  0  0  0  0  0  0  0  0  0
    5.7490   45.6780   55.0180 C   0  0  0  0  0  0  0  0  0  0  0  0
    4.3720   45.7510   55.6880 C   0  0  0  0  0  0  0  0  0  0  0  0
    3.3760   45.1040   54.8450 N   0  0  0  0  0  0  0  0  0  0  0  0
    2.1980   44.6670   55.2630 N   0  0  0  0  0  0  0  0  0  0  0  0
    1.5280   44.2180   54.1800 C   0  0  0  0  0  0  0  0  0  0  0  0
    2.3080   44.3980   53.0520 C   0  0  0  0  0  0  0  0  0  0  0  0
    1.8730   43.9870   51.3990 S   0  0  1  0  0  6  0  0  0  0  0  0
    0.1050   44.0930   51.2370 C   0  0  0  0  0  0  0  0  0  0  0  0
    2.4980   44.9520   50.4330 O   0  0  0  0  0  0  0  0  0  0  0  0
    2.3380   42.5210   51.0560 N   0  0  0  0  0  0  0  0  0  0  0  0
    3.6740   42.0160   51.1960 C   0  0  0  0  0  0  0  0  0  0  0  0
    4.2320   42.1100   52.3210 O   0  0  0  0  0  0  0  0  0  0  0  0
    4.4710   41.4970   50.0230 C   0  0  2  0  0  0  0  0  0  0  0  0
    5.9410   41.1870   50.3170 C   0  0  0  0  0  0  0  0  0  0  0  0
    5.5840   42.3900   49.4510 C   0  0  0  0  0  0  0  0  0  0  0  0
    5.9130   43.7480   50.0860 C   0  0  0  0  0  0  0  0  0  0  0  0
    5.8800   42.2240   47.9590 C   0  0  0  0  0  0  0  0  0  0  0  0
    3.4710   44.9770   53.5120 C   0  0  0  0  0  0  0  0  0  0  0  0
    4.6720   45.4090   52.7290 C   0  0  0  0  0  0  0  0  0  0  0  0
    9.6455   46.3646   54.5354 H   0  0  0  0  0  0  0  0  0  0  0  0
   11.2633   46.9629   54.0339 H   0  0  0  0  0  0  0  0  0  0  0  0
    9.8541   48.0768   54.0339 H   0  0  0  0  0  0  0  0  0  0  0  0
    6.9358   46.7251   50.9150 H   0  0  0  0  0  0  0  0  0  0  0  0
    7.6684   45.4136   51.9131 H   0  0  0  0  0  0  0  0  0  0  0  0
    6.1265   44.6465   55.0779 H   0  0  0  0  0  0  0  0  0  0  0  0
    6.4345   46.3634   55.5379 H   0  0  0  0  0  0  0  0  0  0  0  0
    4.4126   45.2409   56.6618 H   0  0  0  0  0  0  0  0  0  0  0  0
    4.0947   46.8057   55.8321 H   0  0  0  0  0  0  0  0  0  0  0  0
    0.5199   43.7780   54.1928 H   0  0  0  0  0  0  0  0  0  0  0  0
   -0.3538   44.1205   52.2364 H   0  0  0  0  0  0  0  0  0  0  0  0
   -0.1586   45.0086   50.6872 H   0  0  0  0  0  0  0  0  0  0  0  0
   -0.2661   43.2155   50.6872 H   0  0  0  0  0  0  0  0  0  0  0  0
    3.6162   40.9633   49.5819 H   0  0  0  0  0  0  0  0  0  0  0  0
    6.3422   41.3395   51.3298 H   0  0  0  0  0  0  0  0  0  0  0  0
    6.5877   40.3061   50.1917 H   0  0  0  0  0  0  0  0  0  0  0  0
    5.8906   43.6554   51.1819 H   0  0  0  0  0  0  0  0  0  0  0  0
    6.9150   44.0695   49.7656 H   0  0  0  0  0  0  0  0  0  0  0  0
    5.1692   44.4924   49.7656 H   0  0  0  0  0  0  0  0  0  0  0  0
    6.8330   41.6896   47.8315 H   0  0  0  0  0  0  0  0  0  0  0  0
    5.0706   41.6482   47.4865 H   0  0  0  0  0  0  0  0  0  0  0  0
    5.9492   43.2149   47.4865 H   0  0  0  0  0  0  0  0  0  0  0  0
    5.1402   44.5252   52.2711 H   0  0  0  0  0  0  0  0  0  0  0  0
    4.3486   46.1184   51.9530 H   0  0  0  0  0  0  0  0  0  0  0  0
  1  2  1  0
  2  3  2  0
  2  4  1  0
  4  5  1  0
  5  6  1  0
  6  7  2  0
  6  8  1  0
  8  9  1  0
  9 10  1  0
 10 11  1  0
 11 12  1  0
 12 13  2  0
 13 14  1  0
 14 15  1  0
 15 16  1  1
 15 17  2  0
 15 18  2  0
 18 19  1  0
 19 20  2  0
 19 21  1  0
 21 22  1  0
 22 23  1  0
 23 24  1  0
 23 25  1  0
 14 26  2  0
 26 27  1  0
 27  8  1  0
 26 11  1  0
 23 21  1  0
  1 28  1  0
  1 29  1  0
  1 30  1  0
  5 31  1  0
  5 32  1  0
  9 33  1  0
  9 34  1  0
 10 35  1  0
 10 36  1  0
 13 37  1  0
 16 38  1  0
 16 39  1  0
 16 40  1  0
 21 41  1  6
 22 42  1  0
 22 43  1  0
 24 44  1  0
 24 45  1  0
 24 46  1  0
 25 47  1  0
 25 48  1  0
 25 49  1  0
 27 50  1  0
 27 51  1  0
M  END
>  <meeko>  (3) 
{"is_sidechain": [false], "free_energy": -7.566, "intermolecular_energy": -10.639, "internal_energy": -0.298}

$$$$
ligand_70_conformer_5_docked
     RDKit          3D

 51 53  0  0  0  0  0  0  0  0999 V2000
   -2.7850   45.1330   49.7700 C   0  0  0  0  0  0  0  0  0  0  0  0
   -2.3930   45.0690   51.2070 C   0  0  0  0  0  0  0  0  0  0  0  0
   -1.8820   46.0800   51.7590 O   0  0  0  0  0  0  0  0  0  0  0  0
   -2.6380   43.9030   51.9380 O   0  0  0  0  0  0  0  0  0  0  0  0
   -2.3620   43.7990   53.3330 C   0  0  0  0  0  0  0  0  0  0  0  0
   -0.9480   43.3360   53.5580 C   0  0  0  0  0  0  0  0  0  0  0  0
   -0.6360   42.1590   53.2250 O   0  0  0  0  0  0  0  0  0  0  0  0
    0.0600   44.2240   54.0930 N   0  0  0  0  0  0  0  0  0  0  0  0
   -0.2070   44.9790   55.3340 C   0  0  0  0  0  0  0  0  0  0  0  0
    1.0260   44.9670   56.2450 C   0  0  0  0  0  0  0  0  0  0  0  0
    2.2160   45.2960   55.4720 N   0  0  0  0  0  0  0  0  0  0  0  0
    3.3570   45.7290   55.9860 N   0  0  0  0  0  0  0  0  0  0  0  0
    4.2420   45.8320   54.9710 C   0  0  0  0  0  0  0  0  0  0  0  0
    3.6360   45.4360   53.7930 C   0  0  0  0  0  0  0  0  0  0  0  0
    4.3760   45.3780   52.1990 S   0  0  1  0  0  6  0  0  0  0  0  0
    3.9920   43.8100   51.4560 C   0  0  0  0  0  0  0  0  0  0  0  0
    3.8280   46.4680   51.3230 O   0  0  0  0  0  0  0  0  0  0  0  0
    5.9400   45.5290   52.3140 N   0  0  0  0  0  0  0  0  0  0  0  0
    6.6280   46.6020   52.9730 C   0  0  0  0  0  0  0  0  0  0  0  0
    6.0210   47.6950   53.1260 O   0  0  0  0  0  0  0  0  0  0  0  0
    8.0810   46.5080   53.3730 C   0  0  2  0  0  0  0  0  0  0  0  0
    8.7250   47.8260   53.8140 C   0  0  0  0  0  0  0  0  0  0  0  0
    9.1240   47.2010   52.4820 C   0  0  0  0  0  0  0  0  0  0  0  0
    8.6990   48.0110   51.2490 C   0  0  0  0  0  0  0  0  0  0  0  0
   10.5160   46.5660   52.4570 C   0  0  0  0  0  0  0  0  0  0  0  0
    2.3510   45.0890   54.1540 C   0  0  0  0  0  0  0  0  0  0  0  0
    1.2460   44.5710   53.2860 C   0  0  0  0  0  0  0  0  0  0  0  0
   -3.8680   45.3098   49.6929 H   0  0  0  0  0  0  0  0  0  0  0  0
   -2.2434   45.9546   49.2784 H   0  0  0  0  0  0  0  0  0  0  0  0
   -2.5329   44.1818   49.2784 H   0  0  0  0  0  0  0  0  0  0  0  0
   -2.4995   44.7837   53.8035 H   0  0  0  0  0  0  0  0  0  0  0  0
   -3.0511   43.0662   53.7781 H   0  0  0  0  0  0  0  0  0  0  0  0
   -0.4581   46.0190   55.0782 H   0  0  0  0  0  0  0  0  0  0  0  0
   -1.0464   44.5060   55.8648 H   0  0  0  0  0  0  0  0  0  0  0  0
    0.8948   45.7090   57.0464 H   0  0  0  0  0  0  0  0  0  0  0  0
    1.1437   43.9646   56.6825 H   0  0  0  0  0  0  0  0  0  0  0  0
    5.2821   46.1770   55.0665 H   0  0  0  0  0  0  0  0  0  0  0  0
    3.8096   43.0653   52.2448 H   0  0  0  0  0  0  0  0  0  0  0  0
    3.0920   43.9107   50.8317 H   0  0  0  0  0  0  0  0  0  0  0  0
    4.8367   43.4834   50.8317 H   0  0  0  0  0  0  0  0  0  0  0  0
    7.9799   45.4929   53.7845 H   0  0  0  0  0  0  0  0  0  0  0  0
    8.1285   48.7501   53.8300 H   0  0  0  0  0  0  0  0  0  0  0  0
    9.2713   48.1614   54.7079 H   0  0  0  0  0  0  0  0  0  0  0  0
    8.2105   48.9420   51.5724 H   0  0  0  0  0  0  0  0  0  0  0  0
    9.5863   48.2530   50.6456 H   0  0  0  0  0  0  0  0  0  0  0  0
    7.9957   47.4184   50.6456 H   0  0  0  0  0  0  0  0  0  0  0  0
   10.8650   46.4068   53.4880 H   0  0  0  0  0  0  0  0  0  0  0  0
   10.4691   45.6002   51.9325 H   0  0  0  0  0  0  0  0  0  0  0  0
   11.2146   47.2345   51.9325 H   0  0  0  0  0  0  0  0  0  0  0  0
    0.9699   45.3448   52.5546 H   0  0  0  0  0  0  0  0  0  0  0  0
    1.5986   43.6645   52.7723 H   0  0  0  0  0  0  0  0  0  0  0  0
  1  2  1  0
  2  3  2  0
  2  4  1  0
  4  5  1  0
  5  6  1  0
  6  7  2  0
  6  8  1  0
  8  9  1  0
  9 10  1  0
 10 11  1  0
 11 12  1  0
 12 13  2  0
 13 14  1  0
 14 15  1  0
 15 16  1  6
 15 17  2  0
 15 18  2  0
 18 19  1  0
 19 20  2  0
 19 21  1  0
 21 22  1  0
 22 23  1  0
 23 24  1  0
 23 25  1  0
 14 26  2  0
 26 27  1  0
 27  8  1  0
 26 11  1  0
 23 21  1  0
  1 28  1  0
  1 29  1  0
  1 30  1  0
  5 31  1  0
  5 32  1  0
  9 33  1  0
  9 34  1  0
 10 35  1  0
 10 36  1  0
 13 37  1  0
 16 38  1  0
 16 39  1  0
 16 40  1  0
 21 41  1  1
 22 42  1  0
 22 43  1  0
 24 44  1  0
 24 45  1  0
 24 46  1  0
 25 47  1  0
 25 48  1  0
 25 49  1  0
 27 50  1  0
 27 51  1  0
M  END
>  <meeko>  (4) 
{"is_sidechain": [false], "free_energy": -7.282, "intermolecular_energy": -10.498, "internal_energy": -0.038}

$$$$
ligand_70_conformer_5_docked
     RDKit          3D

 51 53  0  0  0  0  0  0  0  0999 V2000
    2.7430   38.3290   46.9900 C   0  0  0  0  0  0  0  0  0  0  0  0
    3.2060   39.7400   47.1210 C   0  0  0  0  0  0  0  0  0  0  0  0
    3.2080   40.4920   46.1100 O   0  0  0  0  0  0  0  0  0  0  0  0
    3.5910   40.2260   48.3740 O   0  0  0  0  0  0  0  0  0  0  0  0
    4.7100   41.0920   48.5510 C   0  0  0  0  0  0  0  0  0  0  0  0
    4.7930   41.5590   49.9790 C   0  0  0  0  0  0  0  0  0  0  0  0
    4.0870   40.9780   50.8490 O   0  0  0  0  0  0  0  0  0  0  0  0
    5.6980   42.6160   50.3750 N   0  0  0  0  0  0  0  0  0  0  0  0
    7.0410   42.7010   49.7680 C   0  0  0  0  0  0  0  0  0  0  0  0
    7.3890   44.1570   49.4340 C   0  0  0  0  0  0  0  0  0  0  0  0
    7.0830   45.0130   50.5720 N   0  0  0  0  0  0  0  0  0  0  0  0
    7.5850   46.2220   50.7660 N   0  0  0  0  0  0  0  0  0  0  0  0
    6.9970   46.7300   51.8710 C   0  0  0  0  0  0  0  0  0  0  0  0
    6.0900   45.8120   52.3680 C   0  0  0  0  0  0  0  0  0  0  0  0
    5.0640   46.0110   53.7830 S   0  0  1  0  0  6  0  0  0  0  0  0
    5.7080   44.9990   55.0940 C   0  0  0  0  0  0  0  0  0  0  0  0
    5.0670   47.4430   54.2400 O   0  0  0  0  0  0  0  0  0  0  0  0
    3.5890   45.5640   53.4590 N   0  0  0  0  0  0  0  0  0  0  0  0
    2.7840   46.0600   52.3790 C   0  0  0  0  0  0  0  0  0  0  0  0
    3.3440   46.7550   51.4900 O   0  0  0  0  0  0  0  0  0  0  0  0
    1.2850   45.8860   52.3390 C   0  0  2  0  0  0  0  0  0  0  0  0
    0.7240   44.8150   53.2790 C   0  0  0  0  0  0  0  0  0  0  0  0
    0.7220   44.5720   51.7750 C   0  0  0  0  0  0  0  0  0  0  0  0
    1.6560   43.4440   51.3130 C   0  0  0  0  0  0  0  0  0  0  0  0
   -0.6520   44.6600   51.1070 C   0  0  0  0  0  0  0  0  0  0  0  0
    6.1620   44.7380   51.5080 C   0  0  0  0  0  0  0  0  0  0  0  0
    5.3880   43.4560   51.5470 C   0  0  0  0  0  0  0  0  0  0  0  0
    2.6007   37.8954   47.9909 H   0  0  0  0  0  0  0  0  0  0  0  0
    1.7900   38.3053   46.4412 H   0  0  0  0  0  0  0  0  0  0  0  0
    3.4967   37.7452   46.4412 H   0  0  0  0  0  0  0  0  0  0  0  0
    5.6318   40.5500   48.2930 H   0  0  0  0  0  0  0  0  0  0  0  0
    4.5898   41.9677   47.8963 H   0  0  0  0  0  0  0  0  0  0  0  0
    7.7838   42.3046   50.4759 H   0  0  0  0  0  0  0  0  0  0  0  0
    7.0494   42.1115   48.8394 H   0  0  0  0  0  0  0  0  0  0  0  0
    8.4612   44.2313   49.1995 H   0  0  0  0  0  0  0  0  0  0  0  0
    6.7955   44.4816   48.5666 H   0  0  0  0  0  0  0  0  0  0  0  0
    7.2066   47.7180   52.3067 H   0  0  0  0  0  0  0  0  0  0  0  0
    5.4301   45.4357   56.0646 H   0  0  0  0  0  0  0  0  0  0  0  0
    5.2885   43.9852   55.0145 H   0  0  0  0  0  0  0  0  0  0  0  0
    6.8040   44.9496   55.0145 H   0  0  0  0  0  0  0  0  0  0  0  0
    1.0925   46.9500   52.1369 H   0  0  0  0  0  0  0  0  0  0  0  0
    1.4041   44.2423   53.9266 H   0  0  0  0  0  0  0  0  0  0  0  0
   -0.0424   44.8000   54.0679 H   0  0  0  0  0  0  0  0  0  0  0  0
    2.0780   42.9343   52.1917 H   0  0  0  0  0  0  0  0  0  0  0  0
    1.0877   42.7220   50.7082 H   0  0  0  0  0  0  0  0  0  0  0  0
    2.4713   43.8676   50.7082 H   0  0  0  0  0  0  0  0  0  0  0  0
   -1.4330   44.7100   51.8800 H   0  0  0  0  0  0  0  0  0  0  0  0
   -0.6979   45.5629   50.4804 H   0  0  0  0  0  0  0  0  0  0  0  0
   -0.8127   43.7703   50.4804 H   0  0  0  0  0  0  0  0  0  0  0  0
    5.6490   42.9059   52.4631 H   0  0  0  0  0  0  0  0  0  0  0  0
    4.3142   43.6942   51.5335 H   0  0  0  0  0  0  0  0  0  0  0  0
  1  2  1  0
  2  3  2  0
  2  4  1  0
  4  5  1  0
  5  6  1  0
  6  7  2  0
  6  8  1  0
  8  9  1  0
  9 10  1  0
 10 11  1  0
 11 12  1  0
 12 13  2  0
 13 14  1  0
 14 15  1  0
 15 16  1  1
 15 17  2  0
 15 18  2  0
 18 19  1  0
 19 20  2  0
 19 21  1  0
 21 22  1  0
 22 23  1  0
 23 24  1  0
 23 25  1  0
 14 26  2  0
 26 27  1  0
 27  8  1  0
 26 11  1  0
 23 21  1  0
  1 28  1  0
  1 29  1  0
  1 30  1  0
  5 31  1  0
  5 32  1  0
  9 33  1  0
  9 34  1  0
 10 35  1  0
 10 36  1  0
 13 37  1  0
 16 38  1  0
 16 39  1  0
 16 40  1  0
 21 41  1  6
 22 42  1  0
 22 43  1  0
 24 44  1  0
 24 45  1  0
 24 46  1  0
 25 47  1  0
 25 48  1  0
 25 49  1  0
 27 50  1  0
 27 51  1  0
M  END
>  <meeko>  (5) 
{"is_sidechain": [false], "free_energy": -7.279, "intermolecular_energy": -9.768, "internal_energy": -0.764}

$$$$
