MODEL 1
REMARK VINA RESULT:   -10.872      0.000      0.000
REMARK INTER + INTRA:         -12.496
REMARK INTER:                 -12.779
REMARK INTRA:                   0.284
REMARK UNBOUND:                 0.284
REMARK SMILES O=c1[nH]c(CN2CCC(c3nc4ccccc4[nH]3)CC2)nc2c1oc1ccccc12
REMARK SMILES IDX 6 1 7 2 8 3 9 4 19 5 20 6 5 7 4 8 1 9 2 10 3 11 23 12 24 13
REMARK SMILES IDX 22 14 21 15 25 16 30 17 26 18 29 19 27 20 28 21 10 23 11 24
REMARK SMILES IDX 18 25 12 26 17 27 13 28 16 29 14 30 15 31
REMARK H PARENT 3 22 18 32
ROOT
ATOM      1  N   UNL     1       3.977  43.405  51.845  1.00  0.00    -0.296 NA
ATOM      2  C   UNL     1       3.813  44.860  52.041  1.00  0.00     0.086 C 
ATOM      3  C   UNL     1       4.272  45.680  50.831  1.00  0.00     0.027 C 
ATOM      4  C   UNL     1       5.693  45.317  50.389  1.00  0.00     0.058 C 
ATOM      5  C   UNL     1       5.827  43.801  50.172  1.00  0.00     0.027 C 
ATOM      6  C   UNL     1       5.295  42.960  51.348  1.00  0.00     0.086 C 
ENDROOT
BRANCH   1   7
ATOM      7  C   UNL     1       2.799  42.668  51.344  1.00  0.00     0.159 C 
BRANCH   7   8
ATOM      8  C   UNL     1       1.566  42.873  52.179  1.00  0.00     0.124 A 
ATOM      9  O   UNL     1      -1.846  41.918  52.227  1.00  0.00    -0.265 OA
ATOM     10  C   UNL     1      -0.760  42.462  52.563  1.00  0.00     0.294 A 
ATOM     11  N   UNL     1       0.371  42.293  51.813  1.00  0.00    -0.306 N 
ATOM     12  C   UNL     1      -0.676  43.246  53.703  1.00  0.00     0.218 A 
ATOM     13  O   UNL     1      -1.612  43.550  54.582  1.00  0.00    -0.449 OA
ATOM     14  C   UNL     1       0.516  43.821  54.035  1.00  0.00     0.124 A 
ATOM     15  N   UNL     1       1.638  43.658  53.298  1.00  0.00    -0.229 NA
ATOM     16  C   UNL     1      -1.032  44.321  55.485  1.00  0.00     0.137 A 
ATOM     17  C   UNL     1       0.303  44.522  55.190  1.00  0.00     0.047 A 
ATOM     18  C   UNL     1      -1.613  44.893  56.615  1.00  0.00     0.048 A 
ATOM     19  C   UNL     1       1.137  45.295  55.992  1.00  0.00     0.014 A 
ATOM     20  C   UNL     1      -0.797  45.683  57.448  1.00  0.00     0.004 A 
ATOM     21  C   UNL     1       0.569  45.882  57.139  1.00  0.00     0.001 A 
ATOM     22  H   UNL     1       0.324  41.702  50.951  1.00  0.00     0.171 HD
ENDBRANCH   7   8
ENDBRANCH   1   7
BRANCH   4  23
ATOM     23  C   UNL     1       6.731  45.881  51.332  1.00  0.00     0.110 A 
ATOM     24  N   UNL     1       8.071  45.836  51.101  1.00  0.00    -0.233 NA
ATOM     25  N   UNL     1       6.408  46.413  52.538  1.00  0.00    -0.342 N 
ATOM     26  C   UNL     1       8.586  46.385  52.215  1.00  0.00     0.089 A 
ATOM     27  C   UNL     1       7.590  46.730  53.079  1.00  0.00     0.065 A 
ATOM     28  C   UNL     1       9.929  46.590  52.522  1.00  0.00     0.030 A 
ATOM     29  C   UNL     1       7.850  47.309  54.319  1.00  0.00     0.028 A 
ATOM     30  C   UNL     1      10.233  47.177  53.767  1.00  0.00     0.002 A 
ATOM     31  C   UNL     1       9.197  47.534  54.661  1.00  0.00     0.002 A 
ATOM     32  H   UNL     1       5.459  46.537  52.956  1.00  0.00     0.168 HD
ENDBRANCH   4  23
TORSDOF 3
ENDMDL
MODEL 2
REMARK VINA RESULT:   -10.299      3.181      8.247
REMARK INTER + INTRA:         -11.822
REMARK INTER:                 -11.542
REMARK INTRA:                  -0.279
REMARK UNBOUND:                 0.284
REMARK SMILES O=c1[nH]c(CN2CCC(c3nc4ccccc4[nH]3)CC2)nc2c1oc1ccccc12
REMARK SMILES IDX 6 1 7 2 8 3 9 4 19 5 20 6 5 7 4 8 1 9 2 10 3 11 23 12 24 13
REMARK SMILES IDX 22 14 21 15 25 16 30 17 26 18 29 19 27 20 28 21 10 23 11 24
REMARK SMILES IDX 18 25 12 26 17 27 13 28 16 29 14 30 15 31
REMARK H PARENT 3 22 18 32
ROOT
ATOM      1  N   UNL     1       2.658  45.003  52.770  1.00  0.00    -0.296 NA
ATOM      2  C   UNL     1       2.633  44.188  54.002  1.00  0.00     0.086 C 
ATOM      3  C   UNL     1       1.283  43.499  54.234  1.00  0.00     0.027 C 
ATOM      4  C   UNL     1       0.111  44.484  54.172  1.00  0.00     0.058 C 
ATOM      5  C   UNL     1       0.152  45.301  52.870  1.00  0.00     0.027 C 
ATOM      6  C   UNL     1       1.526  45.934  52.582  1.00  0.00     0.086 C 
ENDROOT
BRANCH   1   7
ATOM      7  C   UNL     1       3.183  44.347  51.555  1.00  0.00     0.159 C 
BRANCH   7   8
ATOM      8  C   UNL     1       4.649  44.592  51.329  1.00  0.00     0.124 A 
ATOM      9  O   UNL     1       7.180  43.814  48.975  1.00  0.00    -0.265 OA
ATOM     10  C   UNL     1       6.613  44.286  49.996  1.00  0.00     0.294 A 
ATOM     11  N   UNL     1       5.281  44.069  50.222  1.00  0.00    -0.306 N 
ATOM     12  C   UNL     1       7.317  45.042  50.920  1.00  0.00     0.218 A 
ATOM     13  O   UNL     1       8.590  45.391  50.922  1.00  0.00    -0.449 OA
ATOM     14  C   UNL     1       6.670  45.536  52.016  1.00  0.00     0.124 A 
ATOM     15  N   UNL     1       5.354  45.325  52.245  1.00  0.00    -0.229 NA
ATOM     16  C   UNL     1       8.772  46.111  52.016  1.00  0.00     0.137 A 
ATOM     17  C   UNL     1       7.599  46.233  52.737  1.00  0.00     0.047 A 
ATOM     18  C   UNL     1       9.952  46.707  52.455  1.00  0.00     0.048 A 
ATOM     19  C   UNL     1       7.527  46.949  53.928  1.00  0.00     0.014 A 
ATOM     20  C   UNL     1       9.914  47.438  53.658  1.00  0.00     0.004 A 
ATOM     21  C   UNL     1       8.709  47.559  54.389  1.00  0.00     0.001 A 
ATOM     22  H   UNL     1       4.735  43.502  49.533  1.00  0.00     0.171 HD
ENDBRANCH   7   8
ENDBRANCH   1   7
BRANCH   4  23
ATOM     23  C   UNL     1       0.037  45.341  55.414  1.00  0.00     0.110 A 
ATOM     24  N   UNL     1       1.063  45.489  56.297  1.00  0.00    -0.233 NA
ATOM     25  N   UNL     1      -1.099  45.976  55.796  1.00  0.00    -0.342 N 
ATOM     26  C   UNL     1       0.527  46.268  57.252  1.00  0.00     0.089 A 
ATOM     27  C   UNL     1      -0.771  46.560  56.955  1.00  0.00     0.065 A 
ATOM     28  C   UNL     1       1.138  46.737  58.412  1.00  0.00     0.030 A 
ATOM     29  C   UNL     1      -1.566  47.342  57.788  1.00  0.00     0.028 A 
ATOM     30  C   UNL     1       0.367  47.535  59.280  1.00  0.00     0.002 A 
ATOM     31  C   UNL     1      -0.979  47.837  58.969  1.00  0.00     0.002 A 
ATOM     32  H   UNL     1      -2.022  45.997  55.308  1.00  0.00     0.168 HD
ENDBRANCH   4  23
TORSDOF 3
ENDMDL
MODEL 3
REMARK VINA RESULT:   -10.145      1.511      2.173
REMARK INTER + INTRA:         -11.640
REMARK INTER:                 -11.726
REMARK INTRA:                   0.086
REMARK UNBOUND:                 0.284
REMARK SMILES O=c1[nH]c(CN2CCC(c3nc4ccccc4[nH]3)CC2)nc2c1oc1ccccc12
REMARK SMILES IDX 6 1 7 2 8 3 9 4 19 5 20 6 5 7 4 8 1 9 2 10 3 11 23 12 24 13
REMARK SMILES IDX 22 14 21 15 25 16 30 17 26 18 29 19 27 20 28 21 10 23 11 24
REMARK SMILES IDX 18 25 12 26 17 27 13 28 16 29 14 30 15 31
REMARK H PARENT 3 22 18 32
ROOT
ATOM      1  N   UNL     1       2.886  44.081  53.255  1.00  0.00    -0.296 NA
ATOM      2  C   UNL     1       2.998  45.541  53.060  1.00  0.00     0.086 C 
ATOM      3  C   UNL     1       3.323  45.927  51.613  1.00  0.00     0.027 C 
ATOM      4  C   UNL     1       4.547  45.180  51.075  1.00  0.00     0.058 C 
ATOM      5  C   UNL     1       4.392  43.663  51.271  1.00  0.00     0.027 C 
ATOM      6  C   UNL     1       3.987  43.265  52.703  1.00  0.00     0.086 C 
ENDROOT
BRANCH   1   7
ATOM      7  C   UNL     1       1.529  43.505  53.169  1.00  0.00     0.159 C 
BRANCH   7   8
ATOM      8  C   UNL     1       0.518  44.227  54.015  1.00  0.00     0.124 A 
ATOM      9  O   UNL     1      -2.956  44.925  54.056  1.00  0.00    -0.265 OA
ATOM     10  C   UNL     1      -1.744  44.908  54.400  1.00  0.00     0.294 A 
ATOM     11  N   UNL     1      -0.808  44.262  53.640  1.00  0.00    -0.306 N 
ATOM     12  C   UNL     1      -1.321  45.542  55.558  1.00  0.00     0.218 A 
ATOM     13  O   UNL     1      -2.023  46.217  56.448  1.00  0.00    -0.449 OA
ATOM     14  C   UNL     1       0.001  45.505  55.898  1.00  0.00     0.124 A 
ATOM     15  N   UNL     1       0.931  44.867  55.151  1.00  0.00    -0.229 NA
ATOM     16  C   UNL     1      -1.161  46.619  57.366  1.00  0.00     0.137 A 
ATOM     17  C   UNL     1       0.121  46.199  57.070  1.00  0.00     0.047 A 
ATOM     18  C   UNL     1      -1.427  47.366  58.513  1.00  0.00     0.048 A 
ATOM     19  C   UNL     1       1.210  46.490  57.886  1.00  0.00     0.014 A 
ATOM     20  C   UNL     1      -0.347  47.679  59.360  1.00  0.00     0.004 A 
ATOM     21  C   UNL     1       0.963  47.243  59.050  1.00  0.00     0.001 A 
ATOM     22  H   UNL     1      -1.112  43.777  52.764  1.00  0.00     0.171 HD
ENDBRANCH   7   8
ENDBRANCH   1   7
BRANCH   4  23
ATOM     23  C   UNL     1       5.832  45.730  51.650  1.00  0.00     0.110 A 
ATOM     24  N   UNL     1       7.031  45.687  51.007  1.00  0.00    -0.233 NA
ATOM     25  N   UNL     1       5.909  46.247  52.901  1.00  0.00    -0.342 N 
ATOM     26  C   UNL     1       7.874  46.220  51.909  1.00  0.00     0.089 A 
ATOM     27  C   UNL     1       7.203  46.555  53.046  1.00  0.00     0.065 A 
ATOM     28  C   UNL     1       9.246  46.420  51.779  1.00  0.00     0.030 A 
ATOM     29  C   UNL     1       7.843  47.117  54.148  1.00  0.00     0.028 A 
ATOM     30  C   UNL     1       9.930  46.990  52.872  1.00  0.00     0.002 A 
ATOM     31  C   UNL     1       9.230  47.336  54.051  1.00  0.00     0.002 A 
ATOM     32  H   UNL     1       5.140  46.366  53.599  1.00  0.00     0.168 HD
ENDBRANCH   4  23
TORSDOF 3
ENDMDL
MODEL 4
REMARK VINA RESULT:    -9.794      3.449      9.432
REMARK INTER + INTRA:         -11.228
REMARK INTER:                 -10.729
REMARK INTRA:                  -0.499
REMARK UNBOUND:                 0.284
REMARK SMILES O=c1[nH]c(CN2CCC(c3nc4ccccc4[nH]3)CC2)nc2c1oc1ccccc12
REMARK SMILES IDX 6 1 7 2 8 3 9 4 19 5 20 6 5 7 4 8 1 9 2 10 3 11 23 12 24 13
REMARK SMILES IDX 22 14 21 15 25 16 30 17 26 18 29 19 27 20 28 21 10 23 11 24
REMARK SMILES IDX 18 25 12 26 17 27 13 28 16 29 14 30 15 31
REMARK H PARENT 3 22 18 32
ROOT
ATOM      1  N   UNL     1       1.092  43.946  53.180  1.00  0.00    -0.296 NA
ATOM      2  C   UNL     1       0.492  44.714  52.071  1.00  0.00     0.086 C 
ATOM      3  C   UNL     1      -0.896  45.270  52.412  1.00  0.00     0.027 C 
ATOM      4  C   UNL     1      -1.841  44.186  52.938  1.00  0.00     0.058 C 
ATOM      5  C   UNL     1      -1.198  43.419  54.105  1.00  0.00     0.027 C 
ATOM      6  C   UNL     1       0.228  42.923  53.805  1.00  0.00     0.086 C 
ENDROOT
BRANCH   1   7
ATOM      7  C   UNL     1       1.999  44.685  54.082  1.00  0.00     0.159 C 
BRANCH   7   8
ATOM      8  C   UNL     1       3.259  45.153  53.410  1.00  0.00     0.124 A 
ATOM      9  O   UNL     1       5.423  47.959  53.395  1.00  0.00    -0.265 OA
ATOM     10  C   UNL     1       4.939  46.831  53.110  1.00  0.00     0.294 A 
ATOM     11  N   UNL     1       3.789  46.390  53.706  1.00  0.00    -0.306 N 
ATOM     12  C   UNL     1       5.555  46.002  52.186  1.00  0.00     0.218 A 
ATOM     13  O   UNL     1       6.660  46.196  51.491  1.00  0.00    -0.449 OA
ATOM     14  C   UNL     1       5.001  44.788  51.900  1.00  0.00     0.124 A 
ATOM     15  N   UNL     1       3.865  44.346  52.486  1.00  0.00    -0.229 NA
ATOM     16  C   UNL     1       6.826  45.111  50.754  1.00  0.00     0.137 A 
ATOM     17  C   UNL     1       5.814  44.196  50.973  1.00  0.00     0.047 A 
ATOM     18  C   UNL     1       7.857  44.843  49.856  1.00  0.00     0.048 A 
ATOM     19  C   UNL     1       5.763  42.968  50.320  1.00  0.00     0.014 A 
ATOM     20  C   UNL     1       7.835  43.609  49.177  1.00  0.00     0.004 A 
ATOM     21  C   UNL     1       6.796  42.677  49.408  1.00  0.00     0.001 A 
ATOM     22  H   UNL     1       3.313  47.004  54.406  1.00  0.00     0.171 HD
ENDBRANCH   7   8
ENDBRANCH   1   7
BRANCH   4  23
ATOM     23  C   UNL     1      -2.330  43.286  51.827  1.00  0.00     0.110 A 
ATOM     24  N   UNL     1      -2.806  42.026  52.023  1.00  0.00    -0.233 NA
ATOM     25  N   UNL     1      -2.259  43.638  50.519  1.00  0.00    -0.342 N 
ATOM     26  C   UNL     1      -3.051  41.600  50.772  1.00  0.00     0.089 A 
ATOM     27  C   UNL     1      -2.722  42.564  49.868  1.00  0.00     0.065 A 
ATOM     28  C   UNL     1      -3.553  40.362  50.377  1.00  0.00     0.030 A 
ATOM     29  C   UNL     1      -2.866  42.377  48.496  1.00  0.00     0.028 A 
ATOM     30  C   UNL     1      -3.717  40.135  48.996  1.00  0.00     0.002 A 
ATOM     31  C   UNL     1      -3.374  41.138  48.060  1.00  0.00     0.002 A 
ATOM     32  H   UNL     1      -1.911  44.534  50.109  1.00  0.00     0.168 HD
ENDBRANCH   4  23
TORSDOF 3
ENDMDL
MODEL 5
REMARK VINA RESULT:    -9.782      3.566      8.927
REMARK INTER + INTRA:         -11.214
REMARK INTER:                 -11.489
REMARK INTRA:                   0.276
REMARK UNBOUND:                 0.284
REMARK SMILES O=c1[nH]c(CN2CCC(c3nc4ccccc4[nH]3)CC2)nc2c1oc1ccccc12
REMARK SMILES IDX 6 1 7 2 8 3 9 4 19 5 20 6 5 7 4 8 1 9 2 10 3 11 23 12 24 13
REMARK SMILES IDX 22 14 21 15 25 16 30 17 26 18 29 19 27 20 28 21 10 23 11 24
REMARK SMILES IDX 18 25 12 26 17 27 13 28 16 29 14 30 15 31
REMARK H PARENT 3 22 18 32
ROOT
ATOM      1  N   UNL     1       2.329  45.694  54.029  1.00  0.00    -0.296 NA
ATOM      2  C   UNL     1       1.876  44.302  54.223  1.00  0.00     0.086 C 
ATOM      3  C   UNL     1       2.270  43.379  53.064  1.00  0.00     0.027 C 
ATOM      4  C   UNL     1       1.840  43.939  51.705  1.00  0.00     0.058 C 
ATOM      5  C   UNL     1       2.344  45.380  51.523  1.00  0.00     0.027 C 
ATOM      6  C   UNL     1       2.025  46.300  52.716  1.00  0.00     0.086 C 
ENDROOT
BRANCH   1   7
ATOM      7  C   UNL     1       3.622  46.060  54.643  1.00  0.00     0.159 C 
BRANCH   7   8
ATOM      8  C   UNL     1       4.750  46.145  53.653  1.00  0.00     0.124 A 
ATOM      9  O   UNL     1       7.410  48.316  52.779  1.00  0.00    -0.265 OA
ATOM     10  C   UNL     1       6.633  47.325  52.764  1.00  0.00     0.294 A 
ATOM     11  N   UNL     1       5.597  47.232  53.653  1.00  0.00    -0.306 N 
ATOM     12  C   UNL     1       6.804  46.296  51.851  1.00  0.00     0.218 A 
ATOM     13  O   UNL     1       7.719  46.154  50.911  1.00  0.00    -0.449 OA
ATOM     14  C   UNL     1       5.941  45.238  51.863  1.00  0.00     0.124 A 
ATOM     15  N   UNL     1       4.915  45.141  52.738  1.00  0.00    -0.229 NA
ATOM     16  C   UNL     1       7.454  45.006  50.312  1.00  0.00     0.137 A 
ATOM     17  C   UNL     1       6.349  44.391  50.870  1.00  0.00     0.047 A 
ATOM     18  C   UNL     1       8.146  44.418  49.255  1.00  0.00     0.048 A 
ATOM     19  C   UNL     1       5.869  43.165  50.419  1.00  0.00     0.014 A 
ATOM     20  C   UNL     1       7.685  43.178  48.773  1.00  0.00     0.004 A 
ATOM     21  C   UNL     1       6.555  42.555  49.352  1.00  0.00     0.001 A 
ATOM     22  H   UNL     1       5.456  47.999  54.350  1.00  0.00     0.171 HD
ENDBRANCH   7   8
ENDBRANCH   1   7
BRANCH   4  23
ATOM     23  C   UNL     1       0.351  43.794  51.489  1.00  0.00     0.110 A 
ATOM     24  N   UNL     1      -0.366  42.696  51.855  1.00  0.00    -0.233 NA
ATOM     25  N   UNL     1      -0.385  44.725  50.833  1.00  0.00    -0.342 N 
ATOM     26  C   UNL     1      -1.602  42.985  51.414  1.00  0.00     0.089 A 
ATOM     27  C   UNL     1      -1.616  44.201  50.799  1.00  0.00     0.065 A 
ATOM     28  C   UNL     1      -2.749  42.201  51.518  1.00  0.00     0.030 A 
ATOM     29  C   UNL     1      -2.772  44.737  50.237  1.00  0.00     0.028 A 
ATOM     30  C   UNL     1      -3.941  42.710  50.965  1.00  0.00     0.002 A 
ATOM     31  C   UNL     1      -3.952  43.973  50.328  1.00  0.00     0.002 A 
ATOM     32  H   UNL     1      -0.066  45.636  50.433  1.00  0.00     0.168 HD
ENDBRANCH   4  23
TORSDOF 3
ENDMDL
