ligand_36_conformer_4_docked
     RDKit          3D

 42 45  0  0  0  0  0  0  0  0999 V2000
    1.6000   46.5460   52.4630 O   0  0  0  0  0  0  0  0  0  0  0  0
    2.5020   45.7180   52.7640 C   0  0  0  0  0  0  0  0  0  0  0  0
    2.3700   44.3250   52.2970 C   0  0  0  0  0  0  0  0  0  0  0  0
    1.2980   43.4910   52.5340 C   0  0  0  0  0  0  0  0  0  0  0  0
    1.5900   42.2730   52.0460 N   0  0  0  0  0  0  0  0  0  0  0  0
    2.7950   42.2860   51.4960 N   0  0  0  0  0  0  0  0  0  0  0  0
    3.2920   43.5310   51.6260 C   0  0  0  0  0  0  0  0  0  0  0  0
    4.5870   43.9380   51.0590 C   0  0  0  0  0  0  0  0  0  0  0  0
    5.0430   45.2420   50.8920 C   0  0  0  0  0  0  0  0  0  0  0  0
    6.3020   45.3140   50.2870 C   0  0  0  0  0  0  0  0  0  0  0  0
    6.8260   44.0700   49.9710 C   0  0  0  0  0  0  0  0  0  0  0  0
    8.3740   43.7780   49.2070 Cl  0  0  0  0  0  0  0  0  0  0  0  0
    5.7320   42.8790   50.4260 S   0  0  0  0  0  0  0  0  0  0  0  0
    3.6200   46.1430   53.5680 N   0  0  0  0  0  0  0  0  0  0  0  0
    4.1180   45.2980   54.6630 C   0  0  0  0  0  0  0  0  0  0  0  0
    5.6520   45.4020   54.8050 C   0  0  0  0  0  0  0  0  0  0  0  0
    6.2230   46.5530   54.0690 N   0  0  0  0  0  0  0  0  0  0  0  0
    7.6090   46.8040   54.5090 C   0  0  0  0  0  0  0  0  0  0  0  0
    8.4210   47.4490   53.3770 C   0  0  0  0  0  0  0  0  0  0  0  0
    9.0180   46.4500   52.3970 C   0  0  0  0  0  0  0  0  0  0  0  0
    9.9190   47.1810   53.3780 C   0  0  0  0  0  0  0  0  0  0  0  0
    5.3760   47.7480   54.2460 C   0  0  0  0  0  0  0  0  0  0  0  0
    4.0590   47.5420   53.4920 C   0  0  0  0  0  0  0  0  0  0  0  0
    0.3619   43.7744   53.0374 H   0  0  0  0  0  0  0  0  0  0  0  0
    0.9760   41.4320   52.0910 H   0  0  0  0  0  0  0  0  0  0  0  0
    4.4705   46.1277   51.2046 H   0  0  0  0  0  0  0  0  0  0  0  0
    6.8231   46.2609   50.0828 H   0  0  0  0  0  0  0  0  0  0  0  0
    3.6492   45.6200   55.6046 H   0  0  0  0  0  0  0  0  0  0  0  0
    3.8624   44.2525   54.4359 H   0  0  0  0  0  0  0  0  0  0  0  0
    5.8991   45.5101   55.8714 H   0  0  0  0  0  0  0  0  0  0  0  0
    6.0857   44.4874   54.3744 H   0  0  0  0  0  0  0  0  0  0  0  0
    7.5971   47.4796   55.3770 H   0  0  0  0  0  0  0  0  0  0  0  0
    8.0758   45.8461   54.7821 H   0  0  0  0  0  0  0  0  0  0  0  0
    7.8057   48.3583   53.3088 H   0  0  0  0  0  0  0  0  0  0  0  0
    8.8262   45.3742   52.5232 H   0  0  0  0  0  0  0  0  0  0  0  0
    8.9976   46.3257   51.3042 H   0  0  0  0  0  0  0  0  0  0  0  0
   10.3793   46.6344   54.2143 H   0  0  0  0  0  0  0  0  0  0  0  0
   10.8206   47.8049   53.2894 H   0  0  0  0  0  0  0  0  0  0  0  0
    5.1689   47.8980   55.3159 H   0  0  0  0  0  0  0  0  0  0  0  0
    5.8956   48.6335   53.8512 H   0  0  0  0  0  0  0  0  0  0  0  0
    3.2859   48.1859   53.9367 H   0  0  0  0  0  0  0  0  0  0  0  0
    4.2172   47.8017   52.4349 H   0  0  0  0  0  0  0  0  0  0  0  0
  1  2  2  0
  2  3  1  0
  3  4  2  0
  4  5  1  0
  5  6  1  0
  6  7  2  0
  7  8  1  0
  8  9  2  0
  9 10  1  0
 10 11  2  0
 11 12  1  0
 11 13  1  0
  2 14  1  0
 14 15  1  0
 15 16  1  0
 16 17  1  0
 17 18  1  0
 18 19  1  0
 19 20  1  0
 20 21  1  0
 17 22  1  0
 22 23  1  0
  7  3  1  0
 13  8  1  0
 23 14  1  0
 21 19  1  0
  4 24  1  0
  5 25  1  0
  9 26  1  0
 10 27  1  0
 15 28  1  0
 15 29  1  0
 16 30  1  0
 16 31  1  0
 18 32  1  0
 18 33  1  0
 19 34  1  0
 20 35  1  0
 20 36  1  0
 21 37  1  0
 21 38  1  0
 22 39  1  0
 22 40  1  0
 23 41  1  0
 23 42  1  0
M  END
>  <meeko>  (1) 
{"is_sidechain": [false], "free_energy": -8.45, "intermolecular_energy": -10.426, "internal_energy": -0.534}

$$$$
ligand_36_conformer_4_docked
     RDKit          3D

 42 45  0  0  0  0  0  0  0  0999 V2000
    1.6680   46.7580   52.3570 O   0  0  0  0  0  0  0  0  0  0  0  0
    2.3420   45.9100   53.0010 C   0  0  0  0  0  0  0  0  0  0  0  0
    1.7970   44.5500   53.1710 C   0  0  0  0  0  0  0  0  0  0  0  0
    0.6550   44.2190   53.8700 C   0  0  0  0  0  0  0  0  0  0  0  0
    0.5440   42.8800   53.8930 N   0  0  0  0  0  0  0  0  0  0  0  0
    1.5520   42.3330   53.2310 N   0  0  0  0  0  0  0  0  0  0  0  0
    2.3300   43.3320   52.7690 C   0  0  0  0  0  0  0  0  0  0  0  0
    3.5070   43.1000   51.9180 C   0  0  0  0  0  0  0  0  0  0  0  0
    4.5900   43.9590   51.7550 C   0  0  0  0  0  0  0  0  0  0  0  0
    5.5410   43.4820   50.8460 C   0  0  0  0  0  0  0  0  0  0  0  0
    5.1990   42.2580   50.2930 C   0  0  0  0  0  0  0  0  0  0  0  0
    6.1480   41.3660   49.1230 Cl  0  0  0  0  0  0  0  0  0  0  0  0
    3.7160   41.7670   50.9130 S   0  0  0  0  0  0  0  0  0  0  0  0
    3.6110   46.2920   53.5700 N   0  0  0  0  0  0  0  0  0  0  0  0
    3.9760   45.8730   54.9310 C   0  0  0  0  0  0  0  0  0  0  0  0
    5.4880   45.5840   55.0480 C   0  0  0  0  0  0  0  0  0  0  0  0
    6.2660   46.1110   53.9030 N   0  0  0  0  0  0  0  0  0  0  0  0
    7.7070   46.1150   54.2240 C   0  0  0  0  0  0  0  0  0  0  0  0
    8.4530   47.1060   53.3200 C   0  0  0  0  0  0  0  0  0  0  0  0
    9.4160   46.4490   52.3430 C   0  0  0  0  0  0  0  0  0  0  0  0
    9.9550   47.2230   53.5330 C   0  0  0  0  0  0  0  0  0  0  0  0
    5.7910   47.4590   53.5360 C   0  0  0  0  0  0  0  0  0  0  0  0
    4.3970   47.3440   52.9140 C   0  0  0  0  0  0  0  0  0  0  0  0
   -0.0461   44.9305   54.3306 H   0  0  0  0  0  0  0  0  0  0  0  0
   -0.2130   42.3360   54.3610 H   0  0  0  0  0  0  0  0  0  0  0  0
    4.6884   44.9166   52.2872 H   0  0  0  0  0  0  0  0  0  0  0  0
    6.4655   44.0231   50.5959 H   0  0  0  0  0  0  0  0  0  0  0  0
    3.7099   46.6750   55.6353 H   0  0  0  0  0  0  0  0  0  0  0  0
    3.4288   44.9481   55.1656 H   0  0  0  0  0  0  0  0  0  0  0  0
    5.8638   46.0490   55.9714 H   0  0  0  0  0  0  0  0  0  0  0  0
    5.6153   44.4914   55.0586 H   0  0  0  0  0  0  0  0  0  0  0  0
    7.8435   46.4094   55.2750 H   0  0  0  0  0  0  0  0  0  0  0  0
    8.1125   45.1059   54.0588 H   0  0  0  0  0  0  0  0  0  0  0  0
    7.6295   47.8325   53.2571 H   0  0  0  0  0  0  0  0  0  0  0  0
    9.5065   45.3531   52.3132 H   0  0  0  0  0  0  0  0  0  0  0  0
    9.5684   46.4915   51.2544 H   0  0  0  0  0  0  0  0  0  0  0  0
   10.4357   46.6877   54.3651 H   0  0  0  0  0  0  0  0  0  0  0  0
   10.6592   48.0580   53.6631 H   0  0  0  0  0  0  0  0  0  0  0  0
    5.7426   48.0905   54.4354 H   0  0  0  0  0  0  0  0  0  0  0  0
    6.4843   47.9132   52.8128 H   0  0  0  0  0  0  0  0  0  0  0  0
    3.8738   48.3053   53.0246 H   0  0  0  0  0  0  0  0  0  0  0  0
    4.5090   47.0850   51.8508 H   0  0  0  0  0  0  0  0  0  0  0  0
  1  2  2  0
  2  3  1  0
  3  4  2  0
  4  5  1  0
  5  6  1  0
  6  7  2  0
  7  8  1  0
  8  9  2  0
  9 10  1  0
 10 11  2  0
 11 12  1  0
 11 13  1  0
  2 14  1  0
 14 15  1  0
 15 16  1  0
 16 17  1  0
 17 18  1  0
 18 19  1  0
 19 20  1  0
 20 21  1  0
 17 22  1  0
 22 23  1  0
  7  3  1  0
 13  8  1  0
 23 14  1  0
 21 19  1  0
  4 24  1  0
  5 25  1  0
  9 26  1  0
 10 27  1  0
 15 28  1  0
 15 29  1  0
 16 30  1  0
 16 31  1  0
 18 32  1  0
 18 33  1  0
 19 34  1  0
 20 35  1  0
 20 36  1  0
 21 37  1  0
 21 38  1  0
 22 39  1  0
 22 40  1  0
 23 41  1  0
 23 42  1  0
M  END
>  <meeko>  (2) 
{"is_sidechain": [false], "free_energy": -7.91, "intermolecular_energy": -9.959, "internal_energy": -0.334}

$$$$
ligand_36_conformer_4_docked
     RDKit          3D

 42 45  0  0  0  0  0  0  0  0999 V2000
    2.3870   42.2890   52.0190 O   0  0  0  0  0  0  0  0  0  0  0  0
    2.8100   43.4640   52.1890 C   0  0  0  0  0  0  0  0  0  0  0  0
    2.1590   44.3120   53.2060 C   0  0  0  0  0  0  0  0  0  0  0  0
    0.8010   44.4100   53.4260 C   0  0  0  0  0  0  0  0  0  0  0  0
    0.5890   45.3600   54.3540 N   0  0  0  0  0  0  0  0  0  0  0  0
    1.7450   45.8680   54.7500 N   0  0  0  0  0  0  0  0  0  0  0  0
    2.7250   45.2390   54.0720 C   0  0  0  0  0  0  0  0  0  0  0  0
    4.1530   45.4930   54.3120 C   0  0  0  0  0  0  0  0  0  0  0  0
    5.1140   44.5470   54.6560 C   0  0  0  0  0  0  0  0  0  0  0  0
    6.3840   45.0990   54.8580 C   0  0  0  0  0  0  0  0  0  0  0  0
    6.4150   46.4730   54.6830 C   0  0  0  0  0  0  0  0  0  0  0  0
    7.8280   47.4920   54.8550 Cl  0  0  0  0  0  0  0  0  0  0  0  0
    4.8730   47.0140   54.2910 S   0  0  0  0  0  0  0  0  0  0  0  0
    3.8970   43.9550   51.3810 N   0  0  0  0  0  0  0  0  0  0  0  0
    3.8550   45.3100   50.8130 C   0  0  0  0  0  0  0  0  0  0  0  0
    5.2590   45.9510   50.7730 C   0  0  0  0  0  0  0  0  0  0  0  0
    6.3480   44.9670   50.9770 N   0  0  0  0  0  0  0  0  0  0  0  0
    7.6460   45.5560   50.5930 C   0  0  0  0  0  0  0  0  0  0  0  0
    8.2910   46.2580   51.7960 C   0  0  0  0  0  0  0  0  0  0  0  0
    8.8610   47.6320   51.4780 C   0  0  0  0  0  0  0  0  0  0  0  0
    9.7970   46.4640   51.7350 C   0  0  0  0  0  0  0  0  0  0  0  0
    6.0710   43.7300   50.2230 C   0  0  0  0  0  0  0  0  0  0  0  0
    4.8930   43.0010   50.8740 C   0  0  0  0  0  0  0  0  0  0  0  0
    0.0235   43.8127   52.9272 H   0  0  0  0  0  0  0  0  0  0  0  0
   -0.3410   45.6670   54.7140 H   0  0  0  0  0  0  0  0  0  0  0  0
    4.8972   43.4735   54.7588 H   0  0  0  0  0  0  0  0  0  0  0  0
    7.2679   44.5026   55.1283 H   0  0  0  0  0  0  0  0  0  0  0  0
    3.4575   45.2560   49.7887 H   0  0  0  0  0  0  0  0  0  0  0  0
    3.2100   45.9317   51.4513 H   0  0  0  0  0  0  0  0  0  0  0  0
    5.3982   46.4304   49.7928 H   0  0  0  0  0  0  0  0  0  0  0  0
    5.3132   46.6788   51.5960 H   0  0  0  0  0  0  0  0  0  0  0  0
    8.3149   44.7586   50.2370 H   0  0  0  0  0  0  0  0  0  0  0  0
    7.4809   46.2947   49.7948 H   0  0  0  0  0  0  0  0  0  0  0  0
    7.6055   45.8361   52.5457 H   0  0  0  0  0  0  0  0  0  0  0  0
    8.7642   48.0461   50.4635 H   0  0  0  0  0  0  0  0  0  0  0  0
    8.7415   48.6403   51.9012 H   0  0  0  0  0  0  0  0  0  0  0  0
   10.3779   46.0323   50.9066 H   0  0  0  0  0  0  0  0  0  0  0  0
   10.6359   46.2763   52.4214 H   0  0  0  0  0  0  0  0  0  0  0  0
    5.8191   43.9814   49.1822 H   0  0  0  0  0  0  0  0  0  0  0  0
    6.9599   43.0821   50.2336 H   0  0  0  0  0  0  0  0  0  0  0  0
    4.4176   42.3477   50.1275 H   0  0  0  0  0  0  0  0  0  0  0  0
    5.2723   42.4086   51.7197 H   0  0  0  0  0  0  0  0  0  0  0  0
  1  2  2  0
  2  3  1  0
  3  4  2  0
  4  5  1  0
  5  6  1  0
  6  7  2  0
  7  8  1  0
  8  9  2  0
  9 10  1  0
 10 11  2  0
 11 12  1  0
 11 13  1  0
  2 14  1  0
 14 15  1  0
 15 16  1  0
 16 17  1  0
 17 18  1  0
 18 19  1  0
 19 20  1  0
 20 21  1  0
 17 22  1  0
 22 23  1  0
  7  3  1  0
 13  8  1  0
 23 14  1  0
 21 19  1  0
  4 24  1  0
  5 25  1  0
  9 26  1  0
 10 27  1  0
 15 28  1  0
 15 29  1  0
 16 30  1  0
 16 31  1  0
 18 32  1  0
 18 33  1  0
 19 34  1  0
 20 35  1  0
 20 36  1  0
 21 37  1  0
 21 38  1  0
 22 39  1  0
 22 40  1  0
 23 41  1  0
 23 42  1  0
M  END
>  <meeko>  (3) 
{"is_sidechain": [false], "free_energy": -7.865, "intermolecular_energy": -9.444, "internal_energy": -0.795}

$$$$
ligand_36_conformer_4_docked
     RDKit          3D

 42 45  0  0  0  0  0  0  0  0999 V2000
    1.6490   46.6420   52.6170 O   0  0  0  0  0  0  0  0  0  0  0  0
    2.3760   45.7330   53.1000 C   0  0  0  0  0  0  0  0  0  0  0  0
    1.8090   44.3810   53.2600 C   0  0  0  0  0  0  0  0  0  0  0  0
    2.1050   43.2840   52.4780 C   0  0  0  0  0  0  0  0  0  0  0  0
    1.3130   42.2660   52.8590 N   0  0  0  0  0  0  0  0  0  0  0  0
    0.5320   42.6510   53.8560 N   0  0  0  0  0  0  0  0  0  0  0  0
    0.8200   43.9380   54.1300 C   0  0  0  0  0  0  0  0  0  0  0  0
    0.1970   44.6790   55.2370 C   0  0  0  0  0  0  0  0  0  0  0  0
    0.8570   45.2680   56.3120 C   0  0  0  0  0  0  0  0  0  0  0  0
   -0.0110   45.8690   57.2300 C   0  0  0  0  0  0  0  0  0  0  0  0
   -1.3460   45.7420   56.8800 C   0  0  0  0  0  0  0  0  0  0  0  0
   -2.7030   46.3690   57.7920 Cl  0  0  0  0  0  0  0  0  0  0  0  0
   -1.4610   44.8770   55.4450 S   0  0  0  0  0  0  0  0  0  0  0  0
    3.7270   46.0390   53.5000 N   0  0  0  0  0  0  0  0  0  0  0  0
    4.2680   45.5180   54.7640 C   0  0  0  0  0  0  0  0  0  0  0  0
    5.7690   45.1790   54.6390 C   0  0  0  0  0  0  0  0  0  0  0  0
    6.3930   45.7610   53.4280 N   0  0  0  0  0  0  0  0  0  0  0  0
    7.8640   45.7020   53.5350 C   0  0  0  0  0  0  0  0  0  0  0  0
    8.4950   46.9610   52.9220 C   0  0  0  0  0  0  0  0  0  0  0  0
    9.6280   46.6740   51.9480 C   0  0  0  0  0  0  0  0  0  0  0  0
    9.9340   47.2600   53.3160 C   0  0  0  0  0  0  0  0  0  0  0  0
    5.9220   47.1430   53.2210 C   0  0  0  0  0  0  0  0  0  0  0  0
    4.4490   47.1110   52.8040 C   0  0  0  0  0  0  0  0  0  0  0  0
    2.8601   43.2479   51.6789 H   0  0  0  0  0  0  0  0  0  0  0  0
    1.3000   41.3110   52.4390 H   0  0  0  0  0  0  0  0  0  0  0  0
    1.9509   45.2615   56.4279 H   0  0  0  0  0  0  0  0  0  0  0  0
    0.3311   46.3892   58.1369 H   0  0  0  0  0  0  0  0  0  0  0  0
    4.1371   46.2774   55.5490 H   0  0  0  0  0  0  0  0  0  0  0  0
    3.7254   44.5954   55.0178 H   0  0  0  0  0  0  0  0  0  0  0  0
    6.2917   45.5688   55.5249 H   0  0  0  0  0  0  0  0  0  0  0  0
    5.8548   44.0851   54.5611 H   0  0  0  0  0  0  0  0  0  0  0  0
    8.1481   45.6335   54.5955 H   0  0  0  0  0  0  0  0  0  0  0  0
    8.2269   44.8185   52.9894 H   0  0  0  0  0  0  0  0  0  0  0  0
    7.5662   47.5503   52.9090 H   0  0  0  0  0  0  0  0  0  0  0  0
    9.9071   45.6347   51.7201 H   0  0  0  0  0  0  0  0  0  0  0  0
    9.8533   46.9622   50.9106 H   0  0  0  0  0  0  0  0  0  0  0  0
   10.4346   46.6449   54.0783 H   0  0  0  0  0  0  0  0  0  0  0  0
   10.4724   48.1480   53.6788 H   0  0  0  0  0  0  0  0  0  0  0  0
    6.0282   47.7127   54.1560 H   0  0  0  0  0  0  0  0  0  0  0  0
    6.5204   47.6254   52.4341 H   0  0  0  0  0  0  0  0  0  0  0  0
    3.9843   48.0768   53.0514 H   0  0  0  0  0  0  0  0  0  0  0  0
    4.3959   46.9230   51.7215 H   0  0  0  0  0  0  0  0  0  0  0  0
  1  2  2  0
  2  3  1  0
  3  4  2  0
  4  5  1  0
  5  6  1  0
  6  7  2  0
  7  8  1  0
  8  9  2  0
  9 10  1  0
 10 11  2  0
 11 12  1  0
 11 13  1  0
  2 14  1  0
 14 15  1  0
 15 16  1  0
 16 17  1  0
 17 18  1  0
 18 19  1  0
 19 20  1  0
 20 21  1  0
 17 22  1  0
 22 23  1  0
  7  3  1  0
 13  8  1  0
 23 14  1  0
 21 19  1  0
  4 24  1  0
  5 25  1  0
  9 26  1  0
 10 27  1  0
 15 28  1  0
 15 29  1  0
 16 30  1  0
 16 31  1  0
 18 32  1  0
 18 33  1  0
 19 34  1  0
 20 35  1  0
 20 36  1  0
 21 37  1  0
 21 38  1  0
 22 39  1  0
 22 40  1  0
 23 41  1  0
 23 42  1  0
M  END
>  <meeko>  (4) 
{"is_sidechain": [false], "free_energy": -7.785, "intermolecular_energy": -9.412, "internal_energy": -0.727}

$$$$
ligand_36_conformer_4_docked
     RDKit          3D

 42 45  0  0  0  0  0  0  0  0999 V2000
    2.7220   43.0620   52.4730 O   0  0  0  0  0  0  0  0  0  0  0  0
    3.0610   44.1700   52.9690 C   0  0  0  0  0  0  0  0  0  0  0  0
    2.3540   44.6570   54.1680 C   0  0  0  0  0  0  0  0  0  0  0  0
    2.9470   45.1090   55.3280 C   0  0  0  0  0  0  0  0  0  0  0  0
    1.9820   45.3620   56.2290 N   0  0  0  0  0  0  0  0  0  0  0  0
    0.7950   45.1050   55.7010 N   0  0  0  0  0  0  0  0  0  0  0  0
    0.9910   44.6810   54.4370 C   0  0  0  0  0  0  0  0  0  0  0  0
   -0.1150   44.3760   53.5160 C   0  0  0  0  0  0  0  0  0  0  0  0
   -1.0700   43.3760   53.6740 C   0  0  0  0  0  0  0  0  0  0  0  0
   -1.9750   43.3030   52.6100 C   0  0  0  0  0  0  0  0  0  0  0  0
   -1.7220   44.2360   51.6160 C   0  0  0  0  0  0  0  0  0  0  0  0
   -2.6460   44.4330   50.1420 Cl  0  0  0  0  0  0  0  0  0  0  0  0
   -0.3750   45.1450   52.0420 S   0  0  0  0  0  0  0  0  0  0  0  0
    4.1100   44.9380   52.3460 N   0  0  0  0  0  0  0  0  0  0  0  0
    3.9710   46.3910   52.1740 C   0  0  0  0  0  0  0  0  0  0  0  0
    5.3260   47.1120   52.3370 C   0  0  0  0  0  0  0  0  0  0  0  0
    6.4820   46.1870   52.2810 N   0  0  0  0  0  0  0  0  0  0  0  0
    7.7340   46.9470   52.0970 C   0  0  0  0  0  0  0  0  0  0  0  0
    8.8970   46.2400   52.8090 C   0  0  0  0  0  0  0  0  0  0  0  0
    9.8920   47.1890   53.4600 C   0  0  0  0  0  0  0  0  0  0  0  0
   10.2800   46.4280   52.2030 C   0  0  0  0  0  0  0  0  0  0  0  0
    6.2920   45.1910   51.2100 C   0  0  0  0  0  0  0  0  0  0  0  0
    5.1690   44.2320   51.6140 C   0  0  0  0  0  0  0  0  0  0  0  0
    4.0272   45.2403   55.4889 H   0  0  0  0  0  0  0  0  0  0  0  0
    2.1280   45.7030   57.2040 H   0  0  0  0  0  0  0  0  0  0  0  0
   -1.1092   42.7096   54.5483 H   0  0  0  0  0  0  0  0  0  0  0  0
   -2.8025   42.5796   52.5663 H   0  0  0  0  0  0  0  0  0  0  0  0
    3.5759   46.5957   51.1680 H   0  0  0  0  0  0  0  0  0  0  0  0
    3.2851   46.7661   52.9478 H   0  0  0  0  0  0  0  0  0  0  0  0
    5.4292   47.8519   51.5296 H   0  0  0  0  0  0  0  0  0  0  0  0
    5.3303   47.5858   53.3297 H   0  0  0  0  0  0  0  0  0  0  0  0
    7.9582   47.0221   51.0227 H   0  0  0  0  0  0  0  0  0  0  0  0
    7.6090   47.9516   52.5273 H   0  0  0  0  0  0  0  0  0  0  0  0
    8.3120   45.3633   53.1240 H   0  0  0  0  0  0  0  0  0  0  0  0
    9.7255   48.2754   53.4157 H   0  0  0  0  0  0  0  0  0  0  0  0
   10.3200   47.2955   54.4677 H   0  0  0  0  0  0  0  0  0  0  0  0
   10.3942   46.9637   51.2491 H   0  0  0  0  0  0  0  0  0  0  0  0
   11.1049   45.7557   51.9244 H   0  0  0  0  0  0  0  0  0  0  0  0
    6.0213   45.7025   50.2746 H   0  0  0  0  0  0  0  0  0  0  0  0
    7.2244   44.6277   51.0569 H   0  0  0  0  0  0  0  0  0  0  0  0
    4.7395   43.7795   50.7080 H   0  0  0  0  0  0  0  0  0  0  0  0
    5.5906   43.4564   52.2703 H   0  0  0  0  0  0  0  0  0  0  0  0
  1  2  2  0
  2  3  1  0
  3  4  2  0
  4  5  1  0
  5  6  1  0
  6  7  2  0
  7  8  1  0
  8  9  2  0
  9 10  1  0
 10 11  2  0
 11 12  1  0
 11 13  1  0
  2 14  1  0
 14 15  1  0
 15 16  1  0
 16 17  1  0
 17 18  1  0
 18 19  1  0
 19 20  1  0
 20 21  1  0
 17 22  1  0
 22 23  1  0
  7  3  1  0
 13  8  1  0
 23 14  1  0
 21 19  1  0
  4 24  1  0
  5 25  1  0
  9 26  1  0
 10 27  1  0
 15 28  1  0
 15 29  1  0
 16 30  1  0
 16 31  1  0
 18 32  1  0
 18 33  1  0
 19 34  1  0
 20 35  1  0
 20 36  1  0
 21 37  1  0
 21 38  1  0
 22 39  1  0
 22 40  1  0
 23 41  1  0
 23 42  1  0
M  END
>  <meeko>  (5) 
{"is_sidechain": [false], "free_energy": -7.475, "intermolecular_energy": -9.261, "internal_energy": -0.496}

$$$$
