ligand_31_conformer_4_docked
     RDKit          3D

 48 51  0  0  0  0  0  0  0  0999 V2000
    5.9990   43.2580   50.0800 C   0  0  0  0  0  0  0  0  0  0  0  0
    5.3150   43.6090   51.4000 C   0  0  0  0  0  0  0  0  0  0  0  0
    4.7650   45.0540   51.4110 C   0  0  2  0  0  0  0  0  0  0  0  0
    5.8110   46.0510   50.8910 C   0  0  0  0  0  0  0  0  0  0  0  0
    6.8960   46.3250   51.9040 C   0  0  0  0  0  0  0  0  0  0  0  0
    8.1210   46.8550   51.4650 C   0  0  0  0  0  0  0  0  0  0  0  0
    9.1250   47.1690   52.3830 C   0  0  0  0  0  0  0  0  0  0  0  0
    8.9140   46.9680   53.7480 C   0  0  0  0  0  0  0  0  0  0  0  0
    7.6950   46.4560   54.2000 C   0  0  0  0  0  0  0  0  0  0  0  0
    6.6730   46.1440   53.2900 C   0  0  0  0  0  0  0  0  0  0  0  0
    5.3870   45.5500   53.8130 C   0  0  0  0  0  0  0  0  0  0  0  0
    4.3570   45.4740   52.7650 N   0  0  0  0  0  0  0  0  0  0  0  0
    3.0370   46.0020   53.0170 C   0  0  0  0  0  0  0  0  0  0  0  0
    2.7700   47.1900   52.6860 O   0  0  0  0  0  0  0  0  0  0  0  0
    1.9510   45.1520   53.6390 C   0  0  1  0  0  0  0  0  0  0  0  0
    2.0430   43.6900   53.1250 C   0  0  0  0  0  0  0  0  0  0  0  0
    0.9700   42.7280   53.6730 C   0  0  0  0  0  0  0  0  0  0  0  0
   -0.2910   43.4350   54.0580 C   0  0  0  0  0  0  0  0  0  0  0  0
   -1.4910   43.1780   53.5050 N   0  0  0  0  0  0  0  0  0  0  0  0
   -2.3630   43.9870   54.0880 N   0  0  0  0  0  0  0  0  0  0  0  0
   -1.6820   44.7270   54.9850 C   0  0  0  0  0  0  0  0  0  0  0  0
   -0.3740   44.4130   54.9830 N   0  0  0  0  0  0  0  0  0  0  0  0
    0.6530   44.9780   55.8690 C   0  0  0  0  0  0  0  0  0  0  0  0
    2.0120   45.2400   55.1820 C   0  0  0  0  0  0  0  0  0  0  0  0
    6.9605   42.7646   50.2851 H   0  0  0  0  0  0  0  0  0  0  0  0
    5.3545   42.5792   49.5022 H   0  0  0  0  0  0  0  0  0  0  0  0
    6.1746   44.1774   49.5022 H   0  0  0  0  0  0  0  0  0  0  0  0
    4.4799   42.9116   51.5619 H   0  0  0  0  0  0  0  0  0  0  0  0
    6.0663   43.5293   52.1995 H   0  0  0  0  0  0  0  0  0  0  0  0
    3.8861   45.0548   50.7496 H   0  0  0  0  0  0  0  0  0  0  0  0
    6.2722   45.6376   49.9820 H   0  0  0  0  0  0  0  0  0  0  0  0
    5.2963   47.0010   50.6845 H   0  0  0  0  0  0  0  0  0  0  0  0
    8.2901   47.0236   50.3912 H   0  0  0  0  0  0  0  0  0  0  0  0
   10.0841   47.5756   52.0298 H   0  0  0  0  0  0  0  0  0  0  0  0
    9.7082   47.2129   54.4687 H   0  0  0  0  0  0  0  0  0  0  0  0
    7.5352   46.2963   55.2766 H   0  0  0  0  0  0  0  0  0  0  0  0
    5.5894   44.5360   54.1882 H   0  0  0  0  0  0  0  0  0  0  0  0
    5.0110   46.1999   54.6169 H   0  0  0  0  0  0  0  0  0  0  0  0
    0.9688   45.5405   53.3318 H   0  0  0  0  0  0  0  0  0  0  0  0
    1.9536   43.7093   52.0288 H   0  0  0  0  0  0  0  0  0  0  0  0
    3.0085   43.3029   53.4828 H   0  0  0  0  0  0  0  0  0  0  0  0
    0.7346   41.9838   52.8979 H   0  0  0  0  0  0  0  0  0  0  0  0
    1.3772   42.2543   54.5784 H   0  0  0  0  0  0  0  0  0  0  0  0
   -2.1369   45.4892   55.6348 H   0  0  0  0  0  0  0  0  0  0  0  0
    0.2780   45.9329   56.2659 H   0  0  0  0  0  0  0  0  0  0  0  0
    0.8365   44.2306   56.6549 H   0  0  0  0  0  0  0  0  0  0  0  0
    2.3539   46.2479   55.4599 H   0  0  0  0  0  0  0  0  0  0  0  0
    2.7035   44.4556   55.5235 H   0  0  0  0  0  0  0  0  0  0  0  0
  1  2  1  0
  2  3  1  0
  3  4  1  0
  4  5  1  0
  5  6  2  0
  6  7  1  0
  7  8  2  0
  8  9  1  0
  9 10  2  0
 10 11  1  0
 11 12  1  0
 12 13  1  0
 13 14  2  0
 13 15  1  0
 15 16  1  0
 16 17  1  0
 17 18  1  0
 18 19  2  0
 19 20  1  0
 20 21  2  0
 21 22  1  0
 22 23  1  0
 23 24  1  0
 12  3  1  0
 24 15  1  0
 10  5  1  0
 22 18  1  0
  1 25  1  0
  1 26  1  0
  1 27  1  0
  2 28  1  0
  2 29  1  0
  3 30  1  6
  4 31  1  0
  4 32  1  0
  6 33  1  0
  7 34  1  0
  8 35  1  0
  9 36  1  0
 11 37  1  0
 11 38  1  0
 15 39  1  6
 16 40  1  0
 16 41  1  0
 17 42  1  0
 17 43  1  0
 21 44  1  0
 23 45  1  0
 23 46  1  0
 24 47  1  0
 24 48  1  0
M  END
>  <meeko>  (1) 
{"is_sidechain": [false], "free_energy": -7.252, "intermolecular_energy": -10.643, "internal_energy": -0.128}

$$$$
ligand_31_conformer_4_docked
     RDKit          3D

 48 51  0  0  0  0  0  0  0  0999 V2000
    5.7820   43.3920   50.2600 C   0  0  0  0  0  0  0  0  0  0  0  0
    5.4090   43.5710   51.7310 C   0  0  0  0  0  0  0  0  0  0  0  0
    4.8880   44.9940   52.0370 C   0  0  2  0  0  0  0  0  0  0  0  0
    5.7010   46.0580   51.2840 C   0  0  0  0  0  0  0  0  0  0  0  0
    7.0580   46.2880   51.9050 C   0  0  0  0  0  0  0  0  0  0  0  0
    8.0680   46.8850   51.1330 C   0  0  0  0  0  0  0  0  0  0  0  0
    9.3180   47.1600   51.6940 C   0  0  0  0  0  0  0  0  0  0  0  0
    9.5670   46.8520   53.0320 C   0  0  0  0  0  0  0  0  0  0  0  0
    8.5670   46.2710   53.8160 C   0  0  0  0  0  0  0  0  0  0  0  0
    7.3030   45.9980   53.2690 C   0  0  0  0  0  0  0  0  0  0  0  0
    6.2630   45.3290   54.1340 C   0  0  0  0  0  0  0  0  0  0  0  0
    4.9460   45.3000   53.4790 N   0  0  0  0  0  0  0  0  0  0  0  0
    3.7810   45.7680   54.1910 C   0  0  0  0  0  0  0  0  0  0  0  0
    3.8960   46.7210   55.0110 O   0  0  0  0  0  0  0  0  0  0  0  0
    2.4130   45.1680   53.9510 C   0  0  1  0  0  0  0  0  0  0  0  0
    1.6900   44.9060   55.2990 C   0  0  0  0  0  0  0  0  0  0  0  0
    0.1850   44.5490   55.1570 C   0  0  0  0  0  0  0  0  0  0  0  0
   -0.0840   43.6690   53.9770 C   0  0  0  0  0  0  0  0  0  0  0  0
   -0.5670   42.4170   54.0730 N   0  0  0  0  0  0  0  0  0  0  0  0
   -0.6750   41.9510   52.8380 N   0  0  0  0  0  0  0  0  0  0  0  0
   -0.2540   42.9240   52.0080 C   0  0  0  0  0  0  0  0  0  0  0  0
    0.1370   44.0150   52.6920 N   0  0  0  0  0  0  0  0  0  0  0  0
    0.5990   45.2820   52.1110 C   0  0  0  0  0  0  0  0  0  0  0  0
    1.5870   46.0680   53.0030 C   0  0  0  0  0  0  0  0  0  0  0  0
    6.7716   42.9171   50.1878 H   0  0  0  0  0  0  0  0  0  0  0  0
    5.0329   42.7553   49.7666 H   0  0  0  0  0  0  0  0  0  0  0  0
    5.8101   44.3747   49.7666 H   0  0  0  0  0  0  0  0  0  0  0  0
    4.6239   42.8444   51.9875 H   0  0  0  0  0  0  0  0  0  0  0  0
    6.3176   43.4101   52.3298 H   0  0  0  0  0  0  0  0  0  0  0  0
    3.8404   45.0177   51.7022 H   0  0  0  0  0  0  0  0  0  0  0  0
    5.8393   45.7271   50.2441 H   0  0  0  0  0  0  0  0  0  0  0  0
    5.1434   47.0049   51.3335 H   0  0  0  0  0  0  0  0  0  0  0  0
    7.8739   47.1377   50.0802 H   0  0  0  0  0  0  0  0  0  0  0  0
   10.1065   47.6198   51.0801 H   0  0  0  0  0  0  0  0  0  0  0  0
   10.5526   47.0671   53.4705 H   0  0  0  0  0  0  0  0  0  0  0  0
    8.7713   46.0259   54.8687 H   0  0  0  0  0  0  0  0  0  0  0  0
    6.5814   44.2964   54.3398 H   0  0  0  0  0  0  0  0  0  0  0  0
    6.1695   45.9063   55.0657 H   0  0  0  0  0  0  0  0  0  0  0  0
    2.5283   44.1940   53.4529 H   0  0  0  0  0  0  0  0  0  0  0  0
    2.1962   44.0707   55.8050 H   0  0  0  0  0  0  0  0  0  0  0  0
    1.7391   45.8443   55.8709 H   0  0  0  0  0  0  0  0  0  0  0  0
   -0.1417   44.0272   56.0685 H   0  0  0  0  0  0  0  0  0  0  0  0
   -0.3696   45.4873   55.0088 H   0  0  0  0  0  0  0  0  0  0  0  0
   -0.2324   42.8382   50.9116 H   0  0  0  0  0  0  0  0  0  0  0  0
    1.0979   45.0613   51.1558 H   0  0  0  0  0  0  0  0  0  0  0  0
   -0.2913   45.9170   51.9916 H   0  0  0  0  0  0  0  0  0  0  0  0
    2.2822   46.6179   52.3516 H   0  0  0  0  0  0  0  0  0  0  0  0
    0.9877   46.7395   53.6354 H   0  0  0  0  0  0  0  0  0  0  0  0
  1  2  1  0
  2  3  1  0
  3  4  1  0
  4  5  1  0
  5  6  2  0
  6  7  1  0
  7  8  2  0
  8  9  1  0
  9 10  2  0
 10 11  1  0
 11 12  1  0
 12 13  1  0
 13 14  2  0
 13 15  1  0
 15 16  1  0
 16 17  1  0
 17 18  1  0
 18 19  2  0
 19 20  1  0
 20 21  2  0
 21 22  1  0
 22 23  1  0
 23 24  1  0
 12  3  1  0
 24 15  1  0
 10  5  1  0
 22 18  1  0
  1 25  1  0
  1 26  1  0
  1 27  1  0
  2 28  1  0
  2 29  1  0
  3 30  1  6
  4 31  1  0
  4 32  1  0
  6 33  1  0
  7 34  1  0
  8 35  1  0
  9 36  1  0
 11 37  1  0
 11 38  1  0
 15 39  1  6
 16 40  1  0
 16 41  1  0
 17 42  1  0
 17 43  1  0
 21 44  1  0
 23 45  1  0
 23 46  1  0
 24 47  1  0
 24 48  1  0
M  END
>  <meeko>  (2) 
{"is_sidechain": [false], "free_energy": -7.149, "intermolecular_energy": -10.578, "internal_energy": -0.042}

$$$$
ligand_31_conformer_4_docked
     RDKit          3D

 48 51  0  0  0  0  0  0  0  0999 V2000
    3.4720   47.9530   52.7220 C   0  0  0  0  0  0  0  0  0  0  0  0
    4.7010   47.7320   53.6010 C   0  0  0  0  0  0  0  0  0  0  0  0
    5.0460   46.2340   53.7640 C   0  0  2  0  0  0  0  0  0  0  0  0
    6.3860   46.0470   54.4910 C   0  0  0  0  0  0  0  0  0  0  0  0
    7.5670   46.3480   53.6010 C   0  0  0  0  0  0  0  0  0  0  0  0
    8.8090   46.6390   54.1910 C   0  0  0  0  0  0  0  0  0  0  0  0
    9.9330   46.8700   53.3960 C   0  0  0  0  0  0  0  0  0  0  0  0
    9.8330   46.8020   52.0060 C   0  0  0  0  0  0  0  0  0  0  0  0
    8.6080   46.4980   51.4060 C   0  0  0  0  0  0  0  0  0  0  0  0
    7.4720   46.2540   52.1920 C   0  0  0  0  0  0  0  0  0  0  0  0
    6.1560   45.9740   51.5060 C   0  0  0  0  0  0  0  0  0  0  0  0
    5.1240   45.5450   52.4620 N   0  0  0  0  0  0  0  0  0  0  0  0
    4.3620   44.3460   52.2040 C   0  0  0  0  0  0  0  0  0  0  0  0
    4.9260   43.3580   51.6560 O   0  0  0  0  0  0  0  0  0  0  0  0
    2.9090   44.2300   52.6090 C   0  0  1  0  0  0  0  0  0  0  0  0
    2.0190   45.1270   51.7070 C   0  0  0  0  0  0  0  0  0  0  0  0
    0.6050   45.4310   52.2850 C   0  0  0  0  0  0  0  0  0  0  0  0
   -0.3100   44.2540   52.1590 C   0  0  0  0  0  0  0  0  0  0  0  0
   -1.5070   44.3000   51.5450 N   0  0  0  0  0  0  0  0  0  0  0  0
   -2.0270   43.0850   51.6290 N   0  0  0  0  0  0  0  0  0  0  0  0
   -1.1420   42.3170   52.2940 C   0  0  0  0  0  0  0  0  0  0  0  0
   -0.0560   43.0250   52.6530 N   0  0  0  0  0  0  0  0  0  0  0  0
    1.1310   42.5000   53.3400 C   0  0  0  0  0  0  0  0  0  0  0  0
    2.4610   42.7500   52.5930 C   0  0  0  0  0  0  0  0  0  0  0  0
    2.5894   48.1117   53.3590 H   0  0  0  0  0  0  0  0  0  0  0  0
    3.6296   48.8372   52.0869 H   0  0  0  0  0  0  0  0  0  0  0  0
    3.3117   47.0693   52.0869 H   0  0  0  0  0  0  0  0  0  0  0  0
    5.5598   48.2447   53.1432 H   0  0  0  0  0  0  0  0  0  0  0  0
    4.4767   48.1355   54.5994 H   0  0  0  0  0  0  0  0  0  0  0  0
    4.2330   45.7937   54.3600 H   0  0  0  0  0  0  0  0  0  0  0  0
    6.4153   46.7229   55.3584 H   0  0  0  0  0  0  0  0  0  0  0  0
    6.4572   44.9937   54.8001 H   0  0  0  0  0  0  0  0  0  0  0  0
    8.8960   46.6850   55.2866 H   0  0  0  0  0  0  0  0  0  0  0  0
   10.8990   47.1060   53.8662 H   0  0  0  0  0  0  0  0  0  0  0  0
   10.7194   46.9879   51.3817 H   0  0  0  0  0  0  0  0  0  0  0  0
    8.5341   46.4497   50.3095 H   0  0  0  0  0  0  0  0  0  0  0  0
    5.8153   46.8900   51.0011 H   0  0  0  0  0  0  0  0  0  0  0  0
    6.3129   45.1600   50.7830 H   0  0  0  0  0  0  0  0  0  0  0  0
    2.7919   44.5934   53.6406 H   0  0  0  0  0  0  0  0  0  0  0  0
    2.5399   46.0838   51.5546 H   0  0  0  0  0  0  0  0  0  0  0  0
    1.8595   44.5678   50.7733 H   0  0  0  0  0  0  0  0  0  0  0  0
    0.7037   45.6933   53.3487 H   0  0  0  0  0  0  0  0  0  0  0  0
    0.1724   46.2641   51.7116 H   0  0  0  0  0  0  0  0  0  0  0  0
   -1.2885   41.2494   52.5148 H   0  0  0  0  0  0  0  0  0  0  0  0
    1.1962   42.9776   54.3287 H   0  0  0  0  0  0  0  0  0  0  0  0
    1.0036   41.4090   53.3997 H   0  0  0  0  0  0  0  0  0  0  0  0
    3.2463   42.1434   53.0678 H   0  0  0  0  0  0  0  0  0  0  0  0
    2.2982   42.4727   51.5410 H   0  0  0  0  0  0  0  0  0  0  0  0
  1  2  1  0
  2  3  1  0
  3  4  1  0
  4  5  1  0
  5  6  2  0
  6  7  1  0
  7  8  2  0
  8  9  1  0
  9 10  2  0
 10 11  1  0
 11 12  1  0
 12 13  1  0
 13 14  2  0
 13 15  1  0
 15 16  1  0
 16 17  1  0
 17 18  1  0
 18 19  2  0
 19 20  1  0
 20 21  2  0
 21 22  1  0
 22 23  1  0
 23 24  1  0
 12  3  1  0
 24 15  1  0
 10  5  1  0
 22 18  1  0
  1 25  1  0
  1 26  1  0
  1 27  1  0
  2 28  1  0
  2 29  1  0
  3 30  1  1
  4 31  1  0
  4 32  1  0
  6 33  1  0
  7 34  1  0
  8 35  1  0
  9 36  1  0
 11 37  1  0
 11 38  1  0
 15 39  1  1
 16 40  1  0
 16 41  1  0
 17 42  1  0
 17 43  1  0
 21 44  1  0
 23 45  1  0
 23 46  1  0
 24 47  1  0
 24 48  1  0
M  END
>  <meeko>  (3) 
{"is_sidechain": [false], "free_energy": -6.966, "intermolecular_energy": -10.27, "internal_energy": -0.081}

$$$$
ligand_31_conformer_4_docked
     RDKit          3D

 48 51  0  0  0  0  0  0  0  0999 V2000
    5.8400   45.2100   55.4250 C   0  0  0  0  0  0  0  0  0  0  0  0
    4.6070   45.0030   54.5470 C   0  0  0  0  0  0  0  0  0  0  0  0
    4.7400   45.7010   53.1730 C   0  0  2  0  0  0  0  0  0  0  0  0
    3.3750   46.1900   52.6640 C   0  0  0  0  0  0  0  0  0  0  0  0
    2.5190   45.0610   52.1460 C   0  0  0  0  0  0  0  0  0  0  0  0
    1.1300   45.2500   52.0440 C   0  0  0  0  0  0  0  0  0  0  0  0
    0.3160   44.2430   51.5190 C   0  0  0  0  0  0  0  0  0  0  0  0
    0.8800   43.0450   51.0800 C   0  0  0  0  0  0  0  0  0  0  0  0
    2.2610   42.8490   51.1610 C   0  0  0  0  0  0  0  0  0  0  0  0
    3.0930   43.8550   51.6780 C   0  0  0  0  0  0  0  0  0  0  0  0
    4.5750   43.5880   51.7920 C   0  0  0  0  0  0  0  0  0  0  0  0
    5.3190   44.8030   52.1570 N   0  0  0  0  0  0  0  0  0  0  0  0
    6.4720   45.1970   51.3830 C   0  0  0  0  0  0  0  0  0  0  0  0
    6.5740   44.8160   50.1830 O   0  0  0  0  0  0  0  0  0  0  0  0
    7.5480   46.0890   51.9630 C   0  0  1  0  0  0  0  0  0  0  0  0
    8.9520   45.6250   51.4910 C   0  0  0  0  0  0  0  0  0  0  0  0
   10.1470   46.4110   52.0940 C   0  0  0  0  0  0  0  0  0  0  0  0
    9.8100   47.0600   53.3990 C   0  0  0  0  0  0  0  0  0  0  0  0
   10.4580   46.8060   54.5510 N   0  0  0  0  0  0  0  0  0  0  0  0
    9.8910   47.5550   55.4840 N   0  0  0  0  0  0  0  0  0  0  0  0
    8.9040   48.2530   54.8890 C   0  0  0  0  0  0  0  0  0  0  0  0
    8.8180   47.9560   53.5800 N   0  0  0  0  0  0  0  0  0  0  0  0
    7.8970   48.5670   52.6130 C   0  0  0  0  0  0  0  0  0  0  0  0
    7.2680   47.5700   51.6140 C   0  0  0  0  0  0  0  0  0  0  0  0
    5.5481   45.1610   56.4844 H   0  0  0  0  0  0  0  0  0  0  0  0
    6.5785   44.4233   55.2114 H   0  0  0  0  0  0  0  0  0  0  0  0
    6.2811   46.1948   55.2114 H   0  0  0  0  0  0  0  0  0  0  0  0
    4.4663   43.9243   54.3835 H   0  0  0  0  0  0  0  0  0  0  0  0
    3.7453   45.4465   55.0674 H   0  0  0  0  0  0  0  0  0  0  0  0
    5.4120   46.5584   53.3256 H   0  0  0  0  0  0  0  0  0  0  0  0
    2.8453   46.6845   53.4916 H   0  0  0  0  0  0  0  0  0  0  0  0
    3.5559   46.8848   51.8306 H   0  0  0  0  0  0  0  0  0  0  0  0
    0.6810   46.1965   52.3795 H   0  0  0  0  0  0  0  0  0  0  0  0
   -0.7714   44.3951   51.4517 H   0  0  0  0  0  0  0  0  0  0  0  0
    0.2363   42.2532   50.6693 H   0  0  0  0  0  0  0  0  0  0  0  0
    2.6993   41.9004   50.8175 H   0  0  0  0  0  0  0  0  0  0  0  0
    4.7412   42.8225   52.5643 H   0  0  0  0  0  0  0  0  0  0  0  0
    4.9383   43.2442   50.8123 H   0  0  0  0  0  0  0  0  0  0  0  0
    7.5330   46.0063   53.0598 H   0  0  0  0  0  0  0  0  0  0  0  0
    9.0695   44.5658   51.7636 H   0  0  0  0  0  0  0  0  0  0  0  0
    8.9841   45.8067   50.4066 H   0  0  0  0  0  0  0  0  0  0  0  0
   10.9828   45.7137   52.2529 H   0  0  0  0  0  0  0  0  0  0  0  0
   10.4127   47.2085   51.3845 H   0  0  0  0  0  0  0  0  0  0  0  0
    8.2528   48.9726   55.4068 H   0  0  0  0  0  0  0  0  0  0  0  0
    7.0839   49.0533   53.1719 H   0  0  0  0  0  0  0  0  0  0  0  0
    8.4912   49.2758   52.0176 H   0  0  0  0  0  0  0  0  0  0  0  0
    6.1792   47.7260   51.6050 H   0  0  0  0  0  0  0  0  0  0  0  0
    7.7247   47.7635   50.6321 H   0  0  0  0  0  0  0  0  0  0  0  0
  1  2  1  0
  2  3  1  0
  3  4  1  0
  4  5  1  0
  5  6  2  0
  6  7  1  0
  7  8  2  0
  8  9  1  0
  9 10  2  0
 10 11  1  0
 11 12  1  0
 12 13  1  0
 13 14  2  0
 13 15  1  0
 15 16  1  0
 16 17  1  0
 17 18  1  0
 18 19  2  0
 19 20  1  0
 20 21  2  0
 21 22  1  0
 22 23  1  0
 23 24  1  0
 12  3  1  0
 24 15  1  0
 10  5  1  0
 22 18  1  0
  1 25  1  0
  1 26  1  0
  1 27  1  0
  2 28  1  0
  2 29  1  0
  3 30  1  1
  4 31  1  0
  4 32  1  0
  6 33  1  0
  7 34  1  0
  8 35  1  0
  9 36  1  0
 11 37  1  0
 11 38  1  0
 15 39  1  1
 16 40  1  0
 16 41  1  0
 17 42  1  0
 17 43  1  0
 21 44  1  0
 23 45  1  0
 23 46  1  0
 24 47  1  0
 24 48  1  0
M  END
>  <meeko>  (4) 
{"is_sidechain": [false], "free_energy": -6.349, "intermolecular_energy": -9.223, "internal_energy": -0.223}

$$$$
ligand_31_conformer_4_docked
     RDKit          3D

 48 51  0  0  0  0  0  0  0  0999 V2000
    4.5420   41.6290   50.8410 C   0  0  0  0  0  0  0  0  0  0  0  0
    3.3430   42.5700   50.9400 C   0  0  0  0  0  0  0  0  0  0  0  0
    3.1950   43.1890   52.3490 C   0  0  2  0  0  0  0  0  0  0  0  0
    1.9850   42.6010   53.0910 C   0  0  0  0  0  0  0  0  0  0  0  0
    0.6760   43.1520   52.5770 C   0  0  0  0  0  0  0  0  0  0  0  0
   -0.5090   42.4390   52.8280 C   0  0  0  0  0  0  0  0  0  0  0  0
   -1.7410   42.9480   52.4130 C   0  0  0  0  0  0  0  0  0  0  0  0
   -1.8050   44.1760   51.7540 C   0  0  0  0  0  0  0  0  0  0  0  0
   -0.6370   44.9030   51.5110 C   0  0  0  0  0  0  0  0  0  0  0  0
    0.6080   44.4090   51.9310 C   0  0  0  0  0  0  0  0  0  0  0  0
    1.8530   45.2020   51.6100 C   0  0  0  0  0  0  0  0  0  0  0  0
    3.0370   44.6540   52.2900 N   0  0  0  0  0  0  0  0  0  0  0  0
    3.8930   45.5290   53.0540 C   0  0  0  0  0  0  0  0  0  0  0  0
    3.3770   46.4140   53.7920 O   0  0  0  0  0  0  0  0  0  0  0  0
    5.4000   45.3900   53.0200 C   0  0  1  0  0  0  0  0  0  0  0  0
    6.0110   46.3470   51.9620 C   0  0  0  0  0  0  0  0  0  0  0  0
    7.4820   46.0540   51.5940 C   0  0  0  0  0  0  0  0  0  0  0  0
    8.4440   46.5550   52.6240 C   0  0  0  0  0  0  0  0  0  0  0  0
    9.7610   46.7180   52.3990 N   0  0  0  0  0  0  0  0  0  0  0  0
   10.2890   47.1720   53.5260 N   0  0  0  0  0  0  0  0  0  0  0  0
    9.2880   47.2770   54.4210 C   0  0  0  0  0  0  0  0  0  0  0  0
    8.1160   46.8850   53.8900 N   0  0  0  0  0  0  0  0  0  0  0  0
    6.8080   46.9190   54.5570 C   0  0  0  0  0  0  0  0  0  0  0  0
    5.9940   45.6120   54.4300 C   0  0  0  0  0  0  0  0  0  0  0  0
    4.8827   41.3616   51.8521 H   0  0  0  0  0  0  0  0  0  0  0  0
    4.2489   40.7173   50.2998 H   0  0  0  0  0  0  0  0  0  0  0  0
    5.3579   42.1304   50.2998 H   0  0  0  0  0  0  0  0  0  0  0  0
    3.4698   43.3820   50.2089 H   0  0  0  0  0  0  0  0  0  0  0  0
    2.4366   41.9814   50.7351 H   0  0  0  0  0  0  0  0  0  0  0  0
    4.1204   42.9454   52.8915 H   0  0  0  0  0  0  0  0  0  0  0  0
    1.9855   41.5089   52.9593 H   0  0  0  0  0  0  0  0  0  0  0  0
    2.0735   42.8770   54.1521 H   0  0  0  0  0  0  0  0  0  0  0  0
   -0.4654   41.4742   53.3546 H   0  0  0  0  0  0  0  0  0  0  0  0
   -2.6629   42.3798   52.6060 H   0  0  0  0  0  0  0  0  0  0  0  0
   -2.7769   44.5726   51.4251 H   0  0  0  0  0  0  0  0  0  0  0  0
   -0.6933   45.8687   50.9872 H   0  0  0  0  0  0  0  0  0  0  0  0
    2.0220   45.1761   50.5234 H   0  0  0  0  0  0  0  0  0  0  0  0
    1.7027   46.2337   51.9608 H   0  0  0  0  0  0  0  0  0  0  0  0
    5.6616   44.3657   52.7162 H   0  0  0  0  0  0  0  0  0  0  0  0
    5.4079   46.2728   51.0451 H   0  0  0  0  0  0  0  0  0  0  0  0
    5.9989   47.3514   52.4104 H   0  0  0  0  0  0  0  0  0  0  0  0
    7.6097   44.9662   51.4924 H   0  0  0  0  0  0  0  0  0  0  0  0
    7.7002   46.5781   50.6518 H   0  0  0  0  0  0  0  0  0  0  0  0
    9.4128   47.6369   55.4530 H   0  0  0  0  0  0  0  0  0  0  0  0
    6.9718   47.1201   55.6260 H   0  0  0  0  0  0  0  0  0  0  0  0
    6.2212   47.7046   54.0586 H   0  0  0  0  0  0  0  0  0  0  0  0
    6.6555   44.7655   54.6664 H   0  0  0  0  0  0  0  0  0  0  0  0
    5.1482   45.6884   55.1291 H   0  0  0  0  0  0  0  0  0  0  0  0
  1  2  1  0
  2  3  1  0
  3  4  1  0
  4  5  1  0
  5  6  2  0
  6  7  1  0
  7  8  2  0
  8  9  1  0
  9 10  2  0
 10 11  1  0
 11 12  1  0
 12 13  1  0
 13 14  2  0
 13 15  1  0
 15 16  1  0
 16 17  1  0
 17 18  1  0
 18 19  2  0
 19 20  1  0
 20 21  2  0
 21 22  1  0
 22 23  1  0
 23 24  1  0
 12  3  1  0
 24 15  1  0
 10  5  1  0
 22 18  1  0
  1 25  1  0
  1 26  1  0
  1 27  1  0
  2 28  1  0
  2 29  1  0
  3 30  1  1
  4 31  1  0
  4 32  1  0
  6 33  1  0
  7 34  1  0
  8 35  1  0
  9 36  1  0
 11 37  1  0
 11 38  1  0
 15 39  1  6
 16 40  1  0
 16 41  1  0
 17 42  1  0
 17 43  1  0
 21 44  1  0
 23 45  1  0
 23 46  1  0
 24 47  1  0
 24 48  1  0
M  END
>  <meeko>  (5) 
{"is_sidechain": [false], "free_energy": -6.064, "intermolecular_energy": -9.152, "internal_energy": 0.125}

$$$$
