ligand_68_conformer_4_docked
     RDKit          3D

 49 51  0  0  0  0  0  0  0  0999 V2000
   11.1660   47.8910   56.0350 C   0  0  0  0  0  0  0  0  0  0  0  0
    9.9280   47.6690   55.2280 C   0  0  0  0  0  0  0  0  0  0  0  0
    8.9580   48.4640   55.3540 O   0  0  0  0  0  0  0  0  0  0  0  0
    9.8190   46.5080   54.3880 N   0  0  0  0  0  0  0  0  0  0  0  0
    8.7780   46.3140   53.4140 C   0  0  0  0  0  0  0  0  0  0  0  0
    9.0470   46.3640   52.0340 C   0  0  0  0  0  0  0  0  0  0  0  0
    8.0210   46.1520   51.1070 C   0  0  0  0  0  0  0  0  0  0  0  0
    6.7180   45.8660   51.5430 C   0  0  0  0  0  0  0  0  0  0  0  0
    5.6160   45.6710   50.5370 C   0  0  0  0  0  0  0  0  0  0  0  0
    4.4240   45.1480   51.2020 N   0  0  0  0  0  0  0  0  0  0  0  0
    4.1820   43.7390   51.3510 C   0  0  0  0  0  0  0  0  0  0  0  0
    4.9490   42.9020   50.7980 O   0  0  0  0  0  0  0  0  0  0  0  0
    3.0000   43.2450   52.1500 C   0  0  0  0  0  0  0  0  0  0  0  0
    1.7760   43.0750   51.2320 C   0  0  0  0  0  0  0  0  0  0  0  0
    0.5210   42.7510   52.0480 C   0  0  0  0  0  0  0  0  0  0  0  0
    0.2960   43.7370   53.1200 N   0  0  0  0  0  0  0  0  0  0  0  0
   -0.9730   43.7840   53.8140 C   0  0  0  0  0  0  0  0  0  0  0  0
   -2.1980   43.6390   53.1290 C   0  0  0  0  0  0  0  0  0  0  0  0
   -3.3660   43.6950   53.8180 N   0  0  0  0  0  0  0  0  0  0  0  0
   -3.3810   43.8870   55.1630 C   0  0  0  0  0  0  0  0  0  0  0  0
   -2.1760   44.0330   55.8510 C   0  0  0  0  0  0  0  0  0  0  0  0
   -1.0060   43.9780   55.1640 N   0  0  0  0  0  0  0  0  0  0  0  0
    1.3160   44.7680   53.3800 C   0  0  0  0  0  0  0  0  0  0  0  0
    2.7230   44.1550   53.3780 C   0  0  0  0  0  0  0  0  0  0  0  0
    6.4500   45.8070   52.9190 C   0  0  0  0  0  0  0  0  0  0  0  0
    7.4760   46.0180   53.8470 C   0  0  0  0  0  0  0  0  0  0  0  0
   10.9185   47.8466   57.1059 H   0  0  0  0  0  0  0  0  0  0  0  0
   11.9039   47.1109   55.7966 H   0  0  0  0  0  0  0  0  0  0  0  0
   11.5869   48.8789   55.7966 H   0  0  0  0  0  0  0  0  0  0  0  0
   10.4920   45.7250   54.5520 H   0  0  0  0  0  0  0  0  0  0  0  0
   10.0686   46.5707   51.6824 H   0  0  0  0  0  0  0  0  0  0  0  0
    8.2368   46.2098   50.0299 H   0  0  0  0  0  0  0  0  0  0  0  0
    5.3773   46.6357   50.0655 H   0  0  0  0  0  0  0  0  0  0  0  0
    5.9472   44.9551   49.7703 H   0  0  0  0  0  0  0  0  0  0  0  0
    3.7510   45.8300   51.6190 H   0  0  0  0  0  0  0  0  0  0  0  0
    3.2354   42.2534   52.5639 H   0  0  0  0  0  0  0  0  0  0  0  0
    1.6117   44.0088   50.6743 H   0  0  0  0  0  0  0  0  0  0  0  0
    1.9693   42.2425   50.5394 H   0  0  0  0  0  0  0  0  0  0  0  0
   -0.3501   42.7502   51.3763 H   0  0  0  0  0  0  0  0  0  0  0  0
    0.6614   41.7647   52.5144 H   0  0  0  0  0  0  0  0  0  0  0  0
   -2.2063   43.4811   52.0404 H   0  0  0  0  0  0  0  0  0  0  0  0
   -4.3369   43.9271   55.7059 H   0  0  0  0  0  0  0  0  0  0  0  0
   -2.1738   44.1912   56.9396 H   0  0  0  0  0  0  0  0  0  0  0  0
    1.2573   45.5389   52.5975 H   0  0  0  0  0  0  0  0  0  0  0  0
    1.1257   45.2110   54.3687 H   0  0  0  0  0  0  0  0  0  0  0  0
    3.4591   44.9725   53.3788 H   0  0  0  0  0  0  0  0  0  0  0  0
    2.8018   43.5222   54.2743 H   0  0  0  0  0  0  0  0  0  0  0  0
    5.4294   45.5940   53.2697 H   0  0  0  0  0  0  0  0  0  0  0  0
    7.2606   45.9514   54.9236 H   0  0  0  0  0  0  0  0  0  0  0  0
  1  2  1  0
  2  3  2  0
  2  4  1  0
  4  5  1  0
  5  6  2  0
  6  7  1  0
  7  8  2  0
  8  9  1  0
  9 10  1  0
 10 11  1  0
 11 12  2  0
 11 13  1  0
 13 14  1  0
 14 15  1  0
 15 16  1  0
 16 17  1  0
 17 18  2  0
 18 19  1  0
 19 20  2  0
 20 21  1  0
 21 22  2  0
 16 23  1  0
 23 24  1  0
  8 25  1  0
 25 26  2  0
 26  5  1  0
 24 13  1  0
 22 17  1  0
  1 27  1  0
  1 28  1  0
  1 29  1  0
  4 30  1  0
  6 31  1  0
  7 32  1  0
  9 33  1  0
  9 34  1  0
 10 35  1  0
 13 36  1  0
 14 37  1  0
 14 38  1  0
 15 39  1  0
 15 40  1  0
 18 41  1  0
 20 42  1  0
 21 43  1  0
 23 44  1  0
 23 45  1  0
 24 46  1  0
 24 47  1  0
 25 48  1  0
 26 49  1  0
M  END
>  <meeko>  (1) 
{"is_sidechain": [false], "free_energy": -8.112, "intermolecular_energy": -10.484, "internal_energy": -0.599}

$$$$
ligand_68_conformer_4_docked
     RDKit          3D

 49 51  0  0  0  0  0  0  0  0999 V2000
   10.2330   47.1930   54.6240 C   0  0  0  0  0  0  0  0  0  0  0  0
    8.8760   47.3500   54.0170 C   0  0  0  0  0  0  0  0  0  0  0  0
    8.4830   48.4970   53.6730 O   0  0  0  0  0  0  0  0  0  0  0  0
    8.0020   46.2140   53.9140 N   0  0  0  0  0  0  0  0  0  0  0  0
    6.7780   46.2070   53.1580 C   0  0  0  0  0  0  0  0  0  0  0  0
    5.5840   46.7280   53.6890 C   0  0  0  0  0  0  0  0  0  0  0  0
    4.4120   46.7270   52.9260 C   0  0  0  0  0  0  0  0  0  0  0  0
    4.4190   46.2250   51.6150 C   0  0  0  0  0  0  0  0  0  0  0  0
    3.1440   46.2010   50.8150 C   0  0  0  0  0  0  0  0  0  0  0  0
    2.0610   45.6480   51.6250 N   0  0  0  0  0  0  0  0  0  0  0  0
    1.8420   44.2330   51.7540 C   0  0  0  0  0  0  0  0  0  0  0  0
    2.5210   43.4210   51.0650 O   0  0  0  0  0  0  0  0  0  0  0  0
    0.7880   43.7030   52.6950 C   0  0  0  0  0  0  0  0  0  0  0  0
   -0.5190   44.5000   52.5290 C   0  0  0  0  0  0  0  0  0  0  0  0
   -1.5420   44.1040   53.5960 C   0  0  0  0  0  0  0  0  0  0  0  0
   -0.9820   44.2070   54.9560 N   0  0  0  0  0  0  0  0  0  0  0  0
   -1.8540   44.1610   56.1100 C   0  0  0  0  0  0  0  0  0  0  0  0
   -2.0520   45.2880   56.9350 C   0  0  0  0  0  0  0  0  0  0  0  0
   -2.8750   45.1990   58.0100 N   0  0  0  0  0  0  0  0  0  0  0  0
   -3.5170   44.0410   58.3120 C   0  0  0  0  0  0  0  0  0  0  0  0
   -3.3280   42.9190   57.5040 C   0  0  0  0  0  0  0  0  0  0  0  0
   -2.5060   43.0050   56.4270 N   0  0  0  0  0  0  0  0  0  0  0  0
    0.4500   44.5050   55.1270 C   0  0  0  0  0  0  0  0  0  0  0  0
    1.3010   43.6670   54.1620 C   0  0  0  0  0  0  0  0  0  0  0  0
    5.6110   45.7130   51.0800 C   0  0  0  0  0  0  0  0  0  0  0  0
    6.7840   45.7150   51.8430 C   0  0  0  0  0  0  0  0  0  0  0  0
   10.1475   47.2029   55.7206 H   0  0  0  0  0  0  0  0  0  0  0  0
   10.6718   46.2381   54.2990 H   0  0  0  0  0  0  0  0  0  0  0  0
   10.8782   48.0225   54.2990 H   0  0  0  0  0  0  0  0  0  0  0  0
    8.2310   45.3720   54.4880 H   0  0  0  0  0  0  0  0  0  0  0  0
    5.5722   47.1383   54.7096 H   0  0  0  0  0  0  0  0  0  0  0  0
    3.4794   47.1218   53.3555 H   0  0  0  0  0  0  0  0  0  0  0  0
    2.8851   47.2257   50.5099 H   0  0  0  0  0  0  0  0  0  0  0  0
    3.2870   45.5733   49.9231 H   0  0  0  0  0  0  0  0  0  0  0  0
    1.4550   46.3100   52.1590 H   0  0  0  0  0  0  0  0  0  0  0  0
    0.5660   42.6581   52.4326 H   0  0  0  0  0  0  0  0  0  0  0  0
   -0.2997   45.5739   52.6219 H   0  0  0  0  0  0  0  0  0  0  0  0
   -0.9419   44.2773   51.5382 H   0  0  0  0  0  0  0  0  0  0  0  0
   -2.4137   44.7705   53.5184 H   0  0  0  0  0  0  0  0  0  0  0  0
   -1.8289   43.0563   53.4227 H   0  0  0  0  0  0  0  0  0  0  0  0
   -1.5411   46.2353   56.7077 H   0  0  0  0  0  0  0  0  0  0  0  0
   -4.1812   43.9878   59.1872 H   0  0  0  0  0  0  0  0  0  0  0  0
   -3.8402   41.9739   57.7375 H   0  0  0  0  0  0  0  0  0  0  0  0
    0.6226   45.5726   54.9258 H   0  0  0  0  0  0  0  0  0  0  0  0
    0.7406   44.2576   56.1587 H   0  0  0  0  0  0  0  0  0  0  0  0
    2.3310   44.0528   54.1807 H   0  0  0  0  0  0  0  0  0  0  0  0
    1.2418   42.6222   54.5009 H   0  0  0  0  0  0  0  0  0  0  0  0
    5.6233   45.3086   50.0571 H   0  0  0  0  0  0  0  0  0  0  0  0
    7.7179   45.3282   51.4092 H   0  0  0  0  0  0  0  0  0  0  0  0
  1  2  1  0
  2  3  2  0
  2  4  1  0
  4  5  1  0
  5  6  2  0
  6  7  1  0
  7  8  2  0
  8  9  1  0
  9 10  1  0
 10 11  1  0
 11 12  2  0
 11 13  1  0
 13 14  1  0
 14 15  1  0
 15 16  1  0
 16 17  1  0
 17 18  2  0
 18 19  1  0
 19 20  2  0
 20 21  1  0
 21 22  2  0
 16 23  1  0
 23 24  1  0
  8 25  1  0
 25 26  2  0
 26  5  1  0
 24 13  1  0
 22 17  1  0
  1 27  1  0
  1 28  1  0
  1 29  1  0
  4 30  1  0
  6 31  1  0
  7 32  1  0
  9 33  1  0
  9 34  1  0
 10 35  1  0
 13 36  1  0
 14 37  1  0
 14 38  1  0
 15 39  1  0
 15 40  1  0
 18 41  1  0
 20 42  1  0
 21 43  1  0
 23 44  1  0
 23 45  1  0
 24 46  1  0
 24 47  1  0
 25 48  1  0
 26 49  1  0
M  END
>  <meeko>  (2) 
{"is_sidechain": [false], "free_energy": -8.026, "intermolecular_energy": -10.23, "internal_energy": -0.742}

$$$$
ligand_68_conformer_4_docked
     RDKit          3D

 49 51  0  0  0  0  0  0  0  0999 V2000
    9.3510   47.9340   54.4870 C   0  0  0  0  0  0  0  0  0  0  0  0
    8.1480   47.1420   54.0880 C   0  0  0  0  0  0  0  0  0  0  0  0
    7.5670   46.4280   54.9490 O   0  0  0  0  0  0  0  0  0  0  0  0
    7.7190   47.1320   52.7170 N   0  0  0  0  0  0  0  0  0  0  0  0
    6.4630   46.5900   52.2700 C   0  0  0  0  0  0  0  0  0  0  0  0
    5.2380   47.0760   52.7620 C   0  0  0  0  0  0  0  0  0  0  0  0
    4.0300   46.5460   52.2970 C   0  0  0  0  0  0  0  0  0  0  0  0
    4.0260   45.5390   51.3200 C   0  0  0  0  0  0  0  0  0  0  0  0
    2.7220   44.9550   50.8500 C   0  0  0  0  0  0  0  0  0  0  0  0
    1.7660   44.9200   51.9550 N   0  0  0  0  0  0  0  0  0  0  0  0
    1.6760   43.8060   52.8590 C   0  0  0  0  0  0  0  0  0  0  0  0
    2.3510   42.7610   52.6460 O   0  0  0  0  0  0  0  0  0  0  0  0
    0.7600   43.8640   54.0580 C   0  0  0  0  0  0  0  0  0  0  0  0
   -0.5630   44.5520   53.6790 C   0  0  0  0  0  0  0  0  0  0  0  0
   -1.4330   44.7860   54.9170 C   0  0  0  0  0  0  0  0  0  0  0  0
   -0.6990   45.5070   55.9730 N   0  0  0  0  0  0  0  0  0  0  0  0
   -1.4090   46.0790   57.0960 C   0  0  0  0  0  0  0  0  0  0  0  0
   -2.5820   45.4870   57.6120 C   0  0  0  0  0  0  0  0  0  0  0  0
   -3.2190   46.0590   58.6630 N   0  0  0  0  0  0  0  0  0  0  0  0
   -2.7500   47.1980   59.2370 C   0  0  0  0  0  0  0  0  0  0  0  0
   -1.5910   47.7940   58.7350 C   0  0  0  0  0  0  0  0  0  0  0  0
   -0.9520   47.2230   57.6830 N   0  0  0  0  0  0  0  0  0  0  0  0
    0.7410   45.7670   55.8030 C   0  0  0  0  0  0  0  0  0  0  0  0
    1.4640   44.5180   55.2800 C   0  0  0  0  0  0  0  0  0  0  0  0
    5.2470   45.0590   50.8210 C   0  0  0  0  0  0  0  0  0  0  0  0
    6.4560   45.5900   51.2860 C   0  0  0  0  0  0  0  0  0  0  0  0
    9.4149   47.9761   55.5843 H   0  0  0  0  0  0  0  0  0  0  0  0
   10.2556   47.4543   54.0852 H   0  0  0  0  0  0  0  0  0  0  0  0
    9.2679   48.9546   54.0852 H   0  0  0  0  0  0  0  0  0  0  0  0
    8.3950   47.4660   51.9940 H   0  0  0  0  0  0  0  0  0  0  0  0
    5.2301   47.8768   53.5161 H   0  0  0  0  0  0  0  0  0  0  0  0
    3.0775   46.9209   52.6997 H   0  0  0  0  0  0  0  0  0  0  0  0
    2.3168   45.5748   50.0366 H   0  0  0  0  0  0  0  0  0  0  0  0
    2.8936   43.9310   50.4868 H   0  0  0  0  0  0  0  0  0  0  0  0
    1.1620   45.7570   52.1130 H   0  0  0  0  0  0  0  0  0  0  0  0
    0.5133   42.8391   54.3722 H   0  0  0  0  0  0  0  0  0  0  0  0
   -0.3425   45.5202   53.2059 H   0  0  0  0  0  0  0  0  0  0  0  0
   -1.1110   43.8996   52.9833 H   0  0  0  0  0  0  0  0  0  0  0  0
   -2.3132   45.3786   54.6269 H   0  0  0  0  0  0  0  0  0  0  0  0
   -1.7311   43.8052   55.3161 H   0  0  0  0  0  0  0  0  0  0  0  0
   -2.9779   44.5643   57.1626 H   0  0  0  0  0  0  0  0  0  0  0  0
   -3.2791   47.6471   60.0904 H   0  0  0  0  0  0  0  0  0  0  0  0
   -1.2001   48.7171   59.1879 H   0  0  0  0  0  0  0  0  0  0  0  0
    0.8764   46.5890   55.0847 H   0  0  0  0  0  0  0  0  0  0  0  0
    1.1676   46.0372   56.7802 H   0  0  0  0  0  0  0  0  0  0  0  0
    2.4838   44.8040   54.9831 H   0  0  0  0  0  0  0  0  0  0  0  0
    1.4603   43.7764   56.0924 H   0  0  0  0  0  0  0  0  0  0  0  0
    5.2539   44.2629   50.0620 H   0  0  0  0  0  0  0  0  0  0  0  0
    7.4078   45.2203   50.8767 H   0  0  0  0  0  0  0  0  0  0  0  0
  1  2  1  0
  2  3  2  0
  2  4  1  0
  4  5  1  0
  5  6  2  0
  6  7  1  0
  7  8  2  0
  8  9  1  0
  9 10  1  0
 10 11  1  0
 11 12  2  0
 11 13  1  0
 13 14  1  0
 14 15  1  0
 15 16  1  0
 16 17  1  0
 17 18  2  0
 18 19  1  0
 19 20  2  0
 20 21  1  0
 21 22  2  0
 16 23  1  0
 23 24  1  0
  8 25  1  0
 25 26  2  0
 26  5  1  0
 24 13  1  0
 22 17  1  0
  1 27  1  0
  1 28  1  0
  1 29  1  0
  4 30  1  0
  6 31  1  0
  7 32  1  0
  9 33  1  0
  9 34  1  0
 10 35  1  0
 13 36  1  0
 14 37  1  0
 14 38  1  0
 15 39  1  0
 15 40  1  0
 18 41  1  0
 20 42  1  0
 21 43  1  0
 23 44  1  0
 23 45  1  0
 24 46  1  0
 24 47  1  0
 25 48  1  0
 26 49  1  0
M  END
>  <meeko>  (3) 
{"is_sidechain": [false], "free_energy": -7.608, "intermolecular_energy": -9.7, "internal_energy": -0.73}

$$$$
ligand_68_conformer_4_docked
     RDKit          3D

 49 51  0  0  0  0  0  0  0  0999 V2000
   -3.8900   43.1840   59.1340 C   0  0  0  0  0  0  0  0  0  0  0  0
   -3.1930   43.1310   57.8130 C   0  0  0  0  0  0  0  0  0  0  0  0
   -3.1380   42.0380   57.1880 O   0  0  0  0  0  0  0  0  0  0  0  0
   -2.5180   44.2960   57.3130 N   0  0  0  0  0  0  0  0  0  0  0  0
   -2.0100   44.4180   55.9710 C   0  0  0  0  0  0  0  0  0  0  0  0
   -0.6290   44.4730   55.7120 C   0  0  0  0  0  0  0  0  0  0  0  0
   -0.1600   44.5720   54.3980 C   0  0  0  0  0  0  0  0  0  0  0  0
   -1.0620   44.5970   53.3230 C   0  0  0  0  0  0  0  0  0  0  0  0
   -0.5480   44.7350   51.9150 C   0  0  0  0  0  0  0  0  0  0  0  0
    0.7860   45.3330   51.9310 N   0  0  0  0  0  0  0  0  0  0  0  0
    1.9070   44.7290   51.2640 C   0  0  0  0  0  0  0  0  0  0  0  0
    1.7920   43.5870   50.7380 O   0  0  0  0  0  0  0  0  0  0  0  0
    3.2370   45.4410   51.2040 C   0  0  0  0  0  0  0  0  0  0  0  0
    4.3860   44.4170   51.1960 C   0  0  0  0  0  0  0  0  0  0  0  0
    5.7430   45.1140   51.3200 C   0  0  0  0  0  0  0  0  0  0  0  0
    5.7910   46.0150   52.4850 N   0  0  0  0  0  0  0  0  0  0  0  0
    7.0560   46.5420   52.9490 C   0  0  0  0  0  0  0  0  0  0  0  0
    7.2500   46.9350   54.2900 C   0  0  0  0  0  0  0  0  0  0  0  0
    8.4510   47.4290   54.6810 N   0  0  0  0  0  0  0  0  0  0  0  0
    9.4810   47.5540   53.8030 C   0  0  0  0  0  0  0  0  0  0  0  0
    9.3010   47.1700   52.4730 C   0  0  0  0  0  0  0  0  0  0  0  0
    8.1000   46.6750   52.0800 N   0  0  0  0  0  0  0  0  0  0  0  0
    4.5640   46.2560   53.2640 C   0  0  0  0  0  0  0  0  0  0  0  0
    3.3670   46.5000   52.3350 C   0  0  0  0  0  0  0  0  0  0  0  0
   -2.4400   44.5330   53.5790 C   0  0  0  0  0  0  0  0  0  0  0  0
   -2.9090   44.4330   54.8940 C   0  0  0  0  0  0  0  0  0  0  0  0
   -3.1470   43.1275   59.9431 H   0  0  0  0  0  0  0  0  0  0  0  0
   -4.4499   44.1273   59.2156 H   0  0  0  0  0  0  0  0  0  0  0  0
   -4.5861   42.3362   59.2156 H   0  0  0  0  0  0  0  0  0  0  0  0
   -2.3130   45.0670   57.9880 H   0  0  0  0  0  0  0  0  0  0  0  0
    0.0862   44.4380   56.5471 H   0  0  0  0  0  0  0  0  0  0  0  0
    0.9215   44.6306   54.2061 H   0  0  0  0  0  0  0  0  0  0  0  0
   -0.4971   43.7414   51.4458 H   0  0  0  0  0  0  0  0  0  0  0  0
   -1.2288   45.3813   51.3416 H   0  0  0  0  0  0  0  0  0  0  0  0
    0.9090   46.2530   52.4090 H   0  0  0  0  0  0  0  0  0  0  0  0
    3.2998   46.0048   50.2616 H   0  0  0  0  0  0  0  0  0  0  0  0
    4.2579   43.7260   52.0422 H   0  0  0  0  0  0  0  0  0  0  0  0
    4.3597   43.8683   50.2430 H   0  0  0  0  0  0  0  0  0  0  0  0
    6.5271   44.3501   51.4281 H   0  0  0  0  0  0  0  0  0  0  0  0
    5.9014   45.7176   50.4142 H   0  0  0  0  0  0  0  0  0  0  0  0
    6.4294   46.8410   55.0165 H   0  0  0  0  0  0  0  0  0  0  0  0
   10.4491   47.9547   54.1379 H   0  0  0  0  0  0  0  0  0  0  0  0
   10.1247   47.2677   51.7505 H   0  0  0  0  0  0  0  0  0  0  0  0
    4.3585   45.3778   53.8938 H   0  0  0  0  0  0  0  0  0  0  0  0
    4.7130   47.1491   53.8886 H   0  0  0  0  0  0  0  0  0  0  0  0
    2.4476   46.4802   52.9385 H   0  0  0  0  0  0  0  0  0  0  0  0
    3.5255   47.4747   51.8504 H   0  0  0  0  0  0  0  0  0  0  0  0
   -3.1545   44.5615   52.7431 H   0  0  0  0  0  0  0  0  0  0  0  0
   -3.9903   44.3657   55.0844 H   0  0  0  0  0  0  0  0  0  0  0  0
  1  2  1  0
  2  3  2  0
  2  4  1  0
  4  5  1  0
  5  6  2  0
  6  7  1  0
  7  8  2  0
  8  9  1  0
  9 10  1  0
 10 11  1  0
 11 12  2  0
 11 13  1  0
 13 14  1  0
 14 15  1  0
 15 16  1  0
 16 17  1  0
 17 18  2  0
 18 19  1  0
 19 20  2  0
 20 21  1  0
 21 22  2  0
 16 23  1  0
 23 24  1  0
  8 25  1  0
 25 26  2  0
 26  5  1  0
 24 13  1  0
 22 17  1  0
  1 27  1  0
  1 28  1  0
  1 29  1  0
  4 30  1  0
  6 31  1  0
  7 32  1  0
  9 33  1  0
  9 34  1  0
 10 35  1  0
 13 36  1  0
 14 37  1  0
 14 38  1  0
 15 39  1  0
 15 40  1  0
 18 41  1  0
 20 42  1  0
 21 43  1  0
 23 44  1  0
 23 45  1  0
 24 46  1  0
 24 47  1  0
 25 48  1  0
 26 49  1  0
M  END
>  <meeko>  (4) 
{"is_sidechain": [false], "free_energy": -7.533, "intermolecular_energy": -9.677, "internal_energy": -0.657}

$$$$
ligand_68_conformer_4_docked
     RDKit          3D

 49 51  0  0  0  0  0  0  0  0999 V2000
    1.1160   40.2340   43.4940 C   0  0  0  0  0  0  0  0  0  0  0  0
    1.9380   40.8870   44.5580 C   0  0  0  0  0  0  0  0  0  0  0  0
    1.5690   41.9960   45.0300 O   0  0  0  0  0  0  0  0  0  0  0  0
    3.1800   40.2940   44.9690 N   0  0  0  0  0  0  0  0  0  0  0  0
    3.9310   40.7130   46.1230 C   0  0  0  0  0  0  0  0  0  0  0  0
    3.5620   40.3170   47.4210 C   0  0  0  0  0  0  0  0  0  0  0  0
    4.3190   40.7220   48.5250 C   0  0  0  0  0  0  0  0  0  0  0  0
    5.4670   41.5100   48.3470 C   0  0  0  0  0  0  0  0  0  0  0  0
    6.2570   41.9660   49.5450 C   0  0  0  0  0  0  0  0  0  0  0  0
    5.3730   42.6380   50.4950 N   0  0  0  0  0  0  0  0  0  0  0  0
    5.5370   44.0210   50.8520 C   0  0  0  0  0  0  0  0  0  0  0  0
    6.5360   44.6700   50.4350 O   0  0  0  0  0  0  0  0  0  0  0  0
    4.5300   44.7070   51.7440 C   0  0  0  0  0  0  0  0  0  0  0  0
    4.9300   44.5370   53.2210 C   0  0  0  0  0  0  0  0  0  0  0  0
    3.8320   45.0640   54.1490 C   0  0  0  0  0  0  0  0  0  0  0  0
    2.5220   44.4640   53.8430 N   0  0  0  0  0  0  0  0  0  0  0  0
    1.4210   44.6000   54.7720 C   0  0  0  0  0  0  0  0  0  0  0  0
    0.1180   44.1680   54.4470 C   0  0  0  0  0  0  0  0  0  0  0  0
   -0.8860   44.3180   55.3460 N   0  0  0  0  0  0  0  0  0  0  0  0
   -0.6640   44.8800   56.5630 C   0  0  0  0  0  0  0  0  0  0  0  0
    0.6210   45.3130   56.8960 C   0  0  0  0  0  0  0  0  0  0  0  0
    1.6270   45.1630   55.9980 N   0  0  0  0  0  0  0  0  0  0  0  0
    2.3810   43.6030   52.6560 C   0  0  0  0  0  0  0  0  0  0  0  0
    3.0830   44.2270   51.4420 C   0  0  0  0  0  0  0  0  0  0  0  0
    5.8420   41.8990   47.0520 C   0  0  0  0  0  0  0  0  0  0  0  0
    5.0840   41.4930   45.9470 C   0  0  0  0  0  0  0  0  0  0  0  0
    0.3363   39.6146   43.9614 H   0  0  0  0  0  0  0  0  0  0  0  0
    0.6447   41.0067   42.8688 H   0  0  0  0  0  0  0  0  0  0  0  0
    1.7620   39.6002   42.8688 H   0  0  0  0  0  0  0  0  0  0  0  0
    3.6010   39.5680   44.3460 H   0  0  0  0  0  0  0  0  0  0  0  0
    2.6735   39.6855   47.5687 H   0  0  0  0  0  0  0  0  0  0  0  0
    4.0133   40.4215   49.5380 H   0  0  0  0  0  0  0  0  0  0  0  0
    6.7196   41.0941   50.0306 H   0  0  0  0  0  0  0  0  0  0  0  0
    7.0392   42.6672   49.2185 H   0  0  0  0  0  0  0  0  0  0  0  0
    4.5710   42.0990   50.8910 H   0  0  0  0  0  0  0  0  0  0  0  0
    4.5354   45.7857   51.5287 H   0  0  0  0  0  0  0  0  0  0  0  0
    5.0953   43.4695   53.4287 H   0  0  0  0  0  0  0  0  0  0  0  0
    5.8502   45.1112   53.4041 H   0  0  0  0  0  0  0  0  0  0  0  0
    4.0992   44.8242   55.1887 H   0  0  0  0  0  0  0  0  0  0  0  0
    3.7527   46.1512   54.0016 H   0  0  0  0  0  0  0  0  0  0  0  0
   -0.0830   43.7107   53.4670 H   0  0  0  0  0  0  0  0  0  0  0  0
   -1.4902   44.9930   57.2804 H   0  0  0  0  0  0  0  0  0  0  0  0
    0.8158   45.7713   57.8768 H   0  0  0  0  0  0  0  0  0  0  0  0
    2.8306   42.6216   52.8672 H   0  0  0  0  0  0  0  0  0  0  0  0
    1.3110   43.4931   52.4259 H   0  0  0  0  0  0  0  0  0  0  0  0
    3.1253   43.4757   50.6397 H   0  0  0  0  0  0  0  0  0  0  0  0
    2.5010   45.1140   51.1513 H   0  0  0  0  0  0  0  0  0  0  0  0
    6.7344   42.5250   46.9045 H   0  0  0  0  0  0  0  0  0  0  0  0
    5.3946   41.7876   44.9337 H   0  0  0  0  0  0  0  0  0  0  0  0
  1  2  1  0
  2  3  2  0
  2  4  1  0
  4  5  1  0
  5  6  2  0
  6  7  1  0
  7  8  2  0
  8  9  1  0
  9 10  1  0
 10 11  1  0
 11 12  2  0
 11 13  1  0
 13 14  1  0
 14 15  1  0
 15 16  1  0
 16 17  1  0
 17 18  2  0
 18 19  1  0
 19 20  2  0
 20 21  1  0
 21 22  2  0
 16 23  1  0
 23 24  1  0
  8 25  1  0
 25 26  2  0
 26  5  1  0
 24 13  1  0
 22 17  1  0
  1 27  1  0
  1 28  1  0
  1 29  1  0
  4 30  1  0
  6 31  1  0
  7 32  1  0
  9 33  1  0
  9 34  1  0
 10 35  1  0
 13 36  1  0
 14 37  1  0
 14 38  1  0
 15 39  1  0
 15 40  1  0
 18 41  1  0
 20 42  1  0
 21 43  1  0
 23 44  1  0
 23 45  1  0
 24 46  1  0
 24 47  1  0
 25 48  1  0
 26 49  1  0
M  END
>  <meeko>  (5) 
{"is_sidechain": [false], "free_energy": -7.436, "intermolecular_energy": -9.462, "internal_energy": -0.746}

$$$$
