MODEL 1
REMARK VINA RESULT:    -9.052      0.000      0.000
REMARK INTER + INTRA:         -12.630
REMARK INTER:                 -11.698
REMARK INTRA:                  -0.932
REMARK UNBOUND:                -0.932
REMARK SMILES Cc1cccc(Oc2ccc(C(=O)Nc3cccc([C@H]4CCC(=O)N4)c3)nc2)c1
REMARK SMILES IDX 8 1 9 2 10 3 11 4 27 5 28 6 7 7 6 8 2 9 3 10 29 11 4 12 5 13
REMARK SMILES IDX 1 14 12 15 13 16 14 17 15 19 16 20 26 21 17 22 19 23 18 24
REMARK SMILES IDX 20 25 21 26 25 27 22 28 23 29 24 30
REMARK H PARENT 14 18 25 31
ROOT
ATOM      1  C   UNL     1      -0.586  43.928  53.718  1.00  0.00     0.145 A 
ATOM      2  C   UNL     1       0.621  43.812  54.412  1.00  0.00     0.051 A 
ATOM      3  C   UNL     1       1.821  44.185  53.804  1.00  0.00     0.038 A 
ATOM      4  C   UNL     1       1.808  44.664  52.483  1.00  0.00     0.128 A 
ATOM      5  N   UNL     1       0.621  44.750  51.819  1.00  0.00    -0.247 NA
ATOM      6  C   UNL     1      -0.558  44.396  52.394  1.00  0.00     0.159 A 
ENDROOT
BRANCH   1   7
ATOM      7  O   UNL     1      -1.774  43.529  54.348  1.00  0.00    -0.456 OA
BRANCH   7   8
ATOM      8  C   UNL     1      -2.297  44.085  55.525  1.00  0.00     0.127 A 
ATOM      9  C   UNL     1      -3.127  43.744  57.790  1.00  0.00    -0.047 A 
ATOM     10  C   UNL     1      -3.319  45.128  57.921  1.00  0.00     0.003 A 
ATOM     11  C   UNL     1      -2.622  43.229  56.585  1.00  0.00     0.050 A 
ATOM     12  C   UNL     1      -2.977  45.987  56.874  1.00  0.00     0.004 A 
ATOM     13  C   UNL     1      -2.461  45.472  55.683  1.00  0.00     0.047 A 
ATOM     14  C   UNL     1      -3.520  42.814  58.899  1.00  0.00     0.044 C 
ENDBRANCH   7   8
ENDBRANCH   1   7
BRANCH   4  15
ATOM     15  C   UNL     1       3.058  45.073  51.807  1.00  0.00     0.274 C 
ATOM     16  O   UNL     1       3.011  45.900  50.855  1.00  0.00    -0.267 OA
ATOM     17  N   UNL     1       4.326  44.561  52.253  1.00  0.00    -0.321 N 
ATOM     18  H   UNL     1       4.384  44.153  53.215  1.00  0.00     0.170 HD
BRANCH  17  19
ATOM     19  C   UNL     1       5.549  44.693  51.510  1.00  0.00     0.041 A 
ATOM     20  C   UNL     1       5.788  43.844  50.421  1.00  0.00     0.026 A 
ATOM     21  C   UNL     1       6.489  45.693  51.821  1.00  0.00     0.032 A 
ATOM     22  C   UNL     1       6.964  43.961  49.678  1.00  0.00     0.003 A 
ATOM     23  C   UNL     1       7.671  45.824  51.070  1.00  0.00    -0.024 A 
ATOM     24  C   UNL     1       7.906  44.937  50.004  1.00  0.00     0.006 A 
BRANCH  23  25
ATOM     25  C   UNL     1       8.690  46.882  51.434  1.00  0.00     0.113 C 
ATOM     26  C   UNL     1       8.030  48.126  52.081  1.00  0.00     0.040 C 
ATOM     27  N   UNL     1       9.627  46.370  52.418  1.00  0.00    -0.349 N 
ATOM     28  C   UNL     1       8.578  48.243  53.513  1.00  0.00     0.102 C 
ATOM     29  C   UNL     1       9.564  47.148  53.591  1.00  0.00     0.220 C 
ATOM     30  O   UNL     1      10.278  46.915  54.602  1.00  0.00    -0.275 OA
ATOM     31  H   UNL     1      10.264  45.554  52.274  1.00  0.00     0.164 HD
ENDBRANCH  23  25
ENDBRANCH  17  19
ENDBRANCH   4  15
TORSDOF 5
ENDMDL
MODEL 2
REMARK VINA RESULT:    -9.028      2.558     10.316
REMARK INTER + INTRA:         -12.599
REMARK INTER:                 -11.735
REMARK INTRA:                  -0.865
REMARK UNBOUND:                -0.932
REMARK SMILES Cc1cccc(Oc2ccc(C(=O)Nc3cccc([C@H]4CCC(=O)N4)c3)nc2)c1
REMARK SMILES IDX 8 1 9 2 10 3 11 4 27 5 28 6 7 7 6 8 2 9 3 10 29 11 4 12 5 13
REMARK SMILES IDX 1 14 12 15 13 16 14 17 15 19 16 20 26 21 17 22 19 23 18 24
REMARK SMILES IDX 20 25 21 26 25 27 22 28 23 29 24 30
REMARK H PARENT 14 18 25 31
ROOT
ATOM      1  C   UNL     1       5.345  47.276  53.067  1.00  0.00     0.145 A 
ATOM      2  C   UNL     1       4.740  46.510  52.068  1.00  0.00     0.051 A 
ATOM      3  C   UNL     1       3.612  45.740  52.358  1.00  0.00     0.038 A 
ATOM      4  C   UNL     1       3.100  45.729  53.666  1.00  0.00     0.128 A 
ATOM      5  N   UNL     1       3.718  46.468  54.628  1.00  0.00    -0.247 NA
ATOM      6  C   UNL     1       4.814  47.228  54.366  1.00  0.00     0.159 A 
ENDROOT
BRANCH   1   7
ATOM      7  O   UNL     1       6.487  48.026  52.752  1.00  0.00    -0.456 OA
BRANCH   7   8
ATOM      8  C   UNL     1       7.810  47.563  52.823  1.00  0.00     0.127 A 
ATOM      9  C   UNL     1       9.813  47.203  54.163  1.00  0.00    -0.047 A 
ATOM     10  C   UNL     1      10.447  46.631  53.049  1.00  0.00     0.003 A 
ATOM     11  C   UNL     1       8.496  47.674  54.040  1.00  0.00     0.050 A 
ATOM     12  C   UNL     1       9.760  46.499  51.840  1.00  0.00     0.004 A 
ATOM     13  C   UNL     1       8.445  46.954  51.727  1.00  0.00     0.047 A 
ATOM     14  C   UNL     1      10.555  47.375  55.455  1.00  0.00     0.044 C 
ENDBRANCH   7   8
ENDBRANCH   1   7
BRANCH   4  15
ATOM     15  C   UNL     1       1.904  44.929  54.010  1.00  0.00     0.274 C 
ATOM     16  O   UNL     1       1.914  43.680  53.826  1.00  0.00    -0.267 OA
ATOM     17  N   UNL     1       0.748  45.561  54.586  1.00  0.00    -0.321 N 
ATOM     18  H   UNL     1       0.867  46.503  55.027  1.00  0.00     0.170 HD
BRANCH  17  19
ATOM     19  C   UNL     1      -0.534  44.924  54.712  1.00  0.00     0.041 A 
ATOM     20  C   UNL     1      -1.035  44.631  55.988  1.00  0.00     0.026 A 
ATOM     21  C   UNL     1      -1.322  44.636  53.582  1.00  0.00     0.032 A 
ATOM     22  C   UNL     1      -2.283  44.022  56.135  1.00  0.00     0.003 A 
ATOM     23  C   UNL     1      -2.584  44.033  53.723  1.00  0.00    -0.024 A 
ATOM     24  C   UNL     1      -3.051  43.715  55.012  1.00  0.00     0.006 A 
BRANCH  23  25
ATOM     25  C   UNL     1      -3.408  43.697  52.499  1.00  0.00     0.113 C 
ATOM     26  C   UNL     1      -3.658  44.941  51.608  1.00  0.00     0.040 C 
ATOM     27  N   UNL     1      -2.709  42.739  51.661  1.00  0.00    -0.349 N 
ATOM     28  C   UNL     1      -2.990  44.673  50.249  1.00  0.00     0.102 C 
ATOM     29  C   UNL     1      -2.480  43.294  50.386  1.00  0.00     0.220 C 
ATOM     30  O   UNL     1      -1.890  42.669  49.467  1.00  0.00    -0.275 OA
ATOM     31  H   UNL     1      -2.428  41.777  51.954  1.00  0.00     0.164 HD
ENDBRANCH  23  25
ENDBRANCH  17  19
ENDBRANCH   4  15
TORSDOF 5
ENDMDL
MODEL 3
REMARK VINA RESULT:    -8.807      1.618      1.955
REMARK INTER + INTRA:         -12.313
REMARK INTER:                 -11.778
REMARK INTRA:                  -0.535
REMARK UNBOUND:                -0.932
REMARK SMILES Cc1cccc(Oc2ccc(C(=O)Nc3cccc([C@H]4CCC(=O)N4)c3)nc2)c1
REMARK SMILES IDX 8 1 9 2 10 3 11 4 27 5 28 6 7 7 6 8 2 9 3 10 29 11 4 12 5 13
REMARK SMILES IDX 1 14 12 15 13 16 14 17 15 19 16 20 26 21 17 22 19 23 18 24
REMARK SMILES IDX 20 25 21 26 25 27 22 28 23 29 24 30
REMARK H PARENT 14 18 25 31
ROOT
ATOM      1  C   UNL     1       0.120  43.965  53.340  1.00  0.00     0.145 A 
ATOM      2  C   UNL     1       0.684  45.037  52.646  1.00  0.00     0.051 A 
ATOM      3  C   UNL     1       1.949  44.916  52.070  1.00  0.00     0.038 A 
ATOM      4  C   UNL     1       2.660  43.712  52.208  1.00  0.00     0.128 A 
ATOM      5  N   UNL     1       2.099  42.686  52.906  1.00  0.00    -0.247 NA
ATOM      6  C   UNL     1       0.866  42.782  53.471  1.00  0.00     0.159 A 
ENDROOT
BRANCH   1   7
ATOM      7  O   UNL     1      -1.146  44.121  53.924  1.00  0.00    -0.456 OA
BRANCH   7   8
ATOM      8  C   UNL     1      -1.434  44.917  55.042  1.00  0.00     0.127 A 
ATOM      9  C   UNL     1      -0.620  46.121  56.997  1.00  0.00    -0.047 A 
ATOM     10  C   UNL     1      -1.931  46.535  57.280  1.00  0.00     0.003 A 
ATOM     11  C   UNL     1      -0.381  45.305  55.880  1.00  0.00     0.050 A 
ATOM     12  C   UNL     1      -2.981  46.168  56.437  1.00  0.00     0.004 A 
ATOM     13  C   UNL     1      -2.736  45.369  55.317  1.00  0.00     0.047 A 
ATOM     14  C   UNL     1       0.508  46.488  57.916  1.00  0.00     0.044 C 
ENDBRANCH   7   8
ENDBRANCH   1   7
BRANCH   4  15
ATOM     15  C   UNL     1       4.001  43.544  51.609  1.00  0.00     0.274 C 
ATOM     16  O   UNL     1       4.539  42.403  51.590  1.00  0.00    -0.267 OA
ATOM     17  N   UNL     1       4.677  44.667  51.016  1.00  0.00    -0.321 N 
ATOM     18  H   UNL     1       4.108  45.503  50.748  1.00  0.00     0.170 HD
BRANCH  17  19
ATOM     19  C   UNL     1       6.066  44.662  50.647  1.00  0.00     0.041 A 
ATOM     20  C   UNL     1       6.528  43.719  49.717  1.00  0.00     0.026 A 
ATOM     21  C   UNL     1       6.963  45.617  51.159  1.00  0.00     0.032 A 
ATOM     22  C   UNL     1       7.871  43.701  49.335  1.00  0.00     0.003 A 
ATOM     23  C   UNL     1       8.314  45.612  50.771  1.00  0.00    -0.024 A 
ATOM     24  C   UNL     1       8.763  44.634  49.864  1.00  0.00     0.006 A 
BRANCH  23  25
ATOM     25  C   UNL     1       9.277  46.624  51.354  1.00  0.00     0.113 C 
ATOM     26  C   UNL     1       8.556  47.923  51.797  1.00  0.00     0.040 C 
ATOM     27  N   UNL     1       9.914  46.093  52.546  1.00  0.00    -0.349 N 
ATOM     28  C   UNL     1       8.746  48.055  53.318  1.00  0.00     0.102 C 
ATOM     29  C   UNL     1       9.615  46.911  53.654  1.00  0.00     0.220 C 
ATOM     30  O   UNL     1      10.046  46.673  54.812  1.00  0.00    -0.275 OA
ATOM     31  H   UNL     1      10.516  45.240  52.577  1.00  0.00     0.164 HD
ENDBRANCH  23  25
ENDBRANCH  17  19
ENDBRANCH   4  15
TORSDOF 5
ENDMDL
MODEL 4
REMARK VINA RESULT:    -8.684      1.791      2.465
REMARK INTER + INTRA:         -12.155
REMARK INTER:                 -11.740
REMARK INTRA:                  -0.414
REMARK UNBOUND:                -0.932
REMARK SMILES Cc1cccc(Oc2ccc(C(=O)Nc3cccc([C@H]4CCC(=O)N4)c3)nc2)c1
REMARK SMILES IDX 8 1 9 2 10 3 11 4 27 5 28 6 7 7 6 8 2 9 3 10 29 11 4 12 5 13
REMARK SMILES IDX 1 14 12 15 13 16 14 17 15 19 16 20 26 21 17 22 19 23 18 24
REMARK SMILES IDX 20 25 21 26 25 27 22 28 23 29 24 30
REMARK H PARENT 14 18 25 31
ROOT
ATOM      1  C   UNL     1      -0.021  44.780  55.791  1.00  0.00     0.145 A 
ATOM      2  C   UNL     1      -0.270  44.088  54.604  1.00  0.00     0.051 A 
ATOM      3  C   UNL     1       0.757  43.877  53.683  1.00  0.00     0.038 A 
ATOM      4  C   UNL     1       2.041  44.380  53.952  1.00  0.00     0.128 A 
ATOM      5  N   UNL     1       2.257  45.068  55.107  1.00  0.00    -0.247 NA
ATOM      6  C   UNL     1       1.272  45.281  56.019  1.00  0.00     0.159 A 
ENDROOT
BRANCH   1   7
ATOM      7  O   UNL     1      -1.076  44.993  56.690  1.00  0.00    -0.456 OA
BRANCH   7   8
ATOM      8  C   UNL     1      -1.783  46.194  56.845  1.00  0.00     0.127 A 
ATOM      9  C   UNL     1      -2.024  48.327  57.997  1.00  0.00    -0.047 A 
ATOM     10  C   UNL     1      -3.131  48.632  57.189  1.00  0.00     0.003 A 
ATOM     11  C   UNL     1      -1.360  47.102  57.824  1.00  0.00     0.050 A 
ATOM     12  C   UNL     1      -3.543  47.739  56.197  1.00  0.00     0.004 A 
ATOM     13  C   UNL     1      -2.870  46.529  56.018  1.00  0.00     0.047 A 
ATOM     14  C   UNL     1      -1.595  49.268  59.083  1.00  0.00     0.044 C 
ENDBRANCH   7   8
ENDBRANCH   1   7
BRANCH   4  15
ATOM     15  C   UNL     1       3.156  44.172  53.002  1.00  0.00     0.274 C 
ATOM     16  O   UNL     1       3.453  43.002  52.634  1.00  0.00    -0.267 OA
ATOM     17  N   UNL     1       3.876  45.297  52.470  1.00  0.00    -0.321 N 
ATOM     18  H   UNL     1       3.426  46.241  52.519  1.00  0.00     0.170 HD
BRANCH  17  19
ATOM     19  C   UNL     1       5.119  45.188  51.756  1.00  0.00     0.041 A 
ATOM     20  C   UNL     1       5.255  44.213  50.758  1.00  0.00     0.026 A 
ATOM     21  C   UNL     1       6.184  46.075  52.001  1.00  0.00     0.032 A 
ATOM     22  C   UNL     1       6.450  44.095  50.044  1.00  0.00     0.003 A 
ATOM     23  C   UNL     1       7.385  45.968  51.278  1.00  0.00    -0.024 A 
ATOM     24  C   UNL     1       7.513  44.959  50.307  1.00  0.00     0.006 A 
BRANCH  23  25
ATOM     25  C   UNL     1       8.536  46.906  51.574  1.00  0.00     0.113 C 
ATOM     26  C   UNL     1       8.057  48.219  52.245  1.00  0.00     0.040 C 
ATOM     27  N   UNL     1       9.465  46.295  52.507  1.00  0.00    -0.349 N 
ATOM     28  C   UNL     1       8.696  48.278  53.643  1.00  0.00     0.102 C 
ATOM     29  C   UNL     1       9.557  47.079  53.675  1.00  0.00     0.220 C 
ATOM     30  O   UNL     1      10.297  46.771  54.645  1.00  0.00    -0.275 OA
ATOM     31  H   UNL     1       9.997  45.413  52.335  1.00  0.00     0.164 HD
ENDBRANCH  23  25
ENDBRANCH  17  19
ENDBRANCH   4  15
TORSDOF 5
ENDMDL
MODEL 5
REMARK VINA RESULT:    -8.420      3.062     10.304
REMARK INTER + INTRA:         -11.813
REMARK INTER:                 -11.100
REMARK INTRA:                  -0.713
REMARK UNBOUND:                -0.932
REMARK SMILES Cc1cccc(Oc2ccc(C(=O)Nc3cccc([C@H]4CCC(=O)N4)c3)nc2)c1
REMARK SMILES IDX 8 1 9 2 10 3 11 4 27 5 28 6 7 7 6 8 2 9 3 10 29 11 4 12 5 13
REMARK SMILES IDX 1 14 12 15 13 16 14 17 15 19 16 20 26 21 17 22 19 23 18 24
REMARK SMILES IDX 20 25 21 26 25 27 22 28 23 29 24 30
REMARK H PARENT 14 18 25 31
ROOT
ATOM      1  C   UNL     1       4.545  46.133  52.196  1.00  0.00     0.145 A 
ATOM      2  C   UNL     1       4.279  44.836  52.640  1.00  0.00     0.051 A 
ATOM      3  C   UNL     1       3.063  44.539  53.258  1.00  0.00     0.038 A 
ATOM      4  C   UNL     1       2.114  45.559  53.443  1.00  0.00     0.128 A 
ATOM      5  N   UNL     1       2.403  46.820  53.020  1.00  0.00    -0.247 NA
ATOM      6  C   UNL     1       3.580  47.129  52.412  1.00  0.00     0.159 A 
ENDROOT
BRANCH   1   7
ATOM      7  O   UNL     1       5.782  46.406  51.595  1.00  0.00    -0.456 OA
BRANCH   7   8
ATOM      8  C   UNL     1       6.997  46.580  52.275  1.00  0.00     0.127 A 
ATOM      9  C   UNL     1       9.427  46.408  52.260  1.00  0.00    -0.047 A 
ATOM     10  C   UNL     1       9.466  46.929  53.562  1.00  0.00     0.003 A 
ATOM     11  C   UNL     1       8.187  46.229  51.625  1.00  0.00     0.050 A 
ATOM     12  C   UNL     1       8.283  47.299  54.206  1.00  0.00     0.004 A 
ATOM     13  C   UNL     1       7.053  47.134  53.566  1.00  0.00     0.047 A 
ATOM     14  C   UNL     1      10.691  45.981  51.574  1.00  0.00     0.044 C 
ENDBRANCH   7   8
ENDBRANCH   1   7
BRANCH   4  15
ATOM     15  C   UNL     1       0.813  45.282  54.090  1.00  0.00     0.274 C 
ATOM     16  O   UNL     1      -0.183  44.969  53.380  1.00  0.00    -0.267 OA
ATOM     17  N   UNL     1       0.688  45.331  55.522  1.00  0.00    -0.321 N 
ATOM     18  H   UNL     1       1.559  45.266  56.097  1.00  0.00     0.170 HD
BRANCH  17  19
ATOM     19  C   UNL     1      -0.571  45.333  56.216  1.00  0.00     0.041 A 
ATOM     20  C   UNL     1      -1.374  44.184  56.187  1.00  0.00     0.026 A 
ATOM     21  C   UNL     1      -0.990  46.446  56.968  1.00  0.00     0.032 A 
ATOM     22  C   UNL     1      -2.595  44.159  56.863  1.00  0.00     0.003 A 
ATOM     23  C   UNL     1      -2.213  46.423  57.660  1.00  0.00    -0.024 A 
ATOM     24  C   UNL     1      -3.020  45.273  57.588  1.00  0.00     0.006 A 
BRANCH  23  25
ATOM     25  C   UNL     1      -2.669  47.638  58.439  1.00  0.00     0.113 C 
ATOM     26  C   UNL     1      -3.349  47.250  59.776  1.00  0.00     0.040 C 
ATOM     27  N   UNL     1      -1.535  48.472  58.793  1.00  0.00    -0.349 N 
ATOM     28  C   UNL     1      -2.492  47.835  60.912  1.00  0.00     0.102 C 
ATOM     29  C   UNL     1      -1.442  48.585  60.195  1.00  0.00     0.220 C 
ATOM     30  O   UNL     1      -0.543  49.256  60.766  1.00  0.00    -0.275 OA
ATOM     31  H   UNL     1      -0.890  48.931  58.111  1.00  0.00     0.164 HD
ENDBRANCH  23  25
ENDBRANCH  17  19
ENDBRANCH   4  15
TORSDOF 5
ENDMDL
