MODEL 1
REMARK VINA RESULT:    -8.479      0.000      0.000
REMARK INTER + INTRA:          -9.361
REMARK INTER:                  -9.718
REMARK INTRA:                   0.357
REMARK UNBOUND:                 0.357
REMARK SMILES O=C1C[C@](O)(C(=O)N2CC(CF)C2)c2cc(Br)ccc2N1
REMARK SMILES IDX 4 1 3 2 2 3 1 4 21 5 20 6 19 7 18 8 16 9 17 10 15 11 14 12
REMARK SMILES IDX 6 14 7 15 8 16 9 17 13 18 10 19 11 20 12 21 5 22
REMARK H PARENT 21 13 5 23
ROOT
ATOM      1  C   UNL     1       4.601  45.523  51.637  1.00  0.00     0.179 C 
ATOM      2  C   UNL     1       3.257  46.174  52.071  1.00  0.00     0.151 C 
ATOM      3  C   UNL     1       3.077  46.139  53.558  1.00  0.00     0.228 C 
ATOM      4  O   UNL     1       1.928  46.001  54.057  1.00  0.00    -0.275 OA
ATOM      5  N   UNL     1       4.207  46.341  54.406  1.00  0.00    -0.326 N 
ATOM      6  C   UNL     1       5.528  46.404  53.851  1.00  0.00     0.047 A 
ATOM      7  C   UNL     1       6.602  46.801  54.660  1.00  0.00     0.028 A 
ATOM      8  C   UNL     1       7.897  46.843  54.141  1.00  0.00     0.018 A 
ATOM      9  C   UNL     1       8.132  46.475  52.815  1.00  0.00     0.018 A 
ATOM     10  Br  UNL     1       9.910  46.505  52.118  1.00  0.00    -0.051 Br
ATOM     11  C   UNL     1       7.069  46.069  52.001  1.00  0.00     0.025 A 
ATOM     12  C   UNL     1       5.751  46.052  52.499  1.00  0.00     0.018 A 
ATOM     13  H   UNL     1       4.061  46.455  55.435  1.00  0.00     0.169 HD
ENDROOT
BRANCH   1  14
ATOM     14  C   UNL     1       4.507  44.011  51.784  1.00  0.00     0.259 C 
ATOM     15  O   UNL     1       3.785  43.508  52.688  1.00  0.00    -0.271 OA
ATOM     16  N   UNL     1       5.161  43.130  50.866  1.00  0.00    -0.339 N 
ATOM     17  C   UNL     1       5.219  41.671  50.661  1.00  0.00     0.127 C 
ATOM     18  C   UNL     1       6.041  43.192  49.683  1.00  0.00     0.127 C 
ATOM     19  C   UNL     1       6.108  41.714  49.456  1.00  0.00     0.059 C 
BRANCH  19  20
ATOM     20  C   UNL     1       5.438  41.247  48.160  1.00  0.00     0.221 C 
ATOM     21  F   UNL     1       6.011  41.897  47.082  1.00  0.00    -0.251 F 
ENDBRANCH  19  20
ENDBRANCH   1  14
BRANCH   1  22
ATOM     22  O   UNL     1       4.879  45.846  50.289  1.00  0.00    -0.375 OA
ATOM     23  H   UNL     1       5.782  45.512  50.048  1.00  0.00     0.212 HD
ENDBRANCH   1  22
TORSDOF 3
ENDMDL
MODEL 2
REMARK VINA RESULT:    -8.275      3.538      4.699
REMARK INTER + INTRA:          -9.127
REMARK INTER:                  -8.902
REMARK INTRA:                  -0.225
REMARK UNBOUND:                 0.357
REMARK SMILES O=C1C[C@](O)(C(=O)N2CC(CF)C2)c2cc(Br)ccc2N1
REMARK SMILES IDX 4 1 3 2 2 3 1 4 21 5 20 6 19 7 18 8 16 9 17 10 15 11 14 12
REMARK SMILES IDX 6 14 7 15 8 16 9 17 13 18 10 19 11 20 12 21 5 22
REMARK H PARENT 21 13 5 23
ROOT
ATOM      1  C   UNL     1       3.945  46.041  51.883  1.00  0.00     0.179 C 
ATOM      2  C   UNL     1       3.541  47.423  52.474  1.00  0.00     0.151 C 
ATOM      3  C   UNL     1       4.483  47.862  53.553  1.00  0.00     0.228 C 
ATOM      4  O   UNL     1       4.060  48.528  54.535  1.00  0.00    -0.275 OA
ATOM      5  N   UNL     1       5.877  47.588  53.421  1.00  0.00    -0.326 N 
ATOM      6  C   UNL     1       6.355  46.752  52.358  1.00  0.00     0.047 A 
ATOM      7  C   UNL     1       7.732  46.653  52.118  1.00  0.00     0.028 A 
ATOM      8  C   UNL     1       8.213  45.824  51.103  1.00  0.00     0.018 A 
ATOM      9  C   UNL     1       7.324  45.076  50.331  1.00  0.00     0.018 A 
ATOM     10  Br  UNL     1       7.989  43.920  48.963  1.00  0.00    -0.051 Br
ATOM     11  C   UNL     1       5.948  45.160  50.567  1.00  0.00     0.025 A 
ATOM     12  C   UNL     1       5.443  46.017  51.565  1.00  0.00     0.018 A 
ATOM     13  H   UNL     1       6.549  48.013  54.099  1.00  0.00     0.169 HD
ENDROOT
BRANCH   1  14
ATOM     14  C   UNL     1       3.618  44.943  52.884  1.00  0.00     0.259 C 
ATOM     15  O   UNL     1       4.549  44.315  53.460  1.00  0.00    -0.271 OA
ATOM     16  N   UNL     1       2.268  44.648  53.255  1.00  0.00    -0.339 N 
ATOM     17  C   UNL     1       1.609  43.745  54.216  1.00  0.00     0.127 C 
ATOM     18  C   UNL     1       0.895  45.083  52.934  1.00  0.00     0.127 C 
ATOM     19  C   UNL     1       0.208  44.175  53.906  1.00  0.00     0.059 C 
BRANCH  19  20
ATOM     20  C   UNL     1      -0.496  44.906  55.055  1.00  0.00     0.221 C 
ATOM     21  F   UNL     1      -1.331  44.026  55.720  1.00  0.00    -0.251 F 
ENDBRANCH  19  20
ENDBRANCH   1  14
BRANCH   1  22
ATOM     22  O   UNL     1       3.238  45.807  50.682  1.00  0.00    -0.375 OA
ATOM     23  H   UNL     1       2.300  46.112  50.786  1.00  0.00     0.212 HD
ENDBRANCH   1  22
TORSDOF 3
ENDMDL
MODEL 3
REMARK VINA RESULT:    -8.234      3.340      5.245
REMARK INTER + INTRA:          -9.081
REMARK INTER:                  -8.845
REMARK INTRA:                  -0.235
REMARK UNBOUND:                 0.357
REMARK SMILES O=C1C[C@](O)(C(=O)N2CC(CF)C2)c2cc(Br)ccc2N1
REMARK SMILES IDX 4 1 3 2 2 3 1 4 21 5 20 6 19 7 18 8 16 9 17 10 15 11 14 12
REMARK SMILES IDX 6 14 7 15 8 16 9 17 13 18 10 19 11 20 12 21 5 22
REMARK H PARENT 21 13 5 23
ROOT
ATOM      1  C   UNL     1       4.129  43.908  52.515  1.00  0.00     0.179 C 
ATOM      2  C   UNL     1       3.973  42.381  52.266  1.00  0.00     0.151 C 
ATOM      3  C   UNL     1       4.207  42.025  50.829  1.00  0.00     0.228 C 
ATOM      4  O   UNL     1       3.563  41.085  50.293  1.00  0.00    -0.275 OA
ATOM      5  N   UNL     1       5.222  42.709  50.095  1.00  0.00    -0.326 N 
ATOM      6  C   UNL     1       5.893  43.840  50.665  1.00  0.00     0.047 A 
ATOM      7  C   UNL     1       7.018  44.376  50.024  1.00  0.00     0.028 A 
ATOM      8  C   UNL     1       7.667  45.493  50.553  1.00  0.00     0.018 A 
ATOM      9  C   UNL     1       7.188  46.092  51.720  1.00  0.00     0.018 A 
ATOM     10  Br  UNL     1       8.061  47.638  52.425  1.00  0.00    -0.051 Br
ATOM     11  C   UNL     1       6.061  45.571  52.364  1.00  0.00     0.025 A 
ATOM     12  C   UNL     1       5.414  44.425  51.861  1.00  0.00     0.018 A 
ATOM     13  H   UNL     1       5.480  42.369  49.140  1.00  0.00     0.169 HD
ENDROOT
BRANCH   1  14
ATOM     14  C   UNL     1       2.930  44.645  51.935  1.00  0.00     0.259 C 
ATOM     15  O   UNL     1       3.036  45.259  50.838  1.00  0.00    -0.271 OA
ATOM     16  N   UNL     1       1.648  44.598  52.568  1.00  0.00    -0.339 N 
ATOM     17  C   UNL     1       0.297  45.102  52.258  1.00  0.00     0.127 C 
ATOM     18  C   UNL     1       1.008  44.028  53.770  1.00  0.00     0.127 C 
ATOM     19  C   UNL     1      -0.370  44.528  53.469  1.00  0.00     0.059 C 
BRANCH  19  20
ATOM     20  C   UNL     1      -1.386  43.421  53.166  1.00  0.00     0.221 C 
ATOM     21  F   UNL     1      -2.619  43.767  53.688  1.00  0.00    -0.251 F 
ENDBRANCH  19  20
ENDBRANCH   1  14
BRANCH   1  22
ATOM     22  O   UNL     1       4.210  44.163  53.903  1.00  0.00    -0.375 OA
ATOM     23  H   UNL     1       3.436  44.717  54.183  1.00  0.00     0.212 HD
ENDBRANCH   1  22
TORSDOF 3
ENDMDL
MODEL 4
REMARK VINA RESULT:    -8.223      3.699      5.932
REMARK INTER + INTRA:          -9.068
REMARK INTER:                  -9.027
REMARK INTRA:                  -0.041
REMARK UNBOUND:                 0.357
REMARK SMILES O=C1C[C@](O)(C(=O)N2CC(CF)C2)c2cc(Br)ccc2N1
REMARK SMILES IDX 4 1 3 2 2 3 1 4 21 5 20 6 19 7 18 8 16 9 17 10 15 11 14 12
REMARK SMILES IDX 6 14 7 15 8 16 9 17 13 18 10 19 11 20 12 21 5 22
REMARK H PARENT 21 13 5 23
ROOT
ATOM      1  C   UNL     1       4.018  46.059  52.484  1.00  0.00     0.179 C 
ATOM      2  C   UNL     1       4.693  45.770  51.113  1.00  0.00     0.151 C 
ATOM      3  C   UNL     1       5.087  44.330  50.981  1.00  0.00     0.228 C 
ATOM      4  O   UNL     1       6.125  44.011  50.341  1.00  0.00    -0.275 OA
ATOM      5  N   UNL     1       4.238  43.318  51.519  1.00  0.00    -0.326 N 
ATOM      6  C   UNL     1       3.110  43.673  52.329  1.00  0.00     0.047 A 
ATOM      7  C   UNL     1       2.172  42.692  52.683  1.00  0.00     0.028 A 
ATOM      8  C   UNL     1       1.082  43.018  53.492  1.00  0.00     0.018 A 
ATOM      9  C   UNL     1       0.927  44.322  53.965  1.00  0.00     0.018 A 
ATOM     10  Br  UNL     1      -0.550  44.756  55.095  1.00  0.00    -0.051 Br
ATOM     11  C   UNL     1       1.860  45.307  53.625  1.00  0.00     0.025 A 
ATOM     12  C   UNL     1       2.948  45.004  52.783  1.00  0.00     0.018 A 
ATOM     13  H   UNL     1       4.440  42.314  51.308  1.00  0.00     0.169 HD
ENDROOT
BRANCH   1  14
ATOM     14  C   UNL     1       5.069  46.045  53.584  1.00  0.00     0.259 C 
ATOM     15  O   UNL     1       4.874  45.377  54.637  1.00  0.00    -0.271 OA
ATOM     16  N   UNL     1       6.323  46.715  53.426  1.00  0.00    -0.339 N 
ATOM     17  C   UNL     1       7.561  46.840  54.216  1.00  0.00     0.127 C 
ATOM     18  C   UNL     1       7.032  47.554  52.440  1.00  0.00     0.127 C 
ATOM     19  C   UNL     1       8.298  47.688  53.227  1.00  0.00     0.059 C 
BRANCH  19  20
ATOM     20  C   UNL     1       9.510  47.003  52.585  1.00  0.00     0.221 C 
ATOM     21  F   UNL     1      10.623  47.187  53.385  1.00  0.00    -0.251 F 
ENDBRANCH  19  20
ENDBRANCH   1  14
BRANCH   1  22
ATOM     22  O   UNL     1       3.388  47.324  52.453  1.00  0.00    -0.375 OA
ATOM     23  H   UNL     1       4.030  48.020  52.748  1.00  0.00     0.212 HD
ENDBRANCH   1  22
TORSDOF 3
ENDMDL
MODEL 5
REMARK VINA RESULT:    -7.777      4.133      5.773
REMARK INTER + INTRA:          -8.557
REMARK INTER:                  -8.562
REMARK INTRA:                   0.005
REMARK UNBOUND:                 0.357
REMARK SMILES O=C1C[C@](O)(C(=O)N2CC(CF)C2)c2cc(Br)ccc2N1
REMARK SMILES IDX 4 1 3 2 2 3 1 4 21 5 20 6 19 7 18 8 16 9 17 10 15 11 14 12
REMARK SMILES IDX 6 14 7 15 8 16 9 17 13 18 10 19 11 20 12 21 5 22
REMARK H PARENT 21 13 5 23
ROOT
ATOM      1  C   UNL     1       4.420  44.901  52.874  1.00  0.00     0.179 C 
ATOM      2  C   UNL     1       5.351  44.276  53.953  1.00  0.00     0.151 C 
ATOM      3  C   UNL     1       5.052  44.811  55.321  1.00  0.00     0.228 C 
ATOM      4  O   UNL     1       5.979  44.966  56.160  1.00  0.00    -0.275 OA
ATOM      5  N   UNL     1       3.699  45.069  55.693  1.00  0.00    -0.326 N 
ATOM      6  C   UNL     1       2.651  44.986  54.718  1.00  0.00     0.047 A 
ATOM      7  C   UNL     1       1.312  45.042  55.131  1.00  0.00     0.028 A 
ATOM      8  C   UNL     1       0.281  44.988  54.192  1.00  0.00     0.018 A 
ATOM      9  C   UNL     1       0.579  44.892  52.832  1.00  0.00     0.018 A 
ATOM     10  Br  UNL     1      -0.835  44.848  51.548  1.00  0.00    -0.051 Br
ATOM     11  C   UNL     1       1.910  44.843  52.407  1.00  0.00     0.025 A 
ATOM     12  C   UNL     1       2.963  44.864  53.344  1.00  0.00     0.018 A 
ATOM     13  H   UNL     1       3.477  45.307  56.686  1.00  0.00     0.169 HD
ENDROOT
BRANCH   1  14
ATOM     14  C   UNL     1       4.835  46.341  52.614  1.00  0.00     0.259 C 
ATOM     15  O   UNL     1       3.959  47.245  52.520  1.00  0.00    -0.271 OA
ATOM     16  N   UNL     1       6.213  46.721  52.547  1.00  0.00    -0.339 N 
ATOM     17  C   UNL     1       6.955  47.986  52.399  1.00  0.00     0.127 C 
ATOM     18  C   UNL     1       7.553  46.105  52.625  1.00  0.00     0.127 C 
ATOM     19  C   UNL     1       8.323  47.381  52.479  1.00  0.00     0.059 C 
BRANCH  19  20
ATOM     20  C   UNL     1       9.117  47.779  53.728  1.00  0.00     0.221 C 
ATOM     21  F   UNL     1      10.418  47.322  53.615  1.00  0.00    -0.251 F 
ENDBRANCH  19  20
ENDBRANCH   1  14
BRANCH   1  22
ATOM     22  O   UNL     1       4.513  44.162  51.673  1.00  0.00    -0.375 OA
ATOM     23  H   UNL     1       4.553  44.786  50.903  1.00  0.00     0.212 HD
ENDBRANCH   1  22
TORSDOF 3
ENDMDL
