MODEL 1
REMARK VINA RESULT:    -9.079      0.000      0.000
REMARK INTER + INTRA:         -11.562
REMARK INTER:                 -11.733
REMARK INTRA:                   0.171
REMARK UNBOUND:                 0.171
REMARK SMILES Cc1ccc(CC(C)(C)NC(=O)c2cc(-c3ccn(C)n3)on2)cc1
REMARK SMILES IDX 10 1 11 2 12 3 7 5 8 6 9 7 6 8 5 9 2 10 3 11 25 12 4 13
REMARK SMILES IDX 24 14 1 15 13 16 14 17 23 18 15 19 22 20 16 21 17 22 21 23
REMARK SMILES IDX 18 24 19 25 20 26
REMARK H PARENT 10 4
ROOT
ATOM      1  N   UNL     1       6.385  46.780  52.637  1.00  0.00    -0.345 N 
ATOM      2  C   UNL     1       5.926  46.706  54.000  1.00  0.00     0.273 C 
ATOM      3  O   UNL     1       6.624  47.173  54.939  1.00  0.00    -0.267 OA
ATOM      4  H   UNL     1       5.660  46.679  51.895  1.00  0.00     0.164 HD
ENDROOT
BRANCH   1   5
ATOM      5  C   UNL     1       7.779  47.037  52.225  1.00  0.00     0.039 C 
ATOM      6  C   UNL     1       8.763  46.226  53.100  1.00  0.00     0.035 C 
ATOM      7  C   UNL     1       8.083  48.540  52.375  1.00  0.00     0.035 C 
BRANCH   5   8
ATOM      8  C   UNL     1       7.966  46.656  50.723  1.00  0.00     0.063 C 
BRANCH   8   9
ATOM      9  C   UNL     1       7.422  45.290  50.355  1.00  0.00    -0.046 A 
ATOM     10  C   UNL     1       6.417  42.746  49.675  1.00  0.00    -0.051 A 
ATOM     11  C   UNL     1       5.627  43.648  50.402  1.00  0.00     0.004 A 
ATOM     12  C   UNL     1       7.716  43.118  49.299  1.00  0.00     0.004 A 
ATOM     13  C   UNL     1       6.120  44.915  50.728  1.00  0.00     0.004 A 
ATOM     14  C   UNL     1       8.210  44.384  49.625  1.00  0.00     0.004 A 
ATOM     15  C   UNL     1       5.904  41.372  49.363  1.00  0.00     0.044 C 
ENDBRANCH   8   9
ENDBRANCH   5   8
ENDBRANCH   1   5
BRANCH   2  16
ATOM     16  C   UNL     1       4.626  46.092  54.320  1.00  0.00     0.171 A 
ATOM     17  C   UNL     1       3.788  45.425  53.446  1.00  0.00     0.090 A 
ATOM     18  N   UNL     1       4.091  46.078  55.558  1.00  0.00    -0.074 NA
ATOM     19  C   UNL     1       2.738  45.031  54.248  1.00  0.00     0.187 A 
ATOM     20  O   UNL     1       2.961  45.438  55.476  1.00  0.00    -0.354 OA
BRANCH  19  21
ATOM     21  C   UNL     1       1.557  44.274  53.822  1.00  0.00     0.130 A 
ATOM     22  C   UNL     1       1.569  43.040  53.199  1.00  0.00     0.054 A 
ATOM     23  N   UNL     1       0.288  44.690  54.001  1.00  0.00    -0.170 NA
ATOM     24  C   UNL     1       0.236  42.740  53.011  1.00  0.00     0.109 A 
ATOM     25  N   UNL     1      -0.501  43.757  53.493  1.00  0.00    -0.275 N 
ATOM     26  C   UNL     1      -1.956  43.806  53.549  1.00  0.00     0.173 C 
ENDBRANCH  19  21
ENDBRANCH   2  16
TORSDOF 5
ENDMDL
MODEL 2
REMARK VINA RESULT:    -9.057      1.916      6.408
REMARK INTER + INTRA:         -11.534
REMARK INTER:                 -11.550
REMARK INTRA:                   0.016
REMARK UNBOUND:                 0.171
REMARK SMILES Cc1ccc(CC(C)(C)NC(=O)c2cc(-c3ccn(C)n3)on2)cc1
REMARK SMILES IDX 10 1 11 2 12 3 7 5 8 6 9 7 6 8 5 9 2 10 3 11 25 12 4 13
REMARK SMILES IDX 24 14 1 15 13 16 14 17 23 18 15 19 22 20 16 21 17 22 21 23
REMARK SMILES IDX 18 24 19 25 20 26
REMARK H PARENT 10 4
ROOT
ATOM      1  N   UNL     1       2.519  44.751  53.531  1.00  0.00    -0.345 N 
ATOM      2  C   UNL     1       2.920  46.118  53.317  1.00  0.00     0.273 C 
ATOM      3  O   UNL     1       2.123  46.946  52.800  1.00  0.00    -0.267 OA
ATOM      4  H   UNL     1       3.070  44.208  54.229  1.00  0.00     0.164 HD
ENDROOT
BRANCH   1   5
ATOM      5  C   UNL     1       1.369  44.093  52.880  1.00  0.00     0.039 C 
ATOM      6  C   UNL     1       0.080  44.922  53.088  1.00  0.00     0.035 C 
ATOM      7  C   UNL     1       1.176  42.690  53.489  1.00  0.00     0.035 C 
BRANCH   5   8
ATOM      8  C   UNL     1       1.650  43.921  51.354  1.00  0.00     0.063 C 
BRANCH   8   9
ATOM      9  C   UNL     1       2.969  43.244  51.039  1.00  0.00    -0.046 A 
ATOM     10  C   UNL     1       5.417  41.981  50.444  1.00  0.00    -0.051 A 
ATOM     11  C   UNL     1       5.374  43.361  50.688  1.00  0.00     0.004 A 
ATOM     12  C   UNL     1       4.230  41.236  50.489  1.00  0.00     0.004 A 
ATOM     13  C   UNL     1       4.161  43.985  50.996  1.00  0.00     0.004 A 
ATOM     14  C   UNL     1       3.017  41.860  50.796  1.00  0.00     0.004 A 
ATOM     15  C   UNL     1       6.711  41.319  50.072  1.00  0.00     0.044 C 
ENDBRANCH   8   9
ENDBRANCH   5   8
ENDBRANCH   1   5
BRANCH   2  16
ATOM     16  C   UNL     1       4.263  46.574  53.709  1.00  0.00     0.171 A 
ATOM     17  C   UNL     1       5.461  46.228  53.115  1.00  0.00     0.090 A 
ATOM     18  N   UNL     1       4.493  47.442  54.715  1.00  0.00    -0.074 NA
ATOM     19  C   UNL     1       6.395  46.941  53.836  1.00  0.00     0.187 A 
ATOM     20  O   UNL     1       5.779  47.636  54.763  1.00  0.00    -0.354 OA
BRANCH  19  21
ATOM     21  C   UNL     1       7.845  46.943  53.618  1.00  0.00     0.130 A 
ATOM     22  C   UNL     1       8.789  47.499  54.463  1.00  0.00     0.054 A 
ATOM     23  N   UNL     1       8.450  46.383  52.553  1.00  0.00    -0.170 NA
ATOM     24  C   UNL     1       9.994  47.242  53.844  1.00  0.00     0.109 A 
ATOM     25  N   UNL     1       9.750  46.584  52.696  1.00  0.00    -0.275 N 
ATOM     26  C   UNL     1      10.757  46.069  51.777  1.00  0.00     0.173 C 
ENDBRANCH  19  21
ENDBRANCH   2  16
TORSDOF 5
ENDMDL
MODEL 3
REMARK VINA RESULT:    -8.559      3.933      6.184
REMARK INTER + INTRA:         -10.890
REMARK INTER:                 -10.833
REMARK INTRA:                  -0.057
REMARK UNBOUND:                 0.171
REMARK SMILES Cc1ccc(CC(C)(C)NC(=O)c2cc(-c3ccn(C)n3)on2)cc1
REMARK SMILES IDX 10 1 11 2 12 3 7 5 8 6 9 7 6 8 5 9 2 10 3 11 25 12 4 13
REMARK SMILES IDX 24 14 1 15 13 16 14 17 23 18 15 19 22 20 16 21 17 22 21 23
REMARK SMILES IDX 18 24 19 25 20 26
REMARK H PARENT 10 4
ROOT
ATOM      1  N   UNL     1       4.180  44.470  52.012  1.00  0.00    -0.345 N 
ATOM      2  C   UNL     1       3.760  43.092  52.013  1.00  0.00     0.273 C 
ATOM      3  O   UNL     1       3.112  42.620  52.985  1.00  0.00    -0.267 OA
ATOM      4  H   UNL     1       4.418  44.884  51.086  1.00  0.00     0.164 HD
ENDROOT
BRANCH   1   5
ATOM      5  C   UNL     1       4.246  45.337  53.206  1.00  0.00     0.039 C 
ATOM      6  C   UNL     1       5.039  44.644  54.338  1.00  0.00     0.035 C 
ATOM      7  C   UNL     1       2.815  45.635  53.694  1.00  0.00     0.035 C 
BRANCH   5   8
ATOM      8  C   UNL     1       4.922  46.695  52.838  1.00  0.00     0.063 C 
BRANCH   8   9
ATOM      9  C   UNL     1       6.411  46.596  52.574  1.00  0.00    -0.046 A 
ATOM     10  C   UNL     1       9.182  46.409  52.092  1.00  0.00    -0.051 A 
ATOM     11  C   UNL     1       8.265  45.945  51.138  1.00  0.00     0.004 A 
ATOM     12  C   UNL     1       8.708  46.958  53.292  1.00  0.00     0.004 A 
ATOM     13  C   UNL     1       6.890  46.050  51.371  1.00  0.00     0.004 A 
ATOM     14  C   UNL     1       7.333  47.062  53.526  1.00  0.00     0.004 A 
ATOM     15  C   UNL     1      10.656  46.258  51.859  1.00  0.00     0.044 C 
ENDBRANCH   8   9
ENDBRANCH   5   8
ENDBRANCH   1   5
BRANCH   2  16
ATOM     16  C   UNL     1       4.071  42.214  50.873  1.00  0.00     0.171 A 
ATOM     17  C   UNL     1       3.165  41.589  50.038  1.00  0.00     0.090 A 
ATOM     18  N   UNL     1       5.327  41.928  50.472  1.00  0.00    -0.074 NA
ATOM     19  C   UNL     1       3.967  40.923  49.136  1.00  0.00     0.187 A 
ATOM     20  O   UNL     1       5.225  41.152  49.432  1.00  0.00    -0.354 OA
BRANCH  19  21
ATOM     21  C   UNL     1       3.512  40.094  48.015  1.00  0.00     0.130 A 
ATOM     22  C   UNL     1       3.643  40.405  46.674  1.00  0.00     0.054 A 
ATOM     23  N   UNL     1       2.909  38.898  48.156  1.00  0.00    -0.170 NA
ATOM     24  C   UNL     1       3.083  39.329  46.018  1.00  0.00     0.109 A 
ATOM     25  N   UNL     1       2.643  38.452  46.939  1.00  0.00    -0.275 N 
ATOM     26  C   UNL     1       2.048  37.151  46.663  1.00  0.00     0.173 C 
ENDBRANCH  19  21
ENDBRANCH   2  16
TORSDOF 5
ENDMDL
MODEL 4
REMARK VINA RESULT:    -8.425      2.609      4.528
REMARK INTER + INTRA:         -10.717
REMARK INTER:                 -10.838
REMARK INTRA:                   0.121
REMARK UNBOUND:                 0.171
REMARK SMILES Cc1ccc(CC(C)(C)NC(=O)c2cc(-c3ccn(C)n3)on2)cc1
REMARK SMILES IDX 10 1 11 2 12 3 7 5 8 6 9 7 6 8 5 9 2 10 3 11 25 12 4 13
REMARK SMILES IDX 24 14 1 15 13 16 14 17 23 18 15 19 22 20 16 21 17 22 21 23
REMARK SMILES IDX 18 24 19 25 20 26
REMARK H PARENT 10 4
ROOT
ATOM      1  N   UNL     1       5.365  42.806  50.345  1.00  0.00    -0.345 N 
ATOM      2  C   UNL     1       4.256  42.041  50.854  1.00  0.00     0.273 C 
ATOM      3  O   UNL     1       4.225  40.789  50.719  1.00  0.00    -0.267 OA
ATOM      4  H   UNL     1       5.500  43.757  50.750  1.00  0.00     0.164 HD
ENDROOT
BRANCH   1   5
ATOM      5  C   UNL     1       6.340  42.325  49.346  1.00  0.00     0.039 C 
ATOM      6  C   UNL     1       5.623  41.549  48.218  1.00  0.00     0.035 C 
ATOM      7  C   UNL     1       7.357  41.396  50.037  1.00  0.00     0.035 C 
BRANCH   5   8
ATOM      8  C   UNL     1       7.123  43.534  48.745  1.00  0.00     0.063 C 
BRANCH   8   9
ATOM      9  C   UNL     1       7.784  44.423  49.780  1.00  0.00    -0.046 A 
ATOM     10  C   UNL     1       9.019  46.078  51.698  1.00  0.00    -0.051 A 
ATOM     11  C   UNL     1       7.626  46.103  51.533  1.00  0.00     0.004 A 
ATOM     12  C   UNL     1       9.792  45.230  50.893  1.00  0.00     0.004 A 
ATOM     13  C   UNL     1       7.012  45.272  50.591  1.00  0.00     0.004 A 
ATOM     14  C   UNL     1       9.179  44.400  49.950  1.00  0.00     0.004 A 
ATOM     15  C   UNL     1       9.680  47.000  52.679  1.00  0.00     0.044 C 
ENDBRANCH   8   9
ENDBRANCH   5   8
ENDBRANCH   1   5
BRANCH   2  16
ATOM     16  C   UNL     1       3.143  42.708  51.551  1.00  0.00     0.171 A 
ATOM     17  C   UNL     1       3.092  43.054  52.887  1.00  0.00     0.090 A 
ATOM     18  N   UNL     1       2.009  43.105  50.938  1.00  0.00    -0.074 NA
ATOM     19  C   UNL     1       1.865  43.668  53.013  1.00  0.00     0.187 A 
ATOM     20  O   UNL     1       1.267  43.673  51.844  1.00  0.00    -0.354 OA
BRANCH  19  21
ATOM     21  C   UNL     1       1.299  44.237  54.240  1.00  0.00     0.130 A 
ATOM     22  C   UNL     1       1.995  44.959  55.192  1.00  0.00     0.054 A 
ATOM     23  N   UNL     1       0.002  44.135  54.592  1.00  0.00    -0.170 NA
ATOM     24  C   UNL     1       1.044  45.283  56.137  1.00  0.00     0.109 A 
ATOM     25  N   UNL     1      -0.135  44.762  55.750  1.00  0.00    -0.275 N 
ATOM     26  C   UNL     1      -1.410  44.931  56.435  1.00  0.00     0.173 C 
ENDBRANCH  19  21
ENDBRANCH   2  16
TORSDOF 5
ENDMDL
MODEL 5
REMARK VINA RESULT:    -7.931      2.554      4.232
REMARK INTER + INTRA:         -10.079
REMARK INTER:                 -10.065
REMARK INTRA:                  -0.014
REMARK UNBOUND:                 0.171
REMARK SMILES Cc1ccc(CC(C)(C)NC(=O)c2cc(-c3ccn(C)n3)on2)cc1
REMARK SMILES IDX 10 1 11 2 12 3 7 5 8 6 9 7 6 8 5 9 2 10 3 11 25 12 4 13
REMARK SMILES IDX 24 14 1 15 13 16 14 17 23 18 15 19 22 20 16 21 17 22 21 23
REMARK SMILES IDX 18 24 19 25 20 26
REMARK H PARENT 10 4
ROOT
ATOM      1  N   UNL     1       3.265  44.557  53.667  1.00  0.00    -0.345 N 
ATOM      2  C   UNL     1       1.985  44.998  53.174  1.00  0.00     0.273 C 
ATOM      3  O   UNL     1       1.820  46.189  52.796  1.00  0.00    -0.267 OA
ATOM      4  H   UNL     1       3.437  43.530  53.660  1.00  0.00     0.164 HD
ENDROOT
BRANCH   1   5
ATOM      5  C   UNL     1       4.350  45.447  54.124  1.00  0.00     0.039 C 
ATOM      6  C   UNL     1       5.570  44.621  54.593  1.00  0.00     0.035 C 
ATOM      7  C   UNL     1       3.839  46.311  55.293  1.00  0.00     0.035 C 
BRANCH   5   8
ATOM      8  C   UNL     1       4.772  46.406  52.966  1.00  0.00     0.063 C 
BRANCH   8   9
ATOM      9  C   UNL     1       5.719  45.785  51.959  1.00  0.00    -0.046 A 
ATOM     10  C   UNL     1       7.474  44.630  50.080  1.00  0.00    -0.051 A 
ATOM     11  C   UNL     1       7.883  45.729  50.848  1.00  0.00     0.004 A 
ATOM     12  C   UNL     1       6.180  44.117  50.248  1.00  0.00     0.004 A 
ATOM     13  C   UNL     1       7.017  46.294  51.790  1.00  0.00     0.004 A 
ATOM     14  C   UNL     1       5.313  44.682  51.189  1.00  0.00     0.004 A 
ATOM     15  C   UNL     1       8.387  44.052  49.041  1.00  0.00     0.044 C 
ENDBRANCH   8   9
ENDBRANCH   5   8
ENDBRANCH   1   5
BRANCH   2  16
ATOM     16  C   UNL     1       0.851  44.063  53.092  1.00  0.00     0.171 A 
ATOM     17  C   UNL     1       0.090  43.781  51.973  1.00  0.00     0.090 A 
ATOM     18  N   UNL     1       0.423  43.317  54.130  1.00  0.00    -0.074 NA
ATOM     19  C   UNL     1      -0.804  42.834  52.425  1.00  0.00     0.187 A 
ATOM     20  O   UNL     1      -0.570  42.596  53.695  1.00  0.00    -0.354 OA
BRANCH  19  21
ATOM     21  C   UNL     1      -1.851  42.180  51.634  1.00  0.00     0.130 A 
ATOM     22  C   UNL     1      -2.488  42.721  50.531  1.00  0.00     0.054 A 
ATOM     23  N   UNL     1      -2.324  40.943  51.881  1.00  0.00    -0.170 NA
ATOM     24  C   UNL     1      -3.370  41.739  50.132  1.00  0.00     0.109 A 
ATOM     25  N   UNL     1      -3.252  40.694  50.972  1.00  0.00    -0.275 N 
ATOM     26  C   UNL     1      -3.960  39.425  50.861  1.00  0.00     0.173 C 
ENDBRANCH  19  21
ENDBRANCH   2  16
TORSDOF 5
ENDMDL
