MODEL 1
REMARK VINA RESULT:    -9.444      0.000      0.000
REMARK INTER + INTRA:         -13.135
REMARK INTER:                 -12.204
REMARK INTRA:                  -0.930
REMARK UNBOUND:                -0.930
REMARK SMILES Cc1cccc(Oc2ccc(C(=O)Nc3cccc([C@@H]4CCC(=O)N4)c3)nc2)c1
REMARK SMILES IDX 8 1 9 2 10 3 11 4 27 5 28 6 7 7 6 8 2 9 3 10 29 11 4 12 5 13
REMARK SMILES IDX 1 14 12 15 13 16 14 17 15 19 16 20 26 21 17 22 19 23 18 24
REMARK SMILES IDX 20 25 21 26 25 27 22 28 23 29 24 30
REMARK H PARENT 14 18 25 31
ROOT
ATOM      1  C   UNL     1      -0.933  44.557  54.110  1.00  0.00     0.145 A 
ATOM      2  C   UNL     1       0.195  44.543  54.943  1.00  0.00     0.051 A 
ATOM      3  C   UNL     1       1.439  44.935  54.444  1.00  0.00     0.038 A 
ATOM      4  C   UNL     1       1.549  45.350  53.107  1.00  0.00     0.128 A 
ATOM      5  N   UNL     1       0.433  45.378  52.329  1.00  0.00    -0.247 NA
ATOM      6  C   UNL     1      -0.788  45.006  52.795  1.00  0.00     0.159 A 
ENDROOT
BRANCH   1   7
ATOM      7  O   UNL     1      -2.207  44.180  54.562  1.00  0.00    -0.456 OA
BRANCH   7   8
ATOM      8  C   UNL     1      -2.710  44.382  55.858  1.00  0.00     0.127 A 
ATOM      9  C   UNL     1      -3.363  43.572  58.065  1.00  0.00    -0.047 A 
ATOM     10  C   UNL     1      -3.783  44.866  58.410  1.00  0.00     0.003 A 
ATOM     11  C   UNL     1      -2.851  43.329  56.779  1.00  0.00     0.050 A 
ATOM     12  C   UNL     1      -3.669  45.909  57.487  1.00  0.00     0.004 A 
ATOM     13  C   UNL     1      -3.136  45.666  56.218  1.00  0.00     0.047 A 
ATOM     14  C   UNL     1      -3.534  42.438  59.031  1.00  0.00     0.044 C 
ENDBRANCH   7   8
ENDBRANCH   1   7
BRANCH   4  15
ATOM     15  C   UNL     1       2.848  45.769  52.538  1.00  0.00     0.274 C 
ATOM     16  O   UNL     1       2.922  46.830  51.861  1.00  0.00    -0.267 OA
ATOM     17  N   UNL     1       4.032  44.991  52.792  1.00  0.00    -0.321 N 
ATOM     18  H   UNL     1       4.027  44.339  53.610  1.00  0.00     0.170 HD
BRANCH  17  19
ATOM     19  C   UNL     1       5.261  45.123  52.055  1.00  0.00     0.041 A 
ATOM     20  C   UNL     1       5.426  44.402  50.864  1.00  0.00     0.026 A 
ATOM     21  C   UNL     1       6.272  46.014  52.462  1.00  0.00     0.032 A 
ATOM     22  C   UNL     1       6.595  44.535  50.111  1.00  0.00     0.003 A 
ATOM     23  C   UNL     1       7.446  46.163  51.700  1.00  0.00    -0.024 A 
ATOM     24  C   UNL     1       7.604  45.404  50.530  1.00  0.00     0.006 A 
BRANCH  23  25
ATOM     25  C   UNL     1       8.549  47.098  52.147  1.00  0.00     0.113 C 
ATOM     26  C   UNL     1       9.806  46.331  52.625  1.00  0.00     0.040 C 
ATOM     27  N   UNL     1       8.125  47.907  53.275  1.00  0.00    -0.349 N 
ATOM     28  C   UNL     1      10.255  46.993  53.936  1.00  0.00     0.102 C 
ATOM     29  C   UNL     1       9.112  47.861  54.282  1.00  0.00     0.220 C 
ATOM     30  O   UNL     1       9.028  48.521  55.350  1.00  0.00    -0.275 OA
ATOM     31  H   UNL     1       7.297  48.542  53.283  1.00  0.00     0.164 HD
ENDBRANCH  23  25
ENDBRANCH  17  19
ENDBRANCH   4  15
TORSDOF 5
ENDMDL
MODEL 2
REMARK VINA RESULT:    -9.381      1.534      2.063
REMARK INTER + INTRA:         -13.053
REMARK INTER:                 -12.323
REMARK INTRA:                  -0.730
REMARK UNBOUND:                -0.930
REMARK SMILES Cc1cccc(Oc2ccc(C(=O)Nc3cccc([C@@H]4CCC(=O)N4)c3)nc2)c1
REMARK SMILES IDX 8 1 9 2 10 3 11 4 27 5 28 6 7 7 6 8 2 9 3 10 29 11 4 12 5 13
REMARK SMILES IDX 1 14 12 15 13 16 14 17 15 19 16 20 26 21 17 22 19 23 18 24
REMARK SMILES IDX 20 25 21 26 25 27 22 28 23 29 24 30
REMARK H PARENT 14 18 25 31
ROOT
ATOM      1  C   UNL     1      -0.644  43.467  53.641  1.00  0.00     0.145 A 
ATOM      2  C   UNL     1       0.395  44.163  54.277  1.00  0.00     0.051 A 
ATOM      3  C   UNL     1       1.691  44.113  53.761  1.00  0.00     0.038 A 
ATOM      4  C   UNL     1       1.944  43.368  52.598  1.00  0.00     0.128 A 
ATOM      5  N   UNL     1       0.914  42.723  51.987  1.00  0.00    -0.247 NA
ATOM      6  C   UNL     1      -0.357  42.763  52.469  1.00  0.00     0.159 A 
ENDROOT
BRANCH   1   7
ATOM      7  O   UNL     1      -1.965  43.490  54.113  1.00  0.00    -0.456 OA
BRANCH   7   8
ATOM      8  C   UNL     1      -2.408  44.137  55.278  1.00  0.00     0.127 A 
ATOM      9  C   UNL     1      -3.193  46.110  56.480  1.00  0.00    -0.047 A 
ATOM     10  C   UNL     1      -3.224  45.367  57.670  1.00  0.00     0.003 A 
ATOM     11  C   UNL     1      -2.760  45.498  55.291  1.00  0.00     0.050 A 
ATOM     12  C   UNL     1      -2.848  44.022  57.666  1.00  0.00     0.004 A 
ATOM     13  C   UNL     1      -2.442  43.411  56.475  1.00  0.00     0.047 A 
ATOM     14  C   UNL     1      -3.542  47.568  56.488  1.00  0.00     0.044 C 
ENDBRANCH   7   8
ENDBRANCH   1   7
BRANCH   4  15
ATOM     15  C   UNL     1       3.304  43.285  52.021  1.00  0.00     0.274 C 
ATOM     16  O   UNL     1       3.984  42.234  52.174  1.00  0.00    -0.267 OA
ATOM     17  N   UNL     1       3.832  44.382  51.254  1.00  0.00    -0.321 N 
ATOM     18  H   UNL     1       3.156  45.072  50.854  1.00  0.00     0.170 HD
BRANCH  17  19
ATOM     19  C   UNL     1       5.222  44.538  50.916  1.00  0.00     0.041 A 
ATOM     20  C   UNL     1       5.809  43.647  50.007  1.00  0.00     0.026 A 
ATOM     21  C   UNL     1       5.987  45.606  51.421  1.00  0.00     0.032 A 
ATOM     22  C   UNL     1       7.148  43.794  49.635  1.00  0.00     0.003 A 
ATOM     23  C   UNL     1       7.332  45.768  51.039  1.00  0.00    -0.024 A 
ATOM     24  C   UNL     1       7.909  44.843  50.154  1.00  0.00     0.006 A 
BRANCH  23  25
ATOM     25  C   UNL     1       8.169  46.898  51.599  1.00  0.00     0.113 C 
ATOM     26  C   UNL     1       9.607  46.442  51.948  1.00  0.00     0.040 C 
ATOM     27  N   UNL     1       7.603  47.405  52.836  1.00  0.00    -0.349 N 
ATOM     28  C   UNL     1       9.929  47.021  53.333  1.00  0.00     0.102 C 
ATOM     29  C   UNL     1       8.616  47.495  53.813  1.00  0.00     0.220 C 
ATOM     30  O   UNL     1       8.413  47.959  54.965  1.00  0.00    -0.275 OA
ATOM     31  H   UNL     1       6.637  47.786  52.944  1.00  0.00     0.164 HD
ENDBRANCH  23  25
ENDBRANCH  17  19
ENDBRANCH   4  15
TORSDOF 5
ENDMDL
MODEL 3
REMARK VINA RESULT:    -9.008      2.131      2.871
REMARK INTER + INTRA:         -12.571
REMARK INTER:                 -12.021
REMARK INTRA:                  -0.550
REMARK UNBOUND:                -0.930
REMARK SMILES Cc1cccc(Oc2ccc(C(=O)Nc3cccc([C@@H]4CCC(=O)N4)c3)nc2)c1
REMARK SMILES IDX 8 1 9 2 10 3 11 4 27 5 28 6 7 7 6 8 2 9 3 10 29 11 4 12 5 13
REMARK SMILES IDX 1 14 12 15 13 16 14 17 15 19 16 20 26 21 17 22 19 23 18 24
REMARK SMILES IDX 20 25 21 26 25 27 22 28 23 29 24 30
REMARK H PARENT 14 18 25 31
ROOT
ATOM      1  C   UNL     1      -0.217  45.464  56.461  1.00  0.00     0.145 A 
ATOM      2  C   UNL     1      -0.576  44.884  55.236  1.00  0.00     0.051 A 
ATOM      3  C   UNL     1       0.400  44.626  54.270  1.00  0.00     0.038 A 
ATOM      4  C   UNL     1       1.741  44.944  54.539  1.00  0.00     0.128 A 
ATOM      5  N   UNL     1       2.064  45.482  55.746  1.00  0.00    -0.247 NA
ATOM      6  C   UNL     1       1.132  45.737  56.702  1.00  0.00     0.159 A 
ENDROOT
BRANCH   1   7
ATOM      7  O   UNL     1      -1.155  45.737  57.468  1.00  0.00    -0.456 OA
BRANCH   7   8
ATOM      8  C   UNL     1      -1.817  46.961  57.661  1.00  0.00     0.127 A 
ATOM      9  C   UNL     1      -2.068  49.122  58.766  1.00  0.00    -0.047 A 
ATOM     10  C   UNL     1      -3.238  49.358  58.026  1.00  0.00     0.003 A 
ATOM     11  C   UNL     1      -1.375  47.911  58.598  1.00  0.00     0.050 A 
ATOM     12  C   UNL     1      -3.695  48.404  57.115  1.00  0.00     0.004 A 
ATOM     13  C   UNL     1      -2.987  47.211  56.935  1.00  0.00     0.047 A 
ATOM     14  C   UNL     1      -1.603  50.118  59.785  1.00  0.00     0.044 C 
ENDBRANCH   7   8
ENDBRANCH   1   7
BRANCH   4  15
ATOM     15  C   UNL     1       2.803  44.692  53.542  1.00  0.00     0.274 C 
ATOM     16  O   UNL     1       3.059  43.509  53.186  1.00  0.00    -0.267 OA
ATOM     17  N   UNL     1       3.514  45.793  52.949  1.00  0.00    -0.321 N 
ATOM     18  H   UNL     1       3.072  46.741  52.986  1.00  0.00     0.170 HD
BRANCH  17  19
ATOM     19  C   UNL     1       4.747  45.662  52.219  1.00  0.00     0.041 A 
ATOM     20  C   UNL     1       4.801  44.799  51.117  1.00  0.00     0.026 A 
ATOM     21  C   UNL     1       5.880  46.434  52.542  1.00  0.00     0.032 A 
ATOM     22  C   UNL     1       5.975  44.676  50.369  1.00  0.00     0.003 A 
ATOM     23  C   UNL     1       7.061  46.326  51.784  1.00  0.00    -0.024 A 
ATOM     24  C   UNL     1       7.103  45.428  50.706  1.00  0.00     0.006 A 
BRANCH  23  25
ATOM     25  C   UNL     1       8.291  47.131  52.143  1.00  0.00     0.113 C 
ATOM     26  C   UNL     1       9.495  46.228  52.503  1.00  0.00     0.040 C 
ATOM     27  N   UNL     1       8.052  47.960  53.311  1.00  0.00    -0.349 N 
ATOM     28  C   UNL     1      10.122  46.816  53.776  1.00  0.00     0.102 C 
ATOM     29  C   UNL     1       9.111  47.793  54.228  1.00  0.00     0.220 C 
ATOM     30  O   UNL     1       9.188  48.438  55.305  1.00  0.00    -0.275 OA
ATOM     31  H   UNL     1       7.300  48.677  53.396  1.00  0.00     0.164 HD
ENDBRANCH  23  25
ENDBRANCH  17  19
ENDBRANCH   4  15
TORSDOF 5
ENDMDL
MODEL 4
REMARK VINA RESULT:    -8.895      2.438     10.482
REMARK INTER + INTRA:         -12.426
REMARK INTER:                 -11.516
REMARK INTRA:                  -0.910
REMARK UNBOUND:                -0.930
REMARK SMILES Cc1cccc(Oc2ccc(C(=O)Nc3cccc([C@@H]4CCC(=O)N4)c3)nc2)c1
REMARK SMILES IDX 8 1 9 2 10 3 11 4 27 5 28 6 7 7 6 8 2 9 3 10 29 11 4 12 5 13
REMARK SMILES IDX 1 14 12 15 13 16 14 17 15 19 16 20 26 21 17 22 19 23 18 24
REMARK SMILES IDX 20 25 21 26 25 27 22 28 23 29 24 30
REMARK H PARENT 14 18 25 31
ROOT
ATOM      1  C   UNL     1       5.136  47.113  53.402  1.00  0.00     0.145 A 
ATOM      2  C   UNL     1       5.272  45.849  53.994  1.00  0.00     0.051 A 
ATOM      3  C   UNL     1       4.140  45.077  54.267  1.00  0.00     0.038 A 
ATOM      4  C   UNL     1       2.869  45.573  53.937  1.00  0.00     0.128 A 
ATOM      5  N   UNL     1       2.767  46.791  53.341  1.00  0.00    -0.247 NA
ATOM      6  C   UNL     1       3.855  47.557  53.062  1.00  0.00     0.159 A 
ENDROOT
BRANCH   1   7
ATOM      7  O   UNL     1       6.238  47.926  53.100  1.00  0.00    -0.456 OA
BRANCH   7   8
ATOM      8  C   UNL     1       7.582  47.518  53.104  1.00  0.00     0.127 A 
ATOM      9  C   UNL     1       9.736  47.212  54.210  1.00  0.00    -0.047 A 
ATOM     10  C   UNL     1      10.280  46.734  53.006  1.00  0.00     0.003 A 
ATOM     11  C   UNL     1       8.394  47.626  54.247  1.00  0.00     0.050 A 
ATOM     12  C   UNL     1       9.484  46.652  51.862  1.00  0.00     0.004 A 
ATOM     13  C   UNL     1       8.141  47.042  51.912  1.00  0.00     0.047 A 
ATOM     14  C   UNL     1      10.600  47.355  55.426  1.00  0.00     0.044 C 
ENDBRANCH   7   8
ENDBRANCH   1   7
BRANCH   4  15
ATOM     15  C   UNL     1       1.645  44.790  54.214  1.00  0.00     0.274 C 
ATOM     16  O   UNL     1       1.611  43.561  53.931  1.00  0.00    -0.267 OA
ATOM     17  N   UNL     1       0.513  45.417  54.842  1.00  0.00    -0.321 N 
ATOM     18  H   UNL     1       0.672  46.306  55.370  1.00  0.00     0.170 HD
BRANCH  17  19
ATOM     19  C   UNL     1      -0.810  44.851  54.877  1.00  0.00     0.041 A 
ATOM     20  C   UNL     1      -1.365  44.485  56.112  1.00  0.00     0.026 A 
ATOM     21  C   UNL     1      -1.588  44.722  53.711  1.00  0.00     0.032 A 
ATOM     22  C   UNL     1      -2.659  43.963  56.180  1.00  0.00     0.003 A 
ATOM     23  C   UNL     1      -2.897  44.210  53.775  1.00  0.00    -0.024 A 
ATOM     24  C   UNL     1      -3.419  43.818  55.018  1.00  0.00     0.006 A 
BRANCH  23  25
ATOM     25  C   UNL     1      -3.728  44.043  52.522  1.00  0.00     0.113 C 
ATOM     26  C   UNL     1      -3.533  42.650  51.874  1.00  0.00     0.040 C 
ATOM     27  N   UNL     1      -3.347  45.009  51.507  1.00  0.00    -0.349 N 
ATOM     28  C   UNL     1      -3.353  42.886  50.367  1.00  0.00     0.102 C 
ATOM     29  C   UNL     1      -3.158  44.346  50.277  1.00  0.00     0.220 C 
ATOM     30  O   UNL     1      -2.877  44.954  49.211  1.00  0.00    -0.275 OA
ATOM     31  H   UNL     1      -3.359  46.045  51.629  1.00  0.00     0.164 HD
ENDBRANCH  23  25
ENDBRANCH  17  19
ENDBRANCH   4  15
TORSDOF 5
ENDMDL
MODEL 5
REMARK VINA RESULT:    -8.876      2.302     10.203
REMARK INTER + INTRA:         -12.401
REMARK INTER:                 -11.588
REMARK INTRA:                  -0.814
REMARK UNBOUND:                -0.930
REMARK SMILES Cc1cccc(Oc2ccc(C(=O)Nc3cccc([C@@H]4CCC(=O)N4)c3)nc2)c1
REMARK SMILES IDX 8 1 9 2 10 3 11 4 27 5 28 6 7 7 6 8 2 9 3 10 29 11 4 12 5 13
REMARK SMILES IDX 1 14 12 15 13 16 14 17 15 19 16 20 26 21 17 22 19 23 18 24
REMARK SMILES IDX 20 25 21 26 25 27 22 28 23 29 24 30
REMARK H PARENT 14 18 25 31
ROOT
ATOM      1  C   UNL     1       5.400  45.528  51.439  1.00  0.00     0.145 A 
ATOM      2  C   UNL     1       5.164  44.732  52.569  1.00  0.00     0.051 A 
ATOM      3  C   UNL     1       3.874  44.625  53.095  1.00  0.00     0.038 A 
ATOM      4  C   UNL     1       2.818  45.315  52.480  1.00  0.00     0.128 A 
ATOM      5  N   UNL     1       3.070  46.060  51.370  1.00  0.00    -0.247 NA
ATOM      6  C   UNL     1       4.316  46.174  50.838  1.00  0.00     0.159 A 
ENDROOT
BRANCH   1   7
ATOM      7  O   UNL     1       6.673  45.664  50.866  1.00  0.00    -0.456 OA
BRANCH   7   8
ATOM      8  C   UNL     1       7.844  46.032  51.549  1.00  0.00     0.127 A 
ATOM      9  C   UNL     1       9.011  47.180  53.358  1.00  0.00    -0.047 A 
ATOM     10  C   UNL     1      10.241  46.773  52.817  1.00  0.00     0.003 A 
ATOM     11  C   UNL     1       7.817  46.829  52.707  1.00  0.00     0.050 A 
ATOM     12  C   UNL     1      10.272  46.004  51.650  1.00  0.00     0.004 A 
ATOM     13  C   UNL     1       9.079  45.637  51.020  1.00  0.00     0.047 A 
ATOM     14  C   UNL     1       8.973  48.050  54.578  1.00  0.00     0.044 C 
ENDBRANCH   7   8
ENDBRANCH   1   7
BRANCH   4  15
ATOM     15  C   UNL     1       1.439  45.233  53.009  1.00  0.00     0.274 C 
ATOM     16  O   UNL     1       0.486  45.733  52.350  1.00  0.00    -0.267 OA
ATOM     17  N   UNL     1       1.179  44.549  54.248  1.00  0.00    -0.321 N 
ATOM     18  H   UNL     1       1.891  43.864  54.590  1.00  0.00     0.170 HD
BRANCH  17  19
ATOM     19  C   UNL     1      -0.042  44.670  54.998  1.00  0.00     0.041 A 
ATOM     20  C   UNL     1      -1.036  43.692  54.851  1.00  0.00     0.026 A 
ATOM     21  C   UNL     1      -0.235  45.708  55.931  1.00  0.00     0.032 A 
ATOM     22  C   UNL     1      -2.219  43.766  55.591  1.00  0.00     0.003 A 
ATOM     23  C   UNL     1      -1.418  45.779  56.690  1.00  0.00    -0.024 A 
ATOM     24  C   UNL     1      -2.414  44.808  56.499  1.00  0.00     0.006 A 
BRANCH  23  25
ATOM     25  C   UNL     1      -1.643  46.907  57.673  1.00  0.00     0.113 C 
ATOM     26  C   UNL     1      -2.951  46.725  58.481  1.00  0.00     0.040 C 
ATOM     27  N   UNL     1      -1.773  48.181  56.989  1.00  0.00    -0.349 N 
ATOM     28  C   UNL     1      -3.660  48.087  58.485  1.00  0.00     0.102 C 
ATOM     29  C   UNL     1      -2.912  48.858  57.473  1.00  0.00     0.220 C 
ATOM     30  O   UNL     1      -3.231  50.015  57.091  1.00  0.00    -0.275 OA
ATOM     31  H   UNL     1      -1.059  48.597  56.352  1.00  0.00     0.164 HD
ENDBRANCH  23  25
ENDBRANCH  17  19
ENDBRANCH   4  15
TORSDOF 5
ENDMDL
