MODEL 1
REMARK VINA RESULT:    -8.448      0.000      0.000
REMARK INTER + INTRA:         -13.280
REMARK INTER:                 -12.893
REMARK INTRA:                  -0.387
REMARK UNBOUND:                -0.387
REMARK SMILES COc1cc(OC)cc(S(=O)(=O)Nc2cc(S(=O)(=O)NC(C)(C)C)ccc2OC)c1
REMARK SMILES IDX 14 1 15 2 16 3 25 4 26 5 27 6 13 7 10 9 11 10 12 11 9 12
REMARK SMILES IDX 3 13 4 14 30 15 5 16 8 17 2 18 1 19 6 20 7 21 28 22 29 23
REMARK SMILES IDX 17 24 18 25 19 26 20 27 21 29 22 30 23 31 24 32
REMARK H PARENT 13 8 20 28
ROOT
ATOM      1  C   UNL     1       3.525  43.247  52.494  1.00  0.00     0.092 A 
ATOM      2  C   UNL     1       4.271  44.236  53.161  1.00  0.00     0.052 A 
ATOM      3  C   UNL     1       5.420  44.781  52.579  1.00  0.00     0.084 A 
ATOM      4  C   UNL     1       5.821  44.354  51.310  1.00  0.00     0.026 A 
ATOM      5  C   UNL     1       5.076  43.393  50.624  1.00  0.00     0.050 A 
ATOM      6  C   UNL     1       3.923  42.832  51.207  1.00  0.00     0.143 A 
ENDROOT
BRANCH   1   7
ATOM      7  N   UNL     1       2.361  42.665  53.109  1.00  0.00    -0.276 N 
ATOM      8  H   UNL     1       2.476  41.918  53.829  1.00  0.00     0.180 HD
BRANCH   7   9
ATOM      9  S   UNL     1       0.758  43.292  52.883  1.00  0.00     0.262 S 
ATOM     10  O   UNL     1      -0.139  42.186  52.398  1.00  0.00    -0.201 OA
ATOM     11  O   UNL     1       0.788  44.372  51.839  1.00  0.00    -0.201 OA
BRANCH   9  12
ATOM     12  C   UNL     1       0.160  43.970  54.394  1.00  0.00     0.095 A 
ATOM     13  C   UNL     1      -1.589  44.184  56.076  1.00  0.00     0.123 A 
ATOM     14  C   UNL     1      -0.746  45.010  56.829  1.00  0.00     0.092 A 
ATOM     15  C   UNL     1      -1.132  43.670  54.850  1.00  0.00     0.069 A 
ATOM     16  C   UNL     1       0.544  45.320  56.384  1.00  0.00     0.123 A 
ATOM     17  C   UNL     1       0.995  44.790  55.159  1.00  0.00     0.069 A 
BRANCH  13  18
ATOM     18  O   UNL     1      -2.865  43.896  56.583  1.00  0.00    -0.497 OA
ATOM     19  C   UNL     1      -3.109  43.230  57.817  1.00  0.00     0.278 C 
ENDBRANCH  13  18
BRANCH  16  20
ATOM     20  O   UNL     1       1.344  46.147  57.185  1.00  0.00    -0.497 OA
ATOM     21  C   UNL     1       0.893  46.808  58.362  1.00  0.00     0.278 C 
ENDBRANCH  16  20
ENDBRANCH   9  12
ENDBRANCH   7   9
ENDBRANCH   1   7
BRANCH   6  22
ATOM     22  O   UNL     1       3.160  41.855  50.544  1.00  0.00    -0.495 OA
ATOM     23  C   UNL     1       3.701  40.837  49.709  1.00  0.00     0.278 C 
ENDBRANCH   6  22
BRANCH   3  24
ATOM     24  S   UNL     1       6.366  45.995  53.435  1.00  0.00     0.241 S 
ATOM     25  O   UNL     1       5.860  47.347  53.015  1.00  0.00    -0.207 OA
ATOM     26  O   UNL     1       6.154  45.872  54.918  1.00  0.00    -0.207 OA
BRANCH  24  27
ATOM     27  N   UNL     1       8.072  45.909  53.061  1.00  0.00    -0.206 NA
ATOM     28  H   UNL     1       8.511  45.259  53.754  1.00  0.00     0.141 HD
BRANCH  27  29
ATOM     29  C   UNL     1       8.832  47.184  53.015  1.00  0.00     0.025 C 
ATOM     30  C   UNL     1      10.250  46.838  52.518  1.00  0.00     0.028 C 
ATOM     31  C   UNL     1       8.959  47.831  54.414  1.00  0.00     0.028 C 
ATOM     32  C   UNL     1       8.220  48.195  52.020  1.00  0.00     0.028 C 
ENDBRANCH  27  29
ENDBRANCH  24  27
ENDBRANCH   3  24
TORSDOF 9
ENDMDL
MODEL 2
REMARK VINA RESULT:    -8.397      0.120      2.074
REMARK INTER + INTRA:         -13.203
REMARK INTER:                 -12.930
REMARK INTRA:                  -0.272
REMARK UNBOUND:                -0.387
REMARK SMILES COc1cc(OC)cc(S(=O)(=O)Nc2cc(S(=O)(=O)NC(C)(C)C)ccc2OC)c1
REMARK SMILES IDX 14 1 15 2 16 3 25 4 26 5 27 6 13 7 10 9 11 10 12 11 9 12
REMARK SMILES IDX 3 13 4 14 30 15 5 16 8 17 2 18 1 19 6 20 7 21 28 22 29 23
REMARK SMILES IDX 17 24 18 25 19 26 20 27 21 29 22 30 23 31 24 32
REMARK H PARENT 13 8 20 28
ROOT
ATOM      1  C   UNL     1       3.582  43.209  52.435  1.00  0.00     0.092 A 
ATOM      2  C   UNL     1       4.284  44.226  53.106  1.00  0.00     0.052 A 
ATOM      3  C   UNL     1       5.447  44.776  52.558  1.00  0.00     0.084 A 
ATOM      4  C   UNL     1       5.907  44.324  51.319  1.00  0.00     0.026 A 
ATOM      5  C   UNL     1       5.208  43.333  50.628  1.00  0.00     0.050 A 
ATOM      6  C   UNL     1       4.040  42.767  51.177  1.00  0.00     0.143 A 
ENDROOT
BRANCH   1   7
ATOM      7  N   UNL     1       2.402  42.623  53.015  1.00  0.00    -0.276 N 
ATOM      8  H   UNL     1       2.497  41.834  53.692  1.00  0.00     0.180 HD
BRANCH   7   9
ATOM      9  S   UNL     1       0.816  43.301  52.823  1.00  0.00     0.262 S 
ATOM     10  O   UNL     1      -0.110  42.244  52.287  1.00  0.00    -0.201 OA
ATOM     11  O   UNL     1       0.873  44.430  51.833  1.00  0.00    -0.201 OA
BRANCH   9  12
ATOM     12  C   UNL     1       0.236  43.920  54.367  1.00  0.00     0.095 A 
ATOM     13  C   UNL     1       0.574  45.249  56.380  1.00  0.00     0.123 A 
ATOM     14  C   UNL     1      -0.729  44.942  56.786  1.00  0.00     0.092 A 
ATOM     15  C   UNL     1       1.058  44.727  55.167  1.00  0.00     0.069 A 
ATOM     16  C   UNL     1      -1.558  44.136  55.999  1.00  0.00     0.123 A 
ATOM     17  C   UNL     1      -1.067  43.627  54.781  1.00  0.00     0.069 A 
BRANCH  13  18
ATOM     18  O   UNL     1       1.351  46.078  57.204  1.00  0.00    -0.497 OA
ATOM     19  C   UNL     1       0.845  46.808  58.316  1.00  0.00     0.278 C 
ENDBRANCH  13  18
BRANCH  16  20
ATOM     20  O   UNL     1      -2.857  43.868  56.455  1.00  0.00    -0.497 OA
ATOM     21  C   UNL     1      -3.159  43.176  57.661  1.00  0.00     0.278 C 
ENDBRANCH  16  20
ENDBRANCH   9  12
ENDBRANCH   7   9
ENDBRANCH   1   7
BRANCH   6  22
ATOM     22  O   UNL     1       3.322  41.761  50.508  1.00  0.00    -0.495 OA
ATOM     23  C   UNL     1       3.870  40.901  49.516  1.00  0.00     0.278 C 
ENDBRANCH   6  22
BRANCH   3  24
ATOM     24  S   UNL     1       6.336  46.027  53.421  1.00  0.00     0.241 S 
ATOM     25  O   UNL     1       5.892  47.358  52.881  1.00  0.00    -0.207 OA
ATOM     26  O   UNL     1       5.996  45.996  54.886  1.00  0.00    -0.207 OA
BRANCH  24  27
ATOM     27  N   UNL     1       8.067  45.899  53.203  1.00  0.00    -0.206 NA
ATOM     28  H   UNL     1       8.439  45.323  53.993  1.00  0.00     0.141 HD
BRANCH  27  29
ATOM     29  C   UNL     1       8.842  47.160  53.090  1.00  0.00     0.025 C 
ATOM     30  C   UNL     1      10.252  46.772  52.601  1.00  0.00     0.028 C 
ATOM     31  C   UNL     1       8.988  47.872  54.455  1.00  0.00     0.028 C 
ATOM     32  C   UNL     1       8.236  48.130  52.053  1.00  0.00     0.028 C 
ENDBRANCH  27  29
ENDBRANCH  24  27
ENDBRANCH   3  24
TORSDOF 9
ENDMDL
MODEL 3
REMARK VINA RESULT:    -8.305      3.580      7.460
REMARK INTER + INTRA:         -13.062
REMARK INTER:                 -12.938
REMARK INTRA:                  -0.124
REMARK UNBOUND:                -0.387
REMARK SMILES COc1cc(OC)cc(S(=O)(=O)Nc2cc(S(=O)(=O)NC(C)(C)C)ccc2OC)c1
REMARK SMILES IDX 14 1 15 2 16 3 25 4 26 5 27 6 13 7 10 9 11 10 12 11 9 12
REMARK SMILES IDX 3 13 4 14 30 15 5 16 8 17 2 18 1 19 6 20 7 21 28 22 29 23
REMARK SMILES IDX 17 24 18 25 19 26 20 27 21 29 22 30 23 31 24 32
REMARK H PARENT 13 8 20 28
ROOT
ATOM      1  C   UNL     1       4.348  43.472  51.510  1.00  0.00     0.092 A 
ATOM      2  C   UNL     1       5.366  44.191  52.163  1.00  0.00     0.052 A 
ATOM      3  C   UNL     1       5.100  45.425  52.765  1.00  0.00     0.084 A 
ATOM      4  C   UNL     1       3.801  45.941  52.735  1.00  0.00     0.026 A 
ATOM      5  C   UNL     1       2.775  45.228  52.114  1.00  0.00     0.050 A 
ATOM      6  C   UNL     1       3.037  43.989  51.497  1.00  0.00     0.143 A 
ENDROOT
BRANCH   1   7
ATOM      7  N   UNL     1       4.632  42.218  50.865  1.00  0.00    -0.276 N 
ATOM      8  H   UNL     1       4.013  41.396  51.038  1.00  0.00     0.180 HD
BRANCH   7   9
ATOM      9  S   UNL     1       5.834  42.042  49.625  1.00  0.00     0.262 S 
ATOM     10  O   UNL     1       6.918  41.122  50.116  1.00  0.00    -0.201 OA
ATOM     11  O   UNL     1       6.446  43.382  49.330  1.00  0.00    -0.201 OA
BRANCH   9  12
ATOM     12  C   UNL     1       5.094  41.413  48.156  1.00  0.00     0.095 A 
ATOM     13  C   UNL     1       3.393  40.068  47.047  1.00  0.00     0.123 A 
ATOM     14  C   UNL     1       3.897  40.476  45.806  1.00  0.00     0.092 A 
ATOM     15  C   UNL     1       4.002  40.535  48.225  1.00  0.00     0.069 A 
ATOM     16  C   UNL     1       4.988  41.348  45.724  1.00  0.00     0.123 A 
ATOM     17  C   UNL     1       5.584  41.818  46.910  1.00  0.00     0.069 A 
BRANCH  13  18
ATOM     18  O   UNL     1       2.286  39.206  47.065  1.00  0.00    -0.497 OA
ATOM     19  C   UNL     1       2.374  37.785  47.071  1.00  0.00     0.278 C 
ENDBRANCH  13  18
BRANCH  16  20
ATOM     20  O   UNL     1       5.444  41.726  44.453  1.00  0.00    -0.497 OA
ATOM     21  C   UNL     1       5.715  40.817  43.392  1.00  0.00     0.278 C 
ENDBRANCH  16  20
ENDBRANCH   9  12
ENDBRANCH   7   9
ENDBRANCH   1   7
BRANCH   6  22
ATOM     22  O   UNL     1       2.025  43.254  50.856  1.00  0.00    -0.495 OA
ATOM     23  C   UNL     1       0.851  42.766  51.496  1.00  0.00     0.278 C 
ENDBRANCH   6  22
BRANCH   3  24
ATOM     24  S   UNL     1       6.387  46.332  53.552  1.00  0.00     0.241 S 
ATOM     25  O   UNL     1       6.082  47.795  53.385  1.00  0.00    -0.207 OA
ATOM     26  O   UNL     1       6.407  46.040  55.027  1.00  0.00    -0.207 OA
BRANCH  24  27
ATOM     27  N   UNL     1       7.959  46.017  52.855  1.00  0.00    -0.206 NA
ATOM     28  H   UNL     1       8.389  45.230  53.395  1.00  0.00     0.141 HD
BRANCH  27  29
ATOM     29  C   UNL     1       8.916  47.151  52.772  1.00  0.00     0.025 C 
ATOM     30  C   UNL     1      10.215  46.591  52.159  1.00  0.00     0.028 C 
ATOM     31  C   UNL     1       9.253  47.724  54.168  1.00  0.00     0.028 C 
ATOM     32  C   UNL     1       8.408  48.278  51.847  1.00  0.00     0.028 C 
ENDBRANCH  27  29
ENDBRANCH  24  27
ENDBRANCH   3  24
TORSDOF 9
ENDMDL
MODEL 4
REMARK VINA RESULT:    -8.208      1.509      2.175
REMARK INTER + INTRA:         -12.914
REMARK INTER:                 -12.624
REMARK INTRA:                  -0.290
REMARK UNBOUND:                -0.387
REMARK SMILES COc1cc(OC)cc(S(=O)(=O)Nc2cc(S(=O)(=O)NC(C)(C)C)ccc2OC)c1
REMARK SMILES IDX 14 1 15 2 16 3 25 4 26 5 27 6 13 7 10 9 11 10 12 11 9 12
REMARK SMILES IDX 3 13 4 14 30 15 5 16 8 17 2 18 1 19 6 20 7 21 28 22 29 23
REMARK SMILES IDX 17 24 18 25 19 26 20 27 21 29 22 30 23 31 24 32
REMARK H PARENT 13 8 20 28
ROOT
ATOM      1  C   UNL     1       4.108  42.616  51.352  1.00  0.00     0.092 A 
ATOM      2  C   UNL     1       4.694  43.862  51.640  1.00  0.00     0.052 A 
ATOM      3  C   UNL     1       5.868  44.269  50.997  1.00  0.00     0.084 A 
ATOM      4  C   UNL     1       6.455  43.436  50.041  1.00  0.00     0.026 A 
ATOM      5  C   UNL     1       5.872  42.208  49.725  1.00  0.00     0.050 A 
ATOM      6  C   UNL     1       4.694  41.787  50.374  1.00  0.00     0.143 A 
ENDROOT
BRANCH   1   7
ATOM      7  N   UNL     1       2.918  42.187  52.037  1.00  0.00    -0.276 N 
ATOM      8  H   UNL     1       2.936  41.312  52.607  1.00  0.00     0.180 HD
BRANCH   7   9
ATOM      9  S   UNL     1       1.489  43.166  52.156  1.00  0.00     0.262 S 
ATOM     10  O   UNL     1       0.276  42.278  52.088  1.00  0.00    -0.201 OA
ATOM     11  O   UNL     1       1.443  44.123  50.999  1.00  0.00    -0.201 OA
BRANCH   9  12
ATOM     12  C   UNL     1       1.512  44.083  53.659  1.00  0.00     0.095 A 
ATOM     13  C   UNL     1       0.417  44.834  55.702  1.00  0.00     0.123 A 
ATOM     14  C   UNL     1       1.593  45.497  56.073  1.00  0.00     0.092 A 
ATOM     15  C   UNL     1       0.379  44.131  54.484  1.00  0.00     0.069 A 
ATOM     16  C   UNL     1       2.729  45.460  55.257  1.00  0.00     0.123 A 
ATOM     17  C   UNL     1       2.683  44.744  54.045  1.00  0.00     0.069 A 
BRANCH  13  18
ATOM     18  O   UNL     1      -0.684  44.893  56.570  1.00  0.00    -0.497 OA
ATOM     19  C   UNL     1      -1.997  44.463  56.232  1.00  0.00     0.278 C 
ENDBRANCH  13  18
BRANCH  16  20
ATOM     20  O   UNL     1       3.879  46.138  55.685  1.00  0.00    -0.497 OA
ATOM     21  C   UNL     1       5.173  45.965  55.118  1.00  0.00     0.278 C 
ENDBRANCH  16  20
ENDBRANCH   9  12
ENDBRANCH   7   9
ENDBRANCH   1   7
BRANCH   6  22
ATOM     22  O   UNL     1       4.091  40.551  50.083  1.00  0.00    -0.495 OA
ATOM     23  C   UNL     1       3.506  40.213  48.830  1.00  0.00     0.278 C 
ENDBRANCH   6  22
BRANCH   3  24
ATOM     24  S   UNL     1       6.611  45.816  51.388  1.00  0.00     0.241 S 
ATOM     25  O   UNL     1       7.272  46.332  50.141  1.00  0.00    -0.207 OA
ATOM     26  O   UNL     1       5.561  46.814  51.791  1.00  0.00    -0.207 OA
BRANCH  24  27
ATOM     27  N   UNL     1       7.828  45.684  52.638  1.00  0.00    -0.206 NA
ATOM     28  H   UNL     1       7.329  45.655  53.558  1.00  0.00     0.141 HD
BRANCH  27  29
ATOM     29  C   UNL     1       8.892  46.719  52.675  1.00  0.00     0.025 C 
ATOM     30  C   UNL     1       9.370  46.811  54.138  1.00  0.00     0.028 C 
ATOM     31  C   UNL     1       8.359  48.110  52.258  1.00  0.00     0.028 C 
ATOM     32  C   UNL     1      10.109  46.339  51.806  1.00  0.00     0.028 C 
ENDBRANCH  27  29
ENDBRANCH  24  27
ENDBRANCH   3  24
TORSDOF 9
ENDMDL
MODEL 5
REMARK VINA RESULT:    -8.137      2.567      8.523
REMARK INTER + INTRA:         -12.806
REMARK INTER:                 -11.967
REMARK INTRA:                  -0.839
REMARK UNBOUND:                -0.387
REMARK SMILES COc1cc(OC)cc(S(=O)(=O)Nc2cc(S(=O)(=O)NC(C)(C)C)ccc2OC)c1
REMARK SMILES IDX 14 1 15 2 16 3 25 4 26 5 27 6 13 7 10 9 11 10 12 11 9 12
REMARK SMILES IDX 3 13 4 14 30 15 5 16 8 17 2 18 1 19 6 20 7 21 28 22 29 23
REMARK SMILES IDX 17 24 18 25 19 26 20 27 21 29 22 30 23 31 24 32
REMARK H PARENT 13 8 20 28
ROOT
ATOM      1  C   UNL     1       1.566  44.720  52.564  1.00  0.00     0.092 A 
ATOM      2  C   UNL     1       0.252  45.115  52.874  1.00  0.00     0.052 A 
ATOM      3  C   UNL     1      -0.647  44.217  53.460  1.00  0.00     0.084 A 
ATOM      4  C   UNL     1      -0.229  42.918  53.759  1.00  0.00     0.026 A 
ATOM      5  C   UNL     1       1.080  42.519  53.480  1.00  0.00     0.050 A 
ATOM      6  C   UNL     1       1.989  43.414  52.883  1.00  0.00     0.143 A 
ENDROOT
BRANCH   1   7
ATOM      7  N   UNL     1       2.479  45.636  51.933  1.00  0.00    -0.276 N 
ATOM      8  H   UNL     1       2.403  45.817  50.907  1.00  0.00     0.180 HD
BRANCH   7   9
ATOM      9  S   UNL     1       3.576  46.643  52.824  1.00  0.00     0.262 S 
ATOM     10  O   UNL     1       3.488  46.296  54.285  1.00  0.00    -0.201 OA
ATOM     11  O   UNL     1       3.183  48.083  52.652  1.00  0.00    -0.201 OA
BRANCH   9  12
ATOM     12  C   UNL     1       5.217  46.422  52.224  1.00  0.00     0.095 A 
ATOM     13  C   UNL     1       7.588  46.979  52.279  1.00  0.00     0.123 A 
ATOM     14  C   UNL     1       7.826  46.008  51.299  1.00  0.00     0.092 A 
ATOM     15  C   UNL     1       6.275  47.188  52.735  1.00  0.00     0.069 A 
ATOM     16  C   UNL     1       6.780  45.238  50.779  1.00  0.00     0.123 A 
ATOM     17  C   UNL     1       5.470  45.449  51.251  1.00  0.00     0.069 A 
BRANCH  13  18
ATOM     18  O   UNL     1       8.681  47.707  52.774  1.00  0.00    -0.497 OA
ATOM     19  C   UNL     1       9.827  47.122  53.382  1.00  0.00     0.278 C 
ENDBRANCH  13  18
BRANCH  16  20
ATOM     20  O   UNL     1       7.081  44.276  49.804  1.00  0.00    -0.497 OA
ATOM     21  C   UNL     1       8.368  44.092  49.226  1.00  0.00     0.278 C 
ENDBRANCH  16  20
ENDBRANCH   9  12
ENDBRANCH   7   9
ENDBRANCH   1   7
BRANCH   6  22
ATOM     22  O   UNL     1       3.308  43.036  52.582  1.00  0.00    -0.495 OA
ATOM     23  C   UNL     1       3.681  42.206  51.487  1.00  0.00     0.278 C 
ENDBRANCH   6  22
BRANCH   3  24
ATOM     24  S   UNL     1      -2.299  44.711  53.816  1.00  0.00     0.241 S 
ATOM     25  O   UNL     1      -2.833  45.424  52.605  1.00  0.00    -0.207 OA
ATOM     26  O   UNL     1      -3.166  43.505  54.050  1.00  0.00    -0.207 OA
BRANCH  24  27
ATOM     27  N   UNL     1      -2.400  45.799  55.181  1.00  0.00    -0.206 NA
ATOM     28  H   UNL     1      -1.977  46.710  54.885  1.00  0.00     0.141 HD
BRANCH  27  29
ATOM     29  C   UNL     1      -1.794  45.356  56.462  1.00  0.00     0.025 C 
ATOM     30  C   UNL     1      -2.388  46.251  57.568  1.00  0.00     0.028 C 
ATOM     31  C   UNL     1      -0.258  45.542  56.469  1.00  0.00     0.028 C 
ATOM     32  C   UNL     1      -2.149  43.892  56.801  1.00  0.00     0.028 C 
ENDBRANCH  27  29
ENDBRANCH  24  27
ENDBRANCH   3  24
TORSDOF 9
ENDMDL
