MODEL 1
REMARK VINA RESULT:    -8.269      0.000      0.000
REMARK INTER + INTRA:         -11.912
REMARK INTER:                 -11.169
REMARK INTRA:                  -0.743
REMARK UNBOUND:                -0.743
REMARK SMILES O=C(Nc1cccc(OC(F)F)c1)c1ccc(Nc2ncccn2)cc1
REMARK SMILES IDX 4 1 5 2 6 3 7 4 8 5 13 6 3 7 1 8 2 9 14 11 15 12 26 13 16 14
REMARK SMILES IDX 25 15 17 16 18 17 19 19 20 20 24 21 21 22 23 23 22 24 9 25
REMARK SMILES IDX 10 26 11 27 12 28
REMARK H PARENT 3 10 18 18
ROOT
ATOM      1  C   UNL     1       6.935  46.044  53.012  1.00  0.00     0.045 A 
ATOM      2  C   UNL     1       7.115  46.151  51.625  1.00  0.00     0.026 A 
ATOM      3  C   UNL     1       8.339  46.574  51.103  1.00  0.00     0.006 A 
ATOM      4  C   UNL     1       9.390  46.908  51.961  1.00  0.00     0.047 A 
ATOM      5  C   UNL     1       9.225  46.831  53.349  1.00  0.00     0.128 A 
ATOM      6  C   UNL     1       7.989  46.403  53.873  1.00  0.00     0.072 A 
ENDROOT
BRANCH   1   7
ATOM      7  N   UNL     1       5.659  45.624  53.527  1.00  0.00    -0.322 N 
ATOM      8  O   UNL     1       4.691  47.743  53.691  1.00  0.00    -0.269 OA
ATOM      9  C   UNL     1       4.520  46.494  53.642  1.00  0.00     0.255 C 
ATOM     10  H   UNL     1       5.591  44.669  53.945  1.00  0.00     0.170 HD
BRANCH   9  11
ATOM     11  C   UNL     1       3.148  45.940  53.753  1.00  0.00     0.040 A 
ATOM     12  C   UNL     1       2.775  45.147  54.852  1.00  0.00     0.016 A 
ATOM     13  C   UNL     1       2.200  46.194  52.745  1.00  0.00     0.016 A 
ATOM     14  C   UNL     1       1.480  44.625  54.942  1.00  0.00     0.027 A 
ATOM     15  C   UNL     1       0.907  45.670  52.837  1.00  0.00     0.027 A 
ATOM     16  C   UNL     1       0.543  44.865  53.930  1.00  0.00     0.041 A 
BRANCH  16  17
ATOM     17  N   UNL     1      -0.788  44.336  54.059  1.00  0.00    -0.324 N 
ATOM     18  H   UNL     1      -1.253  43.960  53.202  1.00  0.00     0.170 HD
BRANCH  17  19
ATOM     19  C   UNL     1      -1.565  44.390  55.264  1.00  0.00     0.227 A 
ATOM     20  N   UNL     1      -2.068  43.253  55.821  1.00  0.00    -0.221 NA
ATOM     21  N   UNL     1      -1.757  45.585  55.886  1.00  0.00    -0.221 NA
ATOM     22  C   UNL     1      -2.779  43.295  56.978  1.00  0.00     0.117 A 
ATOM     23  C   UNL     1      -2.462  45.668  57.043  1.00  0.00     0.117 A 
ATOM     24  C   UNL     1      -2.994  44.514  57.618  1.00  0.00     0.040 A 
ENDBRANCH  17  19
ENDBRANCH  16  17
ENDBRANCH   9  11
ENDBRANCH   1   7
BRANCH   5  25
ATOM     25  O   UNL     1      10.309  47.190  54.166  1.00  0.00    -0.435 OA
BRANCH  25  26
ATOM     26  C   UNL     1      10.215  47.493  55.555  1.00  0.00     0.542 C 
ATOM     27  F   UNL     1       9.539  48.686  55.733  1.00  0.00    -0.167 F 
ATOM     28  F   UNL     1      11.488  47.616  56.078  1.00  0.00    -0.167 F 
ENDBRANCH  25  26
ENDBRANCH   5  25
TORSDOF 6
ENDMDL
MODEL 2
REMARK VINA RESULT:    -8.142      2.312      3.003
REMARK INTER + INTRA:         -11.741
REMARK INTER:                 -11.285
REMARK INTRA:                  -0.456
REMARK UNBOUND:                -0.743
REMARK SMILES O=C(Nc1cccc(OC(F)F)c1)c1ccc(Nc2ncccn2)cc1
REMARK SMILES IDX 4 1 5 2 6 3 7 4 8 5 13 6 3 7 1 8 2 9 14 11 15 12 26 13 16 14
REMARK SMILES IDX 25 15 17 16 18 17 19 19 20 20 24 21 21 22 23 23 22 24 9 25
REMARK SMILES IDX 10 26 11 27 12 28
REMARK H PARENT 3 10 18 18
ROOT
ATOM      1  C   UNL     1       5.259  45.675  51.841  1.00  0.00     0.045 A 
ATOM      2  C   UNL     1       5.460  44.910  50.683  1.00  0.00     0.026 A 
ATOM      3  C   UNL     1       6.712  44.875  50.068  1.00  0.00     0.006 A 
ATOM      4  C   UNL     1       7.774  45.615  50.595  1.00  0.00     0.047 A 
ATOM      5  C   UNL     1       7.591  46.404  51.737  1.00  0.00     0.128 A 
ATOM      6  C   UNL     1       6.325  46.436  52.355  1.00  0.00     0.072 A 
ENDROOT
BRANCH   1   7
ATOM      7  N   UNL     1       3.954  45.710  52.445  1.00  0.00    -0.322 N 
ATOM      8  O   UNL     1       3.751  43.419  52.849  1.00  0.00    -0.269 OA
ATOM      9  C   UNL     1       3.355  44.587  53.114  1.00  0.00     0.255 C 
ATOM     10  H   UNL     1       3.366  46.559  52.289  1.00  0.00     0.170 HD
BRANCH   9  11
ATOM     11  C   UNL     1       2.242  44.780  54.076  1.00  0.00     0.040 A 
ATOM     12  C   UNL     1       2.483  45.266  55.373  1.00  0.00     0.016 A 
ATOM     13  C   UNL     1       0.923  44.464  53.704  1.00  0.00     0.016 A 
ATOM     14  C   UNL     1       1.427  45.438  56.273  1.00  0.00     0.027 A 
ATOM     15  C   UNL     1      -0.131  44.636  54.606  1.00  0.00     0.027 A 
ATOM     16  C   UNL     1       0.116  45.107  55.906  1.00  0.00     0.041 A 
BRANCH  16  17
ATOM     17  N   UNL     1      -0.954  45.316  56.844  1.00  0.00    -0.324 N 
ATOM     18  H   UNL     1      -1.589  44.512  57.051  1.00  0.00     0.170 HD
BRANCH  17  19
ATOM     19  C   UNL     1      -1.277  46.584  57.432  1.00  0.00     0.227 A 
ATOM     20  N   UNL     1      -2.259  47.367  56.905  1.00  0.00    -0.221 NA
ATOM     21  N   UNL     1      -0.632  46.983  58.561  1.00  0.00    -0.221 NA
ATOM     22  C   UNL     1      -2.590  48.555  57.475  1.00  0.00     0.117 A 
ATOM     23  C   UNL     1      -0.934  48.164  59.160  1.00  0.00     0.117 A 
ATOM     24  C   UNL     1      -1.927  48.982  58.624  1.00  0.00     0.040 A 
ENDBRANCH  17  19
ENDBRANCH  16  17
ENDBRANCH   9  11
ENDBRANCH   1   7
BRANCH   5  25
ATOM     25  O   UNL     1       8.687  47.137  52.218  1.00  0.00    -0.435 OA
BRANCH  25  26
ATOM     26  C   UNL     1       9.871  46.565  52.765  1.00  0.00     0.542 C 
ATOM     27  F   UNL     1      10.381  47.389  53.753  1.00  0.00    -0.167 F 
ATOM     28  F   UNL     1      10.813  46.431  51.763  1.00  0.00    -0.167 F 
ENDBRANCH  25  26
ENDBRANCH   5  25
TORSDOF 6
ENDMDL
MODEL 3
REMARK VINA RESULT:    -8.050      1.587      2.150
REMARK INTER + INTRA:         -11.617
REMARK INTER:                 -10.881
REMARK INTRA:                  -0.736
REMARK UNBOUND:                -0.743
REMARK SMILES O=C(Nc1cccc(OC(F)F)c1)c1ccc(Nc2ncccn2)cc1
REMARK SMILES IDX 4 1 5 2 6 3 7 4 8 5 13 6 3 7 1 8 2 9 14 11 15 12 26 13 16 14
REMARK SMILES IDX 25 15 17 16 18 17 19 19 20 20 24 21 21 22 23 23 22 24 9 25
REMARK SMILES IDX 10 26 11 27 12 28
REMARK H PARENT 3 10 18 18
ROOT
ATOM      1  C   UNL     1       6.973  46.075  53.148  1.00  0.00     0.045 A 
ATOM      2  C   UNL     1       7.137  46.077  51.755  1.00  0.00     0.026 A 
ATOM      3  C   UNL     1       8.344  46.490  51.187  1.00  0.00     0.006 A 
ATOM      4  C   UNL     1       9.393  46.920  52.003  1.00  0.00     0.047 A 
ATOM      5  C   UNL     1       9.243  46.949  53.394  1.00  0.00     0.128 A 
ATOM      6  C   UNL     1       8.025  46.530  53.965  1.00  0.00     0.072 A 
ENDROOT
BRANCH   1   7
ATOM      7  N   UNL     1       5.714  45.662  53.709  1.00  0.00    -0.322 N 
ATOM      8  O   UNL     1       4.792  47.791  53.972  1.00  0.00    -0.269 OA
ATOM      9  C   UNL     1       4.598  46.547  53.898  1.00  0.00     0.255 C 
ATOM     10  H   UNL     1       5.650  44.697  54.105  1.00  0.00     0.170 HD
BRANCH   9  11
ATOM     11  C   UNL     1       3.222  46.012  54.057  1.00  0.00     0.040 A 
ATOM     12  C   UNL     1       2.809  45.426  55.266  1.00  0.00     0.016 A 
ATOM     13  C   UNL     1       2.312  46.074  52.987  1.00  0.00     0.016 A 
ATOM     14  C   UNL     1       1.513  44.919  55.402  1.00  0.00     0.027 A 
ATOM     15  C   UNL     1       1.017  45.567  53.125  1.00  0.00     0.027 A 
ATOM     16  C   UNL     1       0.613  44.968  54.330  1.00  0.00     0.041 A 
BRANCH  16  17
ATOM     17  N   UNL     1      -0.721  44.461  54.504  1.00  0.00    -0.324 N 
ATOM     18  H   UNL     1      -1.080  44.346  55.480  1.00  0.00     0.170 HD
BRANCH  17  19
ATOM     19  C   UNL     1      -1.556  43.997  53.434  1.00  0.00     0.227 A 
ATOM     20  N   UNL     1      -1.316  42.800  52.830  1.00  0.00    -0.221 NA
ATOM     21  N   UNL     1      -2.632  44.738  53.053  1.00  0.00    -0.221 NA
ATOM     22  C   UNL     1      -2.120  42.342  51.836  1.00  0.00     0.117 A 
ATOM     23  C   UNL     1      -3.460  44.314  52.063  1.00  0.00     0.117 A 
ATOM     24  C   UNL     1      -3.218  43.097  51.427  1.00  0.00     0.040 A 
ENDBRANCH  17  19
ENDBRANCH  16  17
ENDBRANCH   9  11
ENDBRANCH   1   7
BRANCH   5  25
ATOM     25  O   UNL     1      10.325  47.401  54.168  1.00  0.00    -0.435 OA
BRANCH  25  26
ATOM     26  C   UNL     1      10.313  47.527  55.587  1.00  0.00     0.542 C 
ATOM     27  F   UNL     1       9.607  48.659  55.955  1.00  0.00    -0.167 F 
ATOM     28  F   UNL     1      11.612  47.642  56.041  1.00  0.00    -0.167 F 
ENDBRANCH  25  26
ENDBRANCH   5  25
TORSDOF 6
ENDMDL
MODEL 4
REMARK VINA RESULT:    -7.964      1.397      1.937
REMARK INTER + INTRA:         -11.500
REMARK INTER:                 -10.682
REMARK INTRA:                  -0.817
REMARK UNBOUND:                -0.743
REMARK SMILES O=C(Nc1cccc(OC(F)F)c1)c1ccc(Nc2ncccn2)cc1
REMARK SMILES IDX 4 1 5 2 6 3 7 4 8 5 13 6 3 7 1 8 2 9 14 11 15 12 26 13 16 14
REMARK SMILES IDX 25 15 17 16 18 17 19 19 20 20 24 21 21 22 23 23 22 24 9 25
REMARK SMILES IDX 10 26 11 27 12 28
REMARK H PARENT 3 10 18 18
ROOT
ATOM      1  C   UNL     1       5.591  45.697  52.407  1.00  0.00     0.045 A 
ATOM      2  C   UNL     1       5.813  45.093  51.160  1.00  0.00     0.026 A 
ATOM      3  C   UNL     1       7.001  45.326  50.464  1.00  0.00     0.006 A 
ATOM      4  C   UNL     1       7.972  46.175  50.999  1.00  0.00     0.047 A 
ATOM      5  C   UNL     1       7.763  46.806  52.231  1.00  0.00     0.128 A 
ATOM      6  C   UNL     1       6.563  46.569  52.931  1.00  0.00     0.072 A 
ENDROOT
BRANCH   1   7
ATOM      7  N   UNL     1       4.352  45.456  53.096  1.00  0.00    -0.322 N 
ATOM      8  O   UNL     1       3.126  47.187  52.119  1.00  0.00    -0.269 OA
ATOM      9  C   UNL     1       3.111  46.096  52.752  1.00  0.00     0.255 C 
ATOM     10  H   UNL     1       4.380  44.874  53.963  1.00  0.00     0.170 HD
BRANCH   9  11
ATOM     11  C   UNL     1       1.813  45.515  53.176  1.00  0.00     0.040 A 
ATOM     12  C   UNL     1       0.722  45.460  52.290  1.00  0.00     0.016 A 
ATOM     13  C   UNL     1       1.652  45.021  54.482  1.00  0.00     0.016 A 
ATOM     14  C   UNL     1      -0.499  44.917  52.702  1.00  0.00     0.027 A 
ATOM     15  C   UNL     1       0.431  44.478  54.892  1.00  0.00     0.027 A 
ATOM     16  C   UNL     1      -0.661  44.439  54.008  1.00  0.00     0.041 A 
BRANCH  16  17
ATOM     17  N   UNL     1      -1.920  43.864  54.399  1.00  0.00    -0.324 N 
ATOM     18  H   UNL     1      -2.487  43.378  53.666  1.00  0.00     0.170 HD
BRANCH  17  19
ATOM     19  C   UNL     1      -2.505  44.007  55.701  1.00  0.00     0.227 A 
ATOM     20  N   UNL     1      -2.700  42.923  56.501  1.00  0.00    -0.221 NA
ATOM     21  N   UNL     1      -2.820  45.248  56.161  1.00  0.00    -0.221 NA
ATOM     22  C   UNL     1      -3.226  43.056  57.747  1.00  0.00     0.117 A 
ATOM     23  C   UNL     1      -3.348  45.423  57.400  1.00  0.00     0.117 A 
ATOM     24  C   UNL     1      -3.565  44.320  58.226  1.00  0.00     0.040 A 
ENDBRANCH  17  19
ENDBRANCH  16  17
ENDBRANCH   9  11
ENDBRANCH   1   7
BRANCH   5  25
ATOM     25  O   UNL     1       8.766  47.660  52.718  1.00  0.00    -0.435 OA
BRANCH  25  26
ATOM     26  C   UNL     1       9.876  47.242  53.507  1.00  0.00     0.542 C 
ATOM     27  F   UNL     1       9.904  45.861  53.590  1.00  0.00    -0.167 F 
ATOM     28  F   UNL     1       9.748  47.765  54.779  1.00  0.00    -0.167 F 
ENDBRANCH  25  26
ENDBRANCH   5  25
TORSDOF 6
ENDMDL
MODEL 5
REMARK VINA RESULT:    -7.845      4.238      9.458
REMARK INTER + INTRA:         -11.340
REMARK INTER:                 -10.582
REMARK INTRA:                  -0.758
REMARK UNBOUND:                -0.743
REMARK SMILES O=C(Nc1cccc(OC(F)F)c1)c1ccc(Nc2ncccn2)cc1
REMARK SMILES IDX 4 1 5 2 6 3 7 4 8 5 13 6 3 7 1 8 2 9 14 11 15 12 26 13 16 14
REMARK SMILES IDX 25 15 17 16 18 17 19 19 20 20 24 21 21 22 23 23 22 24 9 25
REMARK SMILES IDX 10 26 11 27 12 28
REMARK H PARENT 3 10 18 18
ROOT
ATOM      1  C   UNL     1      -0.144  44.502  54.942  1.00  0.00     0.045 A 
ATOM      2  C   UNL     1      -1.327  43.830  54.599  1.00  0.00     0.026 A 
ATOM      3  C   UNL     1      -2.468  43.962  55.391  1.00  0.00     0.006 A 
ATOM      4  C   UNL     1      -2.437  44.754  56.541  1.00  0.00     0.047 A 
ATOM      5  C   UNL     1      -1.261  45.416  56.915  1.00  0.00     0.128 A 
ATOM      6  C   UNL     1      -0.111  45.281  56.113  1.00  0.00     0.072 A 
ENDROOT
BRANCH   1   7
ATOM      7  N   UNL     1       1.025  44.335  54.119  1.00  0.00    -0.322 N 
ATOM      8  O   UNL     1       0.365  45.741  52.375  1.00  0.00    -0.269 OA
ATOM      9  C   UNL     1       1.306  45.140  52.962  1.00  0.00     0.255 C 
ATOM     10  H   UNL     1       1.640  43.512  54.307  1.00  0.00     0.170 HD
BRANCH   9  11
ATOM     11  C   UNL     1       2.684  45.235  52.419  1.00  0.00     0.040 A 
ATOM     12  C   UNL     1       3.744  44.523  53.007  1.00  0.00     0.016 A 
ATOM     13  C   UNL     1       2.951  46.056  51.309  1.00  0.00     0.016 A 
ATOM     14  C   UNL     1       5.040  44.625  52.491  1.00  0.00     0.027 A 
ATOM     15  C   UNL     1       4.247  46.157  50.794  1.00  0.00     0.027 A 
ATOM     16  C   UNL     1       5.306  45.455  51.394  1.00  0.00     0.041 A 
BRANCH  16  17
ATOM     17  N   UNL     1       6.643  45.524  50.869  1.00  0.00    -0.324 N 
ATOM     18  H   UNL     1       6.837  45.054  49.955  1.00  0.00     0.170 HD
BRANCH  17  19
ATOM     19  C   UNL     1       7.757  46.100  51.567  1.00  0.00     0.227 A 
ATOM     20  N   UNL     1       7.561  46.968  52.598  1.00  0.00    -0.221 NA
ATOM     21  N   UNL     1       9.022  45.732  51.229  1.00  0.00    -0.221 NA
ATOM     22  C   UNL     1       8.611  47.493  53.282  1.00  0.00     0.117 A 
ATOM     23  C   UNL     1      10.098  46.235  51.888  1.00  0.00     0.117 A 
ATOM     24  C   UNL     1       9.913  47.135  52.936  1.00  0.00     0.040 A 
ENDBRANCH  17  19
ENDBRANCH  16  17
ENDBRANCH   9  11
ENDBRANCH   1   7
BRANCH   5  25
ATOM     25  O   UNL     1      -1.280  46.189  58.087  1.00  0.00    -0.435 OA
BRANCH  25  26
ATOM     26  C   UNL     1      -1.605  47.575  58.141  1.00  0.00     0.542 C 
ATOM     27  F   UNL     1      -1.790  48.067  56.861  1.00  0.00    -0.167 F 
ATOM     28  F   UNL     1      -0.564  48.260  58.738  1.00  0.00    -0.167 F 
ENDBRANCH  25  26
ENDBRANCH   5  25
TORSDOF 6
ENDMDL
