ligand_37_conformer_5_docked
     RDKit          3D

 44 46  0  0  0  0  0  0  0  0999 V2000
   11.0830   47.5640   56.4780 C   0  0  0  0  0  0  0  0  0  0  0  0
    9.9530   48.0720   55.7770 O   0  0  0  0  0  0  0  0  0  0  0  0
    9.4170   47.4370   54.6520 C   0  0  0  0  0  0  0  0  0  0  0  0
   10.2050   47.2600   53.5160 C   0  0  0  0  0  0  0  0  0  0  0  0
    9.6490   46.6110   52.4140 C   0  0  0  0  0  0  0  0  0  0  0  0
    8.3660   46.1670   52.4640 N   0  0  0  0  0  0  0  0  0  0  0  0
    7.6010   46.3430   53.5780 C   0  0  0  0  0  0  0  0  0  0  0  0
    6.2370   45.8700   53.6130 N   0  0  0  0  0  0  0  0  0  0  0  0
    5.7290   45.2110   54.8190 C   0  0  0  0  0  0  0  0  0  0  0  0
    5.4420   45.8260   52.4100 C   0  0  0  0  0  0  0  0  0  0  0  0
    4.6950   46.8000   52.1230 O   0  0  0  0  0  0  0  0  0  0  0  0
    5.4860   44.6560   51.5030 C   0  0  0  0  0  0  0  0  0  0  0  0
    6.3960   44.6150   50.4320 C   0  0  0  0  0  0  0  0  0  0  0  0
    6.4690   43.4860   49.6110 C   0  0  0  0  0  0  0  0  0  0  0  0
    5.6500   42.3800   49.8520 C   0  0  0  0  0  0  0  0  0  0  0  0
    5.7730   41.2560   49.0220 O   0  0  0  0  0  0  0  0  0  0  0  0
    5.0200   41.0360   47.8620 C   0  0  0  0  0  0  0  0  0  0  0  0
    5.4380   41.6070   46.6580 C   0  0  0  0  0  0  0  0  0  0  0  0
    4.7040   41.3740   45.4950 C   0  0  0  0  0  0  0  0  0  0  0  0
    3.5440   40.5820   45.5380 C   0  0  0  0  0  0  0  0  0  0  0  0
    2.7700   40.2810   44.2800 C   0  0  0  0  0  0  0  0  0  0  0  0
    3.6290   40.1010   43.2090 F   0  0  0  0  0  0  0  0  0  0  0  0
    2.0320   39.1270   44.4660 F   0  0  0  0  0  0  0  0  0  0  0  0
    1.9110   41.3220   43.9760 F   0  0  0  0  0  0  0  0  0  0  0  0
    3.1800   40.0010   46.7630 C   0  0  0  0  0  0  0  0  0  0  0  0
    3.9150   40.2420   47.8810 N   0  0  0  0  0  0  0  0  0  0  0  0
    4.7080   42.4340   50.8940 C   0  0  0  0  0  0  0  0  0  0  0  0
    4.6250   43.5650   51.7120 C   0  0  0  0  0  0  0  0  0  0  0  0
    8.1350   46.9840   54.6550 N   0  0  0  0  0  0  0  0  0  0  0  0
   10.9083   47.6426   57.5612 H   0  0  0  0  0  0  0  0  0  0  0  0
   11.2387   46.5093   56.2073 H   0  0  0  0  0  0  0  0  0  0  0  0
   11.9752   48.1476   56.2073 H   0  0  0  0  0  0  0  0  0  0  0  0
   11.2426   47.6242   53.4893 H   0  0  0  0  0  0  0  0  0  0  0  0
   10.2490   46.4586   51.5047 H   0  0  0  0  0  0  0  0  0  0  0  0
    6.1230   45.7222   55.7098 H   0  0  0  0  0  0  0  0  0  0  0  0
    4.6300   45.2564   54.8263 H   0  0  0  0  0  0  0  0  0  0  0  0
    6.0526   44.1597   54.8263 H   0  0  0  0  0  0  0  0  0  0  0  0
    7.0536   45.4754   50.2392 H   0  0  0  0  0  0  0  0  0  0  0  0
    7.1765   43.4682   48.7689 H   0  0  0  0  0  0  0  0  0  0  0  0
    6.3398   42.2361   46.6270 H   0  0  0  0  0  0  0  0  0  0  0  0
    5.0342   41.8115   44.5413 H   0  0  0  0  0  0  0  0  0  0  0  0
    2.2965   39.3481   46.8185 H   0  0  0  0  0  0  0  0  0  0  0  0
    4.0331   41.5827   51.0667 H   0  0  0  0  0  0  0  0  0  0  0  0
    3.8825   43.6010   52.5228 H   0  0  0  0  0  0  0  0  0  0  0  0
  1  2  1  0
  2  3  1  0
  3  4  2  0
  4  5  1  0
  5  6  2  0
  6  7  1  0
  7  8  1  0
  8  9  1  0
  8 10  1  0
 10 11  2  0
 10 12  1  0
 12 13  2  0
 13 14  1  0
 14 15  2  0
 15 16  1  0
 16 17  1  0
 17 18  2  0
 18 19  1  0
 19 20  2  0
 20 21  1  0
 21 22  1  0
 21 23  1  0
 21 24  1  0
 20 25  1  0
 25 26  2  0
 15 27  1  0
 27 28  2  0
  7 29  2  0
 29  3  1  0
 28 12  1  0
 26 17  1  0
  1 30  1  0
  1 31  1  0
  1 32  1  0
  4 33  1  0
  5 34  1  0
  9 35  1  0
  9 36  1  0
  9 37  1  0
 13 38  1  0
 14 39  1  0
 18 40  1  0
 19 41  1  0
 25 42  1  0
 27 43  1  0
 28 44  1  0
M  END
>  <meeko>  (1) 
{"is_sidechain": [false], "free_energy": -9.003, "intermolecular_energy": -12.688, "internal_energy": -0.616}

$$$$
ligand_37_conformer_5_docked
     RDKit          3D

 44 46  0  0  0  0  0  0  0  0999 V2000
    0.9180   46.0250   57.5090 C   0  0  0  0  0  0  0  0  0  0  0  0
   -0.4940   45.8940   57.6390 O   0  0  0  0  0  0  0  0  0  0  0  0
   -1.2500   45.0470   56.8230 C   0  0  0  0  0  0  0  0  0  0  0  0
   -2.4970   44.6020   57.2550 C   0  0  0  0  0  0  0  0  0  0  0  0
   -3.2360   43.7690   56.4140 C   0  0  0  0  0  0  0  0  0  0  0  0
   -2.7340   43.4100   55.2030 N   0  0  0  0  0  0  0  0  0  0  0  0
   -1.5130   43.8490   54.7870 C   0  0  0  0  0  0  0  0  0  0  0  0
   -0.9920   43.4530   53.5000 N   0  0  0  0  0  0  0  0  0  0  0  0
   -1.8930   43.3730   52.3470 C   0  0  0  0  0  0  0  0  0  0  0  0
    0.3400   42.9140   53.3790 C   0  0  0  0  0  0  0  0  0  0  0  0
    0.5880   41.7650   53.8350 O   0  0  0  0  0  0  0  0  0  0  0  0
    1.4250   43.6840   52.7280 C   0  0  0  0  0  0  0  0  0  0  0  0
    2.5630   43.0300   52.2250 C   0  0  0  0  0  0  0  0  0  0  0  0
    3.5590   43.7540   51.5650 C   0  0  0  0  0  0  0  0  0  0  0  0
    3.4310   45.1340   51.3840 C   0  0  0  0  0  0  0  0  0  0  0  0
    4.4390   45.8200   50.6930 O   0  0  0  0  0  0  0  0  0  0  0  0
    5.7310   46.0430   51.1830 C   0  0  0  0  0  0  0  0  0  0  0  0
    5.8960   46.7370   52.3830 C   0  0  0  0  0  0  0  0  0  0  0  0
    7.1800   46.9440   52.8890 C   0  0  0  0  0  0  0  0  0  0  0  0
    8.3000   46.4690   52.1870 C   0  0  0  0  0  0  0  0  0  0  0  0
    9.6900   46.6400   52.7450 C   0  0  0  0  0  0  0  0  0  0  0  0
    9.8190   47.8720   53.3630 F   0  0  0  0  0  0  0  0  0  0  0  0
    9.9340   45.6430   53.6710 F   0  0  0  0  0  0  0  0  0  0  0  0
   10.6340   46.5610   51.7360 F   0  0  0  0  0  0  0  0  0  0  0  0
    8.0860   45.7470   51.0010 C   0  0  0  0  0  0  0  0  0  0  0  0
    6.8240   45.5570   50.5330 N   0  0  0  0  0  0  0  0  0  0  0  0
    2.3160   45.7980   51.9240 C   0  0  0  0  0  0  0  0  0  0  0  0
    1.3220   45.0780   52.5940 C   0  0  0  0  0  0  0  0  0  0  0  0
   -0.7830   44.6550   55.6070 N   0  0  0  0  0  0  0  0  0  0  0  0
    1.3758   46.0675   58.5083 H   0  0  0  0  0  0  0  0  0  0  0  0
    1.3174   45.1601   56.9591 H   0  0  0  0  0  0  0  0  0  0  0  0
    1.1515   46.9487   56.9591 H   0  0  0  0  0  0  0  0  0  0  0  0
   -2.8908   44.9007   58.2377 H   0  0  0  0  0  0  0  0  0  0  0  0
   -4.2239   43.4033   56.7308 H   0  0  0  0  0  0  0  0  0  0  0  0
   -2.9312   43.2808   52.6987 H   0  0  0  0  0  0  0  0  0  0  0  0
   -1.7915   44.2837   51.7384 H   0  0  0  0  0  0  0  0  0  0  0  0
   -1.6326   42.4944   51.7384 H   0  0  0  0  0  0  0  0  0  0  0  0
    2.6699   41.9426   52.3517 H   0  0  0  0  0  0  0  0  0  0  0  0
    4.4507   43.2340   51.1849 H   0  0  0  0  0  0  0  0  0  0  0  0
    5.0190   47.1185   52.9265 H   0  0  0  0  0  0  0  0  0  0  0  0
    7.3153   47.4804   53.8398 H   0  0  0  0  0  0  0  0  0  0  0  0
    8.9430   45.3338   50.4489 H   0  0  0  0  0  0  0  0  0  0  0  0
    2.2249   46.8892   51.8190 H   0  0  0  0  0  0  0  0  0  0  0  0
    0.4553   45.6061   53.0181 H   0  0  0  0  0  0  0  0  0  0  0  0
  1  2  1  0
  2  3  1  0
  3  4  2  0
  4  5  1  0
  5  6  2  0
  6  7  1  0
  7  8  1  0
  8  9  1  0
  8 10  1  0
 10 11  2  0
 10 12  1  0
 12 13  2  0
 13 14  1  0
 14 15  2  0
 15 16  1  0
 16 17  1  0
 17 18  2  0
 18 19  1  0
 19 20  2  0
 20 21  1  0
 21 22  1  0
 21 23  1  0
 21 24  1  0
 20 25  1  0
 25 26  2  0
 15 27  1  0
 27 28  2  0
  7 29  2  0
 29  3  1  0
 28 12  1  0
 26 17  1  0
  1 30  1  0
  1 31  1  0
  1 32  1  0
  4 33  1  0
  5 34  1  0
  9 35  1  0
  9 36  1  0
  9 37  1  0
 13 38  1  0
 14 39  1  0
 18 40  1  0
 19 41  1  0
 25 42  1  0
 27 43  1  0
 28 44  1  0
M  END
>  <meeko>  (2) 
{"is_sidechain": [false], "free_energy": -8.756, "intermolecular_energy": -11.935, "internal_energy": -1.02}

$$$$
ligand_37_conformer_5_docked
     RDKit          3D

 44 46  0  0  0  0  0  0  0  0999 V2000
    3.8830   45.8170   55.2280 C   0  0  0  0  0  0  0  0  0  0  0  0
    2.7590   45.9440   56.0930 O   0  0  0  0  0  0  0  0  0  0  0  0
    1.5350   45.3210   55.8320 C   0  0  0  0  0  0  0  0  0  0  0  0
    0.4590   45.5190   56.6960 C   0  0  0  0  0  0  0  0  0  0  0  0
   -0.7540   44.8970   56.4020 C   0  0  0  0  0  0  0  0  0  0  0  0
   -0.8680   44.1190   55.2940 N   0  0  0  0  0  0  0  0  0  0  0  0
    0.1880   43.9300   54.4540 C   0  0  0  0  0  0  0  0  0  0  0  0
    0.0520   43.0950   53.2830 N   0  0  0  0  0  0  0  0  0  0  0  0
   -0.1810   41.6570   53.4420 C   0  0  0  0  0  0  0  0  0  0  0  0
    0.3710   43.6060   51.9730 C   0  0  0  0  0  0  0  0  0  0  0  0
   -0.5440   43.7210   51.1120 O   0  0  0  0  0  0  0  0  0  0  0  0
    1.7540   43.9980   51.6170 C   0  0  0  0  0  0  0  0  0  0  0  0
    2.7840   43.0430   51.5900 C   0  0  0  0  0  0  0  0  0  0  0  0
    4.0760   43.4080   51.2010 C   0  0  0  0  0  0  0  0  0  0  0  0
    4.3570   44.7230   50.8210 C   0  0  0  0  0  0  0  0  0  0  0  0
    5.6590   45.0440   50.4130 O   0  0  0  0  0  0  0  0  0  0  0  0
    6.6610   45.5340   51.2580 C   0  0  0  0  0  0  0  0  0  0  0  0
    7.9470   45.7330   50.7500 C   0  0  0  0  0  0  0  0  0  0  0  0
    8.9450   46.2410   51.5820 C   0  0  0  0  0  0  0  0  0  0  0  0
    8.6610   46.5390   52.9250 C   0  0  0  0  0  0  0  0  0  0  0  0
    9.7160   47.1360   53.8220 C   0  0  0  0  0  0  0  0  0  0  0  0
   10.9210   47.2470   53.1500 F   0  0  0  0  0  0  0  0  0  0  0  0
    9.3080   48.3920   54.2290 F   0  0  0  0  0  0  0  0  0  0  0  0
    9.9130   46.3410   54.9380 F   0  0  0  0  0  0  0  0  0  0  0  0
    7.3470   46.3550   53.3850 C   0  0  0  0  0  0  0  0  0  0  0  0
    6.3930   45.8610   52.5520 N   0  0  0  0  0  0  0  0  0  0  0  0
    3.3400   45.6920   50.8900 C   0  0  0  0  0  0  0  0  0  0  0  0
    2.0490   45.3320   51.2870 C   0  0  0  0  0  0  0  0  0  0  0  0
    1.3780   44.5270   54.7390 N   0  0  0  0  0  0  0  0  0  0  0  0
    4.7984   45.7136   55.8291 H   0  0  0  0  0  0  0  0  0  0  0  0
    3.7586   44.9272   54.5934 H   0  0  0  0  0  0  0  0  0  0  0  0
    3.9603   46.7121   54.5934 H   0  0  0  0  0  0  0  0  0  0  0  0
    0.5644   46.1517   57.5896 H   0  0  0  0  0  0  0  0  0  0  0  0
   -1.6188   45.0363   57.0674 H   0  0  0  0  0  0  0  0  0  0  0  0
   -0.2213   41.4083   54.5128 H   0  0  0  0  0  0  0  0  0  0  0  0
   -1.1349   41.3853   52.9663 H   0  0  0  0  0  0  0  0  0  0  0  0
    0.6383   41.0980   52.9663 H   0  0  0  0  0  0  0  0  0  0  0  0
    2.5726   42.0022   51.8766 H   0  0  0  0  0  0  0  0  0  0  0  0
    4.8774   42.6546   51.1940 H   0  0  0  0  0  0  0  0  0  0  0  0
    8.1713   45.4907   49.7007 H   0  0  0  0  0  0  0  0  0  0  0  0
    9.9571   46.4087   51.1852 H   0  0  0  0  0  0  0  0  0  0  0  0
    7.0888   46.6115   54.4230 H   0  0  0  0  0  0  0  0  0  0  0  0
    3.5615   46.7377   50.6304 H   0  0  0  0  0  0  0  0  0  0  0  0
    1.2600   46.0965   51.3414 H   0  0  0  0  0  0  0  0  0  0  0  0
  1  2  1  0
  2  3  1  0
  3  4  2  0
  4  5  1  0
  5  6  2  0
  6  7  1  0
  7  8  1  0
  8  9  1  0
  8 10  1  0
 10 11  2  0
 10 12  1  0
 12 13  2  0
 13 14  1  0
 14 15  2  0
 15 16  1  0
 16 17  1  0
 17 18  2  0
 18 19  1  0
 19 20  2  0
 20 21  1  0
 21 22  1  0
 21 23  1  0
 21 24  1  0
 20 25  1  0
 25 26  2  0
 15 27  1  0
 27 28  2  0
  7 29  2  0
 29  3  1  0
 28 12  1  0
 26 17  1  0
  1 30  1  0
  1 31  1  0
  1 32  1  0
  4 33  1  0
  5 34  1  0
  9 35  1  0
  9 36  1  0
  9 37  1  0
 13 38  1  0
 14 39  1  0
 18 40  1  0
 19 41  1  0
 25 42  1  0
 27 43  1  0
 28 44  1  0
M  END
>  <meeko>  (3) 
{"is_sidechain": [false], "free_energy": -8.521, "intermolecular_energy": -11.726, "internal_energy": -0.898}

$$$$
ligand_37_conformer_5_docked
     RDKit          3D

 44 46  0  0  0  0  0  0  0  0999 V2000
   -3.3810   42.7210   58.7230 C   0  0  0  0  0  0  0  0  0  0  0  0
   -3.6000   43.2880   57.4360 O   0  0  0  0  0  0  0  0  0  0  0  0
   -2.5830   43.9070   56.7030 C   0  0  0  0  0  0  0  0  0  0  0  0
   -1.9080   45.0010   57.2430 C   0  0  0  0  0  0  0  0  0  0  0  0
   -0.8880   45.5890   56.4950 C   0  0  0  0  0  0  0  0  0  0  0  0
   -0.5720   45.0940   55.2690 N   0  0  0  0  0  0  0  0  0  0  0  0
   -1.2370   44.0250   54.7480 C   0  0  0  0  0  0  0  0  0  0  0  0
   -0.8920   43.5150   53.4410 N   0  0  0  0  0  0  0  0  0  0  0  0
   -1.9000   43.5090   52.3770 C   0  0  0  0  0  0  0  0  0  0  0  0
    0.3440   42.8030   53.2300 C   0  0  0  0  0  0  0  0  0  0  0  0
    0.4340   41.5980   53.5880 O   0  0  0  0  0  0  0  0  0  0  0  0
    1.5130   43.4610   52.6020 C   0  0  0  0  0  0  0  0  0  0  0  0
    2.6970   42.7420   52.3670 C   0  0  0  0  0  0  0  0  0  0  0  0
    3.7780   43.3520   51.7250 C   0  0  0  0  0  0  0  0  0  0  0  0
    3.6910   44.6800   51.2960 C   0  0  0  0  0  0  0  0  0  0  0  0
    4.7870   45.2480   50.6320 O   0  0  0  0  0  0  0  0  0  0  0  0
    5.9860   45.6220   51.2510 C   0  0  0  0  0  0  0  0  0  0  0  0
    7.1580   45.6730   50.4940 C   0  0  0  0  0  0  0  0  0  0  0  0
    8.3530   46.0650   51.0990 C   0  0  0  0  0  0  0  0  0  0  0  0
    8.3780   46.3940   52.4650 C   0  0  0  0  0  0  0  0  0  0  0  0
    9.6500   46.8680   53.1200 C   0  0  0  0  0  0  0  0  0  0  0  0
    9.9920   46.0420   54.1760 F   0  0  0  0  0  0  0  0  0  0  0  0
   10.6710   46.8600   52.1900 F   0  0  0  0  0  0  0  0  0  0  0  0
    9.4950   48.1540   53.6090 F   0  0  0  0  0  0  0  0  0  0  0  0
    7.1700   46.3610   53.1800 C   0  0  0  0  0  0  0  0  0  0  0  0
    6.0200   45.9770   52.5640 N   0  0  0  0  0  0  0  0  0  0  0  0
    2.5240   45.4160   51.5690 C   0  0  0  0  0  0  0  0  0  0  0  0
    1.4440   44.8110   52.2190 C   0  0  0  0  0  0  0  0  0  0  0  0
   -2.2400   43.4510   55.4680 N   0  0  0  0  0  0  0  0  0  0  0  0
   -3.6625   43.4497   59.4974 H   0  0  0  0  0  0  0  0  0  0  0  0
   -3.9935   41.8139   58.8331 H   0  0  0  0  0  0  0  0  0  0  0  0
   -2.3178   42.4611   58.8331 H   0  0  0  0  0  0  0  0  0  0  0  0
   -2.1738   45.3915   58.2364 H   0  0  0  0  0  0  0  0  0  0  0  0
   -0.3393   46.4533   56.8972 H   0  0  0  0  0  0  0  0  0  0  0  0
   -2.9050   43.5030   52.8241 H   0  0  0  0  0  0  0  0  0  0  0  0
   -1.7811   44.4079   51.7542 H   0  0  0  0  0  0  0  0  0  0  0  0
   -1.7704   42.6116   51.7542 H   0  0  0  0  0  0  0  0  0  0  0  0
    2.7735   41.6933   52.6901 H   0  0  0  0  0  0  0  0  0  0  0  0
    4.7042   42.7832   51.5559 H   0  0  0  0  0  0  0  0  0  0  0  0
    7.1396   45.4058   49.4271 H   0  0  0  0  0  0  0  0  0  0  0  0
    9.2775   46.1166   50.5052 H   0  0  0  0  0  0  0  0  0  0  0  0
    7.1538   46.6468   54.2421 H   0  0  0  0  0  0  0  0  0  0  0  0
    2.4607   46.4726   51.2697 H   0  0  0  0  0  0  0  0  0  0  0  0
    0.5361   45.3947   52.4315 H   0  0  0  0  0  0  0  0  0  0  0  0
  1  2  1  0
  2  3  1  0
  3  4  2  0
  4  5  1  0
  5  6  2  0
  6  7  1  0
  7  8  1  0
  8  9  1  0
  8 10  1  0
 10 11  2  0
 10 12  1  0
 12 13  2  0
 13 14  1  0
 14 15  2  0
 15 16  1  0
 16 17  1  0
 17 18  2  0
 18 19  1  0
 19 20  2  0
 20 21  1  0
 21 22  1  0
 21 23  1  0
 21 24  1  0
 20 25  1  0
 25 26  2  0
 15 27  1  0
 27 28  2  0
  7 29  2  0
 29  3  1  0
 28 12  1  0
 26 17  1  0
  1 30  1  0
  1 31  1  0
  1 32  1  0
  4 33  1  0
  5 34  1  0
  9 35  1  0
  9 36  1  0
  9 37  1  0
 13 38  1  0
 14 39  1  0
 18 40  1  0
 19 41  1  0
 25 42  1  0
 27 43  1  0
 28 44  1  0
M  END
>  <meeko>  (4) 
{"is_sidechain": [false], "free_energy": -8.405, "intermolecular_energy": -11.615, "internal_energy": -0.847}

$$$$
ligand_37_conformer_5_docked
     RDKit          3D

 44 46  0  0  0  0  0  0  0  0999 V2000
   -1.5870   48.5310   58.8490 C   0  0  0  0  0  0  0  0  0  0  0  0
   -1.9550   47.3580   58.1310 O   0  0  0  0  0  0  0  0  0  0  0  0
   -1.0330   46.6010   57.4030 C   0  0  0  0  0  0  0  0  0  0  0  0
    0.2900   46.5190   57.8350 C   0  0  0  0  0  0  0  0  0  0  0  0
    1.1850   45.7440   57.0970 C   0  0  0  0  0  0  0  0  0  0  0  0
    0.7590   45.0900   55.9840 N   0  0  0  0  0  0  0  0  0  0  0  0
   -0.5350   45.1740   55.5680 C   0  0  0  0  0  0  0  0  0  0  0  0
   -0.9690   44.4770   54.3800 N   0  0  0  0  0  0  0  0  0  0  0  0
   -2.3790   44.5300   53.9830 C   0  0  0  0  0  0  0  0  0  0  0  0
   -0.0940   43.5460   53.7110 C   0  0  0  0  0  0  0  0  0  0  0  0
   -0.3460   42.3120   53.7630 O   0  0  0  0  0  0  0  0  0  0  0  0
    1.0970   44.0120   52.9640 C   0  0  0  0  0  0  0  0  0  0  0  0
    2.2510   43.2130   52.8890 C   0  0  0  0  0  0  0  0  0  0  0  0
    3.3530   43.6330   52.1390 C   0  0  0  0  0  0  0  0  0  0  0  0
    3.3160   44.8440   51.4420 C   0  0  0  0  0  0  0  0  0  0  0  0
    4.4310   45.2170   50.6780 O   0  0  0  0  0  0  0  0  0  0  0  0
    5.6470   45.6620   51.2100 C   0  0  0  0  0  0  0  0  0  0  0  0
    5.6540   46.3260   52.4380 C   0  0  0  0  0  0  0  0  0  0  0  0
    6.8650   46.7530   52.9840 C   0  0  0  0  0  0  0  0  0  0  0  0
    8.0680   46.5280   52.2940 C   0  0  0  0  0  0  0  0  0  0  0  0
    9.3890   46.9380   52.8950 C   0  0  0  0  0  0  0  0  0  0  0  0
   10.3550   47.0630   51.9110 F   0  0  0  0  0  0  0  0  0  0  0  0
    9.2390   48.1530   53.5370 F   0  0  0  0  0  0  0  0  0  0  0  0
    9.8220   45.9940   53.8100 F   0  0  0  0  0  0  0  0  0  0  0  0
    8.0190   45.8270   51.0790 C   0  0  0  0  0  0  0  0  0  0  0  0
    6.8250   45.4190   50.5710 N   0  0  0  0  0  0  0  0  0  0  0  0
    2.1800   45.6660   51.5500 C   0  0  0  0  0  0  0  0  0  0  0  0
    1.0800   45.2530   52.3070 C   0  0  0  0  0  0  0  0  0  0  0  0
   -1.4130   45.9360   56.2790 N   0  0  0  0  0  0  0  0  0  0  0  0
   -1.6488   48.3340   59.9295 H   0  0  0  0  0  0  0  0  0  0  0  0
   -0.5570   48.8138   58.5861 H   0  0  0  0  0  0  0  0  0  0  0  0
   -2.2709   49.3515   58.5861 H   0  0  0  0  0  0  0  0  0  0  0  0
    0.6208   47.0535   58.7377 H   0  0  0  0  0  0  0  0  0  0  0  0
    2.2347   45.6622   57.4155 H   0  0  0  0  0  0  0  0  0  0  0  0
   -3.0124   44.5538   54.8820 H   0  0  0  0  0  0  0  0  0  0  0  0
   -2.5576   45.4355   53.3845 H   0  0  0  0  0  0  0  0  0  0  0  0
   -2.6251   43.6405   53.3845 H   0  0  0  0  0  0  0  0  0  0  0  0
    2.2869   42.2522   53.4234 H   0  0  0  0  0  0  0  0  0  0  0  0
    4.2559   43.0061   52.0969 H   0  0  0  0  0  0  0  0  0  0  0  0
    4.7104   46.5115   52.9720 H   0  0  0  0  0  0  0  0  0  0  0  0
    6.8778   47.2668   53.9566 H   0  0  0  0  0  0  0  0  0  0  0  0
    8.9497   45.6067   50.5356 H   0  0  0  0  0  0  0  0  0  0  0  0
    2.1571   46.6384   51.0364 H   0  0  0  0  0  0  0  0  0  0  0  0
    0.1966   45.9033   52.3885 H   0  0  0  0  0  0  0  0  0  0  0  0
  1  2  1  0
  2  3  1  0
  3  4  2  0
  4  5  1  0
  5  6  2  0
  6  7  1  0
  7  8  1  0
  8  9  1  0
  8 10  1  0
 10 11  2  0
 10 12  1  0
 12 13  2  0
 13 14  1  0
 14 15  2  0
 15 16  1  0
 16 17  1  0
 17 18  2  0
 18 19  1  0
 19 20  2  0
 20 21  1  0
 21 22  1  0
 21 23  1  0
 21 24  1  0
 20 25  1  0
 25 26  2  0
 15 27  1  0
 27 28  2  0
  7 29  2  0
 29  3  1  0
 28 12  1  0
 26 17  1  0
  1 30  1  0
  1 31  1  0
  1 32  1  0
  4 33  1  0
  5 34  1  0
  9 35  1  0
  9 36  1  0
  9 37  1  0
 13 38  1  0
 14 39  1  0
 18 40  1  0
 19 41  1  0
 25 42  1  0
 27 43  1  0
 28 44  1  0
M  END
>  <meeko>  (5) 
{"is_sidechain": [false], "free_energy": -8.353, "intermolecular_energy": -11.598, "internal_energy": -0.789}

$$$$
