ligand_56_conformer_2_docked
     RDKit          3D

 50 53  0  0  0  0  0  0  0  0999 V2000
    7.9680   42.9480   49.3460 O   0  0  0  0  0  0  0  0  0  0  0  0
    6.7310   43.1990   49.3520 C   0  0  0  0  0  0  0  0  0  0  0  0
    6.2540   44.4280   49.9220 N   0  0  0  0  0  0  0  0  0  0  0  0
    7.1370   45.2970   50.7010 C   0  0  0  0  0  0  0  0  0  0  0  0
    6.8380   45.1840   52.2110 C   0  0  2  0  0  0  0  0  0  0  0  0
    5.3950   44.9800   52.3990 N   0  0  0  0  0  0  0  0  0  0  0  0
    4.8360   46.2190   52.9580 C   0  0  0  0  0  0  0  0  0  0  0  0
    5.9370   47.2680   52.9870 C   0  0  0  0  0  0  0  0  0  0  0  0
    7.2110   46.4400   53.0110 C   0  0  2  0  0  0  0  0  0  0  0  0
    8.5610   47.0940   52.6010 C   0  0  0  0  0  0  0  0  0  0  0  0
    9.5840   47.4910   53.6600 C   0  0  0  0  0  0  0  0  0  0  0  0
    9.8110   46.2490   52.8070 C   0  0  0  0  0  0  0  0  0  0  0  0
    5.7940   42.2430   48.7250 C   0  0  0  0  0  0  0  0  0  0  0  0
    5.8560   42.0470   47.3370 C   0  0  0  0  0  0  0  0  0  0  0  0
    4.9790   41.1660   46.7000 C   0  0  0  0  0  0  0  0  0  0  0  0
    4.0170   40.4540   47.4360 C   0  0  0  0  0  0  0  0  0  0  0  0
    3.1050   39.5430   46.7800 N   0  0  0  0  0  0  0  0  0  0  0  0
    2.7300   38.2320   47.3030 C   0  0  0  0  0  0  0  0  0  0  0  0
    1.8680   37.5000   46.2510 C   0  0  0  0  0  0  0  0  0  0  0  0
    1.1320   38.5220   45.3780 C   0  0  0  0  0  0  0  0  0  0  0  0
    2.1710   39.9420   45.3940 S   0  0  0  0  0  0  0  0  0  0  0  0
    1.3810   41.2040   45.5990 O   0  0  0  0  0  0  0  0  0  0  0  0
    3.0240   40.0170   44.1590 O   0  0  0  0  0  0  0  0  0  0  0  0
    3.9710   40.6340   48.8320 C   0  0  0  0  0  0  0  0  0  0  0  0
    4.8520   41.5110   49.4780 C   0  0  0  0  0  0  0  0  0  0  0  0
    4.7930   41.5880   51.2370 Cl  0  0  0  0  0  0  0  0  0  0  0  0
    5.2590   44.7030   49.7620 H   0  0  0  0  0  0  0  0  0  0  0  0
    8.1815   45.0039   50.5188 H   0  0  0  0  0  0  0  0  0  0  0  0
    6.9671   46.3379   50.3884 H   0  0  0  0  0  0  0  0  0  0  0  0
    7.4464   44.3444   52.5783 H   0  0  0  0  0  0  0  0  0  0  0  0
    5.2520   44.2070   53.0900 H   0  0  0  0  0  0  0  0  0  0  0  0
    4.0047   46.5693   52.3286 H   0  0  0  0  0  0  0  0  0  0  0  0
    4.4565   46.0391   53.9747 H   0  0  0  0  0  0  0  0  0  0  0  0
    5.8980   47.9046   52.0908 H   0  0  0  0  0  0  0  0  0  0  0  0
    5.8543   47.9541   53.8428 H   0  0  0  0  0  0  0  0  0  0  0  0
    7.4897   46.2475   54.0575 H   0  0  0  0  0  0  0  0  0  0  0  0
    8.0872   47.6374   51.7702 H   0  0  0  0  0  0  0  0  0  0  0  0
   10.2115   48.3823   53.5120 H   0  0  0  0  0  0  0  0  0  0  0  0
    9.5462   47.6972   54.7398 H   0  0  0  0  0  0  0  0  0  0  0  0
   10.6029   46.2436   52.0436 H   0  0  0  0  0  0  0  0  0  0  0  0
   10.0054   45.1868   53.0167 H   0  0  0  0  0  0  0  0  0  0  0  0
    6.6039   42.5935   46.7437 H   0  0  0  0  0  0  0  0  0  0  0  0
    5.0422   41.0282   45.6105 H   0  0  0  0  0  0  0  0  0  0  0  0
    3.6365   37.6445   47.5108 H   0  0  0  0  0  0  0  0  0  0  0  0
    2.1574   38.3528   48.2344 H   0  0  0  0  0  0  0  0  0  0  0  0
    2.5167   36.8781   45.6165 H   0  0  0  0  0  0  0  0  0  0  0  0
    1.1313   36.8648   46.7646 H   0  0  0  0  0  0  0  0  0  0  0  0
    1.0090   38.1415   44.3533 H   0  0  0  0  0  0  0  0  0  0  0  0
    0.1200   38.7393   45.7503 H   0  0  0  0  0  0  0  0  0  0  0  0
    3.2310   40.0767   49.4251 H   0  0  0  0  0  0  0  0  0  0  0  0
  1  2  2  0
  2  3  1  0
  3  4  1  0
  4  5  1  0
  5  6  1  0
  6  7  1  0
  7  8  1  0
  8  9  1  0
  9 10  1  0
 10 11  1  0
 11 12  1  0
  2 13  1  0
 13 14  2  0
 14 15  1  0
 15 16  2  0
 16 17  1  0
 17 18  1  0
 18 19  1  0
 19 20  1  0
 20 21  1  0
 21 22  2  0
 21 23  2  0
 16 24  1  0
 24 25  2  0
 25 26  1  0
  9  5  1  0
 12 10  1  0
 25 13  1  0
 21 17  1  0
  3 27  1  0
  4 28  1  0
  4 29  1  0
  5 30  1  1
  6 31  1  0
  7 32  1  0
  7 33  1  0
  8 34  1  0
  8 35  1  0
  9 36  1  1
 10 37  1  0
 11 38  1  0
 11 39  1  0
 12 40  1  0
 12 41  1  0
 14 42  1  0
 15 43  1  0
 18 44  1  0
 18 45  1  0
 19 46  1  0
 19 47  1  0
 20 48  1  0
 20 49  1  0
 24 50  1  0
M  END
>  <meeko>  (1) 
{"is_sidechain": [false], "free_energy": -8.087, "intermolecular_energy": -10.451, "internal_energy": -0.8}

$$$$
ligand_56_conformer_2_docked
     RDKit          3D

 50 53  0  0  0  0  0  0  0  0999 V2000
    4.6510   45.9800   51.2420 O   0  0  0  0  0  0  0  0  0  0  0  0
    4.4860   46.3100   52.4490 C   0  0  0  0  0  0  0  0  0  0  0  0
    5.4710   47.1180   53.1100 N   0  0  0  0  0  0  0  0  0  0  0  0
    6.7730   47.3820   52.4980 C   0  0  0  0  0  0  0  0  0  0  0  0
    7.8090   46.3130   52.9080 C   0  0  2  0  0  0  0  0  0  0  0  0
    8.7050   46.8810   53.9240 N   0  0  0  0  0  0  0  0  0  0  0  0
   10.0160   47.0950   53.2970 C   0  0  0  0  0  0  0  0  0  0  0  0
    9.8920   46.7830   51.8140 C   0  0  0  0  0  0  0  0  0  0  0  0
    8.7010   45.8400   51.7520 C   0  0  2  0  0  0  0  0  0  0  0  0
    7.9570   45.6280   50.4030 C   0  0  0  0  0  0  0  0  0  0  0  0
    8.3780   44.5120   49.4530 C   0  0  0  0  0  0  0  0  0  0  0  0
    7.1120   44.3660   50.2880 C   0  0  0  0  0  0  0  0  0  0  0  0
    3.2500   45.9000   53.1490 C   0  0  0  0  0  0  0  0  0  0  0  0
    2.0190   46.0600   52.4980 C   0  0  0  0  0  0  0  0  0  0  0  0
    0.8240   45.7020   53.1280 C   0  0  0  0  0  0  0  0  0  0  0  0
    0.8320   45.1700   54.4290 C   0  0  0  0  0  0  0  0  0  0  0  0
   -0.4030   44.8000   55.0860 N   0  0  0  0  0  0  0  0  0  0  0  0
   -1.3700   43.8460   54.5480 C   0  0  0  0  0  0  0  0  0  0  0  0
   -2.6200   43.8340   55.4560 C   0  0  0  0  0  0  0  0  0  0  0  0
   -2.2300   44.2280   56.8840 C   0  0  0  0  0  0  0  0  0  0  0  0
   -0.8230   45.2670   56.6850 S   0  0  0  0  0  0  0  0  0  0  0  0
    0.2600   44.9240   57.6690 O   0  0  0  0  0  0  0  0  0  0  0  0
   -1.1960   46.7210   56.7540 O   0  0  0  0  0  0  0  0  0  0  0  0
    2.0710   44.9870   55.0720 C   0  0  0  0  0  0  0  0  0  0  0  0
    3.2710   45.3390   54.4430 C   0  0  0  0  0  0  0  0  0  0  0  0
    4.7770   44.9720   55.2820 Cl  0  0  0  0  0  0  0  0  0  0  0  0
    5.2390   47.5290   54.0420 H   0  0  0  0  0  0  0  0  0  0  0  0
    6.6633   47.3744   51.4035 H   0  0  0  0  0  0  0  0  0  0  0  0
    7.1287   48.3634   52.8450 H   0  0  0  0  0  0  0  0  0  0  0  0
    7.2285   45.4528   53.2729 H   0  0  0  0  0  0  0  0  0  0  0  0
    8.8150   46.1870   54.7010 H   0  0  0  0  0  0  0  0  0  0  0  0
   10.3267   48.1415   53.4323 H   0  0  0  0  0  0  0  0  0  0  0  0
   10.7693   46.4409   53.7604 H   0  0  0  0  0  0  0  0  0  0  0  0
    9.7007   47.6977   51.2338 H   0  0  0  0  0  0  0  0  0  0  0  0
   10.8079   46.3473   51.3883 H   0  0  0  0  0  0  0  0  0  0  0  0
    9.0619   44.8053   51.8480 H   0  0  0  0  0  0  0  0  0  0  0  0
    7.8053   46.7099   50.2746 H   0  0  0  0  0  0  0  0  0  0  0  0
    8.3057   44.6590   48.3653 H   0  0  0  0  0  0  0  0  0  0  0  0
    9.2900   43.9135   49.3113 H   0  0  0  0  0  0  0  0  0  0  0  0
    6.1256   44.4071   49.8029 H   0  0  0  0  0  0  0  0  0  0  0  0
    6.7315   43.6177   50.9988 H   0  0  0  0  0  0  0  0  0  0  0  0
    1.9932   46.4725   51.4786 H   0  0  0  0  0  0  0  0  0  0  0  0
   -0.1318   45.8378   52.6008 H   0  0  0  0  0  0  0  0  0  0  0  0
   -1.6566   44.1457   53.5292 H   0  0  0  0  0  0  0  0  0  0  0  0
   -0.9235   42.8412   54.5155 H   0  0  0  0  0  0  0  0  0  0  0  0
   -3.3592   44.5507   55.0687 H   0  0  0  0  0  0  0  0  0  0  0  0
   -3.0523   42.8225   55.4643 H   0  0  0  0  0  0  0  0  0  0  0  0
   -3.0498   44.7732   57.3747 H   0  0  0  0  0  0  0  0  0  0  0  0
   -2.0183   43.3533   57.5165 H   0  0  0  0  0  0  0  0  0  0  0  0
    2.0965   44.5603   56.0855 H   0  0  0  0  0  0  0  0  0  0  0  0
  1  2  2  0
  2  3  1  0
  3  4  1  0
  4  5  1  0
  5  6  1  0
  6  7  1  0
  7  8  1  0
  8  9  1  0
  9 10  1  0
 10 11  1  0
 11 12  1  0
  2 13  1  0
 13 14  2  0
 14 15  1  0
 15 16  2  0
 16 17  1  0
 17 18  1  0
 18 19  1  0
 19 20  1  0
 20 21  1  0
 21 22  2  0
 21 23  2  0
 16 24  1  0
 24 25  2  0
 25 26  1  0
  9  5  1  0
 12 10  1  0
 25 13  1  0
 21 17  1  0
  3 27  1  0
  4 28  1  0
  4 29  1  0
  5 30  1  1
  6 31  1  0
  7 32  1  0
  7 33  1  0
  8 34  1  0
  8 35  1  0
  9 36  1  1
 10 37  1  0
 11 38  1  0
 11 39  1  0
 12 40  1  0
 12 41  1  0
 14 42  1  0
 15 43  1  0
 18 44  1  0
 18 45  1  0
 19 46  1  0
 19 47  1  0
 20 48  1  0
 20 49  1  0
 24 50  1  0
M  END
>  <meeko>  (2) 
{"is_sidechain": [false], "free_energy": -7.83, "intermolecular_energy": -10.587, "internal_energy": -0.332}

$$$$
ligand_56_conformer_2_docked
     RDKit          3D

 50 53  0  0  0  0  0  0  0  0999 V2000
    3.8130   44.0340   53.3150 O   0  0  0  0  0  0  0  0  0  0  0  0
    3.4870   44.9880   54.0730 C   0  0  0  0  0  0  0  0  0  0  0  0
    4.3970   46.0800   54.2780 N   0  0  0  0  0  0  0  0  0  0  0  0
    5.7830   46.0110   53.8160 C   0  0  0  0  0  0  0  0  0  0  0  0
    5.9630   46.7610   52.4790 C   0  0  2  0  0  0  0  0  0  0  0  0
    4.8650   46.3920   51.5730 N   0  0  0  0  0  0  0  0  0  0  0  0
    5.4240   45.5380   50.5180 C   0  0  0  0  0  0  0  0  0  0  0  0
    6.8790   45.2530   50.8540 C   0  0  0  0  0  0  0  0  0  0  0  0
    7.2680   46.4190   51.7480 C   0  0  2  0  0  0  0  0  0  0  0  0
    8.5160   46.3000   52.6680 C   0  0  0  0  0  0  0  0  0  0  0  0
    9.8820   46.7780   52.1890 C   0  0  0  0  0  0  0  0  0  0  0  0
    9.0940   47.6070   53.1960 C   0  0  0  0  0  0  0  0  0  0  0  0
    2.1490   44.9920   54.7000 C   0  0  0  0  0  0  0  0  0  0  0  0
    2.0570   45.0090   56.1000 C   0  0  0  0  0  0  0  0  0  0  0  0
    0.8130   44.9960   56.7350 C   0  0  0  0  0  0  0  0  0  0  0  0
   -0.3760   44.9680   55.9840 C   0  0  0  0  0  0  0  0  0  0  0  0
   -1.6660   44.9530   56.6380 N   0  0  0  0  0  0  0  0  0  0  0  0
   -2.4710   43.7520   56.8460 C   0  0  0  0  0  0  0  0  0  0  0  0
   -3.8400   44.1620   57.4330 C   0  0  0  0  0  0  0  0  0  0  0  0
   -3.6990   45.4700   58.2190 C   0  0  0  0  0  0  0  0  0  0  0  0
   -2.3540   46.3030   57.4470 S   0  0  0  0  0  0  0  0  0  0  0  0
   -1.4100   46.8860   58.4610 O   0  0  0  0  0  0  0  0  0  0  0  0
   -2.8340   47.3430   56.4740 O   0  0  0  0  0  0  0  0  0  0  0  0
   -0.2820   44.9750   54.5790 C   0  0  0  0  0  0  0  0  0  0  0  0
    0.9620   44.9940   53.9370 C   0  0  0  0  0  0  0  0  0  0  0  0
    0.9780   45.1130   52.1790 Cl  0  0  0  0  0  0  0  0  0  0  0  0
    4.0490   46.9400   54.7590 H   0  0  0  0  0  0  0  0  0  0  0  0
    6.4371   46.4666   54.5740 H   0  0  0  0  0  0  0  0  0  0  0  0
    6.0467   44.9543   53.6612 H   0  0  0  0  0  0  0  0  0  0  0  0
    5.9772   47.8316   52.7314 H   0  0  0  0  0  0  0  0  0  0  0  0
    4.4860   47.2640   51.1330 H   0  0  0  0  0  0  0  0  0  0  0  0
    4.8622   44.5936   50.4675 H   0  0  0  0  0  0  0  0  0  0  0  0
    5.3525   46.0439   49.5439 H   0  0  0  0  0  0  0  0  0  0  0  0
    6.9798   44.2966   51.3880 H   0  0  0  0  0  0  0  0  0  0  0  0
    7.5166   45.1639   49.9621 H   0  0  0  0  0  0  0  0  0  0  0  0
    7.6653   47.2306   51.1207 H   0  0  0  0  0  0  0  0  0  0  0  0
    8.1565   45.3513   53.0932 H   0  0  0  0  0  0  0  0  0  0  0  0
   10.7924   46.2478   52.5054 H   0  0  0  0  0  0  0  0  0  0  0  0
   10.3374   46.9736   51.2070 H   0  0  0  0  0  0  0  0  0  0  0  0
    9.4358   47.6754   54.2393 H   0  0  0  0  0  0  0  0  0  0  0  0
    8.7452   48.6492   53.2418 H   0  0  0  0  0  0  0  0  0  0  0  0
    2.9756   45.0328   56.7047 H   0  0  0  0  0  0  0  0  0  0  0  0
    0.7626   45.0078   57.8338 H   0  0  0  0  0  0  0  0  0  0  0  0
   -2.6205   43.2369   55.8856 H   0  0  0  0  0  0  0  0  0  0  0  0
   -1.9554   43.0739   57.5419 H   0  0  0  0  0  0  0  0  0  0  0  0
   -4.5603   44.3043   56.6139 H   0  0  0  0  0  0  0  0  0  0  0  0
   -4.1968   43.3701   58.1080 H   0  0  0  0  0  0  0  0  0  0  0  0
   -4.6195   46.0680   58.1477 H   0  0  0  0  0  0  0  0  0  0  0  0
   -3.5251   45.2977   59.2914 H   0  0  0  0  0  0  0  0  0  0  0  0
   -1.2017   44.9654   53.9756 H   0  0  0  0  0  0  0  0  0  0  0  0
  1  2  2  0
  2  3  1  0
  3  4  1  0
  4  5  1  0
  5  6  1  0
  6  7  1  0
  7  8  1  0
  8  9  1  0
  9 10  1  0
 10 11  1  0
 11 12  1  0
  2 13  1  0
 13 14  2  0
 14 15  1  0
 15 16  2  0
 16 17  1  0
 17 18  1  0
 18 19  1  0
 19 20  1  0
 20 21  1  0
 21 22  2  0
 21 23  2  0
 16 24  1  0
 24 25  2  0
 25 26  1  0
  9  5  1  0
 12 10  1  0
 25 13  1  0
 21 17  1  0
  3 27  1  0
  4 28  1  0
  4 29  1  0
  5 30  1  1
  6 31  1  0
  7 32  1  0
  7 33  1  0
  8 34  1  0
  8 35  1  0
  9 36  1  6
 10 37  1  0
 11 38  1  0
 11 39  1  0
 12 40  1  0
 12 41  1  0
 14 42  1  0
 15 43  1  0
 18 44  1  0
 18 45  1  0
 19 46  1  0
 19 47  1  0
 20 48  1  0
 20 49  1  0
 24 50  1  0
M  END
>  <meeko>  (3) 
{"is_sidechain": [false], "free_energy": -7.822, "intermolecular_energy": -10.17, "internal_energy": -0.738}

$$$$
ligand_56_conformer_2_docked
     RDKit          3D

 50 53  0  0  0  0  0  0  0  0999 V2000
    5.8080   45.5460   55.0970 O   0  0  0  0  0  0  0  0  0  0  0  0
    4.9060   46.0060   54.3440 C   0  0  0  0  0  0  0  0  0  0  0  0
    5.2560   46.8800   53.2610 N   0  0  0  0  0  0  0  0  0  0  0  0
    6.6030   47.4390   53.1400 C   0  0  0  0  0  0  0  0  0  0  0  0
    7.6780   46.3610   53.3900 C   0  0  2  0  0  0  0  0  0  0  0  0
    8.5810   46.8240   54.4540 N   0  0  0  0  0  0  0  0  0  0  0  0
    9.8700   47.1570   53.8340 C   0  0  0  0  0  0  0  0  0  0  0  0
    9.7210   47.0320   52.3260 C   0  0  0  0  0  0  0  0  0  0  0  0
    8.5570   46.0670   52.1670 C   0  0  2  0  0  0  0  0  0  0  0  0
    7.7900   46.0050   50.8160 C   0  0  0  0  0  0  0  0  0  0  0  0
    8.0220   44.8520   49.8450 C   0  0  0  0  0  0  0  0  0  0  0  0
    6.7490   44.9010   50.6810 C   0  0  0  0  0  0  0  0  0  0  0  0
    3.5030   45.5940   54.5600 C   0  0  0  0  0  0  0  0  0  0  0  0
    2.8450   46.0140   55.7250 C   0  0  0  0  0  0  0  0  0  0  0  0
    1.5250   45.6340   55.9770 C   0  0  0  0  0  0  0  0  0  0  0  0
    0.8250   44.8240   55.0670 C   0  0  0  0  0  0  0  0  0  0  0  0
   -0.5420   44.4270   55.3250 N   0  0  0  0  0  0  0  0  0  0  0  0
   -1.1810   44.4750   56.6380 C   0  0  0  0  0  0  0  0  0  0  0  0
   -2.5810   43.8290   56.5380 C   0  0  0  0  0  0  0  0  0  0  0  0
   -3.1210   43.9740   55.1110 C   0  0  0  0  0  0  0  0  0  0  0  0
   -1.6810   44.0320   54.1000 S   0  0  0  0  0  0  0  0  0  0  0  0
   -1.7790   45.1130   53.0610 O   0  0  0  0  0  0  0  0  0  0  0  0
   -1.3850   42.6940   53.4840 O   0  0  0  0  0  0  0  0  0  0  0  0
    1.4780   44.4230   53.8850 C   0  0  0  0  0  0  0  0  0  0  0  0
    2.7990   44.8050   53.6240 C   0  0  0  0  0  0  0  0  0  0  0  0
    3.4960   44.3470   52.0720 Cl  0  0  0  0  0  0  0  0  0  0  0  0
    4.5300   47.1070   52.5440 H   0  0  0  0  0  0  0  0  0  0  0  0
    6.7326   47.8470   52.1267 H   0  0  0  0  0  0  0  0  0  0  0  0
    6.7210   48.2307   53.8945 H   0  0  0  0  0  0  0  0  0  0  0  0
    7.1309   45.4436   53.6527 H   0  0  0  0  0  0  0  0  0  0  0  0
    8.7290   46.0400   55.1340 H   0  0  0  0  0  0  0  0  0  0  0  0
   10.1535   48.1871   54.0956 H   0  0  0  0  0  0  0  0  0  0  0  0
   10.6522   46.4733   54.1955 H   0  0  0  0  0  0  0  0  0  0  0  0
    9.4897   48.0064   51.8710 H   0  0  0  0  0  0  0  0  0  0  0  0
   10.6392   46.6834   51.8307 H   0  0  0  0  0  0  0  0  0  0  0  0
    8.9493   45.0402   52.1244 H   0  0  0  0  0  0  0  0  0  0  0  0
    7.8188   47.0992   50.7069 H   0  0  0  0  0  0  0  0  0  0  0  0
    7.9749   45.0284   48.7603 H   0  0  0  0  0  0  0  0  0  0  0  0
    8.8233   44.1144   49.6901 H   0  0  0  0  0  0  0  0  0  0  0  0
    5.7828   45.1123   50.1995 H   0  0  0  0  0  0  0  0  0  0  0  0
    6.2507   44.2127   51.3795 H   0  0  0  0  0  0  0  0  0  0  0  0
    3.3749   46.6504   56.4490 H   0  0  0  0  0  0  0  0  0  0  0  0
    1.0279   45.9725   56.8980 H   0  0  0  0  0  0  0  0  0  0  0  0
   -0.5702   43.9213   57.3662 H   0  0  0  0  0  0  0  0  0  0  0  0
   -1.2758   45.5200   56.9680 H   0  0  0  0  0  0  0  0  0  0  0  0
   -2.5095   42.7617   56.7943 H   0  0  0  0  0  0  0  0  0  0  0  0
   -3.2639   44.3340   57.2370 H   0  0  0  0  0  0  0  0  0  0  0  0
   -3.7497   43.1119   54.8435 H   0  0  0  0  0  0  0  0  0  0  0  0
   -3.7530   44.8663   54.9911 H   0  0  0  0  0  0  0  0  0  0  0  0
    0.9409   43.7994   53.1551 H   0  0  0  0  0  0  0  0  0  0  0  0
  1  2  2  0
  2  3  1  0
  3  4  1  0
  4  5  1  0
  5  6  1  0
  6  7  1  0
  7  8  1  0
  8  9  1  0
  9 10  1  0
 10 11  1  0
 11 12  1  0
  2 13  1  0
 13 14  2  0
 14 15  1  0
 15 16  2  0
 16 17  1  0
 17 18  1  0
 18 19  1  0
 19 20  1  0
 20 21  1  0
 21 22  2  0
 21 23  2  0
 16 24  1  0
 24 25  2  0
 25 26  1  0
  9  5  1  0
 12 10  1  0
 25 13  1  0
 21 17  1  0
  3 27  1  0
  4 28  1  0
  4 29  1  0
  5 30  1  1
  6 31  1  0
  7 32  1  0
  7 33  1  0
  8 34  1  0
  8 35  1  0
  9 36  1  1
 10 37  1  0
 11 38  1  0
 11 39  1  0
 12 40  1  0
 12 41  1  0
 14 42  1  0
 15 43  1  0
 18 44  1  0
 18 45  1  0
 19 46  1  0
 19 47  1  0
 20 48  1  0
 20 49  1  0
 24 50  1  0
M  END
>  <meeko>  (4) 
{"is_sidechain": [false], "free_energy": -7.644, "intermolecular_energy": -10.44, "internal_energy": -0.238}

$$$$
ligand_56_conformer_2_docked
     RDKit          3D

 50 53  0  0  0  0  0  0  0  0999 V2000
    5.4590   44.1930   51.4860 O   0  0  0  0  0  0  0  0  0  0  0  0
    4.8620   44.7150   52.4670 C   0  0  0  0  0  0  0  0  0  0  0  0
    5.6050   45.4650   53.4400 N   0  0  0  0  0  0  0  0  0  0  0  0
    7.0680   45.4520   53.4540 C   0  0  0  0  0  0  0  0  0  0  0  0
    7.6440   46.6470   52.6660 C   0  0  2  0  0  0  0  0  0  0  0  0
    7.8160   46.2540   51.2600 N   0  0  0  0  0  0  0  0  0  0  0  0
    9.2560   46.1210   51.0050 C   0  0  0  0  0  0  0  0  0  0  0  0
    9.9930   46.2980   52.3240 C   0  0  0  0  0  0  0  0  0  0  0  0
    9.0210   47.1110   53.1630 C   0  0  2  0  0  0  0  0  0  0  0  0
    9.1770   47.1380   54.7100 C   0  0  0  0  0  0  0  0  0  0  0  0
   10.5120   47.5060   55.3480 C   0  0  0  0  0  0  0  0  0  0  0  0
    9.3650   48.5090   55.3460 C   0  0  0  0  0  0  0  0  0  0  0  0
    3.3930   44.5890   52.5720 C   0  0  0  0  0  0  0  0  0  0  0  0
    2.8380   43.3230   52.8120 C   0  0  0  0  0  0  0  0  0  0  0  0
    1.4540   43.1550   52.9010 C   0  0  0  0  0  0  0  0  0  0  0  0
    0.5870   44.2510   52.7550 C   0  0  0  0  0  0  0  0  0  0  0  0
   -0.8470   44.0810   52.8450 N   0  0  0  0  0  0  0  0  0  0  0  0
   -1.7310   44.9340   53.6350 C   0  0  0  0  0  0  0  0  0  0  0  0
   -3.1590   44.3440   53.6000 C   0  0  0  0  0  0  0  0  0  0  0  0
   -3.3620   43.5460   52.3080 C   0  0  0  0  0  0  0  0  0  0  0  0
   -1.7500   42.9810   51.8820 S   0  0  0  0  0  0  0  0  0  0  0  0
   -1.4700   43.1630   50.4170 O   0  0  0  0  0  0  0  0  0  0  0  0
   -1.5310   41.5600   52.3170 O   0  0  0  0  0  0  0  0  0  0  0  0
    1.1470   45.5250   52.5370 C   0  0  0  0  0  0  0  0  0  0  0  0
    2.5330   45.7010   52.4530 C   0  0  0  0  0  0  0  0  0  0  0  0
    3.1440   47.3460   52.2890 Cl  0  0  0  0  0  0  0  0  0  0  0  0
    5.0820   46.0360   54.1410 H   0  0  0  0  0  0  0  0  0  0  0  0
    7.4174   45.5071   54.4956 H   0  0  0  0  0  0  0  0  0  0  0  0
    7.4127   44.5221   52.9780 H   0  0  0  0  0  0  0  0  0  0  0  0
    6.9296   47.4722   52.8023 H   0  0  0  0  0  0  0  0  0  0  0  0
    7.4370   47.0170   50.6500 H   0  0  0  0  0  0  0  0  0  0  0  0
    9.4698   45.1249   50.5902 H   0  0  0  0  0  0  0  0  0  0  0  0
    9.5848   46.8821   50.2821 H   0  0  0  0  0  0  0  0  0  0  0  0
   10.1998   45.3248   52.7932 H   0  0  0  0  0  0  0  0  0  0  0  0
   10.9721   46.7855   52.2073 H   0  0  0  0  0  0  0  0  0  0  0  0
    9.2255   48.1806   53.0076 H   0  0  0  0  0  0  0  0  0  0  0  0
    8.4943   46.2840   54.8306 H   0  0  0  0  0  0  0  0  0  0  0  0
   10.8228   47.0275   56.2885 H   0  0  0  0  0  0  0  0  0  0  0  0
   11.5586   47.5201   55.0096 H   0  0  0  0  0  0  0  0  0  0  0  0
    8.8480   48.7550   56.2853 H   0  0  0  0  0  0  0  0  0  0  0  0
    9.2410   49.5476   55.0055 H   0  0  0  0  0  0  0  0  0  0  0  0
    3.5002   42.4528   52.9315 H   0  0  0  0  0  0  0  0  0  0  0  0
    1.0384   42.1537   53.0874 H   0  0  0  0  0  0  0  0  0  0  0  0
   -1.3734   44.9740   54.6745 H   0  0  0  0  0  0  0  0  0  0  0  0
   -1.7379   45.9516   53.2173 H   0  0  0  0  0  0  0  0  0  0  0  0
   -3.3004   43.6795   54.4651 H   0  0  0  0  0  0  0  0  0  0  0  0
   -3.8908   45.1644   53.6377 H   0  0  0  0  0  0  0  0  0  0  0  0
   -4.0396   42.6963   52.4780 H   0  0  0  0  0  0  0  0  0  0  0  0
   -3.8182   44.1503   51.5101 H   0  0  0  0  0  0  0  0  0  0  0  0
    0.4839   46.3962   52.4310 H   0  0  0  0  0  0  0  0  0  0  0  0
  1  2  2  0
  2  3  1  0
  3  4  1  0
  4  5  1  0
  5  6  1  0
  6  7  1  0
  7  8  1  0
  8  9  1  0
  9 10  1  0
 10 11  1  0
 11 12  1  0
  2 13  1  0
 13 14  2  0
 14 15  1  0
 15 16  2  0
 16 17  1  0
 17 18  1  0
 18 19  1  0
 19 20  1  0
 20 21  1  0
 21 22  2  0
 21 23  2  0
 16 24  1  0
 24 25  2  0
 25 26  1  0
  9  5  1  0
 12 10  1  0
 25 13  1  0
 21 17  1  0
  3 27  1  0
  4 28  1  0
  4 29  1  0
  5 30  1  6
  6 31  1  0
  7 32  1  0
  7 33  1  0
  8 34  1  0
  8 35  1  0
  9 36  1  6
 10 37  1  0
 11 38  1  0
 11 39  1  0
 12 40  1  0
 12 41  1  0
 14 42  1  0
 15 43  1  0
 18 44  1  0
 18 45  1  0
 19 46  1  0
 19 47  1  0
 20 48  1  0
 20 49  1  0
 24 50  1  0
M  END
>  <meeko>  (5) 
{"is_sidechain": [false], "free_energy": -7.62, "intermolecular_energy": -9.996, "internal_energy": -0.651}

$$$$
