MODEL 1
REMARK VINA RESULT:    -8.952      0.000      0.000
REMARK INTER + INTRA:         -10.841
REMARK INTER:                 -10.522
REMARK INTRA:                  -0.319
REMARK UNBOUND:                -0.319
REMARK SMILES N#Cc1ccsc1S(=O)(=O)Nc1cccc2c1NC(=O)C2
REMARK SMILES IDX 11 1 8 3 9 4 10 5 7 6 1 7 2 8 3 9 4 10 5 11 6 12 12 13 13 14
REMARK SMILES IDX 17 15 14 16 18 17 16 18 15 19 19 20 21 21 20 22
REMARK H PARENT 11 2 18 23
ROOT
ATOM      1  N   UNL     1       6.278  46.044  51.180  1.00  0.00    -0.277 N 
ATOM      2  H   UNL     1       5.873  46.764  50.543  1.00  0.00     0.180 HD
ENDROOT
BRANCH   1   3
ATOM      3  S   UNL     1       5.142  45.059  52.047  1.00  0.00     0.272 S 
ATOM      4  O   UNL     1       5.661  44.816  53.436  1.00  0.00    -0.200 OA
ATOM      5  O   UNL     1       3.827  45.781  52.132  1.00  0.00    -0.200 OA
BRANCH   3   6
ATOM      6  C   UNL     1       4.949  43.510  51.237  1.00  0.00     0.158 A 
ATOM      7  N   UNL     1       1.949  42.935  53.079  1.00  0.00    -0.192 NA
ATOM      8  C   UNL     1       2.827  42.782  52.342  1.00  0.00     0.101 C 
ATOM      9  C   UNL     1       3.921  42.591  51.425  1.00  0.00     0.083 A 
ATOM     10  C   UNL     1       4.055  41.441  50.638  1.00  0.00     0.032 A 
ATOM     11  C   UNL     1       5.187  41.449  49.833  1.00  0.00     0.068 A 
ATOM     12  S   UNL     1       6.020  42.885  50.104  1.00  0.00    -0.129 S 
ENDBRANCH   3   6
ENDBRANCH   1   3
BRANCH   1  13
ATOM     13  C   UNL     1       7.707  45.947  51.335  1.00  0.00     0.073 A 
ATOM     14  C   UNL     1       8.512  45.234  50.415  1.00  0.00     0.029 A 
ATOM     15  C   UNL     1       8.356  46.568  52.416  1.00  0.00     0.069 A 
ATOM     16  C   UNL     1       9.907  45.154  50.591  1.00  0.00     0.003 A 
ATOM     17  N   UNL     1       7.757  47.318  53.461  1.00  0.00    -0.324 N 
ATOM     18  C   UNL     1       9.727  46.484  52.581  1.00  0.00    -0.013 A 
ATOM     19  C   UNL     1      10.523  45.782  51.681  1.00  0.00     0.006 A 
ATOM     20  C   UNL     1       8.839  47.708  54.299  1.00  0.00     0.228 C 
ATOM     21  C   UNL     1      10.165  47.215  53.810  1.00  0.00     0.138 C 
ATOM     22  O   UNL     1       8.681  48.392  55.343  1.00  0.00    -0.274 OA
ATOM     23  H   UNL     1       6.747  47.528  53.615  1.00  0.00     0.170 HD
ENDBRANCH   1  13
TORSDOF 3
ENDMDL
MODEL 2
REMARK VINA RESULT:    -8.808      2.011      6.513
REMARK INTER + INTRA:         -10.671
REMARK INTER:                 -10.231
REMARK INTRA:                  -0.440
REMARK UNBOUND:                -0.319
REMARK SMILES N#Cc1ccsc1S(=O)(=O)Nc1cccc2c1NC(=O)C2
REMARK SMILES IDX 11 1 8 3 9 4 10 5 7 6 1 7 2 8 3 9 4 10 5 11 6 12 12 13 13 14
REMARK SMILES IDX 17 15 14 16 18 17 16 18 15 19 19 20 21 21 20 22
REMARK H PARENT 11 2 18 23
ROOT
ATOM      1  N   UNL     1       5.246  46.009  51.789  1.00  0.00    -0.277 N 
ATOM      2  H   UNL     1       5.320  46.510  50.877  1.00  0.00     0.180 HD
ENDROOT
BRANCH   1   3
ATOM      3  S   UNL     1       6.310  46.549  53.050  1.00  0.00     0.272 S 
ATOM      4  O   UNL     1       6.012  47.988  53.362  1.00  0.00    -0.200 OA
ATOM      5  O   UNL     1       6.078  45.719  54.280  1.00  0.00    -0.200 OA
BRANCH   3   6
ATOM      6  C   UNL     1       7.983  46.421  52.521  1.00  0.00     0.158 A 
ATOM      7  N   UNL     1       9.015  48.296  55.374  1.00  0.00    -0.192 NA
ATOM      8  C   UNL     1       9.054  47.695  54.387  1.00  0.00     0.101 C 
ATOM      9  C   UNL     1       9.103  46.945  53.158  1.00  0.00     0.083 A 
ATOM     10  C   UNL     1      10.300  46.683  52.480  1.00  0.00     0.032 A 
ATOM     11  C   UNL     1      10.126  45.958  51.308  1.00  0.00     0.068 A 
ATOM     12  S   UNL     1       8.484  45.646  51.117  1.00  0.00    -0.129 S 
ENDBRANCH   3   6
ENDBRANCH   1   3
BRANCH   1  13
ATOM     13  C   UNL     1       4.332  44.904  51.928  1.00  0.00     0.073 A 
ATOM     14  C   UNL     1       3.107  45.030  52.625  1.00  0.00     0.029 A 
ATOM     15  C   UNL     1       4.630  43.651  51.365  1.00  0.00     0.069 A 
ATOM     16  C   UNL     1       2.233  43.933  52.747  1.00  0.00     0.003 A 
ATOM     17  N   UNL     1       5.795  43.290  50.641  1.00  0.00    -0.324 N 
ATOM     18  C   UNL     1       3.764  42.578  51.490  1.00  0.00    -0.013 A 
ATOM     19  C   UNL     1       2.560  42.696  52.177  1.00  0.00     0.006 A 
ATOM     20  C   UNL     1       5.612  41.918  50.311  1.00  0.00     0.228 C 
ATOM     21  C   UNL     1       4.317  41.363  50.818  1.00  0.00     0.138 C 
ATOM     22  O   UNL     1       6.461  41.253  49.663  1.00  0.00    -0.274 OA
ATOM     23  H   UNL     1       6.627  43.877  50.412  1.00  0.00     0.170 HD
ENDBRANCH   1  13
TORSDOF 3
ENDMDL
MODEL 3
REMARK VINA RESULT:    -8.771      1.900      2.735
REMARK INTER + INTRA:         -10.628
REMARK INTER:                  -9.998
REMARK INTRA:                  -0.629
REMARK UNBOUND:                -0.319
REMARK SMILES N#Cc1ccsc1S(=O)(=O)Nc1cccc2c1NC(=O)C2
REMARK SMILES IDX 11 1 8 3 9 4 10 5 7 6 1 7 2 8 3 9 4 10 5 11 6 12 12 13 13 14
REMARK SMILES IDX 17 15 14 16 18 17 16 18 15 19 19 20 21 21 20 22
REMARK H PARENT 11 2 18 23
ROOT
ATOM      1  N   UNL     1       5.231  46.126  52.473  1.00  0.00    -0.277 N 
ATOM      2  H   UNL     1       4.519  46.612  51.886  1.00  0.00     0.180 HD
ENDROOT
BRANCH   1   3
ATOM      3  S   UNL     1       4.678  45.517  54.002  1.00  0.00     0.272 S 
ATOM      4  O   UNL     1       5.687  44.539  54.535  1.00  0.00    -0.200 OA
ATOM      5  O   UNL     1       4.542  46.659  54.968  1.00  0.00    -0.200 OA
BRANCH   3   6
ATOM      6  C   UNL     1       3.140  44.689  53.799  1.00  0.00     0.158 A 
ATOM      7  N   UNL     1       4.559  42.720  51.185  1.00  0.00    -0.192 NA
ATOM      8  C   UNL     1       3.797  43.148  51.943  1.00  0.00     0.101 C 
ATOM      9  C   UNL     1       2.848  43.680  52.886  1.00  0.00     0.083 A 
ATOM     10  C   UNL     1       1.524  43.229  52.962  1.00  0.00     0.032 A 
ATOM     11  C   UNL     1       0.771  43.883  53.930  1.00  0.00     0.068 A 
ATOM     12  S   UNL     1       1.752  45.022  54.686  1.00  0.00    -0.129 S 
ENDBRANCH   3   6
ENDBRANCH   1   3
BRANCH   1  13
ATOM     13  C   UNL     1       6.594  46.034  52.017  1.00  0.00     0.073 A 
ATOM     14  C   UNL     1       6.938  45.378  50.811  1.00  0.00     0.029 A 
ATOM     15  C   UNL     1       7.640  46.603  52.764  1.00  0.00     0.069 A 
ATOM     16  C   UNL     1       8.279  45.302  50.391  1.00  0.00     0.003 A 
ATOM     17  N   UNL     1       7.536  47.292  54.000  1.00  0.00    -0.324 N 
ATOM     18  C   UNL     1       8.956  46.524  52.343  1.00  0.00    -0.013 A 
ATOM     19  C   UNL     1       9.299  45.878  51.159  1.00  0.00     0.006 A 
ATOM     20  C   UNL     1       8.873  47.647  54.336  1.00  0.00     0.228 C 
ATOM     21  C   UNL     1       9.872  47.193  53.317  1.00  0.00     0.138 C 
ATOM     22  O   UNL     1       9.170  48.274  55.385  1.00  0.00    -0.274 OA
ATOM     23  H   UNL     1       6.683  47.484  54.569  1.00  0.00     0.170 HD
ENDBRANCH   1  13
TORSDOF 3
ENDMDL
MODEL 4
REMARK VINA RESULT:    -8.729      2.202      3.667
REMARK INTER + INTRA:         -10.578
REMARK INTER:                  -9.795
REMARK INTRA:                  -0.783
REMARK UNBOUND:                -0.319
REMARK SMILES N#Cc1ccsc1S(=O)(=O)Nc1cccc2c1NC(=O)C2
REMARK SMILES IDX 11 1 8 3 9 4 10 5 7 6 1 7 2 8 3 9 4 10 5 11 6 12 12 13 13 14
REMARK SMILES IDX 17 15 14 16 18 17 16 18 15 19 19 20 21 21 20 22
REMARK H PARENT 11 2 18 23
ROOT
ATOM      1  N   UNL     1       5.958  46.815  52.359  1.00  0.00    -0.277 N 
ATOM      2  H   UNL     1       5.497  47.367  51.604  1.00  0.00     0.180 HD
ENDROOT
BRANCH   1   3
ATOM      3  S   UNL     1       4.900  46.028  53.489  1.00  0.00     0.272 S 
ATOM      4  O   UNL     1       5.612  44.848  54.088  1.00  0.00    -0.200 OA
ATOM      5  O   UNL     1       4.540  46.993  54.582  1.00  0.00    -0.200 OA
BRANCH   3   6
ATOM      6  C   UNL     1       3.456  45.458  52.663  1.00  0.00     0.158 A 
ATOM      7  N   UNL     1       5.445  43.153  50.804  1.00  0.00    -0.192 NA
ATOM      8  C   UNL     1       4.528  43.738  51.198  1.00  0.00     0.101 C 
ATOM      9  C   UNL     1       3.387  44.467  51.688  1.00  0.00     0.083 A 
ATOM     10  C   UNL     1       2.088  44.247  51.213  1.00  0.00     0.032 A 
ATOM     11  C   UNL     1       1.135  45.064  51.807  1.00  0.00     0.068 A 
ATOM     12  S   UNL     1       1.909  46.060  52.920  1.00  0.00    -0.129 S 
ENDBRANCH   3   6
ENDBRANCH   1   3
BRANCH   1  13
ATOM     13  C   UNL     1       7.395  46.779  52.446  1.00  0.00     0.073 A 
ATOM     14  C   UNL     1       8.104  47.515  53.425  1.00  0.00     0.029 A 
ATOM     15  C   UNL     1       8.149  45.999  51.552  1.00  0.00     0.069 A 
ATOM     16  C   UNL     1       9.510  47.462  53.487  1.00  0.00     0.003 A 
ATOM     17  N   UNL     1       7.659  45.197  50.489  1.00  0.00    -0.324 N 
ATOM     18  C   UNL     1       9.530  45.953  51.620  1.00  0.00    -0.013 A 
ATOM     19  C   UNL     1      10.233  46.677  52.579  1.00  0.00     0.006 A 
ATOM     20  C   UNL     1       8.820  44.636  49.888  1.00  0.00     0.228 C 
ATOM     21  C   UNL     1      10.090  45.066  50.554  1.00  0.00     0.138 C 
ATOM     22  O   UNL     1       8.770  43.863  48.896  1.00  0.00    -0.274 OA
ATOM     23  H   UNL     1       6.672  45.056  50.182  1.00  0.00     0.170 HD
ENDBRANCH   1  13
TORSDOF 3
ENDMDL
MODEL 5
REMARK VINA RESULT:    -8.718      2.431      3.463
REMARK INTER + INTRA:         -10.565
REMARK INTER:                 -10.011
REMARK INTRA:                  -0.555
REMARK UNBOUND:                -0.319
REMARK SMILES N#Cc1ccsc1S(=O)(=O)Nc1cccc2c1NC(=O)C2
REMARK SMILES IDX 11 1 8 3 9 4 10 5 7 6 1 7 2 8 3 9 4 10 5 11 6 12 12 13 13 14
REMARK SMILES IDX 17 15 14 16 18 17 16 18 15 19 19 20 21 21 20 22
REMARK H PARENT 11 2 18 23
ROOT
ATOM      1  N   UNL     1       5.234  46.382  52.214  1.00  0.00    -0.277 N 
ATOM      2  H   UNL     1       4.931  47.303  52.601  1.00  0.00     0.180 HD
ENDROOT
BRANCH   1   3
ATOM      3  S   UNL     1       4.010  45.155  52.107  1.00  0.00     0.272 S 
ATOM      4  O   UNL     1       3.194  45.382  50.866  1.00  0.00    -0.200 OA
ATOM      5  O   UNL     1       4.669  43.808  52.025  1.00  0.00    -0.200 OA
BRANCH   3   6
ATOM      6  C   UNL     1       2.947  45.243  53.505  1.00  0.00     0.158 A 
ATOM      7  N   UNL     1       5.794  45.255  55.653  1.00  0.00    -0.192 NA
ATOM      8  C   UNL     1       4.695  45.269  55.292  1.00  0.00     0.101 C 
ATOM      9  C   UNL     1       3.327  45.288  54.843  1.00  0.00     0.083 A 
ATOM     10  C   UNL     1       2.242  45.342  55.726  1.00  0.00     0.032 A 
ATOM     11  C   UNL     1       1.008  45.336  55.089  1.00  0.00     0.068 A 
ATOM     12  S   UNL     1       1.268  45.260  53.429  1.00  0.00    -0.129 S 
ENDBRANCH   3   6
ENDBRANCH   1   3
BRANCH   1  13
ATOM     13  C   UNL     1       6.612  46.175  51.851  1.00  0.00     0.073 A 
ATOM     14  C   UNL     1       6.979  45.472  50.679  1.00  0.00     0.029 A 
ATOM     15  C   UNL     1       7.650  46.676  52.656  1.00  0.00     0.069 A 
ATOM     16  C   UNL     1       8.335  45.283  50.349  1.00  0.00     0.003 A 
ATOM     17  N   UNL     1       7.521  47.395  53.873  1.00  0.00    -0.324 N 
ATOM     18  C   UNL     1       8.979  46.487  52.323  1.00  0.00    -0.013 A 
ATOM     19  C   UNL     1       9.346  45.792  51.174  1.00  0.00     0.006 A 
ATOM     20  C   UNL     1       8.858  47.651  54.290  1.00  0.00     0.228 C 
ATOM     21  C   UNL     1       9.881  47.101  53.345  1.00  0.00     0.138 C 
ATOM     22  O   UNL     1       9.135  48.274  55.347  1.00  0.00    -0.274 OA
ATOM     23  H   UNL     1       6.651  47.663  54.381  1.00  0.00     0.170 HD
ENDBRANCH   1  13
TORSDOF 3
ENDMDL
