ligand_89_conformer_4_docked
     RDKit          3D

 51 54  0  0  0  0  0  0  0  0999 V2000
    1.5280   44.2370   51.3990 O   0  0  0  0  0  0  0  0  0  0  0  0
    1.7970   43.5070   52.3910 C   0  0  0  0  0  0  0  0  0  0  0  0
    0.6710   42.9020   53.1800 C   0  0  0  0  0  0  0  0  0  0  0  0
   -0.2890   43.9800   53.7210 C   0  0  1  0  0  0  0  0  0  0  0  0
   -1.7180   43.4160   53.9870 C   0  0  0  0  0  0  0  0  0  0  0  0
   -2.5350   44.3020   54.9680 C   0  0  1  0  0  0  0  0  0  0  0  0
   -2.4320   43.7800   56.4080 C   0  0  0  0  0  0  0  0  0  0  0  0
   -1.2370   44.5250   56.9840 C   0  0  0  0  0  0  0  0  0  0  0  0
   -0.7590   45.4100   55.8260 C   0  0  1  0  0  0  0  0  0  0  0  0
    0.3180   44.6870   54.9670 C   0  0  0  0  0  0  0  0  0  0  0  0
   -1.9420   45.6380   54.9980 N   0  0  0  0  0  0  0  0  0  0  0  0
    3.1590   43.1910   52.7200 N   0  0  0  0  0  0  0  0  0  0  0  0
    4.3000   43.8100   52.1020 C   0  0  0  0  0  0  0  0  0  0  0  0
    4.6910   45.0920   52.5110 C   0  0  0  0  0  0  0  0  0  0  0  0
    5.7840   45.7250   51.9140 C   0  0  0  0  0  0  0  0  0  0  0  0
    6.4990   45.0880   50.8820 C   0  0  0  0  0  0  0  0  0  0  0  0
    7.6090   45.6850   50.2580 O   0  0  0  0  0  0  0  0  0  0  0  0
    8.9410   45.6960   50.7730 C   0  0  0  0  0  0  0  0  0  0  0  0
    9.0240   46.5320   52.0220 C   0  0  0  0  0  0  0  0  0  0  0  0
    9.8230   46.1220   53.0990 C   0  0  0  0  0  0  0  0  0  0  0  0
    9.9040   46.9090   54.2490 C   0  0  0  0  0  0  0  0  0  0  0  0
    9.1900   48.1080   54.3080 C   0  0  0  0  0  0  0  0  0  0  0  0
    8.4280   48.5000   53.2530 N   0  0  0  0  0  0  0  0  0  0  0  0
    8.3330   47.7500   52.1220 C   0  0  0  0  0  0  0  0  0  0  0  0
    6.0910   43.8160   50.4530 C   0  0  0  0  0  0  0  0  0  0  0  0
    6.9450   42.9990   49.1540 Cl  0  0  0  0  0  0  0  0  0  0  0  0
    4.9960   43.1850   51.0550 C   0  0  0  0  0  0  0  0  0  0  0  0
    0.1076   42.2168   52.5295 H   0  0  0  0  0  0  0  0  0  0  0  0
    1.1026   42.3652   54.0377 H   0  0  0  0  0  0  0  0  0  0  0  0
   -0.4104   44.7443   52.9393 H   0  0  0  0  0  0  0  0  0  0  0  0
   -2.2581   43.3585   53.0305 H   0  0  0  0  0  0  0  0  0  0  0  0
   -1.6049   42.4238   54.4482 H   0  0  0  0  0  0  0  0  0  0  0  0
   -3.5803   44.2982   54.6254 H   0  0  0  0  0  0  0  0  0  0  0  0
   -3.3466   44.0106   56.9740 H   0  0  0  0  0  0  0  0  0  0  0  0
   -2.3131   42.6875   56.4552 H   0  0  0  0  0  0  0  0  0  0  0  0
   -1.5370   45.1380   57.8467 H   0  0  0  0  0  0  0  0  0  0  0  0
   -0.4522   43.8474   57.3512 H   0  0  0  0  0  0  0  0  0  0  0  0
   -0.3095   46.3388   56.2072 H   0  0  0  0  0  0  0  0  0  0  0  0
    1.0548   45.4296   54.6270 H   0  0  0  0  0  0  0  0  0  0  0  0
    0.7833   43.9139   55.5961 H   0  0  0  0  0  0  0  0  0  0  0  0
   -2.5910   46.2850   55.5060 H   0  0  0  0  0  0  0  0  0  0  0  0
    3.3320   42.3980   53.3770 H   0  0  0  0  0  0  0  0  0  0  0  0
    4.1328   45.6041   53.3086 H   0  0  0  0  0  0  0  0  0  0  0  0
    6.0876   46.7267   52.2522 H   0  0  0  0  0  0  0  0  0  0  0  0
    9.2454   44.6654   51.0079 H   0  0  0  0  0  0  0  0  0  0  0  0
    9.6091   46.1288   50.0138 H   0  0  0  0  0  0  0  0  0  0  0  0
   10.3865   45.1793   53.0375 H   0  0  0  0  0  0  0  0  0  0  0  0
   10.5234   46.5884   55.0996 H   0  0  0  0  0  0  0  0  0  0  0  0
    9.2445   48.7359   55.2095 H   0  0  0  0  0  0  0  0  0  0  0  0
    7.7128   48.0990   51.2832 H   0  0  0  0  0  0  0  0  0  0  0  0
    4.6784   42.1917   50.7050 H   0  0  0  0  0  0  0  0  0  0  0  0
  1  2  2  0
  2  3  1  0
  3  4  1  0
  4  5  1  0
  5  6  1  0
  6  7  1  0
  7  8  1  0
  8  9  1  0
  9 10  1  0
  9 11  1  0
  2 12  1  0
 12 13  1  0
 13 14  2  0
 14 15  1  0
 15 16  2  0
 16 17  1  0
 17 18  1  0
 18 19  1  0
 19 20  2  0
 20 21  1  0
 21 22  2  0
 22 23  1  0
 23 24  2  0
 16 25  1  0
 25 26  1  0
 25 27  2  0
 10  4  1  0
 27 13  1  0
 11  6  1  0
 24 19  1  0
  3 28  1  0
  3 29  1  0
  4 30  1  6
  5 31  1  0
  5 32  1  0
  6 33  1  6
  7 34  1  0
  7 35  1  0
  8 36  1  0
  8 37  1  0
  9 38  1  1
 10 39  1  0
 10 40  1  0
 11 41  1  0
 12 42  1  0
 14 43  1  0
 15 44  1  0
 18 45  1  0
 18 46  1  0
 20 47  1  0
 21 48  1  0
 22 49  1  0
 24 50  1  0
 27 51  1  0
M  END
>  <meeko>  (1) 
{"is_sidechain": [false], "free_energy": -8.796, "intermolecular_energy": -11.881, "internal_energy": -0.392}

$$$$
ligand_89_conformer_4_docked
     RDKit          3D

 51 54  0  0  0  0  0  0  0  0999 V2000
    3.8160   46.5040   52.8720 O   0  0  0  0  0  0  0  0  0  0  0  0
    4.3360   45.3770   53.0930 C   0  0  0  0  0  0  0  0  0  0  0  0
    5.7310   45.1070   52.6070 C   0  0  0  0  0  0  0  0  0  0  0  0
    6.6010   46.3790   52.6370 C   0  0  1  0  0  0  0  0  0  0  0  0
    7.2990   46.5830   54.0150 C   0  0  0  0  0  0  0  0  0  0  0  0
    8.5300   47.5290   53.9260 C   0  0  1  0  0  0  0  0  0  0  0  0
    9.8330   46.7340   53.7680 C   0  0  0  0  0  0  0  0  0  0  0  0
   10.0140   46.6190   52.2620 C   0  0  0  0  0  0  0  0  0  0  0  0
    8.7990   47.3590   51.6850 C   0  0  1  0  0  0  0  0  0  0  0  0
    7.6060   46.3900   51.4480 C   0  0  0  0  0  0  0  0  0  0  0  0
    8.4170   48.3310   52.7080 N   0  0  0  0  0  0  0  0  0  0  0  0
    3.6360   44.3870   53.8650 N   0  0  0  0  0  0  0  0  0  0  0  0
    2.2620   44.5070   54.2700 C   0  0  0  0  0  0  0  0  0  0  0  0
    1.2480   44.1470   53.3720 C   0  0  0  0  0  0  0  0  0  0  0  0
   -0.0960   44.2700   53.7320 C   0  0  0  0  0  0  0  0  0  0  0  0
   -0.4500   44.7730   54.9990 C   0  0  0  0  0  0  0  0  0  0  0  0
   -1.7890   44.9090   55.4060 O   0  0  0  0  0  0  0  0  0  0  0  0
   -2.6840   43.8300   55.6800 C   0  0  0  0  0  0  0  0  0  0  0  0
   -3.1490   43.8700   57.1110 C   0  0  0  0  0  0  0  0  0  0  0  0
   -3.3440   42.6820   57.8280 C   0  0  0  0  0  0  0  0  0  0  0  0
   -3.7640   42.7290   59.1580 C   0  0  0  0  0  0  0  0  0  0  0  0
   -3.9760   43.9680   59.7650 C   0  0  0  0  0  0  0  0  0  0  0  0
   -3.7710   45.1140   59.0630 N   0  0  0  0  0  0  0  0  0  0  0  0
   -3.3630   45.0940   57.7650 C   0  0  0  0  0  0  0  0  0  0  0  0
    0.5650   45.1590   55.8880 C   0  0  0  0  0  0  0  0  0  0  0  0
    0.1620   45.8110   57.4690 Cl  0  0  0  0  0  0  0  0  0  0  0  0
    1.9100   45.0330   55.5240 C   0  0  0  0  0  0  0  0  0  0  0  0
    6.1920   44.3445   53.2520 H   0  0  0  0  0  0  0  0  0  0  0  0
    5.6699   44.7577   51.5657 H   0  0  0  0  0  0  0  0  0  0  0  0
    5.9345   47.2448   52.5095 H   0  0  0  0  0  0  0  0  0  0  0  0
    6.5719   47.0158   54.7179 H   0  0  0  0  0  0  0  0  0  0  0  0
    7.6571   45.6006   54.3565 H   0  0  0  0  0  0  0  0  0  0  0  0
    8.5507   48.1336   54.8447 H   0  0  0  0  0  0  0  0  0  0  0  0
   10.6772   47.2726   54.2232 H   0  0  0  0  0  0  0  0  0  0  0  0
    9.7937   45.7538   54.2656 H   0  0  0  0  0  0  0  0  0  0  0  0
   10.9514   47.0981   51.9430 H   0  0  0  0  0  0  0  0  0  0  0  0
   10.0752   45.5749   51.9212 H   0  0  0  0  0  0  0  0  0  0  0  0
    9.0473   47.8203   50.7177 H   0  0  0  0  0  0  0  0  0  0  0  0
    7.0727   46.7031   50.5383 H   0  0  0  0  0  0  0  0  0  0  0  0
    8.0157   45.3741   51.3475 H   0  0  0  0  0  0  0  0  0  0  0  0
    9.1360   49.0920   52.7370 H   0  0  0  0  0  0  0  0  0  0  0  0
    4.1850   43.5790   54.2360 H   0  0  0  0  0  0  0  0  0  0  0  0
    1.5128   43.7644   52.3753 H   0  0  0  0  0  0  0  0  0  0  0  0
   -0.8820   43.9725   53.0223 H   0  0  0  0  0  0  0  0  0  0  0  0
   -3.5568   43.9080   55.0151 H   0  0  0  0  0  0  0  0  0  0  0  0
   -2.1546   42.8812   55.5082 H   0  0  0  0  0  0  0  0  0  0  0  0
   -3.1658   41.7114   57.3420 H   0  0  0  0  0  0  0  0  0  0  0  0
   -3.9264   41.7989   59.7224 H   0  0  0  0  0  0  0  0  0  0  0  0
   -4.3092   44.0171   60.8122 H   0  0  0  0  0  0  0  0  0  0  0  0
   -3.2004   46.0393   57.2266 H   0  0  0  0  0  0  0  0  0  0  0  0
    2.6973   45.3480   56.2247 H   0  0  0  0  0  0  0  0  0  0  0  0
  1  2  2  0
  2  3  1  0
  3  4  1  0
  4  5  1  0
  5  6  1  0
  6  7  1  0
  7  8  1  0
  8  9  1  0
  9 10  1  0
  9 11  1  0
  2 12  1  0
 12 13  1  0
 13 14  2  0
 14 15  1  0
 15 16  2  0
 16 17  1  0
 17 18  1  0
 18 19  1  0
 19 20  2  0
 20 21  1  0
 21 22  2  0
 22 23  1  0
 23 24  2  0
 16 25  1  0
 25 26  1  0
 25 27  2  0
 10  4  1  0
 27 13  1  0
 11  6  1  0
 24 19  1  0
  3 28  1  0
  3 29  1  0
  4 30  1  6
  5 31  1  0
  5 32  1  0
  6 33  1  1
  7 34  1  0
  7 35  1  0
  8 36  1  0
  8 37  1  0
  9 38  1  6
 10 39  1  0
 10 40  1  0
 11 41  1  0
 12 42  1  0
 14 43  1  0
 15 44  1  0
 18 45  1  0
 18 46  1  0
 20 47  1  0
 21 48  1  0
 22 49  1  0
 24 50  1  0
 27 51  1  0
M  END
>  <meeko>  (2) 
{"is_sidechain": [false], "free_energy": -8.528, "intermolecular_energy": -11.109, "internal_energy": -0.803}

$$$$
ligand_89_conformer_4_docked
     RDKit          3D

 51 54  0  0  0  0  0  0  0  0999 V2000
    3.8490   45.6580   50.9940 O   0  0  0  0  0  0  0  0  0  0  0  0
    4.6080   44.8080   51.5340 C   0  0  0  0  0  0  0  0  0  0  0  0
    6.0860   44.8810   51.2810 C   0  0  0  0  0  0  0  0  0  0  0  0
    6.6960   46.1830   51.8380 C   0  0  1  0  0  0  0  0  0  0  0  0
    6.9050   46.1220   53.3810 C   0  0  0  0  0  0  0  0  0  0  0  0
    7.9410   47.1660   53.8840 C   0  0  1  0  0  0  0  0  0  0  0  0
    9.3390   46.5460   54.0140 C   0  0  0  0  0  0  0  0  0  0  0  0
    9.9810   46.8000   52.6580 C   0  0  0  0  0  0  0  0  0  0  0  0
    8.8960   47.5440   51.8680 C   0  0  1  0  0  0  0  0  0  0  0  0
    7.9970   46.5570   51.0710 C   0  0  0  0  0  0  0  0  0  0  0  0
    8.0760   48.2150   52.8740 N   0  0  0  0  0  0  0  0  0  0  0  0
    4.0790   43.8270   52.4420 N   0  0  0  0  0  0  0  0  0  0  0  0
    2.6750   43.6040   52.6560 C   0  0  0  0  0  0  0  0  0  0  0  0
    1.9430   42.8810   51.7050 C   0  0  0  0  0  0  0  0  0  0  0  0
    0.5730   42.6650   51.8780 C   0  0  0  0  0  0  0  0  0  0  0  0
   -0.0930   43.1840   53.0050 C   0  0  0  0  0  0  0  0  0  0  0  0
   -1.4670   42.9860   53.2230 O   0  0  0  0  0  0  0  0  0  0  0  0
   -2.4990   43.2140   52.2620 C   0  0  0  0  0  0  0  0  0  0  0  0
   -2.9170   44.6600   52.2580 C   0  0  0  0  0  0  0  0  0  0  0  0
   -3.5210   45.2280   53.3890 C   0  0  0  0  0  0  0  0  0  0  0  0
   -3.8950   46.5730   53.3810 C   0  0  0  0  0  0  0  0  0  0  0  0
   -3.6510   47.3430   52.2420 C   0  0  0  0  0  0  0  0  0  0  0  0
   -3.0530   46.7840   51.1570 N   0  0  0  0  0  0  0  0  0  0  0  0
   -2.6810   45.4760   51.1400 C   0  0  0  0  0  0  0  0  0  0  0  0
    0.6350   43.9320   53.9430 C   0  0  0  0  0  0  0  0  0  0  0  0
   -0.1650   44.6150   55.3500 Cl  0  0  0  0  0  0  0  0  0  0  0  0
    2.0070   44.1450   53.7660 C   0  0  0  0  0  0  0  0  0  0  0  0
    6.5736   44.0227   51.7663 H   0  0  0  0  0  0  0  0  0  0  0  0
    6.2491   44.8637   50.1933 H   0  0  0  0  0  0  0  0  0  0  0  0
    5.9720   46.9932   51.6667 H   0  0  0  0  0  0  0  0  0  0  0  0
    5.9414   46.3151   53.8752 H   0  0  0  0  0  0  0  0  0  0  0  0
    7.2926   45.1222   53.6261 H   0  0  0  0  0  0  0  0  0  0  0  0
    7.5888   47.5408   54.8564 H   0  0  0  0  0  0  0  0  0  0  0  0
    9.9112   47.0360   54.8156 H   0  0  0  0  0  0  0  0  0  0  0  0
    9.3062   45.4776   54.2738 H   0  0  0  0  0  0  0  0  0  0  0  0
   10.8834   47.4203   52.7625 H   0  0  0  0  0  0  0  0  0  0  0  0
   10.3054   45.8730   52.1625 H   0  0  0  0  0  0  0  0  0  0  0  0
    9.3494   48.2365   51.1436 H   0  0  0  0  0  0  0  0  0  0  0  0
    7.7204   47.0254   50.1149 H   0  0  0  0  0  0  0  0  0  0  0  0
    8.5717   45.6317   50.9171 H   0  0  0  0  0  0  0  0  0  0  0  0
    8.6250   49.0100   53.2830 H   0  0  0  0  0  0  0  0  0  0  0  0
    4.7530   43.3140   53.0530 H   0  0  0  0  0  0  0  0  0  0  0  0
    2.4505   42.4802   50.8152 H   0  0  0  0  0  0  0  0  0  0  0  0
    0.0118   42.0863   51.1295 H   0  0  0  0  0  0  0  0  0  0  0  0
   -2.1272   42.9435   51.2627 H   0  0  0  0  0  0  0  0  0  0  0  0
   -3.3698   42.5964   52.5272 H   0  0  0  0  0  0  0  0  0  0  0  0
   -3.7003   44.6132   54.2833 H   0  0  0  0  0  0  0  0  0  0  0  0
   -4.3767   47.0213   54.2625 H   0  0  0  0  0  0  0  0  0  0  0  0
   -3.9431   48.4033   52.2228 H   0  0  0  0  0  0  0  0  0  0  0  0
   -2.1938   45.0560   50.2477 H   0  0  0  0  0  0  0  0  0  0  0  0
    2.5662   44.7409   54.5023 H   0  0  0  0  0  0  0  0  0  0  0  0
  1  2  2  0
  2  3  1  0
  3  4  1  0
  4  5  1  0
  5  6  1  0
  6  7  1  0
  7  8  1  0
  8  9  1  0
  9 10  1  0
  9 11  1  0
  2 12  1  0
 12 13  1  0
 13 14  2  0
 14 15  1  0
 15 16  2  0
 16 17  1  0
 17 18  1  0
 18 19  1  0
 19 20  2  0
 20 21  1  0
 21 22  2  0
 22 23  1  0
 23 24  2  0
 16 25  1  0
 25 26  1  0
 25 27  2  0
 10  4  1  0
 27 13  1  0
 11  6  1  0
 24 19  1  0
  3 28  1  0
  3 29  1  0
  4 30  1  1
  5 31  1  0
  5 32  1  0
  6 33  1  1
  7 34  1  0
  7 35  1  0
  8 36  1  0
  8 37  1  0
  9 38  1  6
 10 39  1  0
 10 40  1  0
 11 41  1  0
 12 42  1  0
 14 43  1  0
 15 44  1  0
 18 45  1  0
 18 46  1  0
 20 47  1  0
 21 48  1  0
 22 49  1  0
 24 50  1  0
 27 51  1  0
M  END
>  <meeko>  (3) 
{"is_sidechain": [false], "free_energy": -8.488, "intermolecular_energy": -10.884, "internal_energy": -0.974}

$$$$
ligand_89_conformer_4_docked
     RDKit          3D

 51 54  0  0  0  0  0  0  0  0999 V2000
    3.7560   46.6750   53.2680 O   0  0  0  0  0  0  0  0  0  0  0  0
    4.2820   45.5410   53.4350 C   0  0  0  0  0  0  0  0  0  0  0  0
    5.6300   45.2640   52.8340 C   0  0  0  0  0  0  0  0  0  0  0  0
    6.5230   46.5200   52.8330 C   0  0  1  0  0  0  0  0  0  0  0  0
    7.2730   46.7110   54.1860 C   0  0  0  0  0  0  0  0  0  0  0  0
    8.5160   47.6340   54.0530 C   0  0  1  0  0  0  0  0  0  0  0  0
    9.7990   46.8160   53.8490 C   0  0  0  0  0  0  0  0  0  0  0  0
    9.9240   46.7000   52.3370 C   0  0  0  0  0  0  0  0  0  0  0  0
    8.7030   47.4620   51.8050 C   0  0  1  0  0  0  0  0  0  0  0  0
    7.4850   46.5150   51.6100 C   0  0  0  0  0  0  0  0  0  0  0  0
    8.3740   48.4390   52.8410 N   0  0  0  0  0  0  0  0  0  0  0  0
    3.6390   44.5500   54.2530 N   0  0  0  0  0  0  0  0  0  0  0  0
    2.3040   44.6770   54.7710 C   0  0  0  0  0  0  0  0  0  0  0  0
    2.1050   45.2950   56.0120 C   0  0  0  0  0  0  0  0  0  0  0  0
    0.8210   45.4150   56.5480 C   0  0  0  0  0  0  0  0  0  0  0  0
   -0.2910   44.9020   55.8530 C   0  0  0  0  0  0  0  0  0  0  0  0
   -1.6020   45.0060   56.3500 O   0  0  0  0  0  0  0  0  0  0  0  0
   -2.3730   46.2070   56.4090 C   0  0  0  0  0  0  0  0  0  0  0  0
   -2.3330   46.8010   57.7920 C   0  0  0  0  0  0  0  0  0  0  0  0
   -1.3930   47.7890   58.1130 C   0  0  0  0  0  0  0  0  0  0  0  0
   -1.3710   48.3430   59.3940 C   0  0  0  0  0  0  0  0  0  0  0  0
   -2.2990   47.9080   60.3430 C   0  0  0  0  0  0  0  0  0  0  0  0
   -3.2130   46.9580   60.0150 N   0  0  0  0  0  0  0  0  0  0  0  0
   -3.2540   46.4030   58.7740 C   0  0  0  0  0  0  0  0  0  0  0  0
   -0.0890   44.2580   54.6220 C   0  0  0  0  0  0  0  0  0  0  0  0
   -1.4490   43.5870   53.7360 Cl  0  0  0  0  0  0  0  0  0  0  0  0
    1.1990   44.1420   54.0890 C   0  0  0  0  0  0  0  0  0  0  0  0
    6.1255   44.4748   53.4186 H   0  0  0  0  0  0  0  0  0  0  0  0
    5.4818   44.9480   51.7908 H   0  0  0  0  0  0  0  0  0  0  0  0
    5.8674   47.3971   52.7287 H   0  0  0  0  0  0  0  0  0  0  0  0
    6.5791   47.1566   54.9140 H   0  0  0  0  0  0  0  0  0  0  0  0
    7.6250   45.7222   54.5152 H   0  0  0  0  0  0  0  0  0  0  0  0
    8.5802   48.2373   54.9706 H   0  0  0  0  0  0  0  0  0  0  0  0
   10.6682   47.3391   54.2744 H   0  0  0  0  0  0  0  0  0  0  0  0
    9.7605   45.8361   54.3474 H   0  0  0  0  0  0  0  0  0  0  0  0
   10.8578   47.1628   51.9850 H   0  0  0  0  0  0  0  0  0  0  0  0
    9.9545   45.6555   51.9932 H   0  0  0  0  0  0  0  0  0  0  0  0
    8.9258   47.9201   50.8301 H   0  0  0  0  0  0  0  0  0  0  0  0
    6.9255   46.8389   50.7200 H   0  0  0  0  0  0  0  0  0  0  0  0
    7.8727   45.4921   51.4946 H   0  0  0  0  0  0  0  0  0  0  0  0
    9.1080   49.1880   52.8450 H   0  0  0  0  0  0  0  0  0  0  0  0
    4.2090   43.7330   54.5690 H   0  0  0  0  0  0  0  0  0  0  0  0
    2.9675   45.6893   56.5693 H   0  0  0  0  0  0  0  0  0  0  0  0
    0.6776   45.9129   57.5183 H   0  0  0  0  0  0  0  0  0  0  0  0
   -1.9634   46.9340   55.6923 H   0  0  0  0  0  0  0  0  0  0  0  0
   -3.4170   45.9683   56.1580 H   0  0  0  0  0  0  0  0  0  0  0  0
   -0.6718   48.1284   57.3550 H   0  0  0  0  0  0  0  0  0  0  0  0
   -0.6306   49.1141   59.6534 H   0  0  0  0  0  0  0  0  0  0  0  0
   -2.2897   48.3350   61.3567 H   0  0  0  0  0  0  0  0  0  0  0  0
   -4.0109   45.6402   58.5391 H   0  0  0  0  0  0  0  0  0  0  0  0
    1.3476   43.6277   53.1281 H   0  0  0  0  0  0  0  0  0  0  0  0
  1  2  2  0
  2  3  1  0
  3  4  1  0
  4  5  1  0
  5  6  1  0
  6  7  1  0
  7  8  1  0
  8  9  1  0
  9 10  1  0
  9 11  1  0
  2 12  1  0
 12 13  1  0
 13 14  2  0
 14 15  1  0
 15 16  2  0
 16 17  1  0
 17 18  1  0
 18 19  1  0
 19 20  2  0
 20 21  1  0
 21 22  2  0
 22 23  1  0
 23 24  2  0
 16 25  1  0
 25 26  1  0
 25 27  2  0
 10  4  1  0
 27 13  1  0
 11  6  1  0
 24 19  1  0
  3 28  1  0
  3 29  1  0
  4 30  1  6
  5 31  1  0
  5 32  1  0
  6 33  1  1
  7 34  1  0
  7 35  1  0
  8 36  1  0
  8 37  1  0
  9 38  1  6
 10 39  1  0
 10 40  1  0
 11 41  1  0
 12 42  1  0
 14 43  1  0
 15 44  1  0
 18 45  1  0
 18 46  1  0
 20 47  1  0
 21 48  1  0
 22 49  1  0
 24 50  1  0
 27 51  1  0
M  END
>  <meeko>  (4) 
{"is_sidechain": [false], "free_energy": -8.484, "intermolecular_energy": -11.058, "internal_energy": -0.793}

$$$$
ligand_89_conformer_4_docked
     RDKit          3D

 51 54  0  0  0  0  0  0  0  0999 V2000
    3.8300   45.8100   52.5190 O   0  0  0  0  0  0  0  0  0  0  0  0
    4.3620   45.0460   53.3710 C   0  0  0  0  0  0  0  0  0  0  0  0
    5.8590   44.9500   53.4320 C   0  0  0  0  0  0  0  0  0  0  0  0
    6.5320   46.2960   53.0990 C   0  0  1  0  0  0  0  0  0  0  0  0
    7.4630   46.7890   54.2470 C   0  0  0  0  0  0  0  0  0  0  0  0
    8.5060   47.8350   53.7600 C   0  0  1  0  0  0  0  0  0  0  0  0
    9.8460   47.1680   53.4210 C   0  0  0  0  0  0  0  0  0  0  0  0
    9.7280   46.8360   51.9410 C   0  0  0  0  0  0  0  0  0  0  0  0
    8.3300   47.3410   51.5590 C   0  0  1  0  0  0  0  0  0  0  0  0
    7.2590   46.2250   51.7250 C   0  0  0  0  0  0  0  0  0  0  0  0
    8.0350   48.4160   52.5040 N   0  0  0  0  0  0  0  0  0  0  0  0
    3.5520   44.3350   54.3210 N   0  0  0  0  0  0  0  0  0  0  0  0
    2.1170   44.2720   54.2680 C   0  0  0  0  0  0  0  0  0  0  0  0
    1.3620   45.1160   55.0920 C   0  0  0  0  0  0  0  0  0  0  0  0
   -0.0340   45.0620   55.0750 C   0  0  0  0  0  0  0  0  0  0  0  0
   -0.7010   44.1470   54.2380 C   0  0  0  0  0  0  0  0  0  0  0  0
   -2.1030   44.0620   54.1830 O   0  0  0  0  0  0  0  0  0  0  0  0
   -2.9910   45.1630   53.9830 C   0  0  0  0  0  0  0  0  0  0  0  0
   -3.1300   45.4790   52.5170 C   0  0  0  0  0  0  0  0  0  0  0  0
   -3.2790   44.4480   51.5800 C   0  0  0  0  0  0  0  0  0  0  0  0
   -3.4180   44.7500   50.2240 C   0  0  0  0  0  0  0  0  0  0  0  0
   -3.4160   46.0860   49.8180 C   0  0  0  0  0  0  0  0  0  0  0  0
   -3.2820   47.0770   50.7390 N   0  0  0  0  0  0  0  0  0  0  0  0
   -3.1440   46.8080   52.0650 C   0  0  0  0  0  0  0  0  0  0  0  0
    0.0560   43.2820   53.4320 C   0  0  0  0  0  0  0  0  0  0  0  0
   -0.7390   42.1120   52.3910 Cl  0  0  0  0  0  0  0  0  0  0  0  0
    1.4540   43.3410   53.4520 C   0  0  0  0  0  0  0  0  0  0  0  0
    6.1553   44.6449   54.4464 H   0  0  0  0  0  0  0  0  0  0  0  0
    6.1853   44.2104   52.6860 H   0  0  0  0  0  0  0  0  0  0  0  0
    5.7408   47.0551   53.0110 H   0  0  0  0  0  0  0  0  0  0  0  0
    6.8432   47.2477   55.0315 H   0  0  0  0  0  0  0  0  0  0  0  0
    8.0160   45.9172   54.6267 H   0  0  0  0  0  0  0  0  0  0  0  0
    8.6312   48.5772   54.5621 H   0  0  0  0  0  0  0  0  0  0  0  0
   10.6831   47.8585   53.6013 H   0  0  0  0  0  0  0  0  0  0  0  0
   10.0455   46.2804   54.0394 H   0  0  0  0  0  0  0  0  0  0  0  0
   10.5041   47.3561   51.3603 H   0  0  0  0  0  0  0  0  0  0  0  0
    9.8624   45.7638   51.7350 H   0  0  0  0  0  0  0  0  0  0  0  0
    8.3084   47.6668   50.5086 H   0  0  0  0  0  0  0  0  0  0  0  0
    6.5118   46.3313   50.9247 H   0  0  0  0  0  0  0  0  0  0  0  0
    7.7755   45.2554   51.6700 H   0  0  0  0  0  0  0  0  0  0  0  0
    8.6330   49.2450   52.2700 H   0  0  0  0  0  0  0  0  0  0  0  0
    4.0280   43.9210   55.1540 H   0  0  0  0  0  0  0  0  0  0  0  0
    1.8723   45.8273   55.7581 H   0  0  0  0  0  0  0  0  0  0  0  0
   -0.6153   45.7381   55.7191 H   0  0  0  0  0  0  0  0  0  0  0  0
   -3.9797   44.9078   54.3921 H   0  0  0  0  0  0  0  0  0  0  0  0
   -2.5801   46.0449   54.4962 H   0  0  0  0  0  0  0  0  0  0  0  0
   -3.2865   43.3997   51.9130 H   0  0  0  0  0  0  0  0  0  0  0  0
   -3.5279   43.9441   49.4834 H   0  0  0  0  0  0  0  0  0  0  0  0
   -3.5229   46.3368   48.7523 H   0  0  0  0  0  0  0  0  0  0  0  0
   -3.0431   47.6336   52.7849 H   0  0  0  0  0  0  0  0  0  0  0  0
    2.0382   42.6527   52.8236 H   0  0  0  0  0  0  0  0  0  0  0  0
  1  2  2  0
  2  3  1  0
  3  4  1  0
  4  5  1  0
  5  6  1  0
  6  7  1  0
  7  8  1  0
  8  9  1  0
  9 10  1  0
  9 11  1  0
  2 12  1  0
 12 13  1  0
 13 14  2  0
 14 15  1  0
 15 16  2  0
 16 17  1  0
 17 18  1  0
 18 19  1  0
 19 20  2  0
 20 21  1  0
 21 22  2  0
 22 23  1  0
 23 24  2  0
 16 25  1  0
 25 26  1  0
 25 27  2  0
 10  4  1  0
 27 13  1  0
 11  6  1  0
 24 19  1  0
  3 28  1  0
  3 29  1  0
  4 30  1  6
  5 31  1  0
  5 32  1  0
  6 33  1  1
  7 34  1  0
  7 35  1  0
  8 36  1  0
  8 37  1  0
  9 38  1  6
 10 39  1  0
 10 40  1  0
 11 41  1  0
 12 42  1  0
 14 43  1  0
 15 44  1  0
 18 45  1  0
 18 46  1  0
 20 47  1  0
 21 48  1  0
 22 49  1  0
 24 50  1  0
 27 51  1  0
M  END
>  <meeko>  (5) 
{"is_sidechain": [false], "free_energy": -8.437, "intermolecular_energy": -10.838, "internal_energy": -0.949}

$$$$
