ligand_27_conformer_2_docked
     RDKit          3D

 46 47  0  0  0  0  0  0  0  0999 V2000
   -1.5860   43.2020   50.2650 C   0  0  0  0  0  0  0  0  0  0  0  0
   -2.1320   42.5020   51.4990 C   0  0  0  0  0  0  0  0  0  0  0  0
   -1.7090   43.1980   52.6660 O   0  0  0  0  0  0  0  0  0  0  0  0
   -0.4870   42.9430   53.2960 C   0  0  0  0  0  0  0  0  0  0  0  0
   -0.2140   41.7820   53.7050 O   0  0  0  0  0  0  0  0  0  0  0  0
    0.4700   44.0500   53.4820 C   0  0  0  0  0  0  0  0  0  0  0  0
    1.3770   44.4590   52.5210 C   0  0  0  0  0  0  0  0  0  0  0  0
    2.0400   45.5410   53.0590 C   0  0  0  0  0  0  0  0  0  0  0  0
    3.2640   46.5050   52.2500 S   0  0  0  0  0  0  0  0  0  0  0  0
    3.0970   46.4170   50.7590 O   0  0  0  0  0  0  0  0  0  0  0  0
    3.0850   47.9400   52.6620 O   0  0  0  0  0  0  0  0  0  0  0  0
    4.8570   45.9830   52.7090 N   0  0  0  0  0  0  0  0  0  0  0  0
    5.8490   45.5230   51.7670 C   0  0  0  0  0  0  0  0  0  0  0  0
    5.6320   44.3300   51.0500 C   0  0  0  0  0  0  0  0  0  0  0  0
    6.5730   43.8590   50.1360 C   0  0  0  0  0  0  0  0  0  0  0  0
    7.7450   44.5740   49.9090 C   0  0  0  0  0  0  0  0  0  0  0  0
    8.6610   44.1100   49.0240 F   0  0  0  0  0  0  0  0  0  0  0  0
    7.9740   45.7680   50.5900 C   0  0  0  0  0  0  0  0  0  0  0  0
    7.0370   46.2660   51.5130 C   0  0  0  0  0  0  0  0  0  0  0  0
    7.3930   47.5390   52.2500 C   0  0  0  0  0  0  0  0  0  0  0  0
    8.2340   47.1760   53.7840 S   0  0  0  0  0  0  0  0  0  0  0  0
    9.6560   46.1500   53.5010 C   0  0  0  0  0  0  0  0  0  0  0  0
    7.2860   46.4610   54.7040 O   0  0  0  0  0  0  0  0  0  0  0  0
    8.6720   48.4600   54.4320 O   0  0  0  0  0  0  0  0  0  0  0  0
    1.5370   45.7480   54.3260 C   0  0  0  0  0  0  0  0  0  0  0  0
    0.5770   44.8370   54.5820 N   0  0  0  0  0  0  0  0  0  0  0  0
   -0.1990   44.7590   55.8180 C   0  0  0  0  0  0  0  0  0  0  0  0
   -0.9365   44.0347   50.5730 H   0  0  0  0  0  0  0  0  0  0  0  0
   -1.0050   42.4865   49.6645 H   0  0  0  0  0  0  0  0  0  0  0  0
   -2.4214   43.5913   49.6645 H   0  0  0  0  0  0  0  0  0  0  0  0
   -3.2312   42.4901   51.4575 H   0  0  0  0  0  0  0  0  0  0  0  0
   -1.7548   41.4692   51.5314 H   0  0  0  0  0  0  0  0  0  0  0  0
    1.5367   44.0116   51.5289 H   0  0  0  0  0  0  0  0  0  0  0  0
    5.0570   45.9920   53.7290 H   0  0  0  0  0  0  0  0  0  0  0  0
    4.7050   43.7610   51.2141 H   0  0  0  0  0  0  0  0  0  0  0  0
    6.3888   42.9202   49.5931 H   0  0  0  0  0  0  0  0  0  0  0  0
    8.9013   46.3293   50.4029 H   0  0  0  0  0  0  0  0  0  0  0  0
    8.0508   48.1505   51.6149 H   0  0  0  0  0  0  0  0  0  0  0  0
    6.4647   48.0829   52.4791 H   0  0  0  0  0  0  0  0  0  0  0  0
   10.0835   45.8415   54.4664 H   0  0  0  0  0  0  0  0  0  0  0  0
    9.3570   45.2582   52.9307 H   0  0  0  0  0  0  0  0  0  0  0  0
   10.4081   46.7149   52.9307 H   0  0  0  0  0  0  0  0  0  0  0  0
    1.8678   46.5345   55.0202 H   0  0  0  0  0  0  0  0  0  0  0  0
    0.4790   44.8272   56.6815 H   0  0  0  0  0  0  0  0  0  0  0  0
   -0.9199   45.5892   55.8514 H   0  0  0  0  0  0  0  0  0  0  0  0
   -0.7402   43.8019   55.8514 H   0  0  0  0  0  0  0  0  0  0  0  0
  1  2  1  0
  2  3  1  0
  3  4  1  0
  4  5  2  0
  4  6  1  0
  6  7  2  0
  7  8  1  0
  8  9  1  0
  9 10  2  0
  9 11  2  0
  9 12  1  0
 12 13  1  0
 13 14  2  0
 14 15  1  0
 15 16  2  0
 16 17  1  0
 16 18  1  0
 18 19  2  0
 19 20  1  0
 20 21  1  0
 21 22  1  0
 21 23  2  0
 21 24  2  0
  8 25  2  0
 25 26  1  0
 26 27  1  0
 26  6  1  0
 19 13  1  0
  1 28  1  0
  1 29  1  0
  1 30  1  0
  2 31  1  0
  2 32  1  0
  7 33  1  0
 12 34  1  0
 14 35  1  0
 15 36  1  0
 18 37  1  0
 20 38  1  0
 20 39  1  0
 22 40  1  0
 22 41  1  0
 22 42  1  0
 25 43  1  0
 27 44  1  0
 27 45  1  0
 27 46  1  0
M  END
>  <meeko>  (1) 
{"is_sidechain": [false], "free_energy": -8.043, "intermolecular_energy": -11.804, "internal_energy": -0.97}

$$$$
ligand_27_conformer_2_docked
     RDKit          3D

 46 47  0  0  0  0  0  0  0  0999 V2000
   -1.3230   44.4360   56.6580 C   0  0  0  0  0  0  0  0  0  0  0  0
   -1.7910   44.6630   55.2290 C   0  0  0  0  0  0  0  0  0  0  0  0
   -1.6680   43.4520   54.4910 O   0  0  0  0  0  0  0  0  0  0  0  0
   -0.4490   43.0090   53.9670 C   0  0  0  0  0  0  0  0  0  0  0  0
   -0.2390   41.7770   53.8060 O   0  0  0  0  0  0  0  0  0  0  0  0
    0.5860   44.0010   53.6180 C   0  0  0  0  0  0  0  0  0  0  0  0
    1.7570   44.1810   54.3320 C   0  0  0  0  0  0  0  0  0  0  0  0
    2.4680   45.1520   53.6580 C   0  0  0  0  0  0  0  0  0  0  0  0
    4.0680   45.7360   54.0820 S   0  0  0  0  0  0  0  0  0  0  0  0
    3.9940   46.6390   55.2820 O   0  0  0  0  0  0  0  0  0  0  0  0
    4.9260   44.5530   54.4340 O   0  0  0  0  0  0  0  0  0  0  0  0
    4.7890   46.5750   52.7410 N   0  0  0  0  0  0  0  0  0  0  0  0
    5.7380   45.9720   51.8390 C   0  0  0  0  0  0  0  0  0  0  0  0
    5.3870   44.8060   51.1320 C   0  0  0  0  0  0  0  0  0  0  0  0
    6.2850   44.1990   50.2550 C   0  0  0  0  0  0  0  0  0  0  0  0
    7.5470   44.7500   50.0550 C   0  0  0  0  0  0  0  0  0  0  0  0
    8.4200   44.1530   49.2070 F   0  0  0  0  0  0  0  0  0  0  0  0
    7.9120   45.9150   50.7270 C   0  0  0  0  0  0  0  0  0  0  0  0
    7.0220   46.5480   51.6130 C   0  0  0  0  0  0  0  0  0  0  0  0
    7.5200   47.7760   52.3430 C   0  0  0  0  0  0  0  0  0  0  0  0
    8.3760   47.3230   53.8440 S   0  0  0  0  0  0  0  0  0  0  0  0
    9.8400   46.3840   53.4810 C   0  0  0  0  0  0  0  0  0  0  0  0
    7.4600   46.4960   54.6990 O   0  0  0  0  0  0  0  0  0  0  0  0
    8.7610   48.5670   54.5960 O   0  0  0  0  0  0  0  0  0  0  0  0
    1.7110   45.5440   52.5750 C   0  0  0  0  0  0  0  0  0  0  0  0
    0.5620   44.8390   52.5520 N   0  0  0  0  0  0  0  0  0  0  0  0
   -0.4800   44.9650   51.5350 C   0  0  0  0  0  0  0  0  0  0  0  0
   -2.0870   44.8066   57.3573 H   0  0  0  0  0  0  0  0  0  0  0  0
   -1.1637   43.3605   56.8252 H   0  0  0  0  0  0  0  0  0  0  0  0
   -0.3798   44.9767   56.8252 H   0  0  0  0  0  0  0  0  0  0  0  0
   -2.8432   44.9837   55.2344 H   0  0  0  0  0  0  0  0  0  0  0  0
   -1.1723   45.4424   54.7602 H   0  0  0  0  0  0  0  0  0  0  0  0
    2.0596   43.6565   55.2504 H   0  0  0  0  0  0  0  0  0  0  0  0
    4.5130   47.5720   52.6360 H   0  0  0  0  0  0  0  0  0  0  0  0
    4.3884   44.3670   51.2738 H   0  0  0  0  0  0  0  0  0  0  0  0
    5.9952   43.2826   49.7201 H   0  0  0  0  0  0  0  0  0  0  0  0
    8.9107   46.3457   50.5621 H   0  0  0  0  0  0  0  0  0  0  0  0
    8.2095   48.3291   51.6883 H   0  0  0  0  0  0  0  0  0  0  0  0
    6.6551   48.4022   52.6073 H   0  0  0  0  0  0  0  0  0  0  0  0
   10.3205   46.0758   54.4213 H   0  0  0  0  0  0  0  0  0  0  0  0
    9.5681   45.4914   52.8985 H   0  0  0  0  0  0  0  0  0  0  0  0
   10.5378   47.0034   52.8985 H   0  0  0  0  0  0  0  0  0  0  0  0
    1.9995   46.3127   51.8430 H   0  0  0  0  0  0  0  0  0  0  0  0
   -1.4579   45.0832   52.0247 H   0  0  0  0  0  0  0  0  0  0  0  0
   -0.2754   45.8449   50.9074 H   0  0  0  0  0  0  0  0  0  0  0  0
   -0.4910   44.0616   50.9074 H   0  0  0  0  0  0  0  0  0  0  0  0
  1  2  1  0
  2  3  1  0
  3  4  1  0
  4  5  2  0
  4  6  1  0
  6  7  2  0
  7  8  1  0
  8  9  1  0
  9 10  2  0
  9 11  2  0
  9 12  1  0
 12 13  1  0
 13 14  2  0
 14 15  1  0
 15 16  2  0
 16 17  1  0
 16 18  1  0
 18 19  2  0
 19 20  1  0
 20 21  1  0
 21 22  1  0
 21 23  2  0
 21 24  2  0
  8 25  2  0
 25 26  1  0
 26 27  1  0
 26  6  1  0
 19 13  1  0
  1 28  1  0
  1 29  1  0
  1 30  1  0
  2 31  1  0
  2 32  1  0
  7 33  1  0
 12 34  1  0
 14 35  1  0
 15 36  1  0
 18 37  1  0
 20 38  1  0
 20 39  1  0
 22 40  1  0
 22 41  1  0
 22 42  1  0
 25 43  1  0
 27 44  1  0
 27 45  1  0
 27 46  1  0
M  END
>  <meeko>  (2) 
{"is_sidechain": [false], "free_energy": -7.929, "intermolecular_energy": -11.583, "internal_energy": -1.024}

$$$$
ligand_27_conformer_2_docked
     RDKit          3D

 46 47  0  0  0  0  0  0  0  0999 V2000
    9.8480   46.8860   53.2970 C   0  0  0  0  0  0  0  0  0  0  0  0
    9.8550   46.4380   51.8440 C   0  0  0  0  0  0  0  0  0  0  0  0
    8.5750   46.6730   51.2680 O   0  0  0  0  0  0  0  0  0  0  0  0
    7.7750   45.6430   50.7630 C   0  0  0  0  0  0  0  0  0  0  0  0
    8.1170   45.0270   49.7180 O   0  0  0  0  0  0  0  0  0  0  0  0
    6.5230   45.2980   51.4630 C   0  0  0  0  0  0  0  0  0  0  0  0
    5.9490   46.0760   52.4520 C   0  0  0  0  0  0  0  0  0  0  0  0
    4.7780   45.4400   52.8060 C   0  0  0  0  0  0  0  0  0  0  0  0
    3.6060   46.0190   53.9780 S   0  0  0  0  0  0  0  0  0  0  0  0
    4.2640   46.9450   54.9620 O   0  0  0  0  0  0  0  0  0  0  0  0
    2.5430   46.7870   53.2440 O   0  0  0  0  0  0  0  0  0  0  0  0
    2.8630   44.6860   54.8100 N   0  0  0  0  0  0  0  0  0  0  0  0
    1.4830   44.6740   55.2280 C   0  0  0  0  0  0  0  0  0  0  0  0
    1.1100   45.3140   56.4260 C   0  0  0  0  0  0  0  0  0  0  0  0
   -0.2160   45.3170   56.8570 C   0  0  0  0  0  0  0  0  0  0  0  0
   -1.2000   44.6930   56.0960 C   0  0  0  0  0  0  0  0  0  0  0  0
   -2.4870   44.6910   56.5210 F   0  0  0  0  0  0  0  0  0  0  0  0
   -0.8600   44.0710   54.8960 C   0  0  0  0  0  0  0  0  0  0  0  0
    0.4700   44.0580   54.4380 C   0  0  0  0  0  0  0  0  0  0  0  0
    0.7580   43.3110   53.1550 C   0  0  0  0  0  0  0  0  0  0  0  0
    0.2820   44.2790   51.7310 S   0  0  0  0  0  0  0  0  0  0  0  0
   -1.0070   43.4680   50.8150 C   0  0  0  0  0  0  0  0  0  0  0  0
    1.4780   44.4610   50.8410 O   0  0  0  0  0  0  0  0  0  0  0  0
   -0.2060   45.6280   52.1810 O   0  0  0  0  0  0  0  0  0  0  0  0
    4.6810   44.2960   52.0440 C   0  0  0  0  0  0  0  0  0  0  0  0
    5.7470   44.2110   51.2230 N   0  0  0  0  0  0  0  0  0  0  0  0
    5.9760   43.1440   50.2510 C   0  0  0  0  0  0  0  0  0  0  0  0
    9.8618   46.0031   53.9530 H   0  0  0  0  0  0  0  0  0  0  0  0
   10.7366   47.5035   53.4946 H   0  0  0  0  0  0  0  0  0  0  0  0
    8.9405   47.4755   53.4946 H   0  0  0  0  0  0  0  0  0  0  0  0
   10.6164   47.0057   51.2891 H   0  0  0  0  0  0  0  0  0  0  0  0
   10.0881   45.3642   51.7929 H   0  0  0  0  0  0  0  0  0  0  0  0
    6.3461   47.0123   52.8711 H   0  0  0  0  0  0  0  0  0  0  0  0
    3.4900   43.8840   55.0230 H   0  0  0  0  0  0  0  0  0  0  0  0
    1.8770   45.8195   57.0312 H   0  0  0  0  0  0  0  0  0  0  0  0
   -0.4850   45.8138   57.8008 H   0  0  0  0  0  0  0  0  0  0  0  0
   -1.6436   43.5828   54.2979 H   0  0  0  0  0  0  0  0  0  0  0  0
    1.8349   43.0940   53.0989 H   0  0  0  0  0  0  0  0  0  0  0  0
    0.1766   42.3772   53.1547 H   0  0  0  0  0  0  0  0  0  0  0  0
   -1.7254   43.0160   51.5147 H   0  0  0  0  0  0  0  0  0  0  0  0
   -1.5250   44.2032   50.1816 H   0  0  0  0  0  0  0  0  0  0  0  0
   -0.5684   42.6828   50.1816 H   0  0  0  0  0  0  0  0  0  0  0  0
    3.8606   43.5651   52.0973 H   0  0  0  0  0  0  0  0  0  0  0  0
    6.1782   42.2019   50.7816 H   0  0  0  0  0  0  0  0  0  0  0  0
    5.0829   43.0250   49.6199 H   0  0  0  0  0  0  0  0  0  0  0  0
    6.8392   43.4020   49.6199 H   0  0  0  0  0  0  0  0  0  0  0  0
  1  2  1  0
  2  3  1  0
  3  4  1  0
  4  5  2  0
  4  6  1  0
  6  7  2  0
  7  8  1  0
  8  9  1  0
  9 10  2  0
  9 11  2  0
  9 12  1  0
 12 13  1  0
 13 14  2  0
 14 15  1  0
 15 16  2  0
 16 17  1  0
 16 18  1  0
 18 19  2  0
 19 20  1  0
 20 21  1  0
 21 22  1  0
 21 23  2  0
 21 24  2  0
  8 25  2  0
 25 26  1  0
 26 27  1  0
 26  6  1  0
 19 13  1  0
  1 28  1  0
  1 29  1  0
  1 30  1  0
  2 31  1  0
  2 32  1  0
  7 33  1  0
 12 34  1  0
 14 35  1  0
 15 36  1  0
 18 37  1  0
 20 38  1  0
 20 39  1  0
 22 40  1  0
 22 41  1  0
 22 42  1  0
 25 43  1  0
 27 44  1  0
 27 45  1  0
 27 46  1  0
M  END
>  <meeko>  (3) 
{"is_sidechain": [false], "free_energy": -7.492, "intermolecular_energy": -11.36, "internal_energy": -0.606}

$$$$
ligand_27_conformer_2_docked
     RDKit          3D

 46 47  0  0  0  0  0  0  0  0999 V2000
   10.3110   46.4680   52.2220 C   0  0  0  0  0  0  0  0  0  0  0  0
    9.8870   47.0810   53.5480 C   0  0  0  0  0  0  0  0  0  0  0  0
    8.4740   46.9820   53.6860 O   0  0  0  0  0  0  0  0  0  0  0  0
    7.5840   47.5220   52.7520 C   0  0  0  0  0  0  0  0  0  0  0  0
    7.7520   48.6950   52.3210 O   0  0  0  0  0  0  0  0  0  0  0  0
    6.4460   46.7060   52.2880 C   0  0  0  0  0  0  0  0  0  0  0  0
    5.1870   46.7390   52.8600 C   0  0  0  0  0  0  0  0  0  0  0  0
    4.4070   45.8820   52.1110 C   0  0  0  0  0  0  0  0  0  0  0  0
    2.6940   45.5790   52.3460 S   0  0  0  0  0  0  0  0  0  0  0  0
    1.9680   46.8680   52.6150 O   0  0  0  0  0  0  0  0  0  0  0  0
    2.1420   44.9810   51.0830 O   0  0  0  0  0  0  0  0  0  0  0  0
    2.4430   44.4630   53.6550 N   0  0  0  0  0  0  0  0  0  0  0  0
    1.3000   44.5050   54.5330 C   0  0  0  0  0  0  0  0  0  0  0  0
    1.3240   45.3310   55.6730 C   0  0  0  0  0  0  0  0  0  0  0  0
    0.2360   45.3910   56.5410 C   0  0  0  0  0  0  0  0  0  0  0  0
   -0.9050   44.6380   56.2840 C   0  0  0  0  0  0  0  0  0  0  0  0
   -1.9600   44.6920   57.1340 F   0  0  0  0  0  0  0  0  0  0  0  0
   -0.9630   43.8280   55.1510 C   0  0  0  0  0  0  0  0  0  0  0  0
    0.1210   43.7550   54.2580 C   0  0  0  0  0  0  0  0  0  0  0  0
   -0.0050   42.8070   53.0850 C   0  0  0  0  0  0  0  0  0  0  0  0
   -1.2340   43.3850   51.9250 S   0  0  0  0  0  0  0  0  0  0  0  0
   -1.2980   45.1600   51.9000 C   0  0  0  0  0  0  0  0  0  0  0  0
   -2.5780   42.8500   52.3300 O   0  0  0  0  0  0  0  0  0  0  0  0
   -0.9000   42.8830   50.5480 O   0  0  0  0  0  0  0  0  0  0  0  0
    5.2080   45.3450   51.1270 C   0  0  0  0  0  0  0  0  0  0  0  0
    6.4530   45.8500   51.2360 N   0  0  0  0  0  0  0  0  0  0  0  0
    7.5710   45.5300   50.3500 C   0  0  0  0  0  0  0  0  0  0  0  0
   10.9275   45.5767   52.4105 H   0  0  0  0  0  0  0  0  0  0  0  0
    9.4174   46.1811   51.6483 H   0  0  0  0  0  0  0  0  0  0  0  0
   10.8947   47.2029   51.6483 H   0  0  0  0  0  0  0  0  0  0  0  0
   10.3747   46.5422   54.3737 H   0  0  0  0  0  0  0  0  0  0  0  0
   10.1848   48.1396   53.5745 H   0  0  0  0  0  0  0  0  0  0  0  0
    4.8719   47.3283   53.7338 H   0  0  0  0  0  0  0  0  0  0  0  0
    3.1950   43.7590   53.7940 H   0  0  0  0  0  0  0  0  0  0  0  0
    2.2166   45.9390   55.8817 H   0  0  0  0  0  0  0  0  0  0  0  0
    0.2793   46.0352   57.4315 H   0  0  0  0  0  0  0  0  0  0  0  0
   -1.8696   43.2375   54.9526 H   0  0  0  0  0  0  0  0  0  0  0  0
    0.9665   42.7355   52.5741 H   0  0  0  0  0  0  0  0  0  0  0  0
   -0.3150   41.8214   53.4624 H   0  0  0  0  0  0  0  0  0  0  0  0
   -1.3117   45.5410   52.9318 H   0  0  0  0  0  0  0  0  0  0  0  0
   -0.4134   45.5515   51.3763 H   0  0  0  0  0  0  0  0  0  0  0  0
   -2.2085   45.4867   51.3763 H   0  0  0  0  0  0  0  0  0  0  0  0
    4.8820   44.6169   50.3697 H   0  0  0  0  0  0  0  0  0  0  0  0
    8.4556   45.2768   50.9527 H   0  0  0  0  0  0  0  0  0  0  0  0
    7.3021   44.6727   49.7153 H   0  0  0  0  0  0  0  0  0  0  0  0
    7.7964   46.3997   49.7153 H   0  0  0  0  0  0  0  0  0  0  0  0
  1  2  1  0
  2  3  1  0
  3  4  1  0
  4  5  2  0
  4  6  1  0
  6  7  2  0
  7  8  1  0
  8  9  1  0
  9 10  2  0
  9 11  2  0
  9 12  1  0
 12 13  1  0
 13 14  2  0
 14 15  1  0
 15 16  2  0
 16 17  1  0
 16 18  1  0
 18 19  2  0
 19 20  1  0
 20 21  1  0
 21 22  1  0
 21 23  2  0
 21 24  2  0
  8 25  2  0
 25 26  1  0
 26 27  1  0
 26  6  1  0
 19 13  1  0
  1 28  1  0
  1 29  1  0
  1 30  1  0
  2 31  1  0
  2 32  1  0
  7 33  1  0
 12 34  1  0
 14 35  1  0
 15 36  1  0
 18 37  1  0
 20 38  1  0
 20 39  1  0
 22 40  1  0
 22 41  1  0
 22 42  1  0
 25 43  1  0
 27 44  1  0
 27 45  1  0
 27 46  1  0
M  END
>  <meeko>  (4) 
{"is_sidechain": [false], "free_energy": -7.491, "intermolecular_energy": -11.055, "internal_energy": -0.909}

$$$$
ligand_27_conformer_2_docked
     RDKit          3D

 46 47  0  0  0  0  0  0  0  0999 V2000
   -3.3640   42.6340   57.6250 C   0  0  0  0  0  0  0  0  0  0  0  0
   -3.0020   43.9170   56.8930 C   0  0  0  0  0  0  0  0  0  0  0  0
   -2.1440   43.6130   55.7990 O   0  0  0  0  0  0  0  0  0  0  0  0
   -1.7500   44.5720   54.8600 C   0  0  0  0  0  0  0  0  0  0  0  0
   -2.5920   45.3880   54.3960 O   0  0  0  0  0  0  0  0  0  0  0  0
   -0.3440   44.6070   54.4150 C   0  0  0  0  0  0  0  0  0  0  0  0
    0.0730   44.2590   53.1420 C   0  0  0  0  0  0  0  0  0  0  0  0
    1.4350   44.4770   53.1160 C   0  0  0  0  0  0  0  0  0  0  0  0
    2.4850   44.2630   51.7260 S   0  0  0  0  0  0  0  0  0  0  0  0
    1.9840   43.1390   50.8610 O   0  0  0  0  0  0  0  0  0  0  0  0
    2.4610   45.5290   50.9160 O   0  0  0  0  0  0  0  0  0  0  0  0
    4.1170   43.9500   52.2330 N   0  0  0  0  0  0  0  0  0  0  0  0
    5.2550   44.0100   51.3480 C   0  0  0  0  0  0  0  0  0  0  0  0
    5.5740   42.8990   50.5440 C   0  0  0  0  0  0  0  0  0  0  0  0
    6.6680   42.9260   49.6810 C   0  0  0  0  0  0  0  0  0  0  0  0
    7.4600   44.0670   49.5930 C   0  0  0  0  0  0  0  0  0  0  0  0
    8.5280   44.0890   48.7580 F   0  0  0  0  0  0  0  0  0  0  0  0
    7.1530   45.1880   50.3620 C   0  0  0  0  0  0  0  0  0  0  0  0
    6.0520   45.1860   51.2370 C   0  0  0  0  0  0  0  0  0  0  0  0
    5.8250   46.4230   52.0760 C   0  0  0  0  0  0  0  0  0  0  0  0
    6.6560   46.2880   53.6520 S   0  0  0  0  0  0  0  0  0  0  0  0
    8.4120   46.4820   53.4620 C   0  0  0  0  0  0  0  0  0  0  0  0
    6.3710   44.9360   54.2400 O   0  0  0  0  0  0  0  0  0  0  0  0
    6.1400   47.3490   54.5840 O   0  0  0  0  0  0  0  0  0  0  0  0
    1.8070   44.9300   54.3640 C   0  0  0  0  0  0  0  0  0  0  0  0
    0.7190   45.0100   55.1550 N   0  0  0  0  0  0  0  0  0  0  0  0
    0.7200   45.4740   56.5410 C   0  0  0  0  0  0  0  0  0  0  0  0
   -3.3157   42.8051   58.7105 H   0  0  0  0  0  0  0  0  0  0  0  0
   -4.3834   42.3284   57.3470 H   0  0  0  0  0  0  0  0  0  0  0  0
   -2.6547   41.8406   57.3470 H   0  0  0  0  0  0  0  0  0  0  0  0
   -3.9184   44.3963   56.5181 H   0  0  0  0  0  0  0  0  0  0  0  0
   -2.4870   44.6006   57.5840 H   0  0  0  0  0  0  0  0  0  0  0  0
   -0.5536   43.8849   52.3190 H   0  0  0  0  0  0  0  0  0  0  0  0
    4.2340   43.6820   53.2310 H   0  0  0  0  0  0  0  0  0  0  0  0
    4.9496   41.9950   50.5979 H   0  0  0  0  0  0  0  0  0  0  0  0
    6.9059   42.0439   49.0683 H   0  0  0  0  0  0  0  0  0  0  0  0
    7.7811   46.0876   50.2834 H   0  0  0  0  0  0  0  0  0  0  0  0
    6.2147   47.2995   51.5376 H   0  0  0  0  0  0  0  0  0  0  0  0
    4.7453   46.5310   52.2568 H   0  0  0  0  0  0  0  0  0  0  0  0
    8.8846   46.5342   54.4539 H   0  0  0  0  0  0  0  0  0  0  0  0
    8.8179   45.6232   52.9072 H   0  0  0  0  0  0  0  0  0  0  0  0
    8.6206   47.4087   52.9072 H   0  0  0  0  0  0  0  0  0  0  0  0
    2.8329   45.1864   54.6670 H   0  0  0  0  0  0  0  0  0  0  0  0
    0.7181   44.6070   57.2179 H   0  0  0  0  0  0  0  0  0  0  0  0
    1.6195   46.0802   56.7241 H   0  0  0  0  0  0  0  0  0  0  0  0
   -0.1768   46.0841   56.7241 H   0  0  0  0  0  0  0  0  0  0  0  0
  1  2  1  0
  2  3  1  0
  3  4  1  0
  4  5  2  0
  4  6  1  0
  6  7  2  0
  7  8  1  0
  8  9  1  0
  9 10  2  0
  9 11  2  0
  9 12  1  0
 12 13  1  0
 13 14  2  0
 14 15  1  0
 15 16  2  0
 16 17  1  0
 16 18  1  0
 18 19  2  0
 19 20  1  0
 20 21  1  0
 21 22  1  0
 21 23  2  0
 21 24  2  0
  8 25  2  0
 25 26  1  0
 26 27  1  0
 26  6  1  0
 19 13  1  0
  1 28  1  0
  1 29  1  0
  1 30  1  0
  2 31  1  0
  2 32  1  0
  7 33  1  0
 12 34  1  0
 14 35  1  0
 15 36  1  0
 18 37  1  0
 20 38  1  0
 20 39  1  0
 22 40  1  0
 22 41  1  0
 22 42  1  0
 25 43  1  0
 27 44  1  0
 27 45  1  0
 27 46  1  0
M  END
>  <meeko>  (5) 
{"is_sidechain": [false], "free_energy": -7.453, "intermolecular_energy": -10.959, "internal_energy": -0.949}

$$$$
