ligand_45_conformer_1_docked
     RDKit          3D

 49 51  0  0  0  0  0  0  0  0999 V2000
   10.1380   46.5070   52.3180 C   0  0  0  0  0  0  0  0  0  0  0  0
    9.5300   47.4950   53.2250 N   0  0  0  0  0  0  0  0  0  0  0  0
    9.9840   47.2390   54.6040 C   0  0  0  0  0  0  0  0  0  0  0  0
    8.0530   47.4360   53.1300 C   0  0  0  0  0  0  0  0  0  0  0  0
    7.4280   46.9040   54.4270 C   0  0  0  0  0  0  0  0  0  0  0  0
    5.9660   46.5880   54.2440 C   0  0  0  0  0  0  0  0  0  0  0  0
    5.3720   45.5370   54.9590 C   0  0  0  0  0  0  0  0  0  0  0  0
    4.0080   45.2680   54.8160 C   0  0  0  0  0  0  0  0  0  0  0  0
    3.2150   46.0600   53.9720 C   0  0  0  0  0  0  0  0  0  0  0  0
    1.7640   45.7220   53.7620 C   0  0  0  0  0  0  0  0  0  0  0  0
    1.6300   44.2870   53.5360 N   0  0  0  0  0  0  0  0  0  0  0  0
    1.9030   43.7100   52.2530 C   0  0  0  0  0  0  0  0  0  0  0  0
    1.6310   44.3480   51.2000 O   0  0  0  0  0  0  0  0  0  0  0  0
    2.6140   42.3970   52.1620 C   0  0  0  0  0  0  0  0  0  0  0  0
    3.9270   42.5950   51.4560 C   0  0  0  0  0  0  0  0  0  0  0  0
    4.4420   41.5770   50.6200 C   0  0  0  0  0  0  0  0  0  0  0  0
    5.6300   41.7770   49.9000 C   0  0  0  0  0  0  0  0  0  0  0  0
    6.2750   43.0040   50.0240 C   0  0  0  0  0  0  0  0  0  0  0  0
    7.6880   43.5180   49.2820 S   0  0  0  0  0  0  0  0  0  0  0  0
    7.6750   45.0610   49.9760 C   0  0  0  0  0  0  0  0  0  0  0  0
    6.5570   45.1810   50.7990 C   0  0  0  0  0  0  0  0  0  0  0  0
    5.7770   44.0190   50.8240 C   0  0  0  0  0  0  0  0  0  0  0  0
    4.5990   43.8330   51.5480 C   0  0  0  0  0  0  0  0  0  0  0  0
    3.8100   47.1070   53.2510 C   0  0  0  0  0  0  0  0  0  0  0  0
    5.1750   47.3750   53.3930 C   0  0  0  0  0  0  0  0  0  0  0  0
   10.6242   45.7170   52.9092 H   0  0  0  0  0  0  0  0  0  0  0  0
    9.3571   46.0623   51.6836 H   0  0  0  0  0  0  0  0  0  0  0  0
   10.8869   47.0037   51.6836 H   0  0  0  0  0  0  0  0  0  0  0  0
    9.2519   47.6518   55.3136 H   0  0  0  0  0  0  0  0  0  0  0  0
   10.0783   46.1547   54.7637 H   0  0  0  0  0  0  0  0  0  0  0  0
   10.9606   47.7194   54.7637 H   0  0  0  0  0  0  0  0  0  0  0  0
    7.6664   48.4473   52.9352 H   0  0  0  0  0  0  0  0  0  0  0  0
    7.7863   46.7512   52.3115 H   0  0  0  0  0  0  0  0  0  0  0  0
    7.9569   45.9882   54.7297 H   0  0  0  0  0  0  0  0  0  0  0  0
    7.5199   47.6815   55.1997 H   0  0  0  0  0  0  0  0  0  0  0  0
    5.9831   44.9215   55.6356 H   0  0  0  0  0  0  0  0  0  0  0  0
    3.5541   44.4315   55.3677 H   0  0  0  0  0  0  0  0  0  0  0  0
    1.1873   46.0088   54.6537 H   0  0  0  0  0  0  0  0  0  0  0  0
    1.3813   46.2695   52.8881 H   0  0  0  0  0  0  0  0  0  0  0  0
    1.6430   43.6630   54.3740 H   0  0  0  0  0  0  0  0  0  0  0  0
    2.7955   42.0057   53.1739 H   0  0  0  0  0  0  0  0  0  0  0  0
    1.9966   41.6799   51.6011 H   0  0  0  0  0  0  0  0  0  0  0  0
    3.9066   40.6200   50.5334 H   0  0  0  0  0  0  0  0  0  0  0  0
    6.0401   40.9856   49.2553 H   0  0  0  0  0  0  0  0  0  0  0  0
    8.4284   45.8440   49.8049 H   0  0  0  0  0  0  0  0  0  0  0  0
    6.3137   46.0906   51.3676 H   0  0  0  0  0  0  0  0  0  0  0  0
    4.1998   44.6391   52.1811 H   0  0  0  0  0  0  0  0  0  0  0  0
    3.1997   47.7195   52.5711 H   0  0  0  0  0  0  0  0  0  0  0  0
    5.6308   48.2064   52.8352 H   0  0  0  0  0  0  0  0  0  0  0  0
  1  2  1  0
  2  3  1  0
  2  4  1  0
  4  5  1  0
  5  6  1  0
  6  7  2  0
  7  8  1  0
  8  9  2  0
  9 10  1  0
 10 11  1  0
 11 12  1  0
 12 13  2  0
 12 14  1  0
 14 15  1  0
 15 16  2  0
 16 17  1  0
 17 18  2  0
 18 19  1  0
 19 20  1  0
 20 21  2  0
 21 22  1  0
 22 23  2  0
  9 24  1  0
 24 25  2  0
 25  6  1  0
 23 15  1  0
 22 18  1  0
  1 26  1  0
  1 27  1  0
  1 28  1  0
  3 29  1  0
  3 30  1  0
  3 31  1  0
  4 32  1  0
  4 33  1  0
  5 34  1  0
  5 35  1  0
  7 36  1  0
  8 37  1  0
 10 38  1  0
 10 39  1  0
 11 40  1  0
 14 41  1  0
 14 42  1  0
 16 43  1  0
 17 44  1  0
 20 45  1  0
 21 46  1  0
 23 47  1  0
 24 48  1  0
 25 49  1  0
M  END
>  <meeko>  (1) 
{"is_sidechain": [false], "free_energy": -8.75, "intermolecular_energy": -12.33, "internal_energy": -1.821}

$$$$
ligand_45_conformer_1_docked
     RDKit          3D

 49 51  0  0  0  0  0  0  0  0999 V2000
   10.2480   45.9900   51.9390 C   0  0  0  0  0  0  0  0  0  0  0  0
    9.9080   47.2440   52.6300 N   0  0  0  0  0  0  0  0  0  0  0  0
    9.9200   47.0210   54.0870 C   0  0  0  0  0  0  0  0  0  0  0  0
    8.5860   47.7360   52.1770 C   0  0  0  0  0  0  0  0  0  0  0  0
    7.6650   46.5760   51.7730 C   0  0  0  0  0  0  0  0  0  0  0  0
    6.5760   46.3570   52.7920 C   0  0  0  0  0  0  0  0  0  0  0  0
    6.5150   45.1580   53.5190 C   0  0  0  0  0  0  0  0  0  0  0  0
    5.5260   44.9710   54.4890 C   0  0  0  0  0  0  0  0  0  0  0  0
    4.5990   45.9880   54.7610 C   0  0  0  0  0  0  0  0  0  0  0  0
    3.4910   45.7560   55.7510 C   0  0  0  0  0  0  0  0  0  0  0  0
    2.7460   44.5600   55.3720 N   0  0  0  0  0  0  0  0  0  0  0  0
    1.6300   44.6350   54.4770 C   0  0  0  0  0  0  0  0  0  0  0  0
    0.8670   45.6380   54.4980 O   0  0  0  0  0  0  0  0  0  0  0  0
    1.4310   43.5730   53.4420 C   0  0  0  0  0  0  0  0  0  0  0  0
    2.5570   43.6390   52.4470 C   0  0  0  0  0  0  0  0  0  0  0  0
    2.9040   44.8740   51.8510 C   0  0  0  0  0  0  0  0  0  0  0  0
    3.9980   44.9620   50.9760 C   0  0  0  0  0  0  0  0  0  0  0  0
    4.7320   43.8080   50.7240 C   0  0  0  0  0  0  0  0  0  0  0  0
    6.0790   43.6230   49.7410 S   0  0  0  0  0  0  0  0  0  0  0  0
    6.2830   41.9750   50.0650 C   0  0  0  0  0  0  0  0  0  0  0  0
    5.2900   41.5580   50.9500 C   0  0  0  0  0  0  0  0  0  0  0  0
    4.4200   42.5930   51.3120 C   0  0  0  0  0  0  0  0  0  0  0  0
    3.3330   42.4900   52.1810 C   0  0  0  0  0  0  0  0  0  0  0  0
    4.6560   47.1850   54.0290 C   0  0  0  0  0  0  0  0  0  0  0  0
    5.6430   47.3710   53.0570 C   0  0  0  0  0  0  0  0  0  0  0  0
   10.4601   45.2075   52.6825 H   0  0  0  0  0  0  0  0  0  0  0  0
    9.4022   45.6775   51.3090 H   0  0  0  0  0  0  0  0  0  0  0  0
   11.1358   46.1476   51.3090 H   0  0  0  0  0  0  0  0  0  0  0  0
    9.8679   47.9892   54.6066 H   0  0  0  0  0  0  0  0  0  0  0  0
    9.0537   46.4054   54.3709 H   0  0  0  0  0  0  0  0  0  0  0  0
   10.8474   46.5020   54.3709 H   0  0  0  0  0  0  0  0  0  0  0  0
    8.1141   48.2993   52.9955 H   0  0  0  0  0  0  0  0  0  0  0  0
    8.7387   48.3792   51.2978 H   0  0  0  0  0  0  0  0  0  0  0  0
    7.2044   46.8067   50.8011 H   0  0  0  0  0  0  0  0  0  0  0  0
    8.2700   45.6594   51.7109 H   0  0  0  0  0  0  0  0  0  0  0  0
    7.2487   44.3619   53.3246 H   0  0  0  0  0  0  0  0  0  0  0  0
    5.4744   44.0214   55.0419 H   0  0  0  0  0  0  0  0  0  0  0  0
    3.9186   45.6193   56.7552 H   0  0  0  0  0  0  0  0  0  0  0  0
    2.8152   46.6239   55.7566 H   0  0  0  0  0  0  0  0  0  0  0  0
    3.2180   43.6360   55.5010 H   0  0  0  0  0  0  0  0  0  0  0  0
    1.4235   42.5847   53.9249 H   0  0  0  0  0  0  0  0  0  0  0  0
    0.4718   43.7318   52.9275 H   0  0  0  0  0  0  0  0  0  0  0  0
    2.3114   45.7732   52.0752 H   0  0  0  0  0  0  0  0  0  0  0  0
    4.2674   45.9177   50.5025 H   0  0  0  0  0  0  0  0  0  0  0  0
    7.0728   41.3351   49.6446 H   0  0  0  0  0  0  0  0  0  0  0  0
    5.1999   40.5272   51.3234 H   0  0  0  0  0  0  0  0  0  0  0  0
    3.0844   41.5275   52.6519 H   0  0  0  0  0  0  0  0  0  0  0  0
    3.9205   47.9800   54.2215 H   0  0  0  0  0  0  0  0  0  0  0  0
    5.6886   48.3168   52.4971 H   0  0  0  0  0  0  0  0  0  0  0  0
  1  2  1  0
  2  3  1  0
  2  4  1  0
  4  5  1  0
  5  6  1  0
  6  7  2  0
  7  8  1  0
  8  9  2  0
  9 10  1  0
 10 11  1  0
 11 12  1  0
 12 13  2  0
 12 14  1  0
 14 15  1  0
 15 16  2  0
 16 17  1  0
 17 18  2  0
 18 19  1  0
 19 20  1  0
 20 21  2  0
 21 22  1  0
 22 23  2  0
  9 24  1  0
 24 25  2  0
 25  6  1  0
 23 15  1  0
 22 18  1  0
  1 26  1  0
  1 27  1  0
  1 28  1  0
  3 29  1  0
  3 30  1  0
  3 31  1  0
  4 32  1  0
  4 33  1  0
  5 34  1  0
  5 35  1  0
  7 36  1  0
  8 37  1  0
 10 38  1  0
 10 39  1  0
 11 40  1  0
 14 41  1  0
 14 42  1  0
 16 43  1  0
 17 44  1  0
 20 45  1  0
 21 46  1  0
 23 47  1  0
 24 48  1  0
 25 49  1  0
M  END
>  <meeko>  (2) 
{"is_sidechain": [false], "free_energy": -8.441, "intermolecular_energy": -11.318, "internal_energy": -2.399}

$$$$
ligand_45_conformer_1_docked
     RDKit          3D

 49 51  0  0  0  0  0  0  0  0999 V2000
    1.1500   43.0180   53.4750 C   0  0  0  0  0  0  0  0  0  0  0  0
    0.6310   44.2760   52.9140 N   0  0  0  0  0  0  0  0  0  0  0  0
    0.7820   44.2580   51.4490 C   0  0  0  0  0  0  0  0  0  0  0  0
    1.3400   45.4330   53.5090 C   0  0  0  0  0  0  0  0  0  0  0  0
    2.1580   45.0170   54.7400 C   0  0  0  0  0  0  0  0  0  0  0  0
    3.5660   45.5490   54.6700 C   0  0  0  0  0  0  0  0  0  0  0  0
    4.6390   44.7840   55.1520 C   0  0  0  0  0  0  0  0  0  0  0  0
    5.9480   45.2630   55.0540 C   0  0  0  0  0  0  0  0  0  0  0  0
    6.2050   46.5040   54.4520 C   0  0  0  0  0  0  0  0  0  0  0  0
    7.6050   47.0510   54.4160 C   0  0  0  0  0  0  0  0  0  0  0  0
    7.9230   47.4780   53.0570 N   0  0  0  0  0  0  0  0  0  0  0  0
    8.6060   46.6080   52.1470 C   0  0  0  0  0  0  0  0  0  0  0  0
    9.4840   45.8090   52.5720 O   0  0  0  0  0  0  0  0  0  0  0  0
    8.2010   46.5680   50.7080 C   0  0  0  0  0  0  0  0  0  0  0  0
    7.4280   45.3050   50.4490 C   0  0  0  0  0  0  0  0  0  0  0  0
    7.9340   44.3350   49.5520 C   0  0  0  0  0  0  0  0  0  0  0  0
    7.2570   43.1210   49.3550 C   0  0  0  0  0  0  0  0  0  0  0  0
    6.0890   42.8970   50.0750 C   0  0  0  0  0  0  0  0  0  0  0  0
    5.0920   41.5480   50.0490 S   0  0  0  0  0  0  0  0  0  0  0  0
    4.0010   42.1390   51.2000 C   0  0  0  0  0  0  0  0  0  0  0  0
    4.4150   43.4040   51.6110 C   0  0  0  0  0  0  0  0  0  0  0  0
    5.5860   43.8250   50.9710 C   0  0  0  0  0  0  0  0  0  0  0  0
    6.2460   45.0380   51.1740 C   0  0  0  0  0  0  0  0  0  0  0  0
    5.1310   47.2730   53.9760 C   0  0  0  0  0  0  0  0  0  0  0  0
    3.8210   46.7950   54.0760 C   0  0  0  0  0  0  0  0  0  0  0  0
    1.1285   43.0700   54.5736 H   0  0  0  0  0  0  0  0  0  0  0  0
    0.5244   42.1794   53.1353 H   0  0  0  0  0  0  0  0  0  0  0  0
    2.1849   42.8645   53.1353 H   0  0  0  0  0  0  0  0  0  0  0  0
    1.8439   44.1314   51.1914 H   0  0  0  0  0  0  0  0  0  0  0  0
    0.2011   43.4227   51.0308 H   0  0  0  0  0  0  0  0  0  0  0  0
    0.4138   45.2064   51.0308 H   0  0  0  0  0  0  0  0  0  0  0  0
    2.0184   45.8622   52.7570 H   0  0  0  0  0  0  0  0  0  0  0  0
    0.5900   46.1726   53.8259 H   0  0  0  0  0  0  0  0  0  0  0  0
    1.6707   45.4119   55.6436 H   0  0  0  0  0  0  0  0  0  0  0  0
    2.2041   43.9184   54.7698 H   0  0  0  0  0  0  0  0  0  0  0  0
    4.4487   43.8019   55.6095 H   0  0  0  0  0  0  0  0  0  0  0  0
    6.7811   44.6642   55.4508 H   0  0  0  0  0  0  0  0  0  0  0  0
    7.6810   47.9106   55.0982 H   0  0  0  0  0  0  0  0  0  0  0  0
    8.3130   46.2705   54.7314 H   0  0  0  0  0  0  0  0  0  0  0  0
    7.3800   48.2810   52.6640 H   0  0  0  0  0  0  0  0  0  0  0  0
    7.5702   47.4395   50.4786 H   0  0  0  0  0  0  0  0  0  0  0  0
    9.0970   46.5913   50.0703 H   0  0  0  0  0  0  0  0  0  0  0  0
    8.8667   44.5339   49.0038 H   0  0  0  0  0  0  0  0  0  0  0  0
    7.6400   42.3680   48.6506 H   0  0  0  0  0  0  0  0  0  0  0  0
    3.1086   41.6094   51.5649 H   0  0  0  0  0  0  0  0  0  0  0  0
    3.8789   44.0072   52.3585 H   0  0  0  0  0  0  0  0  0  0  0  0
    5.8511   45.7753   51.8884 H   0  0  0  0  0  0  0  0  0  0  0  0
    5.3213   48.2567   53.5220 H   0  0  0  0  0  0  0  0  0  0  0  0
    2.9868   47.3977   53.6876 H   0  0  0  0  0  0  0  0  0  0  0  0
  1  2  1  0
  2  3  1  0
  2  4  1  0
  4  5  1  0
  5  6  1  0
  6  7  2  0
  7  8  1  0
  8  9  2  0
  9 10  1  0
 10 11  1  0
 11 12  1  0
 12 13  2  0
 12 14  1  0
 14 15  1  0
 15 16  2  0
 16 17  1  0
 17 18  2  0
 18 19  1  0
 19 20  1  0
 20 21  2  0
 21 22  1  0
 22 23  2  0
  9 24  1  0
 24 25  2  0
 25  6  1  0
 23 15  1  0
 22 18  1  0
  1 26  1  0
  1 27  1  0
  1 28  1  0
  3 29  1  0
  3 30  1  0
  3 31  1  0
  4 32  1  0
  4 33  1  0
  5 34  1  0
  5 35  1  0
  7 36  1  0
  8 37  1  0
 10 38  1  0
 10 39  1  0
 11 40  1  0
 14 41  1  0
 14 42  1  0
 16 43  1  0
 17 44  1  0
 20 45  1  0
 21 46  1  0
 23 47  1  0
 24 48  1  0
 25 49  1  0
M  END
>  <meeko>  (3) 
{"is_sidechain": [false], "free_energy": -8.427, "intermolecular_energy": -11.582, "internal_energy": -2.115}

$$$$
ligand_45_conformer_1_docked
     RDKit          3D

 49 51  0  0  0  0  0  0  0  0999 V2000
    3.5780   40.4720   48.7840 C   0  0  0  0  0  0  0  0  0  0  0  0
    3.8780   40.8460   50.1750 N   0  0  0  0  0  0  0  0  0  0  0  0
    3.0080   41.9640   50.5810 C   0  0  0  0  0  0  0  0  0  0  0  0
    5.3080   41.2060   50.3120 C   0  0  0  0  0  0  0  0  0  0  0  0
    5.7760   42.0970   49.1530 C   0  0  0  0  0  0  0  0  0  0  0  0
    6.5630   43.2810   49.6530 C   0  0  0  0  0  0  0  0  0  0  0  0
    7.9150   43.4320   49.3070 C   0  0  0  0  0  0  0  0  0  0  0  0
    8.6340   44.5490   49.7410 C   0  0  0  0  0  0  0  0  0  0  0  0
    8.0050   45.5410   50.5090 C   0  0  0  0  0  0  0  0  0  0  0  0
    8.8000   46.7040   51.0370 C   0  0  0  0  0  0  0  0  0  0  0  0
    8.8690   46.6210   52.4920 N   0  0  0  0  0  0  0  0  0  0  0  0
    8.2580   47.6170   53.3210 C   0  0  0  0  0  0  0  0  0  0  0  0
    8.2340   48.8220   52.9510 O   0  0  0  0  0  0  0  0  0  0  0  0
    7.5510   47.2120   54.5760 C   0  0  0  0  0  0  0  0  0  0  0  0
    6.2630   46.5240   54.2150 C   0  0  0  0  0  0  0  0  0  0  0  0
    6.0040   45.2150   54.6830 C   0  0  0  0  0  0  0  0  0  0  0  0
    4.7770   44.5890   54.4130 C   0  0  0  0  0  0  0  0  0  0  0  0
    3.8250   45.2960   53.6860 C   0  0  0  0  0  0  0  0  0  0  0  0
    2.2870   44.8070   53.2310 S   0  0  0  0  0  0  0  0  0  0  0  0
    1.8880   46.2550   52.4510 C   0  0  0  0  0  0  0  0  0  0  0  0
    2.9660   47.1330   52.5420 C   0  0  0  0  0  0  0  0  0  0  0  0
    4.0520   46.5850   53.2340 C   0  0  0  0  0  0  0  0  0  0  0  0
    5.2690   47.2180   53.4920 C   0  0  0  0  0  0  0  0  0  0  0  0
    6.6550   45.3870   50.8610 C   0  0  0  0  0  0  0  0  0  0  0  0
    5.9370   44.2690   50.4290 C   0  0  0  0  0  0  0  0  0  0  0  0
    2.8897   39.6140   48.7753 H   0  0  0  0  0  0  0  0  0  0  0  0
    3.1094   41.3232   48.2684 H   0  0  0  0  0  0  0  0  0  0  0  0
    4.5106   40.1992   48.2684 H   0  0  0  0  0  0  0  0  0  0  0  0
    2.9670   42.0167   51.6790 H   0  0  0  0  0  0  0  0  0  0  0  0
    3.4126   42.9065   50.1835 H   0  0  0  0  0  0  0  0  0  0  0  0
    1.9950   41.8033   50.1835 H   0  0  0  0  0  0  0  0  0  0  0  0
    5.4516   41.7465   51.2592 H   0  0  0  0  0  0  0  0  0  0  0  0
    5.9007   40.2795   50.2969 H   0  0  0  0  0  0  0  0  0  0  0  0
    6.4115   41.5035   48.4793 H   0  0  0  0  0  0  0  0  0  0  0  0
    4.8875   42.4707   48.6229 H   0  0  0  0  0  0  0  0  0  0  0  0
    8.4110   42.6673   48.6912 H   0  0  0  0  0  0  0  0  0  0  0  0
    9.6976   44.6511   49.4795 H   0  0  0  0  0  0  0  0  0  0  0  0
    9.8169   46.6739   50.6187 H   0  0  0  0  0  0  0  0  0  0  0  0
    8.3129   47.6459   50.7447 H   0  0  0  0  0  0  0  0  0  0  0  0
    9.0850   45.6890   52.9130 H   0  0  0  0  0  0  0  0  0  0  0  0
    8.1874   46.5239   55.1517 H   0  0  0  0  0  0  0  0  0  0  0  0
    7.3374   48.1028   55.1850 H   0  0  0  0  0  0  0  0  0  0  0  0
    6.7712   44.6823   55.2641 H   0  0  0  0  0  0  0  0  0  0  0  0
    4.5739   43.5674   54.7666 H   0  0  0  0  0  0  0  0  0  0  0  0
    0.9311   46.4687   51.9522 H   0  0  0  0  0  0  0  0  0  0  0  0
    2.9637   48.1472   52.1160 H   0  0  0  0  0  0  0  0  0  0  0  0
    5.4509   48.2431   53.1369 H   0  0  0  0  0  0  0  0  0  0  0  0
    6.1601   46.1500   51.4798 H   0  0  0  0  0  0  0  0  0  0  0  0
    4.8758   44.1625   50.6984 H   0  0  0  0  0  0  0  0  0  0  0  0
  1  2  1  0
  2  3  1  0
  2  4  1  0
  4  5  1  0
  5  6  1  0
  6  7  2  0
  7  8  1  0
  8  9  2  0
  9 10  1  0
 10 11  1  0
 11 12  1  0
 12 13  2  0
 12 14  1  0
 14 15  1  0
 15 16  2  0
 16 17  1  0
 17 18  2  0
 18 19  1  0
 19 20  1  0
 20 21  2  0
 21 22  1  0
 22 23  2  0
  9 24  1  0
 24 25  2  0
 25  6  1  0
 23 15  1  0
 22 18  1  0
  1 26  1  0
  1 27  1  0
  1 28  1  0
  3 29  1  0
  3 30  1  0
  3 31  1  0
  4 32  1  0
  4 33  1  0
  5 34  1  0
  5 35  1  0
  7 36  1  0
  8 37  1  0
 10 38  1  0
 10 39  1  0
 11 40  1  0
 14 41  1  0
 14 42  1  0
 16 43  1  0
 17 44  1  0
 20 45  1  0
 21 46  1  0
 23 47  1  0
 24 48  1  0
 25 49  1  0
M  END
>  <meeko>  (4) 
{"is_sidechain": [false], "free_energy": -8.419, "intermolecular_energy": -11.956, "internal_energy": -1.73}

$$$$
ligand_45_conformer_1_docked
     RDKit          3D

 49 51  0  0  0  0  0  0  0  0999 V2000
   -0.5200   46.3320   57.1730 C   0  0  0  0  0  0  0  0  0  0  0  0
    0.1760   45.7740   56.0030 N   0  0  0  0  0  0  0  0  0  0  0  0
   -0.4970   44.5340   55.5770 C   0  0  0  0  0  0  0  0  0  0  0  0
    1.6000   45.5230   56.3260 C   0  0  0  0  0  0  0  0  0  0  0  0
    2.3120   44.7830   55.1850 C   0  0  0  0  0  0  0  0  0  0  0  0
    3.6610   45.3880   54.8930 C   0  0  0  0  0  0  0  0  0  0  0  0
    3.8120   46.7810   54.8110 C   0  0  0  0  0  0  0  0  0  0  0  0
    5.0700   47.3420   54.5760 C   0  0  0  0  0  0  0  0  0  0  0  0
    6.1980   46.5190   54.4400 C   0  0  0  0  0  0  0  0  0  0  0  0
    7.5370   47.1210   54.1110 C   0  0  0  0  0  0  0  0  0  0  0  0
    7.6480   47.2940   52.6670 N   0  0  0  0  0  0  0  0  0  0  0  0
    8.2930   46.3090   51.8500 C   0  0  0  0  0  0  0  0  0  0  0  0
    9.2840   45.6680   52.2920 O   0  0  0  0  0  0  0  0  0  0  0  0
    7.7220   45.9630   50.5110 C   0  0  0  0  0  0  0  0  0  0  0  0
    6.4040   45.2650   50.7030 C   0  0  0  0  0  0  0  0  0  0  0  0
    6.3590   43.8570   50.8200 C   0  0  0  0  0  0  0  0  0  0  0  0
    5.1440   43.1990   51.0700 C   0  0  0  0  0  0  0  0  0  0  0  0
    3.9960   43.9720   51.2120 C   0  0  0  0  0  0  0  0  0  0  0  0
    2.4280   43.4620   51.5220 S   0  0  0  0  0  0  0  0  0  0  0  0
    1.7620   45.0170   51.5490 C   0  0  0  0  0  0  0  0  0  0  0  0
    2.7700   45.9490   51.3120 C   0  0  0  0  0  0  0  0  0  0  0  0
    4.0220   45.3530   51.1190 C   0  0  0  0  0  0  0  0  0  0  0  0
    5.2220   46.0200   50.8670 C   0  0  0  0  0  0  0  0  0  0  0  0
    6.0460   45.1250   54.5140 C   0  0  0  0  0  0  0  0  0  0  0  0
    4.7870   44.5640   54.7470 C   0  0  0  0  0  0  0  0  0  0  0  0
   -0.0500   45.9552   58.0934 H   0  0  0  0  0  0  0  0  0  0  0  0
   -0.4534   47.4297   57.1502 H   0  0  0  0  0  0  0  0  0  0  0  0
   -1.5770   46.0283   57.1502 H   0  0  0  0  0  0  0  0  0  0  0  0
   -0.8074   43.9620   56.4638 H   0  0  0  0  0  0  0  0  0  0  0  0
   -1.3823   44.7857   54.9746 H   0  0  0  0  0  0  0  0  0  0  0  0
    0.1964   43.9288   54.9746 H   0  0  0  0  0  0  0  0  0  0  0  0
    2.1033   46.4861   56.4967 H   0  0  0  0  0  0  0  0  0  0  0  0
    1.6445   44.8937   57.2271 H   0  0  0  0  0  0  0  0  0  0  0  0
    2.4469   43.7295   55.4712 H   0  0  0  0  0  0  0  0  0  0  0  0
    1.6927   44.8660   54.2797 H   0  0  0  0  0  0  0  0  0  0  0  0
    2.9355   47.4345   54.9324 H   0  0  0  0  0  0  0  0  0  0  0  0
    5.1764   48.4340   54.4973 H   0  0  0  0  0  0  0  0  0  0  0  0
    7.6316   48.0986   54.6062 H   0  0  0  0  0  0  0  0  0  0  0  0
    8.3370   46.4536   54.4640 H   0  0  0  0  0  0  0  0  0  0  0  0
    6.9920   47.9680   52.2100 H   0  0  0  0  0  0  0  0  0  0  0  0
    7.5701   46.8825   49.9267 H   0  0  0  0  0  0  0  0  0  0  0  0
    8.4163   45.3016   49.9720 H   0  0  0  0  0  0  0  0  0  0  0  0
    7.2842   43.2715   50.7142 H   0  0  0  0  0  0  0  0  0  0  0  0
    5.1011   42.1029   51.1513 H   0  0  0  0  0  0  0  0  0  0  0  0
    0.7025   45.2542   51.7255 H   0  0  0  0  0  0  0  0  0  0  0  0
    2.6005   47.0354   51.2800 H   0  0  0  0  0  0  0  0  0  0  0  0
    5.2465   47.1175   50.7972 H   0  0  0  0  0  0  0  0  0  0  0  0
    6.9217   44.4714   54.3880 H   0  0  0  0  0  0  0  0  0  0  0  0
    4.6787   43.4715   54.8162 H   0  0  0  0  0  0  0  0  0  0  0  0
  1  2  1  0
  2  3  1  0
  2  4  1  0
  4  5  1  0
  5  6  1  0
  6  7  2  0
  7  8  1  0
  8  9  2  0
  9 10  1  0
 10 11  1  0
 11 12  1  0
 12 13  2  0
 12 14  1  0
 14 15  1  0
 15 16  2  0
 16 17  1  0
 17 18  2  0
 18 19  1  0
 19 20  1  0
 20 21  2  0
 21 22  1  0
 22 23  2  0
  9 24  1  0
 24 25  2  0
 25  6  1  0
 23 15  1  0
 22 18  1  0
  1 26  1  0
  1 27  1  0
  1 28  1  0
  3 29  1  0
  3 30  1  0
  3 31  1  0
  4 32  1  0
  4 33  1  0
  5 34  1  0
  5 35  1  0
  7 36  1  0
  8 37  1  0
 10 38  1  0
 10 39  1  0
 11 40  1  0
 14 41  1  0
 14 42  1  0
 16 43  1  0
 17 44  1  0
 20 45  1  0
 21 46  1  0
 23 47  1  0
 24 48  1  0
 25 49  1  0
M  END
>  <meeko>  (5) 
{"is_sidechain": [false], "free_energy": -7.951, "intermolecular_energy": -10.377, "internal_energy": -2.649}

$$$$
