ligand_89_conformer_5_docked
     RDKit          3D

 51 54  0  0  0  0  0  0  0  0999 V2000
    1.2060   43.8330   51.5770 O   0  0  0  0  0  0  0  0  0  0  0  0
    1.5850   42.9610   52.4060 C   0  0  0  0  0  0  0  0  0  0  0  0
    0.5560   42.1230   53.1080 C   0  0  0  0  0  0  0  0  0  0  0  0
   -0.1950   42.9290   54.1860 C   0  0  2  0  0  0  0  0  0  0  0  0
   -1.5710   43.4120   53.6430 C   0  0  0  0  0  0  0  0  0  0  0  0
   -2.1660   44.5450   54.5110 C   0  0  1  0  0  0  0  0  0  0  0  0
   -2.3170   44.1190   55.9790 C   0  0  0  0  0  0  0  0  0  0  0  0
   -0.9940   44.5330   56.6190 C   0  0  0  0  0  0  0  0  0  0  0  0
   -0.2040   45.1600   55.4630 C   0  0  1  0  0  0  0  0  0  0  0  0
    0.6640   44.1130   54.7270 C   0  0  0  0  0  0  0  0  0  0  0  0
   -1.2040   45.6420   54.5170 N   0  0  0  0  0  0  0  0  0  0  0  0
    2.9840   42.7110   52.6170 N   0  0  0  0  0  0  0  0  0  0  0  0
    4.0380   43.5260   52.0760 C   0  0  0  0  0  0  0  0  0  0  0  0
    4.3020   44.8110   52.5760 C   0  0  0  0  0  0  0  0  0  0  0  0
    5.3460   45.5750   52.0480 C   0  0  0  0  0  0  0  0  0  0  0  0
    6.1550   45.0600   51.0180 C   0  0  0  0  0  0  0  0  0  0  0  0
    7.2110   45.7960   50.4570 O   0  0  0  0  0  0  0  0  0  0  0  0
    8.5780   45.6670   50.8380 C   0  0  0  0  0  0  0  0  0  0  0  0
    8.8330   46.5170   52.0480 C   0  0  0  0  0  0  0  0  0  0  0  0
    9.7140   46.0860   53.0500 C   0  0  0  0  0  0  0  0  0  0  0  0
    9.9110   46.8680   54.1890 C   0  0  0  0  0  0  0  0  0  0  0  0
    9.2160   48.0720   54.3210 C   0  0  0  0  0  0  0  0  0  0  0  0
    8.3510   48.4680   53.3490 N   0  0  0  0  0  0  0  0  0  0  0  0
    8.1420   47.7240   52.2300 C   0  0  0  0  0  0  0  0  0  0  0  0
    5.9040   43.7670   50.5340 C   0  0  0  0  0  0  0  0  0  0  0  0
    6.8990   43.0860   49.2560 Cl  0  0  0  0  0  0  0  0  0  0  0  0
    4.8580   43.0040   51.0660 C   0  0  0  0  0  0  0  0  0  0  0  0
   -0.1696   41.7548   52.3678 H   0  0  0  0  0  0  0  0  0  0  0  0
    1.0728   41.2871   53.6021 H   0  0  0  0  0  0  0  0  0  0  0  0
   -0.3824   42.2627   55.0410 H   0  0  0  0  0  0  0  0  0  0  0  0
   -1.4381   43.7828   52.6160 H   0  0  0  0  0  0  0  0  0  0  0  0
   -2.2667   42.5603   53.6692 H   0  0  0  0  0  0  0  0  0  0  0  0
   -3.1491   44.8134   54.0968 H   0  0  0  0  0  0  0  0  0  0  0  0
   -3.1614   44.6408   56.4531 H   0  0  0  0  0  0  0  0  0  0  0  0
   -2.5242   43.0444   56.0899 H   0  0  0  0  0  0  0  0  0  0  0  0
   -1.1604   45.2661   57.4221 H   0  0  0  0  0  0  0  0  0  0  0  0
   -0.4655   43.6879   57.0843 H   0  0  0  0  0  0  0  0  0  0  0  0
    0.4614   45.9462   55.8492 H   0  0  0  0  0  0  0  0  0  0  0  0
    1.1709   44.6011   53.8815 H   0  0  0  0  0  0  0  0  0  0  0  0
    1.3937   43.7078   55.4435 H   0  0  0  0  0  0  0  0  0  0  0  0
   -1.6660   46.4930   54.9210 H   0  0  0  0  0  0  0  0  0  0  0  0
    3.2530   41.8270   53.1060 H   0  0  0  0  0  0  0  0  0  0  0  0
    3.6830   45.2190   53.3886 H   0  0  0  0  0  0  0  0  0  0  0  0
    5.5367   46.5850   52.4397 H   0  0  0  0  0  0  0  0  0  0  0  0
    8.7969   44.6152   51.0740 H   0  0  0  0  0  0  0  0  0  0  0  0
    9.2255   45.9952   50.0115 H   0  0  0  0  0  0  0  0  0  0  0  0
   10.2497   45.1318   52.9384 H   0  0  0  0  0  0  0  0  0  0  0  0
   10.6068   46.5392   54.9750 H   0  0  0  0  0  0  0  0  0  0  0  0
    9.3681   48.7001   55.2111 H   0  0  0  0  0  0  0  0  0  0  0  0
    7.4297   48.0694   51.4662 H   0  0  0  0  0  0  0  0  0  0  0  0
    4.6780   41.9866   50.6885 H   0  0  0  0  0  0  0  0  0  0  0  0
  1  2  2  0
  2  3  1  0
  3  4  1  0
  4  5  1  0
  5  6  1  0
  6  7  1  0
  7  8  1  0
  8  9  1  0
  9 10  1  0
  9 11  1  0
  2 12  1  0
 12 13  1  0
 13 14  2  0
 14 15  1  0
 15 16  2  0
 16 17  1  0
 17 18  1  0
 18 19  1  0
 19 20  2  0
 20 21  1  0
 21 22  2  0
 22 23  1  0
 23 24  2  0
 16 25  1  0
 25 26  1  0
 25 27  2  0
 10  4  1  0
 27 13  1  0
 11  6  1  0
 24 19  1  0
  3 28  1  0
  3 29  1  0
  4 30  1  1
  5 31  1  0
  5 32  1  0
  6 33  1  6
  7 34  1  0
  7 35  1  0
  8 36  1  0
  8 37  1  0
  9 38  1  1
 10 39  1  0
 10 40  1  0
 11 41  1  0
 12 42  1  0
 14 43  1  0
 15 44  1  0
 18 45  1  0
 18 46  1  0
 20 47  1  0
 21 48  1  0
 22 49  1  0
 24 50  1  0
 27 51  1  0
M  END
>  <meeko>  (1) 
{"is_sidechain": [false], "free_energy": -8.703, "intermolecular_energy": -11.756, "internal_energy": -0.563}

$$$$
ligand_89_conformer_5_docked
     RDKit          3D

 51 54  0  0  0  0  0  0  0  0999 V2000
    1.5870   43.4900   53.7190 O   0  0  0  0  0  0  0  0  0  0  0  0
    1.1100   42.7660   52.8030 C   0  0  0  0  0  0  0  0  0  0  0  0
   -0.2260   42.1110   53.0090 C   0  0  0  0  0  0  0  0  0  0  0  0
   -1.3860   43.0610   52.6510 C   0  0  2  0  0  0  0  0  0  0  0  0
   -1.1030   43.7810   51.3010 C   0  0  0  0  0  0  0  0  0  0  0  0
   -2.0100   45.0190   51.1090 C   0  0  1  0  0  0  0  0  0  0  0  0
   -3.4990   44.6520   51.1890 C   0  0  0  0  0  0  0  0  0  0  0  0
   -3.8390   44.8250   52.6670 C   0  0  0  0  0  0  0  0  0  0  0  0
   -2.5170   45.2750   53.3020 C   0  0  1  0  0  0  0  0  0  0  0  0
   -1.6810   44.0730   53.7990 C   0  0  0  0  0  0  0  0  0  0  0  0
   -1.7640   45.9180   52.2310 N   0  0  0  0  0  0  0  0  0  0  0  0
    1.7910   42.6320   51.5450 N   0  0  0  0  0  0  0  0  0  0  0  0
    3.1160   43.1300   51.2900 C   0  0  0  0  0  0  0  0  0  0  0  0
    3.4400   44.4830   51.4850 C   0  0  0  0  0  0  0  0  0  0  0  0
    4.7410   44.9380   51.2510 C   0  0  0  0  0  0  0  0  0  0  0  0
    5.7440   44.0450   50.8310 C   0  0  0  0  0  0  0  0  0  0  0  0
    7.0610   44.4620   50.5820 O   0  0  0  0  0  0  0  0  0  0  0  0
    7.4350   45.7920   50.2330 C   0  0  0  0  0  0  0  0  0  0  0  0
    8.0820   46.4460   51.4180 C   0  0  0  0  0  0  0  0  0  0  0  0
    9.4190   46.1750   51.7410 C   0  0  0  0  0  0  0  0  0  0  0  0
    9.9960   46.7600   52.8700 C   0  0  0  0  0  0  0  0  0  0  0  0
    9.2260   47.6040   53.6720 C   0  0  0  0  0  0  0  0  0  0  0  0
    7.9250   47.8430   53.3570 N   0  0  0  0  0  0  0  0  0  0  0  0
    7.3400   47.2860   52.2630 C   0  0  0  0  0  0  0  0  0  0  0  0
    5.4220   42.6890   50.6580 C   0  0  0  0  0  0  0  0  0  0  0  0
    6.6500   41.5420   50.1440 Cl  0  0  0  0  0  0  0  0  0  0  0  0
    4.1190   42.2370   50.8940 C   0  0  0  0  0  0  0  0  0  0  0  0
   -0.2872   41.2169   52.3711 H   0  0  0  0  0  0  0  0  0  0  0  0
   -0.3170   41.8428   54.0719 H   0  0  0  0  0  0  0  0  0  0  0  0
   -2.2960   42.4555   52.5274 H   0  0  0  0  0  0  0  0  0  0  0  0
   -0.0516   44.1037   51.2832 H   0  0  0  0  0  0  0  0  0  0  0  0
   -1.3133   43.0734   50.4855 H   0  0  0  0  0  0  0  0  0  0  0  0
   -1.7869   45.4590   50.1258 H   0  0  0  0  0  0  0  0  0  0  0  0
   -4.1031   45.3283   50.5664 H   0  0  0  0  0  0  0  0  0  0  0  0
   -3.7066   43.6363   50.8213 H   0  0  0  0  0  0  0  0  0  0  0  0
   -4.6179   45.5899   52.8021 H   0  0  0  0  0  0  0  0  0  0  0  0
   -4.2348   43.9045   53.1208 H   0  0  0  0  0  0  0  0  0  0  0  0
   -2.7200   45.9302   54.1620 H   0  0  0  0  0  0  0  0  0  0  0  0
   -0.7267   44.4444   54.2006 H   0  0  0  0  0  0  0  0  0  0  0  0
   -2.2595   43.5511   54.5755 H   0  0  0  0  0  0  0  0  0  0  0  0
   -2.2060   46.8460   52.0200 H   0  0  0  0  0  0  0  0  0  0  0  0
    1.2520   42.2430   50.7380 H   0  0  0  0  0  0  0  0  0  0  0  0
    2.6662   45.1878   51.8235 H   0  0  0  0  0  0  0  0  0  0  0  0
    4.9822   46.0014   51.3962 H   0  0  0  0  0  0  0  0  0  0  0  0
    8.1447   45.7668   49.3929 H   0  0  0  0  0  0  0  0  0  0  0  0
    6.5426   46.3624   49.9358 H   0  0  0  0  0  0  0  0  0  0  0  0
   10.0132   45.5019   51.1054 H   0  0  0  0  0  0  0  0  0  0  0  0
   11.0468   46.5578   53.1248 H   0  0  0  0  0  0  0  0  0  0  0  0
    9.6721   48.0762   54.5597 H   0  0  0  0  0  0  0  0  0  0  0  0
    6.2832   47.4942   52.0398 H   0  0  0  0  0  0  0  0  0  0  0  0
    3.8806   41.1707   50.7673 H   0  0  0  0  0  0  0  0  0  0  0  0
  1  2  2  0
  2  3  1  0
  3  4  1  0
  4  5  1  0
  5  6  1  0
  6  7  1  0
  7  8  1  0
  8  9  1  0
  9 10  1  0
  9 11  1  0
  2 12  1  0
 12 13  1  0
 13 14  2  0
 14 15  1  0
 15 16  2  0
 16 17  1  0
 17 18  1  0
 18 19  1  0
 19 20  2  0
 20 21  1  0
 21 22  2  0
 22 23  1  0
 23 24  2  0
 16 25  1  0
 25 26  1  0
 25 27  2  0
 10  4  1  0
 27 13  1  0
 11  6  1  0
 24 19  1  0
  3 28  1  0
  3 29  1  0
  4 30  1  6
  5 31  1  0
  5 32  1  0
  6 33  1  6
  7 34  1  0
  7 35  1  0
  8 36  1  0
  8 37  1  0
  9 38  1  1
 10 39  1  0
 10 40  1  0
 11 41  1  0
 12 42  1  0
 14 43  1  0
 15 44  1  0
 18 45  1  0
 18 46  1  0
 20 47  1  0
 21 48  1  0
 22 49  1  0
 24 50  1  0
 27 51  1  0
M  END
>  <meeko>  (2) 
{"is_sidechain": [false], "free_energy": -8.353, "intermolecular_energy": -11.562, "internal_energy": -0.283}

$$$$
ligand_89_conformer_5_docked
     RDKit          3D

 51 54  0  0  0  0  0  0  0  0999 V2000
    0.6520   43.4070   51.4850 O   0  0  0  0  0  0  0  0  0  0  0  0
    0.2370   44.5340   51.8700 C   0  0  0  0  0  0  0  0  0  0  0  0
   -1.2420   44.7640   51.9990 C   0  0  0  0  0  0  0  0  0  0  0  0
   -1.6580   44.9760   53.4680 C   0  0  2  0  0  0  0  0  0  0  0  0
   -1.0280   43.8790   54.3750 C   0  0  0  0  0  0  0  0  0  0  0  0
   -1.7290   43.8000   55.7510 C   0  0  1  0  0  0  0  0  0  0  0  0
   -1.6990   45.1480   56.4850 C   0  0  0  0  0  0  0  0  0  0  0  0
   -2.9870   45.8360   56.0410 C   0  0  0  0  0  0  0  0  0  0  0  0
   -3.6410   44.8210   55.0950 C   0  0  1  0  0  0  0  0  0  0  0  0
   -3.2070   45.0430   53.6280 C   0  0  0  0  0  0  0  0  0  0  0  0
   -3.1390   43.5160   55.5070 N   0  0  0  0  0  0  0  0  0  0  0  0
    1.1620   45.5620   52.2590 N   0  0  0  0  0  0  0  0  0  0  0  0
    2.5860   45.4760   52.0720 C   0  0  0  0  0  0  0  0  0  0  0  0
    3.1880   45.8390   50.8560 C   0  0  0  0  0  0  0  0  0  0  0  0
    4.5760   45.7680   50.7060 C   0  0  0  0  0  0  0  0  0  0  0  0
    5.3880   45.3440   51.7760 C   0  0  0  0  0  0  0  0  0  0  0  0
    6.7840   45.2550   51.6650 O   0  0  0  0  0  0  0  0  0  0  0  0
    7.6410   46.3440   51.3330 C   0  0  0  0  0  0  0  0  0  0  0  0
    8.3370   46.8170   52.5740 C   0  0  0  0  0  0  0  0  0  0  0  0
    9.7160   46.6200   52.7380 C   0  0  0  0  0  0  0  0  0  0  0  0
   10.3430   47.0300   53.9160 C   0  0  0  0  0  0  0  0  0  0  0  0
    9.5830   47.6230   54.9260 C   0  0  0  0  0  0  0  0  0  0  0  0
    8.2440   47.7910   54.7600 N   0  0  0  0  0  0  0  0  0  0  0  0
    7.6090   47.4010   53.6230 C   0  0  0  0  0  0  0  0  0  0  0  0
    4.7850   45.0030   52.9960 C   0  0  0  0  0  0  0  0  0  0  0  0
    5.7660   44.4800   54.3580 Cl  0  0  0  0  0  0  0  0  0  0  0  0
    3.3950   45.0760   53.1430 C   0  0  0  0  0  0  0  0  0  0  0  0
   -1.5163   45.6569   51.4180 H   0  0  0  0  0  0  0  0  0  0  0  0
   -1.7629   43.8726   51.6194 H   0  0  0  0  0  0  0  0  0  0  0  0
   -1.2685   45.9515   53.7947 H   0  0  0  0  0  0  0  0  0  0  0  0
   -1.1199   42.9050   53.8720 H   0  0  0  0  0  0  0  0  0  0  0  0
    0.0276   44.1388   54.5432 H   0  0  0  0  0  0  0  0  0  0  0  0
   -1.2156   43.0360   56.3532 H   0  0  0  0  0  0  0  0  0  0  0  0
   -1.6899   45.0001   57.5750 H   0  0  0  0  0  0  0  0  0  0  0  0
   -0.8005   45.7382   56.2519 H   0  0  0  0  0  0  0  0  0  0  0  0
   -3.6376   46.0426   56.9036 H   0  0  0  0  0  0  0  0  0  0  0  0
   -2.8042   46.8079   55.5593 H   0  0  0  0  0  0  0  0  0  0  0  0
   -4.7358   44.9147   55.1466 H   0  0  0  0  0  0  0  0  0  0  0  0
   -3.6642   44.2646   52.9994 H   0  0  0  0  0  0  0  0  0  0  0  0
   -3.5403   46.0450   53.3200 H   0  0  0  0  0  0  0  0  0  0  0  0
   -3.5910   43.2530   56.4170 H   0  0  0  0  0  0  0  0  0  0  0  0
    0.7900   46.3730   52.8020 H   0  0  0  0  0  0  0  0  0  0  0  0
    2.5639   46.1810   50.0172 H   0  0  0  0  0  0  0  0  0  0  0  0
    5.0370   46.0450   49.7464 H   0  0  0  0  0  0  0  0  0  0  0  0
    8.3872   46.0138   50.5954 H   0  0  0  0  0  0  0  0  0  0  0  0
    7.0475   47.1654   50.9052 H   0  0  0  0  0  0  0  0  0  0  0  0
   10.3028   46.1429   51.9392 H   0  0  0  0  0  0  0  0  0  0  0  0
   11.4258   46.8872   54.0472 H   0  0  0  0  0  0  0  0  0  0  0  0
   10.0676   47.9544   55.8562 H   0  0  0  0  0  0  0  0  0  0  0  0
    6.5227   47.5432   53.5246 H   0  0  0  0  0  0  0  0  0  0  0  0
    2.9342   44.8171   54.1077 H   0  0  0  0  0  0  0  0  0  0  0  0
  1  2  2  0
  2  3  1  0
  3  4  1  0
  4  5  1  0
  5  6  1  0
  6  7  1  0
  7  8  1  0
  8  9  1  0
  9 10  1  0
  9 11  1  0
  2 12  1  0
 12 13  1  0
 13 14  2  0
 14 15  1  0
 15 16  2  0
 16 17  1  0
 17 18  1  0
 18 19  1  0
 19 20  2  0
 20 21  1  0
 21 22  2  0
 22 23  1  0
 23 24  2  0
 16 25  1  0
 25 26  1  0
 25 27  2  0
 10  4  1  0
 27 13  1  0
 11  6  1  0
 24 19  1  0
  3 28  1  0
  3 29  1  0
  4 30  1  1
  5 31  1  0
  5 32  1  0
  6 33  1  1
  7 34  1  0
  7 35  1  0
  8 36  1  0
  8 37  1  0
  9 38  1  6
 10 39  1  0
 10 40  1  0
 11 41  1  0
 12 42  1  0
 14 43  1  0
 15 44  1  0
 18 45  1  0
 18 46  1  0
 20 47  1  0
 21 48  1  0
 22 49  1  0
 24 50  1  0
 27 51  1  0
M  END
>  <meeko>  (3) 
{"is_sidechain": [false], "free_energy": -8.211, "intermolecular_energy": -10.87, "internal_energy": -0.783}

$$$$
ligand_89_conformer_5_docked
     RDKit          3D

 51 54  0  0  0  0  0  0  0  0999 V2000
    0.5980   44.4790   52.1710 O   0  0  0  0  0  0  0  0  0  0  0  0
    0.7010   43.4960   52.9550 C   0  0  0  0  0  0  0  0  0  0  0  0
   -0.5060   43.0500   53.7300 C   0  0  0  0  0  0  0  0  0  0  0  0
   -0.9930   44.1430   54.7010 C   0  0  2  0  0  0  0  0  0  0  0  0
    0.1420   44.5370   55.6910 C   0  0  0  0  0  0  0  0  0  0  0  0
   -0.4060   45.3040   56.9170 C   0  0  1  0  0  0  0  0  0  0  0  0
   -1.1800   46.5640   56.5020 C   0  0  0  0  0  0  0  0  0  0  0  0
   -2.6200   46.0780   56.3570 C   0  0  0  0  0  0  0  0  0  0  0  0
   -2.5440   44.5850   56.7030 C   0  0  1  0  0  0  0  0  0  0  0  0
   -2.2940   43.7180   55.4480 C   0  0  0  0  0  0  0  0  0  0  0  0
   -1.3820   44.4410   57.5730 N   0  0  0  0  0  0  0  0  0  0  0  0
    1.9290   42.7570   53.0470 N   0  0  0  0  0  0  0  0  0  0  0  0
    3.1620   43.1660   52.4290 C   0  0  0  0  0  0  0  0  0  0  0  0
    3.8250   44.3390   52.8230 C   0  0  0  0  0  0  0  0  0  0  0  0
    5.0340   44.7030   52.2230 C   0  0  0  0  0  0  0  0  0  0  0  0
    5.6080   43.8920   51.2270 C   0  0  0  0  0  0  0  0  0  0  0  0
    6.8180   44.2240   50.5970 O   0  0  0  0  0  0  0  0  0  0  0  0
    7.2040   45.5460   50.2320 C   0  0  0  0  0  0  0  0  0  0  0  0
    8.1360   46.0890   51.2740 C   0  0  0  0  0  0  0  0  0  0  0  0
    7.7030   47.0690   52.1790 C   0  0  0  0  0  0  0  0  0  0  0  0
    8.5930   47.5950   53.1170 C   0  0  0  0  0  0  0  0  0  0  0  0
    9.9140   47.1430   53.1350 C   0  0  0  0  0  0  0  0  0  0  0  0
   10.3240   46.2060   52.2400 N   0  0  0  0  0  0  0  0  0  0  0  0
    9.4770   45.6770   51.3170 C   0  0  0  0  0  0  0  0  0  0  0  0
    4.9550   42.7080   50.8500 C   0  0  0  0  0  0  0  0  0  0  0  0
    5.6460   41.6630   49.6170 Cl  0  0  0  0  0  0  0  0  0  0  0  0
    3.7450   42.3460   51.4540 C   0  0  0  0  0  0  0  0  0  0  0  0
   -1.3158   42.8130   53.0242 H   0  0  0  0  0  0  0  0  0  0  0  0
   -0.2276   42.1647   54.3205 H   0  0  0  0  0  0  0  0  0  0  0  0
   -1.2504   45.0334   54.1086 H   0  0  0  0  0  0  0  0  0  0  0  0
    0.6446   43.6224   56.0387 H   0  0  0  0  0  0  0  0  0  0  0  0
    0.8444   45.1969   55.1608 H   0  0  0  0  0  0  0  0  0  0  0  0
    0.4458   45.5820   57.5550 H   0  0  0  0  0  0  0  0  0  0  0  0
   -1.1054   47.3420   57.2760 H   0  0  0  0  0  0  0  0  0  0  0  0
   -0.7898   47.0172   55.5788 H   0  0  0  0  0  0  0  0  0  0  0  0
   -3.2839   46.6081   57.0558 H   0  0  0  0  0  0  0  0  0  0  0  0
   -3.0292   46.2596   55.3522 H   0  0  0  0  0  0  0  0  0  0  0  0
   -3.4892   44.2591   57.1617 H   0  0  0  0  0  0  0  0  0  0  0  0
   -2.2009   42.6658   55.7548 H   0  0  0  0  0  0  0  0  0  0  0  0
   -3.1429   43.8560   54.7622 H   0  0  0  0  0  0  0  0  0  0  0  0
   -1.6130   44.8470   58.5120 H   0  0  0  0  0  0  0  0  0  0  0  0
    1.9000   41.8170   53.5010 H   0  0  0  0  0  0  0  0  0  0  0  0
    3.3907   44.9753   53.6082 H   0  0  0  0  0  0  0  0  0  0  0  0
    5.5399   45.6297   52.5317 H   0  0  0  0  0  0  0  0  0  0  0  0
    7.7129   45.5255   49.2570 H   0  0  0  0  0  0  0  0  0  0  0  0
    6.3127   46.1867   50.1612 H   0  0  0  0  0  0  0  0  0  0  0  0
    6.6620   47.4232   52.1497 H   0  0  0  0  0  0  0  0  0  0  0  0
    8.2570   48.3579   53.8347 H   0  0  0  0  0  0  0  0  0  0  0  0
   10.6229   47.5453   53.8736 H   0  0  0  0  0  0  0  0  0  0  0  0
    9.8435   44.9249   50.6028 H   0  0  0  0  0  0  0  0  0  0  0  0
    3.2477   41.4097   51.1606 H   0  0  0  0  0  0  0  0  0  0  0  0
  1  2  2  0
  2  3  1  0
  3  4  1  0
  4  5  1  0
  5  6  1  0
  6  7  1  0
  7  8  1  0
  8  9  1  0
  9 10  1  0
  9 11  1  0
  2 12  1  0
 12 13  1  0
 13 14  2  0
 14 15  1  0
 15 16  2  0
 16 17  1  0
 17 18  1  0
 18 19  1  0
 19 20  2  0
 20 21  1  0
 21 22  2  0
 22 23  1  0
 23 24  2  0
 16 25  1  0
 25 26  1  0
 25 27  2  0
 10  4  1  0
 27 13  1  0
 11  6  1  0
 24 19  1  0
  3 28  1  0
  3 29  1  0
  4 30  1  6
  5 31  1  0
  5 32  1  0
  6 33  1  1
  7 34  1  0
  7 35  1  0
  8 36  1  0
  8 37  1  0
  9 38  1  1
 10 39  1  0
 10 40  1  0
 11 41  1  0
 12 42  1  0
 14 43  1  0
 15 44  1  0
 18 45  1  0
 18 46  1  0
 20 47  1  0
 21 48  1  0
 22 49  1  0
 24 50  1  0
 27 51  1  0
M  END
>  <meeko>  (4) 
{"is_sidechain": [false], "free_energy": -8.067, "intermolecular_energy": -10.754, "internal_energy": -0.706}

$$$$
ligand_89_conformer_5_docked
     RDKit          3D

 51 54  0  0  0  0  0  0  0  0999 V2000
    3.7650   45.8770   50.9290 O   0  0  0  0  0  0  0  0  0  0  0  0
    4.6690   45.1860   51.4730 C   0  0  0  0  0  0  0  0  0  0  0  0
    6.0150   45.0910   50.8120 C   0  0  0  0  0  0  0  0  0  0  0  0
    7.1260   45.6910   51.6950 C   0  0  2  0  0  0  0  0  0  0  0  0
    6.6910   47.0810   52.2450 C   0  0  0  0  0  0  0  0  0  0  0  0
    7.8970   47.8900   52.7780 C   0  0  1  0  0  0  0  0  0  0  0  0
    8.6590   47.1240   53.8700 C   0  0  0  0  0  0  0  0  0  0  0  0
    9.7210   46.3460   53.0980 C   0  0  0  0  0  0  0  0  0  0  0  0
    9.4740   46.7340   51.6340 C   0  0  1  0  0  0  0  0  0  0  0  0
    8.4890   45.7650   50.9420 C   0  0  0  0  0  0  0  0  0  0  0  0
    8.8390   48.0470   51.6760 N   0  0  0  0  0  0  0  0  0  0  0  0
    4.4480   44.5630   52.7480 N   0  0  0  0  0  0  0  0  0  0  0  0
    3.1700   44.5090   53.4060 C   0  0  0  0  0  0  0  0  0  0  0  0
    2.7810   45.4890   54.3330 C   0  0  0  0  0  0  0  0  0  0  0  0
    1.5240   45.4260   54.9430 C   0  0  0  0  0  0  0  0  0  0  0  0
    0.6300   44.3870   54.6250 C   0  0  0  0  0  0  0  0  0  0  0  0
   -0.6390   44.2850   55.2180 O   0  0  0  0  0  0  0  0  0  0  0  0
   -0.9060   44.5080   56.6000 C   0  0  0  0  0  0  0  0  0  0  0  0
   -1.6620   45.7950   56.7510 C   0  0  0  0  0  0  0  0  0  0  0  0
   -2.9080   45.9680   56.1310 C   0  0  0  0  0  0  0  0  0  0  0  0
   -3.5820   47.1860   56.2480 C   0  0  0  0  0  0  0  0  0  0  0  0
   -2.9970   48.2240   56.9760 C   0  0  0  0  0  0  0  0  0  0  0  0
   -1.7800   48.0470   57.5560 N   0  0  0  0  0  0  0  0  0  0  0  0
   -1.1040   46.8720   57.4580 C   0  0  0  0  0  0  0  0  0  0  0  0
    1.0130   43.4210   53.6820 C   0  0  0  0  0  0  0  0  0  0  0  0
   -0.0820   42.1150   53.2520 Cl  0  0  0  0  0  0  0  0  0  0  0  0
    2.2700   43.4880   53.0730 C   0  0  0  0  0  0  0  0  0  0  0  0
    6.2443   44.0324   50.6204 H   0  0  0  0  0  0  0  0  0  0  0  0
    5.9772   45.6619   49.8725 H   0  0  0  0  0  0  0  0  0  0  0  0
    7.2799   45.0191   52.5522 H   0  0  0  0  0  0  0  0  0  0  0  0
    6.2103   47.6498   51.4355 H   0  0  0  0  0  0  0  0  0  0  0  0
    5.9938   46.9159   53.0797 H   0  0  0  0  0  0  0  0  0  0  0  0
    7.5200   48.8407   53.1831 H   0  0  0  0  0  0  0  0  0  0  0  0
    9.1247   47.8195   54.5837 H   0  0  0  0  0  0  0  0  0  0  0  0
    8.0044   46.4715   54.4665 H   0  0  0  0  0  0  0  0  0  0  0  0
   10.7314   46.6426   53.4160 H   0  0  0  0  0  0  0  0  0  0  0  0
    9.6561   45.2607   53.2652 H   0  0  0  0  0  0  0  0  0  0  0  0
   10.4225   46.7132   51.0773 H   0  0  0  0  0  0  0  0  0  0  0  0
    8.3097   46.1133   49.9141 H   0  0  0  0  0  0  0  0  0  0  0  0
    8.9373   44.7605   50.9461 H   0  0  0  0  0  0  0  0  0  0  0  0
    9.5590   48.7600   51.9480 H   0  0  0  0  0  0  0  0  0  0  0  0
    5.2830   44.2220   53.2760 H   0  0  0  0  0  0  0  0  0  0  0  0
    3.4687   46.3110   54.5809 H   0  0  0  0  0  0  0  0  0  0  0  0
    1.2326   46.1931   55.6756 H   0  0  0  0  0  0  0  0  0  0  0  0
   -1.5083   43.6779   56.9977 H   0  0  0  0  0  0  0  0  0  0  0  0
    0.0411   44.5664   57.1563 H   0  0  0  0  0  0  0  0  0  0  0  0
   -3.3542   45.1453   55.5530 H   0  0  0  0  0  0  0  0  0  0  0  0
   -4.5635   47.3259   55.7715 H   0  0  0  0  0  0  0  0  0  0  0  0
   -3.5210   49.1855   57.0804 H   0  0  0  0  0  0  0  0  0  0  0  0
   -0.1179   46.7646   57.9335 H   0  0  0  0  0  0  0  0  0  0  0  0
    2.5548   42.7325   52.3259 H   0  0  0  0  0  0  0  0  0  0  0  0
  1  2  2  0
  2  3  1  0
  3  4  1  0
  4  5  1  0
  5  6  1  0
  6  7  1  0
  7  8  1  0
  8  9  1  0
  9 10  1  0
  9 11  1  0
  2 12  1  0
 12 13  1  0
 13 14  2  0
 14 15  1  0
 15 16  2  0
 16 17  1  0
 17 18  1  0
 18 19  1  0
 19 20  2  0
 20 21  1  0
 21 22  2  0
 22 23  1  0
 23 24  2  0
 16 25  1  0
 25 26  1  0
 25 27  2  0
 10  4  1  0
 27 13  1  0
 11  6  1  0
 24 19  1  0
  3 28  1  0
  3 29  1  0
  4 30  1  1
  5 31  1  0
  5 32  1  0
  6 33  1  1
  7 34  1  0
  7 35  1  0
  8 36  1  0
  8 37  1  0
  9 38  1  6
 10 39  1  0
 10 40  1  0
 11 41  1  0
 12 42  1  0
 14 43  1  0
 15 44  1  0
 18 45  1  0
 18 46  1  0
 20 47  1  0
 21 48  1  0
 22 49  1  0
 24 50  1  0
 27 51  1  0
M  END
>  <meeko>  (5) 
{"is_sidechain": [false], "free_energy": -8.025, "intermolecular_energy": -10.661, "internal_energy": -0.741}

$$$$
