MODEL 1
REMARK VINA RESULT:    -7.768      0.000      0.000
REMARK INTER + INTRA:         -11.596
REMARK INTER:                 -10.947
REMARK INTRA:                  -0.650
REMARK UNBOUND:                -0.650
REMARK SMILES O=C(Nc1cccc(OCCF)c1)c1ccc(Nc2ncccn2)cc1
REMARK SMILES IDX 4 1 5 2 6 3 7 4 8 5 13 6 3 7 1 8 2 9 14 11 15 12 26 13 16 14
REMARK SMILES IDX 25 15 17 16 18 17 19 19 20 20 24 21 21 22 23 23 22 24 9 25
REMARK SMILES IDX 10 26 11 27 12 28
REMARK H PARENT 3 10 18 18
ROOT
ATOM      1  C   UNL     1      -0.030  44.298  54.840  1.00  0.00     0.045 A 
ATOM      2  C   UNL     1      -1.246  43.681  54.501  1.00  0.00     0.026 A 
ATOM      3  C   UNL     1      -2.367  43.839  55.318  1.00  0.00     0.006 A 
ATOM      4  C   UNL     1      -2.290  44.624  56.470  1.00  0.00     0.046 A 
ATOM      5  C   UNL     1      -1.096  45.270  56.813  1.00  0.00     0.121 A 
ATOM      6  C   UNL     1       0.034  45.104  55.990  1.00  0.00     0.072 A 
ENDROOT
BRANCH   1   7
ATOM      7  N   UNL     1       1.134  44.168  54.004  1.00  0.00    -0.322 N 
ATOM      8  O   UNL     1       0.517  45.735  52.385  1.00  0.00    -0.269 OA
ATOM      9  C   UNL     1       1.440  45.060  52.918  1.00  0.00     0.255 C 
ATOM     10  H   UNL     1       1.727  43.316  54.120  1.00  0.00     0.170 HD
BRANCH   9  11
ATOM     11  C   UNL     1       2.819  45.158  52.380  1.00  0.00     0.040 A 
ATOM     12  C   UNL     1       3.878  44.440  52.966  1.00  0.00     0.016 A 
ATOM     13  C   UNL     1       3.091  45.989  51.279  1.00  0.00     0.016 A 
ATOM     14  C   UNL     1       5.175  44.547  52.459  1.00  0.00     0.027 A 
ATOM     15  C   UNL     1       4.390  46.093  50.771  1.00  0.00     0.027 A 
ATOM     16  C   UNL     1       5.445  45.389  51.366  1.00  0.00     0.041 A 
BRANCH  16  17
ATOM     17  N   UNL     1       6.767  45.495  50.810  1.00  0.00    -0.324 N 
ATOM     18  H   UNL     1       6.899  45.242  49.805  1.00  0.00     0.170 HD
BRANCH  17  19
ATOM     19  C   UNL     1       7.897  46.032  51.512  1.00  0.00     0.227 A 
ATOM     20  N   UNL     1       9.159  45.610  51.229  1.00  0.00    -0.221 NA
ATOM     21  N   UNL     1       7.698  46.937  52.508  1.00  0.00    -0.221 NA
ATOM     22  C   UNL     1      10.230  46.094  51.911  1.00  0.00     0.117 A 
ATOM     23  C   UNL     1       8.742  47.445  53.214  1.00  0.00     0.117 A 
ATOM     24  C   UNL     1      10.042  47.031  52.925  1.00  0.00     0.040 A 
ENDBRANCH  17  19
ENDBRANCH  16  17
ENDBRANCH   9  11
ENDBRANCH   1   7
BRANCH   5  25
ATOM     25  O   UNL     1      -1.084  46.051  57.981  1.00  0.00    -0.491 OA
BRANCH  25  26
ATOM     26  C   UNL     1      -0.879  47.463  58.046  1.00  0.00     0.263 C 
BRANCH  26  27
ATOM     27  C   UNL     1      -0.167  47.855  59.338  1.00  0.00     0.256 C 
ATOM     28  F   UNL     1       1.153  47.443  59.317  1.00  0.00    -0.247 F 
ENDBRANCH  26  27
ENDBRANCH  25  26
ENDBRANCH   5  25
TORSDOF 7
ENDMDL
MODEL 2
REMARK VINA RESULT:    -7.756      3.471      9.120
REMARK INTER + INTRA:         -11.580
REMARK INTER:                 -11.218
REMARK INTRA:                  -0.362
REMARK UNBOUND:                -0.650
REMARK SMILES O=C(Nc1cccc(OCCF)c1)c1ccc(Nc2ncccn2)cc1
REMARK SMILES IDX 4 1 5 2 6 3 7 4 8 5 13 6 3 7 1 8 2 9 14 11 15 12 26 13 16 14
REMARK SMILES IDX 25 15 17 16 18 17 19 19 20 20 24 21 21 22 23 23 22 24 9 25
REMARK SMILES IDX 10 26 11 27 12 28
REMARK H PARENT 3 10 18 18
ROOT
ATOM      1  C   UNL     1       5.606  45.711  51.806  1.00  0.00     0.045 A 
ATOM      2  C   UNL     1       5.875  44.913  50.681  1.00  0.00     0.026 A 
ATOM      3  C   UNL     1       7.149  44.904  50.113  1.00  0.00     0.006 A 
ATOM      4  C   UNL     1       8.170  45.677  50.668  1.00  0.00     0.046 A 
ATOM      5  C   UNL     1       7.933  46.459  51.804  1.00  0.00     0.121 A 
ATOM      6  C   UNL     1       6.644  46.470  52.372  1.00  0.00     0.072 A 
ENDROOT
BRANCH   1   7
ATOM      7  N   UNL     1       4.306  45.721  52.424  1.00  0.00    -0.322 N 
ATOM      8  O   UNL     1       4.113  43.417  52.753  1.00  0.00    -0.269 OA
ATOM      9  C   UNL     1       3.716  44.576  53.060  1.00  0.00     0.255 C 
ATOM     10  H   UNL     1       3.715  46.575  52.304  1.00  0.00     0.170 HD
BRANCH   9  11
ATOM     11  C   UNL     1       2.610  44.733  54.036  1.00  0.00     0.040 A 
ATOM     12  C   UNL     1       1.320  44.249  53.752  1.00  0.00     0.016 A 
ATOM     13  C   UNL     1       2.835  45.385  55.261  1.00  0.00     0.016 A 
ATOM     14  C   UNL     1       0.282  44.411  54.673  1.00  0.00     0.027 A 
ATOM     15  C   UNL     1       1.796  45.543  56.183  1.00  0.00     0.027 A 
ATOM     16  C   UNL     1       0.508  45.075  55.891  1.00  0.00     0.041 A 
BRANCH  16  17
ATOM     17  N   UNL     1      -0.538  45.230  56.866  1.00  0.00    -0.324 N 
ATOM     18  H   UNL     1      -1.029  44.371  57.201  1.00  0.00     0.170 HD
BRANCH  17  19
ATOM     19  C   UNL     1      -0.878  46.475  57.493  1.00  0.00     0.227 A 
ATOM     20  N   UNL     1      -0.226  46.893  58.612  1.00  0.00    -0.221 NA
ATOM     21  N   UNL     1      -1.899  47.220  56.992  1.00  0.00    -0.221 NA
ATOM     22  C   UNL     1      -0.563  48.056  59.228  1.00  0.00     0.117 A 
ATOM     23  C   UNL     1      -2.268  48.389  57.579  1.00  0.00     0.117 A 
ATOM     24  C   UNL     1      -1.600  48.836  58.718  1.00  0.00     0.040 A 
ENDBRANCH  17  19
ENDBRANCH  16  17
ENDBRANCH   9  11
ENDBRANCH   1   7
BRANCH   5  25
ATOM     25  O   UNL     1       9.003  47.211  52.320  1.00  0.00    -0.491 OA
BRANCH  25  26
ATOM     26  C   UNL     1       9.926  46.781  53.322  1.00  0.00     0.263 C 
BRANCH  26  27
ATOM     27  C   UNL     1       9.665  47.493  54.648  1.00  0.00     0.256 C 
ATOM     28  F   UNL     1      10.780  47.438  55.464  1.00  0.00    -0.247 F 
ENDBRANCH  26  27
ENDBRANCH  25  26
ENDBRANCH   5  25
TORSDOF 7
ENDMDL
MODEL 3
REMARK VINA RESULT:    -7.534      6.580      9.256
REMARK INTER + INTRA:         -11.266
REMARK INTER:                 -10.826
REMARK INTRA:                  -0.440
REMARK UNBOUND:                -0.650
REMARK SMILES O=C(Nc1cccc(OCCF)c1)c1ccc(Nc2ncccn2)cc1
REMARK SMILES IDX 4 1 5 2 6 3 7 4 8 5 13 6 3 7 1 8 2 9 14 11 15 12 26 13 16 14
REMARK SMILES IDX 25 15 17 16 18 17 19 19 20 20 24 21 21 22 23 23 22 24 9 25
REMARK SMILES IDX 10 26 11 27 12 28
REMARK H PARENT 3 10 18 18
ROOT
ATOM      1  C   UNL     1       3.550  40.307  47.886  1.00  0.00     0.045 A 
ATOM      2  C   UNL     1       3.083  39.010  48.158  1.00  0.00     0.026 A 
ATOM      3  C   UNL     1       2.787  38.134  47.112  1.00  0.00     0.006 A 
ATOM      4  C   UNL     1       2.968  38.538  45.788  1.00  0.00     0.046 A 
ATOM      5  C   UNL     1       3.457  39.815  45.493  1.00  0.00     0.121 A 
ATOM      6  C   UNL     1       3.749  40.699  46.551  1.00  0.00     0.072 A 
ENDROOT
BRANCH   1   7
ATOM      7  N   UNL     1       3.882  41.221  48.946  1.00  0.00    -0.322 N 
ATOM      8  O   UNL     1       6.175  40.784  49.012  1.00  0.00    -0.269 OA
ATOM      9  C   UNL     1       5.229  41.564  49.312  1.00  0.00     0.255 C 
ATOM     10  H   UNL     1       3.106  41.566  49.555  1.00  0.00     0.170 HD
BRANCH   9  11
ATOM     11  C   UNL     1       5.518  42.798  50.083  1.00  0.00     0.040 A 
ATOM     12  C   UNL     1       6.566  43.658  49.707  1.00  0.00     0.016 A 
ATOM     13  C   UNL     1       4.752  43.118  51.218  1.00  0.00     0.016 A 
ATOM     14  C   UNL     1       6.837  44.813  50.445  1.00  0.00     0.027 A 
ATOM     15  C   UNL     1       5.023  44.276  51.954  1.00  0.00     0.027 A 
ATOM     16  C   UNL     1       6.078  45.123  51.586  1.00  0.00     0.041 A 
BRANCH  16  17
ATOM     17  N   UNL     1       6.320  46.318  52.347  1.00  0.00    -0.324 N 
ATOM     18  H   UNL     1       5.512  46.953  52.536  1.00  0.00     0.170 HD
BRANCH  17  19
ATOM     19  C   UNL     1       7.576  46.644  52.959  1.00  0.00     0.227 A 
ATOM     20  N   UNL     1       7.622  47.263  54.170  1.00  0.00    -0.221 NA
ATOM     21  N   UNL     1       8.734  46.376  52.296  1.00  0.00    -0.221 NA
ATOM     22  C   UNL     1       8.809  47.600  54.741  1.00  0.00     0.117 A 
ATOM     23  C   UNL     1       9.940  46.698  52.833  1.00  0.00     0.117 A 
ATOM     24  C   UNL     1      10.002  47.320  54.079  1.00  0.00     0.040 A 
ENDBRANCH  17  19
ENDBRANCH  16  17
ENDBRANCH   9  11
ENDBRANCH   1   7
BRANCH   5  25
ATOM     25  O   UNL     1       3.624  40.160  44.140  1.00  0.00    -0.491 OA
BRANCH  25  26
ATOM     26  C   UNL     1       4.500  39.519  43.212  1.00  0.00     0.263 C 
BRANCH  26  27
ATOM     27  C   UNL     1       5.841  40.245  43.135  1.00  0.00     0.256 C 
ATOM     28  F   UNL     1       5.754  41.503  43.703  1.00  0.00    -0.247 F 
ENDBRANCH  26  27
ENDBRANCH  25  26
ENDBRANCH   5  25
TORSDOF 7
ENDMDL
MODEL 4
REMARK VINA RESULT:    -7.519      3.490      9.447
REMARK INTER + INTRA:         -11.246
REMARK INTER:                 -10.751
REMARK INTRA:                  -0.495
REMARK UNBOUND:                -0.650
REMARK SMILES O=C(Nc1cccc(OCCF)c1)c1ccc(Nc2ncccn2)cc1
REMARK SMILES IDX 4 1 5 2 6 3 7 4 8 5 13 6 3 7 1 8 2 9 14 11 15 12 26 13 16 14
REMARK SMILES IDX 25 15 17 16 18 17 19 19 20 20 24 21 21 22 23 23 22 24 9 25
REMARK SMILES IDX 10 26 11 27 12 28
REMARK H PARENT 3 10 18 18
ROOT
ATOM      1  C   UNL     1       5.580  44.156  50.655  1.00  0.00     0.045 A 
ATOM      2  C   UNL     1       6.174  43.160  49.862  1.00  0.00     0.026 A 
ATOM      3  C   UNL     1       7.477  43.322  49.388  1.00  0.00     0.006 A 
ATOM      4  C   UNL     1       8.203  44.470  49.712  1.00  0.00     0.046 A 
ATOM      5  C   UNL     1       7.641  45.463  50.522  1.00  0.00     0.121 A 
ATOM      6  C   UNL     1       6.324  45.299  50.994  1.00  0.00     0.072 A 
ENDROOT
BRANCH   1   7
ATOM      7  N   UNL     1       4.246  44.003  51.174  1.00  0.00    -0.322 N 
ATOM      8  O   UNL     1       4.793  44.111  53.442  1.00  0.00    -0.269 OA
ATOM      9  C   UNL     1       3.900  44.202  52.555  1.00  0.00     0.255 C 
ATOM     10  H   UNL     1       3.514  43.618  50.535  1.00  0.00     0.170 HD
BRANCH   9  11
ATOM     11  C   UNL     1       2.496  44.460  52.957  1.00  0.00     0.040 A 
ATOM     12  C   UNL     1       1.459  44.460  52.007  1.00  0.00     0.016 A 
ATOM     13  C   UNL     1       2.183  44.726  54.302  1.00  0.00     0.016 A 
ATOM     14  C   UNL     1       0.140  44.715  52.394  1.00  0.00     0.027 A 
ATOM     15  C   UNL     1       0.863  44.978  54.688  1.00  0.00     0.027 A 
ATOM     16  C   UNL     1      -0.166  44.993  53.737  1.00  0.00     0.041 A 
BRANCH  16  17
ATOM     17  N   UNL     1      -1.518  45.232  54.163  1.00  0.00    -0.324 N 
ATOM     18  H   UNL     1      -2.186  45.644  53.473  1.00  0.00     0.170 HD
BRANCH  17  19
ATOM     19  C   UNL     1      -2.043  44.839  55.440  1.00  0.00     0.227 A 
ATOM     20  N   UNL     1      -2.308  43.533  55.714  1.00  0.00    -0.221 NA
ATOM     21  N   UNL     1      -2.327  45.792  56.368  1.00  0.00    -0.221 NA
ATOM     22  C   UNL     1      -2.832  43.159  56.911  1.00  0.00     0.117 A 
ATOM     23  C   UNL     1      -2.853  45.460  57.576  1.00  0.00     0.117 A 
ATOM     24  C   UNL     1      -3.116  44.123  57.876  1.00  0.00     0.040 A 
ENDBRANCH  17  19
ENDBRANCH  16  17
ENDBRANCH   9  11
ENDBRANCH   1   7
BRANCH   5  25
ATOM     25  O   UNL     1       8.425  46.592  50.817  1.00  0.00    -0.491 OA
BRANCH  25  26
ATOM     26  C   UNL     1       8.659  47.135  52.117  1.00  0.00     0.263 C 
BRANCH  26  27
ATOM     27  C   UNL     1       9.996  46.654  52.679  1.00  0.00     0.256 C 
ATOM     28  F   UNL     1      10.348  47.382  53.801  1.00  0.00    -0.247 F 
ENDBRANCH  26  27
ENDBRANCH  25  26
ENDBRANCH   5  25
TORSDOF 7
ENDMDL
MODEL 5
REMARK VINA RESULT:    -7.384      3.658      9.716
REMARK INTER + INTRA:         -11.055
REMARK INTER:                 -10.392
REMARK INTRA:                  -0.663
REMARK UNBOUND:                -0.650
REMARK SMILES O=C(Nc1cccc(OCCF)c1)c1ccc(Nc2ncccn2)cc1
REMARK SMILES IDX 4 1 5 2 6 3 7 4 8 5 13 6 3 7 1 8 2 9 14 11 15 12 26 13 16 14
REMARK SMILES IDX 25 15 17 16 18 17 19 19 20 20 24 21 21 22 23 23 22 24 9 25
REMARK SMILES IDX 10 26 11 27 12 28
REMARK H PARENT 3 10 18 18
ROOT
ATOM      1  C   UNL     1       7.352  46.391  53.817  1.00  0.00     0.045 A 
ATOM      2  C   UNL     1       8.187  47.201  54.604  1.00  0.00     0.026 A 
ATOM      3  C   UNL     1       9.459  47.552  54.150  1.00  0.00     0.006 A 
ATOM      4  C   UNL     1       9.904  47.110  52.902  1.00  0.00     0.046 A 
ATOM      5  C   UNL     1       9.080  46.324  52.089  1.00  0.00     0.121 A 
ATOM      6  C   UNL     1       7.799  45.967  52.554  1.00  0.00     0.072 A 
ENDROOT
BRANCH   1   7
ATOM      7  N   UNL     1       6.028  46.033  54.254  1.00  0.00    -0.322 N 
ATOM      8  O   UNL     1       4.966  48.024  53.651  1.00  0.00    -0.269 OA
ATOM      9  C   UNL     1       4.853  46.802  53.950  1.00  0.00     0.255 C 
ATOM     10  H   UNL     1       5.933  45.234  54.921  1.00  0.00     0.170 HD
BRANCH   9  11
ATOM     11  C   UNL     1       3.503  46.194  54.034  1.00  0.00     0.040 A 
ATOM     12  C   UNL     1       3.106  45.467  55.171  1.00  0.00     0.016 A 
ATOM     13  C   UNL     1       2.600  46.325  52.964  1.00  0.00     0.016 A 
ATOM     14  C   UNL     1       1.835  44.889  55.237  1.00  0.00     0.027 A 
ATOM     15  C   UNL     1       1.328  45.749  53.033  1.00  0.00     0.027 A 
ATOM     16  C   UNL     1       0.941  45.011  54.160  1.00  0.00     0.041 A 
BRANCH  16  17
ATOM     17  N   UNL     1      -0.381  44.448  54.215  1.00  0.00    -0.324 N 
ATOM     18  H   UNL     1      -0.719  43.904  53.390  1.00  0.00     0.170 HD
BRANCH  17  19
ATOM     19  C   UNL     1      -1.227  44.489  55.373  1.00  0.00     0.227 A 
ATOM     20  N   UNL     1      -1.973  43.408  55.731  1.00  0.00    -0.221 NA
ATOM     21  N   UNL     1      -1.324  45.640  56.092  1.00  0.00    -0.221 NA
ATOM     22  C   UNL     1      -2.798  43.450  56.809  1.00  0.00     0.117 A 
ATOM     23  C   UNL     1      -2.139  45.723  57.176  1.00  0.00     0.117 A 
ATOM     24  C   UNL     1      -2.897  44.619  57.562  1.00  0.00     0.040 A 
ENDBRANCH  17  19
ENDBRANCH  16  17
ENDBRANCH   9  11
ENDBRANCH   1   7
BRANCH   5  25
ATOM     25  O   UNL     1       9.583  45.916  50.842  1.00  0.00    -0.491 OA
BRANCH  25  26
ATOM     26  C   UNL     1       9.771  44.567  50.412  1.00  0.00     0.263 C 
BRANCH  26  27
ATOM     27  C   UNL     1       8.731  44.177  49.364  1.00  0.00     0.256 C 
ATOM     28  F   UNL     1       7.649  45.038  49.398  1.00  0.00    -0.247 F 
ENDBRANCH  26  27
ENDBRANCH  25  26
ENDBRANCH   5  25
TORSDOF 7
ENDMDL
