ligand_100_conformer_5_docked
     RDKit          3D

 46 48  0  0  0  0  0  0  0  0999 V2000
    8.3520   47.9430   51.2170 C   0  0  0  0  0  0  0  0  0  0  0  0
    8.9460   47.0720   52.3420 C   0  0  0  0  0  0  0  0  0  0  0  0
   10.0670   46.1940   51.7550 C   0  0  0  0  0  0  0  0  0  0  0  0
    9.5180   47.9280   53.3700 N   0  0  0  0  0  0  0  0  0  0  0  0
    9.1750   47.4390   54.6470 C   0  0  0  0  0  0  0  0  0  0  0  0
    9.6110   47.9500   55.7120 O   0  0  0  0  0  0  0  0  0  0  0  0
    8.3020   46.2480   54.5990 C   0  0  0  0  0  0  0  0  0  0  0  0
    7.9030   46.1700   53.1060 C   0  0  1  0  0  0  0  0  0  0  0  0
    6.4570   46.6110   52.9270 C   0  0  0  0  0  0  0  0  0  0  0  0
    6.2050   47.8430   52.8270 O   0  0  0  0  0  0  0  0  0  0  0  0
    5.3770   45.6530   52.8400 N   0  0  0  0  0  0  0  0  0  0  0  0
    4.7750   45.0150   54.0010 C   0  0  0  0  0  0  0  0  0  0  0  0
    3.9200   43.8810   53.4570 C   0  0  0  0  0  0  0  0  0  0  0  0
    3.6590   44.2300   51.9970 C   0  0  0  0  0  0  0  0  0  0  0  0
    4.8000   45.1810   51.5750 C   0  0  1  0  0  0  0  0  0  0  0  0
    4.2140   46.3910   50.8090 C   0  0  0  0  0  0  0  0  0  0  0  0
    5.8470   44.4020   50.7620 C   0  0  0  0  0  0  0  0  0  0  0  0
    6.9350   45.0500   50.1320 C   0  0  0  0  0  0  0  0  0  0  0  0
    7.8520   44.3250   49.3660 C   0  0  0  0  0  0  0  0  0  0  0  0
    7.6900   42.9500   49.1920 C   0  0  0  0  0  0  0  0  0  0  0  0
    6.6030   42.2990   49.7730 C   0  0  0  0  0  0  0  0  0  0  0  0
    5.6820   43.0170   50.5390 C   0  0  0  0  0  0  0  0  0  0  0  0
    7.7844   48.7753   51.6586 H   0  0  0  0  0  0  0  0  0  0  0  0
    9.1659   48.3436   50.5949 H   0  0  0  0  0  0  0  0  0  0  0  0
    7.6819   47.3315   50.5949 H   0  0  0  0  0  0  0  0  0  0  0  0
   10.6451   45.7413   52.5741 H   0  0  0  0  0  0  0  0  0  0  0  0
    9.6245   45.3998   51.1358 H   0  0  0  0  0  0  0  0  0  0  0  0
   10.7321   46.8139   51.1358 H   0  0  0  0  0  0  0  0  0  0  0  0
   10.2220   48.6820   53.1980 H   0  0  0  0  0  0  0  0  0  0  0  0
    8.8475   45.3450   54.9103 H   0  0  0  0  0  0  0  0  0  0  0  0
    7.4377   46.3160   55.2761 H   0  0  0  0  0  0  0  0  0  0  0  0
    7.9370   45.1483   52.6999 H   0  0  0  0  0  0  0  0  0  0  0  0
    5.5554   44.6198   54.6680 H   0  0  0  0  0  0  0  0  0  0  0  0
    4.1758   45.7269   54.5877 H   0  0  0  0  0  0  0  0  0  0  0  0
    4.4573   42.9242   53.5331 H   0  0  0  0  0  0  0  0  0  0  0  0
    2.9834   43.7693   54.0229 H   0  0  0  0  0  0  0  0  0  0  0  0
    3.6715   43.3203   51.3787 H   0  0  0  0  0  0  0  0  0  0  0  0
    2.6735   44.7007   51.8657 H   0  0  0  0  0  0  0  0  0  0  0  0
    3.8514   47.1398   51.5286 H   0  0  0  0  0  0  0  0  0  0  0  0
    4.9954   46.8382   50.1769 H   0  0  0  0  0  0  0  0  0  0  0  0
    3.3787   46.0552   50.1769 H   0  0  0  0  0  0  0  0  0  0  0  0
    7.0608   46.1368   50.2462 H   0  0  0  0  0  0  0  0  0  0  0  0
    8.7043   44.8400   48.8987 H   0  0  0  0  0  0  0  0  0  0  0  0
    8.4192   42.3805   48.5971 H   0  0  0  0  0  0  0  0  0  0  0  0
    6.4702   41.2167   49.6278 H   0  0  0  0  0  0  0  0  0  0  0  0
    4.8162   42.4968   50.9746 H   0  0  0  0  0  0  0  0  0  0  0  0
  1  2  1  0
  2  3  1  0
  2  4  1  0
  4  5  1  0
  5  6  2  0
  5  7  1  0
  7  8  1  0
  8  9  1  0
  9 10  2  0
  9 11  1  0
 11 12  1  0
 12 13  1  0
 13 14  1  0
 14 15  1  0
 15 16  1  6
 15 17  1  0
 17 18  2  0
 18 19  1  0
 19 20  2  0
 20 21  1  0
 21 22  2  0
  8  2  1  0
 15 11  1  0
 22 17  1  0
  1 23  1  0
  1 24  1  0
  1 25  1  0
  3 26  1  0
  3 27  1  0
  3 28  1  0
  4 29  1  0
  7 30  1  0
  7 31  1  0
  8 32  1  6
 12 33  1  0
 12 34  1  0
 13 35  1  0
 13 36  1  0
 14 37  1  0
 14 38  1  0
 16 39  1  0
 16 40  1  0
 16 41  1  0
 18 42  1  0
 19 43  1  0
 20 44  1  0
 21 45  1  0
 22 46  1  0
M  END
>  <meeko>  (1) 
{"is_sidechain": [false], "free_energy": -8.65, "intermolecular_energy": -10.168, "internal_energy": -0.129}

$$$$
ligand_100_conformer_5_docked
     RDKit          3D

 46 48  0  0  0  0  0  0  0  0999 V2000
    1.7720   44.6070   51.4370 C   0  0  0  0  0  0  0  0  0  0  0  0
    2.4230   43.3010   51.9340 C   0  0  0  0  0  0  0  0  0  0  0  0
    1.5230   42.6760   53.0170 C   0  0  0  0  0  0  0  0  0  0  0  0
    2.5360   42.3630   50.8280 N   0  0  0  0  0  0  0  0  0  0  0  0
    3.7980   41.7330   50.8620 C   0  0  0  0  0  0  0  0  0  0  0  0
    4.1230   40.8160   50.0630 O   0  0  0  0  0  0  0  0  0  0  0  0
    4.6640   42.2240   51.9530 C   0  0  0  0  0  0  0  0  0  0  0  0
    3.8930   43.4560   52.4820 C   0  0  1  0  0  0  0  0  0  0  0  0
    4.5840   44.7370   52.0390 C   0  0  0  0  0  0  0  0  0  0  0  0
    5.1020   44.7830   50.8890 O   0  0  0  0  0  0  0  0  0  0  0  0
    4.6360   45.9050   52.8910 N   0  0  0  0  0  0  0  0  0  0  0  0
    3.6770   46.9970   52.8150 C   0  0  0  0  0  0  0  0  0  0  0  0
    4.2660   48.1270   53.6440 C   0  0  0  0  0  0  0  0  0  0  0  0
    5.2800   47.4690   54.5730 C   0  0  0  0  0  0  0  0  0  0  0  0
    5.6860   46.1440   53.8910 C   0  0  1  0  0  0  0  0  0  0  0  0
    5.6610   44.9950   54.9270 C   0  0  0  0  0  0  0  0  0  0  0  0
    7.0530   46.3120   53.2080 C   0  0  0  0  0  0  0  0  0  0  0  0
    8.2630   46.0510   53.8910 C   0  0  0  0  0  0  0  0  0  0  0  0
    9.4950   46.2490   53.2600 C   0  0  0  0  0  0  0  0  0  0  0  0
    9.5460   46.7320   51.9530 C   0  0  0  0  0  0  0  0  0  0  0  0
    8.3640   47.0320   51.2760 C   0  0  0  0  0  0  0  0  0  0  0  0
    7.1300   46.8380   51.9000 C   0  0  0  0  0  0  0  0  0  0  0  0
    1.4680   45.2169   52.3005 H   0  0  0  0  0  0  0  0  0  0  0  0
    2.4956   45.1687   50.8279 H   0  0  0  0  0  0  0  0  0  0  0  0
    0.8879   44.3673   50.8279 H   0  0  0  0  0  0  0  0  0  0  0  0
    1.9076   42.9431   54.0124 H   0  0  0  0  0  0  0  0  0  0  0  0
    0.4971   43.0570   52.9059 H   0  0  0  0  0  0  0  0  0  0  0  0
    1.5217   41.5816   52.9059 H   0  0  0  0  0  0  0  0  0  0  0  0
    1.7470   42.0650   50.2110 H   0  0  0  0  0  0  0  0  0  0  0  0
    4.7799   41.4629   52.7387 H   0  0  0  0  0  0  0  0  0  0  0  0
    5.6857   42.4616   51.6217 H   0  0  0  0  0  0  0  0  0  0  0  0
    3.8704   43.5152   53.5802 H   0  0  0  0  0  0  0  0  0  0  0  0
    3.5439   47.3174   51.7711 H   0  0  0  0  0  0  0  0  0  0  0  0
    2.6886   46.6934   53.1903 H   0  0  0  0  0  0  0  0  0  0  0  0
    4.7620   48.8623   52.9934 H   0  0  0  0  0  0  0  0  0  0  0  0
    3.4896   48.6667   54.2060 H   0  0  0  0  0  0  0  0  0  0  0  0
    6.1589   48.1181   54.7005 H   0  0  0  0  0  0  0  0  0  0  0  0
    4.8558   47.2938   55.5727 H   0  0  0  0  0  0  0  0  0  0  0  0
    5.6702   45.4169   55.9428 H   0  0  0  0  0  0  0  0  0  0  0  0
    4.7496   44.3951   54.7873 H   0  0  0  0  0  0  0  0  0  0  0  0
    6.5455   44.3561   54.7873 H   0  0  0  0  0  0  0  0  0  0  0  0
    8.2350   45.6885   54.9292 H   0  0  0  0  0  0  0  0  0  0  0  0
   10.4280   46.0227   53.7970 H   0  0  0  0  0  0  0  0  0  0  0  0
   10.5169   46.8762   51.4566 H   0  0  0  0  0  0  0  0  0  0  0  0
    8.4040   47.4223   50.2483 H   0  0  0  0  0  0  0  0  0  0  0  0
    6.2049   47.0986   51.3650 H   0  0  0  0  0  0  0  0  0  0  0  0
  1  2  1  0
  2  3  1  0
  2  4  1  0
  4  5  1  0
  5  6  2  0
  5  7  1  0
  7  8  1  0
  8  9  1  0
  9 10  2  0
  9 11  1  0
 11 12  1  0
 12 13  1  0
 13 14  1  0
 14 15  1  0
 15 16  1  1
 15 17  1  0
 17 18  2  0
 18 19  1  0
 19 20  2  0
 20 21  1  0
 21 22  2  0
  8  2  1  0
 15 11  1  0
 22 17  1  0
  1 23  1  0
  1 24  1  0
  1 25  1  0
  3 26  1  0
  3 27  1  0
  3 28  1  0
  4 29  1  0
  7 30  1  0
  7 31  1  0
  8 32  1  1
 12 33  1  0
 12 34  1  0
 13 35  1  0
 13 36  1  0
 14 37  1  0
 14 38  1  0
 16 39  1  0
 16 40  1  0
 16 41  1  0
 18 42  1  0
 19 43  1  0
 20 44  1  0
 21 45  1  0
 22 46  1  0
M  END
>  <meeko>  (2) 
{"is_sidechain": [false], "free_energy": -8.384, "intermolecular_energy": -9.826, "internal_energy": -0.158}

$$$$
ligand_100_conformer_5_docked
     RDKit          3D

 46 48  0  0  0  0  0  0  0  0999 V2000
    2.2170   42.7330   52.7450 C   0  0  0  0  0  0  0  0  0  0  0  0
    1.8880   44.1710   53.1920 C   0  0  0  0  0  0  0  0  0  0  0  0
    0.7270   44.7080   52.3340 C   0  0  0  0  0  0  0  0  0  0  0  0
    1.4690   44.1630   54.5860 N   0  0  0  0  0  0  0  0  0  0  0  0
    2.0670   45.2400   55.2720 C   0  0  0  0  0  0  0  0  0  0  0  0
    1.8070   45.5100   56.4740 O   0  0  0  0  0  0  0  0  0  0  0  0
    2.9790   46.0350   54.4250 C   0  0  0  0  0  0  0  0  0  0  0  0
    3.1010   45.1770   53.1440 C   0  0  1  0  0  0  0  0  0  0  0  0
    4.4630   44.5000   53.0940 C   0  0  0  0  0  0  0  0  0  0  0  0
    5.0230   44.1800   54.1790 O   0  0  0  0  0  0  0  0  0  0  0  0
    5.1120   44.1910   51.8390 N   0  0  0  0  0  0  0  0  0  0  0  0
    5.3260   42.8350   51.3580 C   0  0  0  0  0  0  0  0  0  0  0  0
    6.2910   42.9550   50.1890 C   0  0  0  0  0  0  0  0  0  0  0  0
    6.1930   44.4020   49.7240 C   0  0  0  0  0  0  0  0  0  0  0  0
    5.6700   45.2050   50.9350 C   0  0  1  0  0  0  0  0  0  0  0  0
    4.5330   46.1520   50.4810 C   0  0  0  0  0  0  0  0  0  0  0  0
    6.8380   45.9440   51.6070 C   0  0  0  0  0  0  0  0  0  0  0  0
    6.6250   46.9180   52.6090 C   0  0  0  0  0  0  0  0  0  0  0  0
    7.7020   47.6050   53.1790 C   0  0  0  0  0  0  0  0  0  0  0  0
    9.0040   47.3530   52.7440 C   0  0  0  0  0  0  0  0  0  0  0  0
    9.2310   46.4250   51.7300 C   0  0  0  0  0  0  0  0  0  0  0  0
    8.1600   45.7360   51.1560 C   0  0  0  0  0  0  0  0  0  0  0  0
    2.3623   42.0978   53.6312 H   0  0  0  0  0  0  0  0  0  0  0  0
    1.3862   42.3372   52.1424 H   0  0  0  0  0  0  0  0  0  0  0  0
    3.1372   42.7378   52.1424 H   0  0  0  0  0  0  0  0  0  0  0  0
   -0.0737   45.0784   52.9910 H   0  0  0  0  0  0  0  0  0  0  0  0
    1.0898   45.5297   51.6991 H   0  0  0  0  0  0  0  0  0  0  0  0
    0.3357   43.8994   51.6991 H   0  0  0  0  0  0  0  0  0  0  0  0
    0.7070   43.5660   54.9780 H   0  0  0  0  0  0  0  0  0  0  0  0
    2.5495   47.0224   54.2000 H   0  0  0  0  0  0  0  0  0  0  0  0
    3.9480   46.2388   54.9040 H   0  0  0  0  0  0  0  0  0  0  0  0
    3.0486   45.7690   52.2184 H   0  0  0  0  0  0  0  0  0  0  0  0
    5.7627   42.2117   52.1522 H   0  0  0  0  0  0  0  0  0  0  0  0
    4.3812   42.3602   51.0547 H   0  0  0  0  0  0  0  0  0  0  0  0
    7.3167   42.7243   50.5126 H   0  0  0  0  0  0  0  0  0  0  0  0
    6.0422   42.2503   49.3818 H   0  0  0  0  0  0  0  0  0  0  0  0
    7.1824   44.7728   49.4183 H   0  0  0  0  0  0  0  0  0  0  0  0
    5.5245   44.5014   48.8562 H   0  0  0  0  0  0  0  0  0  0  0  0
    4.0299   46.5710   51.3649 H   0  0  0  0  0  0  0  0  0  0  0  0
    4.9553   46.9691   49.8777 H   0  0  0  0  0  0  0  0  0  0  0  0
    3.8057   45.5889   49.8777 H   0  0  0  0  0  0  0  0  0  0  0  0
    5.6008   47.1382   52.9443 H   0  0  0  0  0  0  0  0  0  0  0  0
    7.5223   48.3457   53.9721 H   0  0  0  0  0  0  0  0  0  0  0  0
    9.8502   47.8866   53.2014 H   0  0  0  0  0  0  0  0  0  0  0  0
   10.2564   46.2343   51.3804 H   0  0  0  0  0  0  0  0  0  0  0  0
    8.3490   45.0214   50.3413 H   0  0  0  0  0  0  0  0  0  0  0  0
  1  2  1  0
  2  3  1  0
  2  4  1  0
  4  5  1  0
  5  6  2  0
  5  7  1  0
  7  8  1  0
  8  9  1  0
  9 10  2  0
  9 11  1  0
 11 12  1  0
 12 13  1  0
 13 14  1  0
 14 15  1  0
 15 16  1  6
 15 17  1  0
 17 18  2  0
 18 19  1  0
 19 20  2  0
 20 21  1  0
 21 22  2  0
  8  2  1  0
 15 11  1  0
 22 17  1  0
  1 23  1  0
  1 24  1  0
  1 25  1  0
  3 26  1  0
  3 27  1  0
  3 28  1  0
  4 29  1  0
  7 30  1  0
  7 31  1  0
  8 32  1  6
 12 33  1  0
 12 34  1  0
 13 35  1  0
 13 36  1  0
 14 37  1  0
 14 38  1  0
 16 39  1  0
 16 40  1  0
 16 41  1  0
 18 42  1  0
 19 43  1  0
 20 44  1  0
 21 45  1  0
 22 46  1  0
M  END
>  <meeko>  (3) 
{"is_sidechain": [false], "free_energy": -8.123, "intermolecular_energy": -9.262, "internal_energy": -0.415}

$$$$
ligand_100_conformer_5_docked
     RDKit          3D

 46 48  0  0  0  0  0  0  0  0999 V2000
    5.3060   42.4970   51.4760 C   0  0  0  0  0  0  0  0  0  0  0  0
    3.7940   42.7930   51.4230 C   0  0  0  0  0  0  0  0  0  0  0  0
    3.1430   41.8770   50.3690 C   0  0  0  0  0  0  0  0  0  0  0  0
    3.1960   42.5060   52.7180 N   0  0  0  0  0  0  0  0  0  0  0  0
    2.2860   43.5270   53.0620 C   0  0  0  0  0  0  0  0  0  0  0  0
    1.5710   43.4820   54.0980 O   0  0  0  0  0  0  0  0  0  0  0  0
    2.2270   44.6140   52.0640 C   0  0  0  0  0  0  0  0  0  0  0  0
    3.4200   44.2960   51.1320 C   0  0  1  0  0  0  0  0  0  0  0  0
    4.5570   45.2750   51.3840 C   0  0  0  0  0  0  0  0  0  0  0  0
    5.5170   45.3170   50.5660 O   0  0  0  0  0  0  0  0  0  0  0  0
    4.5480   46.1740   52.5170 N   0  0  0  0  0  0  0  0  0  0  0  0
    3.5800   47.2480   52.6830 C   0  0  0  0  0  0  0  0  0  0  0  0
    4.1090   48.1150   53.8140 C   0  0  0  0  0  0  0  0  0  0  0  0
    5.0810   47.2310   54.5880 C   0  0  0  0  0  0  0  0  0  0  0  0
    5.5390   46.1360   53.6010 C   0  0  1  0  0  0  0  0  0  0  0  0
    5.4750   44.7520   54.2910 C   0  0  0  0  0  0  0  0  0  0  0  0
    6.9390   46.4780   53.0630 C   0  0  0  0  0  0  0  0  0  0  0  0
    8.0740   45.7040   53.3960 C   0  0  0  0  0  0  0  0  0  0  0  0
    9.3420   46.0580   52.9260 C   0  0  0  0  0  0  0  0  0  0  0  0
    9.5070   47.2000   52.1410 C   0  0  0  0  0  0  0  0  0  0  0  0
    8.4060   47.9970   51.8340 C   0  0  0  0  0  0  0  0  0  0  0  0
    7.1360   47.6500   52.3000 C   0  0  0  0  0  0  0  0  0  0  0  0
    5.6306   42.4335   52.5251 H   0  0  0  0  0  0  0  0  0  0  0  0
    5.5106   41.5418   50.9704 H   0  0  0  0  0  0  0  0  0  0  0  0
    5.8557   43.3046   50.9704 H   0  0  0  0  0  0  0  0  0  0  0  0
    2.5771   41.0807   50.8746 H   0  0  0  0  0  0  0  0  0  0  0  0
    2.4615   42.4685   49.7399 H   0  0  0  0  0  0  0  0  0  0  0  0
    3.9257   41.4279   49.7399 H   0  0  0  0  0  0  0  0  0  0  0  0
    3.2870   41.6010   53.2320 H   0  0  0  0  0  0  0  0  0  0  0  0
    1.2764   44.5917   51.5110 H   0  0  0  0  0  0  0  0  0  0  0  0
    2.2823   45.6171   52.5119 H   0  0  0  0  0  0  0  0  0  0  0  0
    3.1809   44.4133   50.0647 H   0  0  0  0  0  0  0  0  0  0  0  0
    3.4980   47.8356   51.7567 H   0  0  0  0  0  0  0  0  0  0  0  0
    2.5774   46.8564   52.9096 H   0  0  0  0  0  0  0  0  0  0  0  0
    4.6292   48.9965   53.4111 H   0  0  0  0  0  0  0  0  0  0  0  0
    3.2969   48.4865   54.4562 H   0  0  0  0  0  0  0  0  0  0  0  0
    5.9436   47.8209   54.9315 H   0  0  0  0  0  0  0  0  0  0  0  0
    4.6070   46.7962   55.4803 H   0  0  0  0  0  0  0  0  0  0  0  0
    5.4812   44.8860   55.3828 H   0  0  0  0  0  0  0  0  0  0  0  0
    4.5520   44.2347   53.9903 H   0  0  0  0  0  0  0  0  0  0  0  0
    6.3463   44.1517   53.9903 H   0  0  0  0  0  0  0  0  0  0  0  0
    7.9582   44.8138   54.0317 H   0  0  0  0  0  0  0  0  0  0  0  0
   10.2129   45.4342   53.1758 H   0  0  0  0  0  0  0  0  0  0  0  0
   10.5048   47.4706   51.7651 H   0  0  0  0  0  0  0  0  0  0  0  0
    8.5375   48.9021   51.2228 H   0  0  0  0  0  0  0  0  0  0  0  0
    6.2777   48.2982   52.0697 H   0  0  0  0  0  0  0  0  0  0  0  0
  1  2  1  0
  2  3  1  0
  2  4  1  0
  4  5  1  0
  5  6  2  0
  5  7  1  0
  7  8  1  0
  8  9  1  0
  9 10  2  0
  9 11  1  0
 11 12  1  0
 12 13  1  0
 13 14  1  0
 14 15  1  0
 15 16  1  1
 15 17  1  0
 17 18  2  0
 18 19  1  0
 19 20  2  0
 20 21  1  0
 21 22  2  0
  8  2  1  0
 15 11  1  0
 22 17  1  0
  1 23  1  0
  1 24  1  0
  1 25  1  0
  3 26  1  0
  3 27  1  0
  3 28  1  0
  4 29  1  0
  7 30  1  0
  7 31  1  0
  8 32  1  6
 12 33  1  0
 12 34  1  0
 13 35  1  0
 13 36  1  0
 14 37  1  0
 14 38  1  0
 16 39  1  0
 16 40  1  0
 16 41  1  0
 18 42  1  0
 19 43  1  0
 20 44  1  0
 21 45  1  0
 22 46  1  0
M  END
>  <meeko>  (4) 
{"is_sidechain": [false], "free_energy": -8.052, "intermolecular_energy": -9.451, "internal_energy": -0.142}

$$$$
ligand_100_conformer_5_docked
     RDKit          3D

 46 48  0  0  0  0  0  0  0  0999 V2000
    3.8990   46.6010   54.9950 C   0  0  0  0  0  0  0  0  0  0  0  0
    2.9870   45.4660   54.4910 C   0  0  0  0  0  0  0  0  0  0  0  0
    2.0220   45.0600   55.6210 C   0  0  0  0  0  0  0  0  0  0  0  0
    2.2030   45.9390   53.3600 N   0  0  0  0  0  0  0  0  0  0  0  0
    2.1690   44.9500   52.3530 C   0  0  0  0  0  0  0  0  0  0  0  0
    1.4900   45.0740   51.3000 O   0  0  0  0  0  0  0  0  0  0  0  0
    2.9660   43.7520   52.6880 C   0  0  0  0  0  0  0  0  0  0  0  0
    3.7440   44.1930   53.9500 C   0  0  1  0  0  0  0  0  0  0  0  0
    5.2050   44.4450   53.6040 C   0  0  0  0  0  0  0  0  0  0  0  0
    6.0490   44.5100   54.5390 O   0  0  0  0  0  0  0  0  0  0  0  0
    5.6470   44.5800   52.2330 N   0  0  0  0  0  0  0  0  0  0  0  0
    5.7120   43.4690   51.2970 C   0  0  0  0  0  0  0  0  0  0  0  0
    6.5030   43.9760   50.1020 C   0  0  0  0  0  0  0  0  0  0  0  0
    6.4220   45.4960   50.1720 C   0  0  0  0  0  0  0  0  0  0  0  0
    6.1260   45.8400   51.6480 C   0  0  1  0  0  0  0  0  0  0  0  0
    4.9910   46.8900   51.7220 C   0  0  0  0  0  0  0  0  0  0  0  0
    7.4190   46.2990   52.3410 C   0  0  0  0  0  0  0  0  0  0  0  0
    8.6930   45.8760   51.8960 C   0  0  0  0  0  0  0  0  0  0  0  0
    9.8530   46.2770   52.5670 C   0  0  0  0  0  0  0  0  0  0  0  0
    9.7650   47.0820   53.7030 C   0  0  0  0  0  0  0  0  0  0  0  0
    8.5160   47.4770   54.1800 C   0  0  0  0  0  0  0  0  0  0  0  0
    7.3530   47.0800   53.5160 C   0  0  0  0  0  0  0  0  0  0  0  0
    3.9035   46.6067   56.0950 H   0  0  0  0  0  0  0  0  0  0  0  0
    4.9224   46.4408   54.6249 H   0  0  0  0  0  0  0  0  0  0  0  0
    3.5222   47.5659   54.6249 H   0  0  0  0  0  0  0  0  0  0  0  0
    2.4935   45.2584   56.5948 H   0  0  0  0  0  0  0  0  0  0  0  0
    1.0934   45.6437   55.5376 H   0  0  0  0  0  0  0  0  0  0  0  0
    1.7900   43.9880   55.5376 H   0  0  0  0  0  0  0  0  0  0  0  0
    1.6080   46.7970   53.3610 H   0  0  0  0  0  0  0  0  0  0  0  0
    2.3151   42.8922   52.9052 H   0  0  0  0  0  0  0  0  0  0  0  0
    3.6212   43.4241   51.8675 H   0  0  0  0  0  0  0  0  0  0  0  0
    3.7702   43.4223   54.7345 H   0  0  0  0  0  0  0  0  0  0  0  0
    6.2227   42.6104   51.7573 H   0  0  0  0  0  0  0  0  0  0  0  0
    4.7078   43.1304   51.0021 H   0  0  0  0  0  0  0  0  0  0  0  0
    7.5498   43.6439   50.1656 H   0  0  0  0  0  0  0  0  0  0  0  0
    6.1002   43.5902   49.1539 H   0  0  0  0  0  0  0  0  0  0  0  0
    7.3766   45.9442   49.8593 H   0  0  0  0  0  0  0  0  0  0  0  0
    5.6421   45.8887   49.5030 H   0  0  0  0  0  0  0  0  0  0  0  0
    4.7585   47.1050   52.7754 H   0  0  0  0  0  0  0  0  0  0  0  0
    5.3139   47.8148   51.2216 H   0  0  0  0  0  0  0  0  0  0  0  0
    4.0940   46.4963   51.2216 H   0  0  0  0  0  0  0  0  0  0  0  0
    8.7726   45.2249   51.0130 H   0  0  0  0  0  0  0  0  0  0  0  0
   10.8383   45.9564   52.1976 H   0  0  0  0  0  0  0  0  0  0  0  0
   10.6798   47.4046   54.2216 H   0  0  0  0  0  0  0  0  0  0  0  0
    8.4462   48.1030   55.0818 H   0  0  0  0  0  0  0  0  0  0  0  0
    6.3722   47.3797   53.9137 H   0  0  0  0  0  0  0  0  0  0  0  0
  1  2  1  0
  2  3  1  0
  2  4  1  0
  4  5  1  0
  5  6  2  0
  5  7  1  0
  7  8  1  0
  8  9  1  0
  9 10  2  0
  9 11  1  0
 11 12  1  0
 12 13  1  0
 13 14  1  0
 14 15  1  0
 15 16  1  6
 15 17  1  0
 17 18  2  0
 18 19  1  0
 19 20  2  0
 20 21  1  0
 21 22  2  0
  8  2  1  0
 15 11  1  0
 22 17  1  0
  1 23  1  0
  1 24  1  0
  1 25  1  0
  3 26  1  0
  3 27  1  0
  3 28  1  0
  4 29  1  0
  7 30  1  0
  7 31  1  0
  8 32  1  1
 12 33  1  0
 12 34  1  0
 13 35  1  0
 13 36  1  0
 14 37  1  0
 14 38  1  0
 16 39  1  0
 16 40  1  0
 16 41  1  0
 18 42  1  0
 19 43  1  0
 20 44  1  0
 21 45  1  0
 22 46  1  0
M  END
>  <meeko>  (5) 
{"is_sidechain": [false], "free_energy": -7.942, "intermolecular_energy": -9.545, "internal_energy": 0.081}

$$$$
