ligand_3_conformer_1_docked
     RDKit          3D

 47 50  0  0  0  0  0  0  0  0999 V2000
    0.0950   45.6600   52.2880 O   0  0  0  0  0  0  0  0  0  0  0  0
    0.9370   45.3230   53.1640 C   0  0  0  0  0  0  0  0  0  0  0  0
    2.3790   45.4430   52.8580 C   0  0  0  0  0  0  0  0  0  0  0  0
    3.2330   44.3360   52.9870 C   0  0  0  0  0  0  0  0  0  0  0  0
    4.5930   44.4520   52.6870 C   0  0  0  0  0  0  0  0  0  0  0  0
    5.1220   45.6770   52.2510 C   0  0  0  0  0  0  0  0  0  0  0  0
    6.5170   45.7990   51.9270 N   0  0  0  0  0  0  0  0  0  0  0  0
    7.1170   45.4060   50.7750 C   0  0  0  0  0  0  0  0  0  0  0  0
    8.4560   45.6330   50.7610 N   0  0  0  0  0  0  0  0  0  0  0  0
    8.6810   46.2010   51.9600 C   0  0  0  0  0  0  0  0  0  0  0  0
    9.8950   46.6660   52.4600 C   0  0  0  0  0  0  0  0  0  0  0  0
    9.8910   47.2690   53.7310 C   0  0  0  0  0  0  0  0  0  0  0  0
    8.6860   47.4020   54.4570 C   0  0  0  0  0  0  0  0  0  0  0  0
    7.4750   46.9240   53.9220 C   0  0  0  0  0  0  0  0  0  0  0  0
    7.5190   46.3070   52.6670 C   0  0  0  0  0  0  0  0  0  0  0  0
    4.2630   46.7750   52.0890 C   0  0  0  0  0  0  0  0  0  0  0  0
    2.9020   46.6590   52.3900 C   0  0  0  0  0  0  0  0  0  0  0  0
    0.4780   44.8480   54.4440 N   0  0  0  0  0  0  0  0  0  0  0  0
    1.1250   45.3250   55.6780 C   0  0  0  0  0  0  0  0  0  0  0  0
    0.2030   45.1600   56.8950 C   0  0  0  0  0  0  0  0  0  0  0  0
   -1.2170   45.6360   56.5540 C   0  0  0  0  0  0  0  0  0  0  0  0
   -1.8420   44.8960   55.3250 C   0  0  2  0  0  0  0  0  0  0  0  0
   -2.3830   45.8800   54.4700 O   0  0  0  0  0  0  0  0  0  0  0  0
   -2.9810   43.9550   55.7880 C   0  0  0  0  0  0  0  0  0  0  0  0
   -2.4610   42.8170   56.4230 O   0  0  0  0  0  0  0  0  0  0  0  0
   -0.7700   44.0830   54.5440 C   0  0  0  0  0  0  0  0  0  0  0  0
    2.8289   43.3709   53.3265 H   0  0  0  0  0  0  0  0  0  0  0  0
    5.2528   43.5783   52.7931 H   0  0  0  0  0  0  0  0  0  0  0  0
    6.5727   44.9488   49.9355 H   0  0  0  0  0  0  0  0  0  0  0  0
   10.8248   46.5652   51.8810 H   0  0  0  0  0  0  0  0  0  0  0  0
   10.8325   47.6396   54.1627 H   0  0  0  0  0  0  0  0  0  0  0  0
    8.6944   47.8822   55.4466 H   0  0  0  0  0  0  0  0  0  0  0  0
    6.5279   47.0317   54.4709 H   0  0  0  0  0  0  0  0  0  0  0  0
    4.6624   47.7324   51.7232 H   0  0  0  0  0  0  0  0  0  0  0  0
    2.2374   47.5257   52.2593 H   0  0  0  0  0  0  0  0  0  0  0  0
    2.0457   44.7468   55.8457 H   0  0  0  0  0  0  0  0  0  0  0  0
    1.3516   46.3947   55.5584 H   0  0  0  0  0  0  0  0  0  0  0  0
    0.1707   44.0994   57.1851 H   0  0  0  0  0  0  0  0  0  0  0  0
    0.5942   45.7653   57.7260 H   0  0  0  0  0  0  0  0  0  0  0  0
   -1.8616   45.4650   57.4288 H   0  0  0  0  0  0  0  0  0  0  0  0
   -1.1478   46.7018   56.2906 H   0  0  0  0  0  0  0  0  0  0  0  0
   -1.8870   45.8540   53.6100 H   0  0  0  0  0  0  0  0  0  0  0  0
   -3.6311   44.4952   56.4919 H   0  0  0  0  0  0  0  0  0  0  0  0
   -3.5541   43.6349   54.9054 H   0  0  0  0  0  0  0  0  0  0  0  0
   -2.7900   42.0380   55.9050 H   0  0  0  0  0  0  0  0  0  0  0  0
   -0.5749   43.1383   55.0728 H   0  0  0  0  0  0  0  0  0  0  0  0
   -1.1454   43.8778   53.5306 H   0  0  0  0  0  0  0  0  0  0  0  0
  1  2  2  0
  2  3  1  0
  3  4  2  0
  4  5  1  0
  5  6  2  0
  6  7  1  0
  7  8  1  0
  8  9  2  0
  9 10  1  0
 10 11  2  0
 11 12  1  0
 12 13  2  0
 13 14  1  0
 14 15  2  0
  6 16  1  0
 16 17  2  0
  2 18  1  0
 18 19  1  0
 19 20  1  0
 20 21  1  0
 21 22  1  0
 22 23  1  6
 22 24  1  0
 24 25  1  0
 22 26  1  0
 17  3  1  0
 26 18  1  0
 15  7  1  0
 15 10  1  0
  4 27  1  0
  5 28  1  0
  8 29  1  0
 11 30  1  0
 12 31  1  0
 13 32  1  0
 14 33  1  0
 16 34  1  0
 17 35  1  0
 19 36  1  0
 19 37  1  0
 20 38  1  0
 20 39  1  0
 21 40  1  0
 21 41  1  0
 23 42  1  0
 24 43  1  0
 24 44  1  0
 25 45  1  0
 26 46  1  0
 26 47  1  0
M  END
>  <meeko>  (1) 
{"is_sidechain": [false], "free_energy": -8.92, "intermolecular_energy": -11.528, "internal_energy": -0.835}

$$$$
ligand_3_conformer_1_docked
     RDKit          3D

 47 50  0  0  0  0  0  0  0  0999 V2000
    1.8600   42.7080   50.0080 O   0  0  0  0  0  0  0  0  0  0  0  0
    1.7560   43.2330   51.1500 C   0  0  0  0  0  0  0  0  0  0  0  0
    2.9090   43.9740   51.7070 C   0  0  0  0  0  0  0  0  0  0  0  0
    3.1960   45.2790   51.2760 C   0  0  0  0  0  0  0  0  0  0  0  0
    4.2800   45.9790   51.8130 C   0  0  0  0  0  0  0  0  0  0  0  0
    5.0940   45.3860   52.7910 C   0  0  0  0  0  0  0  0  0  0  0  0
    6.2020   46.1070   53.3570 N   0  0  0  0  0  0  0  0  0  0  0  0
    6.2130   46.7740   54.5390 C   0  0  0  0  0  0  0  0  0  0  0  0
    7.4000   47.3770   54.8050 N   0  0  0  0  0  0  0  0  0  0  0  0
    8.1520   47.0550   53.7370 C   0  0  0  0  0  0  0  0  0  0  0  0
    9.4830   47.3940   53.5070 C   0  0  0  0  0  0  0  0  0  0  0  0
   10.0880   46.9090   52.3330 C   0  0  0  0  0  0  0  0  0  0  0  0
    9.3600   46.0950   51.4350 C   0  0  0  0  0  0  0  0  0  0  0  0
    8.0180   45.7680   51.6990 C   0  0  0  0  0  0  0  0  0  0  0  0
    7.4390   46.2880   52.8610 C   0  0  0  0  0  0  0  0  0  0  0  0
    4.7870   44.0960   53.2460 C   0  0  0  0  0  0  0  0  0  0  0  0
    3.7030   43.3950   52.7100 C   0  0  0  0  0  0  0  0  0  0  0  0
    0.5180   43.1150   51.8760 N   0  0  0  0  0  0  0  0  0  0  0  0
    0.4940   42.4330   53.1800 C   0  0  0  0  0  0  0  0  0  0  0  0
   -0.7180   42.8650   54.0180 C   0  0  0  0  0  0  0  0  0  0  0  0
   -0.8870   44.3900   53.9610 C   0  0  0  0  0  0  0  0  0  0  0  0
   -1.0380   44.9440   52.5050 C   0  0  2  0  0  0  0  0  0  0  0  0
   -0.1570   46.0390   52.3760 O   0  0  0  0  0  0  0  0  0  0  0  0
   -2.4860   45.4380   52.2660 C   0  0  0  0  0  0  0  0  0  0  0  0
   -2.5060   46.8160   52.0070 O   0  0  0  0  0  0  0  0  0  0  0  0
   -0.6650   43.8700   51.4440 C   0  0  0  0  0  0  0  0  0  0  0  0
    2.5638   45.7534   50.5110 H   0  0  0  0  0  0  0  0  0  0  0  0
    4.4966   47.0006   51.4673 H   0  0  0  0  0  0  0  0  0  0  0  0
    5.3461   46.8213   55.2145 H   0  0  0  0  0  0  0  0  0  0  0  0
   10.0420   48.0194   54.2186 H   0  0  0  0  0  0  0  0  0  0  0  0
   11.1348   47.1649   52.1122 H   0  0  0  0  0  0  0  0  0  0  0  0
    9.8463   45.7152   50.5243 H   0  0  0  0  0  0  0  0  0  0  0  0
    7.4437   45.1256   51.0153 H   0  0  0  0  0  0  0  0  0  0  0  0
    5.4034   43.6323   54.0302 H   0  0  0  0  0  0  0  0  0  0  0  0
    3.4706   42.3840   53.0760 H   0  0  0  0  0  0  0  0  0  0  0  0
    0.4453   41.3466   53.0145 H   0  0  0  0  0  0  0  0  0  0  0  0
    1.4078   42.7046   53.7287 H   0  0  0  0  0  0  0  0  0  0  0  0
   -1.6241   42.3841   53.6208 H   0  0  0  0  0  0  0  0  0  0  0  0
   -0.5581   42.5609   55.0630 H   0  0  0  0  0  0  0  0  0  0  0  0
   -1.7860   44.6629   54.5330 H   0  0  0  0  0  0  0  0  0  0  0  0
    0.0258   44.8342   54.3847 H   0  0  0  0  0  0  0  0  0  0  0  0
    0.5650   45.7870   51.7420 H   0  0  0  0  0  0  0  0  0  0  0  0
   -2.9119   44.9030   51.4044 H   0  0  0  0  0  0  0  0  0  0  0  0
   -3.0795   45.2408   53.1709 H   0  0  0  0  0  0  0  0  0  0  0  0
   -1.6300   47.0330   51.5950 H   0  0  0  0  0  0  0  0  0  0  0  0
   -1.5102   43.1778   51.3159 H   0  0  0  0  0  0  0  0  0  0  0  0
   -0.4405   44.3717   50.4912 H   0  0  0  0  0  0  0  0  0  0  0  0
  1  2  2  0
  2  3  1  0
  3  4  2  0
  4  5  1  0
  5  6  2  0
  6  7  1  0
  7  8  1  0
  8  9  2  0
  9 10  1  0
 10 11  2  0
 11 12  1  0
 12 13  2  0
 13 14  1  0
 14 15  2  0
  6 16  1  0
 16 17  2  0
  2 18  1  0
 18 19  1  0
 19 20  1  0
 20 21  1  0
 21 22  1  0
 22 23  1  1
 22 24  1  0
 24 25  1  0
 22 26  1  0
 17  3  1  0
 26 18  1  0
 15  7  1  0
 15 10  1  0
  4 27  1  0
  5 28  1  0
  8 29  1  0
 11 30  1  0
 12 31  1  0
 13 32  1  0
 14 33  1  0
 16 34  1  0
 17 35  1  0
 19 36  1  0
 19 37  1  0
 20 38  1  0
 20 39  1  0
 21 40  1  0
 21 41  1  0
 23 42  1  0
 24 43  1  0
 24 44  1  0
 25 45  1  0
 26 46  1  0
 26 47  1  0
M  END
>  <meeko>  (2) 
{"is_sidechain": [false], "free_energy": -8.807, "intermolecular_energy": -11.455, "internal_energy": -0.761}

$$$$
ligand_3_conformer_1_docked
     RDKit          3D

 47 50  0  0  0  0  0  0  0  0999 V2000
    0.9110   43.2280   50.3560 O   0  0  0  0  0  0  0  0  0  0  0  0
    1.3210   44.0620   51.2090 C   0  0  0  0  0  0  0  0  0  0  0  0
    2.7570   44.4160   51.2340 C   0  0  0  0  0  0  0  0  0  0  0  0
    3.7230   43.4650   51.5980 C   0  0  0  0  0  0  0  0  0  0  0  0
    5.0790   43.8020   51.6100 C   0  0  0  0  0  0  0  0  0  0  0  0
    5.4920   45.0960   51.2560 C   0  0  0  0  0  0  0  0  0  0  0  0
    6.8880   45.4450   51.2530 N   0  0  0  0  0  0  0  0  0  0  0  0
    7.7730   45.2270   50.2480 C   0  0  0  0  0  0  0  0  0  0  0  0
    9.0300   45.6490   50.5370 N   0  0  0  0  0  0  0  0  0  0  0  0
    8.9030   46.1560   51.7770 C   0  0  0  0  0  0  0  0  0  0  0  0
    9.8940   46.7580   52.5490 C   0  0  0  0  0  0  0  0  0  0  0  0
    9.5250   47.2610   53.8110 C   0  0  0  0  0  0  0  0  0  0  0  0
    8.1870   47.1630   54.2570 C   0  0  0  0  0  0  0  0  0  0  0  0
    7.2100   46.5520   53.4500 C   0  0  0  0  0  0  0  0  0  0  0  0
    7.6160   46.0400   52.2140 C   0  0  0  0  0  0  0  0  0  0  0  0
    4.5310   46.0370   50.8590 C   0  0  0  0  0  0  0  0  0  0  0  0
    3.1740   45.7000   50.8470 C   0  0  0  0  0  0  0  0  0  0  0  0
    0.3840   44.6620   52.1230 N   0  0  0  0  0  0  0  0  0  0  0  0
   -1.0580   44.3990   51.9740 C   0  0  0  0  0  0  0  0  0  0  0  0
   -1.8130   44.6480   53.2870 C   0  0  0  0  0  0  0  0  0  0  0  0
   -1.0500   44.0260   54.4650 C   0  0  0  0  0  0  0  0  0  0  0  0
    0.4180   44.5510   54.6020 C   0  0  2  0  0  0  0  0  0  0  0  0
    1.2560   43.4270   54.7630 O   0  0  0  0  0  0  0  0  0  0  0  0
    0.5500   45.4550   55.8530 C   0  0  0  0  0  0  0  0  0  0  0  0
    1.6190   45.0380   56.6590 O   0  0  0  0  0  0  0  0  0  0  0  0
    0.8630   45.3360   53.3360 C   0  0  0  0  0  0  0  0  0  0  0  0
    3.4105   42.4475   51.8757 H   0  0  0  0  0  0  0  0  0  0  0  0
    5.8271   43.0489   51.8985 H   0  0  0  0  0  0  0  0  0  0  0  0
    7.4987   44.7548   49.2931 H   0  0  0  0  0  0  0  0  0  0  0  0
   10.9290   46.8376   52.1851 H   0  0  0  0  0  0  0  0  0  0  0  0
   10.2823   47.7332   54.4540 H   0  0  0  0  0  0  0  0  0  0  0  0
    7.9081   47.5671   55.2413 H   0  0  0  0  0  0  0  0  0  0  0  0
    6.1632   46.4796   53.7800 H   0  0  0  0  0  0  0  0  0  0  0  0
    4.8466   47.0460   50.5553 H   0  0  0  0  0  0  0  0  0  0  0  0
    2.4285   46.4452   50.5325 H   0  0  0  0  0  0  0  0  0  0  0  0
   -1.4641   45.0628   51.1966 H   0  0  0  0  0  0  0  0  0  0  0  0
   -1.1896   43.3432   51.6947 H   0  0  0  0  0  0  0  0  0  0  0  0
   -1.9112   45.7315   53.4495 H   0  0  0  0  0  0  0  0  0  0  0  0
   -2.8089   44.1857   53.2209 H   0  0  0  0  0  0  0  0  0  0  0  0
   -1.5918   44.2594   55.3934 H   0  0  0  0  0  0  0  0  0  0  0  0
   -0.9914   42.9435   54.2784 H   0  0  0  0  0  0  0  0  0  0  0  0
    1.9780   43.6640   55.4010 H   0  0  0  0  0  0  0  0  0  0  0  0
    0.7243   46.4924   55.5314 H   0  0  0  0  0  0  0  0  0  0  0  0
   -0.3795   45.3859   56.4372 H   0  0  0  0  0  0  0  0  0  0  0  0
    1.2880   45.0660   57.5940 H   0  0  0  0  0  0  0  0  0  0  0  0
    0.4458   46.3531   53.3746 H   0  0  0  0  0  0  0  0  0  0  0  0
    1.9618   45.3797   53.3104 H   0  0  0  0  0  0  0  0  0  0  0  0
  1  2  2  0
  2  3  1  0
  3  4  2  0
  4  5  1  0
  5  6  2  0
  6  7  1  0
  7  8  1  0
  8  9  2  0
  9 10  1  0
 10 11  2  0
 11 12  1  0
 12 13  2  0
 13 14  1  0
 14 15  2  0
  6 16  1  0
 16 17  2  0
  2 18  1  0
 18 19  1  0
 19 20  1  0
 20 21  1  0
 21 22  1  0
 22 23  1  1
 22 24  1  0
 24 25  1  0
 22 26  1  0
 17  3  1  0
 26 18  1  0
 15  7  1  0
 15 10  1  0
  4 27  1  0
  5 28  1  0
  8 29  1  0
 11 30  1  0
 12 31  1  0
 13 32  1  0
 14 33  1  0
 16 34  1  0
 17 35  1  0
 19 36  1  0
 19 37  1  0
 20 38  1  0
 20 39  1  0
 21 40  1  0
 21 41  1  0
 23 42  1  0
 24 43  1  0
 24 44  1  0
 25 45  1  0
 26 46  1  0
 26 47  1  0
M  END
>  <meeko>  (3) 
{"is_sidechain": [false], "free_energy": -8.638, "intermolecular_energy": -11.291, "internal_energy": -0.707}

$$$$
ligand_3_conformer_1_docked
     RDKit          3D

 47 50  0  0  0  0  0  0  0  0999 V2000
    1.4930   45.9870   56.6260 O   0  0  0  0  0  0  0  0  0  0  0  0
    1.5880   45.3720   55.5290 C   0  0  0  0  0  0  0  0  0  0  0  0
    2.8310   45.5050   54.7370 C   0  0  0  0  0  0  0  0  0  0  0  0
    2.9690   46.5300   53.7880 C   0  0  0  0  0  0  0  0  0  0  0  0
    4.1490   46.6570   53.0500 C   0  0  0  0  0  0  0  0  0  0  0  0
    5.2110   45.7620   53.2490 C   0  0  0  0  0  0  0  0  0  0  0  0
    6.4330   45.8960   52.5030 N   0  0  0  0  0  0  0  0  0  0  0  0
    6.6120   45.6140   51.1880 C   0  0  0  0  0  0  0  0  0  0  0  0
    7.8840   45.8220   50.7620 N   0  0  0  0  0  0  0  0  0  0  0  0
    8.5090   46.2610   51.8700 C   0  0  0  0  0  0  0  0  0  0  0  0
    9.8390   46.6560   51.9900 C   0  0  0  0  0  0  0  0  0  0  0  0
   10.2710   47.1270   53.2440 C   0  0  0  0  0  0  0  0  0  0  0  0
    9.3700   47.2020   54.3300 C   0  0  0  0  0  0  0  0  0  0  0  0
    8.0310   46.7980   54.1740 C   0  0  0  0  0  0  0  0  0  0  0  0
    7.6410   46.3120   52.9220 C   0  0  0  0  0  0  0  0  0  0  0  0
    5.0860   44.7580   54.2210 C   0  0  0  0  0  0  0  0  0  0  0  0
    3.9060   44.6300   54.9600 C   0  0  0  0  0  0  0  0  0  0  0  0
    0.4980   44.5430   55.0820 N   0  0  0  0  0  0  0  0  0  0  0  0
   -0.7720   44.5360   55.8280 C   0  0  0  0  0  0  0  0  0  0  0  0
   -1.9370   44.0580   54.9490 C   0  0  0  0  0  0  0  0  0  0  0  0
   -1.8750   44.7330   53.5710 C   0  0  0  0  0  0  0  0  0  0  0  0
   -0.5230   44.4890   52.8200 C   0  0  2  0  0  0  0  0  0  0  0  0
   -0.0730   45.7390   52.3440 O   0  0  0  0  0  0  0  0  0  0  0  0
   -0.7430   43.5440   51.6140 C   0  0  0  0  0  0  0  0  0  0  0  0
    0.1480   43.8470   50.5740 O   0  0  0  0  0  0  0  0  0  0  0  0
    0.5560   43.8920   53.7680 C   0  0  0  0  0  0  0  0  0  0  0  0
    2.1431   47.2378   53.6241 H   0  0  0  0  0  0  0  0  0  0  0  0
    4.2457   47.4637   52.3085 H   0  0  0  0  0  0  0  0  0  0  0  0
    5.8063   45.2526   50.5321 H   0  0  0  0  0  0  0  0  0  0  0  0
   10.5281   46.6018   51.1343 H   0  0  0  0  0  0  0  0  0  0  0  0
   11.3171   47.4388   53.3796 H   0  0  0  0  0  0  0  0  0  0  0  0
    9.7174   47.5785   55.3034 H   0  0  0  0  0  0  0  0  0  0  0  0
    7.3162   46.8622   55.0076 H   0  0  0  0  0  0  0  0  0  0  0  0
    5.9221   44.0668   54.4029 H   0  0  0  0  0  0  0  0  0  0  0  0
    3.8195   43.8396   55.7201 H   0  0  0  0  0  0  0  0  0  0  0  0
   -0.6757   43.8618   56.6918 H   0  0  0  0  0  0  0  0  0  0  0  0
   -0.9858   45.5639   56.1562 H   0  0  0  0  0  0  0  0  0  0  0  0
   -1.8725   42.9672   54.8223 H   0  0  0  0  0  0  0  0  0  0  0  0
   -2.8865   44.3246   55.4363 H   0  0  0  0  0  0  0  0  0  0  0  0
   -2.6940   44.3381   52.9520 H   0  0  0  0  0  0  0  0  0  0  0  0
   -1.9642   45.8169   53.7358 H   0  0  0  0  0  0  0  0  0  0  0  0
   -0.7520   46.4260   52.5780 H   0  0  0  0  0  0  0  0  0  0  0  0
   -0.5811   42.5047   51.9361 H   0  0  0  0  0  0  0  0  0  0  0  0
   -1.7714   43.6755   51.2464 H   0  0  0  0  0  0  0  0  0  0  0  0
    0.4250   42.9770   50.1860 H   0  0  0  0  0  0  0  0  0  0  0  0
    0.3755   42.8137   53.8893 H   0  0  0  0  0  0  0  0  0  0  0  0
    1.5503   44.0614   53.3290 H   0  0  0  0  0  0  0  0  0  0  0  0
  1  2  2  0
  2  3  1  0
  3  4  2  0
  4  5  1  0
  5  6  2  0
  6  7  1  0
  7  8  1  0
  8  9  2  0
  9 10  1  0
 10 11  2  0
 11 12  1  0
 12 13  2  0
 13 14  1  0
 14 15  2  0
  6 16  1  0
 16 17  2  0
  2 18  1  0
 18 19  1  0
 19 20  1  0
 20 21  1  0
 21 22  1  0
 22 23  1  6
 22 24  1  0
 24 25  1  0
 22 26  1  0
 17  3  1  0
 26 18  1  0
 15  7  1  0
 15 10  1  0
  4 27  1  0
  5 28  1  0
  8 29  1  0
 11 30  1  0
 12 31  1  0
 13 32  1  0
 14 33  1  0
 16 34  1  0
 17 35  1  0
 19 36  1  0
 19 37  1  0
 20 38  1  0
 20 39  1  0
 21 40  1  0
 21 41  1  0
 23 42  1  0
 24 43  1  0
 24 44  1  0
 25 45  1  0
 26 46  1  0
 26 47  1  0
M  END
>  <meeko>  (4) 
{"is_sidechain": [false], "free_energy": -8.428, "intermolecular_energy": -10.999, "internal_energy": -0.727}

$$$$
ligand_3_conformer_1_docked
     RDKit          3D

 47 50  0  0  0  0  0  0  0  0999 V2000
    5.1270   48.4240   53.7160 O   0  0  0  0  0  0  0  0  0  0  0  0
    5.0690   47.1850   53.4890 C   0  0  0  0  0  0  0  0  0  0  0  0
    3.7930   46.4710   53.7170 C   0  0  0  0  0  0  0  0  0  0  0  0
    3.6030   45.6970   54.8720 C   0  0  0  0  0  0  0  0  0  0  0  0
    2.3910   45.0340   55.0880 C   0  0  0  0  0  0  0  0  0  0  0  0
    1.3510   45.1340   54.1520 C   0  0  0  0  0  0  0  0  0  0  0  0
    0.0970   44.4650   54.3750 N   0  0  0  0  0  0  0  0  0  0  0  0
   -0.4050   43.4290   53.6580 C   0  0  0  0  0  0  0  0  0  0  0  0
   -1.6230   43.0140   54.0920 N   0  0  0  0  0  0  0  0  0  0  0  0
   -1.8710   43.8330   55.1300 C   0  0  0  0  0  0  0  0  0  0  0  0
   -2.9860   43.8250   55.9660 C   0  0  0  0  0  0  0  0  0  0  0  0
   -3.0170   44.7520   57.0240 C   0  0  0  0  0  0  0  0  0  0  0  0
   -1.9400   45.6440   57.2270 C   0  0  0  0  0  0  0  0  0  0  0  0
   -0.8270   45.6240   56.3660 C   0  0  0  0  0  0  0  0  0  0  0  0
   -0.8390   44.7090   55.3090 C   0  0  0  0  0  0  0  0  0  0  0  0
    1.5280   45.9340   53.0140 C   0  0  0  0  0  0  0  0  0  0  0  0
    2.7400   46.5980   52.7980 C   0  0  0  0  0  0  0  0  0  0  0  0
    6.2350   46.4980   52.9960 N   0  0  0  0  0  0  0  0  0  0  0  0
    6.3020   46.0840   51.5840 C   0  0  0  0  0  0  0  0  0  0  0  0
    7.7530   45.8800   51.1270 C   0  0  0  0  0  0  0  0  0  0  0  0
    8.6330   47.0400   51.6150 C   0  0  0  0  0  0  0  0  0  0  0  0
    8.6000   47.2330   53.1680 C   0  0  2  0  0  0  0  0  0  0  0  0
    8.3880   48.6050   53.4190 O   0  0  0  0  0  0  0  0  0  0  0  0
    9.9550   46.8150   53.7890 C   0  0  0  0  0  0  0  0  0  0  0  0
   10.0140   47.1720   55.1450 O   0  0  0  0  0  0  0  0  0  0  0  0
    7.4470   46.4170   53.8200 C   0  0  0  0  0  0  0  0  0  0  0  0
    4.4124   45.6113   55.6119 H   0  0  0  0  0  0  0  0  0  0  0  0
    2.2523   44.4305   55.9972 H   0  0  0  0  0  0  0  0  0  0  0  0
    0.1224   42.9702   52.8087 H   0  0  0  0  0  0  0  0  0  0  0  0
   -3.8133   43.1183   55.8043 H   0  0  0  0  0  0  0  0  0  0  0  0
   -3.8858   44.7826   57.6979 H   0  0  0  0  0  0  0  0  0  0  0  0
   -1.9718   46.3582   58.0630 H   0  0  0  0  0  0  0  0  0  0  0  0
    0.0232   46.3049   56.5194 H   0  0  0  0  0  0  0  0  0  0  0  0
    0.7092   46.0400   52.2872 H   0  0  0  0  0  0  0  0  0  0  0  0
    2.8686   47.2235   51.9024 H   0  0  0  0  0  0  0  0  0  0  0  0
    5.7524   45.1390   51.4619 H   0  0  0  0  0  0  0  0  0  0  0  0
    5.8545   46.8789   50.9692 H   0  0  0  0  0  0  0  0  0  0  0  0
    8.1348   44.9354   51.5417 H   0  0  0  0  0  0  0  0  0  0  0  0
    7.7809   45.8472   50.0278 H   0  0  0  0  0  0  0  0  0  0  0  0
    9.6712   46.8426   51.3099 H   0  0  0  0  0  0  0  0  0  0  0  0
    8.2359   47.9615   51.1642 H   0  0  0  0  0  0  0  0  0  0  0  0
    9.0790   48.9160   54.0600 H   0  0  0  0  0  0  0  0  0  0  0  0
   10.0724   45.7251   53.6978 H   0  0  0  0  0  0  0  0  0  0  0  0
   10.7632   47.3339   53.2527 H   0  0  0  0  0  0  0  0  0  0  0  0
    9.1000   47.0350   55.5060 H   0  0  0  0  0  0  0  0  0  0  0  0
    7.7539   45.3646   53.9111 H   0  0  0  0  0  0  0  0  0  0  0  0
    7.2316   46.8347   54.8145 H   0  0  0  0  0  0  0  0  0  0  0  0
  1  2  2  0
  2  3  1  0
  3  4  2  0
  4  5  1  0
  5  6  2  0
  6  7  1  0
  7  8  1  0
  8  9  2  0
  9 10  1  0
 10 11  2  0
 11 12  1  0
 12 13  2  0
 13 14  1  0
 14 15  2  0
  6 16  1  0
 16 17  2  0
  2 18  1  0
 18 19  1  0
 19 20  1  0
 20 21  1  0
 21 22  1  0
 22 23  1  6
 22 24  1  0
 24 25  1  0
 22 26  1  0
 17  3  1  0
 26 18  1  0
 15  7  1  0
 15 10  1  0
  4 27  1  0
  5 28  1  0
  8 29  1  0
 11 30  1  0
 12 31  1  0
 13 32  1  0
 14 33  1  0
 16 34  1  0
 17 35  1  0
 19 36  1  0
 19 37  1  0
 20 38  1  0
 20 39  1  0
 21 40  1  0
 21 41  1  0
 23 42  1  0
 24 43  1  0
 24 44  1  0
 25 45  1  0
 26 46  1  0
 26 47  1  0
M  END
>  <meeko>  (5) 
{"is_sidechain": [false], "free_energy": -8.273, "intermolecular_energy": -10.754, "internal_energy": -0.771}

$$$$
