ligand_17_conformer_1_docked
     RDKit          3D

 40 42  0  0  0  0  0  0  0  0999 V2000
    4.5920   47.5830   53.4160 O   0  0  0  0  0  0  0  0  0  0  0  0
    4.5750   46.3340   53.5940 C   0  0  0  0  0  0  0  0  0  0  0  0
    5.7770   45.5620   53.4030 N   0  0  0  0  0  0  0  0  0  0  0  0
    7.0200   46.1150   52.9390 C   0  0  0  0  0  0  0  0  0  0  0  0
    7.2310   46.4050   51.5790 C   0  0  0  0  0  0  0  0  0  0  0  0
    8.4580   46.9170   51.1510 C   0  0  0  0  0  0  0  0  0  0  0  0
    9.4890   47.1300   52.0690 C   0  0  0  0  0  0  0  0  0  0  0  0
    9.3080   46.8220   53.4220 C   0  0  0  0  0  0  0  0  0  0  0  0
   10.3800   47.0440   54.3020 O   0  0  0  0  0  0  0  0  0  0  0  0
   10.2480   47.5100   55.6420 C   0  0  0  0  0  0  0  0  0  0  0  0
   11.4950   47.7990   56.1650 F   0  0  0  0  0  0  0  0  0  0  0  0
    9.4810   48.6590   55.6460 F   0  0  0  0  0  0  0  0  0  0  0  0
    8.0690   46.3070   53.8510 C   0  0  0  0  0  0  0  0  0  0  0  0
    3.3080   45.6870   54.0100 C   0  0  0  0  0  0  0  0  0  0  0  0
    2.4780   45.0950   53.0430 C   0  0  0  0  0  0  0  0  0  0  0  0
    1.2750   44.4930   53.4170 C   0  0  0  0  0  0  0  0  0  0  0  0
    0.8870   44.4710   54.7570 C   0  0  0  0  0  0  0  0  0  0  0  0
    1.7020   45.0480   55.7400 C   0  0  0  0  0  0  0  0  0  0  0  0
    1.2660   45.0430   57.1100 N   0  0  0  0  0  0  0  0  0  0  0  0
    0.5010   46.0950   57.7160 C   0  0  0  0  0  0  0  0  0  0  0  0
    1.0040   46.7530   58.7960 N   0  0  0  0  0  0  0  0  0  0  0  0
    0.3190   47.7710   59.3790 C   0  0  0  0  0  0  0  0  0  0  0  0
   -0.9150   48.1630   58.8650 C   0  0  0  0  0  0  0  0  0  0  0  0
   -1.4130   47.4900   57.7500 C   0  0  0  0  0  0  0  0  0  0  0  0
   -0.6980   46.4770   57.1960 N   0  0  0  0  0  0  0  0  0  0  0  0
    2.9000   45.6780   55.3570 C   0  0  0  0  0  0  0  0  0  0  0  0
    5.7780   44.5510   53.6590 H   0  0  0  0  0  0  0  0  0  0  0  0
    6.4267   46.2279   50.8497 H   0  0  0  0  0  0  0  0  0  0  0  0
    8.6129   47.1532   50.0879 H   0  0  0  0  0  0  0  0  0  0  0  0
   10.4494   47.5425   51.7262 H   0  0  0  0  0  0  0  0  0  0  0  0
    9.7684   46.7308   56.2527 H   0  0  0  0  0  0  0  0  0  0  0  0
    7.9224   46.0529   54.9112 H   0  0  0  0  0  0  0  0  0  0  0  0
    2.7779   45.1059   51.9847 H   0  0  0  0  0  0  0  0  0  0  0  0
    0.6308   44.0344   52.6524 H   0  0  0  0  0  0  0  0  0  0  0  0
   -0.0640   43.9981   55.0434 H   0  0  0  0  0  0  0  0  0  0  0  0
    1.5880   44.2640   57.7280 H   0  0  0  0  0  0  0  0  0  0  0  0
    0.7384   48.2854   60.2562 H   0  0  0  0  0  0  0  0  0  0  0  0
   -1.4828   48.9837   59.3276 H   0  0  0  0  0  0  0  0  0  0  0  0
   -2.3833   47.7791   57.3199 H   0  0  0  0  0  0  0  0  0  0  0  0
    3.5244   46.1687   56.1181 H   0  0  0  0  0  0  0  0  0  0  0  0
  1  2  2  0
  2  3  1  0
  3  4  1  0
  4  5  2  0
  5  6  1  0
  6  7  2  0
  7  8  1  0
  8  9  1  0
  9 10  1  0
 10 11  1  0
 10 12  1  0
  8 13  2  0
  2 14  1  0
 14 15  2  0
 15 16  1  0
 16 17  2  0
 17 18  1  0
 18 19  1  0
 19 20  1  0
 20 21  2  0
 21 22  1  0
 22 23  2  0
 23 24  1  0
 24 25  2  0
 18 26  2  0
 13  4  1  0
 26 14  1  0
 25 20  1  0
  3 27  1  0
  5 28  1  0
  6 29  1  0
  7 30  1  0
 10 31  1  0
 13 32  1  0
 15 33  1  0
 16 34  1  0
 17 35  1  0
 19 36  1  0
 22 37  1  0
 23 38  1  0
 24 39  1  0
 26 40  1  0
M  END
>  <meeko>  (1) 
{"is_sidechain": [false], "free_energy": -8.902, "intermolecular_energy": -12.024, "internal_energy": -0.735}

$$$$
ligand_17_conformer_1_docked
     RDKit          3D

 40 42  0  0  0  0  0  0  0  0999 V2000
    2.5480   42.4600   52.7240 O   0  0  0  0  0  0  0  0  0  0  0  0
    3.1890   43.5390   52.5990 C   0  0  0  0  0  0  0  0  0  0  0  0
    2.7940   44.7030   53.3510 N   0  0  0  0  0  0  0  0  0  0  0  0
    1.6430   44.7510   54.2110 C   0  0  0  0  0  0  0  0  0  0  0  0
    0.3460   44.5400   53.7100 C   0  0  0  0  0  0  0  0  0  0  0  0
   -0.7580   44.6180   54.5630 C   0  0  0  0  0  0  0  0  0  0  0  0
   -0.5820   44.9220   55.9140 C   0  0  0  0  0  0  0  0  0  0  0  0
    0.6980   45.1610   56.4260 C   0  0  0  0  0  0  0  0  0  0  0  0
    0.8200   45.4740   57.7890 O   0  0  0  0  0  0  0  0  0  0  0  0
    0.9590   46.7930   58.3110 C   0  0  0  0  0  0  0  0  0  0  0  0
   -0.2870   47.3130   58.6120 F   0  0  0  0  0  0  0  0  0  0  0  0
    1.7150   46.7430   59.4660 F   0  0  0  0  0  0  0  0  0  0  0  0
    1.8100   45.0810   55.5640 C   0  0  0  0  0  0  0  0  0  0  0  0
    4.3490   43.5810   51.6770 C   0  0  0  0  0  0  0  0  0  0  0  0
    4.6590   42.4550   50.8960 C   0  0  0  0  0  0  0  0  0  0  0  0
    5.7570   42.4740   50.0330 C   0  0  0  0  0  0  0  0  0  0  0  0
    6.5560   43.6150   49.9380 C   0  0  0  0  0  0  0  0  0  0  0  0
    6.2620   44.7520   50.7010 C   0  0  0  0  0  0  0  0  0  0  0  0
    7.1190   45.9030   50.6110 N   0  0  0  0  0  0  0  0  0  0  0  0
    8.0370   46.3060   51.6370 C   0  0  0  0  0  0  0  0  0  0  0  0
    9.3580   46.0050   51.5110 N   0  0  0  0  0  0  0  0  0  0  0  0
   10.2600   46.3930   52.4510 C   0  0  0  0  0  0  0  0  0  0  0  0
    9.8360   47.1210   53.5610 C   0  0  0  0  0  0  0  0  0  0  0  0
    8.4820   47.4340   53.6730 C   0  0  0  0  0  0  0  0  0  0  0  0
    7.6130   47.0280   52.7120 N   0  0  0  0  0  0  0  0  0  0  0  0
    5.1710   44.7200   51.5900 C   0  0  0  0  0  0  0  0  0  0  0  0
    3.3960   45.5560   53.3230 H   0  0  0  0  0  0  0  0  0  0  0  0
    0.2002   44.3129   52.6436 H   0  0  0  0  0  0  0  0  0  0  0  0
   -1.7692   44.4392   54.1686 H   0  0  0  0  0  0  0  0  0  0  0  0
   -1.4555   44.9740   56.5806 H   0  0  0  0  0  0  0  0  0  0  0  0
    1.4504   47.4312   57.5618 H   0  0  0  0  0  0  0  0  0  0  0  0
    2.8185   45.2792   55.9559 H   0  0  0  0  0  0  0  0  0  0  0  0
    4.0332   41.5530   50.9646 H   0  0  0  0  0  0  0  0  0  0  0  0
    5.9930   41.5873   49.4263 H   0  0  0  0  0  0  0  0  0  0  0  0
    7.4219   43.6210   49.2596 H   0  0  0  0  0  0  0  0  0  0  0  0
    7.0140   46.5330   49.7830 H   0  0  0  0  0  0  0  0  0  0  0  0
   11.3226   46.1328   52.3357 H   0  0  0  0  0  0  0  0  0  0  0  0
   10.5531   47.4414   54.3312 H   0  0  0  0  0  0  0  0  0  0  0  0
    8.1186   48.0085   54.5378 H   0  0  0  0  0  0  0  0  0  0  0  0
    4.9588   45.5942   52.2231 H   0  0  0  0  0  0  0  0  0  0  0  0
  1  2  2  0
  2  3  1  0
  3  4  1  0
  4  5  2  0
  5  6  1  0
  6  7  2  0
  7  8  1  0
  8  9  1  0
  9 10  1  0
 10 11  1  0
 10 12  1  0
  8 13  2  0
  2 14  1  0
 14 15  2  0
 15 16  1  0
 16 17  2  0
 17 18  1  0
 18 19  1  0
 19 20  1  0
 20 21  2  0
 21 22  1  0
 22 23  2  0
 23 24  1  0
 24 25  2  0
 18 26  2  0
 13  4  1  0
 26 14  1  0
 25 20  1  0
  3 27  1  0
  5 28  1  0
  6 29  1  0
  7 30  1  0
 10 31  1  0
 13 32  1  0
 15 33  1  0
 16 34  1  0
 17 35  1  0
 19 36  1  0
 22 37  1  0
 23 38  1  0
 24 39  1  0
 26 40  1  0
M  END
>  <meeko>  (2) 
{"is_sidechain": [false], "free_energy": -8.769, "intermolecular_energy": -11.973, "internal_energy": -0.607}

$$$$
ligand_17_conformer_1_docked
     RDKit          3D

 40 42  0  0  0  0  0  0  0  0999 V2000
    2.0630   45.2610   51.8080 O   0  0  0  0  0  0  0  0  0  0  0  0
    2.8520   44.4040   52.2910 C   0  0  0  0  0  0  0  0  0  0  0  0
    2.5690   43.8030   53.5700 N   0  0  0  0  0  0  0  0  0  0  0  0
    1.4540   44.1720   54.4000 C   0  0  0  0  0  0  0  0  0  0  0  0
    1.6180   45.0120   55.5160 C   0  0  0  0  0  0  0  0  0  0  0  0
    0.5220   45.3330   56.3210 C   0  0  0  0  0  0  0  0  0  0  0  0
   -0.7400   44.8090   56.0310 C   0  0  0  0  0  0  0  0  0  0  0  0
   -0.9180   43.9510   54.9410 C   0  0  0  0  0  0  0  0  0  0  0  0
   -2.2050   43.4430   54.6990 O   0  0  0  0  0  0  0  0  0  0  0  0
   -3.0910   43.9210   53.6910 C   0  0  0  0  0  0  0  0  0  0  0  0
   -2.8550   45.2640   53.4550 F   0  0  0  0  0  0  0  0  0  0  0  0
   -2.8700   43.2150   52.5250 F   0  0  0  0  0  0  0  0  0  0  0  0
    0.1890   43.6290   54.1300 C   0  0  0  0  0  0  0  0  0  0  0  0
    4.0590   44.0240   51.5180 C   0  0  0  0  0  0  0  0  0  0  0  0
    4.2160   42.6980   51.0790 C   0  0  0  0  0  0  0  0  0  0  0  0
    5.3530   42.3220   50.3620 C   0  0  0  0  0  0  0  0  0  0  0  0
    6.3440   43.2610   50.0720 C   0  0  0  0  0  0  0  0  0  0  0  0
    6.2060   44.5900   50.4930 C   0  0  0  0  0  0  0  0  0  0  0  0
    7.2550   45.5310   50.2120 N   0  0  0  0  0  0  0  0  0  0  0  0
    8.1310   46.0830   51.2070 C   0  0  0  0  0  0  0  0  0  0  0  0
    9.4340   45.6920   51.2440 N   0  0  0  0  0  0  0  0  0  0  0  0
   10.2970   46.2120   52.1560 C   0  0  0  0  0  0  0  0  0  0  0  0
    9.8520   47.1690   53.0660 C   0  0  0  0  0  0  0  0  0  0  0  0
    8.5180   47.5700   53.0090 C   0  0  0  0  0  0  0  0  0  0  0  0
    7.6870   47.0270   52.0830 N   0  0  0  0  0  0  0  0  0  0  0  0
    5.0720   44.9600   51.2400 C   0  0  0  0  0  0  0  0  0  0  0  0
    3.1680   43.0180   53.9070 H   0  0  0  0  0  0  0  0  0  0  0  0
    2.6120   45.4175   55.7558 H   0  0  0  0  0  0  0  0  0  0  0  0
    0.6533   46.0003   57.1856 H   0  0  0  0  0  0  0  0  0  0  0  0
   -1.5997   45.0730   56.6643 H   0  0  0  0  0  0  0  0  0  0  0  0
   -4.1299   43.7861   54.0263 H   0  0  0  0  0  0  0  0  0  0  0  0
    0.0598   42.9457   53.2777 H   0  0  0  0  0  0  0  0  0  0  0  0
    3.4385   41.9524   51.3017 H   0  0  0  0  0  0  0  0  0  0  0  0
    5.4684   41.2815   50.0242 H   0  0  0  0  0  0  0  0  0  0  0  0
    7.2387   42.9557   49.5095 H   0  0  0  0  0  0  0  0  0  0  0  0
    7.3400   45.9000   49.2380 H   0  0  0  0  0  0  0  0  0  0  0  0
   11.3449   45.8781   52.1758 H   0  0  0  0  0  0  0  0  0  0  0  0
   10.5373   47.5980   53.8119 H   0  0  0  0  0  0  0  0  0  0  0  0
    8.1393   48.3253   53.7134 H   0  0  0  0  0  0  0  0  0  0  0  0
    4.9767   45.9914   51.6102 H   0  0  0  0  0  0  0  0  0  0  0  0
  1  2  2  0
  2  3  1  0
  3  4  1  0
  4  5  2  0
  5  6  1  0
  6  7  2  0
  7  8  1  0
  8  9  1  0
  9 10  1  0
 10 11  1  0
 10 12  1  0
  8 13  2  0
  2 14  1  0
 14 15  2  0
 15 16  1  0
 16 17  2  0
 17 18  1  0
 18 19  1  0
 19 20  1  0
 20 21  2  0
 21 22  1  0
 22 23  2  0
 23 24  1  0
 24 25  2  0
 18 26  2  0
 13  4  1  0
 26 14  1  0
 25 20  1  0
  3 27  1  0
  5 28  1  0
  6 29  1  0
  7 30  1  0
 10 31  1  0
 13 32  1  0
 15 33  1  0
 16 34  1  0
 17 35  1  0
 19 36  1  0
 22 37  1  0
 23 38  1  0
 24 39  1  0
 26 40  1  0
M  END
>  <meeko>  (3) 
{"is_sidechain": [false], "free_energy": -8.406, "intermolecular_energy": -11.284, "internal_energy": -0.806}

$$$$
ligand_17_conformer_1_docked
     RDKit          3D

 40 42  0  0  0  0  0  0  0  0999 V2000
    2.9370   46.9080   51.9120 O   0  0  0  0  0  0  0  0  0  0  0  0
    2.8020   45.7790   52.4550 C   0  0  0  0  0  0  0  0  0  0  0  0
    3.9140   44.8640   52.5020 N   0  0  0  0  0  0  0  0  0  0  0  0
    5.1900   45.1200   51.8910 C   0  0  0  0  0  0  0  0  0  0  0  0
    5.5280   44.5720   50.6420 C   0  0  0  0  0  0  0  0  0  0  0  0
    6.7850   44.8160   50.0830 C   0  0  0  0  0  0  0  0  0  0  0  0
    7.7200   45.5930   50.7700 C   0  0  0  0  0  0  0  0  0  0  0  0
    7.4130   46.1260   52.0270 C   0  0  0  0  0  0  0  0  0  0  0  0
    8.3920   46.8920   52.6810 O   0  0  0  0  0  0  0  0  0  0  0  0
    9.6600   46.3980   53.1030 C   0  0  0  0  0  0  0  0  0  0  0  0
   10.6310   46.7450   52.1810 F   0  0  0  0  0  0  0  0  0  0  0  0
    9.9790   46.9620   54.3230 F   0  0  0  0  0  0  0  0  0  0  0  0
    6.1440   45.8790   52.5870 C   0  0  0  0  0  0  0  0  0  0  0  0
    1.4910   45.4200   53.0480 C   0  0  0  0  0  0  0  0  0  0  0  0
    0.3690   45.2650   52.2160 C   0  0  0  0  0  0  0  0  0  0  0  0
   -0.8750   44.9410   52.7610 C   0  0  0  0  0  0  0  0  0  0  0  0
   -1.0140   44.7650   54.1390 C   0  0  0  0  0  0  0  0  0  0  0  0
    0.0920   44.9060   54.9870 C   0  0  0  0  0  0  0  0  0  0  0  0
   -0.0840   44.7530   56.4060 N   0  0  0  0  0  0  0  0  0  0  0  0
   -0.0970   45.8430   57.3380 C   0  0  0  0  0  0  0  0  0  0  0  0
   -1.2560   46.5200   57.5640 N   0  0  0  0  0  0  0  0  0  0  0  0
   -1.3100   47.5410   58.4590 C   0  0  0  0  0  0  0  0  0  0  0  0
   -0.1680   47.9030   59.1700 C   0  0  0  0  0  0  0  0  0  0  0  0
    1.0100   47.1940   58.9390 C   0  0  0  0  0  0  0  0  0  0  0  0
    1.0240   46.1800   58.0370 N   0  0  0  0  0  0  0  0  0  0  0  0
    1.3380   45.2600   54.4380 C   0  0  0  0  0  0  0  0  0  0  0  0
    3.8240   43.9800   53.0500 H   0  0  0  0  0  0  0  0  0  0  0  0
    4.8001   43.9485   50.1022 H   0  0  0  0  0  0  0  0  0  0  0  0
    7.0388   44.3949   49.0990 H   0  0  0  0  0  0  0  0  0  0  0  0
    8.7047   45.7875   50.3200 H   0  0  0  0  0  0  0  0  0  0  0  0
    9.6132   45.3024   53.1897 H   0  0  0  0  0  0  0  0  0  0  0  0
    5.8983   46.2849   53.5794 H   0  0  0  0  0  0  0  0  0  0  0  0
    0.4715   45.3997   51.1291 H   0  0  0  0  0  0  0  0  0  0  0  0
   -1.7483   44.8240   52.1025 H   0  0  0  0  0  0  0  0  0  0  0  0
   -1.9982   44.5140   54.5614 H   0  0  0  0  0  0  0  0  0  0  0  0
   -0.1270   43.7840   56.7960 H   0  0  0  0  0  0  0  0  0  0  0  0
   -2.2543   48.0811   58.6219 H   0  0  0  0  0  0  0  0  0  0  0  0
   -0.1951   48.7286   59.8964 H   0  0  0  0  0  0  0  0  0  0  0  0
    1.9270   47.4561   59.4871 H   0  0  0  0  0  0  0  0  0  0  0  0
    2.2016   45.4133   55.1019 H   0  0  0  0  0  0  0  0  0  0  0  0
  1  2  2  0
  2  3  1  0
  3  4  1  0
  4  5  2  0
  5  6  1  0
  6  7  2  0
  7  8  1  0
  8  9  1  0
  9 10  1  0
 10 11  1  0
 10 12  1  0
  8 13  2  0
  2 14  1  0
 14 15  2  0
 15 16  1  0
 16 17  2  0
 17 18  1  0
 18 19  1  0
 19 20  1  0
 20 21  2  0
 21 22  1  0
 22 23  2  0
 23 24  1  0
 24 25  2  0
 18 26  2  0
 13  4  1  0
 26 14  1  0
 25 20  1  0
  3 27  1  0
  5 28  1  0
  6 29  1  0
  7 30  1  0
 10 31  1  0
 13 32  1  0
 15 33  1  0
 16 34  1  0
 17 35  1  0
 19 36  1  0
 22 37  1  0
 23 38  1  0
 24 39  1  0
 26 40  1  0
M  END
>  <meeko>  (4) 
{"is_sidechain": [false], "free_energy": -8.283, "intermolecular_energy": -11.161, "internal_energy": -0.763}

$$$$
ligand_17_conformer_1_docked
     RDKit          3D

 40 42  0  0  0  0  0  0  0  0999 V2000
    4.0720   41.7280   50.9180 O   0  0  0  0  0  0  0  0  0  0  0  0
    4.2830   42.9680   51.0160 C   0  0  0  0  0  0  0  0  0  0  0  0
    3.2700   43.8300   51.5700 N   0  0  0  0  0  0  0  0  0  0  0  0
    1.9640   43.3800   51.9680 C   0  0  0  0  0  0  0  0  0  0  0  0
    1.7480   42.7660   53.2140 C   0  0  0  0  0  0  0  0  0  0  0  0
    0.4730   42.3140   53.5650 C   0  0  0  0  0  0  0  0  0  0  0  0
   -0.5910   42.4570   52.6730 C   0  0  0  0  0  0  0  0  0  0  0  0
   -0.3920   43.0420   51.4170 C   0  0  0  0  0  0  0  0  0  0  0  0
   -1.4940   43.1510   50.5530 O   0  0  0  0  0  0  0  0  0  0  0  0
   -2.3040   44.3140   50.4140 C   0  0  0  0  0  0  0  0  0  0  0  0
   -3.5700   44.0690   50.9140 F   0  0  0  0  0  0  0  0  0  0  0  0
   -1.7330   45.3500   51.1280 F   0  0  0  0  0  0  0  0  0  0  0  0
    0.8940   43.4970   51.0670 C   0  0  0  0  0  0  0  0  0  0  0  0
    5.5860   43.5110   50.5620 C   0  0  0  0  0  0  0  0  0  0  0  0
    6.4220   42.7280   49.7480 C   0  0  0  0  0  0  0  0  0  0  0  0
    7.6580   43.2200   49.3240 C   0  0  0  0  0  0  0  0  0  0  0  0
    8.0730   44.4980   49.7040 C   0  0  0  0  0  0  0  0  0  0  0  0
    7.2530   45.3000   50.5090 C   0  0  0  0  0  0  0  0  0  0  0  0
    7.7160   46.5990   50.9140 N   0  0  0  0  0  0  0  0  0  0  0  0
    8.3660   46.8680   52.1650 C   0  0  0  0  0  0  0  0  0  0  0  0
    7.6370   47.3420   53.2110 N   0  0  0  0  0  0  0  0  0  0  0  0
    8.2150   47.5840   54.4170 C   0  0  0  0  0  0  0  0  0  0  0  0
    9.5740   47.3360   54.5990 C   0  0  0  0  0  0  0  0  0  0  0  0
   10.3070   46.8380   53.5230 C   0  0  0  0  0  0  0  0  0  0  0  0
    9.6930   46.6090   52.3330 N   0  0  0  0  0  0  0  0  0  0  0  0
    6.0200   44.7900   50.9570 C   0  0  0  0  0  0  0  0  0  0  0  0
    3.4970   44.8330   51.7480 H   0  0  0  0  0  0  0  0  0  0  0  0
    2.5859   42.6408   53.9156 H   0  0  0  0  0  0  0  0  0  0  0  0
    0.3077   41.8447   54.5460 H   0  0  0  0  0  0  0  0  0  0  0  0
   -1.5938   42.1072   52.9593 H   0  0  0  0  0  0  0  0  0  0  0  0
   -2.3767   44.5803   49.3492 H   0  0  0  0  0  0  0  0  0  0  0  0
    1.0616   43.9484   50.0780 H   0  0  0  0  0  0  0  0  0  0  0  0
    6.1007   41.7212   49.4429 H   0  0  0  0  0  0  0  0  0  0  0  0
    8.3067   42.5990   48.6888 H   0  0  0  0  0  0  0  0  0  0  0  0
    9.0497   44.8775   49.3693 H   0  0  0  0  0  0  0  0  0  0  0  0
    7.4990   47.4150   50.2980 H   0  0  0  0  0  0  0  0  0  0  0  0
    7.6106   47.9753   55.2486 H   0  0  0  0  0  0  0  0  0  0  0  0
   10.0568   47.5286   55.5684 H   0  0  0  0  0  0  0  0  0  0  0  0
   11.3812   46.6307   53.6373 H   0  0  0  0  0  0  0  0  0  0  0  0
    5.3892   45.3974   51.6227 H   0  0  0  0  0  0  0  0  0  0  0  0
  1  2  2  0
  2  3  1  0
  3  4  1  0
  4  5  2  0
  5  6  1  0
  6  7  2  0
  7  8  1  0
  8  9  1  0
  9 10  1  0
 10 11  1  0
 10 12  1  0
  8 13  2  0
  2 14  1  0
 14 15  2  0
 15 16  1  0
 16 17  2  0
 17 18  1  0
 18 19  1  0
 19 20  1  0
 20 21  2  0
 21 22  1  0
 22 23  2  0
 23 24  1  0
 24 25  2  0
 18 26  2  0
 13  4  1  0
 26 14  1  0
 25 20  1  0
  3 27  1  0
  5 28  1  0
  6 29  1  0
  7 30  1  0
 10 31  1  0
 13 32  1  0
 15 33  1  0
 16 34  1  0
 17 35  1  0
 19 36  1  0
 22 37  1  0
 23 38  1  0
 24 39  1  0
 26 40  1  0
M  END
>  <meeko>  (5) 
{"is_sidechain": [false], "free_energy": -8.252, "intermolecular_energy": -11.031, "internal_energy": -0.851}

$$$$
