ligand_35_conformer_3_docked
     RDKit          3D

 41 43  0  0  0  0  0  0  0  0999 V2000
   -0.1030   44.6010   54.7800 C   0  0  0  0  0  0  0  0  0  0  0  0
   -0.0610   43.7530   53.6370 O   0  0  0  0  0  0  0  0  0  0  0  0
    1.1010   43.4640   52.9070 C   0  0  0  0  0  0  0  0  0  0  0  0
    1.0720   42.7550   51.6900 C   0  0  0  0  0  0  0  0  0  0  0  0
    2.2580   42.4900   51.0000 C   0  0  0  0  0  0  0  0  0  0  0  0
    3.4920   42.9220   51.5130 C   0  0  0  0  0  0  0  0  0  0  0  0
    4.7410   42.6360   50.7800 C   0  0  0  0  0  0  0  0  0  0  0  0
    5.4870   43.5810   50.1670 N   0  0  0  0  0  0  0  0  0  0  0  0
    6.5030   42.8730   49.6400 C   0  0  0  0  0  0  0  0  0  0  0  0
    7.6580   43.4790   48.9030 C   0  0  0  0  0  0  0  0  0  0  0  0
    8.3570   44.5530   49.7460 C   0  0  0  0  0  0  0  0  0  0  0  0
    7.3860   45.3640   50.4800 N   0  0  0  0  0  0  0  0  0  0  0  0
    7.6930   45.9860   51.7380 C   0  0  0  0  0  0  0  0  0  0  0  0
    8.8950   46.1010   52.1010 O   0  0  0  0  0  0  0  0  0  0  0  0
    6.6140   46.5040   52.6120 C   0  0  0  0  0  0  0  0  0  0  0  0
    6.8640   46.7780   53.9680 C   0  0  0  0  0  0  0  0  0  0  0  0
    5.8700   47.2460   54.7690 N   0  0  0  0  0  0  0  0  0  0  0  0
    4.6130   47.4590   54.3000 C   0  0  0  0  0  0  0  0  0  0  0  0
    4.3120   47.1910   52.9650 C   0  0  0  0  0  0  0  0  0  0  0  0
    3.0550   47.3880   52.4940 F   0  0  0  0  0  0  0  0  0  0  0  0
    5.3140   46.7080   52.1190 C   0  0  0  0  0  0  0  0  0  0  0  0
    6.3540   41.5420   49.9570 C   0  0  0  0  0  0  0  0  0  0  0  0
    5.2540   41.4280   50.6570 O   0  0  0  0  0  0  0  0  0  0  0  0
    3.5190   43.6290   52.7260 C   0  0  0  0  0  0  0  0  0  0  0  0
    2.3310   43.8970   53.4130 C   0  0  0  0  0  0  0  0  0  0  0  0
   -0.0726   43.9879   55.6928 H   0  0  0  0  0  0  0  0  0  0  0  0
    0.7626   45.2796   54.7651 H   0  0  0  0  0  0  0  0  0  0  0  0
   -1.0315   45.1907   54.7651 H   0  0  0  0  0  0  0  0  0  0  0  0
    0.1115   42.4084   51.2810 H   0  0  0  0  0  0  0  0  0  0  0  0
    2.2248   41.9392   50.0484 H   0  0  0  0  0  0  0  0  0  0  0  0
    8.3821   42.6877   48.6592 H   0  0  0  0  0  0  0  0  0  0  0  0
    7.2748   43.9524   47.9870 H   0  0  0  0  0  0  0  0  0  0  0  0
    9.0311   44.0631   50.4640 H   0  0  0  0  0  0  0  0  0  0  0  0
    8.9223   45.2124   49.0710 H   0  0  0  0  0  0  0  0  0  0  0  0
    6.4480   45.5180   50.0450 H   0  0  0  0  0  0  0  0  0  0  0  0
    7.8692   46.6129   54.3832 H   0  0  0  0  0  0  0  0  0  0  0  0
    3.8325   47.8429   54.9734 H   0  0  0  0  0  0  0  0  0  0  0  0
    5.0848   46.4873   51.0660 H   0  0  0  0  0  0  0  0  0  0  0  0
    7.0339   40.7248   49.6742 H   0  0  0  0  0  0  0  0  0  0  0  0
    4.4791   43.9736   53.1376 H   0  0  0  0  0  0  0  0  0  0  0  0
    2.3641   44.4540   54.3610 H   0  0  0  0  0  0  0  0  0  0  0  0
  1  2  1  0
  2  3  1  0
  3  4  2  0
  4  5  1  0
  5  6  2  0
  6  7  1  0
  7  8  2  0
  8  9  1  0
  9 10  1  0
 10 11  1  0
 11 12  1  0
 12 13  1  0
 13 14  2  0
 13 15  1  0
 15 16  2  0
 16 17  1  0
 17 18  2  0
 18 19  1  0
 19 20  1  0
 19 21  2  0
  9 22  2  0
 22 23  1  0
  6 24  1  0
 24 25  2  0
 25  3  1  0
 23  7  1  0
 21 15  1  0
  1 26  1  0
  1 27  1  0
  1 28  1  0
  4 29  1  0
  5 30  1  0
 10 31  1  0
 10 32  1  0
 11 33  1  0
 11 34  1  0
 12 35  1  0
 16 36  1  0
 18 37  1  0
 21 38  1  0
 22 39  1  0
 24 40  1  0
 25 41  1  0
M  END
>  <meeko>  (1) 
{"is_sidechain": [false], "free_energy": -8.063, "intermolecular_energy": -10.892, "internal_energy": -1.145}

$$$$
ligand_35_conformer_3_docked
     RDKit          3D

 41 43  0  0  0  0  0  0  0  0999 V2000
    9.1080   44.1430   49.3890 C   0  0  0  0  0  0  0  0  0  0  0  0
    8.2350   43.0250   49.2620 O   0  0  0  0  0  0  0  0  0  0  0  0
    6.9470   42.9590   49.8130 C   0  0  0  0  0  0  0  0  0  0  0  0
    6.2290   41.7510   49.9100 C   0  0  0  0  0  0  0  0  0  0  0  0
    4.9470   41.7350   50.4650 C   0  0  0  0  0  0  0  0  0  0  0  0
    4.3580   42.9230   50.9290 C   0  0  0  0  0  0  0  0  0  0  0  0
    3.0010   42.9000   51.5120 C   0  0  0  0  0  0  0  0  0  0  0  0
    2.7320   43.2040   52.8010 N   0  0  0  0  0  0  0  0  0  0  0  0
    1.3970   43.0450   52.8780 C   0  0  0  0  0  0  0  0  0  0  0  0
    0.5850   43.3300   54.1050 C   0  0  0  0  0  0  0  0  0  0  0  0
    0.6230   44.8200   54.4660 C   0  0  0  0  0  0  0  0  0  0  0  0
    1.9880   45.2600   54.7560 N   0  0  0  0  0  0  0  0  0  0  0  0
    2.7250   46.1220   53.8750 C   0  0  0  0  0  0  0  0  0  0  0  0
    2.1170   46.7650   52.9760 O   0  0  0  0  0  0  0  0  0  0  0  0
    4.1930   46.2730   54.0140 C   0  0  0  0  0  0  0  0  0  0  0  0
    4.8700   45.6930   55.1010 C   0  0  0  0  0  0  0  0  0  0  0  0
    6.2150   45.8400   55.2300 N   0  0  0  0  0  0  0  0  0  0  0  0
    6.9480   46.5460   54.3300 C   0  0  0  0  0  0  0  0  0  0  0  0
    6.3210   47.1500   53.2400 C   0  0  0  0  0  0  0  0  0  0  0  0
    7.0450   47.8680   52.3450 F   0  0  0  0  0  0  0  0  0  0  0  0
    4.9390   47.0160   53.0830 C   0  0  0  0  0  0  0  0  0  0  0  0
    0.9020   42.6720   51.6490 C   0  0  0  0  0  0  0  0  0  0  0  0
    1.9200   42.5860   50.8290 O   0  0  0  0  0  0  0  0  0  0  0  0
    5.0750   44.1270   50.8320 C   0  0  0  0  0  0  0  0  0  0  0  0
    6.3600   44.1390   50.2790 C   0  0  0  0  0  0  0  0  0  0  0  0
    9.2758   44.3580   50.4547 H   0  0  0  0  0  0  0  0  0  0  0  0
   10.0691   43.9145   48.9052 H   0  0  0  0  0  0  0  0  0  0  0  0
    8.6533   45.0201   48.9052 H   0  0  0  0  0  0  0  0  0  0  0  0
    6.6799   40.8157   49.5470 H   0  0  0  0  0  0  0  0  0  0  0  0
    4.3953   40.7862   50.5391 H   0  0  0  0  0  0  0  0  0  0  0  0
   -0.4580   43.0325   53.9213 H   0  0  0  0  0  0  0  0  0  0  0  0
    1.0112   42.7592   54.9432 H   0  0  0  0  0  0  0  0  0  0  0  0
    0.2298   45.4040   53.6208 H   0  0  0  0  0  0  0  0  0  0  0  0
    0.0085   44.9762   55.3649 H   0  0  0  0  0  0  0  0  0  0  0  0
    2.4180   44.9570   55.6590 H   0  0  0  0  0  0  0  0  0  0  0  0
    4.3082   45.1171   55.8511 H   0  0  0  0  0  0  0  0  0  0  0  0
    8.0360   46.6414   54.4608 H   0  0  0  0  0  0  0  0  0  0  0  0
    4.4343   47.4926   52.2297 H   0  0  0  0  0  0  0  0  0  0  0  0
   -0.1527   42.4815   51.4013 H   0  0  0  0  0  0  0  0  0  0  0  0
    4.6245   45.0637   51.1921 H   0  0  0  0  0  0  0  0  0  0  0  0
    6.9142   45.0867   50.2102 H   0  0  0  0  0  0  0  0  0  0  0  0
  1  2  1  0
  2  3  1  0
  3  4  2  0
  4  5  1  0
  5  6  2  0
  6  7  1  0
  7  8  2  0
  8  9  1  0
  9 10  1  0
 10 11  1  0
 11 12  1  0
 12 13  1  0
 13 14  2  0
 13 15  1  0
 15 16  2  0
 16 17  1  0
 17 18  2  0
 18 19  1  0
 19 20  1  0
 19 21  2  0
  9 22  2  0
 22 23  1  0
  6 24  1  0
 24 25  2  0
 25  3  1  0
 23  7  1  0
 21 15  1  0
  1 26  1  0
  1 27  1  0
  1 28  1  0
  4 29  1  0
  5 30  1  0
 10 31  1  0
 10 32  1  0
 11 33  1  0
 11 34  1  0
 12 35  1  0
 16 36  1  0
 18 37  1  0
 21 38  1  0
 22 39  1  0
 24 40  1  0
 25 41  1  0
M  END
>  <meeko>  (2) 
{"is_sidechain": [false], "free_energy": -8.055, "intermolecular_energy": -10.858, "internal_energy": -1.168}

$$$$
ligand_35_conformer_3_docked
     RDKit          3D

 41 43  0  0  0  0  0  0  0  0999 V2000
    0.5780   45.1710   57.0330 C   0  0  0  0  0  0  0  0  0  0  0  0
    0.7410   45.6090   55.6880 O   0  0  0  0  0  0  0  0  0  0  0  0
    1.4250   44.8880   54.6970 C   0  0  0  0  0  0  0  0  0  0  0  0
    2.7150   45.2440   54.2590 C   0  0  0  0  0  0  0  0  0  0  0  0
    3.3550   44.4950   53.2670 C   0  0  0  0  0  0  0  0  0  0  0  0
    2.7170   43.3840   52.6930 C   0  0  0  0  0  0  0  0  0  0  0  0
    3.3980   42.5990   51.6430 C   0  0  0  0  0  0  0  0  0  0  0  0
    4.7100   42.7240   51.3430 N   0  0  0  0  0  0  0  0  0  0  0  0
    4.8790   41.8360   50.3460 C   0  0  0  0  0  0  0  0  0  0  0  0
    6.1970   41.5390   49.6980 C   0  0  0  0  0  0  0  0  0  0  0  0
    6.6640   42.7080   48.8210 C   0  0  0  0  0  0  0  0  0  0  0  0
    6.7060   43.9570   49.5820 N   0  0  0  0  0  0  0  0  0  0  0  0
    7.9380   44.5530   50.0190 C   0  0  0  0  0  0  0  0  0  0  0  0
    9.0290   44.1810   49.5080 O   0  0  0  0  0  0  0  0  0  0  0  0
    7.9420   45.6090   51.0600 C   0  0  0  0  0  0  0  0  0  0  0  0
    6.7370   46.1980   51.4830 C   0  0  0  0  0  0  0  0  0  0  0  0
    6.7450   47.1710   52.4320 N   0  0  0  0  0  0  0  0  0  0  0  0
    7.8990   47.6110   52.9970 C   0  0  0  0  0  0  0  0  0  0  0  0
    9.1210   47.0660   52.6030 C   0  0  0  0  0  0  0  0  0  0  0  0
   10.2790   47.5110   53.1530 F   0  0  0  0  0  0  0  0  0  0  0  0
    9.1430   46.0650   51.6280 C   0  0  0  0  0  0  0  0  0  0  0  0
    3.6880   41.1980   50.0850 C   0  0  0  0  0  0  0  0  0  0  0  0
    2.7920   41.6960   50.9000 O   0  0  0  0  0  0  0  0  0  0  0  0
    1.4310   43.0300   53.1310 C   0  0  0  0  0  0  0  0  0  0  0  0
    0.7940   43.7780   54.1260 C   0  0  0  0  0  0  0  0  0  0  0  0
    0.8777   45.9763   57.7197 H   0  0  0  0  0  0  0  0  0  0  0  0
   -0.4766   44.9124   57.2092 H   0  0  0  0  0  0  0  0  0  0  0  0
    1.2069   44.2859   57.2092 H   0  0  0  0  0  0  0  0  0  0  0  0
    3.2216   46.1155   54.6994 H   0  0  0  0  0  0  0  0  0  0  0  0
    4.3646   44.7779   52.9342 H   0  0  0  0  0  0  0  0  0  0  0  0
    6.9479   41.3563   50.4808 H   0  0  0  0  0  0  0  0  0  0  0  0
    6.0770   40.6520   49.0585 H   0  0  0  0  0  0  0  0  0  0  0  0
    7.6709   42.4881   48.4365 H   0  0  0  0  0  0  0  0  0  0  0  0
    5.9502   42.8287   47.9928 H   0  0  0  0  0  0  0  0  0  0  0  0
    5.8010   44.4420   49.7770 H   0  0  0  0  0  0  0  0  0  0  0  0
    5.7835   45.8697   51.0437 H   0  0  0  0  0  0  0  0  0  0  0  0
    7.8699   48.3974   53.7656 H   0  0  0  0  0  0  0  0  0  0  0  0
   10.1020   45.6337   51.3050 H   0  0  0  0  0  0  0  0  0  0  0  0
    3.5197   40.4147   49.3313 H   0  0  0  0  0  0  0  0  0  0  0  0
    0.9222   42.1604   52.6895 H   0  0  0  0  0  0  0  0  0  0  0  0
   -0.2130   43.4907   54.4629 H   0  0  0  0  0  0  0  0  0  0  0  0
  1  2  1  0
  2  3  1  0
  3  4  2  0
  4  5  1  0
  5  6  2  0
  6  7  1  0
  7  8  2  0
  8  9  1  0
  9 10  1  0
 10 11  1  0
 11 12  1  0
 12 13  1  0
 13 14  2  0
 13 15  1  0
 15 16  2  0
 16 17  1  0
 17 18  2  0
 18 19  1  0
 19 20  1  0
 19 21  2  0
  9 22  2  0
 22 23  1  0
  6 24  1  0
 24 25  2  0
 25  3  1  0
 23  7  1  0
 21 15  1  0
  1 26  1  0
  1 27  1  0
  1 28  1  0
  4 29  1  0
  5 30  1  0
 10 31  1  0
 10 32  1  0
 11 33  1  0
 11 34  1  0
 12 35  1  0
 16 36  1  0
 18 37  1  0
 21 38  1  0
 22 39  1  0
 24 40  1  0
 25 41  1  0
M  END
>  <meeko>  (3) 
{"is_sidechain": [false], "free_energy": -8.045, "intermolecular_energy": -10.994, "internal_energy": -1.018}

$$$$
ligand_35_conformer_3_docked
     RDKit          3D

 41 43  0  0  0  0  0  0  0  0999 V2000
   10.6410   46.1530   51.7440 C   0  0  0  0  0  0  0  0  0  0  0  0
    9.8270   46.9850   52.5630 O   0  0  0  0  0  0  0  0  0  0  0  0
    8.4620   46.7720   52.8000 C   0  0  0  0  0  0  0  0  0  0  0  0
    7.8950   46.8610   54.0870 C   0  0  0  0  0  0  0  0  0  0  0  0
    6.5290   46.6370   54.2730 C   0  0  0  0  0  0  0  0  0  0  0  0
    5.7050   46.3170   53.1810 C   0  0  0  0  0  0  0  0  0  0  0  0
    4.2620   46.0790   53.3860 C   0  0  0  0  0  0  0  0  0  0  0  0
    3.3490   46.0930   52.3900 N   0  0  0  0  0  0  0  0  0  0  0  0
    2.1940   45.8370   53.0320 C   0  0  0  0  0  0  0  0  0  0  0  0
    0.8690   45.6790   52.3510 C   0  0  0  0  0  0  0  0  0  0  0  0
    0.5190   44.2000   52.1470 C   0  0  0  0  0  0  0  0  0  0  0  0
    1.4830   43.5440   51.2640 N   0  0  0  0  0  0  0  0  0  0  0  0
    2.5620   42.7370   51.7610 C   0  0  0  0  0  0  0  0  0  0  0  0
    2.5350   42.3250   52.9530 O   0  0  0  0  0  0  0  0  0  0  0  0
    3.7030   42.3740   50.8880 C   0  0  0  0  0  0  0  0  0  0  0  0
    3.6330   41.2410   50.0580 C   0  0  0  0  0  0  0  0  0  0  0  0
    4.6840   40.9060   49.2640 N   0  0  0  0  0  0  0  0  0  0  0  0
    5.8290   41.6380   49.2440 C   0  0  0  0  0  0  0  0  0  0  0  0
    5.9510   42.7640   50.0580 C   0  0  0  0  0  0  0  0  0  0  0  0
    7.0960   43.4910   50.0540 F   0  0  0  0  0  0  0  0  0  0  0  0
    4.8860   43.1310   50.8860 C   0  0  0  0  0  0  0  0  0  0  0  0
    2.4390   45.6630   54.3760 C   0  0  0  0  0  0  0  0  0  0  0  0
    3.7250   45.8240   54.5610 O   0  0  0  0  0  0  0  0  0  0  0  0
    6.2710   46.2290   51.8990 C   0  0  0  0  0  0  0  0  0  0  0  0
    7.6380   46.4570   51.7140 C   0  0  0  0  0  0  0  0  0  0  0  0
   11.2681   45.5121   52.3812 H   0  0  0  0  0  0  0  0  0  0  0  0
   10.0000   45.5238   51.1089 H   0  0  0  0  0  0  0  0  0  0  0  0
   11.2840   46.7800   51.1089 H   0  0  0  0  0  0  0  0  0  0  0  0
    8.5314   47.1081   54.9495 H   0  0  0  0  0  0  0  0  0  0  0  0
    6.0954   46.7116   55.2812 H   0  0  0  0  0  0  0  0  0  0  0  0
    0.0902   46.1493   52.9693 H   0  0  0  0  0  0  0  0  0  0  0  0
    0.9268   46.1610   51.3639 H   0  0  0  0  0  0  0  0  0  0  0  0
    0.5236   43.6925   53.1229 H   0  0  0  0  0  0  0  0  0  0  0  0
   -0.4760   44.1390   51.6821 H   0  0  0  0  0  0  0  0  0  0  0  0
    1.3490   43.6460   50.2330 H   0  0  0  0  0  0  0  0  0  0  0  0
    2.7232   40.6228   50.0513 H   0  0  0  0  0  0  0  0  0  0  0  0
    6.6594   41.3424   48.5859 H   0  0  0  0  0  0  0  0  0  0  0  0
    4.9747   44.0135   51.5366 H   0  0  0  0  0  0  0  0  0  0  0  0
    1.6927   45.4317   55.1503 H   0  0  0  0  0  0  0  0  0  0  0  0
    5.6359   45.9795   51.0362 H   0  0  0  0  0  0  0  0  0  0  0  0
    8.0699   46.3880   50.7047 H   0  0  0  0  0  0  0  0  0  0  0  0
  1  2  1  0
  2  3  1  0
  3  4  2  0
  4  5  1  0
  5  6  2  0
  6  7  1  0
  7  8  2  0
  8  9  1  0
  9 10  1  0
 10 11  1  0
 11 12  1  0
 12 13  1  0
 13 14  2  0
 13 15  1  0
 15 16  2  0
 16 17  1  0
 17 18  2  0
 18 19  1  0
 19 20  1  0
 19 21  2  0
  9 22  2  0
 22 23  1  0
  6 24  1  0
 24 25  2  0
 25  3  1  0
 23  7  1  0
 21 15  1  0
  1 26  1  0
  1 27  1  0
  1 28  1  0
  4 29  1  0
  5 30  1  0
 10 31  1  0
 10 32  1  0
 11 33  1  0
 11 34  1  0
 12 35  1  0
 16 36  1  0
 18 37  1  0
 21 38  1  0
 22 39  1  0
 24 40  1  0
 25 41  1  0
M  END
>  <meeko>  (4) 
{"is_sidechain": [false], "free_energy": -8.024, "intermolecular_energy": -10.53, "internal_energy": -1.453}

$$$$
ligand_35_conformer_3_docked
     RDKit          3D

 41 43  0  0  0  0  0  0  0  0999 V2000
    9.9870   48.2540   55.6970 C   0  0  0  0  0  0  0  0  0  0  0  0
    8.8960   48.3900   54.7920 O   0  0  0  0  0  0  0  0  0  0  0  0
    8.6460   47.5250   53.7170 C   0  0  0  0  0  0  0  0  0  0  0  0
    7.3410   47.2180   53.2840 C   0  0  0  0  0  0  0  0  0  0  0  0
    7.1420   46.3470   52.2090 C   0  0  0  0  0  0  0  0  0  0  0  0
    8.2390   45.7650   51.5520 C   0  0  0  0  0  0  0  0  0  0  0  0
    8.0200   44.8430   50.4190 C   0  0  0  0  0  0  0  0  0  0  0  0
    6.8920   44.1200   50.2450 N   0  0  0  0  0  0  0  0  0  0  0  0
    7.1390   43.4390   49.1100 C   0  0  0  0  0  0  0  0  0  0  0  0
    6.1540   42.5280   48.4430 C   0  0  0  0  0  0  0  0  0  0  0  0
    5.7190   41.3950   49.3800 C   0  0  0  0  0  0  0  0  0  0  0  0
    5.1970   41.9210   50.6410 N   0  0  0  0  0  0  0  0  0  0  0  0
    3.7940   42.1180   50.8750 C   0  0  0  0  0  0  0  0  0  0  0  0
    2.9510   41.5660   50.1160 O   0  0  0  0  0  0  0  0  0  0  0  0
    3.3220   42.9550   52.0030 C   0  0  0  0  0  0  0  0  0  0  0  0
    2.0170   42.8090   52.5030 C   0  0  0  0  0  0  0  0  0  0  0  0
    1.5850   43.5830   53.5340 N   0  0  0  0  0  0  0  0  0  0  0  0
    2.3830   44.5200   54.1090 C   0  0  0  0  0  0  0  0  0  0  0  0
    3.6830   44.7120   53.6410 C   0  0  0  0  0  0  0  0  0  0  0  0
    4.4810   45.6550   54.2020 F   0  0  0  0  0  0  0  0  0  0  0  0
    4.1530   43.9300   52.5820 C   0  0  0  0  0  0  0  0  0  0  0  0
    8.3840   43.7760   48.6280 C   0  0  0  0  0  0  0  0  0  0  0  0
    8.9030   44.6420   49.4620 O   0  0  0  0  0  0  0  0  0  0  0  0
    9.5380   46.0720   51.9860 C   0  0  0  0  0  0  0  0  0  0  0  0
    9.7360   46.9470   53.0590 C   0  0  0  0  0  0  0  0  0  0  0  0
    9.6139   48.3005   56.7307 H   0  0  0  0  0  0  0  0  0  0  0  0
   10.4838   47.2870   55.5297 H   0  0  0  0  0  0  0  0  0  0  0  0
   10.7060   49.0695   55.5297 H   0  0  0  0  0  0  0  0  0  0  0  0
    6.4752   47.6655   53.7939 H   0  0  0  0  0  0  0  0  0  0  0  0
    6.1197   46.1157   51.8752 H   0  0  0  0  0  0  0  0  0  0  0  0
    5.2682   43.1109   48.1504 H   0  0  0  0  0  0  0  0  0  0  0  0
    6.6361   42.0824   47.5603 H   0  0  0  0  0  0  0  0  0  0  0  0
    4.9345   40.8027   48.8864 H   0  0  0  0  0  0  0  0  0  0  0  0
    6.5967   40.7698   49.6007 H   0  0  0  0  0  0  0  0  0  0  0  0
    5.8800   42.1240   51.4060 H   0  0  0  0  0  0  0  0  0  0  0  0
    1.3410   42.0642   52.0577 H   0  0  0  0  0  0  0  0  0  0  0  0
    2.0039   45.1276   54.9440 H   0  0  0  0  0  0  0  0  0  0  0  0
    5.1744   44.0777   52.2012 H   0  0  0  0  0  0  0  0  0  0  0  0
    8.8552   43.3895   47.7123 H   0  0  0  0  0  0  0  0  0  0  0  0
   10.4047   45.6221   51.4797 H   0  0  0  0  0  0  0  0  0  0  0  0
   10.7587   47.1827   53.3883 H   0  0  0  0  0  0  0  0  0  0  0  0
  1  2  1  0
  2  3  1  0
  3  4  2  0
  4  5  1  0
  5  6  2  0
  6  7  1  0
  7  8  2  0
  8  9  1  0
  9 10  1  0
 10 11  1  0
 11 12  1  0
 12 13  1  0
 13 14  2  0
 13 15  1  0
 15 16  2  0
 16 17  1  0
 17 18  2  0
 18 19  1  0
 19 20  1  0
 19 21  2  0
  9 22  2  0
 22 23  1  0
  6 24  1  0
 24 25  2  0
 25  3  1  0
 23  7  1  0
 21 15  1  0
  1 26  1  0
  1 27  1  0
  1 28  1  0
  4 29  1  0
  5 30  1  0
 10 31  1  0
 10 32  1  0
 11 33  1  0
 11 34  1  0
 12 35  1  0
 16 36  1  0
 18 37  1  0
 21 38  1  0
 22 39  1  0
 24 40  1  0
 25 41  1  0
M  END
>  <meeko>  (5) 
{"is_sidechain": [false], "free_energy": -7.915, "intermolecular_energy": -10.557, "internal_energy": -1.28}

$$$$
