ligand_26_conformer_5_docked
     RDKit          3D

 42 44  0  0  0  0  0  0  0  0999 V2000
    9.1900   47.9440   54.9390 C   0  0  0  0  0  0  0  0  0  0  0  0
    8.8300   47.2390   53.6640 C   0  0  0  0  0  0  0  0  0  0  0  0
    9.8060   46.9960   52.6920 C   0  0  0  0  0  0  0  0  0  0  0  0
    9.4800   46.3080   51.5240 C   0  0  0  0  0  0  0  0  0  0  0  0
    8.1760   45.8300   51.3110 C   0  0  0  0  0  0  0  0  0  0  0  0
    7.8680   45.1150   50.0230 C   0  0  0  0  0  0  0  0  0  0  0  0
    7.1810   46.0750   52.2920 C   0  0  0  0  0  0  0  0  0  0  0  0
    5.5040   45.5430   52.0780 S   0  0  0  0  0  0  0  0  0  0  0  0
    4.9900   45.9230   50.7170 O   0  0  0  0  0  0  0  0  0  0  0  0
    4.6450   46.2130   53.1150 O   0  0  0  0  0  0  0  0  0  0  0  0
    5.3880   43.8210   52.2580 N   0  0  0  0  0  0  0  0  0  0  0  0
    4.9610   42.9350   51.2080 C   0  0  0  0  0  0  0  0  0  0  0  0
    5.8440   42.4800   50.2140 C   0  0  0  0  0  0  0  0  0  0  0  0
    5.4000   41.6100   49.2150 C   0  0  0  0  0  0  0  0  0  0  0  0
    4.0630   41.1810   49.1850 C   0  0  0  0  0  0  0  0  0  0  0  0
    3.6170   40.2560   48.1180 C   0  0  0  0  0  0  0  0  0  0  0  0
    3.7690   40.3970   46.7510 C   0  0  0  0  0  0  0  0  0  0  0  0
    3.2230   39.3300   46.1380 N   0  0  0  0  0  0  0  0  0  0  0  0
    2.7540   38.5850   47.1610 C   0  0  0  0  0  0  0  0  0  0  0  0
    2.0750   37.2720   46.9780 C   0  0  0  0  0  0  0  0  0  0  0  0
    2.9890   39.1260   48.3350 O   0  0  0  0  0  0  0  0  0  0  0  0
    3.1780   41.6440   50.1720 C   0  0  0  0  0  0  0  0  0  0  0  0
    3.6240   42.5140   51.1710 C   0  0  0  0  0  0  0  0  0  0  0  0
    7.5270   46.7620   53.4670 C   0  0  0  0  0  0  0  0  0  0  0  0
    8.8773   47.3315   55.7975 H   0  0  0  0  0  0  0  0  0  0  0  0
   10.2782   48.1001   54.9770 H   0  0  0  0  0  0  0  0  0  0  0  0
    8.6784   48.9171   54.9770 H   0  0  0  0  0  0  0  0  0  0  0  0
   10.8357   47.3494   52.8499 H   0  0  0  0  0  0  0  0  0  0  0  0
   10.2529   46.1374   50.7601 H   0  0  0  0  0  0  0  0  0  0  0  0
    7.4418   44.1257   50.2457 H   0  0  0  0  0  0  0  0  0  0  0  0
    7.1437   45.7037   49.4410 H   0  0  0  0  0  0  0  0  0  0  0  0
    8.7934   44.9930   49.4410 H   0  0  0  0  0  0  0  0  0  0  0  0
    5.7520   43.4140   53.1490 H   0  0  0  0  0  0  0  0  0  0  0  0
    6.8929   42.8114   50.2225 H   0  0  0  0  0  0  0  0  0  0  0  0
    6.1032   41.2582   48.4458 H   0  0  0  0  0  0  0  0  0  0  0  0
    4.2570   41.2438   46.2461 H   0  0  0  0  0  0  0  0  0  0  0  0
    1.8493   36.8356   47.9622 H   0  0  0  0  0  0  0  0  0  0  0  0
    1.1393   37.4179   46.4183 H   0  0  0  0  0  0  0  0  0  0  0  0
    2.7349   36.5928   46.4183 H   0  0  0  0  0  0  0  0  0  0  0  0
    2.1269   41.3199   50.1589 H   0  0  0  0  0  0  0  0  0  0  0  0
    2.9191   42.8720   51.9358 H   0  0  0  0  0  0  0  0  0  0  0  0
    6.7652   46.9279   54.2430 H   0  0  0  0  0  0  0  0  0  0  0  0
  1  2  1  0
  2  3  2  0
  3  4  1  0
  4  5  2  0
  5  6  1  0
  5  7  1  0
  7  8  1  0
  8  9  2  0
  8 10  2  0
  8 11  1  0
 11 12  1  0
 12 13  2  0
 13 14  1  0
 14 15  2  0
 15 16  1  0
 16 17  2  0
 17 18  1  0
 18 19  2  0
 19 20  1  0
 19 21  1  0
 15 22  1  0
 22 23  2  0
  7 24  2  0
 24  2  1  0
 23 12  1  0
 21 16  1  0
  1 25  1  0
  1 26  1  0
  1 27  1  0
  3 28  1  0
  4 29  1  0
  6 30  1  0
  6 31  1  0
  6 32  1  0
 11 33  1  0
 13 34  1  0
 14 35  1  0
 17 36  1  0
 20 37  1  0
 20 38  1  0
 20 39  1  0
 22 40  1  0
 23 41  1  0
 24 42  1  0
M  END
>  <meeko>  (1) 
{"is_sidechain": [false], "free_energy": -9.097, "intermolecular_energy": -11.225, "internal_energy": -0.281}

$$$$
ligand_26_conformer_5_docked
     RDKit          3D

 42 44  0  0  0  0  0  0  0  0999 V2000
   10.3640   47.5380   55.3230 C   0  0  0  0  0  0  0  0  0  0  0  0
    9.5970   47.1060   54.1080 C   0  0  0  0  0  0  0  0  0  0  0  0
   10.2760   46.6880   52.9580 C   0  0  0  0  0  0  0  0  0  0  0  0
    9.5640   46.2510   51.8410 C   0  0  0  0  0  0  0  0  0  0  0  0
    8.1600   46.2050   51.8560 C   0  0  0  0  0  0  0  0  0  0  0  0
    7.4380   45.7490   50.6160 C   0  0  0  0  0  0  0  0  0  0  0  0
    7.4670   46.6290   53.0180 C   0  0  0  0  0  0  0  0  0  0  0  0
    5.6960   46.6410   53.0990 S   0  0  0  0  0  0  0  0  0  0  0  0
    5.0960   46.7460   51.7240 O   0  0  0  0  0  0  0  0  0  0  0  0
    5.2550   47.8330   53.9030 O   0  0  0  0  0  0  0  0  0  0  0  0
    5.1150   45.1900   53.8530 N   0  0  0  0  0  0  0  0  0  0  0  0
    3.7270   44.9350   54.1330 C   0  0  0  0  0  0  0  0  0  0  0  0
    3.1100   45.3940   55.3100 C   0  0  0  0  0  0  0  0  0  0  0  0
    1.7560   45.1410   55.5450 C   0  0  0  0  0  0  0  0  0  0  0  0
    0.9930   44.4180   54.6140 C   0  0  0  0  0  0  0  0  0  0  0  0
   -0.4400   44.1640   54.8850 C   0  0  0  0  0  0  0  0  0  0  0  0
   -1.4270   43.8080   53.9840 C   0  0  0  0  0  0  0  0  0  0  0  0
   -2.5930   43.6720   54.6440 N   0  0  0  0  0  0  0  0  0  0  0  0
   -2.2660   43.9580   55.9220 C   0  0  0  0  0  0  0  0  0  0  0  0
   -3.2410   43.9160   57.0480 C   0  0  0  0  0  0  0  0  0  0  0  0
   -0.9930   44.2450   56.0700 O   0  0  0  0  0  0  0  0  0  0  0  0
    1.6130   43.9500   53.4430 C   0  0  0  0  0  0  0  0  0  0  0  0
    2.9670   44.2050   53.2090 C   0  0  0  0  0  0  0  0  0  0  0  0
    8.1970   47.0590   54.1380 C   0  0  0  0  0  0  0  0  0  0  0  0
    9.8197   47.2314   56.2284 H   0  0  0  0  0  0  0  0  0  0  0  0
   11.3581   47.0671   55.3157 H   0  0  0  0  0  0  0  0  0  0  0  0
   10.4766   48.6322   55.3157 H   0  0  0  0  0  0  0  0  0  0  0  0
   11.3756   46.7041   52.9348 H   0  0  0  0  0  0  0  0  0  0  0  0
   10.1083   45.9387   50.9376 H   0  0  0  0  0  0  0  0  0  0  0  0
    6.5400   45.1818   50.9022 H   0  0  0  0  0  0  0  0  0  0  0  0
    7.1436   46.6254   50.0199 H   0  0  0  0  0  0  0  0  0  0  0  0
    8.1029   45.1066   50.0199 H   0  0  0  0  0  0  0  0  0  0  0  0
    5.8120   44.4270   54.0090 H   0  0  0  0  0  0  0  0  0  0  0  0
    3.6972   45.9562   56.0510 H   0  0  0  0  0  0  0  0  0  0  0  0
    1.2839   45.5113   56.4670 H   0  0  0  0  0  0  0  0  0  0  0  0
   -1.2830   43.6599   52.9036 H   0  0  0  0  0  0  0  0  0  0  0  0
   -2.6979   43.9394   58.0043 H   0  0  0  0  0  0  0  0  0  0  0  0
   -3.9111   44.7861   56.9855 H   0  0  0  0  0  0  0  0  0  0  0  0
   -3.8338   42.9915   56.9855 H   0  0  0  0  0  0  0  0  0  0  0  0
    1.0289   43.3794   52.7059 H   0  0  0  0  0  0  0  0  0  0  0  0
    3.4410   43.8290   52.2904 H   0  0  0  0  0  0  0  0  0  0  0  0
    7.6629   47.3628   55.0504 H   0  0  0  0  0  0  0  0  0  0  0  0
  1  2  1  0
  2  3  2  0
  3  4  1  0
  4  5  2  0
  5  6  1  0
  5  7  1  0
  7  8  1  0
  8  9  2  0
  8 10  2  0
  8 11  1  0
 11 12  1  0
 12 13  2  0
 13 14  1  0
 14 15  2  0
 15 16  1  0
 16 17  2  0
 17 18  1  0
 18 19  2  0
 19 20  1  0
 19 21  1  0
 15 22  1  0
 22 23  2  0
  7 24  2  0
 24  2  1  0
 23 12  1  0
 21 16  1  0
  1 25  1  0
  1 26  1  0
  1 27  1  0
  3 28  1  0
  4 29  1  0
  6 30  1  0
  6 31  1  0
  6 32  1  0
 11 33  1  0
 13 34  1  0
 14 35  1  0
 17 36  1  0
 20 37  1  0
 20 38  1  0
 20 39  1  0
 22 40  1  0
 23 41  1  0
 24 42  1  0
M  END
>  <meeko>  (2) 
{"is_sidechain": [false], "free_energy": -9.044, "intermolecular_energy": -11.526, "internal_energy": 0.086}

$$$$
ligand_26_conformer_5_docked
     RDKit          3D

 42 44  0  0  0  0  0  0  0  0999 V2000
   10.5620   47.5780   55.3470 C   0  0  0  0  0  0  0  0  0  0  0  0
    9.6830   47.1570   54.2060 C   0  0  0  0  0  0  0  0  0  0  0  0
   10.2470   46.7780   52.9830 C   0  0  0  0  0  0  0  0  0  0  0  0
    9.4320   46.3500   51.9360 C   0  0  0  0  0  0  0  0  0  0  0  0
    8.0380   46.2750   52.0930 C   0  0  0  0  0  0  0  0  0  0  0  0
    7.2010   45.8310   50.9230 C   0  0  0  0  0  0  0  0  0  0  0  0
    7.4600   46.6590   53.3290 C   0  0  0  0  0  0  0  0  0  0  0  0
    5.7070   46.6330   53.5920 S   0  0  0  0  0  0  0  0  0  0  0  0
    4.9770   47.1640   52.3900 O   0  0  0  0  0  0  0  0  0  0  0  0
    5.3800   47.5060   54.7720 O   0  0  0  0  0  0  0  0  0  0  0  0
    5.1670   45.0140   53.9050 N   0  0  0  0  0  0  0  0  0  0  0  0
    3.8840   44.5070   53.4970 C   0  0  0  0  0  0  0  0  0  0  0  0
    2.6890   44.9400   54.0980 C   0  0  0  0  0  0  0  0  0  0  0  0
    1.4570   44.4370   53.6690 C   0  0  0  0  0  0  0  0  0  0  0  0
    1.3940   43.4870   52.6360 C   0  0  0  0  0  0  0  0  0  0  0  0
    0.0780   42.9710   52.1980 C   0  0  0  0  0  0  0  0  0  0  0  0
   -0.6580   41.9380   52.7480 C   0  0  0  0  0  0  0  0  0  0  0  0
   -1.7990   41.7930   52.0490 N   0  0  0  0  0  0  0  0  0  0  0  0
   -1.7070   42.7440   51.0960 C   0  0  0  0  0  0  0  0  0  0  0  0
   -2.7670   42.9930   50.0790 C   0  0  0  0  0  0  0  0  0  0  0  0
   -0.6020   43.4480   51.1830 O   0  0  0  0  0  0  0  0  0  0  0  0
    2.5900   43.0470   52.0430 C   0  0  0  0  0  0  0  0  0  0  0  0
    3.8200   43.5510   52.4730 C   0  0  0  0  0  0  0  0  0  0  0  0
    8.2940   47.0800   54.3780 C   0  0  0  0  0  0  0  0  0  0  0  0
   10.0656   47.3402   56.2994 H   0  0  0  0  0  0  0  0  0  0  0  0
   11.5204   47.0412   55.2890 H   0  0  0  0  0  0  0  0  0  0  0  0
   10.7444   48.6612   55.2890 H   0  0  0  0  0  0  0  0  0  0  0  0
   11.3378   46.8179   52.8470 H   0  0  0  0  0  0  0  0  0  0  0  0
    9.8862   46.0675   50.9748 H   0  0  0  0  0  0  0  0  0  0  0  0
    6.2852   45.3452   51.2907 H   0  0  0  0  0  0  0  0  0  0  0  0
    6.9323   46.7051   50.3117 H   0  0  0  0  0  0  0  0  0  0  0  0
    7.7740   45.1183   50.3117 H   0  0  0  0  0  0  0  0  0  0  0  0
    5.8640   44.3550   54.3180 H   0  0  0  0  0  0  0  0  0  0  0  0
    2.7236   45.6797   54.9114 H   0  0  0  0  0  0  0  0  0  0  0  0
    0.5292   44.7881   54.1444 H   0  0  0  0  0  0  0  0  0  0  0  0
   -0.3594   41.3325   53.6165 H   0  0  0  0  0  0  0  0  0  0  0  0
   -3.7170   43.2162   50.5866 H   0  0  0  0  0  0  0  0  0  0  0  0
   -2.4779   43.8477   49.4498 H   0  0  0  0  0  0  0  0  0  0  0  0
   -2.8887   42.0990   49.4498 H   0  0  0  0  0  0  0  0  0  0  0  0
    2.5573   42.3011   51.2352 H   0  0  0  0  0  0  0  0  0  0  0  0
    4.7484   43.1941   52.0032 H   0  0  0  0  0  0  0  0  0  0  0  0
    7.8512   47.3529   55.3473 H   0  0  0  0  0  0  0  0  0  0  0  0
  1  2  1  0
  2  3  2  0
  3  4  1  0
  4  5  2  0
  5  6  1  0
  5  7  1  0
  7  8  1  0
  8  9  2  0
  8 10  2  0
  8 11  1  0
 11 12  1  0
 12 13  2  0
 13 14  1  0
 14 15  2  0
 15 16  1  0
 16 17  2  0
 17 18  1  0
 18 19  2  0
 19 20  1  0
 19 21  1  0
 15 22  1  0
 22 23  2  0
  7 24  2  0
 24  2  1  0
 23 12  1  0
 21 16  1  0
  1 25  1  0
  1 26  1  0
  1 27  1  0
  3 28  1  0
  4 29  1  0
  6 30  1  0
  6 31  1  0
  6 32  1  0
 11 33  1  0
 13 34  1  0
 14 35  1  0
 17 36  1  0
 20 37  1  0
 20 38  1  0
 20 39  1  0
 22 40  1  0
 23 41  1  0
 24 42  1  0
M  END
>  <meeko>  (3) 
{"is_sidechain": [false], "free_energy": -8.941, "intermolecular_energy": -11.074, "internal_energy": -0.238}

$$$$
ligand_26_conformer_5_docked
     RDKit          3D

 42 44  0  0  0  0  0  0  0  0999 V2000
    0.7720   46.3410   57.8690 C   0  0  0  0  0  0  0  0  0  0  0  0
    0.3040   45.5510   56.6820 C   0  0  0  0  0  0  0  0  0  0  0  0
   -0.8780   44.8070   56.7520 C   0  0  0  0  0  0  0  0  0  0  0  0
   -1.3320   44.1020   55.6380 C   0  0  0  0  0  0  0  0  0  0  0  0
   -0.6240   44.1410   54.4240 C   0  0  0  0  0  0  0  0  0  0  0  0
   -1.1430   43.3430   53.2580 C   0  0  0  0  0  0  0  0  0  0  0  0
    0.5760   44.8920   54.3480 C   0  0  0  0  0  0  0  0  0  0  0  0
    1.5480   44.9560   52.8670 S   0  0  0  0  0  0  0  0  0  0  0  0
    0.6790   44.8180   51.6480 O   0  0  0  0  0  0  0  0  0  0  0  0
    2.5310   43.8180   52.8820 O   0  0  0  0  0  0  0  0  0  0  0  0
    2.4080   46.4600   52.7730 N   0  0  0  0  0  0  0  0  0  0  0  0
    3.8220   46.5880   53.0070 C   0  0  0  0  0  0  0  0  0  0  0  0
    4.7620   46.4470   51.9710 C   0  0  0  0  0  0  0  0  0  0  0  0
    6.1280   46.5900   52.2300 C   0  0  0  0  0  0  0  0  0  0  0  0
    6.5840   46.8700   53.5280 C   0  0  0  0  0  0  0  0  0  0  0  0
    8.0350   47.0190   53.7760 C   0  0  0  0  0  0  0  0  0  0  0  0
    9.0680   46.9540   52.8580 C   0  0  0  0  0  0  0  0  0  0  0  0
   10.2360   47.1450   53.4990 N   0  0  0  0  0  0  0  0  0  0  0  0
    9.8640   47.3130   54.7860 C   0  0  0  0  0  0  0  0  0  0  0  0
   10.8270   47.5850   55.8900 C   0  0  0  0  0  0  0  0  0  0  0  0
    8.5640   47.2450   54.9540 O   0  0  0  0  0  0  0  0  0  0  0  0
    5.6440   47.0000   54.5650 C   0  0  0  0  0  0  0  0  0  0  0  0
    4.2790   46.8570   54.3050 C   0  0  0  0  0  0  0  0  0  0  0  0
    1.0170   45.6030   55.4770 C   0  0  0  0  0  0  0  0  0  0  0  0
    0.4683   45.8283   58.7936 H   0  0  0  0  0  0  0  0  0  0  0  0
    1.8681   46.4291   57.8417 H   0  0  0  0  0  0  0  0  0  0  0  0
    0.3227   47.3447   57.8417 H   0  0  0  0  0  0  0  0  0  0  0  0
   -1.4520   44.7778   57.6899 H   0  0  0  0  0  0  0  0  0  0  0  0
   -2.2552   43.5082   55.7099 H   0  0  0  0  0  0  0  0  0  0  0  0
   -1.7074   42.4752   53.6298 H   0  0  0  0  0  0  0  0  0  0  0  0
   -1.8033   43.9750   52.6460 H   0  0  0  0  0  0  0  0  0  0  0  0
   -0.2975   42.9957   52.6460 H   0  0  0  0  0  0  0  0  0  0  0  0
    1.8750   47.2880   52.4240 H   0  0  0  0  0  0  0  0  0  0  0  0
    4.4201   46.2226   50.9498 H   0  0  0  0  0  0  0  0  0  0  0  0
    6.8525   46.4822   51.4093 H   0  0  0  0  0  0  0  0  0  0  0  0
    8.9533   46.7751   51.7787 H   0  0  0  0  0  0  0  0  0  0  0  0
   10.3245   47.4431   56.8582 H   0  0  0  0  0  0  0  0  0  0  0  0
   11.6778   46.8920   55.8134 H   0  0  0  0  0  0  0  0  0  0  0  0
   11.1896   48.6207   55.8134 H   0  0  0  0  0  0  0  0  0  0  0  0
    5.9856   47.2158   55.5881 H   0  0  0  0  0  0  0  0  0  0  0  0
    3.5550   46.9565   55.1272 H   0  0  0  0  0  0  0  0  0  0  0  0
    1.9335   46.2080   55.4139 H   0  0  0  0  0  0  0  0  0  0  0  0
  1  2  1  0
  2  3  2  0
  3  4  1  0
  4  5  2  0
  5  6  1  0
  5  7  1  0
  7  8  1  0
  8  9  2  0
  8 10  2  0
  8 11  1  0
 11 12  1  0
 12 13  2  0
 13 14  1  0
 14 15  2  0
 15 16  1  0
 16 17  2  0
 17 18  1  0
 18 19  2  0
 19 20  1  0
 19 21  1  0
 15 22  1  0
 22 23  2  0
  7 24  2  0
 24  2  1  0
 23 12  1  0
 21 16  1  0
  1 25  1  0
  1 26  1  0
  1 27  1  0
  3 28  1  0
  4 29  1  0
  6 30  1  0
  6 31  1  0
  6 32  1  0
 11 33  1  0
 13 34  1  0
 14 35  1  0
 17 36  1  0
 20 37  1  0
 20 38  1  0
 20 39  1  0
 22 40  1  0
 23 41  1  0
 24 42  1  0
M  END
>  <meeko>  (4) 
{"is_sidechain": [false], "free_energy": -8.434, "intermolecular_energy": -10.501, "internal_energy": -0.187}

$$$$
ligand_26_conformer_5_docked
     RDKit          3D

 42 44  0  0  0  0  0  0  0  0999 V2000
    5.3010   43.1390   50.5670 C   0  0  0  0  0  0  0  0  0  0  0  0
    6.1030   44.2970   51.0860 C   0  0  0  0  0  0  0  0  0  0  0  0
    7.0680   44.9050   50.2770 C   0  0  0  0  0  0  0  0  0  0  0  0
    7.7870   46.0040   50.7450 C   0  0  0  0  0  0  0  0  0  0  0  0
    7.5440   46.5300   52.0250 C   0  0  0  0  0  0  0  0  0  0  0  0
    8.3650   47.7020   52.4940 C   0  0  0  0  0  0  0  0  0  0  0  0
    6.5690   45.9160   52.8510 C   0  0  0  0  0  0  0  0  0  0  0  0
    6.2350   46.4930   54.4930 S   0  0  0  0  0  0  0  0  0  0  0  0
    7.2440   47.5260   54.9150 O   0  0  0  0  0  0  0  0  0  0  0  0
    6.3180   45.3310   55.4430 O   0  0  0  0  0  0  0  0  0  0  0  0
    4.6490   47.1940   54.5770 N   0  0  0  0  0  0  0  0  0  0  0  0
    3.4380   46.4610   54.3250 C   0  0  0  0  0  0  0  0  0  0  0  0
    2.8750   45.6020   55.2840 C   0  0  0  0  0  0  0  0  0  0  0  0
    1.6890   44.9140   55.0120 C   0  0  0  0  0  0  0  0  0  0  0  0
    1.0450   45.0650   53.7730 C   0  0  0  0  0  0  0  0  0  0  0  0
   -0.2110   44.3270   53.5090 C   0  0  0  0  0  0  0  0  0  0  0  0
   -0.3570   43.0210   53.0800 C   0  0  0  0  0  0  0  0  0  0  0  0
   -1.6700   42.7420   52.9670 N   0  0  0  0  0  0  0  0  0  0  0  0
   -2.2690   43.8970   53.3270 C   0  0  0  0  0  0  0  0  0  0  0  0
   -3.7470   44.0720   53.3840 C   0  0  0  0  0  0  0  0  0  0  0  0
   -1.4100   44.8360   53.6540 O   0  0  0  0  0  0  0  0  0  0  0  0
    1.6140   45.9150   52.8100 C   0  0  0  0  0  0  0  0  0  0  0  0
    2.7990   46.6030   53.0850 C   0  0  0  0  0  0  0  0  0  0  0  0
    5.8460   44.8150   52.3620 C   0  0  0  0  0  0  0  0  0  0  0  0
    4.9010   42.5614   51.4134 H   0  0  0  0  0  0  0  0  0  0  0  0
    4.4688   43.5149   49.9537 H   0  0  0  0  0  0  0  0  0  0  0  0
    5.9455   42.4922   49.9537 H   0  0  0  0  0  0  0  0  0  0  0  0
    7.2607   44.5144   49.2669 H   0  0  0  0  0  0  0  0  0  0  0  0
    8.5536   46.4647   50.1046 H   0  0  0  0  0  0  0  0  0  0  0  0
    8.3796   47.7228   53.5937 H   0  0  0  0  0  0  0  0  0  0  0  0
    9.3932   47.6043   52.1154 H   0  0  0  0  0  0  0  0  0  0  0  0
    7.9220   48.6350   52.1154 H   0  0  0  0  0  0  0  0  0  0  0  0
    4.5840   48.1740   54.9340 H   0  0  0  0  0  0  0  0  0  0  0  0
    3.3716   45.4699   56.2566 H   0  0  0  0  0  0  0  0  0  0  0  0
    1.2567   44.2491   55.7743 H   0  0  0  0  0  0  0  0  0  0  0  0
    0.4656   42.3228   52.8657 H   0  0  0  0  0  0  0  0  0  0  0  0
   -4.0714   44.1104   54.4344 H   0  0  0  0  0  0  0  0  0  0  0  0
   -4.0250   45.0093   52.8799 H   0  0  0  0  0  0  0  0  0  0  0  0
   -4.2362   43.2255   52.8799 H   0  0  0  0  0  0  0  0  0  0  0  0
    1.1237   46.0398   51.8333 H   0  0  0  0  0  0  0  0  0  0  0  0
    3.2350   47.2629   52.3205 H   0  0  0  0  0  0  0  0  0  0  0  0
    5.0685   44.3540   52.9889 H   0  0  0  0  0  0  0  0  0  0  0  0
  1  2  1  0
  2  3  2  0
  3  4  1  0
  4  5  2  0
  5  6  1  0
  5  7  1  0
  7  8  1  0
  8  9  2  0
  8 10  2  0
  8 11  1  0
 11 12  1  0
 12 13  2  0
 13 14  1  0
 14 15  2  0
 15 16  1  0
 16 17  2  0
 17 18  1  0
 18 19  2  0
 19 20  1  0
 19 21  1  0
 15 22  1  0
 22 23  2  0
  7 24  2  0
 24  2  1  0
 23 12  1  0
 21 16  1  0
  1 25  1  0
  1 26  1  0
  1 27  1  0
  3 28  1  0
  4 29  1  0
  6 30  1  0
  6 31  1  0
  6 32  1  0
 11 33  1  0
 13 34  1  0
 14 35  1  0
 17 36  1  0
 20 37  1  0
 20 38  1  0
 20 39  1  0
 22 40  1  0
 23 41  1  0
 24 42  1  0
M  END
>  <meeko>  (5) 
{"is_sidechain": [false], "free_energy": -8.423, "intermolecular_energy": -10.698, "internal_energy": 0.025}

$$$$
