MODEL 1
REMARK VINA RESULT:    -8.430      0.000      0.000
REMARK INTER + INTRA:         -10.713
REMARK INTER:                  -9.908
REMARK INTRA:                  -0.805
REMARK UNBOUND:                -0.805
REMARK SMILES N#Cc1ccsc1S(=O)(=O)Nc1cccc2c1NC(=O)C2
REMARK SMILES IDX 11 1 8 3 9 4 10 5 7 6 1 7 2 8 3 9 4 10 5 11 6 12 12 13 13 14
REMARK SMILES IDX 17 15 14 16 18 17 16 18 15 19 19 20 21 21 20 22
REMARK H PARENT 11 2 18 23
ROOT
ATOM      1  N   UNL     1       5.959  46.842  52.328  1.00  0.00    -0.277 N 
ATOM      2  H   UNL     1       5.493  47.350  51.547  1.00  0.00     0.180 HD
ENDROOT
BRANCH   1   3
ATOM      3  S   UNL     1       4.911  46.084  53.485  1.00  0.00     0.272 S 
ATOM      4  O   UNL     1       5.637  44.935  54.128  1.00  0.00    -0.200 OA
ATOM      5  O   UNL     1       4.539  47.085  54.542  1.00  0.00    -0.200 OA
BRANCH   3   6
ATOM      6  C   UNL     1       3.443  45.526  52.693  1.00  0.00     0.158 A 
ATOM      7  N   UNL     1       5.354  43.142  50.854  1.00  0.00    -0.192 NA
ATOM      8  C   UNL     1       4.456  43.755  51.250  1.00  0.00     0.101 C 
ATOM      9  C   UNL     1       3.339  44.517  51.742  1.00  0.00     0.083 A 
ATOM     10  C   UNL     1       2.025  44.298  51.307  1.00  0.00     0.032 A 
ATOM     11  C   UNL     1       1.094  45.131  51.916  1.00  0.00     0.068 A 
ATOM     12  S   UNL     1       1.906  46.135  52.996  1.00  0.00    -0.129 S 
ENDBRANCH   3   6
ENDBRANCH   1   3
BRANCH   1  13
ATOM     13  C   UNL     1       7.397  46.763  52.374  1.00  0.00     0.073 A 
ATOM     14  C   UNL     1       8.156  47.475  53.333  1.00  0.00     0.029 A 
ATOM     15  C   UNL     1       8.102  45.969  51.454  1.00  0.00     0.069 A 
ATOM     16  C   UNL     1       9.560  47.378  53.355  1.00  0.00     0.003 A 
ATOM     17  N   UNL     1       7.556  45.163  50.420  1.00  0.00    -0.324 N 
ATOM     18  C   UNL     1       9.482  45.878  51.482  1.00  0.00    -0.013 A 
ATOM     19  C   UNL     1      10.233  46.575  52.425  1.00  0.00     0.006 A 
ATOM     20  C   UNL     1       8.681  44.557  49.795  1.00  0.00     0.228 C 
ATOM     21  C   UNL     1       9.983  44.963  50.413  1.00  0.00     0.138 C 
ATOM     22  O   UNL     1       8.577  43.762  48.824  1.00  0.00    -0.274 OA
ATOM     23  H   UNL     1       6.554  45.011  50.173  1.00  0.00     0.170 HD
ENDBRANCH   1  13
TORSDOF 3
ENDMDL
MODEL 2
REMARK VINA RESULT:    -8.408      1.989      5.853
REMARK INTER + INTRA:         -10.687
REMARK INTER:                 -10.232
REMARK INTRA:                  -0.455
REMARK UNBOUND:                -0.805
REMARK SMILES N#Cc1ccsc1S(=O)(=O)Nc1cccc2c1NC(=O)C2
REMARK SMILES IDX 11 1 8 3 9 4 10 5 7 6 1 7 2 8 3 9 4 10 5 11 6 12 12 13 13 14
REMARK SMILES IDX 17 15 14 16 18 17 16 18 15 19 19 20 21 21 20 22
REMARK H PARENT 11 2 18 23
ROOT
ATOM      1  N   UNL     1       5.223  46.005  51.802  1.00  0.00    -0.277 N 
ATOM      2  H   UNL     1       5.238  46.557  50.918  1.00  0.00     0.180 HD
ENDROOT
BRANCH   1   3
ATOM      3  S   UNL     1       6.297  46.537  53.057  1.00  0.00     0.272 S 
ATOM      4  O   UNL     1       5.955  47.952  53.432  1.00  0.00    -0.200 OA
ATOM      5  O   UNL     1       6.123  45.653  54.259  1.00  0.00    -0.200 OA
BRANCH   3   6
ATOM      6  C   UNL     1       7.965  46.425  52.510  1.00  0.00     0.158 A 
ATOM      7  N   UNL     1       9.013  48.296  55.360  1.00  0.00    -0.192 NA
ATOM      8  C   UNL     1       9.045  47.698  54.370  1.00  0.00     0.101 C 
ATOM      9  C   UNL     1       9.087  46.955  53.138  1.00  0.00     0.083 A 
ATOM     10  C   UNL     1      10.282  46.686  52.458  1.00  0.00     0.032 A 
ATOM     11  C   UNL     1      10.104  45.942  51.297  1.00  0.00     0.068 A 
ATOM     12  S   UNL     1       8.461  45.619  51.121  1.00  0.00    -0.129 S 
ENDBRANCH   3   6
ENDBRANCH   1   3
BRANCH   1  13
ATOM     13  C   UNL     1       4.310  44.900  51.942  1.00  0.00     0.073 A 
ATOM     14  C   UNL     1       3.084  45.025  52.639  1.00  0.00     0.029 A 
ATOM     15  C   UNL     1       4.611  43.644  51.388  1.00  0.00     0.069 A 
ATOM     16  C   UNL     1       2.210  43.928  52.759  1.00  0.00     0.003 A 
ATOM     17  N   UNL     1       5.766  43.290  50.642  1.00  0.00    -0.324 N 
ATOM     18  C   UNL     1       3.747  42.571  51.511  1.00  0.00    -0.013 A 
ATOM     19  C   UNL     1       2.539  42.690  52.193  1.00  0.00     0.006 A 
ATOM     20  C   UNL     1       5.578  41.922  50.301  1.00  0.00     0.228 C 
ATOM     21  C   UNL     1       4.292  41.361  50.825  1.00  0.00     0.138 C 
ATOM     22  O   UNL     1       6.413  41.264  49.626  1.00  0.00    -0.274 OA
ATOM     23  H   UNL     1       6.574  43.891  50.367  1.00  0.00     0.170 HD
ENDBRANCH   1  13
TORSDOF 3
ENDMDL
MODEL 3
REMARK VINA RESULT:    -8.379      1.969      2.949
REMARK INTER + INTRA:         -10.654
REMARK INTER:                 -10.016
REMARK INTRA:                  -0.638
REMARK UNBOUND:                -0.805
REMARK SMILES N#Cc1ccsc1S(=O)(=O)Nc1cccc2c1NC(=O)C2
REMARK SMILES IDX 11 1 8 3 9 4 10 5 7 6 1 7 2 8 3 9 4 10 5 11 6 12 12 13 13 14
REMARK SMILES IDX 17 15 14 16 18 17 16 18 15 19 19 20 21 21 20 22
REMARK H PARENT 11 2 18 23
ROOT
ATOM      1  N   UNL     1       5.237  46.131  52.493  1.00  0.00    -0.277 N 
ATOM      2  H   UNL     1       4.516  46.570  51.883  1.00  0.00     0.180 HD
ENDROOT
BRANCH   1   3
ATOM      3  S   UNL     1       4.683  45.513  54.017  1.00  0.00     0.272 S 
ATOM      4  O   UNL     1       5.704  44.553  54.561  1.00  0.00    -0.200 OA
ATOM      5  O   UNL     1       4.518  46.655  54.979  1.00  0.00    -0.200 OA
BRANCH   3   6
ATOM      6  C   UNL     1       3.127  44.717  53.813  1.00  0.00     0.158 A 
ATOM      7  N   UNL     1       4.514  42.695  51.223  1.00  0.00    -0.192 NA
ATOM      8  C   UNL     1       3.759  43.146  51.974  1.00  0.00     0.101 C 
ATOM      9  C   UNL     1       2.819  43.706  52.909  1.00  0.00     0.083 A 
ATOM     10  C   UNL     1       1.491  43.269  52.998  1.00  0.00     0.032 A 
ATOM     11  C   UNL     1       0.754  43.930  53.974  1.00  0.00     0.068 A 
ATOM     12  S   UNL     1       1.756  45.055  54.725  1.00  0.00    -0.129 S 
ENDBRANCH   3   6
ENDBRANCH   1   3
BRANCH   1  13
ATOM     13  C   UNL     1       6.598  46.024  52.031  1.00  0.00     0.073 A 
ATOM     14  C   UNL     1       6.929  45.365  50.823  1.00  0.00     0.029 A 
ATOM     15  C   UNL     1       7.655  46.573  52.777  1.00  0.00     0.069 A 
ATOM     16  C   UNL     1       8.267  45.277  50.395  1.00  0.00     0.003 A 
ATOM     17  N   UNL     1       7.562  47.283  54.002  1.00  0.00    -0.324 N 
ATOM     18  C   UNL     1       8.968  46.482  52.350  1.00  0.00    -0.013 A 
ATOM     19  C   UNL     1       9.298  45.837  51.161  1.00  0.00     0.006 A 
ATOM     20  C   UNL     1       8.902  47.635  54.325  1.00  0.00     0.228 C 
ATOM     21  C   UNL     1       9.893  47.155  53.311  1.00  0.00     0.138 C 
ATOM     22  O   UNL     1       9.208  48.286  55.358  1.00  0.00    -0.274 OA
ATOM     23  H   UNL     1       6.708  47.530  54.549  1.00  0.00     0.170 HD
ENDBRANCH   1  13
TORSDOF 3
ENDMDL
MODEL 4
REMARK VINA RESULT:    -8.306      2.283      6.447
REMARK INTER + INTRA:         -10.567
REMARK INTER:                 -10.009
REMARK INTRA:                  -0.558
REMARK UNBOUND:                -0.805
REMARK SMILES N#Cc1ccsc1S(=O)(=O)Nc1cccc2c1NC(=O)C2
REMARK SMILES IDX 11 1 8 3 9 4 10 5 7 6 1 7 2 8 3 9 4 10 5 11 6 12 12 13 13 14
REMARK SMILES IDX 17 15 14 16 18 17 16 18 15 19 19 20 21 21 20 22
REMARK H PARENT 11 2 18 23
ROOT
ATOM      1  N   UNL     1       5.603  45.901  51.404  1.00  0.00    -0.277 N 
ATOM      2  H   UNL     1       5.413  46.585  50.642  1.00  0.00     0.180 HD
ENDROOT
BRANCH   1   3
ATOM      3  S   UNL     1       6.495  46.497  52.768  1.00  0.00     0.272 S 
ATOM      4  O   UNL     1       6.087  47.918  53.040  1.00  0.00    -0.200 OA
ATOM      5  O   UNL     1       6.177  45.655  53.970  1.00  0.00    -0.200 OA
BRANCH   3   6
ATOM      6  C   UNL     1       8.222  46.397  52.449  1.00  0.00     0.158 A 
ATOM      7  N   UNL     1       8.864  48.319  55.384  1.00  0.00    -0.192 NA
ATOM      8  C   UNL     1       9.034  47.708  54.416  1.00  0.00     0.101 C 
ATOM      9  C   UNL     1       9.246  46.948  53.212  1.00  0.00     0.083 A 
ATOM     10  C   UNL     1      10.523  46.683  52.700  1.00  0.00     0.032 A 
ATOM     11  C   UNL     1      10.507  45.921  51.538  1.00  0.00     0.068 A 
ATOM     12  S   UNL     1       8.906  45.577  51.151  1.00  0.00    -0.129 S 
ENDBRANCH   3   6
ENDBRANCH   1   3
BRANCH   1  13
ATOM     13  C   UNL     1       5.091  44.557  51.306  1.00  0.00     0.073 A 
ATOM     14  C   UNL     1       5.713  43.576  50.498  1.00  0.00     0.029 A 
ATOM     15  C   UNL     1       3.939  44.174  52.014  1.00  0.00     0.069 A 
ATOM     16  C   UNL     1       5.192  42.271  50.422  1.00  0.00     0.003 A 
ATOM     17  N   UNL     1       3.162  44.979  52.888  1.00  0.00    -0.324 N 
ATOM     18  C   UNL     1       3.432  42.890  51.933  1.00  0.00    -0.013 A 
ATOM     19  C   UNL     1       4.043  41.919  51.142  1.00  0.00     0.006 A 
ATOM     20  C   UNL     1       2.129  44.120  53.355  1.00  0.00     0.228 C 
ATOM     21  C   UNL     1       2.216  42.737  52.788  1.00  0.00     0.138 C 
ATOM     22  O   UNL     1       1.240  44.496  54.164  1.00  0.00    -0.274 OA
ATOM     23  H   UNL     1       3.312  45.973  53.165  1.00  0.00     0.170 HD
ENDBRANCH   1  13
TORSDOF 3
ENDMDL
MODEL 5
REMARK VINA RESULT:    -8.281      2.327      3.689
REMARK INTER + INTRA:         -10.538
REMARK INTER:                  -9.987
REMARK INTRA:                  -0.552
REMARK UNBOUND:                -0.805
REMARK SMILES N#Cc1ccsc1S(=O)(=O)Nc1cccc2c1NC(=O)C2
REMARK SMILES IDX 11 1 8 3 9 4 10 5 7 6 1 7 2 8 3 9 4 10 5 11 6 12 12 13 13 14
REMARK SMILES IDX 17 15 14 16 18 17 16 18 15 19 19 20 21 21 20 22
REMARK H PARENT 11 2 18 23
ROOT
ATOM      1  N   UNL     1       5.217  46.342  52.243  1.00  0.00    -0.277 N 
ATOM      2  H   UNL     1       4.910  47.276  52.588  1.00  0.00     0.180 HD
ENDROOT
BRANCH   1   3
ATOM      3  S   UNL     1       3.982  45.130  52.108  1.00  0.00     0.272 S 
ATOM      4  O   UNL     1       3.214  45.348  50.835  1.00  0.00    -0.200 OA
ATOM      5  O   UNL     1       4.627  43.774  52.067  1.00  0.00    -0.200 OA
BRANCH   3   6
ATOM      6  C   UNL     1       2.911  45.204  53.501  1.00  0.00     0.158 A 
ATOM      7  N   UNL     1       5.747  45.300  55.662  1.00  0.00    -0.192 NA
ATOM      8  C   UNL     1       4.650  45.287  55.295  1.00  0.00     0.101 C 
ATOM      9  C   UNL     1       3.284  45.270  54.839  1.00  0.00     0.083 A 
ATOM     10  C   UNL     1       2.194  45.330  55.717  1.00  0.00     0.032 A 
ATOM     11  C   UNL     1       0.963  45.317  55.073  1.00  0.00     0.068 A 
ATOM     12  S   UNL     1       1.233  45.232  53.413  1.00  0.00    -0.129 S 
ENDBRANCH   3   6
ENDBRANCH   1   3
BRANCH   1  13
ATOM     13  C   UNL     1       6.592  46.132  51.866  1.00  0.00     0.073 A 
ATOM     14  C   UNL     1       6.948  45.437  50.686  1.00  0.00     0.029 A 
ATOM     15  C   UNL     1       7.639  46.613  52.671  1.00  0.00     0.069 A 
ATOM     16  C   UNL     1       8.299  45.248  50.342  1.00  0.00     0.003 A 
ATOM     17  N   UNL     1       7.523  47.344  53.883  1.00  0.00    -0.324 N 
ATOM     18  C   UNL     1       8.965  46.423  52.327  1.00  0.00    -0.013 A 
ATOM     19  C   UNL     1       9.320  45.742  51.165  1.00  0.00     0.006 A 
ATOM     20  C   UNL     1       8.862  47.603  54.284  1.00  0.00     0.228 C 
ATOM     21  C   UNL     1       9.876  47.041  53.337  1.00  0.00     0.138 C 
ATOM     22  O   UNL     1       9.152  48.243  55.329  1.00  0.00    -0.274 OA
ATOM     23  H   UNL     1       6.657  47.658  54.374  1.00  0.00     0.170 HD
ENDBRANCH   1  13
TORSDOF 3
ENDMDL
