ligand_18_conformer_1_docked
     RDKit          3D

 40 43  0  0  0  0  0  0  0  0999 V2000
    2.0410   44.2190   50.9030 O   0  0  0  0  0  0  0  0  0  0  0  0
    2.8680   43.4690   51.4910 C   0  0  0  0  0  0  0  0  0  0  0  0
    2.4340   42.6680   52.6000 N   0  0  0  0  0  0  0  0  0  0  0  0
    1.2270   42.9350   53.3250 C   0  0  0  0  0  0  0  0  0  0  0  0
    0.0830   42.2410   53.1450 N   0  0  0  0  0  0  0  0  0  0  0  0
   -0.8130   42.7310   53.9970 N   0  0  0  0  0  0  0  0  0  0  0  0
   -0.1870   43.7050   54.6840 C   0  0  0  0  0  0  0  0  0  0  0  0
   -0.7240   44.4740   55.7130 C   0  0  0  0  0  0  0  0  0  0  0  0
    0.1260   45.4010   56.3390 C   0  0  0  0  0  0  0  0  0  0  0  0
    1.4720   45.5200   55.9370 C   0  0  0  0  0  0  0  0  0  0  0  0
    1.9560   44.7130   54.8950 C   0  0  0  0  0  0  0  0  0  0  0  0
    1.0880   43.8550   54.2980 N   0  0  0  0  0  0  0  0  0  0  0  0
    4.2640   43.3920   51.0000 C   0  0  0  0  0  0  0  0  0  0  0  0
    4.8130   42.1560   50.6150 C   0  0  0  0  0  0  0  0  0  0  0  0
    6.1240   42.0810   50.1370 C   0  0  0  0  0  0  0  0  0  0  0  0
    6.9030   43.2350   50.0410 C   0  0  0  0  0  0  0  0  0  0  0  0
    6.3820   44.4770   50.4310 C   0  0  0  0  0  0  0  0  0  0  0  0
    7.1920   45.6570   50.2920 N   0  0  0  0  0  0  0  0  0  0  0  0
    8.0130   46.2060   51.3380 C   0  0  0  0  0  0  0  0  0  0  0  0
    7.4340   47.0450   52.3020 C   0  0  0  0  0  0  0  0  0  0  0  0
    8.2170   47.6070   53.3130 C   0  0  0  0  0  0  0  0  0  0  0  0
    9.5900   47.3500   53.3610 C   0  0  0  0  0  0  0  0  0  0  0  0
   10.1820   46.5360   52.3920 C   0  0  0  0  0  0  0  0  0  0  0  0
    9.4000   45.9710   51.3790 C   0  0  0  0  0  0  0  0  0  0  0  0
    5.0540   44.5530   50.8850 C   0  0  0  0  0  0  0  0  0  0  0  0
    2.8990   41.7470   52.7620 H   0  0  0  0  0  0  0  0  0  0  0  0
   -1.7730   44.3601   56.0237 H   0  0  0  0  0  0  0  0  0  0  0  0
   -0.2611   46.0380   57.1479 H   0  0  0  0  0  0  0  0  0  0  0  0
    2.1379   46.2395   56.4358 H   0  0  0  0  0  0  0  0  0  0  0  0
    3.0057   44.7735   54.5719 H   0  0  0  0  0  0  0  0  0  0  0  0
    4.2062   41.2416   50.6906 H   0  0  0  0  0  0  0  0  0  0  0  0
    6.5431   41.1097   49.8356 H   0  0  0  0  0  0  0  0  0  0  0  0
    7.9318   43.1698   49.6571 H   0  0  0  0  0  0  0  0  0  0  0  0
    7.1830   46.1490   49.3700 H   0  0  0  0  0  0  0  0  0  0  0  0
    6.3563   47.2616   52.2614 H   0  0  0  0  0  0  0  0  0  0  0  0
    7.7523   48.2528   54.0726 H   0  0  0  0  0  0  0  0  0  0  0  0
   10.2042   47.7884   54.1613 H   0  0  0  0  0  0  0  0  0  0  0  0
   11.2637   46.3393   52.4257 H   0  0  0  0  0  0  0  0  0  0  0  0
    9.8713   45.3402   50.6110 H   0  0  0  0  0  0  0  0  0  0  0  0
    4.6264   45.5303   51.1537 H   0  0  0  0  0  0  0  0  0  0  0  0
  1  2  2  0
  2  3  1  0
  3  4  1  0
  4  5  2  0
  5  6  1  0
  6  7  2  0
  7  8  1  0
  8  9  2  0
  9 10  1  0
 10 11  2  0
 11 12  1  0
  2 13  1  0
 13 14  2  0
 14 15  1  0
 15 16  2  0
 16 17  1  0
 17 18  1  0
 18 19  1  0
 19 20  2  0
 20 21  1  0
 21 22  2  0
 22 23  1  0
 23 24  2  0
 17 25  2  0
 12  4  1  0
 25 13  1  0
 12  7  1  0
 24 19  1  0
  3 26  1  0
  8 27  1  0
  9 28  1  0
 10 29  1  0
 11 30  1  0
 14 31  1  0
 15 32  1  0
 16 33  1  0
 18 34  1  0
 20 35  1  0
 21 36  1  0
 22 37  1  0
 23 38  1  0
 24 39  1  0
 25 40  1  0
M  END
>  <meeko>  (1) 
{"is_sidechain": [false], "free_energy": -9.942, "intermolecular_energy": -12.267, "internal_energy": -0.818}

$$$$
ligand_18_conformer_1_docked
     RDKit          3D

 40 43  0  0  0  0  0  0  0  0999 V2000
    3.2860   42.2920   52.5030 O   0  0  0  0  0  0  0  0  0  0  0  0
    3.8330   43.4130   52.3170 C   0  0  0  0  0  0  0  0  0  0  0  0
    3.3790   44.5540   53.0600 N   0  0  0  0  0  0  0  0  0  0  0  0
    2.1070   44.5950   53.7180 C   0  0  0  0  0  0  0  0  0  0  0  0
    1.9660   44.6700   55.0600 N   0  0  0  0  0  0  0  0  0  0  0  0
    0.6630   44.7230   55.3160 N   0  0  0  0  0  0  0  0  0  0  0  0
    0.0410   44.6910   54.1220 C   0  0  0  0  0  0  0  0  0  0  0  0
   -1.3310   44.7630   53.8960 C   0  0  0  0  0  0  0  0  0  0  0  0
   -1.7670   44.7740   52.5610 C   0  0  0  0  0  0  0  0  0  0  0  0
   -0.8340   44.7290   51.5050 C   0  0  0  0  0  0  0  0  0  0  0  0
    0.5370   44.6610   51.7970 C   0  0  0  0  0  0  0  0  0  0  0  0
    0.9100   44.6200   53.1030 N   0  0  0  0  0  0  0  0  0  0  0  0
    4.9670   43.5260   51.3700 C   0  0  0  0  0  0  0  0  0  0  0  0
    5.2390   42.4870   50.4610 C   0  0  0  0  0  0  0  0  0  0  0  0
    6.2970   42.5970   49.5570 C   0  0  0  0  0  0  0  0  0  0  0  0
    7.0980   43.7390   49.5490 C   0  0  0  0  0  0  0  0  0  0  0  0
    6.8560   44.7820   50.4530 C   0  0  0  0  0  0  0  0  0  0  0  0
    7.6740   45.9640   50.4050 N   0  0  0  0  0  0  0  0  0  0  0  0
    8.3680   46.5180   51.5370 C   0  0  0  0  0  0  0  0  0  0  0  0
    9.6540   46.0530   51.8530 C   0  0  0  0  0  0  0  0  0  0  0  0
   10.3370   46.5600   52.9610 C   0  0  0  0  0  0  0  0  0  0  0  0
    9.7360   47.5260   53.7730 C   0  0  0  0  0  0  0  0  0  0  0  0
    8.4460   47.9790   53.4810 C   0  0  0  0  0  0  0  0  0  0  0  0
    7.7600   47.4730   52.3720 C   0  0  0  0  0  0  0  0  0  0  0  0
    5.7730   44.6810   51.3440 C   0  0  0  0  0  0  0  0  0  0  0  0
    4.0690   45.3010   53.2990 H   0  0  0  0  0  0  0  0  0  0  0  0
   -2.0458   44.8095   54.7308 H   0  0  0  0  0  0  0  0  0  0  0  0
   -2.8432   44.8180   52.3379 H   0  0  0  0  0  0  0  0  0  0  0  0
   -1.1780   44.7471   50.4603 H   0  0  0  0  0  0  0  0  0  0  0  0
    1.2872   44.6415   50.9927 H   0  0  0  0  0  0  0  0  0  0  0  0
    4.6138   41.5820   50.4627 H   0  0  0  0  0  0  0  0  0  0  0  0
    6.4997   41.7803   48.8485 H   0  0  0  0  0  0  0  0  0  0  0  0
    7.9250   43.8213   48.8284 H   0  0  0  0  0  0  0  0  0  0  0  0
    7.7720   46.4530   49.4860 H   0  0  0  0  0  0  0  0  0  0  0  0
   10.1271   45.2844   51.2241 H   0  0  0  0  0  0  0  0  0  0  0  0
   11.3493   46.1985   53.1948 H   0  0  0  0  0  0  0  0  0  0  0  0
   10.2776   47.9295   54.6412 H   0  0  0  0  0  0  0  0  0  0  0  0
    7.9701   48.7340   54.1240 H   0  0  0  0  0  0  0  0  0  0  0  0
    6.7408   47.8233   52.1519 H   0  0  0  0  0  0  0  0  0  0  0  0
    5.5526   45.5134   52.0285 H   0  0  0  0  0  0  0  0  0  0  0  0
  1  2  2  0
  2  3  1  0
  3  4  1  0
  4  5  2  0
  5  6  1  0
  6  7  2  0
  7  8  1  0
  8  9  2  0
  9 10  1  0
 10 11  2  0
 11 12  1  0
  2 13  1  0
 13 14  2  0
 14 15  1  0
 15 16  2  0
 16 17  1  0
 17 18  1  0
 18 19  1  0
 19 20  2  0
 20 21  1  0
 21 22  2  0
 22 23  1  0
 23 24  2  0
 17 25  2  0
 12  4  1  0
 25 13  1  0
 12  7  1  0
 24 19  1  0
  3 26  1  0
  8 27  1  0
  9 28  1  0
 10 29  1  0
 11 30  1  0
 14 31  1  0
 15 32  1  0
 16 33  1  0
 18 34  1  0
 20 35  1  0
 21 36  1  0
 22 37  1  0
 23 38  1  0
 24 39  1  0
 25 40  1  0
M  END
>  <meeko>  (2) 
{"is_sidechain": [false], "free_energy": -9.541, "intermolecular_energy": -11.817, "internal_energy": -0.773}

$$$$
ligand_18_conformer_1_docked
     RDKit          3D

 40 43  0  0  0  0  0  0  0  0999 V2000
    6.0410   40.8940   49.2440 O   0  0  0  0  0  0  0  0  0  0  0  0
    4.9920   41.5150   49.5690 C   0  0  0  0  0  0  0  0  0  0  0  0
    3.7230   41.0720   49.0650 N   0  0  0  0  0  0  0  0  0  0  0  0
    3.5970   40.2110   47.9270 C   0  0  0  0  0  0  0  0  0  0  0  0
    2.9290   39.0370   47.9540 N   0  0  0  0  0  0  0  0  0  0  0  0
    2.9860   38.5230   46.7290 N   0  0  0  0  0  0  0  0  0  0  0  0
    3.6790   39.4040   45.9820 C   0  0  0  0  0  0  0  0  0  0  0  0
    3.9580   39.3050   44.6220 C   0  0  0  0  0  0  0  0  0  0  0  0
    4.6470   40.3710   44.0220 C   0  0  0  0  0  0  0  0  0  0  0  0
    5.0200   41.4970   44.7840 C   0  0  0  0  0  0  0  0  0  0  0  0
    4.7080   41.5410   46.1520 C   0  0  0  0  0  0  0  0  0  0  0  0
    4.0680   40.4720   46.6940 N   0  0  0  0  0  0  0  0  0  0  0  0
    5.0800   42.6640   50.5000 C   0  0  0  0  0  0  0  0  0  0  0  0
    4.3050   42.6870   51.6730 C   0  0  0  0  0  0  0  0  0  0  0  0
    4.3960   43.7610   52.5610 C   0  0  0  0  0  0  0  0  0  0  0  0
    5.2570   44.8250   52.2900 C   0  0  0  0  0  0  0  0  0  0  0  0
    6.0300   44.8320   51.1210 C   0  0  0  0  0  0  0  0  0  0  0  0
    6.9340   45.9240   50.8770 N   0  0  0  0  0  0  0  0  0  0  0  0
    7.9210   46.3850   51.8150 C   0  0  0  0  0  0  0  0  0  0  0  0
    9.2700   46.0500   51.6200 C   0  0  0  0  0  0  0  0  0  0  0  0
   10.2430   46.4690   52.5310 C   0  0  0  0  0  0  0  0  0  0  0  0
    9.8760   47.2130   53.6550 C   0  0  0  0  0  0  0  0  0  0  0  0
    8.5330   47.5330   53.8730 C   0  0  0  0  0  0  0  0  0  0  0  0
    7.5570   47.1160   52.9620 C   0  0  0  0  0  0  0  0  0  0  0  0
    5.9560   43.7360   50.2420 C   0  0  0  0  0  0  0  0  0  0  0  0
    2.8750   41.2140   49.6580 H   0  0  0  0  0  0  0  0  0  0  0  0
    3.6502   38.4244   44.0390 H   0  0  0  0  0  0  0  0  0  0  0  0
    4.8971   40.3274   42.9517 H   0  0  0  0  0  0  0  0  0  0  0  0
    5.5518   42.3352   44.3099 H   0  0  0  0  0  0  0  0  0  0  0  0
    4.9735   42.4141   46.7662 H   0  0  0  0  0  0  0  0  0  0  0  0
    3.6222   41.8531   51.8928 H   0  0  0  0  0  0  0  0  0  0  0  0
    3.7870   43.7682   53.4770 H   0  0  0  0  0  0  0  0  0  0  0  0
    5.3295   45.6635   52.9983 H   0  0  0  0  0  0  0  0  0  0  0  0
    6.8690   46.4140   49.9560 H   0  0  0  0  0  0  0  0  0  0  0  0
    9.5633   45.4533   50.7437 H   0  0  0  0  0  0  0  0  0  0  0  0
   11.2994   46.2127   52.3629 H   0  0  0  0  0  0  0  0  0  0  0  0
   10.6439   47.5469   54.3684 H   0  0  0  0  0  0  0  0  0  0  0  0
    8.2434   48.1132   54.7616 H   0  0  0  0  0  0  0  0  0  0  0  0
    6.4998   47.3604   53.1425 H   0  0  0  0  0  0  0  0  0  0  0  0
    6.5896   43.7162   49.3430 H   0  0  0  0  0  0  0  0  0  0  0  0
  1  2  2  0
  2  3  1  0
  3  4  1  0
  4  5  2  0
  5  6  1  0
  6  7  2  0
  7  8  1  0
  8  9  2  0
  9 10  1  0
 10 11  2  0
 11 12  1  0
  2 13  1  0
 13 14  2  0
 14 15  1  0
 15 16  2  0
 16 17  1  0
 17 18  1  0
 18 19  1  0
 19 20  2  0
 20 21  1  0
 21 22  2  0
 22 23  1  0
 23 24  2  0
 17 25  2  0
 12  4  1  0
 25 13  1  0
 12  7  1  0
 24 19  1  0
  3 26  1  0
  8 27  1  0
  9 28  1  0
 10 29  1  0
 11 30  1  0
 14 31  1  0
 15 32  1  0
 16 33  1  0
 18 34  1  0
 20 35  1  0
 21 36  1  0
 22 37  1  0
 23 38  1  0
 24 39  1  0
 25 40  1  0
M  END
>  <meeko>  (3) 
{"is_sidechain": [false], "free_energy": -8.995, "intermolecular_energy": -11.539, "internal_energy": -0.376}

$$$$
ligand_18_conformer_1_docked
     RDKit          3D

 40 43  0  0  0  0  0  0  0  0999 V2000
    5.1890   44.4330   53.8500 O   0  0  0  0  0  0  0  0  0  0  0  0
    4.4770   45.4560   53.6590 C   0  0  0  0  0  0  0  0  0  0  0  0
    5.1080   46.7210   53.4070 N   0  0  0  0  0  0  0  0  0  0  0  0
    6.4790   46.9820   53.7290 C   0  0  0  0  0  0  0  0  0  0  0  0
    6.8830   47.4650   54.9240 N   0  0  0  0  0  0  0  0  0  0  0  0
    8.2090   47.5520   54.8860 N   0  0  0  0  0  0  0  0  0  0  0  0
    8.5820   47.1080   53.6710 C   0  0  0  0  0  0  0  0  0  0  0  0
    9.8840   46.9820   53.1930 C   0  0  0  0  0  0  0  0  0  0  0  0
   10.0530   46.4360   51.9100 C   0  0  0  0  0  0  0  0  0  0  0  0
    8.9350   46.0240   51.1570 C   0  0  0  0  0  0  0  0  0  0  0  0
    7.6470   46.1740   51.6940 C   0  0  0  0  0  0  0  0  0  0  0  0
    7.5310   46.7360   52.9260 N   0  0  0  0  0  0  0  0  0  0  0  0
    3.0000   45.3290   53.6500 C   0  0  0  0  0  0  0  0  0  0  0  0
    2.2970   45.3180   52.4330 C   0  0  0  0  0  0  0  0  0  0  0  0
    0.9070   45.1840   52.4200 C   0  0  0  0  0  0  0  0  0  0  0  0
    0.2020   45.0630   53.6180 C   0  0  0  0  0  0  0  0  0  0  0  0
    0.8790   45.0840   54.8450 C   0  0  0  0  0  0  0  0  0  0  0  0
    0.1360   44.9260   56.0660 N   0  0  0  0  0  0  0  0  0  0  0  0
   -0.0320   45.9570   57.0540 C   0  0  0  0  0  0  0  0  0  0  0  0
    1.0160   46.2370   57.9450 C   0  0  0  0  0  0  0  0  0  0  0  0
    0.8660   47.2190   58.9280 C   0  0  0  0  0  0  0  0  0  0  0  0
   -0.3390   47.9190   59.0410 C   0  0  0  0  0  0  0  0  0  0  0  0
   -1.3970   47.6310   58.1750 C   0  0  0  0  0  0  0  0  0  0  0  0
   -1.2490   46.6500   57.1900 C   0  0  0  0  0  0  0  0  0  0  0  0
    2.2820   45.1930   54.8540 C   0  0  0  0  0  0  0  0  0  0  0  0
    4.6180   47.4090   52.7920 H   0  0  0  0  0  0  0  0  0  0  0  0
   10.7471   47.2980   53.7972 H   0  0  0  0  0  0  0  0  0  0  0  0
   11.0641   46.3293   51.4902 H   0  0  0  0  0  0  0  0  0  0  0  0
    9.0709   45.5883   50.1562 H   0  0  0  0  0  0  0  0  0  0  0  0
    6.7582   45.8466   51.1346 H   0  0  0  0  0  0  0  0  0  0  0  0
    2.8453   45.4156   51.4844 H   0  0  0  0  0  0  0  0  0  0  0  0
    0.3662   45.1738   51.4622 H   0  0  0  0  0  0  0  0  0  0  0  0
   -0.8921   44.9504   53.5993 H   0  0  0  0  0  0  0  0  0  0  0  0
   -0.3120   43.9990   56.2470 H   0  0  0  0  0  0  0  0  0  0  0  0
    1.9614   45.6799   57.8690 H   0  0  0  0  0  0  0  0  0  0  0  0
    1.6969   47.4415   59.6136 H   0  0  0  0  0  0  0  0  0  0  0  0
   -0.4540   48.6959   59.8112 H   0  0  0  0  0  0  0  0  0  0  0  0
   -2.3475   48.1768   58.2684 H   0  0  0  0  0  0  0  0  0  0  0  0
   -2.0884   46.4187   56.5178 H   0  0  0  0  0  0  0  0  0  0  0  0
    2.8235   45.1718   55.8113 H   0  0  0  0  0  0  0  0  0  0  0  0
  1  2  2  0
  2  3  1  0
  3  4  1  0
  4  5  2  0
  5  6  1  0
  6  7  2  0
  7  8  1  0
  8  9  2  0
  9 10  1  0
 10 11  2  0
 11 12  1  0
  2 13  1  0
 13 14  2  0
 14 15  1  0
 15 16  2  0
 16 17  1  0
 17 18  1  0
 18 19  1  0
 19 20  2  0
 20 21  1  0
 21 22  2  0
 22 23  1  0
 23 24  2  0
 17 25  2  0
 12  4  1  0
 25 13  1  0
 12  7  1  0
 24 19  1  0
  3 26  1  0
  8 27  1  0
  9 28  1  0
 10 29  1  0
 11 30  1  0
 14 31  1  0
 15 32  1  0
 16 33  1  0
 18 34  1  0
 20 35  1  0
 21 36  1  0
 22 37  1  0
 23 38  1  0
 24 39  1  0
 25 40  1  0
M  END
>  <meeko>  (4) 
{"is_sidechain": [false], "free_energy": -8.946, "intermolecular_energy": -11.133, "internal_energy": -0.723}

$$$$
ligand_18_conformer_1_docked
     RDKit          3D

 40 43  0  0  0  0  0  0  0  0999 V2000
    4.1660   47.3960   52.5000 O   0  0  0  0  0  0  0  0  0  0  0  0
    3.9680   46.1970   52.8370 C   0  0  0  0  0  0  0  0  0  0  0  0
    5.0760   45.2860   52.8990 N   0  0  0  0  0  0  0  0  0  0  0  0
    6.3260   45.5390   52.2470 C   0  0  0  0  0  0  0  0  0  0  0  0
    6.5480   45.2800   50.9390 N   0  0  0  0  0  0  0  0  0  0  0  0
    7.7920   45.6640   50.6680 N   0  0  0  0  0  0  0  0  0  0  0  0
    8.2930   46.1600   51.8150 C   0  0  0  0  0  0  0  0  0  0  0  0
    9.5560   46.7170   51.9990 C   0  0  0  0  0  0  0  0  0  0  0  0
    9.8560   47.2330   53.2710 C   0  0  0  0  0  0  0  0  0  0  0  0
    8.8960   47.1930   54.3020 C   0  0  0  0  0  0  0  0  0  0  0  0
    7.6380   46.6210   54.0530 C   0  0  0  0  0  0  0  0  0  0  0  0
    7.4050   46.1060   52.8180 N   0  0  0  0  0  0  0  0  0  0  0  0
    2.6020   45.7570   53.2080 C   0  0  0  0  0  0  0  0  0  0  0  0
    1.6360   45.5270   52.2120 C   0  0  0  0  0  0  0  0  0  0  0  0
    0.3520   45.0980   52.5570 C   0  0  0  0  0  0  0  0  0  0  0  0
    0.0150   44.8960   53.8960 C   0  0  0  0  0  0  0  0  0  0  0  0
    0.9570   45.1310   54.9070 C   0  0  0  0  0  0  0  0  0  0  0  0
    0.5980   44.8850   56.2780 N   0  0  0  0  0  0  0  0  0  0  0  0
    0.1680   45.9020   57.2000 C   0  0  0  0  0  0  0  0  0  0  0  0
   -1.1410   46.4010   57.1150 C   0  0  0  0  0  0  0  0  0  0  0  0
   -1.5730   47.4050   57.9860 C   0  0  0  0  0  0  0  0  0  0  0  0
   -0.6970   47.9320   58.9390 C   0  0  0  0  0  0  0  0  0  0  0  0
    0.6160   47.4590   59.0160 C   0  0  0  0  0  0  0  0  0  0  0  0
    1.0510   46.4530   58.1460 C   0  0  0  0  0  0  0  0  0  0  0  0
    2.2570   45.5370   54.5550 C   0  0  0  0  0  0  0  0  0  0  0  0
    5.0470   44.5120   53.6000 H   0  0  0  0  0  0  0  0  0  0  0  0
   10.2901   46.7517   51.1805 H   0  0  0  0  0  0  0  0  0  0  0  0
   10.8465   47.6710   53.4633 H   0  0  0  0  0  0  0  0  0  0  0  0
    9.1303   47.6066   55.2940 H   0  0  0  0  0  0  0  0  0  0  0  0
    6.8646   46.5909   54.8346 H   0  0  0  0  0  0  0  0  0  0  0  0
    1.8932   45.6860   51.1544 H   0  0  0  0  0  0  0  0  0  0  0  0
   -0.3959   44.9188   51.7705 H   0  0  0  0  0  0  0  0  0  0  0  0
   -0.9955   44.5504   54.1596 H   0  0  0  0  0  0  0  0  0  0  0  0
    0.6530   43.9020   56.6280 H   0  0  0  0  0  0  0  0  0  0  0  0
   -1.8311   45.9995   56.3583 H   0  0  0  0  0  0  0  0  0  0  0  0
   -2.6046   47.7812   57.9213 H   0  0  0  0  0  0  0  0  0  0  0  0
   -1.0404   48.7180   59.6276 H   0  0  0  0  0  0  0  0  0  0  0  0
    1.3081   47.8780   59.7613 H   0  0  0  0  0  0  0  0  0  0  0  0
    2.0884   46.0914   58.2022 H   0  0  0  0  0  0  0  0  0  0  0  0
    3.0124   45.6842   55.3410 H   0  0  0  0  0  0  0  0  0  0  0  0
  1  2  2  0
  2  3  1  0
  3  4  1  0
  4  5  2  0
  5  6  1  0
  6  7  2  0
  7  8  1  0
  8  9  2  0
  9 10  1  0
 10 11  2  0
 11 12  1  0
  2 13  1  0
 13 14  2  0
 14 15  1  0
 15 16  2  0
 16 17  1  0
 17 18  1  0
 18 19  1  0
 19 20  2  0
 20 21  1  0
 21 22  2  0
 22 23  1  0
 23 24  2  0
 17 25  2  0
 12  4  1  0
 25 13  1  0
 12  7  1  0
 24 19  1  0
  3 26  1  0
  8 27  1  0
  9 28  1  0
 10 29  1  0
 11 30  1  0
 14 31  1  0
 15 32  1  0
 16 33  1  0
 18 34  1  0
 20 35  1  0
 21 36  1  0
 22 37  1  0
 23 38  1  0
 24 39  1  0
 25 40  1  0
M  END
>  <meeko>  (5) 
{"is_sidechain": [false], "free_energy": -8.684, "intermolecular_energy": -10.734, "internal_energy": -0.798}

$$$$
