ligand_27_conformer_1_docked
     RDKit          3D

 46 47  0  0  0  0  0  0  0  0999 V2000
   -1.1630   44.6070   56.7630 C   0  0  0  0  0  0  0  0  0  0  0  0
   -1.6700   44.3780   55.3490 C   0  0  0  0  0  0  0  0  0  0  0  0
   -1.2770   43.0830   54.9050 O   0  0  0  0  0  0  0  0  0  0  0  0
   -0.4310   42.8820   53.8110 C   0  0  0  0  0  0  0  0  0  0  0  0
   -0.5530   41.8530   53.0950 O   0  0  0  0  0  0  0  0  0  0  0  0
    0.6010   43.8930   53.5060 C   0  0  0  0  0  0  0  0  0  0  0  0
    1.8320   43.9550   54.1350 C   0  0  0  0  0  0  0  0  0  0  0  0
    2.4750   45.0540   53.6040 C   0  0  0  0  0  0  0  0  0  0  0  0
    4.0310   45.6880   54.1100 S   0  0  0  0  0  0  0  0  0  0  0  0
    3.8650   46.5750   55.3110 O   0  0  0  0  0  0  0  0  0  0  0  0
    4.9220   44.5360   54.4840 O   0  0  0  0  0  0  0  0  0  0  0  0
    4.7610   46.5700   52.8060 N   0  0  0  0  0  0  0  0  0  0  0  0
    5.6640   45.9450   51.8800 C   0  0  0  0  0  0  0  0  0  0  0  0
    5.2640   44.7830   51.1970 C   0  0  0  0  0  0  0  0  0  0  0  0
    6.1330   44.1380   50.3160 C   0  0  0  0  0  0  0  0  0  0  0  0
    7.4110   44.6460   50.0980 C   0  0  0  0  0  0  0  0  0  0  0  0
    8.2570   44.0140   49.2490 F   0  0  0  0  0  0  0  0  0  0  0  0
    7.8220   45.8090   50.7530 C   0  0  0  0  0  0  0  0  0  0  0  0
    6.9570   46.4800   51.6380 C   0  0  0  0  0  0  0  0  0  0  0  0
    7.4710   47.7050   52.3570 C   0  0  0  0  0  0  0  0  0  0  0  0
    8.3310   47.2700   53.8650 S   0  0  0  0  0  0  0  0  0  0  0  0
    9.7890   46.3020   53.5290 C   0  0  0  0  0  0  0  0  0  0  0  0
    7.4120   46.4910   54.7620 O   0  0  0  0  0  0  0  0  0  0  0  0
    8.7430   48.5320   54.5690 O   0  0  0  0  0  0  0  0  0  0  0  0
    1.6290   45.6190   52.6730 C   0  0  0  0  0  0  0  0  0  0  0  0
    0.4860   44.9080   52.6140 N   0  0  0  0  0  0  0  0  0  0  0  0
   -0.6610   45.2330   51.7700 C   0  0  0  0  0  0  0  0  0  0  0  0
   -1.9202   44.2650   57.4839 H   0  0  0  0  0  0  0  0  0  0  0  0
   -0.2312   44.0424   56.9144 H   0  0  0  0  0  0  0  0  0  0  0  0
   -0.9706   45.6794   56.9144 H   0  0  0  0  0  0  0  0  0  0  0  0
   -2.7675   44.4518   55.3370 H   0  0  0  0  0  0  0  0  0  0  0  0
   -1.2427   45.1392   54.6797 H   0  0  0  0  0  0  0  0  0  0  0  0
    2.2190   43.2680   54.9020 H   0  0  0  0  0  0  0  0  0  0  0  0
    4.6500   47.6070   52.8140 H   0  0  0  0  0  0  0  0  0  0  0  0
    4.2543   44.3776   51.3590 H   0  0  0  0  0  0  0  0  0  0  0  0
    5.8078   43.2266   49.7928 H   0  0  0  0  0  0  0  0  0  0  0  0
    8.8327   46.2050   50.5754 H   0  0  0  0  0  0  0  0  0  0  0  0
    8.1634   48.2441   51.6938 H   0  0  0  0  0  0  0  0  0  0  0  0
    6.6096   48.3360   52.6214 H   0  0  0  0  0  0  0  0  0  0  0  0
   10.2519   45.9947   54.4784 H   0  0  0  0  0  0  0  0  0  0  0  0
    9.5108   45.4087   52.9506 H   0  0  0  0  0  0  0  0  0  0  0  0
   10.5043   46.9052   52.9506 H   0  0  0  0  0  0  0  0  0  0  0  0
    1.8528   46.5123   52.0714 H   0  0  0  0  0  0  0  0  0  0  0  0
   -1.5255   45.4779   52.4046 H   0  0  0  0  0  0  0  0  0  0  0  0
   -0.4158   46.0970   51.1349 H   0  0  0  0  0  0  0  0  0  0  0  0
   -0.9055   44.3688   51.1349 H   0  0  0  0  0  0  0  0  0  0  0  0
  1  2  1  0
  2  3  1  0
  3  4  1  0
  4  5  2  0
  4  6  1  0
  6  7  2  0
  7  8  1  0
  8  9  1  0
  9 10  2  0
  9 11  2  0
  9 12  1  0
 12 13  1  0
 13 14  2  0
 14 15  1  0
 15 16  2  0
 16 17  1  0
 16 18  1  0
 18 19  2  0
 19 20  1  0
 20 21  1  0
 21 22  1  0
 21 23  2  0
 21 24  2  0
  8 25  2  0
 25 26  1  0
 26 27  1  0
 26  6  1  0
 19 13  1  0
  1 28  1  0
  1 29  1  0
  1 30  1  0
  2 31  1  0
  2 32  1  0
  7 33  1  0
 12 34  1  0
 14 35  1  0
 15 36  1  0
 18 37  1  0
 20 38  1  0
 20 39  1  0
 22 40  1  0
 22 41  1  0
 22 42  1  0
 25 43  1  0
 27 44  1  0
 27 45  1  0
 27 46  1  0
M  END
>  <meeko>  (1) 
{"is_sidechain": [false], "free_energy": -7.876, "intermolecular_energy": -11.559, "internal_energy": -1.079}

$$$$
ligand_27_conformer_1_docked
     RDKit          3D

 46 47  0  0  0  0  0  0  0  0999 V2000
    0.9240   46.4760   57.9480 C   0  0  0  0  0  0  0  0  0  0  0  0
   -0.3590   46.0680   57.2430 C   0  0  0  0  0  0  0  0  0  0  0  0
   -0.1780   44.8010   56.6180 O   0  0  0  0  0  0  0  0  0  0  0  0
   -0.4760   44.5720   55.2720 C   0  0  0  0  0  0  0  0  0  0  0  0
   -1.6600   44.3260   54.9170 O   0  0  0  0  0  0  0  0  0  0  0  0
    0.6120   44.6280   54.2760 C   0  0  0  0  0  0  0  0  0  0  0  0
    1.3620   45.7600   54.0110 C   0  0  0  0  0  0  0  0  0  0  0  0
    2.2310   45.4130   52.9980 C   0  0  0  0  0  0  0  0  0  0  0  0
    3.3480   46.4890   52.1770 S   0  0  0  0  0  0  0  0  0  0  0  0
    3.1150   46.4460   50.6940 O   0  0  0  0  0  0  0  0  0  0  0  0
    3.1070   47.8920   52.6600 O   0  0  0  0  0  0  0  0  0  0  0  0
    4.9820   46.0350   52.5440 N   0  0  0  0  0  0  0  0  0  0  0  0
    5.8370   45.4220   51.5660 C   0  0  0  0  0  0  0  0  0  0  0  0
    5.4630   44.1950   50.9890 C   0  0  0  0  0  0  0  0  0  0  0  0
    6.2900   43.5620   50.0610 C   0  0  0  0  0  0  0  0  0  0  0  0
    7.4980   44.1450   49.6890 C   0  0  0  0  0  0  0  0  0  0  0  0
    8.3050   43.5240   48.7940 F   0  0  0  0  0  0  0  0  0  0  0  0
    7.8800   45.3710   50.2370 C   0  0  0  0  0  0  0  0  0  0  0  0
    7.0550   46.0310   51.1680 C   0  0  0  0  0  0  0  0  0  0  0  0
    7.5410   47.3310   51.7660 C   0  0  0  0  0  0  0  0  0  0  0  0
    8.4020   47.0630   53.3120 S   0  0  0  0  0  0  0  0  0  0  0  0
    9.9050   46.1360   53.0710 C   0  0  0  0  0  0  0  0  0  0  0  0
    7.5070   46.3210   54.2630 O   0  0  0  0  0  0  0  0  0  0  0  0
    8.7490   48.3960   53.9110 O   0  0  0  0  0  0  0  0  0  0  0  0
    1.9940   44.0910   52.6830 C   0  0  0  0  0  0  0  0  0  0  0  0
    1.0060   43.6140   53.4650 N   0  0  0  0  0  0  0  0  0  0  0  0
    0.4540   42.2630   53.3870 C   0  0  0  0  0  0  0  0  0  0  0  0
    0.7751   46.4286   59.0368 H   0  0  0  0  0  0  0  0  0  0  0  0
    1.7350   45.7914   57.6587 H   0  0  0  0  0  0  0  0  0  0  0  0
    1.1906   47.5032   57.6587 H   0  0  0  0  0  0  0  0  0  0  0  0
   -1.1750   46.0007   57.9776 H   0  0  0  0  0  0  0  0  0  0  0  0
   -0.6117   46.8191   56.4801 H   0  0  0  0  0  0  0  0  0  0  0  0
    1.2815   46.7382   54.5075 H   0  0  0  0  0  0  0  0  0  0  0  0
    5.2700   46.0730   53.5460 H   0  0  0  0  0  0  0  0  0  0  0  0
    4.5077   43.7294   51.2727 H   0  0  0  0  0  0  0  0  0  0  0  0
    5.9868   42.5999   49.6222 H   0  0  0  0  0  0  0  0  0  0  0  0
    8.8358   45.8263   49.9383 H   0  0  0  0  0  0  0  0  0  0  0  0
    8.2258   47.8169   51.0555 H   0  0  0  0  0  0  0  0  0  0  0  0
    6.6658   47.9669   51.9650 H   0  0  0  0  0  0  0  0  0  0  0  0
   10.3336   45.8717   54.0490 H   0  0  0  0  0  0  0  0  0  0  0  0
    9.6831   45.2177   52.5076 H   0  0  0  0  0  0  0  0  0  0  0  0
   10.6260   46.7465   52.5076 H   0  0  0  0  0  0  0  0  0  0  0  0
    2.5287   43.5156   51.9129 H   0  0  0  0  0  0  0  0  0  0  0  0
    0.2946   41.8728   54.4030 H   0  0  0  0  0  0  0  0  0  0  0  0
   -0.5054   42.2894   52.8496 H   0  0  0  0  0  0  0  0  0  0  0  0
    1.1574   41.6100   52.8496 H   0  0  0  0  0  0  0  0  0  0  0  0
  1  2  1  0
  2  3  1  0
  3  4  1  0
  4  5  2  0
  4  6  1  0
  6  7  2  0
  7  8  1  0
  8  9  1  0
  9 10  2  0
  9 11  2  0
  9 12  1  0
 12 13  1  0
 13 14  2  0
 14 15  1  0
 15 16  2  0
 16 17  1  0
 16 18  1  0
 18 19  2  0
 19 20  1  0
 20 21  1  0
 21 22  1  0
 21 23  2  0
 21 24  2  0
  8 25  2  0
 25 26  1  0
 26 27  1  0
 26  6  1  0
 19 13  1  0
  1 28  1  0
  1 29  1  0
  1 30  1  0
  2 31  1  0
  2 32  1  0
  7 33  1  0
 12 34  1  0
 14 35  1  0
 15 36  1  0
 18 37  1  0
 20 38  1  0
 20 39  1  0
 22 40  1  0
 22 41  1  0
 22 42  1  0
 25 43  1  0
 27 44  1  0
 27 45  1  0
 27 46  1  0
M  END
>  <meeko>  (2) 
{"is_sidechain": [false], "free_energy": -7.852, "intermolecular_energy": -11.71, "internal_energy": -0.894}

$$$$
ligand_27_conformer_1_docked
     RDKit          3D

 46 47  0  0  0  0  0  0  0  0999 V2000
   -2.1140   44.3080   50.4360 C   0  0  0  0  0  0  0  0  0  0  0  0
   -2.2990   43.6280   51.7830 C   0  0  0  0  0  0  0  0  0  0  0  0
   -1.3360   42.5890   51.9290 O   0  0  0  0  0  0  0  0  0  0  0  0
   -0.3330   42.6190   52.9010 C   0  0  0  0  0  0  0  0  0  0  0  0
   -0.0960   41.5970   53.6000 O   0  0  0  0  0  0  0  0  0  0  0  0
    0.4460   43.8580   53.0930 C   0  0  0  0  0  0  0  0  0  0  0  0
    1.3940   44.3220   52.1980 C   0  0  0  0  0  0  0  0  0  0  0  0
    1.9180   45.4680   52.7590 C   0  0  0  0  0  0  0  0  0  0  0  0
    3.2440   46.4220   52.1180 S   0  0  0  0  0  0  0  0  0  0  0  0
    3.1390   46.5180   50.6230 O   0  0  0  0  0  0  0  0  0  0  0  0
    3.1620   47.8080   52.6950 O   0  0  0  0  0  0  0  0  0  0  0  0
    4.7580   45.7070   52.5720 N   0  0  0  0  0  0  0  0  0  0  0  0
    5.6740   45.1870   51.5950 C   0  0  0  0  0  0  0  0  0  0  0  0
    5.4120   43.9460   50.9880 C   0  0  0  0  0  0  0  0  0  0  0  0
    6.3010   43.4030   50.0600 C   0  0  0  0  0  0  0  0  0  0  0  0
    7.4620   44.0930   49.7180 C   0  0  0  0  0  0  0  0  0  0  0  0
    8.3290   43.5600   48.8230 F   0  0  0  0  0  0  0  0  0  0  0  0
    7.7320   45.3340   50.2960 C   0  0  0  0  0  0  0  0  0  0  0  0
    6.8440   45.9040   51.2280 C   0  0  0  0  0  0  0  0  0  0  0  0
    7.2120   47.2260   51.8590 C   0  0  0  0  0  0  0  0  0  0  0  0
    8.1260   46.9970   53.3810 S   0  0  0  0  0  0  0  0  0  0  0  0
    9.6660   46.1470   53.0950 C   0  0  0  0  0  0  0  0  0  0  0  0
    7.2950   46.2090   54.3530 O   0  0  0  0  0  0  0  0  0  0  0  0
    8.4220   48.3450   53.9750 O   0  0  0  0  0  0  0  0  0  0  0  0
    1.2760   45.6710   53.9620 C   0  0  0  0  0  0  0  0  0  0  0  0
    0.3770   44.6880   54.1640 N   0  0  0  0  0  0  0  0  0  0  0  0
   -0.4610   44.5480   55.3530 C   0  0  0  0  0  0  0  0  0  0  0  0
   -1.8281   45.3587   50.5919 H   0  0  0  0  0  0  0  0  0  0  0  0
   -1.3234   43.7929   49.8707 H   0  0  0  0  0  0  0  0  0  0  0  0
   -3.0566   44.2644   49.8707 H   0  0  0  0  0  0  0  0  0  0  0  0
   -2.1659   44.3664   52.5874 H   0  0  0  0  0  0  0  0  0  0  0  0
   -3.3106   43.1997   51.8406 H   0  0  0  0  0  0  0  0  0  0  0  0
    1.6729   43.8691   51.2352 H   0  0  0  0  0  0  0  0  0  0  0  0
    4.9090   45.5190   53.5870 H   0  0  0  0  0  0  0  0  0  0  0  0
    4.4951   43.3967   51.2480 H   0  0  0  0  0  0  0  0  0  0  0  0
    6.0849   42.4286   49.5976 H   0  0  0  0  0  0  0  0  0  0  0  0
    8.6500   45.8736   50.0201 H   0  0  0  0  0  0  0  0  0  0  0  0
    7.8316   47.7985   51.1530 H   0  0  0  0  0  0  0  0  0  0  0  0
    6.2829   47.7663   52.0932 H   0  0  0  0  0  0  0  0  0  0  0  0
   10.1286   45.8917   54.0598 H   0  0  0  0  0  0  0  0  0  0  0  0
    9.4760   45.2260   52.5243 H   0  0  0  0  0  0  0  0  0  0  0  0
   10.3440   46.7986   52.5243 H   0  0  0  0  0  0  0  0  0  0  0  0
    1.4681   46.5068   54.6509 H   0  0  0  0  0  0  0  0  0  0  0  0
    0.1610   44.6519   56.2543 H   0  0  0  0  0  0  0  0  0  0  0  0
   -1.2354   45.3292   55.3499 H   0  0  0  0  0  0  0  0  0  0  0  0
   -0.9394   43.5575   55.3499 H   0  0  0  0  0  0  0  0  0  0  0  0
  1  2  1  0
  2  3  1  0
  3  4  1  0
  4  5  2  0
  4  6  1  0
  6  7  2  0
  7  8  1  0
  8  9  1  0
  9 10  2  0
  9 11  2  0
  9 12  1  0
 12 13  1  0
 13 14  2  0
 14 15  1  0
 15 16  2  0
 16 17  1  0
 16 18  1  0
 18 19  2  0
 19 20  1  0
 20 21  1  0
 21 22  1  0
 21 23  2  0
 21 24  2  0
  8 25  2  0
 25 26  1  0
 26 27  1  0
 26  6  1  0
 19 13  1  0
  1 28  1  0
  1 29  1  0
  1 30  1  0
  2 31  1  0
  2 32  1  0
  7 33  1  0
 12 34  1  0
 14 35  1  0
 15 36  1  0
 18 37  1  0
 20 38  1  0
 20 39  1  0
 22 40  1  0
 22 41  1  0
 22 42  1  0
 25 43  1  0
 27 44  1  0
 27 45  1  0
 27 46  1  0
M  END
>  <meeko>  (3) 
{"is_sidechain": [false], "free_energy": -7.851, "intermolecular_energy": -11.432, "internal_energy": -1.17}

$$$$
ligand_27_conformer_1_docked
     RDKit          3D

 46 47  0  0  0  0  0  0  0  0999 V2000
   -0.4660   42.2480   52.5270 C   0  0  0  0  0  0  0  0  0  0  0  0
    0.7650   42.7480   51.7880 C   0  0  0  0  0  0  0  0  0  0  0  0
    0.5340   44.0730   51.3200 O   0  0  0  0  0  0  0  0  0  0  0  0
    0.2630   45.1420   52.1790 C   0  0  0  0  0  0  0  0  0  0  0  0
   -0.8420   45.7450   52.1120 O   0  0  0  0  0  0  0  0  0  0  0  0
    1.2850   45.5500   53.1630 C   0  0  0  0  0  0  0  0  0  0  0  0
    2.4440   46.2310   52.8370 C   0  0  0  0  0  0  0  0  0  0  0  0
    3.1420   46.3790   54.0170 C   0  0  0  0  0  0  0  0  0  0  0  0
    4.7450   47.0720   54.1920 S   0  0  0  0  0  0  0  0  0  0  0  0
    4.6700   48.3780   54.9290 O   0  0  0  0  0  0  0  0  0  0  0  0
    5.5970   46.1210   54.9870 O   0  0  0  0  0  0  0  0  0  0  0  0
    5.4610   47.3030   52.6280 N   0  0  0  0  0  0  0  0  0  0  0  0
    6.8230   46.9340   52.3550 C   0  0  0  0  0  0  0  0  0  0  0  0
    7.8560   47.4530   53.1540 C   0  0  0  0  0  0  0  0  0  0  0  0
    9.1900   47.1370   52.8910 C   0  0  0  0  0  0  0  0  0  0  0  0
    9.5110   46.2920   51.8310 C   0  0  0  0  0  0  0  0  0  0  0  0
   10.8070   45.9930   51.5720 F   0  0  0  0  0  0  0  0  0  0  0  0
    8.4980   45.7520   51.0370 C   0  0  0  0  0  0  0  0  0  0  0  0
    7.1470   46.0510   51.2920 C   0  0  0  0  0  0  0  0  0  0  0  0
    6.0960   45.4780   50.3690 C   0  0  0  0  0  0  0  0  0  0  0  0
    5.3480   44.0050   51.0570 S   0  0  0  0  0  0  0  0  0  0  0  0
    6.0470   42.5260   50.3490 C   0  0  0  0  0  0  0  0  0  0  0  0
    3.8680   44.0270   50.8040 O   0  0  0  0  0  0  0  0  0  0  0  0
    5.5870   43.9890   52.5410 O   0  0  0  0  0  0  0  0  0  0  0  0
    2.3930   45.7970   55.0180 C   0  0  0  0  0  0  0  0  0  0  0  0
    1.2590   45.2920   54.4940 N   0  0  0  0  0  0  0  0  0  0  0  0
    0.2410   44.5630   55.2470 C   0  0  0  0  0  0  0  0  0  0  0  0
   -0.2958   42.3171   53.6116 H   0  0  0  0  0  0  0  0  0  0  0  0
   -1.3344   42.8647   52.2521 H   0  0  0  0  0  0  0  0  0  0  0  0
   -0.6584   41.2004   52.2521 H   0  0  0  0  0  0  0  0  0  0  0  0
    1.6280   42.7456   52.4701 H   0  0  0  0  0  0  0  0  0  0  0  0
    0.9712   42.0883   50.9322 H   0  0  0  0  0  0  0  0  0  0  0  0
    2.7471   46.5828   51.8398 H   0  0  0  0  0  0  0  0  0  0  0  0
    4.9210   47.8690   51.9380 H   0  0  0  0  0  0  0  0  0  0  0  0
    7.6105   48.1161   53.9966 H   0  0  0  0  0  0  0  0  0  0  0  0
    9.9884   47.5556   53.5213 H   0  0  0  0  0  0  0  0  0  0  0  0
    8.7589   45.0849   50.2022 H   0  0  0  0  0  0  0  0  0  0  0  0
    5.3131   46.2335   50.2067 H   0  0  0  0  0  0  0  0  0  0  0  0
    6.5822   45.2063   49.4204 H   0  0  0  0  0  0  0  0  0  0  0  0
    6.3668   41.8493   51.1551 H   0  0  0  0  0  0  0  0  0  0  0  0
    5.2908   42.0242   49.7275 H   0  0  0  0  0  0  0  0  0  0  0  0
    6.9148   42.7918   49.7275 H   0  0  0  0  0  0  0  0  0  0  0  0
    2.6773   45.7520   56.0797 H   0  0  0  0  0  0  0  0  0  0  0  0
    0.4201   44.6912   56.3247 H   0  0  0  0  0  0  0  0  0  0  0  0
   -0.7547   44.9547   54.9916 H   0  0  0  0  0  0  0  0  0  0  0  0
    0.2912   43.4942   54.9916 H   0  0  0  0  0  0  0  0  0  0  0  0
  1  2  1  0
  2  3  1  0
  3  4  1  0
  4  5  2  0
  4  6  1  0
  6  7  2  0
  7  8  1  0
  8  9  1  0
  9 10  2  0
  9 11  2  0
  9 12  1  0
 12 13  1  0
 13 14  2  0
 14 15  1  0
 15 16  2  0
 16 17  1  0
 16 18  1  0
 18 19  2  0
 19 20  1  0
 20 21  1  0
 21 22  1  0
 21 23  2  0
 21 24  2  0
  8 25  2  0
 25 26  1  0
 26 27  1  0
 26  6  1  0
 19 13  1  0
  1 28  1  0
  1 29  1  0
  1 30  1  0
  2 31  1  0
  2 32  1  0
  7 33  1  0
 12 34  1  0
 14 35  1  0
 15 36  1  0
 18 37  1  0
 20 38  1  0
 20 39  1  0
 22 40  1  0
 22 41  1  0
 22 42  1  0
 25 43  1  0
 27 44  1  0
 27 45  1  0
 27 46  1  0
M  END
>  <meeko>  (4) 
{"is_sidechain": [false], "free_energy": -7.65, "intermolecular_energy": -11.047, "internal_energy": -1.26}

$$$$
ligand_27_conformer_1_docked
     RDKit          3D

 46 47  0  0  0  0  0  0  0  0999 V2000
   -0.8720   47.8880   58.7710 C   0  0  0  0  0  0  0  0  0  0  0  0
   -1.4540   46.9430   57.7330 C   0  0  0  0  0  0  0  0  0  0  0  0
   -0.4920   46.7070   56.7100 O   0  0  0  0  0  0  0  0  0  0  0  0
    0.1610   45.4810   56.5540 C   0  0  0  0  0  0  0  0  0  0  0  0
    0.6320   44.8810   57.5580 O   0  0  0  0  0  0  0  0  0  0  0  0
    0.2860   44.9000   55.2040 C   0  0  0  0  0  0  0  0  0  0  0  0
    1.4470   44.9320   54.4520 C   0  0  0  0  0  0  0  0  0  0  0  0
    1.1390   44.3320   53.2490 C   0  0  0  0  0  0  0  0  0  0  0  0
    2.2010   44.1930   51.8590 S   0  0  0  0  0  0  0  0  0  0  0  0
    1.7850   43.0310   51.0020 O   0  0  0  0  0  0  0  0  0  0  0  0
    2.0960   45.4520   51.0450 O   0  0  0  0  0  0  0  0  0  0  0  0
    3.8420   43.9940   52.3880 N   0  0  0  0  0  0  0  0  0  0  0  0
    4.9390   43.9630   51.4620 C   0  0  0  0  0  0  0  0  0  0  0  0
    5.1810   42.8000   50.7100 C   0  0  0  0  0  0  0  0  0  0  0  0
    6.2590   42.7320   49.8270 C   0  0  0  0  0  0  0  0  0  0  0  0
    7.1070   43.8250   49.6750 C   0  0  0  0  0  0  0  0  0  0  0  0
    8.1590   43.7540   48.8220 F   0  0  0  0  0  0  0  0  0  0  0  0
    6.8750   44.9960   50.3980 C   0  0  0  0  0  0  0  0  0  0  0  0
    5.7870   45.0880   51.2880 C   0  0  0  0  0  0  0  0  0  0  0  0
    5.6130   46.3620   52.0830 C   0  0  0  0  0  0  0  0  0  0  0  0
    6.4710   46.2810   53.6510 S   0  0  0  0  0  0  0  0  0  0  0  0
    8.2290   46.4900   53.4450 C   0  0  0  0  0  0  0  0  0  0  0  0
    6.2010   44.9560   54.3050 O   0  0  0  0  0  0  0  0  0  0  0  0
    5.9560   47.3760   54.5410 O   0  0  0  0  0  0  0  0  0  0  0  0
   -0.1840   43.9480   53.3050 C   0  0  0  0  0  0  0  0  0  0  0  0
   -0.7030   44.2950   54.4990 N   0  0  0  0  0  0  0  0  0  0  0  0
   -2.0920   44.0870   54.9020 C   0  0  0  0  0  0  0  0  0  0  0  0
   -1.1031   47.5128   59.7789 H   0  0  0  0  0  0  0  0  0  0  0  0
    0.2189   47.9466   58.6427 H   0  0  0  0  0  0  0  0  0  0  0  0
   -1.3106   48.8886   58.6427 H   0  0  0  0  0  0  0  0  0  0  0  0
   -1.7190   45.9896   58.2135 H   0  0  0  0  0  0  0  0  0  0  0  0
   -2.3542   47.3950   57.2910 H   0  0  0  0  0  0  0  0  0  0  0  0
    2.4186   45.3510   54.7527 H   0  0  0  0  0  0  0  0  0  0  0  0
    3.9890   43.7340   53.3880 H   0  0  0  0  0  0  0  0  0  0  0  0
    4.5124   41.9333   50.8191 H   0  0  0  0  0  0  0  0  0  0  0  0
    6.4390   41.8130   49.2500 H   0  0  0  0  0  0  0  0  0  0  0  0
    7.5489   45.8562   50.2715 H   0  0  0  0  0  0  0  0  0  0  0  0
    6.0134   47.2044   51.4999 H   0  0  0  0  0  0  0  0  0  0  0  0
    4.5402   46.4988   52.2840 H   0  0  0  0  0  0  0  0  0  0  0  0
    8.7097   46.5471   54.4328 H   0  0  0  0  0  0  0  0  0  0  0  0
    8.6372   45.6341   52.8875 H   0  0  0  0  0  0  0  0  0  0  0  0
    8.4251   47.4178   52.8875 H   0  0  0  0  0  0  0  0  0  0  0  0
   -0.7314   43.4371   52.4992 H   0  0  0  0  0  0  0  0  0  0  0  0
   -2.1577   44.0772   56.0000 H   0  0  0  0  0  0  0  0  0  0  0  0
   -2.7150   44.9019   54.5047 H   0  0  0  0  0  0  0  0  0  0  0  0
   -2.4490   43.1254   54.5047 H   0  0  0  0  0  0  0  0  0  0  0  0
  1  2  1  0
  2  3  1  0
  3  4  1  0
  4  5  2  0
  4  6  1  0
  6  7  2  0
  7  8  1  0
  8  9  1  0
  9 10  2  0
  9 11  2  0
  9 12  1  0
 12 13  1  0
 13 14  2  0
 14 15  1  0
 15 16  2  0
 16 17  1  0
 16 18  1  0
 18 19  2  0
 19 20  1  0
 20 21  1  0
 21 22  1  0
 21 23  2  0
 21 24  2  0
  8 25  2  0
 25 26  1  0
 26 27  1  0
 26  6  1  0
 19 13  1  0
  1 28  1  0
  1 29  1  0
  1 30  1  0
  2 31  1  0
  2 32  1  0
  7 33  1  0
 12 34  1  0
 14 35  1  0
 15 36  1  0
 18 37  1  0
 20 38  1  0
 20 39  1  0
 22 40  1  0
 22 41  1  0
 22 42  1  0
 25 43  1  0
 27 44  1  0
 27 45  1  0
 27 46  1  0
M  END
>  <meeko>  (5) 
{"is_sidechain": [false], "free_energy": -7.441, "intermolecular_energy": -10.971, "internal_energy": -1.03}

$$$$
