ligand_49_conformer_2_docked
     RDKit          3D

 44 47  0  0  0  0  0  0  0  0999 V2000
    3.6620   43.0330   51.3620 O   0  0  0  0  0  0  0  0  0  0  0  0
    3.9730   43.8730   52.2500 C   0  0  0  0  0  0  0  0  0  0  0  0
    5.3920   44.3610   52.3120 C   0  0  0  0  0  0  0  0  0  0  0  0
    5.6560   45.6270   51.0270 S   0  0  0  0  0  0  0  0  0  0  0  0
    7.3520   45.9420   51.5170 C   0  0  0  0  0  0  0  0  0  0  0  0
    8.4090   45.5040   50.7110 C   0  0  0  0  0  0  0  0  0  0  0  0
    9.7310   45.7450   51.0980 C   0  0  0  0  0  0  0  0  0  0  0  0
    9.9990   46.4290   52.2890 C   0  0  0  0  0  0  0  0  0  0  0  0
    8.9430   46.8710   53.0950 C   0  0  0  0  0  0  0  0  0  0  0  0
    9.3070   47.8050   54.7200 Br  0  0  0  0  0  0  0  0  0  0  0  0
    7.6200   46.6280   52.7080 C   0  0  0  0  0  0  0  0  0  0  0  0
    2.9550   44.3710   53.1410 N   0  0  0  0  0  0  0  0  0  0  0  0
    3.1140   45.6880   53.7960 C   0  0  0  0  0  0  0  0  0  0  0  0
    2.5300   45.6920   55.2170 C   0  0  0  0  0  0  0  0  0  0  0  0
    1.1730   45.0650   55.2040 C   0  0  0  0  0  0  0  0  0  0  0  0
    0.7860   44.1460   54.2730 C   0  0  0  0  0  0  0  0  0  0  0  0
   -0.4890   43.7700   54.4940 N   0  0  0  0  0  0  0  0  0  0  0  0
   -0.8490   44.4870   55.5840 C   0  0  0  0  0  0  0  0  0  0  0  0
    0.1470   45.2770   56.0490 N   0  0  0  0  0  0  0  0  0  0  0  0
    0.0790   46.1590   57.1850 C   0  0  0  0  0  0  0  0  0  0  0  0
   -1.0750   46.9200   57.4370 C   0  0  0  0  0  0  0  0  0  0  0  0
   -1.1270   47.7810   58.5360 C   0  0  0  0  0  0  0  0  0  0  0  0
   -0.0260   47.8960   59.3900 C   0  0  0  0  0  0  0  0  0  0  0  0
   -0.0780   48.7350   60.4540 F   0  0  0  0  0  0  0  0  0  0  0  0
    1.1310   47.1530   59.1400 C   0  0  0  0  0  0  0  0  0  0  0  0
    1.1870   46.2920   58.0400 C   0  0  0  0  0  0  0  0  0  0  0  0
    1.6630   43.6550   53.1670 C   0  0  0  0  0  0  0  0  0  0  0  0
    5.5865   44.7979   53.3026 H   0  0  0  0  0  0  0  0  0  0  0  0
    6.0775   43.5177   52.1421 H   0  0  0  0  0  0  0  0  0  0  0  0
    8.1997   44.9698   49.7725 H   0  0  0  0  0  0  0  0  0  0  0  0
   10.5609   45.3966   50.4657 H   0  0  0  0  0  0  0  0  0  0  0  0
   11.0392   46.6194   52.5919 H   0  0  0  0  0  0  0  0  0  0  0  0
    6.7899   46.9763   53.3401 H   0  0  0  0  0  0  0  0  0  0  0  0
    4.1853   45.9317   53.8505 H   0  0  0  0  0  0  0  0  0  0  0  0
    2.5689   46.4347   53.1999 H   0  0  0  0  0  0  0  0  0  0  0  0
    3.1907   45.1208   55.8858 H   0  0  0  0  0  0  0  0  0  0  0  0
    2.4496   46.7288   55.5757 H   0  0  0  0  0  0  0  0  0  0  0  0
   -1.8468   44.4334   56.0440 H   0  0  0  0  0  0  0  0  0  0  0  0
   -1.9422   46.8374   56.7653 H   0  0  0  0  0  0  0  0  0  0  0  0
   -2.0359   48.3695   58.7298 H   0  0  0  0  0  0  0  0  0  0  0  0
    1.9987   47.2458   59.8096 H   0  0  0  0  0  0  0  0  0  0  0  0
    2.1028   45.7156   57.8425 H   0  0  0  0  0  0  0  0  0  0  0  0
    1.8525   42.5811   53.3112 H   0  0  0  0  0  0  0  0  0  0  0  0
    1.1484   43.8375   52.2121 H   0  0  0  0  0  0  0  0  0  0  0  0
  1  2  2  0
  2  3  1  0
  3  4  1  0
  4  5  1  0
  5  6  2  0
  6  7  1  0
  7  8  2  0
  8  9  1  0
  9 10  1  0
  9 11  2  0
  2 12  1  0
 12 13  1  0
 13 14  1  0
 14 15  1  0
 15 16  2  0
 16 17  1  0
 17 18  2  0
 18 19  1  0
 19 20  1  0
 20 21  2  0
 21 22  1  0
 22 23  2  0
 23 24  1  0
 23 25  1  0
 25 26  2  0
 16 27  1  0
 11  5  1  0
 27 12  1  0
 19 15  1  0
 26 20  1  0
  3 28  1  0
  3 29  1  0
  6 30  1  0
  7 31  1  0
  8 32  1  0
 11 33  1  0
 13 34  1  0
 13 35  1  0
 14 36  1  0
 14 37  1  0
 18 38  1  0
 21 39  1  0
 22 40  1  0
 25 41  1  0
 26 42  1  0
 27 43  1  0
 27 44  1  0
M  END
>  <meeko>  (1) 
{"is_sidechain": [false], "free_energy": -8.686, "intermolecular_energy": -11.225, "internal_energy": -0.298}

$$$$
ligand_49_conformer_2_docked
     RDKit          3D

 44 47  0  0  0  0  0  0  0  0999 V2000
    1.8420   42.3130   50.4470 O   0  0  0  0  0  0  0  0  0  0  0  0
    1.5090   43.3470   51.0900 C   0  0  0  0  0  0  0  0  0  0  0  0
    0.0880   43.4750   51.5600 C   0  0  0  0  0  0  0  0  0  0  0  0
   -0.2200   42.2710   52.8930 S   0  0  0  0  0  0  0  0  0  0  0  0
   -0.1460   43.5070   54.1890 C   0  0  0  0  0  0  0  0  0  0  0  0
    1.0920   43.9800   54.6400 C   0  0  0  0  0  0  0  0  0  0  0  0
    1.1480   44.9390   55.6560 C   0  0  0  0  0  0  0  0  0  0  0  0
   -0.0340   45.4310   56.2200 C   0  0  0  0  0  0  0  0  0  0  0  0
   -1.2740   44.9620   55.7700 C   0  0  0  0  0  0  0  0  0  0  0  0
   -2.8880   45.6330   56.5380 Br  0  0  0  0  0  0  0  0  0  0  0  0
   -1.3290   44.0010   54.7530 C   0  0  0  0  0  0  0  0  0  0  0  0
    2.5050   44.3450   51.3900 N   0  0  0  0  0  0  0  0  0  0  0  0
    3.9020   44.1660   50.9370 C   0  0  0  0  0  0  0  0  0  0  0  0
    4.9080   44.7230   51.9570 C   0  0  0  0  0  0  0  0  0  0  0  0
    4.4730   46.0830   52.3980 C   0  0  0  0  0  0  0  0  0  0  0  0
    3.1730   46.4940   52.3780 C   0  0  0  0  0  0  0  0  0  0  0  0
    3.0800   47.7660   52.8110 N   0  0  0  0  0  0  0  0  0  0  0  0
    4.3610   48.1010   53.0940 C   0  0  0  0  0  0  0  0  0  0  0  0
    5.2330   47.0920   52.8650 N   0  0  0  0  0  0  0  0  0  0  0  0
    6.6590   47.1330   53.0620 C   0  0  0  0  0  0  0  0  0  0  0  0
    7.2070   47.0790   54.3560 C   0  0  0  0  0  0  0  0  0  0  0  0
    8.5920   47.1310   54.5380 C   0  0  0  0  0  0  0  0  0  0  0  0
    9.4410   47.2430   53.4330 C   0  0  0  0  0  0  0  0  0  0  0  0
   10.7840   47.2960   53.6140 F   0  0  0  0  0  0  0  0  0  0  0  0
    8.9040   47.3110   52.1450 C   0  0  0  0  0  0  0  0  0  0  0  0
    7.5200   47.2620   51.9590 C   0  0  0  0  0  0  0  0  0  0  0  0
    2.0340   45.6400   51.9210 C   0  0  0  0  0  0  0  0  0  0  0  0
   -0.0828   44.4935   51.9388 H   0  0  0  0  0  0  0  0  0  0  0  0
   -0.5955   43.2770   50.7212 H   0  0  0  0  0  0  0  0  0  0  0  0
    2.0219   43.5967   54.1945 H   0  0  0  0  0  0  0  0  0  0  0  0
    2.1217   45.3067   56.0119 H   0  0  0  0  0  0  0  0  0  0  0  0
    0.0110   46.1870   57.0178 H   0  0  0  0  0  0  0  0  0  0  0  0
   -2.3026   43.6336   54.3966 H   0  0  0  0  0  0  0  0  0  0  0  0
    4.0957   43.0925   50.7954 H   0  0  0  0  0  0  0  0  0  0  0  0
    4.0294   44.7182   49.9942 H   0  0  0  0  0  0  0  0  0  0  0  0
    4.9550   44.0531   52.8283 H   0  0  0  0  0  0  0  0  0  0  0  0
    5.9020   44.7905   51.4907 H   0  0  0  0  0  0  0  0  0  0  0  0
    4.6614   49.0899   53.4706 H   0  0  0  0  0  0  0  0  0  0  0  0
    6.5428   46.9955   55.2289 H   0  0  0  0  0  0  0  0  0  0  0  0
    9.0146   47.0837   55.5525 H   0  0  0  0  0  0  0  0  0  0  0  0
    9.5719   47.4033   51.2758 H   0  0  0  0  0  0  0  0  0  0  0  0
    7.1021   47.3248   50.9434 H   0  0  0  0  0  0  0  0  0  0  0  0
    1.3631   45.4540   52.7726 H   0  0  0  0  0  0  0  0  0  0  0  0
    1.5071   46.1715   51.1149 H   0  0  0  0  0  0  0  0  0  0  0  0
  1  2  2  0
  2  3  1  0
  3  4  1  0
  4  5  1  0
  5  6  2  0
  6  7  1  0
  7  8  2  0
  8  9  1  0
  9 10  1  0
  9 11  2  0
  2 12  1  0
 12 13  1  0
 13 14  1  0
 14 15  1  0
 15 16  2  0
 16 17  1  0
 17 18  2  0
 18 19  1  0
 19 20  1  0
 20 21  2  0
 21 22  1  0
 22 23  2  0
 23 24  1  0
 23 25  1  0
 25 26  2  0
 16 27  1  0
 11  5  1  0
 27 12  1  0
 19 15  1  0
 26 20  1  0
  3 28  1  0
  3 29  1  0
  6 30  1  0
  7 31  1  0
  8 32  1  0
 11 33  1  0
 13 34  1  0
 13 35  1  0
 14 36  1  0
 14 37  1  0
 18 38  1  0
 21 39  1  0
 22 40  1  0
 25 41  1  0
 26 42  1  0
 27 43  1  0
 27 44  1  0
M  END
>  <meeko>  (2) 
{"is_sidechain": [false], "free_energy": -8.57, "intermolecular_energy": -10.599, "internal_energy": -0.774}

$$$$
ligand_49_conformer_2_docked
     RDKit          3D

 44 47  0  0  0  0  0  0  0  0999 V2000
    5.7920   44.5550   55.2500 O   0  0  0  0  0  0  0  0  0  0  0  0
    4.9870   45.4270   54.8220 C   0  0  0  0  0  0  0  0  0  0  0  0
    5.4980   46.8180   54.5750 C   0  0  0  0  0  0  0  0  0  0  0  0
    5.6850   47.0860   52.7830 S   0  0  0  0  0  0  0  0  0  0  0  0
    7.4740   46.9810   52.8320 C   0  0  0  0  0  0  0  0  0  0  0  0
    8.1880   46.6160   51.6850 C   0  0  0  0  0  0  0  0  0  0  0  0
    9.5830   46.5270   51.7270 C   0  0  0  0  0  0  0  0  0  0  0  0
   10.2680   46.8090   52.9150 C   0  0  0  0  0  0  0  0  0  0  0  0
    9.5560   47.1780   54.0620 C   0  0  0  0  0  0  0  0  0  0  0  0
   10.4880   47.5640   55.6830 Br  0  0  0  0  0  0  0  0  0  0  0  0
    8.1590   47.2650   54.0200 C   0  0  0  0  0  0  0  0  0  0  0  0
    3.6230   45.0550   54.5420 N   0  0  0  0  0  0  0  0  0  0  0  0
    3.3010   44.2360   53.3530 C   0  0  0  0  0  0  0  0  0  0  0  0
    1.9530   44.6350   52.7330 C   0  0  0  0  0  0  0  0  0  0  0  0
    0.9230   44.7600   53.8090 C   0  0  0  0  0  0  0  0  0  0  0  0
    1.2300   45.0560   55.1040 C   0  0  0  0  0  0  0  0  0  0  0  0
    0.1100   45.0840   55.8530 N   0  0  0  0  0  0  0  0  0  0  0  0
   -0.8730   44.8030   54.9670 C   0  0  0  0  0  0  0  0  0  0  0  0
   -0.4120   44.6120   53.7090 N   0  0  0  0  0  0  0  0  0  0  0  0
   -1.2010   44.2950   52.5470 C   0  0  0  0  0  0  0  0  0  0  0  0
   -1.4410   42.9590   52.1830 C   0  0  0  0  0  0  0  0  0  0  0  0
   -2.1980   42.6620   51.0470 C   0  0  0  0  0  0  0  0  0  0  0  0
   -2.7190   43.6940   50.2610 C   0  0  0  0  0  0  0  0  0  0  0  0
   -3.4520   43.4030   49.1580 F   0  0  0  0  0  0  0  0  0  0  0  0
   -2.4750   45.0260   50.6080 C   0  0  0  0  0  0  0  0  0  0  0  0
   -1.7150   45.3260   51.7420 C   0  0  0  0  0  0  0  0  0  0  0  0
    2.6200   45.2920   55.6010 C   0  0  0  0  0  0  0  0  0  0  0  0
    4.7840   47.5488   54.9826 H   0  0  0  0  0  0  0  0  0  0  0  0
    6.4730   46.9438   55.0686 H   0  0  0  0  0  0  0  0  0  0  0  0
    7.6514   46.3989   50.7496 H   0  0  0  0  0  0  0  0  0  0  0  0
   10.1425   46.2352   50.8260 H   0  0  0  0  0  0  0  0  0  0  0  0
   11.3654   46.7406   52.9469 H   0  0  0  0  0  0  0  0  0  0  0  0
    7.5992   47.5566   54.9209 H   0  0  0  0  0  0  0  0  0  0  0  0
    4.0927   44.3725   52.6017 H   0  0  0  0  0  0  0  0  0  0  0  0
    3.2336   43.1848   53.6701 H   0  0  0  0  0  0  0  0  0  0  0  0
    2.0597   45.5993   52.2147 H   0  0  0  0  0  0  0  0  0  0  0  0
    1.6388   43.8634   52.0147 H   0  0  0  0  0  0  0  0  0  0  0  0
   -1.9364   44.7367   55.2406 H   0  0  0  0  0  0  0  0  0  0  0  0
   -1.0307   42.1428   52.7958 H   0  0  0  0  0  0  0  0  0  0  0  0
   -2.3845   41.6138   50.7704 H   0  0  0  0  0  0  0  0  0  0  0  0
   -2.8815   45.8387   49.9881 H   0  0  0  0  0  0  0  0  0  0  0  0
   -1.5180   46.3755   52.0060 H   0  0  0  0  0  0  0  0  0  0  0  0
    2.7040   46.3331   55.9459 H   0  0  0  0  0  0  0  0  0  0  0  0
    2.8155   44.5890   56.4241 H   0  0  0  0  0  0  0  0  0  0  0  0
  1  2  2  0
  2  3  1  0
  3  4  1  0
  4  5  1  0
  5  6  2  0
  6  7  1  0
  7  8  2  0
  8  9  1  0
  9 10  1  0
  9 11  2  0
  2 12  1  0
 12 13  1  0
 13 14  1  0
 14 15  1  0
 15 16  2  0
 16 17  1  0
 17 18  2  0
 18 19  1  0
 19 20  1  0
 20 21  2  0
 21 22  1  0
 22 23  2  0
 23 24  1  0
 23 25  1  0
 25 26  2  0
 16 27  1  0
 11  5  1  0
 27 12  1  0
 19 15  1  0
 26 20  1  0
  3 28  1  0
  3 29  1  0
  6 30  1  0
  7 31  1  0
  8 32  1  0
 11 33  1  0
 13 34  1  0
 13 35  1  0
 14 36  1  0
 14 37  1  0
 18 38  1  0
 21 39  1  0
 22 40  1  0
 25 41  1  0
 26 42  1  0
 27 43  1  0
 27 44  1  0
M  END
>  <meeko>  (3) 
{"is_sidechain": [false], "free_energy": -8.391, "intermolecular_energy": -10.39, "internal_energy": -0.753}

$$$$
ligand_49_conformer_2_docked
     RDKit          3D

 44 47  0  0  0  0  0  0  0  0999 V2000
    1.6260   42.3720   50.3620 O   0  0  0  0  0  0  0  0  0  0  0  0
    1.6340   43.0000   51.4560 C   0  0  0  0  0  0  0  0  0  0  0  0
    0.6440   42.6090   52.5160 C   0  0  0  0  0  0  0  0  0  0  0  0
   -1.0430   42.9890   51.9410 S   0  0  0  0  0  0  0  0  0  0  0  0
   -1.4780   43.8850   53.4320 C   0  0  0  0  0  0  0  0  0  0  0  0
   -2.8010   44.2850   53.6510 C   0  0  0  0  0  0  0  0  0  0  0  0
   -3.1370   44.9900   54.8110 C   0  0  0  0  0  0  0  0  0  0  0  0
   -2.1510   45.2920   55.7580 C   0  0  0  0  0  0  0  0  0  0  0  0
   -0.8270   44.8900   55.5430 C   0  0  0  0  0  0  0  0  0  0  0  0
    0.5180   45.3010   56.8330 Br  0  0  0  0  0  0  0  0  0  0  0  0
   -0.4910   44.1860   54.3810 C   0  0  0  0  0  0  0  0  0  0  0  0
    2.6140   44.0340   51.6710 N   0  0  0  0  0  0  0  0  0  0  0  0
    4.0060   43.8540   51.2040 C   0  0  0  0  0  0  0  0  0  0  0  0
    5.0180   44.4950   52.1650 C   0  0  0  0  0  0  0  0  0  0  0  0
    4.5640   45.8730   52.5260 C   0  0  0  0  0  0  0  0  0  0  0  0
    3.2550   46.2560   52.5050 C   0  0  0  0  0  0  0  0  0  0  0  0
    3.1440   47.5520   52.8560 N   0  0  0  0  0  0  0  0  0  0  0  0
    4.4220   47.9290   53.0910 C   0  0  0  0  0  0  0  0  0  0  0  0
    5.3110   46.9250   52.9110 N   0  0  0  0  0  0  0  0  0  0  0  0
    6.7390   47.0070   53.0770 C   0  0  0  0  0  0  0  0  0  0  0  0
    7.5930   47.0350   51.9610 C   0  0  0  0  0  0  0  0  0  0  0  0
    8.9780   47.1020   52.1330 C   0  0  0  0  0  0  0  0  0  0  0  0
    9.5240   47.1360   53.4200 C   0  0  0  0  0  0  0  0  0  0  0  0
   10.8690   47.2000   53.5840 F   0  0  0  0  0  0  0  0  0  0  0  0
    8.6840   47.0960   54.5350 C   0  0  0  0  0  0  0  0  0  0  0  0
    7.2980   47.0260   54.3670 C   0  0  0  0  0  0  0  0  0  0  0  0
    2.1260   45.3520   52.1260 C   0  0  0  0  0  0  0  0  0  0  0  0
    0.7287   41.5309   52.7171 H   0  0  0  0  0  0  0  0  0  0  0  0
    0.8526   43.1714   53.4381 H   0  0  0  0  0  0  0  0  0  0  0  0
   -3.5775   44.0446   52.9099 H   0  0  0  0  0  0  0  0  0  0  0  0
   -4.1766   45.3075   54.9795 H   0  0  0  0  0  0  0  0  0  0  0  0
   -2.4164   45.8451   56.6710 H   0  0  0  0  0  0  0  0  0  0  0  0
    0.5486   43.8685   54.2122 H   0  0  0  0  0  0  0  0  0  0  0  0
    4.2196   42.7776   51.1282 H   0  0  0  0  0  0  0  0  0  0  0  0
    4.1045   44.3468   50.2255 H   0  0  0  0  0  0  0  0  0  0  0  0
    5.0946   43.8843   53.0767 H   0  0  0  0  0  0  0  0  0  0  0  0
    6.0015   44.5511   51.6755 H   0  0  0  0  0  0  0  0  0  0  0  0
    4.7085   48.9461   53.3966 H   0  0  0  0  0  0  0  0  0  0  0  0
    7.1687   47.0040   50.9466 H   0  0  0  0  0  0  0  0  0  0  0  0
    9.6399   47.1280   51.2548 H   0  0  0  0  0  0  0  0  0  0  0  0
    9.1138   47.1196   55.5473 H   0  0  0  0  0  0  0  0  0  0  0  0
    6.6413   46.9856   55.2486 H   0  0  0  0  0  0  0  0  0  0  0  0
    1.4742   45.2089   53.0005 H   0  0  0  0  0  0  0  0  0  0  0  0
    1.5742   45.8195   51.2971 H   0  0  0  0  0  0  0  0  0  0  0  0
  1  2  2  0
  2  3  1  0
  3  4  1  0
  4  5  1  0
  5  6  2  0
  6  7  1  0
  7  8  2  0
  8  9  1  0
  9 10  1  0
  9 11  2  0
  2 12  1  0
 12 13  1  0
 13 14  1  0
 14 15  1  0
 15 16  2  0
 16 17  1  0
 17 18  2  0
 18 19  1  0
 19 20  1  0
 20 21  2  0
 21 22  1  0
 22 23  2  0
 23 24  1  0
 23 25  1  0
 25 26  2  0
 16 27  1  0
 11  5  1  0
 27 12  1  0
 19 15  1  0
 26 20  1  0
  3 28  1  0
  3 29  1  0
  6 30  1  0
  7 31  1  0
  8 32  1  0
 11 33  1  0
 13 34  1  0
 13 35  1  0
 14 36  1  0
 14 37  1  0
 18 38  1  0
 21 39  1  0
 22 40  1  0
 25 41  1  0
 26 42  1  0
 27 43  1  0
 27 44  1  0
M  END
>  <meeko>  (4) 
{"is_sidechain": [false], "free_energy": -8.383, "intermolecular_energy": -10.287, "internal_energy": -0.845}

$$$$
ligand_49_conformer_2_docked
     RDKit          3D

 44 47  0  0  0  0  0  0  0  0999 V2000
    5.6800   44.3660   54.6640 O   0  0  0  0  0  0  0  0  0  0  0  0
    4.9050   44.6570   53.7120 C   0  0  0  0  0  0  0  0  0  0  0  0
    5.4970   44.9250   52.3580 C   0  0  0  0  0  0  0  0  0  0  0  0
    5.7240   46.7200   52.1400 S   0  0  0  0  0  0  0  0  0  0  0  0
    7.5020   46.6430   52.3580 C   0  0  0  0  0  0  0  0  0  0  0  0
    8.3160   46.1540   51.3290 C   0  0  0  0  0  0  0  0  0  0  0  0
    9.7010   46.0880   51.5040 C   0  0  0  0  0  0  0  0  0  0  0  0
   10.2770   46.5150   52.7060 C   0  0  0  0  0  0  0  0  0  0  0  0
    9.4660   47.0080   53.7350 C   0  0  0  0  0  0  0  0  0  0  0  0
   10.2500   47.5920   55.3750 Br  0  0  0  0  0  0  0  0  0  0  0  0
    8.0790   47.0720   53.5600 C   0  0  0  0  0  0  0  0  0  0  0  0
    3.4820   44.6790   53.9410 N   0  0  0  0  0  0  0  0  0  0  0  0
    2.9020   45.5860   54.9550 C   0  0  0  0  0  0  0  0  0  0  0  0
    1.6970   44.9510   55.6660 C   0  0  0  0  0  0  0  0  0  0  0  0
    0.7820   44.3400   54.6540 C   0  0  0  0  0  0  0  0  0  0  0  0
    1.2060   43.9010   53.4340 C   0  0  0  0  0  0  0  0  0  0  0  0
    0.1660   43.4180   52.7260 N   0  0  0  0  0  0  0  0  0  0  0  0
   -0.8880   43.5770   53.5600 C   0  0  0  0  0  0  0  0  0  0  0  0
   -0.5440   44.1250   54.7480 N   0  0  0  0  0  0  0  0  0  0  0  0
   -1.4320   44.4230   55.8420 C   0  0  0  0  0  0  0  0  0  0  0  0
   -1.6040   45.7440   56.2890 C   0  0  0  0  0  0  0  0  0  0  0  0
   -2.4590   46.0220   57.3580 C   0  0  0  0  0  0  0  0  0  0  0  0
   -3.1460   44.9840   57.9950 C   0  0  0  0  0  0  0  0  0  0  0  0
   -3.9740   45.2570   59.0340 F   0  0  0  0  0  0  0  0  0  0  0  0
   -2.9720   43.6660   57.5660 C   0  0  0  0  0  0  0  0  0  0  0  0
   -2.1150   43.3840   56.4980 C   0  0  0  0  0  0  0  0  0  0  0  0
    2.6240   43.9730   52.9660 C   0  0  0  0  0  0  0  0  0  0  0  0
    6.4706   44.4196   52.2768 H   0  0  0  0  0  0  0  0  0  0  0  0
    4.8202   44.5434   51.5794 H   0  0  0  0  0  0  0  0  0  0  0  0
    7.8651   45.8216   50.3823 H   0  0  0  0  0  0  0  0  0  0  0  0
   10.3390   45.7001   50.6963 H   0  0  0  0  0  0  0  0  0  0  0  0
   11.3673   46.4632   52.8422 H   0  0  0  0  0  0  0  0  0  0  0  0
    7.4409   47.4598   54.3677 H   0  0  0  0  0  0  0  0  0  0  0  0
    3.6727   45.8228   55.7033 H   0  0  0  0  0  0  0  0  0  0  0  0
    2.5560   46.4956   54.4422 H   0  0  0  0  0  0  0  0  0  0  0  0
    2.0492   44.1722   56.3584 H   0  0  0  0  0  0  0  0  0  0  0  0
    1.1547   45.7257   56.2280 H   0  0  0  0  0  0  0  0  0  0  0  0
   -1.9174   43.2904   53.2989 H   0  0  0  0  0  0  0  0  0  0  0  0
   -1.0623   46.5637   55.7944 H   0  0  0  0  0  0  0  0  0  0  0  0
   -2.5921   47.0592   57.6993 H   0  0  0  0  0  0  0  0  0  0  0  0
   -3.5099   42.8490   58.0691 H   0  0  0  0  0  0  0  0  0  0  0  0
   -1.9744   42.3437   56.1693 H   0  0  0  0  0  0  0  0  0  0  0  0
    3.0068   42.9511   52.8274 H   0  0  0  0  0  0  0  0  0  0  0  0
    2.6465   44.5319   52.0188 H   0  0  0  0  0  0  0  0  0  0  0  0
  1  2  2  0
  2  3  1  0
  3  4  1  0
  4  5  1  0
  5  6  2  0
  6  7  1  0
  7  8  2  0
  8  9  1  0
  9 10  1  0
  9 11  2  0
  2 12  1  0
 12 13  1  0
 13 14  1  0
 14 15  1  0
 15 16  2  0
 16 17  1  0
 17 18  2  0
 18 19  1  0
 19 20  1  0
 20 21  2  0
 21 22  1  0
 22 23  2  0
 23 24  1  0
 23 25  1  0
 25 26  2  0
 16 27  1  0
 11  5  1  0
 27 12  1  0
 19 15  1  0
 26 20  1  0
  3 28  1  0
  3 29  1  0
  6 30  1  0
  7 31  1  0
  8 32  1  0
 11 33  1  0
 13 34  1  0
 13 35  1  0
 14 36  1  0
 14 37  1  0
 18 38  1  0
 21 39  1  0
 22 40  1  0
 25 41  1  0
 26 42  1  0
 27 43  1  0
 27 44  1  0
M  END
>  <meeko>  (5) 
{"is_sidechain": [false], "free_energy": -8.33, "intermolecular_energy": -10.429, "internal_energy": -0.634}

$$$$
