MODEL 1
REMARK VINA RESULT:    -8.270      0.000      0.000
REMARK INTER + INTRA:         -11.359
REMARK INTER:                 -10.687
REMARK INTRA:                  -0.671
REMARK UNBOUND:                -0.671
REMARK SMILES O=C(N[C@@H]1C[C@H]2CNC[C@H]2C1)c1ccc(OCC2CCCCC2)cc1
REMARK SMILES IDX 12 1 13 2 14 3 15 4 24 5 25 6 2 7 1 8 3 9 4 11 11 12 5 13
REMARK SMILES IDX 10 14 6 15 9 16 7 17 8 18 16 20 17 21 18 22 19 23 23 24
REMARK SMILES IDX 20 25 22 26 21 27
REMARK H PARENT 3 10 8 19
ROOT
ATOM      1  C   UNL     1       4.339  41.476  49.543  1.00  0.00     0.040 A 
ATOM      2  C   UNL     1       5.614  41.998  49.261  1.00  0.00     0.017 A 
ATOM      3  C   UNL     1       6.158  43.013  50.056  1.00  0.00     0.047 A 
ATOM      4  C   UNL     1       5.436  43.525  51.149  1.00  0.00     0.119 A 
ATOM      5  C   UNL     1       4.160  43.017  51.419  1.00  0.00     0.047 A 
ATOM      6  C   UNL     1       3.614  42.005  50.625  1.00  0.00     0.017 A 
ENDROOT
BRANCH   1   7
ATOM      7  C   UNL     1       3.748  40.408  48.704  1.00  0.00     0.251 C 
ATOM      8  O   UNL     1       3.111  39.469  49.256  1.00  0.00    -0.269 OA
ATOM      9  N   UNL     1       3.900  40.416  47.275  1.00  0.00    -0.349 N 
ATOM     10  H   UNL     1       4.614  41.050  46.849  1.00  0.00     0.164 HD
BRANCH   9  11
ATOM     11  C   UNL     1       3.145  39.500  46.410  1.00  0.00     0.083 C 
ATOM     12  C   UNL     1       2.028  40.251  45.682  1.00  0.00     0.030 C 
ATOM     13  C   UNL     1       4.027  38.944  45.296  1.00  0.00     0.030 C 
ATOM     14  C   UNL     1       2.591  40.627  44.301  1.00  0.00     0.009 C 
ATOM     15  C   UNL     1       3.957  39.986  44.180  1.00  0.00     0.009 C 
ATOM     16  C   UNL     1       1.805  40.065  43.122  1.00  0.00     0.085 C 
ATOM     17  C   UNL     1       4.020  39.402  42.765  1.00  0.00     0.085 C 
ATOM     18  N   UNL     1       2.777  39.757  42.078  1.00  0.00    -0.316 NA
ATOM     19  H   UNL     1       2.438  38.935  41.523  1.00  0.00     0.122 HD
ENDBRANCH   9  11
ENDBRANCH   1   7
BRANCH   4  20
ATOM     20  O   UNL     1       5.933  44.540  51.983  1.00  0.00    -0.493 OA
BRANCH  20  21
ATOM     21  C   UNL     1       6.009  45.928  51.649  1.00  0.00     0.233 C 
BRANCH  21  22
ATOM     22  C   UNL     1       7.332  46.545  52.140  1.00  0.00     0.027 C 
ATOM     23  C   UNL     1       7.576  46.199  53.620  1.00  0.00     0.007 C 
ATOM     24  C   UNL     1       8.525  46.087  51.260  1.00  0.00     0.007 C 
ATOM     25  C   UNL     1       8.831  46.908  54.171  1.00  0.00     0.000 C 
ATOM     26  C   UNL     1       9.883  46.128  51.993  1.00  0.00     0.000 C 
ATOM     27  C   UNL     1       9.902  47.187  53.099  1.00  0.00     0.000 C 
ENDBRANCH  21  22
ENDBRANCH  20  21
ENDBRANCH   4  20
TORSDOF 5
ENDMDL
MODEL 2
REMARK VINA RESULT:    -8.242      4.820      6.903
REMARK INTER + INTRA:         -11.323
REMARK INTER:                 -10.810
REMARK INTRA:                  -0.513
REMARK UNBOUND:                -0.671
REMARK SMILES O=C(N[C@@H]1C[C@H]2CNC[C@H]2C1)c1ccc(OCC2CCCCC2)cc1
REMARK SMILES IDX 12 1 13 2 14 3 15 4 24 5 25 6 2 7 1 8 3 9 4 11 11 12 5 13
REMARK SMILES IDX 10 14 6 15 9 16 7 17 8 18 16 20 17 21 18 22 19 23 23 24
REMARK SMILES IDX 20 25 22 26 21 27
REMARK H PARENT 3 10 8 19
ROOT
ATOM      1  C   UNL     1       4.041  43.727  51.040  1.00  0.00     0.040 A 
ATOM      2  C   UNL     1       5.170  42.991  50.639  1.00  0.00     0.017 A 
ATOM      3  C   UNL     1       6.380  43.638  50.365  1.00  0.00     0.047 A 
ATOM      4  C   UNL     1       6.482  45.037  50.487  1.00  0.00     0.119 A 
ATOM      5  C   UNL     1       5.353  45.770  50.869  1.00  0.00     0.047 A 
ATOM      6  C   UNL     1       4.143  45.125  51.141  1.00  0.00     0.017 A 
ENDROOT
BRANCH   1   7
ATOM      7  C   UNL     1       2.752  43.054  51.324  1.00  0.00     0.251 C 
ATOM      8  O   UNL     1       2.529  41.912  50.835  1.00  0.00    -0.269 OA
ATOM      9  N   UNL     1       1.748  43.684  52.136  1.00  0.00    -0.349 N 
ATOM     10  H   UNL     1       1.834  44.705  52.340  1.00  0.00     0.164 HD
BRANCH   9  11
ATOM     11  C   UNL     1       0.565  42.954  52.611  1.00  0.00     0.083 C 
ATOM     12  C   UNL     1       0.467  43.028  54.137  1.00  0.00     0.030 C 
ATOM     13  C   UNL     1      -0.720  43.606  52.110  1.00  0.00     0.030 C 
ATOM     14  C   UNL     1      -0.485  44.194  54.451  1.00  0.00     0.009 C 
ATOM     15  C   UNL     1      -1.036  44.696  53.134  1.00  0.00     0.009 C 
ATOM     16  C   UNL     1      -1.722  43.804  55.253  1.00  0.00     0.085 C 
ATOM     17  C   UNL     1      -2.532  44.929  53.369  1.00  0.00     0.085 C 
ATOM     18  N   UNL     1      -2.814  44.647  54.777  1.00  0.00    -0.316 NA
ATOM     19  H   UNL     1      -3.715  44.118  54.853  1.00  0.00     0.122 HD
ENDBRANCH   9  11
ENDBRANCH   1   7
BRANCH   4  20
ATOM     20  O   UNL     1       7.670  45.739  50.229  1.00  0.00    -0.493 OA
BRANCH  20  21
ATOM     21  C   UNL     1       8.874  45.645  50.992  1.00  0.00     0.233 C 
BRANCH  21  22
ATOM     22  C   UNL     1       8.837  46.593  52.205  1.00  0.00     0.027 C 
ATOM     23  C   UNL     1       7.821  46.098  53.251  1.00  0.00     0.007 C 
ATOM     24  C   UNL     1      10.246  46.755  52.835  1.00  0.00     0.007 C 
ATOM     25  C   UNL     1       7.672  47.095  54.418  1.00  0.00     0.000 C 
ATOM     26  C   UNL     1      10.212  47.144  54.329  1.00  0.00     0.000 C 
ATOM     27  C   UNL     1       8.944  47.924  54.687  1.00  0.00     0.000 C 
ENDBRANCH  21  22
ENDBRANCH  20  21
ENDBRANCH   4  20
TORSDOF 5
ENDMDL
MODEL 3
REMARK VINA RESULT:    -8.233      1.489      2.081
REMARK INTER + INTRA:         -11.311
REMARK INTER:                 -10.778
REMARK INTRA:                  -0.533
REMARK UNBOUND:                -0.671
REMARK SMILES O=C(N[C@@H]1C[C@H]2CNC[C@H]2C1)c1ccc(OCC2CCCCC2)cc1
REMARK SMILES IDX 12 1 13 2 14 3 15 4 24 5 25 6 2 7 1 8 3 9 4 11 11 12 5 13
REMARK SMILES IDX 10 14 6 15 9 16 7 17 8 18 16 20 17 21 18 22 19 23 23 24
REMARK SMILES IDX 20 25 22 26 21 27
REMARK H PARENT 3 10 8 19
ROOT
ATOM      1  C   UNL     1       4.620  41.126  48.874  1.00  0.00     0.040 A 
ATOM      2  C   UNL     1       4.475  41.600  50.190  1.00  0.00     0.017 A 
ATOM      3  C   UNL     1       5.329  42.589  50.687  1.00  0.00     0.047 A 
ATOM      4  C   UNL     1       6.348  43.123  49.876  1.00  0.00     0.119 A 
ATOM      5  C   UNL     1       6.503  42.638  48.573  1.00  0.00     0.047 A 
ATOM      6  C   UNL     1       5.651  41.649  48.075  1.00  0.00     0.017 A 
ENDROOT
BRANCH   1   7
ATOM      7  C   UNL     1       3.727  40.072  48.338  1.00  0.00     0.251 C 
ATOM      8  O   UNL     1       3.073  39.350  49.140  1.00  0.00    -0.269 OA
ATOM      9  N   UNL     1       3.604  39.850  46.924  1.00  0.00    -0.349 N 
ATOM     10  H   UNL     1       4.310  40.280  46.285  1.00  0.00     0.164 HD
BRANCH   9  11
ATOM     11  C   UNL     1       2.569  38.970  46.365  1.00  0.00     0.083 C 
ATOM     12  C   UNL     1       2.179  39.431  44.958  1.00  0.00     0.030 C 
ATOM     13  C   UNL     1       3.100  37.553  46.174  1.00  0.00     0.030 C 
ATOM     14  C   UNL     1       3.014  38.587  43.982  1.00  0.00     0.009 C 
ATOM     15  C   UNL     1       3.771  37.564  44.801  1.00  0.00     0.009 C 
ATOM     16  C   UNL     1       2.194  37.754  43.001  1.00  0.00     0.085 C 
ATOM     17  C   UNL     1       3.656  36.244  44.030  1.00  0.00     0.085 C 
ATOM     18  N   UNL     1       2.931  36.513  42.786  1.00  0.00    -0.316 NA
ATOM     19  H   UNL     1       2.252  35.737  42.604  1.00  0.00     0.122 HD
ENDBRANCH   9  11
ENDBRANCH   1   7
BRANCH   4  20
ATOM     20  O   UNL     1       7.232  44.119  50.321  1.00  0.00    -0.493 OA
BRANCH  20  21
ATOM     21  C   UNL     1       6.874  45.464  50.648  1.00  0.00     0.233 C 
BRANCH  21  22
ATOM     22  C   UNL     1       7.727  45.998  51.814  1.00  0.00     0.027 C 
ATOM     23  C   UNL     1       9.217  46.031  51.425  1.00  0.00     0.007 C 
ATOM     24  C   UNL     1       7.242  47.400  52.269  1.00  0.00     0.007 C 
ATOM     25  C   UNL     1      10.107  46.442  52.616  1.00  0.00     0.000 C 
ATOM     26  C   UNL     1       8.342  48.241  52.949  1.00  0.00     0.000 C 
ATOM     27  C   UNL     1       9.395  47.362  53.629  1.00  0.00     0.000 C 
ENDBRANCH  21  22
ENDBRANCH  20  21
ENDBRANCH   4  20
TORSDOF 5
ENDMDL
MODEL 4
REMARK VINA RESULT:    -8.208      4.471      6.411
REMARK INTER + INTRA:         -11.278
REMARK INTER:                 -11.087
REMARK INTRA:                  -0.191
REMARK UNBOUND:                -0.671
REMARK SMILES O=C(N[C@@H]1C[C@H]2CNC[C@H]2C1)c1ccc(OCC2CCCCC2)cc1
REMARK SMILES IDX 12 1 13 2 14 3 15 4 24 5 25 6 2 7 1 8 3 9 4 11 11 12 5 13
REMARK SMILES IDX 10 14 6 15 9 16 7 17 8 18 16 20 17 21 18 22 19 23 23 24
REMARK SMILES IDX 20 25 22 26 21 27
REMARK H PARENT 3 10 8 19
ROOT
ATOM      1  C   UNL     1       4.849  43.171  50.659  1.00  0.00     0.040 A 
ATOM      2  C   UNL     1       5.882  42.456  50.028  1.00  0.00     0.017 A 
ATOM      3  C   UNL     1       7.096  43.081  49.723  1.00  0.00     0.047 A 
ATOM      4  C   UNL     1       7.299  44.436  50.044  1.00  0.00     0.119 A 
ATOM      5  C   UNL     1       6.264  45.151  50.657  1.00  0.00     0.047 A 
ATOM      6  C   UNL     1       5.050  44.529  50.960  1.00  0.00     0.017 A 
ENDROOT
BRANCH   1   7
ATOM      7  C   UNL     1       3.555  42.523  50.980  1.00  0.00     0.251 C 
ATOM      8  O   UNL     1       3.477  41.264  50.974  1.00  0.00    -0.269 OA
ATOM      9  N   UNL     1       2.388  43.304  51.284  1.00  0.00    -0.349 N 
ATOM     10  H   UNL     1       2.394  44.325  51.061  1.00  0.00     0.164 HD
BRANCH   9  11
ATOM     11  C   UNL     1       1.164  42.691  51.816  1.00  0.00     0.083 C 
ATOM     12  C   UNL     1       1.154  42.758  53.346  1.00  0.00     0.030 C 
ATOM     13  C   UNL     1      -0.073  43.475  51.388  1.00  0.00     0.030 C 
ATOM     14  C   UNL     1       0.343  44.009  53.717  1.00  0.00     0.009 C 
ATOM     15  C   UNL     1      -0.223  44.579  52.434  1.00  0.00     0.009 C 
ATOM     16  C   UNL     1      -0.884  43.737  54.581  1.00  0.00     0.085 C 
ATOM     17  C   UNL     1      -1.674  44.960  52.749  1.00  0.00     0.085 C 
ATOM     18  N   UNL     1      -1.908  44.691  54.169  1.00  0.00    -0.316 NA
ATOM     19  H   UNL     1      -2.853  44.256  54.289  1.00  0.00     0.122 HD
ENDBRANCH   9  11
ENDBRANCH   1   7
BRANCH   4  20
ATOM     20  O   UNL     1       8.496  45.113  49.764  1.00  0.00    -0.493 OA
BRANCH  20  21
ATOM     21  C   UNL     1       9.582  45.294  50.676  1.00  0.00     0.233 C 
BRANCH  21  22
ATOM     22  C   UNL     1       9.139  46.094  51.915  1.00  0.00     0.027 C 
ATOM     23  C   UNL     1      10.350  46.440  52.800  1.00  0.00     0.007 C 
ATOM     24  C   UNL     1       8.365  47.376  51.509  1.00  0.00     0.007 C 
ATOM     25  C   UNL     1       9.920  47.132  54.110  1.00  0.00     0.000 C 
ATOM     26  C   UNL     1       8.428  48.496  52.569  1.00  0.00     0.000 C 
ATOM     27  C   UNL     1       8.610  47.935  53.982  1.00  0.00     0.000 C 
ENDBRANCH  21  22
ENDBRANCH  20  21
ENDBRANCH   4  20
TORSDOF 5
ENDMDL
MODEL 5
REMARK VINA RESULT:    -8.176      6.187      9.142
REMARK INTER + INTRA:         -11.237
REMARK INTER:                 -10.562
REMARK INTRA:                  -0.675
REMARK UNBOUND:                -0.671
REMARK SMILES O=C(N[C@@H]1C[C@H]2CNC[C@H]2C1)c1ccc(OCC2CCCCC2)cc1
REMARK SMILES IDX 12 1 13 2 14 3 15 4 24 5 25 6 2 7 1 8 3 9 4 11 11 12 5 13
REMARK SMILES IDX 10 14 6 15 9 16 7 17 8 18 16 20 17 21 18 22 19 23 23 24
REMARK SMILES IDX 20 25 22 26 21 27
REMARK H PARENT 3 10 8 19
ROOT
ATOM      1  C   UNL     1       1.408  45.308  52.558  1.00  0.00     0.040 A 
ATOM      2  C   UNL     1       2.139  46.051  53.502  1.00  0.00     0.017 A 
ATOM      3  C   UNL     1       3.435  46.490  53.211  1.00  0.00     0.047 A 
ATOM      4  C   UNL     1       4.025  46.193  51.968  1.00  0.00     0.119 A 
ATOM      5  C   UNL     1       3.302  45.439  51.036  1.00  0.00     0.047 A 
ATOM      6  C   UNL     1       2.008  44.998  51.326  1.00  0.00     0.017 A 
ENDROOT
BRANCH   1   7
ATOM      7  C   UNL     1       0.037  44.830  52.858  1.00  0.00     0.251 C 
ATOM      8  O   UNL     1      -0.487  43.953  52.118  1.00  0.00    -0.269 OA
ATOM      9  N   UNL     1      -0.707  45.357  53.969  1.00  0.00    -0.349 N 
ATOM     10  H   UNL     1      -0.371  46.233  54.428  1.00  0.00     0.164 HD
BRANCH   9  11
ATOM     11  C   UNL     1      -1.967  44.748  54.415  1.00  0.00     0.083 C 
ATOM     12  C   UNL     1      -1.689  43.590  55.377  1.00  0.00     0.030 C 
ATOM     13  C   UNL     1      -2.796  45.736  55.229  1.00  0.00     0.030 C 
ATOM     14  C   UNL     1      -1.804  44.172  56.795  1.00  0.00     0.009 C 
ATOM     15  C   UNL     1      -2.275  45.604  56.660  1.00  0.00     0.009 C 
ATOM     16  C   UNL     1      -2.863  43.508  57.669  1.00  0.00     0.085 C 
ATOM     17  C   UNL     1      -3.343  45.797  57.742  1.00  0.00     0.085 C 
ATOM     18  N   UNL     1      -3.428  44.556  58.514  1.00  0.00    -0.316 NA
ATOM     19  H   UNL     1      -4.433  44.336  58.710  1.00  0.00     0.122 HD
ENDBRANCH   9  11
ENDBRANCH   1   7
BRANCH   4  20
ATOM     20  O   UNL     1       5.319  46.610  51.620  1.00  0.00    -0.493 OA
BRANCH  20  21
ATOM     21  C   UNL     1       6.404  45.749  51.268  1.00  0.00     0.233 C 
BRANCH  21  22
ATOM     22  C   UNL     1       7.639  46.025  52.146  1.00  0.00     0.027 C 
ATOM     23  C   UNL     1       8.904  46.155  51.278  1.00  0.00     0.007 C 
ATOM     24  C   UNL     1       7.435  47.291  53.020  1.00  0.00     0.007 C 
ATOM     25  C   UNL     1      10.174  46.308  52.140  1.00  0.00     0.000 C 
ATOM     26  C   UNL     1       8.755  47.976  53.432  1.00  0.00     0.000 C 
ATOM     27  C   UNL     1       9.916  46.979  53.504  1.00  0.00     0.000 C 
ENDBRANCH  21  22
ENDBRANCH  20  21
ENDBRANCH   4  20
TORSDOF 5
ENDMDL
